
     RDKit          3D

  5  4  0  0  0  0  0  0  0  0999 V2000
    0.0319   -1.9279   16.8260 C   0  0  0  0  0  0  0  0  0  0  0  0
    0.2688   -0.8106   15.8840 C   0  0  0  0  0  0  0  0  0  0  0  0
    1.3621   -0.7757   15.2625 O   0  0  0  0  0  0  0  0  0  0  0  0
   -0.6439    0.2041   15.6437 O   0  0  0  0  0  0  0  0  0  0  0  0
   -0.9131   -1.5859   17.8607 N   0  0  0  0  0  0  0  0  0  0  0  0
  1  2  1  0
  2  3  2  0
  2  4  1  0
  1  5  1  0
M  END
$$$$
