
     RDKit          3D

  5  4  0  0  0  0  0  0  0  0999 V2000
   -0.2025   -1.8583   15.2464 C   0  0  0  0  0  0  0  0  0  0  0  0
    0.2092   -0.4363   15.2596 C   0  0  0  0  0  0  0  0  0  0  0  0
    0.1383    0.2155   14.1858 O   0  0  0  0  0  0  0  0  0  0  0  0
    0.6701    0.2242   16.3873 O   0  0  0  0  0  0  0  0  0  0  0  0
   -0.0454   -2.4898   16.5336 N   0  0  0  0  0  0  0  0  0  0  0  0
  1  2  1  0
  2  3  2  0
  2  4  1  0
  1  5  1  0
M  END
$$$$
