
     RDKit          3D

  5  4  0  0  0  0  0  0  0  0999 V2000
   -1.3183   -2.6935   18.8696 C   0  0  0  0  0  0  0  0  0  0  0  0
   -0.2982   -1.7372   18.3833 C   0  0  0  0  0  0  0  0  0  0  0  0
    0.6359   -2.1758   17.6636 O   0  0  0  0  0  0  0  0  0  0  0  0
   -0.3089   -0.3821   18.6734 O   0  0  0  0  0  0  0  0  0  0  0  0
   -1.9683   -2.2408   20.0750 N   0  0  0  0  0  0  0  0  0  0  0  0
  1  2  1  0
  2  3  2  0
  2  4  1  0
  1  5  1  0
M  END
$$$$
