
     RDKit          3D

  5  4  0  0  0  0  0  0  0  0999 V2000
   -0.0545   -2.1850   16.8425 C   0  0  0  0  0  0  0  0  0  0  0  0
   -0.1027   -0.7839   16.3667 C   0  0  0  0  0  0  0  0  0  0  0  0
    0.2376   -0.5449   15.1793 O   0  0  0  0  0  0  0  0  0  0  0  0
   -0.5016    0.2856   17.1524 O   0  0  0  0  0  0  0  0  0  0  0  0
   -0.4902   -2.3178   18.2111 N   0  0  0  0  0  0  0  0  0  0  0  0
  1  2  1  0
  2  3  2  0
  2  4  1  0
  1  5  1  0
M  END
$$$$
