
     RDKit          3D

  5  4  0  0  0  0  0  0  0  0999 V2000
    0.1689   -1.7849   18.6073 C   0  0  0  0  0  0  0  0  0  0  0  0
   -0.0492   -1.6107   17.1534 C   0  0  0  0  0  0  0  0  0  0  0  0
   -0.7960   -2.4307   16.5595 O   0  0  0  0  0  0  0  0  0  0  0  0
    0.5213   -0.5950   16.4028 O   0  0  0  0  0  0  0  0  0  0  0  0
   -0.8326   -2.6239   19.2185 N   0  0  0  0  0  0  0  0  0  0  0  0
  1  2  1  0
  2  3  2  0
  2  4  1  0
  1  5  1  0
M  END
$$$$
