
     RDKit          3D

  5  4  0  0  0  0  0  0  0  0999 V2000
    0.0595   -1.2290   14.0914 C   0  0  0  0  0  0  0  0  0  0  0  0
    0.3234    0.1949   14.3991 C   0  0  0  0  0  0  0  0  0  0  0  0
   -0.2335    1.0719   13.6896 O   0  0  0  0  0  0  0  0  0  0  0  0
    1.1503    0.6231   15.4254 O   0  0  0  0  0  0  0  0  0  0  0  0
   -0.1358   -2.0229   15.2796 N   0  0  0  0  0  0  0  0  0  0  0  0
  1  2  1  0
  2  3  2  0
  2  4  1  0
  1  5  1  0
M  END
$$$$
