
     RDKit          3D

  5  4  0  0  0  0  0  0  0  0999 V2000
   -0.6148   -1.6880   15.6504 C   0  0  0  0  0  0  0  0  0  0  0  0
   -0.0016   -0.3881   15.2953 C   0  0  0  0  0  0  0  0  0  0  0  0
    0.5489    0.2810   16.2074 O   0  0  0  0  0  0  0  0  0  0  0  0
    0.0032    0.1395   14.0138 O   0  0  0  0  0  0  0  0  0  0  0  0
   -0.2742   -2.1117   16.9864 N   0  0  0  0  0  0  0  0  0  0  0  0
  1  2  1  0
  2  3  2  0
  2  4  1  0
  1  5  1  0
M  END
$$$$
