
     RDKit          3D

  5  4  0  0  0  0  0  0  0  0999 V2000
    3.9874   -2.3825  -24.7949 C   0  0  0  0  0  0  0  0  0  0  0  0
    3.9655   -2.7900  -23.3718 C   0  0  0  0  0  0  0  0  0  0  0  0
    5.0560   -2.8297  -22.7456 O   0  0  0  0  0  0  0  0  0  0  0  0
    2.8123   -3.1319  -22.6836 O   0  0  0  0  0  0  0  0  0  0  0  0
    2.9767   -3.0526  -25.5759 N   0  0  0  0  0  0  0  0  0  0  0  0
  1  2  1  0
  2  3  2  0
  2  4  1  0
  1  5  1  0
M  END
$$$$
