
     RDKit          3D

  5  4  0  0  0  0  0  0  0  0999 V2000
    2.6541   -0.2892  -18.8297 C   0  0  0  0  0  0  0  0  0  0  0  0
    3.4212   -1.2700  -19.6305 C   0  0  0  0  0  0  0  0  0  0  0  0
    3.6291   -1.0164  -20.8451 O   0  0  0  0  0  0  0  0  0  0  0  0
    3.9267   -2.4560  -19.1220 O   0  0  0  0  0  0  0  0  0  0  0  0
    1.8516    0.5850  -19.6496 N   0  0  0  0  0  0  0  0  0  0  0  0
  1  2  1  0
  2  3  2  0
  2  4  1  0
  1  5  1  0
M  END
$$$$
