
     RDKit          3D

  5  4  0  0  0  0  0  0  0  0999 V2000
    0.7395   -1.3094   16.7050 C   0  0  0  0  0  0  0  0  0  0  0  0
    0.0458   -1.0195   15.4297 C   0  0  0  0  0  0  0  0  0  0  0  0
   -0.4982   -1.9735   14.8160 O   0  0  0  0  0  0  0  0  0  0  0  0
   -0.0417    0.2443   14.8677 O   0  0  0  0  0  0  0  0  0  0  0  0
   -0.0173   -2.1949   17.5556 N   0  0  0  0  0  0  0  0  0  0  0  0
  1  2  1  0
  2  3  2  0
  2  4  1  0
  1  5  1  0
M  END
$$$$
