
     RDKit          3D

  5  4  0  0  0  0  0  0  0  0999 V2000
    3.3888   -0.0294  -19.2481 C   0  0  0  0  0  0  0  0  0  0  0  0
    3.6743   -0.9319  -20.3864 C   0  0  0  0  0  0  0  0  0  0  0  0
    2.7535   -1.6847  -20.7966 O   0  0  0  0  0  0  0  0  0  0  0  0
    4.8993   -0.9989  -21.0309 O   0  0  0  0  0  0  0  0  0  0  0  0
    4.5486    0.7227  -18.8363 N   0  0  0  0  0  0  0  0  0  0  0  0
  1  2  1  0
  2  3  2  0
  2  4  1  0
  1  5  1  0
M  END
$$$$
