
     RDKit          3D

  5  4  0  0  0  0  0  0  0  0999 V2000
   -0.1097   -0.7207   12.2598 C   0  0  0  0  0  0  0  0  0  0  0  0
    0.1584   -0.3441   13.6662 C   0  0  0  0  0  0  0  0  0  0  0  0
    0.3830    0.8658   13.9276 O   0  0  0  0  0  0  0  0  0  0  0  0
    0.1771   -1.2468   14.7176 O   0  0  0  0  0  0  0  0  0  0  0  0
   -1.0057    0.1997   11.6037 N   0  0  0  0  0  0  0  0  0  0  0  0
  1  2  1  0
  2  3  2  0
  2  4  1  0
  1  5  1  0
M  END
$$$$
