
     RDKit          3D

  5  4  0  0  0  0  0  0  0  0999 V2000
    0.3584   -1.7768   17.4450 C   0  0  0  0  0  0  0  0  0  0  0  0
   -0.2436   -1.0848   16.2829 C   0  0  0  0  0  0  0  0  0  0  0  0
   -1.2999   -0.4254   16.4625 O   0  0  0  0  0  0  0  0  0  0  0  0
    0.2874   -1.1189   15.0033 O   0  0  0  0  0  0  0  0  0  0  0  0
   -0.6153   -2.1024   18.4581 N   0  0  0  0  0  0  0  0  0  0  0  0
  1  2  1  0
  2  3  2  0
  2  4  1  0
  1  5  1  0
M  END
$$$$
