
     RDKit          3D

  5  4  0  0  0  0  0  0  0  0999 V2000
    0.4383   -1.4531   15.4773 C   0  0  0  0  0  0  0  0  0  0  0  0
    0.0835   -0.4317   14.4661 C   0  0  0  0  0  0  0  0  0  0  0  0
   -0.4200    0.6509   14.8626 O   0  0  0  0  0  0  0  0  0  0  0  0
    0.2729   -0.5955   13.1031 O   0  0  0  0  0  0  0  0  0  0  0  0
    0.0569   -1.0629   16.8125 N   0  0  0  0  0  0  0  0  0  0  0  0
  1  2  1  0
  2  3  2  0
  2  4  1  0
  1  5  1  0
M  END
$$$$
