
     RDKit          3D

  5  4  0  0  0  0  0  0  0  0999 V2000
    0.2803   -1.5803   15.3839 C   0  0  0  0  0  0  0  0  0  0  0  0
    0.0977   -0.3395   14.5973 C   0  0  0  0  0  0  0  0  0  0  0  0
   -0.0196    0.7486   15.2179 O   0  0  0  0  0  0  0  0  0  0  0  0
    0.0478   -0.3026   13.2129 O   0  0  0  0  0  0  0  0  0  0  0  0
    0.2340   -1.3436   16.8060 N   0  0  0  0  0  0  0  0  0  0  0  0
  1  2  1  0
  2  3  2  0
  2  4  1  0
  1  5  1  0
M  END
$$$$
