
     RDKit          3D

  5  4  0  0  0  0  0  0  0  0999 V2000
   -0.9972   -1.8074   16.4254 C   0  0  0  0  0  0  0  0  0  0  0  0
   -0.1065   -0.7249   15.9494 C   0  0  0  0  0  0  0  0  0  0  0  0
   -0.5243    0.4604   16.0072 O   0  0  0  0  0  0  0  0  0  0  0  0
    1.1652   -0.9379   15.4416 O   0  0  0  0  0  0  0  0  0  0  0  0
   -1.1614   -1.7964   17.8584 N   0  0  0  0  0  0  0  0  0  0  0  0
  1  2  1  0
  2  3  2  0
  2  4  1  0
  1  5  1  0
M  END
$$$$
