
     RDKit          3D

  5  4  0  0  0  0  0  0  0  0999 V2000
   -1.0968   -1.0179   15.5494 C   0  0  0  0  0  0  0  0  0  0  0  0
    0.0370   -0.2787   14.9496 C   0  0  0  0  0  0  0  0  0  0  0  0
   -0.1777    0.4084   13.9178 O   0  0  0  0  0  0  0  0  0  0  0  0
    1.3264   -0.2970   15.4572 O   0  0  0  0  0  0  0  0  0  0  0  0
   -0.7891   -1.5285   16.8628 N   0  0  0  0  0  0  0  0  0  0  0  0
  1  2  1  0
  2  3  2  0
  2  4  1  0
  1  5  1  0
M  END
$$$$
