
     RDKit          3D

  5  4  0  0  0  0  0  0  0  0999 V2000
    0.4637   -1.2398   14.7336 C   0  0  0  0  0  0  0  0  0  0  0  0
   -0.0283    0.1511   14.6114 C   0  0  0  0  0  0  0  0  0  0  0  0
    0.0264    0.8947   15.6248 O   0  0  0  0  0  0  0  0  0  0  0  0
   -0.5479    0.6871   13.4438 O   0  0  0  0  0  0  0  0  0  0  0  0
    0.4417   -1.7149   16.0953 N   0  0  0  0  0  0  0  0  0  0  0  0
  1  2  1  0
  2  3  2  0
  2  4  1  0
  1  5  1  0
M  END
$$$$
