
     RDKit          3D

  5  4  0  0  0  0  0  0  0  0999 V2000
    4.0462   -3.3277  -25.4841 C   0  0  0  0  0  0  0  0  0  0  0  0
    4.2931   -4.6302  -24.8252 C   0  0  0  0  0  0  0  0  0  0  0  0
    4.1561   -5.6790  -25.5063 O   0  0  0  0  0  0  0  0  0  0  0  0
    4.6678   -4.7659  -23.4978 O   0  0  0  0  0  0  0  0  0  0  0  0
    2.8719   -3.3471  -26.3214 N   0  0  0  0  0  0  0  0  0  0  0  0
  1  2  1  0
  2  3  2  0
  2  4  1  0
  1  5  1  0
M  END
$$$$
