
     RDKit          3D

  5  4  0  0  0  0  0  0  0  0999 V2000
    0.4848   -0.5537   13.3647 C   0  0  0  0  0  0  0  0  0  0  0  0
   -0.3771    0.3357   12.5537 C   0  0  0  0  0  0  0  0  0  0  0  0
   -0.5761    0.0367   11.3480 O   0  0  0  0  0  0  0  0  0  0  0  0
   -0.9811    1.4829   13.0432 O   0  0  0  0  0  0  0  0  0  0  0  0
    0.3870   -0.2783   14.7772 N   0  0  0  0  0  0  0  0  0  0  0  0
  1  2  1  0
  2  3  2  0
  2  4  1  0
  1  5  1  0
M  END
$$$$
