
     RDKit          3D

  5  4  0  0  0  0  0  0  0  0999 V2000
   -1.1967   -1.3811   17.1741 C   0  0  0  0  0  0  0  0  0  0  0  0
   -0.3362   -0.9947   16.0331 C   0  0  0  0  0  0  0  0  0  0  0  0
   -0.7224   -1.2812   14.8705 O   0  0  0  0  0  0  0  0  0  0  0  0
    0.8744   -0.3337   16.1674 O   0  0  0  0  0  0  0  0  0  0  0  0
   -0.4453   -1.9620   18.2596 N   0  0  0  0  0  0  0  0  0  0  0  0
  1  2  1  0
  2  3  2  0
  2  4  1  0
  1  5  1  0
M  END
$$$$
