
     RDKit          3D

  5  4  0  0  0  0  0  0  0  0999 V2000
   -0.4595   -2.0440   16.1644 C   0  0  0  0  0  0  0  0  0  0  0  0
    0.0931   -0.7022   15.8714 C   0  0  0  0  0  0  0  0  0  0  0  0
    0.0218    0.1806   16.7649 O   0  0  0  0  0  0  0  0  0  0  0  0
    0.6871   -0.3572   14.6678 O   0  0  0  0  0  0  0  0  0  0  0  0
   -0.6907   -2.2497   17.5732 N   0  0  0  0  0  0  0  0  0  0  0  0
  1  2  1  0
  2  3  2  0
  2  4  1  0
  1  5  1  0
M  END
$$$$
