
     RDKit          3D

  5  4  0  0  0  0  0  0  0  0999 V2000
   -1.3109   -1.7082   17.1826 C   0  0  0  0  0  0  0  0  0  0  0  0
   -0.1391   -1.0422   16.5703 C   0  0  0  0  0  0  0  0  0  0  0  0
    0.9420   -1.0266   17.2136 O   0  0  0  0  0  0  0  0  0  0  0  0
   -0.1597   -0.4320   15.3262 O   0  0  0  0  0  0  0  0  0  0  0  0
   -0.9996   -2.3123   18.4548 N   0  0  0  0  0  0  0  0  0  0  0  0
  1  2  1  0
  2  3  2  0
  2  4  1  0
  1  5  1  0
M  END
$$$$
