
     RDKit          3D

  5  4  0  0  0  0  0  0  0  0999 V2000
   -0.2296   -0.1185   12.0569 C   0  0  0  0  0  0  0  0  0  0  0  0
   -0.4001    0.8565   13.1579 C   0  0  0  0  0  0  0  0  0  0  0  0
   -0.0456    0.5166   14.3162 O   0  0  0  0  0  0  0  0  0  0  0  0
   -0.9287    2.1265   12.9903 O   0  0  0  0  0  0  0  0  0  0  0  0
    0.2483   -1.3975   12.5220 N   0  0  0  0  0  0  0  0  0  0  0  0
  1  2  1  0
  2  3  2  0
  2  4  1  0
  1  5  1  0
M  END
$$$$
