
     RDKit          3D

  5  4  0  0  0  0  0  0  0  0999 V2000
   -0.4215   -1.0589   17.1933 C   0  0  0  0  0  0  0  0  0  0  0  0
   -0.0570   -0.9753   15.7609 C   0  0  0  0  0  0  0  0  0  0  0  0
   -0.0441   -2.0367   15.0855 O   0  0  0  0  0  0  0  0  0  0  0  0
    0.2724    0.2058   15.1151 O   0  0  0  0  0  0  0  0  0  0  0  0
   -0.3924   -2.4121   17.6917 N   0  0  0  0  0  0  0  0  0  0  0  0
  1  2  1  0
  2  3  2  0
  2  4  1  0
  1  5  1  0
M  END
$$$$
