
     RDKit          3D

  5  4  0  0  0  0  0  0  0  0999 V2000
    0.4952   -1.2860   16.9563 C   0  0  0  0  0  0  0  0  0  0  0  0
    0.2321   -0.9203   15.5460 C   0  0  0  0  0  0  0  0  0  0  0  0
   -0.3492   -1.7592   14.8105 O   0  0  0  0  0  0  0  0  0  0  0  0
    0.5886    0.2951   14.9837 O   0  0  0  0  0  0  0  0  0  0  0  0
   -0.3107   -2.3981   17.3971 N   0  0  0  0  0  0  0  0  0  0  0  0
  1  2  1  0
  2  3  2  0
  2  4  1  0
  1  5  1  0
M  END
$$$$
