
     RDKit          3D

  5  4  0  0  0  0  0  0  0  0999 V2000
   -0.8418   -2.5197   18.0401 C   0  0  0  0  0  0  0  0  0  0  0  0
    0.0206   -1.3520   17.7491 C   0  0  0  0  0  0  0  0  0  0  0  0
    0.5302   -0.7306   18.7171 O   0  0  0  0  0  0  0  0  0  0  0  0
    0.3024   -0.8992   16.4700 O   0  0  0  0  0  0  0  0  0  0  0  0
   -1.0120   -2.7405   19.4552 N   0  0  0  0  0  0  0  0  0  0  0  0
  1  2  1  0
  2  3  2  0
  2  4  1  0
  1  5  1  0
M  END
$$$$
