
     RDKit          3D

  5  4  0  0  0  0  0  0  0  0999 V2000
   -1.0461   -2.3110   17.6116 C   0  0  0  0  0  0  0  0  0  0  0  0
   -0.0079   -1.3421   17.1931 C   0  0  0  0  0  0  0  0  0  0  0  0
    0.8057   -0.9282   18.0588 O   0  0  0  0  0  0  0  0  0  0  0  0
    0.1236   -0.8608   15.9002 O   0  0  0  0  0  0  0  0  0  0  0  0
   -1.1678   -2.4037   19.0458 N   0  0  0  0  0  0  0  0  0  0  0  0
  1  2  1  0
  2  3  2  0
  2  4  1  0
  1  5  1  0
M  END
$$$$
