
     RDKit          3D

  5  4  0  0  0  0  0  0  0  0999 V2000
    0.6438   -1.4679   16.9958 C   0  0  0  0  0  0  0  0  0  0  0  0
    0.3225   -1.0031   15.6275 C   0  0  0  0  0  0  0  0  0  0  0  0
   -0.3799   -1.7461   14.8944 O   0  0  0  0  0  0  0  0  0  0  0  0
    0.7499    0.2059   15.1019 O   0  0  0  0  0  0  0  0  0  0  0  0
   -0.4445   -2.1959   17.6007 N   0  0  0  0  0  0  0  0  0  0  0  0
  1  2  1  0
  2  3  2  0
  2  4  1  0
  1  5  1  0
M  END
$$$$
