
     RDKit          3D

  5  4  0  0  0  0  0  0  0  0999 V2000
    2.1447  -13.3303  -23.8488 C   0  0  0  0  0  0  0  0  0  0  0  0
    2.8361  -12.0353  -23.6568 C   0  0  0  0  0  0  0  0  0  0  0  0
    3.7492  -11.9686  -22.7939 O   0  0  0  0  0  0  0  0  0  0  0  0
    2.5378  -10.8867  -24.3724 O   0  0  0  0  0  0  0  0  0  0  0  0
    1.5329  -13.4411  -25.1503 N   0  0  0  0  0  0  0  0  0  0  0  0
  1  2  1  0
  2  3  2  0
  2  4  1  0
  1  5  1  0
M  END
$$$$
