
     RDKit          3D

  5  4  0  0  0  0  0  0  0  0999 V2000
   -1.5297   -1.4755   16.3112 C   0  0  0  0  0  0  0  0  0  0  0  0
   -0.1355   -0.9931   16.1877 C   0  0  0  0  0  0  0  0  0  0  0  0
    0.7429   -1.5121   16.9237 O   0  0  0  0  0  0  0  0  0  0  0  0
    0.2633   -0.0001   15.3071 O   0  0  0  0  0  0  0  0  0  0  0  0
   -1.8776   -1.8147   17.6693 N   0  0  0  0  0  0  0  0  0  0  0  0
  1  2  1  0
  2  3  2  0
  2  4  1  0
  1  5  1  0
M  END
$$$$
