
     RDKit          3D

  5  4  0  0  0  0  0  0  0  0999 V2000
   -1.3447   -0.8612   15.9307 C   0  0  0  0  0  0  0  0  0  0  0  0
   -0.1026   -0.4218   15.2556 C   0  0  0  0  0  0  0  0  0  0  0  0
   -0.2023    0.1793   14.1549 O   0  0  0  0  0  0  0  0  0  0  0  0
    1.1693   -0.6330   15.7639 O   0  0  0  0  0  0  0  0  0  0  0  0
   -1.0826   -1.5948   17.1447 N   0  0  0  0  0  0  0  0  0  0  0  0
  1  2  1  0
  2  3  2  0
  2  4  1  0
  1  5  1  0
M  END
$$$$
