
     RDKit          3D

 18 19  0  0  0  0  0  0  0  0999 V2000
    5.9015    2.2312    5.4820 C   0  0  0  0  0  0  0  0  0  0  0  0
    5.3424    3.6035    5.7529 C   0  0  0  0  0  0  0  0  0  0  0  0
    5.0111    4.3363    4.8134 O   0  0  0  0  0  0  0  0  0  0  0  0
    5.2008    4.0433    7.0792 N   0  0  0  0  0  0  0  0  0  0  0  0
    4.6827    5.3222    7.4780 C   0  0  0  0  0  0  0  0  0  0  0  0
    3.2069    5.4050    7.1152 C   0  0  0  0  0  0  0  0  0  0  0  0
    2.3435    4.7137    8.0959 C   0  0  0  0  0  0  0  0  0  0  0  0
    2.4779    3.3380    8.3148 C   0  0  0  0  0  0  0  0  0  0  0  0
    1.6887    2.7208    9.2477 C   0  0  0  0  0  0  0  0  0  0  0  0
    0.7606    3.4622    9.9700 C   0  0  0  0  0  0  0  0  0  0  0  0
    0.6346    4.8225    9.7458 C   0  0  0  0  0  0  0  0  0  0  0  0
    1.4248    5.4656    8.8050 C   0  0  0  0  0  0  0  0  0  0  0  0
    1.2615    6.8142    8.6086 C   0  0  0  0  0  0  0  0  0  0  0  0
    0.3331    7.5895    9.3121 C   0  0  0  0  0  0  0  0  0  0  0  0
   -0.4344    6.9219   10.2385 C   0  0  0  0  0  0  0  0  0  0  0  0
   -0.2920    5.5708   10.4548 C   0  0  0  0  0  0  0  0  0  0  0  0
    0.2206    8.9520    9.0629 O   0  0  0  0  0  0  0  0  0  0  0  0
   -0.1860    9.7685   10.1386 C   0  0  0  0  0  0  0  0  0  0  0  0
  1  2  1  0
  2  3  2  0
  2  4  1  0
  4  5  1  0
  5  6  1  0
  6  7  1  0
  7  8  2  0
  8  9  1  0
  9 10  2  0
 10 11  1  0
 11 12  2  0
 12 13  1  0
 13 14  2  0
 14 15  1  0
 15 16  2  0
 14 17  1  0
 17 18  1  0
 12  7  1  0
 16 11  1  0
M  END
$$$$
