
     RDKit          3D

 18 19  0  0  0  0  0  0  0  0999 V2000
   -0.2162   -0.5997   10.1743 C   0  0  0  0  0  0  0  0  0  0  0  0
   -0.2271    0.7552    9.5160 C   0  0  0  0  0  0  0  0  0  0  0  0
   -0.6282    1.7455   10.1386 O   0  0  0  0  0  0  0  0  0  0  0  0
    0.2213    0.8842    8.1913 N   0  0  0  0  0  0  0  0  0  0  0  0
    0.2604    2.1106    7.4447 C   0  0  0  0  0  0  0  0  0  0  0  0
    1.6180    2.7729    7.6313 C   0  0  0  0  0  0  0  0  0  0  0  0
    1.6161    4.1929    7.2208 C   0  0  0  0  0  0  0  0  0  0  0  0
    0.4217    4.9216    7.1898 C   0  0  0  0  0  0  0  0  0  0  0  0
    0.4442    6.2434    6.8343 C   0  0  0  0  0  0  0  0  0  0  0  0
    1.6502    6.8524    6.5068 C   0  0  0  0  0  0  0  0  0  0  0  0
    2.8264    6.1231    6.5398 C   0  0  0  0  0  0  0  0  0  0  0  0
    2.8240    4.7832    6.8971 C   0  0  0  0  0  0  0  0  0  0  0  0
    4.0117    4.0953    6.9088 C   0  0  0  0  0  0  0  0  0  0  0  0
    5.2419    4.6743    6.5784 C   0  0  0  0  0  0  0  0  0  0  0  0
    5.2102    6.0047    6.2295 C   0  0  0  0  0  0  0  0  0  0  0  0
    4.0339    6.7176    6.2086 C   0  0  0  0  0  0  0  0  0  0  0  0
    6.4075    3.9184    6.6117 O   0  0  0  0  0  0  0  0  0  0  0  0
    6.7601    3.3391    7.8483 C   0  0  0  0  0  0  0  0  0  0  0  0
  1  2  1  0
  2  3  2  0
  2  4  1  0
  4  5  1  0
  5  6  1  0
  6  7  1  0
  7  8  2  0
  8  9  1  0
  9 10  2  0
 10 11  1  0
 11 12  2  0
 12 13  1  0
 13 14  2  0
 14 15  1  0
 15 16  2  0
 14 17  1  0
 17 18  1  0
 12  7  1  0
 16 11  1  0
M  END
$$$$
