
     RDKit          3D

 18 19  0  0  0  0  0  0  0  0999 V2000
    3.6910    5.2398    4.9643 C   0  0  0  0  0  0  0  0  0  0  0  0
    3.2511    5.4834    6.3843 C   0  0  0  0  0  0  0  0  0  0  0  0
    2.4040    6.3495    6.6326 O   0  0  0  0  0  0  0  0  0  0  0  0
    3.8099    4.7200    7.4222 N   0  0  0  0  0  0  0  0  0  0  0  0
    3.7242    3.2910    7.5396 C   0  0  0  0  0  0  0  0  0  0  0  0
    2.8603    2.9335    8.7405 C   0  0  0  0  0  0  0  0  0  0  0  0
    1.5521    2.3679    8.3482 C   0  0  0  0  0  0  0  0  0  0  0  0
    0.5919    3.1688    7.7196 C   0  0  0  0  0  0  0  0  0  0  0  0
   -0.6027    2.6199    7.3380 C   0  0  0  0  0  0  0  0  0  0  0  0
   -0.8545    1.2736    7.5769 C   0  0  0  0  0  0  0  0  0  0  0  0
    0.1014    0.4897    8.2000 C   0  0  0  0  0  0  0  0  0  0  0  0
    1.3174    1.0275    8.5940 C   0  0  0  0  0  0  0  0  0  0  0  0
    2.2336    0.2166    9.2160 C   0  0  0  0  0  0  0  0  0  0  0  0
    2.0109   -1.1397    9.4785 C   0  0  0  0  0  0  0  0  0  0  0  0
    0.7957   -1.6425    9.0744 C   0  0  0  0  0  0  0  0  0  0  0  0
   -0.1409   -0.8520    8.4497 C   0  0  0  0  0  0  0  0  0  0  0  0
    2.9835   -1.9033   10.1124 O   0  0  0  0  0  0  0  0  0  0  0  0
    2.5885   -3.1654   10.6023 C   0  0  0  0  0  0  0  0  0  0  0  0
  1  2  1  0
  2  3  2  0
  2  4  1  0
  4  5  1  0
  5  6  1  0
  6  7  1  0
  7  8  2  0
  8  9  1  0
  9 10  2  0
 10 11  1  0
 11 12  2  0
 12 13  1  0
 13 14  2  0
 14 15  1  0
 15 16  2  0
 14 17  1  0
 17 18  1  0
 12  7  1  0
 16 11  1  0
M  END
$$$$
