
     RDKit          3D

 18 19  0  0  0  0  0  0  0  0999 V2000
    0.5516    0.2097   10.3142 C   0  0  0  0  0  0  0  0  0  0  0  0
   -0.0038    0.9994    9.1579 C   0  0  0  0  0  0  0  0  0  0  0  0
   -0.7785    0.4652    8.3555 O   0  0  0  0  0  0  0  0  0  0  0  0
    0.3647    2.3453    8.9989 N   0  0  0  0  0  0  0  0  0  0  0  0
   -0.1973    3.2509    8.0361 C   0  0  0  0  0  0  0  0  0  0  0  0
    0.6858    3.2831    6.7969 C   0  0  0  0  0  0  0  0  0  0  0  0
    1.1258    4.6512    6.4510 C   0  0  0  0  0  0  0  0  0  0  0  0
    0.1865    5.6481    6.1643 C   0  0  0  0  0  0  0  0  0  0  0  0
    0.6125    6.9163    5.8740 C   0  0  0  0  0  0  0  0  0  0  0  0
    1.9723    7.2055    5.8656 C   0  0  0  0  0  0  0  0  0  0  0  0
    2.8939    6.2125    6.1498 C   0  0  0  0  0  0  0  0  0  0  0  0
    2.4819    4.9219    6.4460 C   0  0  0  0  0  0  0  0  0  0  0  0
    3.4294    3.9656    6.7140 C   0  0  0  0  0  0  0  0  0  0  0  0
    4.8054    4.2198    6.7073 C   0  0  0  0  0  0  0  0  0  0  0  0
    5.1810    5.5096    6.4109 C   0  0  0  0  0  0  0  0  0  0  0  0
    4.2524    6.4871    6.1376 C   0  0  0  0  0  0  0  0  0  0  0  0
    5.7106    3.2036    6.9884 O   0  0  0  0  0  0  0  0  0  0  0  0
    7.0810    3.5302    6.9227 C   0  0  0  0  0  0  0  0  0  0  0  0
  1  2  1  0
  2  3  2  0
  2  4  1  0
  4  5  1  0
  5  6  1  0
  6  7  1  0
  7  8  2  0
  8  9  1  0
  9 10  2  0
 10 11  1  0
 11 12  2  0
 12 13  1  0
 13 14  2  0
 14 15  1  0
 15 16  2  0
 14 17  1  0
 17 18  1  0
 12  7  1  0
 16 11  1  0
M  END
$$$$
