
     RDKit          3D

 18 19  0  0  0  0  0  0  0  0999 V2000
    0.8507   -2.1877    9.3939 C   0  0  0  0  0  0  0  0  0  0  0  0
    1.6346   -0.9655    9.7949 C   0  0  0  0  0  0  0  0  0  0  0  0
    2.4409   -1.0236   10.7307 O   0  0  0  0  0  0  0  0  0  0  0  0
    1.4425    0.2388    9.0983 N   0  0  0  0  0  0  0  0  0  0  0  0
    2.1193    1.4748    9.3763 C   0  0  0  0  0  0  0  0  0  0  0  0
    1.3622    2.6232    8.7247 C   0  0  0  0  0  0  0  0  0  0  0  0
    2.2045    3.3975    7.7889 C   0  0  0  0  0  0  0  0  0  0  0  0
    3.1350    2.7496    6.9686 C   0  0  0  0  0  0  0  0  0  0  0  0
    3.8859    3.4808    6.0879 C   0  0  0  0  0  0  0  0  0  0  0  0
    3.7202    4.8591    6.0139 C   0  0  0  0  0  0  0  0  0  0  0  0
    2.7977    5.4911    6.8300 C   0  0  0  0  0  0  0  0  0  0  0  0
    2.0280    4.7677    7.7285 C   0  0  0  0  0  0  0  0  0  0  0  0
    1.1309    5.4351    8.5247 C   0  0  0  0  0  0  0  0  0  0  0  0
    0.9435    6.8211    8.4818 C   0  0  0  0  0  0  0  0  0  0  0  0
    1.7213    7.5092    7.5795 C   0  0  0  0  0  0  0  0  0  0  0  0
    2.6287    6.8655    6.7702 C   0  0  0  0  0  0  0  0  0  0  0  0
    0.0164    7.4325    9.3171 O   0  0  0  0  0  0  0  0  0  0  0  0
    0.1497    8.8228    9.5130 C   0  0  0  0  0  0  0  0  0  0  0  0
  1  2  1  0
  2  3  2  0
  2  4  1  0
  4  5  1  0
  5  6  1  0
  6  7  1  0
  7  8  2  0
  8  9  1  0
  9 10  2  0
 10 11  1  0
 11 12  2  0
 12 13  1  0
 13 14  2  0
 14 15  1  0
 15 16  2  0
 14 17  1  0
 17 18  1  0
 12  7  1  0
 16 11  1  0
M  END
$$$$
