
     RDKit          3D

 18 19  0  0  0  0  0  0  0  0999 V2000
    1.5476   -1.1594    6.0539 C   0  0  0  0  0  0  0  0  0  0  0  0
    2.4551   -0.0192    6.4356 C   0  0  0  0  0  0  0  0  0  0  0  0
    3.6796   -0.1276    6.3011 O   0  0  0  0  0  0  0  0  0  0  0  0
    1.8999    1.1661    6.9448 N   0  0  0  0  0  0  0  0  0  0  0  0
    2.6398    2.2277    7.5682 C   0  0  0  0  0  0  0  0  0  0  0  0
    1.6705    3.2110    8.2086 C   0  0  0  0  0  0  0  0  0  0  0  0
    1.2021    4.2429    7.2596 C   0  0  0  0  0  0  0  0  0  0  0  0
    0.3740    3.8969    6.1858 C   0  0  0  0  0  0  0  0  0  0  0  0
   -0.0728    4.8710    5.3342 C   0  0  0  0  0  0  0  0  0  0  0  0
    0.2979    6.1950    5.5403 C   0  0  0  0  0  0  0  0  0  0  0  0
    1.1180    6.5274    6.6049 C   0  0  0  0  0  0  0  0  0  0  0  0
    1.5809    5.5548    7.4783 C   0  0  0  0  0  0  0  0  0  0  0  0
    2.3986    5.9268    8.5161 C   0  0  0  0  0  0  0  0  0  0  0  0
    2.7971    7.2478    8.7489 C   0  0  0  0  0  0  0  0  0  0  0  0
    2.3201    8.1883    7.8655 C   0  0  0  0  0  0  0  0  0  0  0  0
    1.5000    7.8429    6.8165 C   0  0  0  0  0  0  0  0  0  0  0  0
    3.6273    7.5543    9.8203 O   0  0  0  0  0  0  0  0  0  0  0  0
    3.4497    8.8146   10.4281 C   0  0  0  0  0  0  0  0  0  0  0  0
  1  2  1  0
  2  3  2  0
  2  4  1  0
  4  5  1  0
  5  6  1  0
  6  7  1  0
  7  8  2  0
  8  9  1  0
  9 10  2  0
 10 11  1  0
 11 12  2  0
 12 13  1  0
 13 14  2  0
 14 15  1  0
 15 16  2  0
 14 17  1  0
 17 18  1  0
 12  7  1  0
 16 11  1  0
M  END
$$$$
