
     RDKit          3D

 18 19  0  0  0  0  0  0  0  0999 V2000
   -2.8024    1.6191    7.2591 C   0  0  0  0  0  0  0  0  0  0  0  0
   -1.3736    1.6322    7.7362 C   0  0  0  0  0  0  0  0  0  0  0  0
   -0.8300    0.5825    8.0994 O   0  0  0  0  0  0  0  0  0  0  0  0
   -0.6650    2.8444    7.7652 N   0  0  0  0  0  0  0  0  0  0  0  0
    0.7045    2.9951    8.1710 C   0  0  0  0  0  0  0  0  0  0  0  0
    1.6185    2.6366    7.0079 C   0  0  0  0  0  0  0  0  0  0  0  0
    2.4627    3.7723    6.5807 C   0  0  0  0  0  0  0  0  0  0  0  0
    1.8987    4.8635    5.9102 C   0  0  0  0  0  0  0  0  0  0  0  0
    2.6918    5.9189    5.5478 C   0  0  0  0  0  0  0  0  0  0  0  0
    4.0493    5.9003    5.8471 C   0  0  0  0  0  0  0  0  0  0  0  0
    4.5981    4.8160    6.5101 C   0  0  0  0  0  0  0  0  0  0  0  0
    3.8111    3.7376    6.8853 C   0  0  0  0  0  0  0  0  0  0  0  0
    4.3974    2.6794    7.5337 C   0  0  0  0  0  0  0  0  0  0  0  0
    5.7606    2.6242    7.8443 C   0  0  0  0  0  0  0  0  0  0  0  0
    6.5132    3.7097    7.4597 C   0  0  0  0  0  0  0  0  0  0  0  0
    5.9514    4.7830    6.8078 C   0  0  0  0  0  0  0  0  0  0  0  0
    6.2886    1.5208    8.5036 O   0  0  0  0  0  0  0  0  0  0  0  0
    7.6941    1.4307    8.5774 C   0  0  0  0  0  0  0  0  0  0  0  0
  1  2  1  0
  2  3  2  0
  2  4  1  0
  4  5  1  0
  5  6  1  0
  6  7  1  0
  7  8  2  0
  8  9  1  0
  9 10  2  0
 10 11  1  0
 11 12  2  0
 12 13  1  0
 13 14  2  0
 14 15  1  0
 15 16  2  0
 14 17  1  0
 17 18  1  0
 12  7  1  0
 16 11  1  0
M  END
$$$$
