
     RDKit          3D

 18 19  0  0  0  0  0  0  0  0999 V2000
   -0.1462   -0.1534    7.3611 C   0  0  0  0  0  0  0  0  0  0  0  0
    1.1319    0.5733    7.0333 C   0  0  0  0  0  0  0  0  0  0  0  0
    1.7990    0.2431    6.0458 O   0  0  0  0  0  0  0  0  0  0  0  0
    1.5591    1.6274    7.8572 N   0  0  0  0  0  0  0  0  0  0  0  0
    2.7405    2.4172    7.6481 C   0  0  0  0  0  0  0  0  0  0  0  0
    2.6240    3.7176    8.4302 C   0  0  0  0  0  0  0  0  0  0  0  0
    2.4024    4.8871    7.5538 C   0  0  0  0  0  0  0  0  0  0  0  0
    2.8334    4.8687    6.2225 C   0  0  0  0  0  0  0  0  0  0  0  0
    2.5937    5.9503    5.4184 C   0  0  0  0  0  0  0  0  0  0  0  0
    1.9253    7.0579    5.9277 C   0  0  0  0  0  0  0  0  0  0  0  0
    1.5033    7.0669    7.2461 C   0  0  0  0  0  0  0  0  0  0  0  0
    1.7370    5.9810    8.0763 C   0  0  0  0  0  0  0  0  0  0  0  0
    1.3089    6.0349    9.3793 C   0  0  0  0  0  0  0  0  0  0  0  0
    0.6401    7.1354    9.9267 C   0  0  0  0  0  0  0  0  0  0  0  0
    0.4230    8.1954    9.0771 C   0  0  0  0  0  0  0  0  0  0  0  0
    0.8422    8.1681    7.7671 C   0  0  0  0  0  0  0  0  0  0  0  0
    0.2336    7.1228   11.2555 O   0  0  0  0  0  0  0  0  0  0  0  0
   -0.6569    8.1379   11.6626 C   0  0  0  0  0  0  0  0  0  0  0  0
  1  2  1  0
  2  3  2  0
  2  4  1  0
  4  5  1  0
  5  6  1  0
  6  7  1  0
  7  8  2  0
  8  9  1  0
  9 10  2  0
 10 11  1  0
 11 12  2  0
 12 13  1  0
 13 14  2  0
 14 15  1  0
 15 16  2  0
 14 17  1  0
 17 18  1  0
 12  7  1  0
 16 11  1  0
M  END
$$$$
