
     RDKit          3D

 18 19  0  0  0  0  0  0  0  0999 V2000
    1.0726   -0.8416    8.3200 C   0  0  0  0  0  0  0  0  0  0  0  0
    0.5560    0.3479    7.5535 C   0  0  0  0  0  0  0  0  0  0  0  0
   -0.1825    0.1839    6.5752 O   0  0  0  0  0  0  0  0  0  0  0  0
    0.9195    1.6426    7.9584 N   0  0  0  0  0  0  0  0  0  0  0  0
    0.7737    2.8312    7.1652 C   0  0  0  0  0  0  0  0  0  0  0  0
    1.9835    3.7305    7.3754 C   0  0  0  0  0  0  0  0  0  0  0  0
    1.6604    5.1628    7.2044 C   0  0  0  0  0  0  0  0  0  0  0  0
    1.8145    5.7818    5.9587 C   0  0  0  0  0  0  0  0  0  0  0  0
    1.4830    7.1020    5.8133 C   0  0  0  0  0  0  0  0  0  0  0  0
    0.9967    7.8182    6.9010 C   0  0  0  0  0  0  0  0  0  0  0  0
    0.8484    7.1974    8.1294 C   0  0  0  0  0  0  0  0  0  0  0  0
    1.1789    5.8610    8.2966 C   0  0  0  0  0  0  0  0  0  0  0  0
    1.0241    5.2867    9.5337 C   0  0  0  0  0  0  0  0  0  0  0  0
    0.5446    5.9791   10.6511 C   0  0  0  0  0  0  0  0  0  0  0  0
    0.2249    7.3022   10.4517 C   0  0  0  0  0  0  0  0  0  0  0  0
    0.3711    7.9029    9.2228 C   0  0  0  0  0  0  0  0  0  0  0  0
    0.4122    5.3349   11.8752 O   0  0  0  0  0  0  0  0  0  0  0  0
   -0.3560    5.9866   12.8623 C   0  0  0  0  0  0  0  0  0  0  0  0
  1  2  1  0
  2  3  2  0
  2  4  1  0
  4  5  1  0
  5  6  1  0
  6  7  1  0
  7  8  2  0
  8  9  1  0
  9 10  2  0
 10 11  1  0
 11 12  2  0
 12 13  1  0
 13 14  2  0
 14 15  1  0
 15 16  2  0
 14 17  1  0
 17 18  1  0
 12  7  1  0
 16 11  1  0
M  END
$$$$
