
     RDKit          3D

 18 19  0  0  0  0  0  0  0  0999 V2000
    6.2130    3.6996    5.8140 C   0  0  0  0  0  0  0  0  0  0  0  0
    4.9276    3.0270    6.2195 C   0  0  0  0  0  0  0  0  0  0  0  0
    4.9501    1.9048    6.7385 O   0  0  0  0  0  0  0  0  0  0  0  0
    3.7052    3.6840    6.0038 N   0  0  0  0  0  0  0  0  0  0  0  0
    2.4302    3.2483    6.5017 C   0  0  0  0  0  0  0  0  0  0  0  0
    2.1013    4.0061    7.7800 C   0  0  0  0  0  0  0  0  0  0  0  0
    1.6567    5.3913    7.5182 C   0  0  0  0  0  0  0  0  0  0  0  0
    1.9356    6.0070    6.2928 C   0  0  0  0  0  0  0  0  0  0  0  0
    1.4908    7.2802    6.0582 C   0  0  0  0  0  0  0  0  0  0  0  0
    0.7667    7.9525    7.0363 C   0  0  0  0  0  0  0  0  0  0  0  0
    0.4964    7.3353    8.2455 C   0  0  0  0  0  0  0  0  0  0  0  0
    0.9386    6.0462    8.5019 C   0  0  0  0  0  0  0  0  0  0  0  0
    0.6555    5.4747    9.7174 C   0  0  0  0  0  0  0  0  0  0  0  0
   -0.0640    6.1243   10.7265 C   0  0  0  0  0  0  0  0  0  0  0  0
   -0.4891    7.4011   10.4404 C   0  0  0  0  0  0  0  0  0  0  0  0
   -0.2185    7.9980    9.2309 C   0  0  0  0  0  0  0  0  0  0  0  0
   -0.3155    5.4857   11.9347 O   0  0  0  0  0  0  0  0  0  0  0  0
   -0.4001    6.2991   13.0837 C   0  0  0  0  0  0  0  0  0  0  0  0
  1  2  1  0
  2  3  2  0
  2  4  1  0
  4  5  1  0
  5  6  1  0
  6  7  1  0
  7  8  2  0
  8  9  1  0
  9 10  2  0
 10 11  1  0
 11 12  2  0
 12 13  1  0
 13 14  2  0
 14 15  1  0
 15 16  2  0
 14 17  1  0
 17 18  1  0
 12  7  1  0
 16 11  1  0
M  END
$$$$
