
     RDKit          3D

 18 19  0  0  0  0  0  0  0  0999 V2000
    5.2423    1.4798    8.9238 C   0  0  0  0  0  0  0  0  0  0  0  0
    4.7809    2.4274    7.8475 C   0  0  0  0  0  0  0  0  0  0  0  0
    5.5937    3.1670    7.2805 O   0  0  0  0  0  0  0  0  0  0  0  0
    3.4222    2.4639    7.4940 N   0  0  0  0  0  0  0  0  0  0  0  0
    2.8525    3.3009    6.4752 C   0  0  0  0  0  0  0  0  0  0  0  0
    1.5761    3.9408    7.0024 C   0  0  0  0  0  0  0  0  0  0  0  0
    1.6176    5.4172    6.9444 C   0  0  0  0  0  0  0  0  0  0  0  0
    1.9469    6.0721    5.7522 C   0  0  0  0  0  0  0  0  0  0  0  0
    1.9523    7.4404    5.7107 C   0  0  0  0  0  0  0  0  0  0  0  0
    1.6315    8.1695    6.8502 C   0  0  0  0  0  0  0  0  0  0  0  0
    1.3076    7.5127    8.0249 C   0  0  0  0  0  0  0  0  0  0  0  0
    1.2969    6.1273    8.0868 C   0  0  0  0  0  0  0  0  0  0  0  0
    0.9780    5.5165    9.2739 C   0  0  0  0  0  0  0  0  0  0  0  0
    0.6573    6.2186   10.4411 C   0  0  0  0  0  0  0  0  0  0  0  0
    0.6760    7.5909   10.3461 C   0  0  0  0  0  0  0  0  0  0  0  0
    0.9929    8.2288    9.1692 C   0  0  0  0  0  0  0  0  0  0  0  0
    0.3433    5.5356   11.6098 O   0  0  0  0  0  0  0  0  0  0  0  0
   -0.6602    6.0944   12.4283 C   0  0  0  0  0  0  0  0  0  0  0  0
  1  2  1  0
  2  3  2  0
  2  4  1  0
  4  5  1  0
  5  6  1  0
  6  7  1  0
  7  8  2  0
  8  9  1  0
  9 10  2  0
 10 11  1  0
 11 12  2  0
 12 13  1  0
 13 14  2  0
 14 15  1  0
 15 16  2  0
 14 17  1  0
 17 18  1  0
 12  7  1  0
 16 11  1  0
M  END
$$$$
