
     RDKit          3D

 18 19  0  0  0  0  0  0  0  0999 V2000
    2.0353   -1.5876    8.6824 C   0  0  0  0  0  0  0  0  0  0  0  0
    1.0466   -0.4511    8.6705 C   0  0  0  0  0  0  0  0  0  0  0  0
   -0.1575   -0.6765    8.5016 O   0  0  0  0  0  0  0  0  0  0  0  0
    1.5030    0.8646    8.8524 N   0  0  0  0  0  0  0  0  0  0  0  0
    0.6641    2.0245    8.9710 C   0  0  0  0  0  0  0  0  0  0  0  0
    1.5137    3.2245    9.3640 C   0  0  0  0  0  0  0  0  0  0  0  0
    2.0909    3.9171    8.1926 C   0  0  0  0  0  0  0  0  0  0  0  0
    2.7974    3.1999    7.2205 C   0  0  0  0  0  0  0  0  0  0  0  0
    3.3000    3.8545    6.1283 C   0  0  0  0  0  0  0  0  0  0  0  0
    3.1063    5.2244    5.9916 C   0  0  0  0  0  0  0  0  0  0  0  0
    2.4066    5.9253    6.9589 C   0  0  0  0  0  0  0  0  0  0  0  0
    1.8901    5.2800    8.0724 C   0  0  0  0  0  0  0  0  0  0  0  0
    1.2097    6.0145    9.0114 C   0  0  0  0  0  0  0  0  0  0  0  0
    1.0025    7.3946    8.9095 C   0  0  0  0  0  0  0  0  0  0  0  0
    1.5264    8.0043    7.7931 C   0  0  0  0  0  0  0  0  0  0  0  0
    2.2132    7.2924    6.8371 C   0  0  0  0  0  0  0  0  0  0  0  0
    0.3033    8.0765    9.8981 O   0  0  0  0  0  0  0  0  0  0  0  0
    0.1134    9.4611    9.7089 C   0  0  0  0  0  0  0  0  0  0  0  0
  1  2  1  0
  2  3  2  0
  2  4  1  0
  4  5  1  0
  5  6  1  0
  6  7  1  0
  7  8  2  0
  8  9  1  0
  9 10  2  0
 10 11  1  0
 11 12  2  0
 12 13  1  0
 13 14  2  0
 14 15  1  0
 15 16  2  0
 14 17  1  0
 17 18  1  0
 12  7  1  0
 16 11  1  0
M  END
$$$$
