
     RDKit          3D

 18 19  0  0  0  0  0  0  0  0999 V2000
    0.1218   -1.1676    8.3774 C   0  0  0  0  0  0  0  0  0  0  0  0
    1.1163   -0.0455    8.5218 C   0  0  0  0  0  0  0  0  0  0  0  0
    1.7568    0.0861    9.5714 O   0  0  0  0  0  0  0  0  0  0  0  0
    1.3099    0.8487    7.4562 N   0  0  0  0  0  0  0  0  0  0  0  0
    2.3393    1.8482    7.3888 C   0  0  0  0  0  0  0  0  0  0  0  0
    1.8330    3.1382    8.0181 C   0  0  0  0  0  0  0  0  0  0  0  0
    2.1688    4.3308    7.2119 C   0  0  0  0  0  0  0  0  0  0  0  0
    2.9298    4.2072    6.0440 C   0  0  0  0  0  0  0  0  0  0  0  0
    3.2063    5.3195    5.2954 C   0  0  0  0  0  0  0  0  0  0  0  0
    2.7310    6.5621    5.6989 C   0  0  0  0  0  0  0  0  0  0  0  0
    1.9796    6.6744    6.8562 C   0  0  0  0  0  0  0  0  0  0  0  0
    1.6892    5.5593    7.6279 C   0  0  0  0  0  0  0  0  0  0  0  0
    0.9478    5.7166    8.7722 C   0  0  0  0  0  0  0  0  0  0  0  0
    0.4598    6.9522    9.2117 C   0  0  0  0  0  0  0  0  0  0  0  0
    0.7644    8.0379    8.4236 C   0  0  0  0  0  0  0  0  0  0  0  0
    1.5062    7.9088    7.2723 C   0  0  0  0  0  0  0  0  0  0  0  0
   -0.2856    7.0393   10.3812 O   0  0  0  0  0  0  0  0  0  0  0  0
   -1.0991    8.1806   10.5387 C   0  0  0  0  0  0  0  0  0  0  0  0
  1  2  1  0
  2  3  2  0
  2  4  1  0
  4  5  1  0
  5  6  1  0
  6  7  1  0
  7  8  2  0
  8  9  1  0
  9 10  2  0
 10 11  1  0
 11 12  2  0
 12 13  1  0
 13 14  2  0
 14 15  1  0
 15 16  2  0
 14 17  1  0
 17 18  1  0
 12  7  1  0
 16 11  1  0
M  END
$$$$
