
     RDKit          3D

 18 19  0  0  0  0  0  0  0  0999 V2000
    0.1669    0.3025    6.0010 C   0  0  0  0  0  0  0  0  0  0  0  0
    1.3021    0.8298    6.8392 C   0  0  0  0  0  0  0  0  0  0  0  0
    1.6292    0.2472    7.8798 O   0  0  0  0  0  0  0  0  0  0  0  0
    1.9850    1.9868    6.4297 N   0  0  0  0  0  0  0  0  0  0  0  0
    2.9929    2.6687    7.1927 C   0  0  0  0  0  0  0  0  0  0  0  0
    2.3268    3.6482    8.1484 C   0  0  0  0  0  0  0  0  0  0  0  0
    2.0209    4.9446    7.5076 C   0  0  0  0  0  0  0  0  0  0  0  0
    2.3497    5.1687    6.1659 C   0  0  0  0  0  0  0  0  0  0  0  0
    2.0327    6.3657    5.5820 C   0  0  0  0  0  0  0  0  0  0  0  0
    1.3877    7.3491    6.3235 C   0  0  0  0  0  0  0  0  0  0  0  0
    1.0672    7.1183    7.6503 C   0  0  0  0  0  0  0  0  0  0  0  0
    1.3802    5.9124    8.2594 C   0  0  0  0  0  0  0  0  0  0  0  0
    1.0516    5.7283    9.5793 C   0  0  0  0  0  0  0  0  0  0  0  0
    0.4093    6.6982   10.3570 C   0  0  0  0  0  0  0  0  0  0  0  0
    0.1117    7.8824    9.7230 C   0  0  0  0  0  0  0  0  0  0  0  0
    0.4305    8.0936    8.4016 C   0  0  0  0  0  0  0  0  0  0  0  0
    0.1053    6.4447   11.6890 O   0  0  0  0  0  0  0  0  0  0  0  0
    0.2923    5.1246   12.1487 C   0  0  0  0  0  0  0  0  0  0  0  0
  1  2  1  0
  2  3  2  0
  2  4  1  0
  4  5  1  0
  5  6  1  0
  6  7  1  0
  7  8  2  0
  8  9  1  0
  9 10  2  0
 10 11  1  0
 11 12  2  0
 12 13  1  0
 13 14  2  0
 14 15  1  0
 15 16  2  0
 14 17  1  0
 17 18  1  0
 12  7  1  0
 16 11  1  0
M  END
$$$$
