
     RDKit          3D

 18 19  0  0  0  0  0  0  0  0999 V2000
    1.4428   -0.8035    9.1939 C   0  0  0  0  0  0  0  0  0  0  0  0
    1.0014    0.3333    8.3096 C   0  0  0  0  0  0  0  0  0  0  0  0
    0.4970    0.1015    7.2046 O   0  0  0  0  0  0  0  0  0  0  0  0
    1.1670    1.6567    8.7498 N   0  0  0  0  0  0  0  0  0  0  0  0
    0.8892    2.8309    7.9706 C   0  0  0  0  0  0  0  0  0  0  0  0
    2.1627    3.6506    7.8202 C   0  0  0  0  0  0  0  0  0  0  0  0
    1.9456    4.8987    7.0586 C   0  0  0  0  0  0  0  0  0  0  0  0
    2.2276    4.9531    5.6889 C   0  0  0  0  0  0  0  0  0  0  0  0
    1.9932    6.1095    4.9949 C   0  0  0  0  0  0  0  0  0  0  0  0
    1.4778    7.2203    5.6531 C   0  0  0  0  0  0  0  0  0  0  0  0
    1.2027    7.1570    7.0083 C   0  0  0  0  0  0  0  0  0  0  0  0
    1.4336    5.9947    7.7286 C   0  0  0  0  0  0  0  0  0  0  0  0
    1.1544    5.9777    9.0724 C   0  0  0  0  0  0  0  0  0  0  0  0
    0.6421    7.0786    9.7679 C   0  0  0  0  0  0  0  0  0  0  0  0
    0.4234    8.2154    9.0247 C   0  0  0  0  0  0  0  0  0  0  0  0
    0.6952    8.2601    7.6768 C   0  0  0  0  0  0  0  0  0  0  0  0
    0.3817    6.9918   11.1301 O   0  0  0  0  0  0  0  0  0  0  0  0
    0.2638    8.2057   11.8383 C   0  0  0  0  0  0  0  0  0  0  0  0
  1  2  1  0
  2  3  2  0
  2  4  1  0
  4  5  1  0
  5  6  1  0
  6  7  1  0
  7  8  2  0
  8  9  1  0
  9 10  2  0
 10 11  1  0
 11 12  2  0
 12 13  1  0
 13 14  2  0
 14 15  1  0
 15 16  2  0
 14 17  1  0
 17 18  1  0
 12  7  1  0
 16 11  1  0
M  END
$$$$
