
     RDKit          3D

 18 19  0  0  0  0  0  0  0  0999 V2000
    0.1113    1.8811   11.0550 C   0  0  0  0  0  0  0  0  0  0  0  0
    0.6864    1.4993    9.7161 C   0  0  0  0  0  0  0  0  0  0  0  0
    0.0917    0.6929    8.9914 O   0  0  0  0  0  0  0  0  0  0  0  0
    1.9017    2.0658    9.2984 N   0  0  0  0  0  0  0  0  0  0  0  0
    2.5335    1.8312    8.0299 C   0  0  0  0  0  0  0  0  0  0  0  0
    2.1060    2.9102    7.0453 C   0  0  0  0  0  0  0  0  0  0  0  0
    3.0946    4.0041    6.9402 C   0  0  0  0  0  0  0  0  0  0  0  0
    4.2964    3.8114    6.2495 C   0  0  0  0  0  0  0  0  0  0  0  0
    5.1868    4.8452    6.1387 C   0  0  0  0  0  0  0  0  0  0  0  0
    4.8929    6.0773    6.7117 C   0  0  0  0  0  0  0  0  0  0  0  0
    3.7018    6.2581    7.3936 C   0  0  0  0  0  0  0  0  0  0  0  0
    2.7872    5.2229    7.5167 C   0  0  0  0  0  0  0  0  0  0  0  0
    1.6221    5.4428    8.2082 C   0  0  0  0  0  0  0  0  0  0  0  0
    1.2973    6.6669    8.8031 C   0  0  0  0  0  0  0  0  0  0  0  0
    2.2248    7.6732    8.6620 C   0  0  0  0  0  0  0  0  0  0  0  0
    3.4008    7.4798    7.9750 C   0  0  0  0  0  0  0  0  0  0  0  0
    0.0985    6.8205    9.4889 O   0  0  0  0  0  0  0  0  0  0  0  0
   -0.5249    8.0834    9.4143 C   0  0  0  0  0  0  0  0  0  0  0  0
  1  2  1  0
  2  3  2  0
  2  4  1  0
  4  5  1  0
  5  6  1  0
  6  7  1  0
  7  8  2  0
  8  9  1  0
  9 10  2  0
 10 11  1  0
 11 12  2  0
 12 13  1  0
 13 14  2  0
 14 15  1  0
 15 16  2  0
 14 17  1  0
 17 18  1  0
 12  7  1  0
 16 11  1  0
M  END
$$$$
