
     RDKit          3D

 18 19  0  0  0  0  0  0  0  0999 V2000
   -1.4737    0.2844    7.8616 C   0  0  0  0  0  0  0  0  0  0  0  0
   -0.0626    0.5899    8.2910 C   0  0  0  0  0  0  0  0  0  0  0  0
    0.7722   -0.3186    8.3747 O   0  0  0  0  0  0  0  0  0  0  0  0
    0.2968    1.9131    8.5952 N   0  0  0  0  0  0  0  0  0  0  0  0
    1.6210    2.3566    8.9310 C   0  0  0  0  0  0  0  0  0  0  0  0
    2.3736    2.7111    7.6564 C   0  0  0  0  0  0  0  0  0  0  0  0
    2.0432    4.0645    7.1621 C   0  0  0  0  0  0  0  0  0  0  0  0
    0.7135    4.4985    7.1156 C   0  0  0  0  0  0  0  0  0  0  0  0
    0.4298    5.7654    6.6816 C   0  0  0  0  0  0  0  0  0  0  0  0
    1.4615    6.6112    6.2903 C   0  0  0  0  0  0  0  0  0  0  0  0
    2.7736    6.1725    6.3392 C   0  0  0  0  0  0  0  0  0  0  0  0
    3.0810    4.8926    6.7757 C   0  0  0  0  0  0  0  0  0  0  0  0
    4.3946    4.4954    6.8007 C   0  0  0  0  0  0  0  0  0  0  0  0
    5.4568    5.3172    6.4076 C   0  0  0  0  0  0  0  0  0  0  0  0
    5.1184    6.5806    5.9809 C   0  0  0  0  0  0  0  0  0  0  0  0
    3.8101    7.0041    5.9450 C   0  0  0  0  0  0  0  0  0  0  0  0
    6.7646    4.8504    6.4588 O   0  0  0  0  0  0  0  0  0  0  0  0
    7.7748    5.7241    6.0058 C   0  0  0  0  0  0  0  0  0  0  0  0
  1  2  1  0
  2  3  2  0
  2  4  1  0
  4  5  1  0
  5  6  1  0
  6  7  1  0
  7  8  2  0
  8  9  1  0
  9 10  2  0
 10 11  1  0
 11 12  2  0
 12 13  1  0
 13 14  2  0
 14 15  1  0
 15 16  2  0
 14 17  1  0
 17 18  1  0
 12  7  1  0
 16 11  1  0
M  END
$$$$
