
     RDKit          3D

 18 19  0  0  0  0  0  0  0  0999 V2000
    6.8940    2.5570    4.2578 C   0  0  0  0  0  0  0  0  0  0  0  0
    5.9293    3.5940    4.7709 C   0  0  0  0  0  0  0  0  0  0  0  0
    5.1853    4.1933    3.9857 O   0  0  0  0  0  0  0  0  0  0  0  0
    5.8819    3.8743    6.1463 N   0  0  0  0  0  0  0  0  0  0  0  0
    5.0119    4.8335    6.7678 C   0  0  0  0  0  0  0  0  0  0  0  0
    3.7128    4.1507    7.1709 C   0  0  0  0  0  0  0  0  0  0  0  0
    2.6005    5.1085    7.3452 C   0  0  0  0  0  0  0  0  0  0  0  0
    2.5714    6.3032    6.6168 C   0  0  0  0  0  0  0  0  0  0  0  0
    1.5185    7.1644    6.7708 C   0  0  0  0  0  0  0  0  0  0  0  0
    0.4871    6.8481    7.6478 C   0  0  0  0  0  0  0  0  0  0  0  0
    0.5252    5.6643    8.3643 C   0  0  0  0  0  0  0  0  0  0  0  0
    1.5833    4.7792    8.2221 C   0  0  0  0  0  0  0  0  0  0  0  0
    1.5854    3.6205    8.9579 C   0  0  0  0  0  0  0  0  0  0  0  0
    0.5683    3.2739    9.8542 C   0  0  0  0  0  0  0  0  0  0  0  0
   -0.4670    4.1724    9.9714 C   0  0  0  0  0  0  0  0  0  0  0  0
   -0.4937    5.3414    9.2468 C   0  0  0  0  0  0  0  0  0  0  0  0
    0.6339    2.0832   10.5676 O   0  0  0  0  0  0  0  0  0  0  0  0
   -0.2743    1.9251   11.6350 C   0  0  0  0  0  0  0  0  0  0  0  0
  1  2  1  0
  2  3  2  0
  2  4  1  0
  4  5  1  0
  5  6  1  0
  6  7  1  0
  7  8  2  0
  8  9  1  0
  9 10  2  0
 10 11  1  0
 11 12  2  0
 12 13  1  0
 13 14  2  0
 14 15  1  0
 15 16  2  0
 14 17  1  0
 17 18  1  0
 12  7  1  0
 16 11  1  0
M  END
$$$$
