
     RDKit          3D

 18 19  0  0  0  0  0  0  0  0999 V2000
   -0.3948   -0.5083   10.8384 C   0  0  0  0  0  0  0  0  0  0  0  0
    0.6233   -0.2125    9.7682 C   0  0  0  0  0  0  0  0  0  0  0  0
    1.0875   -1.1301    9.0814 O   0  0  0  0  0  0  0  0  0  0  0  0
    1.0403    1.1119    9.5573 N   0  0  0  0  0  0  0  0  0  0  0  0
    2.0706    1.5216    8.6441 C   0  0  0  0  0  0  0  0  0  0  0  0
    2.7173    2.8018    9.1534 C   0  0  0  0  0  0  0  0  0  0  0  0
    3.1500    3.6924    8.0559 C   0  0  0  0  0  0  0  0  0  0  0  0
    4.0155    3.2243    7.0608 C   0  0  0  0  0  0  0  0  0  0  0  0
    4.3824    4.0556    6.0368 C   0  0  0  0  0  0  0  0  0  0  0  0
    3.8944    5.3566    5.9918 C   0  0  0  0  0  0  0  0  0  0  0  0
    3.0393    5.8107    6.9812 C   0  0  0  0  0  0  0  0  0  0  0  0
    2.6563    4.9838    8.0265 C   0  0  0  0  0  0  0  0  0  0  0  0
    1.8133    5.4770    8.9909 C   0  0  0  0  0  0  0  0  0  0  0  0
    1.3092    6.7823    8.9807 C   0  0  0  0  0  0  0  0  0  0  0  0
    1.7071    7.5765    7.9302 C   0  0  0  0  0  0  0  0  0  0  0  0
    2.5519    7.1079    6.9508 C   0  0  0  0  0  0  0  0  0  0  0  0
    0.4583    7.2164    9.9900 O   0  0  0  0  0  0  0  0  0  0  0  0
    0.0042    8.5496    9.9157 C   0  0  0  0  0  0  0  0  0  0  0  0
  1  2  1  0
  2  3  2  0
  2  4  1  0
  4  5  1  0
  5  6  1  0
  6  7  1  0
  7  8  2  0
  8  9  1  0
  9 10  2  0
 10 11  1  0
 11 12  2  0
 12 13  1  0
 13 14  2  0
 14 15  1  0
 15 16  2  0
 14 17  1  0
 17 18  1  0
 12  7  1  0
 16 11  1  0
M  END
$$$$
