
     RDKit          3D

 18 19  0  0  0  0  0  0  0  0999 V2000
    0.8935   -0.3685    5.5422 C   0  0  0  0  0  0  0  0  0  0  0  0
    1.9283    0.5928    6.0659 C   0  0  0  0  0  0  0  0  0  0  0  0
    3.1176    0.4551    5.7564 O   0  0  0  0  0  0  0  0  0  0  0  0
    1.5319    1.6451    6.9074 N   0  0  0  0  0  0  0  0  0  0  0  0
    2.4178    2.5929    7.5238 C   0  0  0  0  0  0  0  0  0  0  0  0
    1.6135    3.5360    8.4069 C   0  0  0  0  0  0  0  0  0  0  0  0
    1.5112    4.8959    7.8365 C   0  0  0  0  0  0  0  0  0  0  0  0
    1.8424    5.1310    6.4973 C   0  0  0  0  0  0  0  0  0  0  0  0
    1.7139    6.3917    5.9795 C   0  0  0  0  0  0  0  0  0  0  0  0
    1.2565    7.4284    6.7851 C   0  0  0  0  0  0  0  0  0  0  0  0
    0.9320    7.1861    8.1088 C   0  0  0  0  0  0  0  0  0  0  0  0
    1.0556    5.9160    8.6516 C   0  0  0  0  0  0  0  0  0  0  0  0
    0.7308    5.7213    9.9709 C   0  0  0  0  0  0  0  0  0  0  0  0
    0.2745    6.7424   10.8118 C   0  0  0  0  0  0  0  0  0  0  0  0
    0.1621    7.9899   10.2429 C   0  0  0  0  0  0  0  0  0  0  0  0
    0.4817    8.2130    8.9236 C   0  0  0  0  0  0  0  0  0  0  0  0
   -0.0372    6.4748   12.1393 O   0  0  0  0  0  0  0  0  0  0  0  0
   -0.3332    7.5805   12.9632 C   0  0  0  0  0  0  0  0  0  0  0  0
  1  2  1  0
  2  3  2  0
  2  4  1  0
  4  5  1  0
  5  6  1  0
  6  7  1  0
  7  8  2  0
  8  9  1  0
  9 10  2  0
 10 11  1  0
 11 12  2  0
 12 13  1  0
 13 14  2  0
 14 15  1  0
 15 16  2  0
 14 17  1  0
 17 18  1  0
 12  7  1  0
 16 11  1  0
M  END
$$$$
