
     RDKit          3D

 18 19  0  0  0  0  0  0  0  0999 V2000
    1.0291   -0.5460   10.1234 C   0  0  0  0  0  0  0  0  0  0  0  0
    1.4779    0.4018    9.0420 C   0  0  0  0  0  0  0  0  0  0  0  0
    1.3740    0.0813    7.8521 O   0  0  0  0  0  0  0  0  0  0  0  0
    2.0144    1.6506    9.3956 N   0  0  0  0  0  0  0  0  0  0  0  0
    2.5123    2.6311    8.4716 C   0  0  0  0  0  0  0  0  0  0  0  0
    1.3441    3.4055    7.8783 C   0  0  0  0  0  0  0  0  0  0  0  0
    1.7745    4.6436    7.1952 C   0  0  0  0  0  0  0  0  0  0  0  0
    2.4702    4.5805    5.9825 C   0  0  0  0  0  0  0  0  0  0  0  0
    2.8355    5.7386    5.3506 C   0  0  0  0  0  0  0  0  0  0  0  0
    2.5142    6.9675    5.9158 C   0  0  0  0  0  0  0  0  0  0  0  0
    1.8264    7.0197    7.1161 C   0  0  0  0  0  0  0  0  0  0  0  0
    1.4479    5.8576    7.7714 C   0  0  0  0  0  0  0  0  0  0  0  0
    0.7745    5.9547    8.9634 C   0  0  0  0  0  0  0  0  0  0  0  0
    0.4413    7.1738    9.5642 C   0  0  0  0  0  0  0  0  0  0  0  0
    0.8299    8.3074    8.8886 C   0  0  0  0  0  0  0  0  0  0  0  0
    1.5067    8.2388    7.6928 C   0  0  0  0  0  0  0  0  0  0  0  0
   -0.2428    7.1991   10.7735 O   0  0  0  0  0  0  0  0  0  0  0  0
   -0.6734    8.4587   11.2395 C   0  0  0  0  0  0  0  0  0  0  0  0
  1  2  1  0
  2  3  2  0
  2  4  1  0
  4  5  1  0
  5  6  1  0
  6  7  1  0
  7  8  2  0
  8  9  1  0
  9 10  2  0
 10 11  1  0
 11 12  2  0
 12 13  1  0
 13 14  2  0
 14 15  1  0
 15 16  2  0
 14 17  1  0
 17 18  1  0
 12  7  1  0
 16 11  1  0
M  END
$$$$
