
     RDKit          3D

 18 19  0  0  0  0  0  0  0  0999 V2000
    0.7992   -0.3877    6.5983 C   0  0  0  0  0  0  0  0  0  0  0  0
    1.2878    0.5510    7.6704 C   0  0  0  0  0  0  0  0  0  0  0  0
    0.8613    0.4497    8.8267 O   0  0  0  0  0  0  0  0  0  0  0  0
    2.2302    1.5405    7.3464 N   0  0  0  0  0  0  0  0  0  0  0  0
    2.7638    2.5095    8.2627 C   0  0  0  0  0  0  0  0  0  0  0  0
    1.6905    3.5368    8.5934 C   0  0  0  0  0  0  0  0  0  0  0  0
    1.5188    4.5406    7.5219 C   0  0  0  0  0  0  0  0  0  0  0  0
    1.5588    4.1572    6.1766 C   0  0  0  0  0  0  0  0  0  0  0  0
    1.3693    5.0966    5.1991 C   0  0  0  0  0  0  0  0  0  0  0  0
    1.1391    6.4226    5.5477 C   0  0  0  0  0  0  0  0  0  0  0  0
    1.1019    6.7923    6.8812 C   0  0  0  0  0  0  0  0  0  0  0  0
    1.2918    5.8553    7.8858 C   0  0  0  0  0  0  0  0  0  0  0  0
    1.2552    6.2661    9.1949 C   0  0  0  0  0  0  0  0  0  0  0  0
    1.0331    7.5925    9.5813 C   0  0  0  0  0  0  0  0  0  0  0  0
    0.8476    8.4969    8.5613 C   0  0  0  0  0  0  0  0  0  0  0  0
    0.8801    8.1124    7.2409 C   0  0  0  0  0  0  0  0  0  0  0  0
    1.0083    7.9392   10.9267 O   0  0  0  0  0  0  0  0  0  0  0  0
    0.6195    9.2580   11.2412 C   0  0  0  0  0  0  0  0  0  0  0  0
  1  2  1  0
  2  3  2  0
  2  4  1  0
  4  5  1  0
  5  6  1  0
  6  7  1  0
  7  8  2  0
  8  9  1  0
  9 10  2  0
 10 11  1  0
 11 12  2  0
 12 13  1  0
 13 14  2  0
 14 15  1  0
 15 16  2  0
 14 17  1  0
 17 18  1  0
 12  7  1  0
 16 11  1  0
M  END
$$$$
