
     RDKit          3D

 18 19  0  0  0  0  0  0  0  0999 V2000
    7.8724    6.0045    5.0854 C   0  0  0  0  0  0  0  0  0  0  0  0
    6.7135    5.7559    6.0152 C   0  0  0  0  0  0  0  0  0  0  0  0
    6.4002    6.6044    6.8586 O   0  0  0  0  0  0  0  0  0  0  0  0
    5.9929    4.5545    5.9165 N   0  0  0  0  0  0  0  0  0  0  0  0
    4.8371    4.2140    6.6984 C   0  0  0  0  0  0  0  0  0  0  0  0
    3.6021    4.2322    5.8090 C   0  0  0  0  0  0  0  0  0  0  0  0
    2.4998    5.0292    6.3877 C   0  0  0  0  0  0  0  0  0  0  0  0
    2.3138    6.3637    6.0094 C   0  0  0  0  0  0  0  0  0  0  0  0
    1.2701    7.0770    6.5347 C   0  0  0  0  0  0  0  0  0  0  0  0
    0.4036    6.4732    7.4388 C   0  0  0  0  0  0  0  0  0  0  0  0
    0.5962    5.1528    7.8074 C   0  0  0  0  0  0  0  0  0  0  0  0
    1.6477    4.4138    7.2863 C   0  0  0  0  0  0  0  0  0  0  0  0
    1.8070    3.1101    7.6850 C   0  0  0  0  0  0  0  0  0  0  0  0
    0.9588    2.4733    8.5976 C   0  0  0  0  0  0  0  0  0  0  0  0
   -0.0746    3.2331    9.0950 C   0  0  0  0  0  0  0  0  0  0  0  0
   -0.2569    4.5421    8.7132 C   0  0  0  0  0  0  0  0  0  0  0  0
    1.1783    1.1491    8.9572 O   0  0  0  0  0  0  0  0  0  0  0  0
    0.1018    0.4606    9.5542 C   0  0  0  0  0  0  0  0  0  0  0  0
  1  2  1  0
  2  3  2  0
  2  4  1  0
  4  5  1  0
  5  6  1  0
  6  7  1  0
  7  8  2  0
  8  9  1  0
  9 10  2  0
 10 11  1  0
 11 12  2  0
 12 13  1  0
 13 14  2  0
 14 15  1  0
 15 16  2  0
 14 17  1  0
 17 18  1  0
 12  7  1  0
 16 11  1  0
M  END
$$$$
