
     RDKit          3D

 18 19  0  0  0  0  0  0  0  0999 V2000
    1.0570   -0.9337   10.6988 C   0  0  0  0  0  0  0  0  0  0  0  0
    1.0844   -0.2184    9.3733 C   0  0  0  0  0  0  0  0  0  0  0  0
    0.1700   -0.3856    8.5578 O   0  0  0  0  0  0  0  0  0  0  0  0
    2.1554    0.6387    9.0719 N   0  0  0  0  0  0  0  0  0  0  0  0
    2.3127    1.3699    7.8457 C   0  0  0  0  0  0  0  0  0  0  0  0
    1.6927    2.7515    7.9982 C   0  0  0  0  0  0  0  0  0  0  0  0
    2.4827    3.8037    7.3245 C   0  0  0  0  0  0  0  0  0  0  0  0
    3.4795    3.4631    6.4031 C   0  0  0  0  0  0  0  0  0  0  0  0
    4.1810    4.4523    5.7682 C   0  0  0  0  0  0  0  0  0  0  0  0
    3.9000    5.7861    6.0417 C   0  0  0  0  0  0  0  0  0  0  0  0
    2.9126    6.1131    6.9552 C   0  0  0  0  0  0  0  0  0  0  0  0
    2.1913    5.1253    7.6087 C   0  0  0  0  0  0  0  0  0  0  0  0
    1.2265    5.4935    8.5130 C   0  0  0  0  0  0  0  0  0  0  0  0
    0.9226    6.8249    8.8177 C   0  0  0  0  0  0  0  0  0  0  0  0
    1.6551    7.7804    8.1519 C   0  0  0  0  0  0  0  0  0  0  0  0
    2.6282    7.4392    7.2414 C   0  0  0  0  0  0  0  0  0  0  0  0
   -0.0680    7.1268    9.7443 O   0  0  0  0  0  0  0  0  0  0  0  0
   -0.7587    8.3440    9.5700 C   0  0  0  0  0  0  0  0  0  0  0  0
  1  2  1  0
  2  3  2  0
  2  4  1  0
  4  5  1  0
  5  6  1  0
  6  7  1  0
  7  8  2  0
  8  9  1  0
  9 10  2  0
 10 11  1  0
 11 12  2  0
 12 13  1  0
 13 14  2  0
 14 15  1  0
 15 16  2  0
 14 17  1  0
 17 18  1  0
 12  7  1  0
 16 11  1  0
M  END
$$$$
