
     RDKit          3D

 18 19  0  0  0  0  0  0  0  0999 V2000
    2.8327   -0.2138    6.3074 C   0  0  0  0  0  0  0  0  0  0  0  0
    2.5748    1.2679    6.2234 C   0  0  0  0  0  0  0  0  0  0  0  0
    1.9045    1.7304    5.2928 O   0  0  0  0  0  0  0  0  0  0  0  0
    3.1011    2.1186    7.2092 N   0  0  0  0  0  0  0  0  0  0  0  0
    3.0052    3.5518    7.2054 C   0  0  0  0  0  0  0  0  0  0  0  0
    1.6028    3.9655    7.6278 C   0  0  0  0  0  0  0  0  0  0  0  0
    1.3274    5.3920    7.3553 C   0  0  0  0  0  0  0  0  0  0  0  0
    1.5768    5.9341    6.0894 C   0  0  0  0  0  0  0  0  0  0  0  0
    1.2886    7.2504    5.8481 C   0  0  0  0  0  0  0  0  0  0  0  0
    0.7515    8.0389    6.8593 C   0  0  0  0  0  0  0  0  0  0  0  0
    0.5090    7.4937    8.1085 C   0  0  0  0  0  0  0  0  0  0  0  0
    0.7944    6.1625    8.3724 C   0  0  0  0  0  0  0  0  0  0  0  0
    0.5460    5.6646    9.6271 C   0  0  0  0  0  0  0  0  0  0  0  0
    0.0132    6.4307   10.6697 C   0  0  0  0  0  0  0  0  0  0  0  0
   -0.2596    7.7466   10.3753 C   0  0  0  0  0  0  0  0  0  0  0  0
   -0.0197    8.2717    9.1266 C   0  0  0  0  0  0  0  0  0  0  0  0
   -0.2137    5.8617   11.9170 O   0  0  0  0  0  0  0  0  0  0  0  0
   -0.8464    6.6699   12.8842 C   0  0  0  0  0  0  0  0  0  0  0  0
  1  2  1  0
  2  3  2  0
  2  4  1  0
  4  5  1  0
  5  6  1  0
  6  7  1  0
  7  8  2  0
  8  9  1  0
  9 10  2  0
 10 11  1  0
 11 12  2  0
 12 13  1  0
 13 14  2  0
 14 15  1  0
 15 16  2  0
 14 17  1  0
 17 18  1  0
 12  7  1  0
 16 11  1  0
M  END
$$$$
