
     RDKit          3D

 18 19  0  0  0  0  0  0  0  0999 V2000
    0.9922   -1.5597   10.0782 C   0  0  0  0  0  0  0  0  0  0  0  0
    0.6297   -0.1468   10.4545 C   0  0  0  0  0  0  0  0  0  0  0  0
    0.4792    0.1608   11.6427 O   0  0  0  0  0  0  0  0  0  0  0  0
    0.4642    0.8167    9.4462 N   0  0  0  0  0  0  0  0  0  0  0  0
    0.0886    2.1863    9.6614 C   0  0  0  0  0  0  0  0  0  0  0  0
    1.3138    3.0762    9.5085 C   0  0  0  0  0  0  0  0  0  0  0  0
    0.9960    4.5102    9.6753 C   0  0  0  0  0  0  0  0  0  0  0  0
    0.3981    4.9726   10.8531 C   0  0  0  0  0  0  0  0  0  0  0  0
    0.1374    6.3084   11.0006 C   0  0  0  0  0  0  0  0  0  0  0  0
    0.4671    7.1954    9.9821 C   0  0  0  0  0  0  0  0  0  0  0  0
    1.0577    6.7283    8.8204 C   0  0  0  0  0  0  0  0  0  0  0  0
    1.3294    5.3788    8.6523 C   0  0  0  0  0  0  0  0  0  0  0  0
    1.9084    4.9572    7.4814 C   0  0  0  0  0  0  0  0  0  0  0  0
    2.2466    5.8205    6.4334 C   0  0  0  0  0  0  0  0  0  0  0  0
    1.9651    7.1524    6.6319 C   0  0  0  0  0  0  0  0  0  0  0  0
    1.3845    7.6019    7.7952 C   0  0  0  0  0  0  0  0  0  0  0  0
    2.8316    5.3255    5.2742 O   0  0  0  0  0  0  0  0  0  0  0  0
    2.9914    6.2275    4.2018 C   0  0  0  0  0  0  0  0  0  0  0  0
  1  2  1  0
  2  3  2  0
  2  4  1  0
  4  5  1  0
  5  6  1  0
  6  7  1  0
  7  8  2  0
  8  9  1  0
  9 10  2  0
 10 11  1  0
 11 12  2  0
 12 13  1  0
 13 14  2  0
 14 15  1  0
 15 16  2  0
 14 17  1  0
 17 18  1  0
 12  7  1  0
 16 11  1  0
M  END
$$$$
