
     RDKit          3D

 18 19  0  0  0  0  0  0  0  0999 V2000
    0.3288    0.2063    7.1894 C   0  0  0  0  0  0  0  0  0  0  0  0
    1.0735    1.3236    6.5067 C   0  0  0  0  0  0  0  0  0  0  0  0
    0.4587    2.1622    5.8373 O   0  0  0  0  0  0  0  0  0  0  0  0
    2.4695    1.4051    6.6364 N   0  0  0  0  0  0  0  0  0  0  0  0
    3.2954    2.4395    6.0787 C   0  0  0  0  0  0  0  0  0  0  0  0
    3.6490    3.4447    7.1655 C   0  0  0  0  0  0  0  0  0  0  0  0
    2.9279    4.7254    7.0080 C   0  0  0  0  0  0  0  0  0  0  0  0
    3.1232    5.5150    5.8692 C   0  0  0  0  0  0  0  0  0  0  0  0
    2.4248    6.6839    5.7281 C   0  0  0  0  0  0  0  0  0  0  0  0
    1.5281    7.0788    6.7145 C   0  0  0  0  0  0  0  0  0  0  0  0
    1.3423    6.2913    7.8377 C   0  0  0  0  0  0  0  0  0  0  0  0
    2.0405    5.1040    7.9988 C   0  0  0  0  0  0  0  0  0  0  0  0
    1.8320    4.3576    9.1316 C   0  0  0  0  0  0  0  0  0  0  0  0
    0.9433    4.7281   10.1470 C   0  0  0  0  0  0  0  0  0  0  0  0
    0.2658    5.9101    9.9564 C   0  0  0  0  0  0  0  0  0  0  0  0
    0.4563    6.6780    8.8310 C   0  0  0  0  0  0  0  0  0  0  0  0
    0.7805    3.9238   11.2684 O   0  0  0  0  0  0  0  0  0  0  0  0
    0.1703    4.5123   12.3955 C   0  0  0  0  0  0  0  0  0  0  0  0
  1  2  1  0
  2  3  2  0
  2  4  1  0
  4  5  1  0
  5  6  1  0
  6  7  1  0
  7  8  2  0
  8  9  1  0
  9 10  2  0
 10 11  1  0
 11 12  2  0
 12 13  1  0
 13 14  2  0
 14 15  1  0
 15 16  2  0
 14 17  1  0
 17 18  1  0
 12  7  1  0
 16 11  1  0
M  END
$$$$
