
     RDKit          3D

 18 19  0  0  0  0  0  0  0  0999 V2000
    0.3840   -1.6570   10.7329 C   0  0  0  0  0  0  0  0  0  0  0  0
    1.0774   -0.9885    9.5747 C   0  0  0  0  0  0  0  0  0  0  0  0
    1.5984   -1.6707    8.6846 O   0  0  0  0  0  0  0  0  0  0  0  0
    1.1271    0.4137    9.5141 N   0  0  0  0  0  0  0  0  0  0  0  0
    1.8813    1.1764    8.5588 C   0  0  0  0  0  0  0  0  0  0  0  0
    1.7322    2.6597    8.8656 C   0  0  0  0  0  0  0  0  0  0  0  0
    2.3842    3.5155    7.8519 C   0  0  0  0  0  0  0  0  0  0  0  0
    3.2544    2.9599    6.9070 C   0  0  0  0  0  0  0  0  0  0  0  0
    3.8264    3.7642    5.9584 C   0  0  0  0  0  0  0  0  0  0  0  0
    3.5406    5.1246    5.9394 C   0  0  0  0  0  0  0  0  0  0  0  0
    2.6791    5.6650    6.8786 C   0  0  0  0  0  0  0  0  0  0  0  0
    2.0899    4.8667    7.8475 C   0  0  0  0  0  0  0  0  0  0  0  0
    1.2482    5.4447    8.7647 C   0  0  0  0  0  0  0  0  0  0  0  0
    0.9440    6.8104    8.7794 C   0  0  0  0  0  0  0  0  0  0  0  0
    1.5436    7.5743    7.8049 C   0  0  0  0  0  0  0  0  0  0  0  0
    2.3919    7.0210    6.8740 C   0  0  0  0  0  0  0  0  0  0  0  0
    0.0821    7.3296    9.7378 O   0  0  0  0  0  0  0  0  0  0  0  0
   -0.3129    8.6746    9.5827 C   0  0  0  0  0  0  0  0  0  0  0  0
  1  2  1  0
  2  3  2  0
  2  4  1  0
  4  5  1  0
  5  6  1  0
  6  7  1  0
  7  8  2  0
  8  9  1  0
  9 10  2  0
 10 11  1  0
 11 12  2  0
 12 13  1  0
 13 14  2  0
 14 15  1  0
 15 16  2  0
 14 17  1  0
 17 18  1  0
 12  7  1  0
 16 11  1  0
M  END
$$$$
