
     RDKit          3D

 21 22  0  0  0  0  0  0  0  0999 V2000
   -4.9667    6.6989   10.3680 N   0  0  0  0  0  0  0  0  0  0  0  0
   -4.4848    6.6349    9.3281 C   0  0  0  0  0  0  0  0  0  0  0  0
   -3.8670    6.5343    8.0307 C   0  0  0  0  0  0  0  0  0  0  0  0
   -3.9915    7.4239    7.0132 N   0  0  0  0  0  0  0  0  0  0  0  0
   -3.2374    6.9274    5.9961 C   0  0  0  0  0  0  0  0  0  0  0  0
   -2.6552    5.7526    6.3727 C   0  0  0  0  0  0  0  0  0  0  0  0
   -3.0484    5.4914    7.6662 C   0  0  0  0  0  0  0  0  0  0  0  0
   -1.8078    5.0091    5.5106 C   0  0  0  0  0  0  0  0  0  0  0  0
   -1.2694    3.8857    5.9189 O   0  0  0  0  0  0  0  0  0  0  0  0
   -0.3419    2.9467    5.8317 C   0  0  0  0  0  0  0  0  0  0  0  0
   -0.6039    1.7266    6.6450 C   0  0  2  0  0  0  0  0  0  0  0  0
   -0.1898    1.8778    8.0936 C   0  0  0  0  0  0  0  0  0  0  0  0
    0.7142    0.8341    8.5090 N   0  0  0  0  0  4  0  0  0  0  0  0
    1.1543    0.9624    9.8658 C   0  0  0  0  0  0  0  0  0  0  0  0
    0.0636    0.4314   10.7845 C   0  0  0  0  0  0  0  0  0  0  0  0
    2.4143    0.1692   10.1459 C   0  0  0  0  0  0  0  0  0  0  0  0
    1.4172    2.3865   10.2857 C   0  0  0  0  0  0  0  0  0  0  0  0
   -0.0996    0.5927    6.0653 O   0  0  0  0  0  0  0  0  0  0  0  0
   -1.6240    5.5733    4.2666 C   0  0  0  0  0  0  0  0  0  0  0  0
   -2.2106    6.7705    3.8660 C   0  0  0  0  0  0  0  0  0  0  0  0
   -3.0207    7.4448    4.7423 C   0  0  0  0  0  0  0  0  0  0  0  0
  1  2  3  0
  2  3  1  0
  3  4  1  0
  4  5  1  0
  5  6  2  0
  6  7  1  0
  6  8  1  0
  8  9  1  0
  9 10  1  0
 10 11  1  0
 11 12  1  0
 12 13  1  0
 13 14  1  0
 14 15  1  0
 14 16  1  0
 14 17  1  0
 11 18  1  6
  8 19  2  0
 19 20  1  0
 20 21  2  0
  7  3  2  0
 21  5  1  0
M  CHG  1  13   1
M  END
$$$$
