
     RDKit          3D

 21 22  0  0  0  0  0  0  0  0999 V2000
   -4.4683    6.9673   10.2190 N   0  0  0  0  0  0  0  0  0  0  0  0
   -4.0178    6.8237    9.1731 C   0  0  0  0  0  0  0  0  0  0  0  0
   -3.4294    6.6426    7.8707 C   0  0  0  0  0  0  0  0  0  0  0  0
   -3.3029    7.5928    6.9098 N   0  0  0  0  0  0  0  0  0  0  0  0
   -2.6903    6.9780    5.8627 C   0  0  0  0  0  0  0  0  0  0  0  0
   -2.4405    5.6715    6.1655 C   0  0  0  0  0  0  0  0  0  0  0  0
   -2.9065    5.4456    7.4414 C   0  0  0  0  0  0  0  0  0  0  0  0
   -1.8046    4.7851    5.2579 C   0  0  0  0  0  0  0  0  0  0  0  0
   -1.5841    3.5376    5.5956 O   0  0  0  0  0  0  0  0  0  0  0  0
   -1.4635    2.2575    5.2853 C   0  0  0  0  0  0  0  0  0  0  0  0
   -0.3674    1.5393    5.9935 C   0  0  2  0  0  0  0  0  0  0  0  0
   -0.2776    1.8932    7.4631 C   0  0  0  0  0  0  0  0  0  0  0  0
    0.4005    0.8734    8.2240 N   0  0  0  0  0  4  0  0  0  0  0  0
    0.5239    1.1833    9.6168 C   0  0  0  0  0  0  0  0  0  0  0  0
    1.3452    0.0923   10.2882 C   0  0  0  0  0  0  0  0  0  0  0  0
    1.2303    2.5015    9.8588 C   0  0  0  0  0  0  0  0  0  0  0  0
   -0.7955    1.2403   10.3443 C   0  0  0  0  0  0  0  0  0  0  0  0
    0.8349    1.6511    5.3471 O   0  0  0  0  0  0  0  0  0  0  0  0
   -1.4623    5.3546    4.0504 C   0  0  0  0  0  0  0  0  0  0  0  0
   -1.7101    6.6853    3.7251 C   0  0  0  0  0  0  0  0  0  0  0  0
   -2.3282    7.4945    4.6426 C   0  0  0  0  0  0  0  0  0  0  0  0
  1  2  3  0
  2  3  1  0
  3  4  1  0
  4  5  1  0
  5  6  2  0
  6  7  1  0
  6  8  1  0
  8  9  1  0
  9 10  1  0
 10 11  1  0
 11 12  1  0
 12 13  1  0
 13 14  1  0
 14 15  1  0
 14 16  1  0
 14 17  1  0
 11 18  1  6
  8 19  2  0
 19 20  1  0
 20 21  2  0
  7  3  2  0
 21  5  1  0
M  CHG  1  13   1
M  END
$$$$
