
     RDKit          3D

 21 22  0  0  0  0  0  0  0  0999 V2000
   -5.6491    7.7507    9.6937 N   0  0  0  0  0  0  0  0  0  0  0  0
   -5.0034    7.3969    8.8130 C   0  0  0  0  0  0  0  0  0  0  0  0
   -4.1903    6.9306    7.7191 C   0  0  0  0  0  0  0  0  0  0  0  0
   -4.2118    7.4033    6.4469 N   0  0  0  0  0  0  0  0  0  0  0  0
   -3.2830    6.6770    5.7689 C   0  0  0  0  0  0  0  0  0  0  0  0
   -2.6953    5.7706    6.6020 C   0  0  0  0  0  0  0  0  0  0  0  0
   -3.2645    5.9220    7.8466 C   0  0  0  0  0  0  0  0  0  0  0  0
   -1.6834    4.8763    6.1660 C   0  0  0  0  0  0  0  0  0  0  0  0
   -1.1468    4.0238    7.0051 O   0  0  0  0  0  0  0  0  0  0  0  0
   -0.1197    3.3066    7.4296 C   0  0  0  0  0  0  0  0  0  0  0  0
   -0.4518    2.2776    8.4541 C   0  0  2  0  0  0  0  0  0  0  0  0
    0.3411    0.9980    8.2898 C   0  0  0  0  0  0  0  0  0  0  0  0
    0.1928    0.1209    9.4246 N   0  0  0  0  0  4  0  0  0  0  0  0
    1.2199   -0.8724    9.5203 C   0  0  0  0  0  0  0  0  0  0  0  0
    0.9349   -1.7540   10.7274 C   0  0  0  0  0  0  0  0  0  0  0  0
    1.2759   -1.7704    8.3014 C   0  0  0  0  0  0  0  0  0  0  0  0
    2.6003   -0.2997    9.7201 C   0  0  0  0  0  0  0  0  0  0  0  0
   -1.7996    2.0564    8.5562 O   0  0  0  0  0  0  0  0  0  0  0  0
   -1.3466    5.0018    4.8355 C   0  0  0  0  0  0  0  0  0  0  0  0
   -1.9362    5.9206    3.9717 C   0  0  0  0  0  0  0  0  0  0  0  0
   -2.9094    6.7592    4.4497 C   0  0  0  0  0  0  0  0  0  0  0  0
  1  2  3  0
  2  3  1  0
  3  4  1  0
  4  5  1  0
  5  6  2  0
  6  7  1  0
  6  8  1  0
  8  9  1  0
  9 10  1  0
 10 11  1  0
 11 12  1  0
 12 13  1  0
 13 14  1  0
 14 15  1  0
 14 16  1  0
 14 17  1  0
 11 18  1  6
  8 19  2  0
 19 20  1  0
 20 21  2  0
  7  3  2  0
 21  5  1  0
M  CHG  1  13   1
M  END
$$$$
