
     RDKit          3D

 21 22  0  0  0  0  0  0  0  0999 V2000
   -3.6214    2.1829   12.9927 N   0  0  0  0  0  0  0  0  0  0  0  0
   -2.9049    1.9380   12.1301 C   0  0  0  0  0  0  0  0  0  0  0  0
   -2.0176    1.6088   11.0440 C   0  0  0  0  0  0  0  0  0  0  0  0
   -0.9327    0.7962   11.1142 N   0  0  0  0  0  0  0  0  0  0  0  0
   -0.4080    0.7738    9.8597 C   0  0  0  0  0  0  0  0  0  0  0  0
   -1.1511    1.5565    9.0253 C   0  0  0  0  0  0  0  0  0  0  0  0
   -2.1789    2.0939    9.7675 C   0  0  0  0  0  0  0  0  0  0  0  0
   -0.8383    1.7198    7.6508 C   0  0  0  0  0  0  0  0  0  0  0  0
   -1.5842    2.4816    6.8879 O   0  0  0  0  0  0  0  0  0  0  0  0
   -1.7988    3.1318    5.7562 C   0  0  0  0  0  0  0  0  0  0  0  0
   -3.0495    3.9402    5.7229 C   0  0  2  0  0  0  0  0  0  0  0  0
   -2.8867    5.3125    6.3418 C   0  0  0  0  0  0  0  0  0  0  0  0
   -2.6208    6.3246    5.3499 N   0  0  0  0  0  4  0  0  0  0  0  0
   -2.3975    7.6263    5.9038 C   0  0  0  0  0  0  0  0  0  0  0  0
   -3.7367    8.2131    6.3255 C   0  0  0  0  0  0  0  0  0  0  0  0
   -1.5073    7.5920    7.1292 C   0  0  0  0  0  0  0  0  0  0  0  0
   -1.7855    8.6022    4.9309 C   0  0  0  0  0  0  0  0  0  0  0  0
   -4.1272    3.2582    6.2222 O   0  0  0  0  0  0  0  0  0  0  0  0
    0.2749    1.0227    7.2330 C   0  0  0  0  0  0  0  0  0  0  0  0
    1.0444    0.2202    8.0708 C   0  0  0  0  0  0  0  0  0  0  0  0
    0.6936    0.1009    9.3904 C   0  0  0  0  0  0  0  0  0  0  0  0
  1  2  3  0
  2  3  1  0
  3  4  1  0
  4  5  1  0
  5  6  2  0
  6  7  1  0
  6  8  1  0
  8  9  1  0
  9 10  1  0
 10 11  1  0
 11 12  1  0
 12 13  1  0
 13 14  1  0
 14 15  1  0
 14 16  1  0
 14 17  1  0
 11 18  1  1
  8 19  2  0
 19 20  1  0
 20 21  2  0
  7  3  2  0
 21  5  1  0
M  CHG  1  13   1
M  END
$$$$
