
     RDKit          3D

 21 22  0  0  0  0  0  0  0  0999 V2000
   -4.5781    7.2627   10.3044 N   0  0  0  0  0  0  0  0  0  0  0  0
   -4.1366    7.0219    9.2725 C   0  0  0  0  0  0  0  0  0  0  0  0
   -3.5795    6.6958    7.9847 C   0  0  0  0  0  0  0  0  0  0  0  0
   -3.5519    7.5054    6.8957 N   0  0  0  0  0  0  0  0  0  0  0  0
   -2.9317    6.7889    5.9201 C   0  0  0  0  0  0  0  0  0  0  0  0
   -2.5804    5.5582    6.3921 C   0  0  0  0  0  0  0  0  0  0  0  0
   -2.9875    5.4865    7.7056 C   0  0  0  0  0  0  0  0  0  0  0  0
   -1.9133    4.5948    5.5916 C   0  0  0  0  0  0  0  0  0  0  0  0
   -1.5943    3.4254    6.0911 O   0  0  0  0  0  0  0  0  0  0  0  0
   -1.5549    2.1054    6.0161 C   0  0  0  0  0  0  0  0  0  0  0  0
   -0.2222    1.4994    6.2909 C   0  0  2  0  0  0  0  0  0  0  0  0
    0.2586    1.7383    7.7067 C   0  0  0  0  0  0  0  0  0  0  0  0
    0.6401    0.5120    8.3620 N   0  0  0  0  0  4  0  0  0  0  0  0
    0.9838    0.6815    9.7419 C   0  0  0  0  0  0  0  0  0  0  0  0
   -0.0993    1.5111   10.4160 C   0  0  0  0  0  0  0  0  0  0  0  0
    1.0786   -0.6360   10.4838 C   0  0  0  0  0  0  0  0  0  0  0  0
    2.2847    1.4129    9.9571 C   0  0  0  0  0  0  0  0  0  0  0  0
    0.7122    1.8404    5.3493 O   0  0  0  0  0  0  0  0  0  0  0  0
   -1.6516    5.0075    4.3029 C   0  0  0  0  0  0  0  0  0  0  0  0
   -2.0034    6.2591    3.8051 C   0  0  0  0  0  0  0  0  0  0  0  0
   -2.6470    7.1487    4.6255 C   0  0  0  0  0  0  0  0  0  0  0  0
  1  2  3  0
  2  3  1  0
  3  4  1  0
  4  5  1  0
  5  6  2  0
  6  7  1  0
  6  8  1  0
  8  9  1  0
  9 10  1  0
 10 11  1  0
 11 12  1  0
 12 13  1  0
 13 14  1  0
 14 15  1  0
 14 16  1  0
 14 17  1  0
 11 18  1  6
  8 19  2  0
 19 20  1  0
 20 21  2  0
  7  3  2  0
 21  5  1  0
M  CHG  1  13   1
M  END
$$$$
