
     RDKit          3D

 21 22  0  0  0  0  0  0  0  0999 V2000
   -5.2315    7.5324   10.0631 N   0  0  0  0  0  0  0  0  0  0  0  0
   -4.6656    7.2147    9.1162 C   0  0  0  0  0  0  0  0  0  0  0  0
   -3.9582    6.8393    7.9188 C   0  0  0  0  0  0  0  0  0  0  0  0
   -4.0263    7.4681    6.7179 N   0  0  0  0  0  0  0  0  0  0  0  0
   -3.1960    6.7759    5.8926 C   0  0  0  0  0  0  0  0  0  0  0  0
   -2.6226    5.7373    6.5660 C   0  0  0  0  0  0  0  0  0  0  0  0
   -3.0999    5.7668    7.8572 C   0  0  0  0  0  0  0  0  0  0  0  0
   -1.7061    4.8432    5.9541 C   0  0  0  0  0  0  0  0  0  0  0  0
   -1.1794    3.8603    6.6436 O   0  0  0  0  0  0  0  0  0  0  0  0
   -0.1894    3.3422    7.3514 C   0  0  0  0  0  0  0  0  0  0  0  0
   -0.3279    1.8911    7.6579 C   0  0  2  0  0  0  0  0  0  0  0  0
    0.6338    1.4150    8.7263 C   0  0  0  0  0  0  0  0  0  0  0  0
    0.4822    0.0079    9.0017 N   0  0  0  0  0  4  0  0  0  0  0  0
    1.2977   -0.4563   10.0835 C   0  0  0  0  0  0  0  0  0  0  0  0
    1.0860   -1.9545   10.2459 C   0  0  0  0  0  0  0  0  0  0  0  0
    2.7750   -0.2274    9.8379 C   0  0  0  0  0  0  0  0  0  0  0  0
    0.9600    0.1740   11.4110 C   0  0  0  0  0  0  0  0  0  0  0  0
   -0.2961    1.1126    6.5315 O   0  0  0  0  0  0  0  0  0  0  0  0
   -1.4458    5.1131    4.6278 C   0  0  0  0  0  0  0  0  0  0  0  0
   -2.0222    6.1680    3.9257 C   0  0  0  0  0  0  0  0  0  0  0  0
   -2.9014    6.9992    4.5697 C   0  0  0  0  0  0  0  0  0  0  0  0
  1  2  3  0
  2  3  1  0
  3  4  1  0
  4  5  1  0
  5  6  2  0
  6  7  1  0
  6  8  1  0
  8  9  1  0
  9 10  1  0
 10 11  1  0
 11 12  1  0
 12 13  1  0
 13 14  1  0
 14 15  1  0
 14 16  1  0
 14 17  1  0
 11 18  1  6
  8 19  2  0
 19 20  1  0
 20 21  2  0
  7  3  2  0
 21  5  1  0
M  CHG  1  13   1
M  END
$$$$
