
     RDKit          3D

 21 22  0  0  0  0  0  0  0  0999 V2000
   -4.7848    6.9376   10.1245 N   0  0  0  0  0  0  0  0  0  0  0  0
   -4.2750    6.7395    9.1152 C   0  0  0  0  0  0  0  0  0  0  0  0
   -3.6376    6.5153    7.8430 C   0  0  0  0  0  0  0  0  0  0  0  0
   -3.4924    7.4272    6.8482 N   0  0  0  0  0  0  0  0  0  0  0  0
   -2.8328    6.7806    5.8499 C   0  0  0  0  0  0  0  0  0  0  0  0
   -2.5726    5.4924    6.2157 C   0  0  0  0  0  0  0  0  0  0  0  0
   -3.0802    5.3111    7.4828 C   0  0  0  0  0  0  0  0  0  0  0  0
   -1.8904    4.5807    5.3689 C   0  0  0  0  0  0  0  0  0  0  0  0
   -1.6617    3.3524    5.7660 O   0  0  0  0  0  0  0  0  0  0  0  0
   -1.6702    2.0465    5.5559 C   0  0  0  0  0  0  0  0  0  0  0  0
   -0.5052    1.3109    6.1221 C   0  0  2  0  0  0  0  0  0  0  0  0
   -0.2488    1.6351    7.5788 C   0  0  0  0  0  0  0  0  0  0  0  0
    0.3368    0.5228    8.2850 N   0  0  0  0  0  4  0  0  0  0  0  0
    0.6024    0.7953    9.6657 C   0  0  0  0  0  0  0  0  0  0  0  0
    0.0787    2.1848    9.9981 C   0  0  0  0  0  0  0  0  0  0  0  0
   -0.0832   -0.1859   10.5944 C   0  0  0  0  0  0  0  0  0  0  0  0
    2.0697    0.7922   10.0128 C   0  0  0  0  0  0  0  0  0  0  0  0
    0.6173    1.4317    5.3468 O   0  0  0  0  0  0  0  0  0  0  0  0
   -1.5144    5.1060    4.1513 C   0  0  0  0  0  0  0  0  0  0  0  0
   -1.7721    6.4175    3.7620 C   0  0  0  0  0  0  0  0  0  0  0  0
   -2.4358    7.2527    4.6226 C   0  0  0  0  0  0  0  0  0  0  0  0
  1  2  3  0
  2  3  1  0
  3  4  1  0
  4  5  1  0
  5  6  2  0
  6  7  1  0
  6  8  1  0
  8  9  1  0
  9 10  1  0
 10 11  1  0
 11 12  1  0
 12 13  1  0
 13 14  1  0
 14 15  1  0
 14 16  1  0
 14 17  1  0
 11 18  1  6
  8 19  2  0
 19 20  1  0
 20 21  2  0
  7  3  2  0
 21  5  1  0
M  CHG  1  13   1
M  END
$$$$
