
     RDKit          3D

 21 22  0  0  0  0  0  0  0  0999 V2000
   -4.4278    7.5091   10.2111 N   0  0  0  0  0  0  0  0  0  0  0  0
   -4.0048    7.1945    9.1914 C   0  0  0  0  0  0  0  0  0  0  0  0
   -3.4543    6.7892    7.9234 C   0  0  0  0  0  0  0  0  0  0  0  0
   -3.4284    7.5316    6.7875 N   0  0  0  0  0  0  0  0  0  0  0  0
   -2.8149    6.7551    5.8545 C   0  0  0  0  0  0  0  0  0  0  0  0
   -2.4659    5.5538    6.3985 C   0  0  0  0  0  0  0  0  0  0  0  0
   -2.8678    5.5631    7.7155 C   0  0  0  0  0  0  0  0  0  0  0  0
   -1.8056    4.5414    5.6550 C   0  0  0  0  0  0  0  0  0  0  0  0
   -1.4886    3.4030    6.2228 O   0  0  0  0  0  0  0  0  0  0  0  0
   -1.2954    2.0957    6.1686 C   0  0  0  0  0  0  0  0  0  0  0  0
   -0.0336    1.6197    6.8011 C   0  0  2  0  0  0  0  0  0  0  0  0
   -0.0512    1.7211    8.3119 C   0  0  0  0  0  0  0  0  0  0  0  0
   -0.1434    0.4262    8.9393 N   0  0  0  0  0  4  0  0  0  0  0  0
   -0.1925    0.4837   10.3695 C   0  0  0  0  0  0  0  0  0  0  0  0
   -0.6149   -0.8792   10.8981 C   0  0  0  0  0  0  0  0  0  0  0  0
    1.1516    0.8160   10.9845 C   0  0  0  0  0  0  0  0  0  0  0  0
   -1.1895    1.4816   10.9022 C   0  0  0  0  0  0  0  0  0  0  0  0
    1.0794    2.1920    6.2446 O   0  0  0  0  0  0  0  0  0  0  0  0
   -1.5478    4.8746    4.3427 C   0  0  0  0  0  0  0  0  0  0  0  0
   -1.8972    6.0952    3.7716 C   0  0  0  0  0  0  0  0  0  0  0  0
   -2.5343    7.0351    4.5394 C   0  0  0  0  0  0  0  0  0  0  0  0
  1  2  3  0
  2  3  1  0
  3  4  1  0
  4  5  1  0
  5  6  2  0
  6  7  1  0
  6  8  1  0
  8  9  1  0
  9 10  1  0
 10 11  1  0
 11 12  1  0
 12 13  1  0
 13 14  1  0
 14 15  1  0
 14 16  1  0
 14 17  1  0
 11 18  1  6
  8 19  2  0
 19 20  1  0
 20 21  2  0
  7  3  2  0
 21  5  1  0
M  CHG  1  13   1
M  END
$$$$
