
     RDKit          3D

 21 22  0  0  0  0  0  0  0  0999 V2000
   -4.5559    7.0517   10.6487 N   0  0  0  0  0  0  0  0  0  0  0  0
   -4.1543    6.8113    9.6006 C   0  0  0  0  0  0  0  0  0  0  0  0
   -3.6334    6.5283    8.2877 C   0  0  0  0  0  0  0  0  0  0  0  0
   -3.9115    7.2150    7.1505 N   0  0  0  0  0  0  0  0  0  0  0  0
   -3.2000    6.6017    6.1670 C   0  0  0  0  0  0  0  0  0  0  0  0
   -2.4933    5.5544    6.6814 C   0  0  0  0  0  0  0  0  0  0  0  0
   -2.7609    5.4970    8.0309 C   0  0  0  0  0  0  0  0  0  0  0  0
   -1.6563    4.7321    5.8832 C   0  0  0  0  0  0  0  0  0  0  0  0
   -0.9950    3.7376    6.4240 O   0  0  0  0  0  0  0  0  0  0  0  0
   -0.2499    2.6496    6.3205 C   0  0  0  0  0  0  0  0  0  0  0  0
    0.4438    2.2410    7.5737 C   0  0  2  0  0  0  0  0  0  0  0  0
   -0.4472    1.4639    8.5198 C   0  0  0  0  0  0  0  0  0  0  0  0
    0.2719    0.4165    9.2015 N   0  0  0  0  0  4  0  0  0  0  0  0
   -0.5504   -0.3747   10.0670 C   0  0  0  0  0  0  0  0  0  0  0  0
   -1.7214   -0.9203    9.2629 C   0  0  0  0  0  0  0  0  0  0  0  0
    0.1924   -1.5579   10.6533 C   0  0  0  0  0  0  0  0  0  0  0  0
   -1.1405    0.4004   11.2179 C   0  0  0  0  0  0  0  0  0  0  0  0
    1.0801    3.2884    8.1853 O   0  0  0  0  0  0  0  0  0  0  0  0
   -1.6184    5.0810    4.5503 C   0  0  0  0  0  0  0  0  0  0  0  0
   -2.3332    6.1459    4.0090 C   0  0  0  0  0  0  0  0  0  0  0  0
   -3.1262    6.9053    4.8295 C   0  0  0  0  0  0  0  0  0  0  0  0
  1  2  3  0
  2  3  1  0
  3  4  1  0
  4  5  1  0
  5  6  2  0
  6  7  1  0
  6  8  1  0
  8  9  1  0
  9 10  1  0
 10 11  1  0
 11 12  1  0
 12 13  1  0
 13 14  1  0
 14 15  1  0
 14 16  1  0
 14 17  1  0
 11 18  1  1
  8 19  2  0
 19 20  1  0
 20 21  2  0
  7  3  2  0
 21  5  1  0
M  CHG  1  13   1
M  END
$$$$
