
     RDKit          3D

 21 22  0  0  0  0  0  0  0  0999 V2000
   -4.5980    6.7595   10.4755 N   0  0  0  0  0  0  0  0  0  0  0  0
   -4.2240    6.5193    9.4172 C   0  0  0  0  0  0  0  0  0  0  0  0
   -3.7772    6.2079    8.0836 C   0  0  0  0  0  0  0  0  0  0  0  0
   -3.9273    6.9912    6.9853 N   0  0  0  0  0  0  0  0  0  0  0  0
   -3.3542    6.3032    5.9617 C   0  0  0  0  0  0  0  0  0  0  0  0
   -2.8573    5.1158    6.4134 C   0  0  0  0  0  0  0  0  0  0  0  0
   -3.1205    5.0432    7.7630 C   0  0  0  0  0  0  0  0  0  0  0  0
   -2.1996    4.1898    5.5627 C   0  0  0  0  0  0  0  0  0  0  0  0
   -1.7369    3.0615    6.0441 O   0  0  0  0  0  0  0  0  0  0  0  0
   -1.4194    1.7853    5.9027 C   0  0  0  0  0  0  0  0  0  0  0  0
   -0.3716    1.2906    6.8387 C   0  0  2  0  0  0  0  0  0  0  0  0
   -0.8736    1.1225    8.2574 C   0  0  0  0  0  0  0  0  0  0  0  0
   -0.0206    0.2571    9.0335 N   0  0  0  0  0  4  0  0  0  0  0  0
   -0.5191   -0.0106   10.3491 C   0  0  0  0  0  0  0  0  0  0  0  0
   -0.3457    1.2391   11.1999 C   0  0  0  0  0  0  0  0  0  0  0  0
   -1.9921   -0.3647   10.3519 C   0  0  0  0  0  0  0  0  0  0  0  0
    0.2115   -1.1218   11.0597 C   0  0  0  0  0  0  0  0  0  0  0  0
    0.7823    2.0251    6.7685 O   0  0  0  0  0  0  0  0  0  0  0  0
   -2.1058    4.5913    4.2475 C   0  0  0  0  0  0  0  0  0  0  0  0
   -2.6074    5.7988    3.7699 C   0  0  0  0  0  0  0  0  0  0  0  0
   -3.2338    6.6537    4.6390 C   0  0  0  0  0  0  0  0  0  0  0  0
  1  2  3  0
  2  3  1  0
  3  4  1  0
  4  5  1  0
  5  6  2  0
  6  7  1  0
  6  8  1  0
  8  9  1  0
  9 10  1  0
 10 11  1  0
 11 12  1  0
 12 13  1  0
 13 14  1  0
 14 15  1  0
 14 16  1  0
 14 17  1  0
 11 18  1  1
  8 19  2  0
 19 20  1  0
 20 21  2  0
  7  3  2  0
 21  5  1  0
M  CHG  1  13   1
M  END
$$$$
