
     RDKit          3D

 21 22  0  0  0  0  0  0  0  0999 V2000
   -4.6240    7.4052    9.9954 N   0  0  0  0  0  0  0  0  0  0  0  0
   -4.1624    7.1637    8.9725 C   0  0  0  0  0  0  0  0  0  0  0  0
   -3.5820    6.8365    7.6954 C   0  0  0  0  0  0  0  0  0  0  0  0
   -3.4517    7.6753    6.6363 N   0  0  0  0  0  0  0  0  0  0  0  0
   -2.8497    6.9444    5.6600 C   0  0  0  0  0  0  0  0  0  0  0  0
   -2.6102    5.6764    6.1022 C   0  0  0  0  0  0  0  0  0  0  0  0
   -3.0720    5.5949    7.3968 C   0  0  0  0  0  0  0  0  0  0  0  0
   -1.9867    4.6905    5.2940 C   0  0  0  0  0  0  0  0  0  0  0  0
   -1.7758    3.4851    5.7645 O   0  0  0  0  0  0  0  0  0  0  0  0
   -1.7789    2.1699    5.6243 C   0  0  0  0  0  0  0  0  0  0  0  0
   -0.5296    1.4877    6.0633 C   0  0  2  0  0  0  0  0  0  0  0  0
   -0.1867    1.7520    7.5144 C   0  0  0  0  0  0  0  0  0  0  0  0
    0.5826    0.6782    8.0921 N   0  0  0  0  0  4  0  0  0  0  0  0
    0.8322    0.8401    9.4930 C   0  0  0  0  0  0  0  0  0  0  0  0
    1.4567   -0.4401   10.0283 C   0  0  0  0  0  0  0  0  0  0  0  0
    1.7932    1.9743    9.7851 C   0  0  0  0  0  0  0  0  0  0  0  0
   -0.4134    1.0859   10.3062 C   0  0  0  0  0  0  0  0  0  0  0  0
    0.5217    1.7262    5.2185 O   0  0  0  0  0  0  0  0  0  0  0  0
   -1.6452    5.1221    4.0304 C   0  0  0  0  0  0  0  0  0  0  0  0
   -1.8826    6.4118    3.5631 C   0  0  0  0  0  0  0  0  0  0  0  0
   -2.4890    7.3218    4.3895 C   0  0  0  0  0  0  0  0  0  0  0  0
  1  2  3  0
  2  3  1  0
  3  4  1  0
  4  5  1  0
  5  6  2  0
  6  7  1  0
  6  8  1  0
  8  9  1  0
  9 10  1  0
 10 11  1  0
 11 12  1  0
 12 13  1  0
 13 14  1  0
 14 15  1  0
 14 16  1  0
 14 17  1  0
 11 18  1  6
  8 19  2  0
 19 20  1  0
 20 21  2  0
  7  3  2  0
 21  5  1  0
M  CHG  1  13   1
M  END
$$$$
