
     RDKit          3D

 21 22  0  0  0  0  0  0  0  0999 V2000
   -4.8912    7.0707   10.0670 N   0  0  0  0  0  0  0  0  0  0  0  0
   -4.4206    6.8084    9.0534 C   0  0  0  0  0  0  0  0  0  0  0  0
   -3.8432    6.4978    7.7707 C   0  0  0  0  0  0  0  0  0  0  0  0
   -3.7471    7.3399    6.7106 N   0  0  0  0  0  0  0  0  0  0  0  0
   -3.1337    6.6265    5.7285 C   0  0  0  0  0  0  0  0  0  0  0  0
   -2.8536    5.3658    6.1682 C   0  0  0  0  0  0  0  0  0  0  0  0
   -3.3006    5.2713    7.4671 C   0  0  0  0  0  0  0  0  0  0  0  0
   -2.2099    4.3982    5.3539 C   0  0  0  0  0  0  0  0  0  0  0  0
   -1.9599    3.1994    5.8222 O   0  0  0  0  0  0  0  0  0  0  0  0
   -1.8001    1.8979    5.6485 C   0  0  0  0  0  0  0  0  0  0  0  0
   -0.6241    1.3098    6.3485 C   0  0  2  0  0  0  0  0  0  0  0  0
   -0.5097    1.7520    7.7922 C   0  0  0  0  0  0  0  0  0  0  0  0
   -0.5344    0.6346    8.7032 N   0  0  0  0  0  4  0  0  0  0  0  0
    0.3588    0.7793    9.8132 C   0  0  0  0  0  0  0  0  0  0  0  0
    0.4800    2.2578   10.1522 C   0  0  0  0  0  0  0  0  0  0  0  0
   -0.1355    0.0648   11.0543 C   0  0  0  0  0  0  0  0  0  0  0  0
    1.7557    0.2839    9.5359 C   0  0  0  0  0  0  0  0  0  0  0  0
    0.5407    1.4798    5.6484 O   0  0  0  0  0  0  0  0  0  0  0  0
   -1.8929    4.8392    4.0872 C   0  0  0  0  0  0  0  0  0  0  0  0
   -2.1716    6.1215    3.6224 C   0  0  0  0  0  0  0  0  0  0  0  0
   -2.7960    7.0138    4.4547 C   0  0  0  0  0  0  0  0  0  0  0  0
  1  2  3  0
  2  3  1  0
  3  4  1  0
  4  5  1  0
  5  6  2  0
  6  7  1  0
  6  8  1  0
  8  9  1  0
  9 10  1  0
 10 11  1  0
 11 12  1  0
 12 13  1  0
 13 14  1  0
 14 15  1  0
 14 16  1  0
 14 17  1  0
 11 18  1  6
  8 19  2  0
 19 20  1  0
 20 21  2  0
  7  3  2  0
 21  5  1  0
M  CHG  1  13   1
M  END
$$$$
