
     RDKit          3D

 21 22  0  0  0  0  0  0  0  0999 V2000
   -5.4904    7.5956   10.0846 N   0  0  0  0  0  0  0  0  0  0  0  0
   -4.8999    7.2230    9.1735 C   0  0  0  0  0  0  0  0  0  0  0  0
   -4.1552    6.7793    8.0229 C   0  0  0  0  0  0  0  0  0  0  0  0
   -4.1361    7.3742    6.8031 N   0  0  0  0  0  0  0  0  0  0  0  0
   -3.3016    6.6197    6.0389 C   0  0  0  0  0  0  0  0  0  0  0  0
   -2.8112    5.5762    6.7681 C   0  0  0  0  0  0  0  0  0  0  0  0
   -3.3473    5.6667    8.0331 C   0  0  0  0  0  0  0  0  0  0  0  0
   -1.9105    4.6225    6.2267 C   0  0  0  0  0  0  0  0  0  0  0  0
   -1.4648    3.6374    6.9682 O   0  0  0  0  0  0  0  0  0  0  0  0
   -0.4921    2.8323    7.3621 C   0  0  0  0  0  0  0  0  0  0  0  0
   -0.8776    1.8460    8.4097 C   0  0  2  0  0  0  0  0  0  0  0  0
   -0.0979    0.5509    8.3222 C   0  0  0  0  0  0  0  0  0  0  0  0
    0.3707    0.1139    9.6139 N   0  0  0  0  0  4  0  0  0  0  0  0
    1.1808   -1.0659    9.5615 C   0  0  0  0  0  0  0  0  0  0  0  0
    2.2707   -0.8633    8.5191 C   0  0  0  0  0  0  0  0  0  0  0  0
    1.8610   -1.3634   10.8822 C   0  0  0  0  0  0  0  0  0  0  0  0
    0.4220   -2.3048    9.1578 C   0  0  0  0  0  0  0  0  0  0  0  0
   -2.2314    1.6465    8.4682 O   0  0  0  0  0  0  0  0  0  0  0  0
   -1.5750    4.8401    4.9078 C   0  0  0  0  0  0  0  0  0  0  0  0
   -2.0663    5.8990    4.1493 C   0  0  0  0  0  0  0  0  0  0  0  0
   -2.9342    6.7892    4.7263 C   0  0  0  0  0  0  0  0  0  0  0  0
  1  2  3  0
  2  3  1  0
  3  4  1  0
  4  5  1  0
  5  6  2  0
  6  7  1  0
  6  8  1  0
  8  9  1  0
  9 10  1  0
 10 11  1  0
 11 12  1  0
 12 13  1  0
 13 14  1  0
 14 15  1  0
 14 16  1  0
 14 17  1  0
 11 18  1  6
  8 19  2  0
 19 20  1  0
 20 21  2  0
  7  3  2  0
 21  5  1  0
M  CHG  1  13   1
M  END
$$$$
