
     RDKit          3D

 21 22  0  0  0  0  0  0  0  0999 V2000
   -4.8341    6.7145   10.3168 N   0  0  0  0  0  0  0  0  0  0  0  0
   -4.3673    6.6262    9.2719 C   0  0  0  0  0  0  0  0  0  0  0  0
   -3.7926    6.5370    7.9540 C   0  0  0  0  0  0  0  0  0  0  0  0
   -3.9611    7.4287    6.9447 N   0  0  0  0  0  0  0  0  0  0  0  0
   -3.2364    6.9441    5.9008 C   0  0  0  0  0  0  0  0  0  0  0  0
   -2.6290    5.7745    6.2530 C   0  0  0  0  0  0  0  0  0  0  0  0
   -2.9755    5.5044    7.5580 C   0  0  0  0  0  0  0  0  0  0  0  0
   -1.8033    5.0434    5.3600 C   0  0  0  0  0  0  0  0  0  0  0  0
   -1.2392    3.9245    5.7455 O   0  0  0  0  0  0  0  0  0  0  0  0
   -0.2837    3.0151    5.6475 C   0  0  0  0  0  0  0  0  0  0  0  0
   -0.4590    1.8221    6.5220 C   0  0  2  0  0  0  0  0  0  0  0  0
    0.1128    2.0142    7.9109 C   0  0  0  0  0  0  0  0  0  0  0  0
    0.2788    0.7614    8.6050 N   0  0  0  0  0  4  0  0  0  0  0  0
    0.8319    0.9020    9.9185 C   0  0  0  0  0  0  0  0  0  0  0  0
   -0.2895    1.2554   10.8846 C   0  0  0  0  0  0  0  0  0  0  0  0
    1.4791   -0.3741   10.4166 C   0  0  0  0  0  0  0  0  0  0  0  0
    1.8594    1.9999   10.0293 C   0  0  0  0  0  0  0  0  0  0  0  0
   -0.0257    0.6677    5.9257 O   0  0  0  0  0  0  0  0  0  0  0  0
   -1.6678    5.6139    4.1127 C   0  0  0  0  0  0  0  0  0  0  0  0
   -2.2805    6.8060    3.7367 C   0  0  0  0  0  0  0  0  0  0  0  0
   -3.0678    7.4683    4.6424 C   0  0  0  0  0  0  0  0  0  0  0  0
  1  2  3  0
  2  3  1  0
  3  4  1  0
  4  5  1  0
  5  6  2  0
  6  7  1  0
  6  8  1  0
  8  9  1  0
  9 10  1  0
 10 11  1  0
 11 12  1  0
 12 13  1  0
 13 14  1  0
 14 15  1  0
 14 16  1  0
 14 17  1  0
 11 18  1  6
  8 19  2  0
 19 20  1  0
 20 21  2  0
  7  3  2  0
 21  5  1  0
M  CHG  1  13   1
M  END
$$$$
