
     RDKit          3D

 21 22  0  0  0  0  0  0  0  0999 V2000
   -5.4813    7.4510    9.7454 N   0  0  0  0  0  0  0  0  0  0  0  0
   -4.8692    7.1078    8.8370 C   0  0  0  0  0  0  0  0  0  0  0  0
   -4.0992    6.7010    7.6895 C   0  0  0  0  0  0  0  0  0  0  0  0
   -4.0611    7.3291    6.4870 N   0  0  0  0  0  0  0  0  0  0  0  0
   -3.2064    6.6017    5.7189 C   0  0  0  0  0  0  0  0  0  0  0  0
   -2.7222    5.5421    6.4288 C   0  0  0  0  0  0  0  0  0  0  0  0
   -3.2833    5.5942    7.6851 C   0  0  0  0  0  0  0  0  0  0  0  0
   -1.8042    4.6099    5.8793 C   0  0  0  0  0  0  0  0  0  0  0  0
   -1.3654    3.6080    6.6022 O   0  0  0  0  0  0  0  0  0  0  0  0
   -0.4188    3.0220    7.3162 C   0  0  0  0  0  0  0  0  0  0  0  0
   -0.4943    1.5350    7.3607 C   0  0  2  0  0  0  0  0  0  0  0  0
    0.7195    0.8973    8.0033 C   0  0  0  0  0  0  0  0  0  0  0  0
    0.3611   -0.2082    8.8568 N   0  0  0  0  0  4  0  0  0  0  0  0
    1.4435   -0.6836    9.6650 C   0  0  0  0  0  0  0  0  0  0  0  0
    2.1033    0.5067   10.3458 C   0  0  0  0  0  0  0  0  0  0  0  0
    0.9841   -1.6346   10.7512 C   0  0  0  0  0  0  0  0  0  0  0  0
    2.5231   -1.3854    8.8805 C   0  0  0  0  0  0  0  0  0  0  0  0
   -0.7965    0.9894    6.1413 O   0  0  0  0  0  0  0  0  0  0  0  0
   -1.4449    4.8658    4.5735 C   0  0  0  0  0  0  0  0  0  0  0  0
   -1.9295    5.9417    3.8347 C   0  0  0  0  0  0  0  0  0  0  0  0
   -2.8151    6.8096    4.4187 C   0  0  0  0  0  0  0  0  0  0  0  0
  1  2  3  0
  2  3  1  0
  3  4  1  0
  4  5  1  0
  5  6  2  0
  6  7  1  0
  6  8  1  0
  8  9  1  0
  9 10  1  0
 10 11  1  0
 11 12  1  0
 12 13  1  0
 13 14  1  0
 14 15  1  0
 14 16  1  0
 14 17  1  0
 11 18  1  6
  8 19  2  0
 19 20  1  0
 20 21  2  0
  7  3  2  0
 21  5  1  0
M  CHG  1  13   1
M  END
$$$$
