
     RDKit          3D

 21 22  0  0  0  0  0  0  0  0999 V2000
   -4.7210    6.6218   10.1827 N   0  0  0  0  0  0  0  0  0  0  0  0
   -4.2139    6.5504    9.1554 C   0  0  0  0  0  0  0  0  0  0  0  0
   -3.5865    6.4373    7.8636 C   0  0  0  0  0  0  0  0  0  0  0  0
   -3.6242    7.3624    6.8711 N   0  0  0  0  0  0  0  0  0  0  0  0
   -2.8967    6.8360    5.8497 C   0  0  0  0  0  0  0  0  0  0  0  0
   -2.4158    5.6082    6.1991 C   0  0  0  0  0  0  0  0  0  0  0  0
   -2.8482    5.3428    7.4792 C   0  0  0  0  0  0  0  0  0  0  0  0
   -1.6175    4.8238    5.3265 C   0  0  0  0  0  0  0  0  0  0  0  0
   -1.1767    3.6497    5.7085 O   0  0  0  0  0  0  0  0  0  0  0  0
   -0.2532    2.7028    5.7080 C   0  0  0  0  0  0  0  0  0  0  0  0
   -0.6041    1.4817    6.4855 C   0  0  2  0  0  0  0  0  0  0  0  0
   -0.2594    1.5938    7.9557 C   0  0  0  0  0  0  0  0  0  0  0  0
    0.5147    0.4681    8.4166 N   0  0  0  0  0  4  0  0  0  0  0  0
    0.9925    0.6113    9.7590 C   0  0  0  0  0  0  0  0  0  0  0  0
   -0.1301    0.2431   10.7181 C   0  0  0  0  0  0  0  0  0  0  0  0
    2.1664   -0.2984   10.0586 C   0  0  0  0  0  0  0  0  0  0  0  0
    1.4134    2.0170   10.1060 C   0  0  0  0  0  0  0  0  0  0  0  0
   -0.1155    0.3377    5.9124 O   0  0  0  0  0  0  0  0  0  0  0  0
   -1.3704    5.4064    4.1021 C   0  0  0  0  0  0  0  0  0  0  0  0
   -1.8535    6.6576    3.7293 C   0  0  0  0  0  0  0  0  0  0  0  0
   -2.6204    7.3697    4.6145 C   0  0  0  0  0  0  0  0  0  0  0  0
  1  2  3  0
  2  3  1  0
  3  4  1  0
  4  5  1  0
  5  6  2  0
  6  7  1  0
  6  8  1  0
  8  9  1  0
  9 10  1  0
 10 11  1  0
 11 12  1  0
 12 13  1  0
 13 14  1  0
 14 15  1  0
 14 16  1  0
 14 17  1  0
 11 18  1  6
  8 19  2  0
 19 20  1  0
 20 21  2  0
  7  3  2  0
 21  5  1  0
M  CHG  1  13   1
M  END
$$$$
