
     RDKit          3D

 21 22  0  0  0  0  0  0  0  0999 V2000
   -4.6077    6.9076   10.2802 N   0  0  0  0  0  0  0  0  0  0  0  0
   -4.1726    6.8173    9.2218 C   0  0  0  0  0  0  0  0  0  0  0  0
   -3.6183    6.6808    7.8991 C   0  0  0  0  0  0  0  0  0  0  0  0
   -3.7443    7.5708    6.8822 N   0  0  0  0  0  0  0  0  0  0  0  0
   -3.0609    7.0335    5.8363 C   0  0  0  0  0  0  0  0  0  0  0  0
   -2.5204    5.8334    6.1948 C   0  0  0  0  0  0  0  0  0  0  0  0
   -2.8683    5.5975    7.5060 C   0  0  0  0  0  0  0  0  0  0  0  0
   -1.7492    5.0455    5.3013 C   0  0  0  0  0  0  0  0  0  0  0  0
   -1.2485    3.8989    5.6930 O   0  0  0  0  0  0  0  0  0  0  0  0
   -0.3680    2.9188    5.5759 C   0  0  0  0  0  0  0  0  0  0  0  0
   -0.6821    1.6939    6.3632 C   0  0  2  0  0  0  0  0  0  0  0  0
   -0.2882    1.8072    7.8209 C   0  0  0  0  0  0  0  0  0  0  0  0
    0.4330    0.6451    8.2776 N   0  0  0  0  0  4  0  0  0  0  0  0
    0.8116    0.7103    9.6573 C   0  0  0  0  0  0  0  0  0  0  0  0
    1.5944   -0.5466   10.0080 C   0  0  0  0  0  0  0  0  0  0  0  0
    1.6979    1.9007    9.9614 C   0  0  0  0  0  0  0  0  0  0  0  0
   -0.3596    0.7682   10.6051 C   0  0  0  0  0  0  0  0  0  0  0  0
   -0.2040    0.5547    5.7720 O   0  0  0  0  0  0  0  0  0  0  0  0
   -1.5932    5.5944    4.0467 C   0  0  0  0  0  0  0  0  0  0  0  0
   -2.1380    6.8171    3.6643 C   0  0  0  0  0  0  0  0  0  0  0  0
   -2.8748    7.5341    4.5708 C   0  0  0  0  0  0  0  0  0  0  0  0
  1  2  3  0
  2  3  1  0
  3  4  1  0
  4  5  1  0
  5  6  2  0
  6  7  1  0
  6  8  1  0
  8  9  1  0
  9 10  1  0
 10 11  1  0
 11 12  1  0
 12 13  1  0
 13 14  1  0
 14 15  1  0
 14 16  1  0
 14 17  1  0
 11 18  1  6
  8 19  2  0
 19 20  1  0
 20 21  2  0
  7  3  2  0
 21  5  1  0
M  CHG  1  13   1
M  END
$$$$
