
     RDKit          3D

 21 22  0  0  0  0  0  0  0  0999 V2000
   -4.9843    8.8297    9.4564 N   0  0  0  0  0  0  0  0  0  0  0  0
   -4.4684    8.1620    8.6782 C   0  0  0  0  0  0  0  0  0  0  0  0
   -3.7985    7.3322    7.7097 C   0  0  0  0  0  0  0  0  0  0  0  0
   -4.0730    7.2698    6.3820 N   0  0  0  0  0  0  0  0  0  0  0  0
   -3.1959    6.3668    5.8671 C   0  0  0  0  0  0  0  0  0  0  0  0
   -2.3918    5.8770    6.8542 C   0  0  0  0  0  0  0  0  0  0  0  0
   -2.7656    6.4838    8.0323 C   0  0  0  0  0  0  0  0  0  0  0  0
   -1.3769    4.9165    6.6065 C   0  0  0  0  0  0  0  0  0  0  0  0
   -0.6275    4.4769    7.5883 O   0  0  0  0  0  0  0  0  0  0  0  0
   -0.0476    3.4897    8.2505 C   0  0  0  0  0  0  0  0  0  0  0  0
   -0.4603    2.1219    7.8288 C   0  0  2  0  0  0  0  0  0  0  0  0
   -0.3025    1.0892    8.9250 C   0  0  0  0  0  0  0  0  0  0  0  0
    0.4016   -0.0824    8.4662 N   0  0  0  0  0  4  0  0  0  0  0  0
    0.8500   -0.9343    9.5265 C   0  0  0  0  0  0  0  0  0  0  0  0
    1.6759   -0.1070   10.5007 C   0  0  0  0  0  0  0  0  0  0  0  0
   -0.2965   -1.5469   10.3047 C   0  0  0  0  0  0  0  0  0  0  0  0
    1.7334   -2.0650    9.0632 C   0  0  0  0  0  0  0  0  0  0  0  0
    0.1245    1.7383    6.6512 O   0  0  0  0  0  0  0  0  0  0  0  0
   -1.2735    4.5234    5.2895 C   0  0  0  0  0  0  0  0  0  0  0  0
   -2.0857    5.0127    4.2703 C   0  0  0  0  0  0  0  0  0  0  0  0
   -3.0501    5.9395    4.5698 C   0  0  0  0  0  0  0  0  0  0  0  0
  1  2  3  0
  2  3  1  0
  3  4  1  0
  4  5  1  0
  5  6  2  0
  6  7  1  0
  6  8  1  0
  8  9  1  0
  9 10  1  0
 10 11  1  0
 11 12  1  0
 12 13  1  0
 13 14  1  0
 14 15  1  0
 14 16  1  0
 14 17  1  0
 11 18  1  6
  8 19  2  0
 19 20  1  0
 20 21  2  0
  7  3  2  0
 21  5  1  0
M  CHG  1  13   1
M  END
$$$$
