
     RDKit          3D

 21 22  0  0  0  0  0  0  0  0999 V2000
   -4.3401    7.1841   10.4715 N   0  0  0  0  0  0  0  0  0  0  0  0
   -3.9645    6.9140    9.4210 C   0  0  0  0  0  0  0  0  0  0  0  0
   -3.4723    6.5882    8.1069 C   0  0  0  0  0  0  0  0  0  0  0  0
   -3.5855    7.3589    6.9955 N   0  0  0  0  0  0  0  0  0  0  0  0
   -2.9773    6.6602    5.9997 C   0  0  0  0  0  0  0  0  0  0  0  0
   -2.4952    5.4784    6.4814 C   0  0  0  0  0  0  0  0  0  0  0  0
   -2.8042    5.4206    7.8220 C   0  0  0  0  0  0  0  0  0  0  0  0
   -1.8083    4.5436    5.6641 C   0  0  0  0  0  0  0  0  0  0  0  0
   -1.3615    3.4213    6.1736 O   0  0  0  0  0  0  0  0  0  0  0  0
   -1.1084    2.1264    6.0802 C   0  0  0  0  0  0  0  0  0  0  0  0
   -0.0161    1.6338    6.9651 C   0  0  2  0  0  0  0  0  0  0  0  0
   -0.4193    1.5615    8.4229 C   0  0  0  0  0  0  0  0  0  0  0  0
    0.0403    0.3479    9.0512 N   0  0  0  0  0  4  0  0  0  0  0  0
   -0.3328    0.2383   10.4295 C   0  0  0  0  0  0  0  0  0  0  0  0
   -0.1410   -1.2045   10.8735 C   0  0  0  0  0  0  0  0  0  0  0  0
    0.5148    1.1109   11.3325 C   0  0  0  0  0  0  0  0  0  0  0  0
   -1.7760    0.5841   10.6962 C   0  0  0  0  0  0  0  0  0  0  0  0
    1.1588    2.3111    6.7733 O   0  0  0  0  0  0  0  0  0  0  0  0
   -1.6700    4.9304    4.3485 C   0  0  0  0  0  0  0  0  0  0  0  0
   -2.1559    6.1320    3.8404 C   0  0  0  0  0  0  0  0  0  0  0  0
   -2.8122    6.9959    4.6781 C   0  0  0  0  0  0  0  0  0  0  0  0
  1  2  3  0
  2  3  1  0
  3  4  1  0
  4  5  1  0
  5  6  2  0
  6  7  1  0
  6  8  1  0
  8  9  1  0
  9 10  1  0
 10 11  1  0
 11 12  1  0
 12 13  1  0
 13 14  1  0
 14 15  1  0
 14 16  1  0
 14 17  1  0
 11 18  1  1
  8 19  2  0
 19 20  1  0
 20 21  2  0
  7  3  2  0
 21  5  1  0
M  CHG  1  13   1
M  END
$$$$
