
     RDKit          3D

 21 22  0  0  0  0  0  0  0  0999 V2000
   -5.3200    7.8540    9.7790 N   0  0  0  0  0  0  0  0  0  0  0  0
   -4.7236    7.4156    8.9017 C   0  0  0  0  0  0  0  0  0  0  0  0
   -3.9904    6.8775    7.7845 C   0  0  0  0  0  0  0  0  0  0  0  0
   -4.0072    7.3509    6.5126 N   0  0  0  0  0  0  0  0  0  0  0  0
   -3.1701    6.5430    5.8082 C   0  0  0  0  0  0  0  0  0  0  0  0
   -2.6428    5.5860    6.6250 C   0  0  0  0  0  0  0  0  0  0  0  0
   -3.1575    5.7881    7.8860 C   0  0  0  0  0  0  0  0  0  0  0  0
   -1.7309    4.6029    6.1603 C   0  0  0  0  0  0  0  0  0  0  0  0
   -1.2494    3.7043    6.9845 O   0  0  0  0  0  0  0  0  0  0  0  0
   -0.2685    2.9193    7.3982 C   0  0  0  0  0  0  0  0  0  0  0  0
   -0.6070    2.0478    8.5578 C   0  0  2  0  0  0  0  0  0  0  0  0
    0.0706    0.6947    8.5020 C   0  0  0  0  0  0  0  0  0  0  0  0
    0.8044    0.4077    9.7095 N   0  0  0  0  0  4  0  0  0  0  0  0
    1.5851   -0.7907    9.6354 C   0  0  0  0  0  0  0  0  0  0  0  0
    2.4752   -0.8698   10.8671 C   0  0  0  0  0  0  0  0  0  0  0  0
    0.7300   -2.0410    9.6083 C   0  0  0  0  0  0  0  0  0  0  0  0
    2.4993   -0.8455    8.4376 C   0  0  0  0  0  0  0  0  0  0  0  0
   -1.9575    1.9558    8.7670 O   0  0  0  0  0  0  0  0  0  0  0  0
   -1.4247    4.6979    4.8199 C   0  0  0  0  0  0  0  0  0  0  0  0
   -1.9537    5.6675    3.9725 C   0  0  0  0  0  0  0  0  0  0  0  0
   -2.8309    6.5914    4.4781 C   0  0  0  0  0  0  0  0  0  0  0  0
  1  2  3  0
  2  3  1  0
  3  4  1  0
  4  5  1  0
  5  6  2  0
  6  7  1  0
  6  8  1  0
  8  9  1  0
  9 10  1  0
 10 11  1  0
 11 12  1  0
 12 13  1  0
 13 14  1  0
 14 15  1  0
 14 16  1  0
 14 17  1  0
 11 18  1  6
  8 19  2  0
 19 20  1  0
 20 21  2  0
  7  3  2  0
 21  5  1  0
M  CHG  1  13   1
M  END
$$$$
