
     RDKit          3D

 21 22  0  0  0  0  0  0  0  0999 V2000
   -4.1188    6.9222   10.5616 N   0  0  0  0  0  0  0  0  0  0  0  0
   -3.8078    6.6997    9.4793 C   0  0  0  0  0  0  0  0  0  0  0  0
   -3.3935    6.4223    8.1278 C   0  0  0  0  0  0  0  0  0  0  0  0
   -3.5003    7.2642    7.0686 N   0  0  0  0  0  0  0  0  0  0  0  0
   -2.9823    6.5886    6.0079 C   0  0  0  0  0  0  0  0  0  0  0  0
   -2.5615    5.3512    6.3989 C   0  0  0  0  0  0  0  0  0  0  0  0
   -2.8179    5.2331    7.7466 C   0  0  0  0  0  0  0  0  0  0  0  0
   -1.9735    4.4247    5.4991 C   0  0  0  0  0  0  0  0  0  0  0  0
   -1.5827    3.2472    5.9228 O   0  0  0  0  0  0  0  0  0  0  0  0
   -1.1971    2.0029    5.6935 C   0  0  0  0  0  0  0  0  0  0  0  0
   -0.2013    1.4646    6.6618 C   0  0  2  0  0  0  0  0  0  0  0  0
   -0.6937    1.4849    8.0936 C   0  0  0  0  0  0  0  0  0  0  0  0
    0.0387    0.5668    8.9300 N   0  0  0  0  0  4  0  0  0  0  0  0
   -0.4461    0.5052   10.2762 C   0  0  0  0  0  0  0  0  0  0  0  0
   -0.0320    1.7767   11.0024 C   0  0  0  0  0  0  0  0  0  0  0  0
   -1.9564    0.4098   10.3465 C   0  0  0  0  0  0  0  0  0  0  0  0
    0.1144   -0.6477   11.0701 C   0  0  0  0  0  0  0  0  0  0  0  0
    1.0331    2.0402    6.5178 O   0  0  0  0  0  0  0  0  0  0  0  0
   -1.8640    4.8801    4.2029 C   0  0  0  0  0  0  0  0  0  0  0  0
   -2.2884    6.1390    3.7870 C   0  0  0  0  0  0  0  0  0  0  0  0
   -2.8498    6.9918    4.7016 C   0  0  0  0  0  0  0  0  0  0  0  0
  1  2  3  0
  2  3  1  0
  3  4  1  0
  4  5  1  0
  5  6  2  0
  6  7  1  0
  6  8  1  0
  8  9  1  0
  9 10  1  0
 10 11  1  0
 11 12  1  0
 12 13  1  0
 13 14  1  0
 14 15  1  0
 14 16  1  0
 14 17  1  0
 11 18  1  1
  8 19  2  0
 19 20  1  0
 20 21  2  0
  7  3  2  0
 21  5  1  0
M  CHG  1  13   1
M  END
$$$$
