
     RDKit          3D

 21 22  0  0  0  0  0  0  0  0999 V2000
   -4.9984    7.3132   10.2001 N   0  0  0  0  0  0  0  0  0  0  0  0
   -4.5097    7.0857    9.1867 C   0  0  0  0  0  0  0  0  0  0  0  0
   -3.8737    6.8006    7.9260 C   0  0  0  0  0  0  0  0  0  0  0  0
   -3.7549    7.6545    6.8777 N   0  0  0  0  0  0  0  0  0  0  0  0
   -3.0856    6.9648    5.9154 C   0  0  0  0  0  0  0  0  0  0  0  0
   -2.7936    5.7071    6.3556 C   0  0  0  0  0  0  0  0  0  0  0  0
   -3.2903    5.5901    7.6345 C   0  0  0  0  0  0  0  0  0  0  0  0
   -2.0946    4.7623    5.5601 C   0  0  0  0  0  0  0  0  0  0  0  0
   -1.8354    3.5655    6.0282 O   0  0  0  0  0  0  0  0  0  0  0  0
   -1.9280    2.2480    5.9554 C   0  0  0  0  0  0  0  0  0  0  0  0
   -0.6971    1.5083    6.3511 C   0  0  2  0  0  0  0  0  0  0  0  0
   -0.2947    1.7513    7.7905 C   0  0  0  0  0  0  0  0  0  0  0  0
    0.3122    0.5868    8.3859 N   0  0  0  0  0  4  0  0  0  0  0  0
    0.6346    0.7525    9.7714 C   0  0  0  0  0  0  0  0  0  0  0  0
    1.8118    1.7098    9.8870 C   0  0  0  0  0  0  0  0  0  0  0  0
   -0.5120    1.3394   10.5690 C   0  0  0  0  0  0  0  0  0  0  0  0
    1.0490   -0.5262   10.4545 C   0  0  0  0  0  0  0  0  0  0  0  0
    0.3355    1.7022    5.4723 O   0  0  0  0  0  0  0  0  0  0  0  0
   -1.7373    5.2224    4.3110 C   0  0  0  0  0  0  0  0  0  0  0  0
   -2.0275    6.5021    3.8460 C   0  0  0  0  0  0  0  0  0  0  0  0
   -2.7060    7.3718    4.6596 C   0  0  0  0  0  0  0  0  0  0  0  0
  1  2  3  0
  2  3  1  0
  3  4  1  0
  4  5  1  0
  5  6  2  0
  6  7  1  0
  6  8  1  0
  8  9  1  0
  9 10  1  0
 10 11  1  0
 11 12  1  0
 12 13  1  0
 13 14  1  0
 14 15  1  0
 14 16  1  0
 14 17  1  0
 11 18  1  6
  8 19  2  0
 19 20  1  0
 20 21  2  0
  7  3  2  0
 21  5  1  0
M  CHG  1  13   1
M  END
$$$$
