
     RDKit          3D

 21 22  0  0  0  0  0  0  0  0999 V2000
   -5.4194    7.5056    9.9737 N   0  0  0  0  0  0  0  0  0  0  0  0
   -4.8178    7.2228    9.0379 C   0  0  0  0  0  0  0  0  0  0  0  0
   -4.0821    6.8751    7.8492 C   0  0  0  0  0  0  0  0  0  0  0  0
   -4.1115    7.5395    6.6661 N   0  0  0  0  0  0  0  0  0  0  0  0
   -3.2663    6.8629    5.8430 C   0  0  0  0  0  0  0  0  0  0  0  0
   -2.7217    5.7988    6.5004 C   0  0  0  0  0  0  0  0  0  0  0  0
   -3.2334    5.7956    7.7787 C   0  0  0  0  0  0  0  0  0  0  0  0
   -1.7981    4.9131    5.8869 C   0  0  0  0  0  0  0  0  0  0  0  0
   -1.3001    3.9048    6.5608 O   0  0  0  0  0  0  0  0  0  0  0  0
   -0.3225    3.0505    6.8137 C   0  0  0  0  0  0  0  0  0  0  0  0
   -0.6282    2.0375    7.8621 C   0  0  2  0  0  0  0  0  0  0  0  0
    0.5911    1.2593    8.3101 C   0  0  0  0  0  0  0  0  0  0  0  0
    0.2467    0.1851    9.2080 N   0  0  0  0  0  4  0  0  0  0  0  0
    1.3834   -0.5036    9.7415 C   0  0  0  0  0  0  0  0  0  0  0  0
    2.1934   -1.0751    8.5870 C   0  0  0  0  0  0  0  0  0  0  0  0
    2.2972    0.4089   10.5335 C   0  0  0  0  0  0  0  0  0  0  0  0
    1.0247   -1.6649   10.6339 C   0  0  0  0  0  0  0  0  0  0  0  0
   -1.6768    1.2267    7.5168 O   0  0  0  0  0  0  0  0  0  0  0  0
   -1.4994    5.2191    4.5766 C   0  0  0  0  0  0  0  0  0  0  0  0
   -2.0461    6.3003    3.8909 C   0  0  0  0  0  0  0  0  0  0  0  0
   -2.9339    7.1217    4.5357 C   0  0  0  0  0  0  0  0  0  0  0  0
  1  2  3  0
  2  3  1  0
  3  4  1  0
  4  5  1  0
  5  6  2  0
  6  7  1  0
  6  8  1  0
  8  9  1  0
  9 10  1  0
 10 11  1  0
 11 12  1  0
 12 13  1  0
 13 14  1  0
 14 15  1  0
 14 16  1  0
 14 17  1  0
 11 18  1  6
  8 19  2  0
 19 20  1  0
 20 21  2  0
  7  3  2  0
 21  5  1  0
M  CHG  1  13   1
M  END
$$$$
