
     RDKit          3D

 21 22  0  0  0  0  0  0  0  0999 V2000
   -4.7486    8.1198   10.0442 N   0  0  0  0  0  0  0  0  0  0  0  0
   -4.2562    7.6725    9.1088 C   0  0  0  0  0  0  0  0  0  0  0  0
   -3.6373    7.1341    7.9246 C   0  0  0  0  0  0  0  0  0  0  0  0
   -3.6234    7.7101    6.6957 N   0  0  0  0  0  0  0  0  0  0  0  0
   -2.9279    6.8566    5.8972 C   0  0  0  0  0  0  0  0  0  0  0  0
   -2.5172    5.7713    6.6144 C   0  0  0  0  0  0  0  0  0  0  0  0
   -2.9628    5.9360    7.9068 C   0  0  0  0  0  0  0  0  0  0  0  0
   -1.7655    4.7146    6.0379 C   0  0  0  0  0  0  0  0  0  0  0  0
   -1.3917    3.6925    6.7690 O   0  0  0  0  0  0  0  0  0  0  0  0
   -0.8479    2.4930    6.8913 C   0  0  0  0  0  0  0  0  0  0  0  0
    0.4394    2.4596    7.6400 C   0  0  2  0  0  0  0  0  0  0  0  0
    0.3253    1.7793    8.9880 C   0  0  0  0  0  0  0  0  0  0  0  0
    0.4997    0.3514    8.8891 N   0  0  0  0  0  4  0  0  0  0  0  0
    0.3776   -0.3298   10.1429 C   0  0  0  0  0  0  0  0  0  0  0  0
   -0.3861    0.5625   11.1105 C   0  0  0  0  0  0  0  0  0  0  0  0
   -0.3850   -1.6336   10.0245 C   0  0  0  0  0  0  0  0  0  0  0  0
    1.7010   -0.6410   10.7951 C   0  0  0  0  0  0  0  0  0  0  0  0
    1.0325    3.6918    7.7169 O   0  0  0  0  0  0  0  0  0  0  0  0
   -1.4868    4.8784    4.6981 C   0  0  0  0  0  0  0  0  0  0  0  0
   -1.8984    5.9790    3.9514 C   0  0  0  0  0  0  0  0  0  0  0  0
   -2.6228    6.9691    4.5627 C   0  0  0  0  0  0  0  0  0  0  0  0
  1  2  3  0
  2  3  1  0
  3  4  1  0
  4  5  1  0
  5  6  2  0
  6  7  1  0
  6  8  1  0
  8  9  1  0
  9 10  1  0
 10 11  1  0
 11 12  1  0
 12 13  1  0
 13 14  1  0
 14 15  1  0
 14 16  1  0
 14 17  1  0
 11 18  1  1
  8 19  2  0
 19 20  1  0
 20 21  2  0
  7  3  2  0
 21  5  1  0
M  CHG  1  13   1
M  END
$$$$
