
     RDKit          3D

 21 22  0  0  0  0  0  0  0  0999 V2000
   -5.0982    7.8235   10.2747 N   0  0  0  0  0  0  0  0  0  0  0  0
   -4.5741    7.4111    9.3404 C   0  0  0  0  0  0  0  0  0  0  0  0
   -3.9181    6.9162    8.1572 C   0  0  0  0  0  0  0  0  0  0  0  0
   -4.1221    7.3502    6.8875 N   0  0  0  0  0  0  0  0  0  0  0  0
   -3.2909    6.6086    6.1072 C   0  0  0  0  0  0  0  0  0  0  0  0
   -2.5839    5.7307    6.8755 C   0  0  0  0  0  0  0  0  0  0  0  0
   -2.9743    5.9166    8.1828 C   0  0  0  0  0  0  0  0  0  0  0  0
   -1.6349    4.8288    6.3279 C   0  0  0  0  0  0  0  0  0  0  0  0
   -0.9781    4.0046    7.1078 O   0  0  0  0  0  0  0  0  0  0  0  0
    0.0234    3.1694    7.3292 C   0  0  0  0  0  0  0  0  0  0  0  0
    0.1583    2.7091    8.7394 C   0  0  2  0  0  0  0  0  0  0  0  0
   -0.3233    1.2889    8.9496 C   0  0  0  0  0  0  0  0  0  0  0  0
    0.7713    0.3548    9.0390 N   0  0  0  0  0  4  0  0  0  0  0  0
    0.3531   -1.0099    9.1559 C   0  0  0  0  0  0  0  0  0  0  0  0
    0.0592   -1.3062   10.6193 C   0  0  0  0  0  0  0  0  0  0  0  0
   -0.9079   -1.3012    8.3683 C   0  0  0  0  0  0  0  0  0  0  0  0
    1.3977   -2.0040    8.7153 C   0  0  0  0  0  0  0  0  0  0  0  0
   -0.3885    3.5916    9.6328 O   0  0  0  0  0  0  0  0  0  0  0  0
   -1.4891    4.9158    4.9602 C   0  0  0  0  0  0  0  0  0  0  0  0
   -2.2025    5.8052    4.1614 C   0  0  0  0  0  0  0  0  0  0  0  0
   -3.1067    6.6529    4.7467 C   0  0  0  0  0  0  0  0  0  0  0  0
  1  2  3  0
  2  3  1  0
  3  4  1  0
  4  5  1  0
  5  6  2  0
  6  7  1  0
  6  8  1  0
  8  9  1  0
  9 10  1  0
 10 11  1  0
 11 12  1  0
 12 13  1  0
 13 14  1  0
 14 15  1  0
 14 16  1  0
 14 17  1  0
 11 18  1  1
  8 19  2  0
 19 20  1  0
 20 21  2  0
  7  3  2  0
 21  5  1  0
M  CHG  1  13   1
M  END
$$$$
