
     RDKit          3D

 21 22  0  0  0  0  0  0  0  0999 V2000
   -4.9773    6.5807   10.1492 N   0  0  0  0  0  0  0  0  0  0  0  0
   -4.4853    6.4557    9.1196 C   0  0  0  0  0  0  0  0  0  0  0  0
   -3.8487    6.2868    7.8385 C   0  0  0  0  0  0  0  0  0  0  0  0
   -4.0122    7.0832    6.7517 N   0  0  0  0  0  0  0  0  0  0  0  0
   -3.2202    6.5506    5.7828 C   0  0  0  0  0  0  0  0  0  0  0  0
   -2.5767    5.4451    6.2567 C   0  0  0  0  0  0  0  0  0  0  0  0
   -2.9686    5.2665    7.5646 C   0  0  0  0  0  0  0  0  0  0  0  0
   -1.6795    4.6844    5.4628 C   0  0  0  0  0  0  0  0  0  0  0  0
   -1.0829    3.6299    5.9639 O   0  0  0  0  0  0  0  0  0  0  0  0
   -0.0551    2.7996    6.0238 C   0  0  0  0  0  0  0  0  0  0  0  0
   -0.2730    1.5889    6.8637 C   0  0  2  0  0  0  0  0  0  0  0  0
    0.6343    1.5348    8.0749 C   0  0  0  0  0  0  0  0  0  0  0  0
    0.4196    0.3435    8.8582 N   0  0  0  0  0  4  0  0  0  0  0  0
    1.2493    0.2652   10.0229 C   0  0  0  0  0  0  0  0  0  0  0  0
    0.8547    1.3816   10.9787 C   0  0  0  0  0  0  0  0  0  0  0  0
    1.0906   -1.0474   10.7627 C   0  0  0  0  0  0  0  0  0  0  0  0
    2.7184    0.4432    9.7337 C   0  0  0  0  0  0  0  0  0  0  0  0
   -0.2482    0.4319    6.1311 O   0  0  0  0  0  0  0  0  0  0  0  0
   -1.5143    5.1565    4.1785 C   0  0  0  0  0  0  0  0  0  0  0  0
   -2.1631    6.2822    3.6788 C   0  0  0  0  0  0  0  0  0  0  0  0
   -3.0194    6.9773    4.4927 C   0  0  0  0  0  0  0  0  0  0  0  0
  1  2  3  0
  2  3  1  0
  3  4  1  0
  4  5  1  0
  5  6  2  0
  6  7  1  0
  6  8  1  0
  8  9  1  0
  9 10  1  0
 10 11  1  0
 11 12  1  0
 12 13  1  0
 13 14  1  0
 14 15  1  0
 14 16  1  0
 14 17  1  0
 11 18  1  6
  8 19  2  0
 19 20  1  0
 20 21  2  0
  7  3  2  0
 21  5  1  0
M  CHG  1  13   1
M  END
$$$$
