
     RDKit          3D

 21 22  0  0  0  0  0  0  0  0999 V2000
   -4.9615    6.6063   10.1771 N   0  0  0  0  0  0  0  0  0  0  0  0
   -4.5145    6.5016    9.1250 C   0  0  0  0  0  0  0  0  0  0  0  0
   -3.9362    6.3873    7.8106 C   0  0  0  0  0  0  0  0  0  0  0  0
   -4.0415    7.2956    6.8075 N   0  0  0  0  0  0  0  0  0  0  0  0
   -3.3400    6.7754    5.7650 C   0  0  0  0  0  0  0  0  0  0  0  0
   -2.8087    5.5678    6.1119 C   0  0  0  0  0  0  0  0  0  0  0  0
   -3.1812    5.3094    7.4121 C   0  0  0  0  0  0  0  0  0  0  0  0
   -2.0227    4.7941    5.2189 C   0  0  0  0  0  0  0  0  0  0  0  0
   -1.5317    3.6395    5.5992 O   0  0  0  0  0  0  0  0  0  0  0  0
   -0.6220    2.6830    5.5144 C   0  0  0  0  0  0  0  0  0  0  0  0
   -0.8670    1.5028    6.3895 C   0  0  2  0  0  0  0  0  0  0  0  0
   -0.4167    1.7192    7.8189 C   0  0  0  0  0  0  0  0  0  0  0  0
    0.4618    0.6701    8.2734 N   0  0  0  0  0  4  0  0  0  0  0  0
    0.8912    0.8288    9.6304 C   0  0  0  0  0  0  0  0  0  0  0  0
    1.5007    2.2140    9.7902 C   0  0  0  0  0  0  0  0  0  0  0  0
   -0.2512    0.7153   10.6189 C   0  0  0  0  0  0  0  0  0  0  0  0
    1.9493   -0.1597   10.0510 C   0  0  0  0  0  0  0  0  0  0  0  0
   -0.3803    0.3415    5.8507 O   0  0  0  0  0  0  0  0  0  0  0  0
   -1.8426    5.3648    3.9773 C   0  0  0  0  0  0  0  0  0  0  0  0
   -2.3777    6.5954    3.6068 C   0  0  0  0  0  0  0  0  0  0  0  0
   -3.1296    7.2980    4.5122 C   0  0  0  0  0  0  0  0  0  0  0  0
  1  2  3  0
  2  3  1  0
  3  4  1  0
  4  5  1  0
  5  6  2  0
  6  7  1  0
  6  8  1  0
  8  9  1  0
  9 10  1  0
 10 11  1  0
 11 12  1  0
 12 13  1  0
 13 14  1  0
 14 15  1  0
 14 16  1  0
 14 17  1  0
 11 18  1  6
  8 19  2  0
 19 20  1  0
 20 21  2  0
  7  3  2  0
 21  5  1  0
M  CHG  1  13   1
M  END
$$$$
