
     RDKit          3D

 21 22  0  0  0  0  0  0  0  0999 V2000
   -4.7177    6.6448   10.3940 N   0  0  0  0  0  0  0  0  0  0  0  0
   -4.2314    6.5042    9.3637 C   0  0  0  0  0  0  0  0  0  0  0  0
   -3.6054    6.3109    8.0808 C   0  0  0  0  0  0  0  0  0  0  0  0
   -3.5298    7.2253    7.0806 N   0  0  0  0  0  0  0  0  0  0  0  0
   -2.8530    6.6127    6.0725 C   0  0  0  0  0  0  0  0  0  0  0  0
   -2.5141    5.3428    6.4376 C   0  0  0  0  0  0  0  0  0  0  0  0
   -2.9877    5.1384    7.7143 C   0  0  0  0  0  0  0  0  0  0  0  0
   -1.7969    4.4674    5.5813 C   0  0  0  0  0  0  0  0  0  0  0  0
   -1.4923    3.2555    5.9781 O   0  0  0  0  0  0  0  0  0  0  0  0
   -1.4825    1.9454    5.7967 C   0  0  0  0  0  0  0  0  0  0  0  0
   -0.2730    1.2477    6.3154 C   0  0  2  0  0  0  0  0  0  0  0  0
    0.0766    1.6408    7.7354 C   0  0  0  0  0  0  0  0  0  0  0  0
    0.6963    0.5584    8.4587 N   0  0  0  0  0  4  0  0  0  0  0  0
    0.9991    0.8780    9.8215 C   0  0  0  0  0  0  0  0  0  0  0  0
   -0.2164    1.5464   10.4473 C   0  0  0  0  0  0  0  0  0  0  0  0
    1.3222   -0.3494   10.6487 C   0  0  0  0  0  0  0  0  0  0  0  0
    2.1492    1.8405    9.9773 C   0  0  0  0  0  0  0  0  0  0  0  0
    0.7934    1.3436    5.4613 O   0  0  0  0  0  0  0  0  0  0  0  0
   -1.4732    5.0078    4.3554 C   0  0  0  0  0  0  0  0  0  0  0  0
   -1.8114    6.3011    3.9667 C   0  0  0  0  0  0  0  0  0  0  0  0
   -2.5055    7.1013    4.8367 C   0  0  0  0  0  0  0  0  0  0  0  0
  1  2  3  0
  2  3  1  0
  3  4  1  0
  4  5  1  0
  5  6  2  0
  6  7  1  0
  6  8  1  0
  8  9  1  0
  9 10  1  0
 10 11  1  0
 11 12  1  0
 12 13  1  0
 13 14  1  0
 14 15  1  0
 14 16  1  0
 14 17  1  0
 11 18  1  6
  8 19  2  0
 19 20  1  0
 20 21  2  0
  7  3  2  0
 21  5  1  0
M  CHG  1  13   1
M  END
$$$$
