
     RDKit          3D

 21 22  0  0  0  0  0  0  0  0999 V2000
   -4.9275    6.4506   10.1494 N   0  0  0  0  0  0  0  0  0  0  0  0
   -4.4523    6.3847    9.1066 C   0  0  0  0  0  0  0  0  0  0  0  0
   -3.8573    6.2768    7.7991 C   0  0  0  0  0  0  0  0  0  0  0  0
   -4.0173    7.1495    6.7719 N   0  0  0  0  0  0  0  0  0  0  0  0
   -3.2735    6.6523    5.7476 C   0  0  0  0  0  0  0  0  0  0  0  0
   -2.6629    5.4936    6.1292 C   0  0  0  0  0  0  0  0  0  0  0  0
   -3.0268    5.2437    7.4335 C   0  0  0  0  0  0  0  0  0  0  0  0
   -1.8186    4.7533    5.2616 C   0  0  0  0  0  0  0  0  0  0  0  0
   -1.2521    3.6456    5.6750 O   0  0  0  0  0  0  0  0  0  0  0  0
   -0.3636    2.6761    5.5333 C   0  0  0  0  0  0  0  0  0  0  0  0
   -0.6187    1.4637    6.3603 C   0  0  2  0  0  0  0  0  0  0  0  0
   -0.1681    1.6191    7.7975 C   0  0  0  0  0  0  0  0  0  0  0  0
    0.3197    0.3790    8.3481 N   0  0  0  0  0  4  0  0  0  0  0  0
    0.7405    0.4832    9.7130 C   0  0  0  0  0  0  0  0  0  0  0  0
   -0.4908    0.6480   10.5918 C   0  0  0  0  0  0  0  0  0  0  0  0
    1.4803   -0.7502   10.1892 C   0  0  0  0  0  0  0  0  0  0  0  0
    1.6274    1.6720    9.9849 C   0  0  0  0  0  0  0  0  0  0  0  0
   -0.1405    0.3211    5.7757 O   0  0  0  0  0  0  0  0  0  0  0  0
   -1.6686    5.3030    4.0066 C   0  0  0  0  0  0  0  0  0  0  0  0
   -2.2844    6.4837    3.6007 C   0  0  0  0  0  0  0  0  0  0  0  0
   -3.0899    7.1557    4.4828 C   0  0  0  0  0  0  0  0  0  0  0  0
  1  2  3  0
  2  3  1  0
  3  4  1  0
  4  5  1  0
  5  6  2  0
  6  7  1  0
  6  8  1  0
  8  9  1  0
  9 10  1  0
 10 11  1  0
 11 12  1  0
 12 13  1  0
 13 14  1  0
 14 15  1  0
 14 16  1  0
 14 17  1  0
 11 18  1  6
  8 19  2  0
 19 20  1  0
 20 21  2  0
  7  3  2  0
 21  5  1  0
M  CHG  1  13   1
M  END
$$$$
