
     RDKit          3D

 27 30  0  0  0  0  0  0  0  0999 V2000
    1.5330   -0.1149   10.8461 C   0  0  0  0  0  0  0  0  0  0  0  0
    0.1768   -0.7250   10.6967 C   0  0  0  0  0  0  0  0  0  0  0  0
    0.0399   -1.7392    9.5976 C   0  0  0  0  0  0  0  0  0  0  0  0
    0.6006   -3.0628    9.9588 C   0  0  0  0  0  0  0  0  0  0  0  0
    1.7767   -3.2282   10.6586 C   0  0  0  0  0  0  0  0  0  0  0  0
    2.3144   -4.4390   11.0068 C   0  0  0  0  0  0  0  0  0  0  0  0
    1.6484   -5.5839   10.6412 C   0  0  0  0  0  0  0  0  0  0  0  0
    0.4663   -5.4890    9.9396 C   0  0  0  0  0  0  0  0  0  0  0  0
   -0.0501   -4.2503    9.6034 C   0  0  0  0  0  0  0  0  0  0  0  0
    2.2948   -7.1489   11.0625 Cl  0  0  0  0  0  0  0  0  0  0  0  0
    0.5751   -1.2811    8.2977 C   0  0  0  0  0  0  0  0  0  0  0  0
    1.5370   -1.9476    7.8316 O   0  0  0  0  0  0  0  0  0  0  0  0
    0.0774   -0.1690    7.5759 N   0  0  0  0  0  0  0  0  0  0  0  0
   -1.0283    0.5917    8.1410 C   0  0  0  0  0  0  0  0  0  0  0  0
   -2.1589    0.5978    7.1351 C   0  0  0  0  0  0  0  0  0  0  0  0
   -1.6453    1.4337    5.9739 C   0  0  0  0  0  0  0  0  0  0  0  0
   -0.4153    0.8573    5.3756 C   0  0  0  0  0  0  0  0  0  0  0  0
    0.5790    0.2727    6.3134 C   0  0  0  0  0  0  0  0  0  0  0  0
   -2.6755    1.3766    4.9757 O   0  0  0  0  0  0  0  0  0  0  0  0
   -3.0060    2.6713    4.6042 C   0  0  0  0  0  0  0  0  0  0  0  0
   -3.8311    3.1962    3.6323 C   0  0  0  0  0  0  0  0  0  0  0  0
   -3.9617    4.5528    3.4993 C   0  0  0  0  0  0  0  0  0  0  0  0
   -3.2892    5.4156    4.3128 C   0  0  0  0  0  0  0  0  0  0  0  0
   -2.4558    4.8834    5.2946 C   0  0  0  0  0  0  0  0  0  0  0  0
   -2.3229    3.5168    5.4300 C   0  0  0  0  0  0  0  0  0  0  0  0
   -1.5600    2.7818    6.3246 O   0  0  0  0  0  0  0  0  0  0  0  0
   -0.2544   -1.2109   11.9725 N   0  0  0  0  0  0  0  0  0  0  0  0
  1  2  1  0
  2  3  1  0
  3  4  1  0
  4  5  2  0
  5  6  1  0
  6  7  2  0
  7  8  1  0
  8  9  2  0
  7 10  1  0
  3 11  1  0
 11 12  2  0
 11 13  1  0
 13 14  1  0
 14 15  1  0
 15 16  1  0
 16 17  1  0
 17 18  1  0
 16 19  1  0
 19 20  1  0
 20 21  2  0
 21 22  1  0
 22 23  2  0
 23 24  1  0
 24 25  2  0
 25 26  1  0
  2 27  1  0
  9  4  1  0
 18 13  1  0
 26 16  1  0
 25 20  1  0
M  END
$$$$
