
     RDKit          3D

 27 30  0  0  0  0  0  0  0  0999 V2000
   -1.5355   -2.0955    5.1074 C   0  0  0  0  0  0  0  0  0  0  0  0
   -0.8969   -0.7459    5.0421 C   0  0  0  0  0  0  0  0  0  0  0  0
   -1.8427    0.4205    5.0657 C   0  0  0  0  0  0  0  0  0  0  0  0
   -2.8169    0.3979    3.9490 C   0  0  0  0  0  0  0  0  0  0  0  0
   -2.4538    0.3359    2.6205 C   0  0  0  0  0  0  0  0  0  0  0  0
   -3.3337    0.3111    1.5710 C   0  0  0  0  0  0  0  0  0  0  0  0
   -4.6804    0.3502    1.8407 C   0  0  0  0  0  0  0  0  0  0  0  0
   -5.1111    0.4128    3.1481 C   0  0  0  0  0  0  0  0  0  0  0  0
   -4.1962    0.4363    4.1856 C   0  0  0  0  0  0  0  0  0  0  0  0
   -5.8390    0.3209    0.5363 Cl  0  0  0  0  0  0  0  0  0  0  0  0
   -1.1649    1.7323    5.1425 C   0  0  0  0  0  0  0  0  0  0  0  0
   -0.1294    1.8602    4.4368 O   0  0  0  0  0  0  0  0  0  0  0  0
   -1.6067    2.8143    5.9422 N   0  0  0  0  0  0  0  0  0  0  0  0
   -0.9714    4.1134    5.7716 C   0  0  0  0  0  0  0  0  0  0  0  0
   -0.4173    4.5468    7.1115 C   0  0  0  0  0  0  0  0  0  0  0  0
   -1.6407    4.8058    7.9758 C   0  0  0  0  0  0  0  0  0  0  0  0
   -2.4826    3.5927    8.1249 C   0  0  0  0  0  0  0  0  0  0  0  0
   -2.6417    2.7319    6.9234 C   0  0  0  0  0  0  0  0  0  0  0  0
   -1.1284    5.1353    9.2758 O   0  0  0  0  0  0  0  0  0  0  0  0
   -1.6859    6.3390    9.6807 C   0  0  0  0  0  0  0  0  0  0  0  0
   -1.6377    7.0567   10.8569 C   0  0  0  0  0  0  0  0  0  0  0  0
   -2.3074    8.2462   10.9654 C   0  0  0  0  0  0  0  0  0  0  0  0
   -3.0331    8.7515    9.9279 C   0  0  0  0  0  0  0  0  0  0  0  0
   -3.0807    8.0248    8.7399 C   0  0  0  0  0  0  0  0  0  0  0  0
   -2.4065    6.8260    8.6287 C   0  0  0  0  0  0  0  0  0  0  0  0
   -2.3183    5.9516    7.5564 O   0  0  0  0  0  0  0  0  0  0  0  0
    0.1229   -0.6682    6.0439 N   0  0  0  0  0  0  0  0  0  0  0  0
  1  2  1  0
  2  3  1  0
  3  4  1  0
  4  5  2  0
  5  6  1  0
  6  7  2  0
  7  8  1  0
  8  9  2  0
  7 10  1  0
  3 11  1  0
 11 12  2  0
 11 13  1  0
 13 14  1  0
 14 15  1  0
 15 16  1  0
 16 17  1  0
 17 18  1  0
 16 19  1  0
 19 20  1  0
 20 21  2  0
 21 22  1  0
 22 23  2  0
 23 24  1  0
 24 25  2  0
 25 26  1  0
  2 27  1  0
  9  4  1  0
 18 13  1  0
 26 16  1  0
 25 20  1  0
M  END
$$$$
