
     RDKit          3D

 27 30  0  0  0  0  0  0  0  0999 V2000
   -1.8766   -0.1321    4.8147 C   0  0  0  0  0  0  0  0  0  0  0  0
   -2.1035    0.1389    6.2669 C   0  0  0  0  0  0  0  0  0  0  0  0
   -2.9983    1.3047    6.5766 C   0  0  0  0  0  0  0  0  0  0  0  0
   -2.4258    2.6030    6.1483 C   0  0  0  0  0  0  0  0  0  0  0  0
   -3.0330    3.4418    5.2383 C   0  0  0  0  0  0  0  0  0  0  0  0
   -2.5266    4.6467    4.8283 C   0  0  0  0  0  0  0  0  0  0  0  0
   -1.3274    5.0680    5.3502 C   0  0  0  0  0  0  0  0  0  0  0  0
   -0.6679    4.2766    6.2652 C   0  0  0  0  0  0  0  0  0  0  0  0
   -1.2066    3.0645    6.6586 C   0  0  0  0  0  0  0  0  0  0  0  0
   -0.6431    6.5956    4.8578 Cl  0  0  0  0  0  0  0  0  0  0  0  0
   -3.4285    1.3631    7.9899 C   0  0  0  0  0  0  0  0  0  0  0  0
   -2.5065    1.3507    8.8481 O   0  0  0  0  0  0  0  0  0  0  0  0
   -4.7786    1.4301    8.4119 N   0  0  0  0  0  0  0  0  0  0  0  0
   -5.8285    1.3727    7.4045 C   0  0  0  0  0  0  0  0  0  0  0  0
   -6.6832    2.6138    7.5432 C   0  0  0  0  0  0  0  0  0  0  0  0
   -7.3942    2.4525    8.8771 C   0  0  0  0  0  0  0  0  0  0  0  0
   -6.4379    2.3463   10.0072 C   0  0  0  0  0  0  0  0  0  0  0  0
   -5.2016    1.5554    9.7706 C   0  0  0  0  0  0  0  0  0  0  0  0
   -8.1432    3.6633    9.0608 O   0  0  0  0  0  0  0  0  0  0  0  0
   -9.4641    3.3328    9.3243 C   0  0  0  0  0  0  0  0  0  0  0  0
  -10.5722    4.0718    9.6803 C   0  0  0  0  0  0  0  0  0  0  0  0
  -11.7776    3.4530    9.8786 C   0  0  0  0  0  0  0  0  0  0  0  0
  -11.9181    2.1049    9.7321 C   0  0  0  0  0  0  0  0  0  0  0  0
  -10.7971    1.3596    9.3722 C   0  0  0  0  0  0  0  0  0  0  0  0
   -9.5817    1.9814    9.1721 C   0  0  0  0  0  0  0  0  0  0  0  0
   -8.3552    1.4423    8.8150 O   0  0  0  0  0  0  0  0  0  0  0  0
   -2.5141   -1.0752    6.9049 N   0  0  0  0  0  0  0  0  0  0  0  0
  1  2  1  0
  2  3  1  0
  3  4  1  0
  4  5  2  0
  5  6  1  0
  6  7  2  0
  7  8  1  0
  8  9  2  0
  7 10  1  0
  3 11  1  0
 11 12  2  0
 11 13  1  0
 13 14  1  0
 14 15  1  0
 15 16  1  0
 16 17  1  0
 17 18  1  0
 16 19  1  0
 19 20  1  0
 20 21  2  0
 21 22  1  0
 22 23  2  0
 23 24  1  0
 24 25  2  0
 25 26  1  0
  2 27  1  0
  9  4  1  0
 18 13  1  0
 26 16  1  0
 25 20  1  0
M  END
$$$$
