
     RDKit          3D

 27 30  0  0  0  0  0  0  0  0999 V2000
  -15.6450    4.6627   12.8201 C   0  0  0  0  0  0  0  0  0  0  0  0
  -15.1814    4.1501   11.4949 C   0  0  0  0  0  0  0  0  0  0  0  0
  -14.2868    2.9447   11.5432 C   0  0  0  0  0  0  0  0  0  0  0  0
  -13.0393    3.1805   12.3079 C   0  0  0  0  0  0  0  0  0  0  0  0
  -12.4893    4.4291   12.5049 C   0  0  0  0  0  0  0  0  0  0  0  0
  -11.3402    4.6739   13.2092 C   0  0  0  0  0  0  0  0  0  0  0  0
  -10.6721    3.6110   13.7678 C   0  0  0  0  0  0  0  0  0  0  0  0
  -11.1685    2.3355   13.6084 C   0  0  0  0  0  0  0  0  0  0  0  0
  -12.3322    2.1223   12.8910 C   0  0  0  0  0  0  0  0  0  0  0  0
   -9.2042    3.8737   14.6736 Cl  0  0  0  0  0  0  0  0  0  0  0  0
  -13.9852    2.3763   10.2120 C   0  0  0  0  0  0  0  0  0  0  0  0
  -14.9813    2.0804    9.5000 O   0  0  0  0  0  0  0  0  0  0  0  0
  -12.6775    2.1556    9.7152 N   0  0  0  0  0  0  0  0  0  0  0  0
  -11.5514    2.7391   10.4304 C   0  0  0  0  0  0  0  0  0  0  0  0
  -10.7804    3.6120    9.4640 C   0  0  0  0  0  0  0  0  0  0  0  0
  -10.1669    2.6437    8.4657 C   0  0  0  0  0  0  0  0  0  0  0  0
  -11.2003    1.8553    7.7492 C   0  0  0  0  0  0  0  0  0  0  0  0
  -12.3686    1.3959    8.5455 C   0  0  0  0  0  0  0  0  0  0  0  0
   -9.5030    3.4652    7.4935 O   0  0  0  0  0  0  0  0  0  0  0  0
   -8.1901    3.0355    7.3712 C   0  0  0  0  0  0  0  0  0  0  0  0
   -7.1557    3.3800    6.5272 C   0  0  0  0  0  0  0  0  0  0  0  0
   -5.9366    2.7679    6.6469 C   0  0  0  0  0  0  0  0  0  0  0  0
   -5.7103    1.8114    7.5916 C   0  0  0  0  0  0  0  0  0  0  0  0
   -6.7568    1.4645    8.4437 C   0  0  0  0  0  0  0  0  0  0  0  0
   -7.9859    2.0802    8.3246 C   0  0  0  0  0  0  0  0  0  0  0  0
   -9.1491    1.8924    9.0553 O   0  0  0  0  0  0  0  0  0  0  0  0
  -16.3187    3.9774   10.6427 N   0  0  0  0  0  0  0  0  0  0  0  0
  1  2  1  0
  2  3  1  0
  3  4  1  0
  4  5  2  0
  5  6  1  0
  6  7  2  0
  7  8  1  0
  8  9  2  0
  7 10  1  0
  3 11  1  0
 11 12  2  0
 11 13  1  0
 13 14  1  0
 14 15  1  0
 15 16  1  0
 16 17  1  0
 17 18  1  0
 16 19  1  0
 19 20  1  0
 20 21  2  0
 21 22  1  0
 22 23  2  0
 23 24  1  0
 24 25  2  0
 25 26  1  0
  2 27  1  0
  9  4  1  0
 18 13  1  0
 26 16  1  0
 25 20  1  0
M  END
$$$$
