
     RDKit          3D

 27 30  0  0  0  0  0  0  0  0999 V2000
  -11.4838    4.1391   12.3580 C   0  0  0  0  0  0  0  0  0  0  0  0
  -10.5855    2.9944   12.0169 C   0  0  0  0  0  0  0  0  0  0  0  0
   -9.9774    3.0344   10.6443 C   0  0  0  0  0  0  0  0  0  0  0  0
  -10.9824    2.9064    9.5625 C   0  0  0  0  0  0  0  0  0  0  0  0
  -12.3436    2.9150    9.7804 C   0  0  0  0  0  0  0  0  0  0  0  0
  -13.2922    2.8012    8.7988 C   0  0  0  0  0  0  0  0  0  0  0  0
  -12.8774    2.6679    7.4956 C   0  0  0  0  0  0  0  0  0  0  0  0
  -11.5298    2.6519    7.2086 C   0  0  0  0  0  0  0  0  0  0  0  0
  -10.5970    2.7691    8.2237 C   0  0  0  0  0  0  0  0  0  0  0  0
  -14.0492    2.5197    6.2114 Cl  0  0  0  0  0  0  0  0  0  0  0  0
   -8.8776    2.0646   10.4543 C   0  0  0  0  0  0  0  0  0  0  0  0
   -9.2024    0.8481   10.4911 O   0  0  0  0  0  0  0  0  0  0  0  0
   -7.5244    2.4231   10.2405 N   0  0  0  0  0  0  0  0  0  0  0  0
   -7.1479    3.8254   10.3511 C   0  0  0  0  0  0  0  0  0  0  0  0
   -6.5081    4.2461    9.0457 C   0  0  0  0  0  0  0  0  0  0  0  0
   -5.1969    3.4793    8.9874 C   0  0  0  0  0  0  0  0  0  0  0  0
   -5.4103    2.0107    9.0166 C   0  0  0  0  0  0  0  0  0  0  0  0
   -6.4803    1.5038    9.9154 C   0  0  0  0  0  0  0  0  0  0  0  0
   -4.6197    3.8039    7.7137 O   0  0  0  0  0  0  0  0  0  0  0  0
   -3.3232    4.2532    7.9152 C   0  0  0  0  0  0  0  0  0  0  0  0
   -2.2934    4.5877    7.0616 C   0  0  0  0  0  0  0  0  0  0  0  0
   -1.0922    5.0108    7.5648 C   0  0  0  0  0  0  0  0  0  0  0  0
   -0.8794    5.1134    8.9074 C   0  0  0  0  0  0  0  0  0  0  0  0
   -1.9212    4.7749    9.7686 C   0  0  0  0  0  0  0  0  0  0  0  0
   -3.1323    4.3483    9.2635 C   0  0  0  0  0  0  0  0  0  0  0  0
   -4.2879    3.9665    9.9277 O   0  0  0  0  0  0  0  0  0  0  0  0
   -9.6178    2.8395   13.0606 N   0  0  0  0  0  0  0  0  0  0  0  0
  1  2  1  0
  2  3  1  0
  3  4  1  0
  4  5  2  0
  5  6  1  0
  6  7  2  0
  7  8  1  0
  8  9  2  0
  7 10  1  0
  3 11  1  0
 11 12  2  0
 11 13  1  0
 13 14  1  0
 14 15  1  0
 15 16  1  0
 16 17  1  0
 17 18  1  0
 16 19  1  0
 19 20  1  0
 20 21  2  0
 21 22  1  0
 22 23  2  0
 23 24  1  0
 24 25  2  0
 25 26  1  0
  2 27  1  0
  9  4  1  0
 18 13  1  0
 26 16  1  0
 25 20  1  0
M  END
$$$$
