
     RDKit          3D

 27 30  0  0  0  0  0  0  0  0999 V2000
  -10.5992    1.2441    6.4566 C   0  0  0  0  0  0  0  0  0  0  0  0
   -9.2423    1.8556    6.3200 C   0  0  0  0  0  0  0  0  0  0  0  0
   -8.3930    1.8318    7.5584 C   0  0  0  0  0  0  0  0  0  0  0  0
   -9.1769    2.0257    8.8013 C   0  0  0  0  0  0  0  0  0  0  0  0
   -9.5289    0.9978    9.6498 C   0  0  0  0  0  0  0  0  0  0  0  0
  -10.2497    1.1508   10.8045 C   0  0  0  0  0  0  0  0  0  0  0  0
  -10.6614    2.4125   11.1606 C   0  0  0  0  0  0  0  0  0  0  0  0
  -10.3428    3.4847   10.3560 C   0  0  0  0  0  0  0  0  0  0  0  0
   -9.6130    3.2961    9.1958 C   0  0  0  0  0  0  0  0  0  0  0  0
  -11.5820    2.6563   12.6226 Cl  0  0  0  0  0  0  0  0  0  0  0  0
   -7.2481    2.7661    7.5106 C   0  0  0  0  0  0  0  0  0  0  0  0
   -7.5365    3.9859    7.3856 O   0  0  0  0  0  0  0  0  0  0  0  0
   -5.8907    2.3715    7.5954 N   0  0  0  0  0  0  0  0  0  0  0  0
   -5.5837    0.9570    7.7548 C   0  0  0  0  0  0  0  0  0  0  0  0
   -4.7553    0.7930    9.0107 C   0  0  0  0  0  0  0  0  0  0  0  0
   -3.4273    1.4614    8.6937 C   0  0  0  0  0  0  0  0  0  0  0  0
   -3.5939    2.8980    8.3601 C   0  0  0  0  0  0  0  0  0  0  0  0
   -4.7780    3.2656    7.5400 C   0  0  0  0  0  0  0  0  0  0  0  0
   -2.6626    1.3881    9.9065 O   0  0  0  0  0  0  0  0  0  0  0  0
   -1.4313    0.8170    9.6212 C   0  0  0  0  0  0  0  0  0  0  0  0
   -0.2886    0.6099   10.3643 C   0  0  0  0  0  0  0  0  0  0  0  0
    0.8007    0.0038    9.7974 C   0  0  0  0  0  0  0  0  0  0  0  0
    0.7898   -0.4082    8.4980 C   0  0  0  0  0  0  0  0  0  0  0  0
   -0.3660   -0.1981    7.7485 C   0  0  0  0  0  0  0  0  0  0  0  0
   -1.4645    0.4124    8.3180 C   0  0  0  0  0  0  0  0  0  0  0  0
   -2.6991    0.7163    7.7651 O   0  0  0  0  0  0  0  0  0  0  0  0
   -8.5928    1.2887    5.1770 N   0  0  0  0  0  0  0  0  0  0  0  0
  1  2  1  0
  2  3  1  0
  3  4  1  0
  4  5  2  0
  5  6  1  0
  6  7  2  0
  7  8  1  0
  8  9  2  0
  7 10  1  0
  3 11  1  0
 11 12  2  0
 11 13  1  0
 13 14  1  0
 14 15  1  0
 15 16  1  0
 16 17  1  0
 17 18  1  0
 16 19  1  0
 19 20  1  0
 20 21  2  0
 21 22  1  0
 22 23  2  0
 23 24  1  0
 24 25  2  0
 25 26  1  0
  2 27  1  0
  9  4  1  0
 18 13  1  0
 26 16  1  0
 25 20  1  0
M  END
$$$$
