
     RDKit          3D

 27 30  0  0  0  0  0  0  0  0999 V2000
  -10.8354    2.2049   15.3990 C   0  0  0  0  0  0  0  0  0  0  0  0
  -11.7903    3.0565   14.6265 C   0  0  0  0  0  0  0  0  0  0  0  0
  -11.7504    2.8856   13.1350 C   0  0  0  0  0  0  0  0  0  0  0  0
  -10.4252    3.2026   12.5517 C   0  0  0  0  0  0  0  0  0  0  0  0
  -10.0003    4.4844   12.2743 C   0  0  0  0  0  0  0  0  0  0  0  0
   -8.7808    4.8039   11.7384 C   0  0  0  0  0  0  0  0  0  0  0  0
   -7.9029    3.7873   11.4490 C   0  0  0  0  0  0  0  0  0  0  0  0
   -8.2655    2.4822   11.7021 C   0  0  0  0  0  0  0  0  0  0  0  0
   -9.5052    2.1933   12.2442 C   0  0  0  0  0  0  0  0  0  0  0  0
   -6.3381    4.1457   10.7653 Cl  0  0  0  0  0  0  0  0  0  0  0  0
  -12.8226    3.6156   12.4254 C   0  0  0  0  0  0  0  0  0  0  0  0
  -13.5200    4.3930   13.1298 O   0  0  0  0  0  0  0  0  0  0  0  0
  -13.0951    3.4885   11.0416 N   0  0  0  0  0  0  0  0  0  0  0  0
  -14.0430    4.4089   10.4294 C   0  0  0  0  0  0  0  0  0  0  0  0
  -15.1426    3.5933    9.7845 C   0  0  0  0  0  0  0  0  0  0  0  0
  -14.4697    2.8763    8.6253 C   0  0  0  0  0  0  0  0  0  0  0  0
  -13.3647    1.9969    9.0820 C   0  0  0  0  0  0  0  0  0  0  0  0
  -12.5072    2.5101   10.1827 C   0  0  0  0  0  0  0  0  0  0  0  0
  -15.4827    2.0326    8.0569 O   0  0  0  0  0  0  0  0  0  0  0  0
  -15.5598    2.2868    6.6957 C   0  0  0  0  0  0  0  0  0  0  0  0
  -16.2620    1.7043    5.6619 C   0  0  0  0  0  0  0  0  0  0  0  0
  -16.1334    2.1846    4.3860 C   0  0  0  0  0  0  0  0  0  0  0  0
  -15.3182    3.2395    4.1014 C   0  0  0  0  0  0  0  0  0  0  0  0
  -14.6093    3.8270    5.1474 C   0  0  0  0  0  0  0  0  0  0  0  0
  -14.7376    3.3444    6.4337 C   0  0  0  0  0  0  0  0  0  0  0  0
  -14.1354    3.7708    7.6075 O   0  0  0  0  0  0  0  0  0  0  0  0
  -13.1014    2.8991   15.1796 N   0  0  0  0  0  0  0  0  0  0  0  0
  1  2  1  0
  2  3  1  0
  3  4  1  0
  4  5  2  0
  5  6  1  0
  6  7  2  0
  7  8  1  0
  8  9  2  0
  7 10  1  0
  3 11  1  0
 11 12  2  0
 11 13  1  0
 13 14  1  0
 14 15  1  0
 15 16  1  0
 16 17  1  0
 17 18  1  0
 16 19  1  0
 19 20  1  0
 20 21  2  0
 21 22  1  0
 22 23  2  0
 23 24  1  0
 24 25  2  0
 25 26  1  0
  2 27  1  0
  9  4  1  0
 18 13  1  0
 26 16  1  0
 25 20  1  0
M  END
$$$$
