
     RDKit          3D

 27 30  0  0  0  0  0  0  0  0999 V2000
   -6.4361    4.7502   10.0918 C   0  0  0  0  0  0  0  0  0  0  0  0
   -5.8555    3.6529    9.2596 C   0  0  0  0  0  0  0  0  0  0  0  0
   -6.8322    2.6186    8.7780 C   0  0  0  0  0  0  0  0  0  0  0  0
   -8.1042    2.6256    9.5387 C   0  0  0  0  0  0  0  0  0  0  0  0
   -8.1742    2.4987   10.9097 C   0  0  0  0  0  0  0  0  0  0  0  0
   -9.3355    2.5047   11.6360 C   0  0  0  0  0  0  0  0  0  0  0  0
  -10.5281    2.6464   10.9684 C   0  0  0  0  0  0  0  0  0  0  0  0
  -10.5287    2.7779    9.5967 C   0  0  0  0  0  0  0  0  0  0  0  0
   -9.3378    2.7679    8.8926 C   0  0  0  0  0  0  0  0  0  0  0  0
  -12.0331    2.6597   11.8511 Cl  0  0  0  0  0  0  0  0  0  0  0  0
   -6.2676    1.2536    8.7147 C   0  0  0  0  0  0  0  0  0  0  0  0
   -7.0876    0.3099    8.8694 O   0  0  0  0  0  0  0  0  0  0  0  0
   -4.8986    0.9645    8.4964 N   0  0  0  0  0  0  0  0  0  0  0  0
   -3.9663    2.0731    8.3475 C   0  0  0  0  0  0  0  0  0  0  0  0
   -3.2640    1.9228    7.0154 C   0  0  0  0  0  0  0  0  0  0  0  0
   -2.3970    0.6835    7.1677 C   0  0  0  0  0  0  0  0  0  0  0  0
   -3.2032   -0.5245    7.4739 C   0  0  0  0  0  0  0  0  0  0  0  0
   -4.3489   -0.3508    8.4051 C   0  0  0  0  0  0  0  0  0  0  0  0
   -1.7903    0.4802    5.8825 O   0  0  0  0  0  0  0  0  0  0  0  0
   -0.4175    0.3770    6.0508 C   0  0  0  0  0  0  0  0  0  0  0  0
    0.6213    0.0760    5.1958 C   0  0  0  0  0  0  0  0  0  0  0  0
    1.9092    0.0487    5.6603 C   0  0  0  0  0  0  0  0  0  0  0  0
    2.2009    0.3146    6.9652 C   0  0  0  0  0  0  0  0  0  0  0  0
    1.1497    0.6185    7.8279 C   0  0  0  0  0  0  0  0  0  0  0  0
   -0.1486    0.6466    7.3617 C   0  0  0  0  0  0  0  0  0  0  0  0
   -1.3294    0.9209    8.0347 O   0  0  0  0  0  0  0  0  0  0  0  0
   -5.0797    4.2333    8.2056 N   0  0  0  0  0  0  0  0  0  0  0  0
  1  2  1  0
  2  3  1  0
  3  4  1  0
  4  5  2  0
  5  6  1  0
  6  7  2  0
  7  8  1  0
  8  9  2  0
  7 10  1  0
  3 11  1  0
 11 12  2  0
 11 13  1  0
 13 14  1  0
 14 15  1  0
 15 16  1  0
 16 17  1  0
 17 18  1  0
 16 19  1  0
 19 20  1  0
 20 21  2  0
 21 22  1  0
 22 23  2  0
 23 24  1  0
 24 25  2  0
 25 26  1  0
  2 27  1  0
  9  4  1  0
 18 13  1  0
 26 16  1  0
 25 20  1  0
M  END
$$$$
