
     RDKit          3D

 27 30  0  0  0  0  0  0  0  0999 V2000
   -0.1707   -1.6778    4.0843 C   0  0  0  0  0  0  0  0  0  0  0  0
   -1.2434   -0.6877    4.4046 C   0  0  0  0  0  0  0  0  0  0  0  0
   -0.8893    0.3387    5.4422 C   0  0  0  0  0  0  0  0  0  0  0  0
   -0.3055   -0.2556    6.6681 C   0  0  0  0  0  0  0  0  0  0  0  0
   -1.0492   -0.9055    7.6300 C   0  0  0  0  0  0  0  0  0  0  0  0
   -0.5340   -1.4650    8.7692 C   0  0  0  0  0  0  0  0  0  0  0  0
    0.8201   -1.3835    8.9877 C   0  0  0  0  0  0  0  0  0  0  0  0
    1.6213   -0.7469    8.0649 C   0  0  0  0  0  0  0  0  0  0  0  0
    1.0693   -0.1920    6.9241 C   0  0  0  0  0  0  0  0  0  0  0  0
    1.5218   -2.0815   10.4247 Cl  0  0  0  0  0  0  0  0  0  0  0  0
   -2.0044    1.2483    5.7815 C   0  0  0  0  0  0  0  0  0  0  0  0
   -3.1065    1.0019    5.2235 O   0  0  0  0  0  0  0  0  0  0  0  0
   -1.8986    2.3446    6.6717 N   0  0  0  0  0  0  0  0  0  0  0  0
   -3.1132    2.8708    7.2785 C   0  0  0  0  0  0  0  0  0  0  0  0
   -3.2131    4.3412    6.9349 C   0  0  0  0  0  0  0  0  0  0  0  0
   -2.0679    4.9979    7.6885 C   0  0  0  0  0  0  0  0  0  0  0  0
   -0.7491    4.4531    7.2800 C   0  0  0  0  0  0  0  0  0  0  0  0
   -0.6746    2.9903    7.0260 C   0  0  0  0  0  0  0  0  0  0  0  0
   -2.0990    6.3806    7.3035 O   0  0  0  0  0  0  0  0  0  0  0  0
   -2.1273    7.1603    8.4501 C   0  0  0  0  0  0  0  0  0  0  0  0
   -2.0548    8.5189    8.6735 C   0  0  0  0  0  0  0  0  0  0  0  0
   -2.1106    9.0105    9.9503 C   0  0  0  0  0  0  0  0  0  0  0  0
   -2.2379    8.1834   11.0264 C   0  0  0  0  0  0  0  0  0  0  0  0
   -2.3110    6.8106   10.7989 C   0  0  0  0  0  0  0  0  0  0  0  0
   -2.2549    6.3134    9.5130 C   0  0  0  0  0  0  0  0  0  0  0  0
   -2.3088    5.0030    9.0632 O   0  0  0  0  0  0  0  0  0  0  0  0
   -1.7241   -0.1158    3.1834 N   0  0  0  0  0  0  0  0  0  0  0  0
  1  2  1  0
  2  3  1  0
  3  4  1  0
  4  5  2  0
  5  6  1  0
  6  7  2  0
  7  8  1  0
  8  9  2  0
  7 10  1  0
  3 11  1  0
 11 12  2  0
 11 13  1  0
 13 14  1  0
 14 15  1  0
 15 16  1  0
 16 17  1  0
 17 18  1  0
 16 19  1  0
 19 20  1  0
 20 21  2  0
 21 22  1  0
 22 23  2  0
 23 24  1  0
 24 25  2  0
 25 26  1  0
  2 27  1  0
  9  4  1  0
 18 13  1  0
 26 16  1  0
 25 20  1  0
M  END
$$$$
