
     RDKit          3D

 27 30  0  0  0  0  0  0  0  0999 V2000
    0.0258   -2.5000    5.6815 C   0  0  0  0  0  0  0  0  0  0  0  0
    0.6790   -1.1648    5.8376 C   0  0  0  0  0  0  0  0  0  0  0  0
    0.2374   -0.3624    7.0278 C   0  0  0  0  0  0  0  0  0  0  0  0
    0.6199   -0.9832    8.3181 C   0  0  0  0  0  0  0  0  0  0  0  0
    1.6653   -0.5384    9.0990 C   0  0  0  0  0  0  0  0  0  0  0  0
    2.0371   -1.0924   10.2953 C   0  0  0  0  0  0  0  0  0  0  0  0
    1.3292   -2.1706   10.7690 C   0  0  0  0  0  0  0  0  0  0  0  0
    0.2718   -2.6653   10.0370 C   0  0  0  0  0  0  0  0  0  0  0  0
   -0.0781   -2.0826    8.8320 C   0  0  0  0  0  0  0  0  0  0  0  0
    1.7660   -2.9096   12.2881 Cl  0  0  0  0  0  0  0  0  0  0  0  0
   -1.2023   -0.0259    7.0153 C   0  0  0  0  0  0  0  0  0  0  0  0
   -1.9833   -0.9290    7.4169 O   0  0  0  0  0  0  0  0  0  0  0  0
   -1.7284    1.2178    6.5890 N   0  0  0  0  0  0  0  0  0  0  0  0
   -0.8754    2.1078    5.8140 C   0  0  0  0  0  0  0  0  0  0  0  0
   -0.7936    3.4330    6.5403 C   0  0  0  0  0  0  0  0  0  0  0  0
   -2.1911    4.0224    6.4378 C   0  0  0  0  0  0  0  0  0  0  0  0
   -3.2116    3.1447    7.0632 C   0  0  0  0  0  0  0  0  0  0  0  0
   -3.0514    1.6800    6.8661 C   0  0  0  0  0  0  0  0  0  0  0  0
   -2.1495    5.2405    7.1964 O   0  0  0  0  0  0  0  0  0  0  0  0
   -2.6162    6.2757    6.4000 C   0  0  0  0  0  0  0  0  0  0  0  0
   -2.8914    7.6052    6.6402 C   0  0  0  0  0  0  0  0  0  0  0  0
   -3.3535    8.4059    5.6301 C   0  0  0  0  0  0  0  0  0  0  0  0
   -3.5534    7.9204    4.3720 C   0  0  0  0  0  0  0  0  0  0  0  0
   -3.2747    6.5765    4.1310 C   0  0  0  0  0  0  0  0  0  0  0  0
   -2.8090    5.7682    5.1476 C   0  0  0  0  0  0  0  0  0  0  0  0
   -2.4725    4.4232    5.1309 O   0  0  0  0  0  0  0  0  0  0  0  0
    2.0988   -1.3335    5.7637 N   0  0  0  0  0  0  0  0  0  0  0  0
  1  2  1  0
  2  3  1  0
  3  4  1  0
  4  5  2  0
  5  6  1  0
  6  7  2  0
  7  8  1  0
  8  9  2  0
  7 10  1  0
  3 11  1  0
 11 12  2  0
 11 13  1  0
 13 14  1  0
 14 15  1  0
 15 16  1  0
 16 17  1  0
 17 18  1  0
 16 19  1  0
 19 20  1  0
 20 21  2  0
 21 22  1  0
 22 23  2  0
 23 24  1  0
 24 25  2  0
 25 26  1  0
  2 27  1  0
  9  4  1  0
 18 13  1  0
 26 16  1  0
 25 20  1  0
M  END
$$$$
