
     RDKit          3D

 27 30  0  0  0  0  0  0  0  0999 V2000
   -8.6972    0.2372   11.3095 C   0  0  0  0  0  0  0  0  0  0  0  0
   -8.1106    1.6023   11.4707 C   0  0  0  0  0  0  0  0  0  0  0  0
   -8.4436    2.5835   10.3835 C   0  0  0  0  0  0  0  0  0  0  0  0
   -9.8393    3.0766   10.4570 C   0  0  0  0  0  0  0  0  0  0  0  0
  -10.9405    2.2954   10.1784 C   0  0  0  0  0  0  0  0  0  0  0  0
  -12.2393    2.7259   10.2415 C   0  0  0  0  0  0  0  0  0  0  0  0
  -12.4837    4.0278   10.6070 C   0  0  0  0  0  0  0  0  0  0  0  0
  -11.4269    4.8625   10.8990 C   0  0  0  0  0  0  0  0  0  0  0  0
  -10.1264    4.3963   10.8257 C   0  0  0  0  0  0  0  0  0  0  0  0
  -14.1217    4.6213   10.7011 Cl  0  0  0  0  0  0  0  0  0  0  0  0
   -8.1336    2.0906    9.0244 C   0  0  0  0  0  0  0  0  0  0  0  0
   -8.9110    1.2120    8.5657 O   0  0  0  0  0  0  0  0  0  0  0  0
   -7.0440    2.5416    8.2402 N   0  0  0  0  0  0  0  0  0  0  0  0
   -6.8635    1.9813    6.9083 C   0  0  0  0  0  0  0  0  0  0  0  0
   -5.4776    1.3779    6.8346 C   0  0  0  0  0  0  0  0  0  0  0  0
   -4.5298    2.5642    6.9056 C   0  0  0  0  0  0  0  0  0  0  0  0
   -4.6987    3.3359    8.1621 C   0  0  0  0  0  0  0  0  0  0  0  0
   -6.0880    3.5168    8.6593 C   0  0  0  0  0  0  0  0  0  0  0  0
   -3.2101    1.9995    6.9228 O   0  0  0  0  0  0  0  0  0  0  0  0
   -2.4600    2.5931    5.9186 C   0  0  0  0  0  0  0  0  0  0  0  0
   -1.1313    2.5171    5.5583 C   0  0  0  0  0  0  0  0  0  0  0  0
   -0.6651    3.2379    4.4914 C   0  0  0  0  0  0  0  0  0  0  0  0
   -1.4888    4.0425    3.7617 C   0  0  0  0  0  0  0  0  0  0  0  0
   -2.8313    4.1182    4.1272 C   0  0  0  0  0  0  0  0  0  0  0  0
   -3.3029    3.3926    5.2019 C   0  0  0  0  0  0  0  0  0  0  0  0
   -4.5816    3.3192    5.7330 O   0  0  0  0  0  0  0  0  0  0  0  0
   -8.4180    2.0854   12.7829 N   0  0  0  0  0  0  0  0  0  0  0  0
  1  2  1  0
  2  3  1  0
  3  4  1  0
  4  5  2  0
  5  6  1  0
  6  7  2  0
  7  8  1  0
  8  9  2  0
  7 10  1  0
  3 11  1  0
 11 12  2  0
 11 13  1  0
 13 14  1  0
 14 15  1  0
 15 16  1  0
 16 17  1  0
 17 18  1  0
 16 19  1  0
 19 20  1  0
 20 21  2  0
 21 22  1  0
 22 23  2  0
 23 24  1  0
 24 25  2  0
 25 26  1  0
  2 27  1  0
  9  4  1  0
 18 13  1  0
 26 16  1  0
 25 20  1  0
M  END
$$$$
