
     RDKit          3D

 27 30  0  0  0  0  0  0  0  0999 V2000
    2.8745    0.5733   10.2976 C   0  0  0  0  0  0  0  0  0  0  0  0
    2.4737   -0.2583    9.1222 C   0  0  0  0  0  0  0  0  0  0  0  0
    0.9969   -0.3454    8.8632 C   0  0  0  0  0  0  0  0  0  0  0  0
    0.2510   -0.9797    9.9759 C   0  0  0  0  0  0  0  0  0  0  0  0
    0.7558   -2.0056   10.7461 C   0  0  0  0  0  0  0  0  0  0  0  0
    0.0885   -2.6065   11.7805 C   0  0  0  0  0  0  0  0  0  0  0  0
   -1.1772   -2.1694   12.0889 C   0  0  0  0  0  0  0  0  0  0  0  0
   -1.7409   -1.1465   11.3578 C   0  0  0  0  0  0  0  0  0  0  0  0
   -1.0400   -0.5607   10.3187 C   0  0  0  0  0  0  0  0  0  0  0  0
   -2.0658   -2.9044   13.3983 Cl  0  0  0  0  0  0  0  0  0  0  0  0
    0.6575   -0.9847    7.5740 C   0  0  0  0  0  0  0  0  0  0  0  0
    1.0892   -2.1565    7.4090 O   0  0  0  0  0  0  0  0  0  0  0  0
   -0.1023   -0.3666    6.5513 N   0  0  0  0  0  0  0  0  0  0  0  0
   -0.3999    1.0543    6.6646 C   0  0  0  0  0  0  0  0  0  0  0  0
   -1.9027    1.2264    6.6183 C   0  0  0  0  0  0  0  0  0  0  0  0
   -2.2972    0.8429    5.2012 C   0  0  0  0  0  0  0  0  0  0  0  0
   -1.9201   -0.5560    4.8788 C   0  0  0  0  0  0  0  0  0  0  0  0
   -0.6131   -1.0375    5.3981 C   0  0  0  0  0  0  0  0  0  0  0  0
   -3.7303    0.9196    5.1686 O   0  0  0  0  0  0  0  0  0  0  0  0
   -4.1077    1.7278    4.1065 C   0  0  0  0  0  0  0  0  0  0  0  0
   -5.3267    2.0533    3.5508 C   0  0  0  0  0  0  0  0  0  0  0  0
   -5.3894    2.9009    2.4771 C   0  0  0  0  0  0  0  0  0  0  0  0
   -4.2637    3.4422    1.9311 C   0  0  0  0  0  0  0  0  0  0  0  0
   -3.0324    3.1121    2.4940 C   0  0  0  0  0  0  0  0  0  0  0  0
   -2.9674    2.2583    3.5760 C   0  0  0  0  0  0  0  0  0  0  0  0
   -1.8657    1.8013    4.2830 O   0  0  0  0  0  0  0  0  0  0  0  0
    3.2250    0.1647    7.9793 N   0  0  0  0  0  0  0  0  0  0  0  0
  1  2  1  0
  2  3  1  0
  3  4  1  0
  4  5  2  0
  5  6  1  0
  6  7  2  0
  7  8  1  0
  8  9  2  0
  7 10  1  0
  3 11  1  0
 11 12  2  0
 11 13  1  0
 13 14  1  0
 14 15  1  0
 15 16  1  0
 16 17  1  0
 17 18  1  0
 16 19  1  0
 19 20  1  0
 20 21  2  0
 21 22  1  0
 22 23  2  0
 23 24  1  0
 24 25  2  0
 25 26  1  0
  2 27  1  0
  9  4  1  0
 18 13  1  0
 26 16  1  0
 25 20  1  0
M  END
$$$$
