
     RDKit          3D

 27 30  0  0  0  0  0  0  0  0999 V2000
  -12.2129    2.7068   15.5273 C   0  0  0  0  0  0  0  0  0  0  0  0
  -13.1395    3.5895   14.7552 C   0  0  0  0  0  0  0  0  0  0  0  0
  -12.9990    3.5276   13.2612 C   0  0  0  0  0  0  0  0  0  0  0  0
  -11.6185    3.8042   12.7981 C   0  0  0  0  0  0  0  0  0  0  0  0
  -10.7234    2.8203   12.4361 C   0  0  0  0  0  0  0  0  0  0  0  0
   -9.4443    3.0494   12.0028 C   0  0  0  0  0  0  0  0  0  0  0  0
   -9.0020    4.3475   11.9155 C   0  0  0  0  0  0  0  0  0  0  0  0
   -9.8470    5.3791   12.2626 C   0  0  0  0  0  0  0  0  0  0  0  0
  -11.1336    5.1136   12.6966 C   0  0  0  0  0  0  0  0  0  0  0  0
   -7.3805    4.6884   11.3688 Cl  0  0  0  0  0  0  0  0  0  0  0  0
  -13.9728    4.3733   12.5383 C   0  0  0  0  0  0  0  0  0  0  0  0
  -14.1284    5.5406   12.9854 O   0  0  0  0  0  0  0  0  0  0  0  0
  -14.7135    3.9507   11.4077 N   0  0  0  0  0  0  0  0  0  0  0  0
  -14.4933    2.6071   10.8913 C   0  0  0  0  0  0  0  0  0  0  0  0
  -14.0886    2.7213    9.4376 C   0  0  0  0  0  0  0  0  0  0  0  0
  -15.3309    3.2297    8.7242 C   0  0  0  0  0  0  0  0  0  0  0  0
  -15.7740    4.5453    9.2492 C   0  0  0  0  0  0  0  0  0  0  0  0
  -15.6741    4.7520   10.7180 C   0  0  0  0  0  0  0  0  0  0  0  0
  -14.9355    3.4239    7.3578 O   0  0  0  0  0  0  0  0  0  0  0  0
  -15.8240    2.7448    6.5376 C   0  0  0  0  0  0  0  0  0  0  0  0
  -15.9874    2.6761    5.1703 C   0  0  0  0  0  0  0  0  0  0  0  0
  -16.9798    1.9000    4.6337 C   0  0  0  0  0  0  0  0  0  0  0  0
  -17.8262    1.1805    5.4238 C   0  0  0  0  0  0  0  0  0  0  0  0
  -17.6596    1.2510    6.8055 C   0  0  0  0  0  0  0  0  0  0  0  0
  -16.6602    2.0325    7.3479 C   0  0  0  0  0  0  0  0  0  0  0  0
  -16.3197    2.2459    8.6749 O   0  0  0  0  0  0  0  0  0  0  0  0
  -14.4786    3.3622   15.2078 N   0  0  0  0  0  0  0  0  0  0  0  0
  1  2  1  0
  2  3  1  0
  3  4  1  0
  4  5  2  0
  5  6  1  0
  6  7  2  0
  7  8  1  0
  8  9  2  0
  7 10  1  0
  3 11  1  0
 11 12  2  0
 11 13  1  0
 13 14  1  0
 14 15  1  0
 15 16  1  0
 16 17  1  0
 17 18  1  0
 16 19  1  0
 19 20  1  0
 20 21  2  0
 21 22  1  0
 22 23  2  0
 23 24  1  0
 24 25  2  0
 25 26  1  0
  2 27  1  0
  9  4  1  0
 18 13  1  0
 26 16  1  0
 25 20  1  0
M  END
$$$$
