
     RDKit          3D

 27 30  0  0  0  0  0  0  0  0999 V2000
  -14.8717    3.2269   16.5383 C   0  0  0  0  0  0  0  0  0  0  0  0
  -15.1177    3.5830   15.1078 C   0  0  0  0  0  0  0  0  0  0  0  0
  -13.9465    3.4047   14.1848 C   0  0  0  0  0  0  0  0  0  0  0  0
  -12.6630    3.8335   14.7894 C   0  0  0  0  0  0  0  0  0  0  0  0
  -11.7623    2.9633   15.3655 C   0  0  0  0  0  0  0  0  0  0  0  0
  -10.5695    3.3335   15.9281 C   0  0  0  0  0  0  0  0  0  0  0  0
  -10.2273    4.6643   15.9282 C   0  0  0  0  0  0  0  0  0  0  0  0
  -11.0835    5.5872   15.3679 C   0  0  0  0  0  0  0  0  0  0  0  0
  -12.2812    5.1803   14.8076 C   0  0  0  0  0  0  0  0  0  0  0  0
   -8.7181    5.1834   16.6333 Cl  0  0  0  0  0  0  0  0  0  0  0  0
  -14.1355    4.0309   12.8588 C   0  0  0  0  0  0  0  0  0  0  0  0
  -14.8681    5.0553   12.8321 O   0  0  0  0  0  0  0  0  0  0  0  0
  -13.5541    3.5529   11.6593 N   0  0  0  0  0  0  0  0  0  0  0  0
  -12.7102    2.3676   11.7166 C   0  0  0  0  0  0  0  0  0  0  0  0
  -11.3534    2.7272   11.1509 C   0  0  0  0  0  0  0  0  0  0  0  0
  -11.5996    2.9765    9.6717 C   0  0  0  0  0  0  0  0  0  0  0  0
  -12.5690    4.0779    9.4477 C   0  0  0  0  0  0  0  0  0  0  0  0
  -13.7288    4.1527   10.3746 C   0  0  0  0  0  0  0  0  0  0  0  0
  -10.3360    3.4019    9.1395 O   0  0  0  0  0  0  0  0  0  0  0  0
  -10.0251    2.6081    8.0454 C   0  0  0  0  0  0  0  0  0  0  0  0
   -9.0134    2.6401    7.1093 C   0  0  0  0  0  0  0  0  0  0  0  0
   -8.9641    1.6980    6.1167 C   0  0  0  0  0  0  0  0  0  0  0  0
   -9.9011    0.7122    6.0240 C   0  0  0  0  0  0  0  0  0  0  0  0
  -10.9229    0.6815    6.9709 C   0  0  0  0  0  0  0  0  0  0  0  0
  -10.9742    1.6298    7.9718 C   0  0  0  0  0  0  0  0  0  0  0  0
  -11.8880    1.7860    9.0029 O   0  0  0  0  0  0  0  0  0  0  0  0
  -16.2990    2.9091   14.6604 N   0  0  0  0  0  0  0  0  0  0  0  0
  1  2  1  0
  2  3  1  0
  3  4  1  0
  4  5  2  0
  5  6  1  0
  6  7  2  0
  7  8  1  0
  8  9  2  0
  7 10  1  0
  3 11  1  0
 11 12  2  0
 11 13  1  0
 13 14  1  0
 14 15  1  0
 15 16  1  0
 16 17  1  0
 17 18  1  0
 16 19  1  0
 19 20  1  0
 20 21  2  0
 21 22  1  0
 22 23  2  0
 23 24  1  0
 24 25  2  0
 25 26  1  0
  2 27  1  0
  9  4  1  0
 18 13  1  0
 26 16  1  0
 25 20  1  0
M  END
$$$$
