
     RDKit          3D

 27 30  0  0  0  0  0  0  0  0999 V2000
   -1.5371    3.8042    6.1056 C   0  0  0  0  0  0  0  0  0  0  0  0
   -2.5163    3.6098    7.2179 C   0  0  0  0  0  0  0  0  0  0  0  0
   -3.1209    2.2386    7.3169 C   0  0  0  0  0  0  0  0  0  0  0  0
   -2.1222    1.1539    7.1666 C   0  0  0  0  0  0  0  0  0  0  0  0
   -1.6288    0.4189    8.2235 C   0  0  0  0  0  0  0  0  0  0  0  0
   -0.7084   -0.5893    8.1111 C   0  0  0  0  0  0  0  0  0  0  0  0
   -0.2296   -0.9067    6.8628 C   0  0  0  0  0  0  0  0  0  0  0  0
   -0.6819   -0.2103    5.7632 C   0  0  0  0  0  0  0  0  0  0  0  0
   -1.6123    0.8030    5.9110 C   0  0  0  0  0  0  0  0  0  0  0  0
    0.9438   -2.1835    6.6704 Cl  0  0  0  0  0  0  0  0  0  0  0  0
   -4.2645    2.0273    6.4039 C   0  0  0  0  0  0  0  0  0  0  0  0
   -3.9824    1.5778    5.2614 O   0  0  0  0  0  0  0  0  0  0  0  0
   -5.6141    2.2957    6.7384 N   0  0  0  0  0  0  0  0  0  0  0  0
   -5.9188    2.7757    8.0789 C   0  0  0  0  0  0  0  0  0  0  0  0
   -6.9129    1.8225    8.7063 C   0  0  0  0  0  0  0  0  0  0  0  0
   -8.1932    2.0115    7.9089 C   0  0  0  0  0  0  0  0  0  0  0  0
   -8.0034    1.6983    6.4706 C   0  0  0  0  0  0  0  0  0  0  0  0
   -6.7215    2.1271    5.8519 C   0  0  0  0  0  0  0  0  0  0  0  0
   -9.1196    1.0514    8.4387 O   0  0  0  0  0  0  0  0  0  0  0  0
  -10.2897    1.7091    8.7880 C   0  0  0  0  0  0  0  0  0  0  0  0
  -11.5222    1.2781    9.2308 C   0  0  0  0  0  0  0  0  0  0  0  0
  -12.5115    2.1850    9.5028 C   0  0  0  0  0  0  0  0  0  0  0  0
  -12.3118    3.5244    9.3464 C   0  0  0  0  0  0  0  0  0  0  0  0
  -11.0655    3.9582    8.8988 C   0  0  0  0  0  0  0  0  0  0  0  0
  -10.0674    3.0459    8.6243 C   0  0  0  0  0  0  0  0  0  0  0  0
   -8.7721    3.2532    8.1753 O   0  0  0  0  0  0  0  0  0  0  0  0
   -1.9208    4.0557    8.4411 N   0  0  0  0  0  0  0  0  0  0  0  0
  1  2  1  0
  2  3  1  0
  3  4  1  0
  4  5  2  0
  5  6  1  0
  6  7  2  0
  7  8  1  0
  8  9  2  0
  7 10  1  0
  3 11  1  0
 11 12  2  0
 11 13  1  0
 13 14  1  0
 14 15  1  0
 15 16  1  0
 16 17  1  0
 17 18  1  0
 16 19  1  0
 19 20  1  0
 20 21  2  0
 21 22  1  0
 22 23  2  0
 23 24  1  0
 24 25  2  0
 25 26  1  0
  2 27  1  0
  9  4  1  0
 18 13  1  0
 26 16  1  0
 25 20  1  0
M  END
$$$$
