
     RDKit          3D

 27 30  0  0  0  0  0  0  0  0999 V2000
    0.0699   -1.4946   10.9584 C   0  0  0  0  0  0  0  0  0  0  0  0
   -0.9867   -1.3135    9.9170 C   0  0  0  0  0  0  0  0  0  0  0  0
   -0.5874   -0.4926    8.7244 C   0  0  0  0  0  0  0  0  0  0  0  0
    0.0000    0.8169    9.0941 C   0  0  0  0  0  0  0  0  0  0  0  0
   -0.7371    1.8718    9.5884 C   0  0  0  0  0  0  0  0  0  0  0  0
   -0.2184    3.0900    9.9397 C   0  0  0  0  0  0  0  0  0  0  0  0
    1.1326    3.2956    9.7965 C   0  0  0  0  0  0  0  0  0  0  0  0
    1.9272    2.2816    9.3075 C   0  0  0  0  0  0  0  0  0  0  0  0
    1.3719    1.0625    8.9619 C   0  0  0  0  0  0  0  0  0  0  0  0
    1.8386    4.8310   10.2308 Cl  0  0  0  0  0  0  0  0  0  0  0  0
   -1.6714   -0.3191    7.7340 C   0  0  0  0  0  0  0  0  0  0  0  0
   -2.8444   -0.3271    8.1930 O   0  0  0  0  0  0  0  0  0  0  0  0
   -1.4635   -0.1503    6.3434 N   0  0  0  0  0  0  0  0  0  0  0  0
   -2.5826    0.2807    5.5175 C   0  0  0  0  0  0  0  0  0  0  0  0
   -2.7904   -0.7506    4.4296 C   0  0  0  0  0  0  0  0  0  0  0  0
   -1.5634   -0.6336    3.5400 C   0  0  0  0  0  0  0  0  0  0  0  0
   -0.3087   -0.9042    4.2853 C   0  0  0  0  0  0  0  0  0  0  0  0
   -0.2228   -0.3765    5.6724 C   0  0  0  0  0  0  0  0  0  0  0  0
   -1.7069   -1.6653    2.5520 O   0  0  0  0  0  0  0  0  0  0  0  0
   -1.5782   -1.0963    1.2938 C   0  0  0  0  0  0  0  0  0  0  0  0
   -1.5204   -1.6192    0.0194 C   0  0  0  0  0  0  0  0  0  0  0  0
   -1.3874   -0.7878   -1.0604 C   0  0  0  0  0  0  0  0  0  0  0  0
   -1.3089    0.5650   -0.9116 C   0  0  0  0  0  0  0  0  0  0  0  0
   -1.3675    1.0919    0.3771 C   0  0  0  0  0  0  0  0  0  0  0  0
   -1.5015    0.2556    1.4664 C   0  0  0  0  0  0  0  0  0  0  0  0
   -1.5793    0.5600    2.8168 O   0  0  0  0  0  0  0  0  0  0  0  0
   -1.5173   -2.5969    9.5690 N   0  0  0  0  0  0  0  0  0  0  0  0
  1  2  1  0
  2  3  1  0
  3  4  1  0
  4  5  2  0
  5  6  1  0
  6  7  2  0
  7  8  1  0
  8  9  2  0
  7 10  1  0
  3 11  1  0
 11 12  2  0
 11 13  1  0
 13 14  1  0
 14 15  1  0
 15 16  1  0
 16 17  1  0
 17 18  1  0
 16 19  1  0
 19 20  1  0
 20 21  2  0
 21 22  1  0
 22 23  2  0
 23 24  1  0
 24 25  2  0
 25 26  1  0
  2 27  1  0
  9  4  1  0
 18 13  1  0
 26 16  1  0
 25 20  1  0
M  END
$$$$
