
     RDKit          3D

 27 30  0  0  0  0  0  0  0  0999 V2000
   -1.9715   -2.5193   12.0262 C   0  0  0  0  0  0  0  0  0  0  0  0
   -1.0937   -1.4081   11.5484 C   0  0  0  0  0  0  0  0  0  0  0  0
   -1.2954   -0.9913   10.1197 C   0  0  0  0  0  0  0  0  0  0  0  0
   -0.0393   -0.9955    9.3330 C   0  0  0  0  0  0  0  0  0  0  0  0
    1.0497   -0.2039    9.6296 C   0  0  0  0  0  0  0  0  0  0  0  0
    2.2218   -0.1911    8.9208 C   0  0  0  0  0  0  0  0  0  0  0  0
    2.3408   -1.0203    7.8316 C   0  0  0  0  0  0  0  0  0  0  0  0
    1.2887   -1.8379    7.4805 C   0  0  0  0  0  0  0  0  0  0  0  0
    0.1180   -1.8268    8.2177 C   0  0  0  0  0  0  0  0  0  0  0  0
    3.8148   -1.0385    6.8982 Cl  0  0  0  0  0  0  0  0  0  0  0  0
   -2.0008    0.2998    9.9724 C   0  0  0  0  0  0  0  0  0  0  0  0
   -2.5983    0.7219   10.9979 O   0  0  0  0  0  0  0  0  0  0  0  0
   -2.0366    1.0588    8.7775 N   0  0  0  0  0  0  0  0  0  0  0  0
   -2.4284    2.4593    8.8516 C   0  0  0  0  0  0  0  0  0  0  0  0
   -3.6143    2.6663    7.9345 C   0  0  0  0  0  0  0  0  0  0  0  0
   -3.0620    2.4751    6.5312 C   0  0  0  0  0  0  0  0  0  0  0  0
   -2.4831    1.1217    6.3414 C   0  0  0  0  0  0  0  0  0  0  0  0
   -1.7173    0.5514    7.4809 C   0  0  0  0  0  0  0  0  0  0  0  0
   -4.1944    2.5843    5.6557 O   0  0  0  0  0  0  0  0  0  0  0  0
   -3.9122    3.5292    4.6804 C   0  0  0  0  0  0  0  0  0  0  0  0
   -4.5764    3.9477    3.5470 C   0  0  0  0  0  0  0  0  0  0  0  0
   -4.0377    4.9267    2.7555 C   0  0  0  0  0  0  0  0  0  0  0  0
   -2.8438    5.5105    3.0589 C   0  0  0  0  0  0  0  0  0  0  0  0
   -2.1739    5.0863    4.2048 C   0  0  0  0  0  0  0  0  0  0  0  0
   -2.7151    4.1000    5.0036 C   0  0  0  0  0  0  0  0  0  0  0  0
   -2.2272    3.5342    6.1715 O   0  0  0  0  0  0  0  0  0  0  0  0
   -1.1817   -0.3192   12.4737 N   0  0  0  0  0  0  0  0  0  0  0  0
  1  2  1  0
  2  3  1  0
  3  4  1  0
  4  5  2  0
  5  6  1  0
  6  7  2  0
  7  8  1  0
  8  9  2  0
  7 10  1  0
  3 11  1  0
 11 12  2  0
 11 13  1  0
 13 14  1  0
 14 15  1  0
 15 16  1  0
 16 17  1  0
 17 18  1  0
 16 19  1  0
 19 20  1  0
 20 21  2  0
 21 22  1  0
 22 23  2  0
 23 24  1  0
 24 25  2  0
 25 26  1  0
  2 27  1  0
  9  4  1  0
 18 13  1  0
 26 16  1  0
 25 20  1  0
M  END
$$$$
