
     RDKit          3D

 27 30  0  0  0  0  0  0  0  0999 V2000
   -4.8058    2.3062    9.5659 C   0  0  0  0  0  0  0  0  0  0  0  0
   -3.8521    2.9762    8.6303 C   0  0  0  0  0  0  0  0  0  0  0  0
   -2.9276    2.0598    7.8811 C   0  0  0  0  0  0  0  0  0  0  0  0
   -2.0736    1.2424    8.7751 C   0  0  0  0  0  0  0  0  0  0  0  0
   -1.3117    1.7706    9.7954 C   0  0  0  0  0  0  0  0  0  0  0  0
   -0.5170    1.0374   10.6364 C   0  0  0  0  0  0  0  0  0  0  0  0
   -0.4614   -0.3251   10.4673 C   0  0  0  0  0  0  0  0  0  0  0  0
   -1.1992   -0.9172    9.4654 C   0  0  0  0  0  0  0  0  0  0  0  0
   -1.9923   -0.1479    8.6327 C   0  0  0  0  0  0  0  0  0  0  0  0
    0.5370   -1.3004   11.5143 Cl  0  0  0  0  0  0  0  0  0  0  0  0
   -2.1088    2.7482    6.8605 C   0  0  0  0  0  0  0  0  0  0  0  0
   -1.4039    3.7069    7.2737 O   0  0  0  0  0  0  0  0  0  0  0  0
   -2.0786    2.3955    5.4893 N   0  0  0  0  0  0  0  0  0  0  0  0
   -2.9907    1.3649    5.0135 C   0  0  0  0  0  0  0  0  0  0  0  0
   -2.1693    0.2697    4.3684 C   0  0  0  0  0  0  0  0  0  0  0  0
   -1.5870    0.9036    3.1155 C   0  0  0  0  0  0  0  0  0  0  0  0
   -0.7371    2.0788    3.4308 C   0  0  0  0  0  0  0  0  0  0  0  0
   -1.2072    2.9769    4.5182 C   0  0  0  0  0  0  0  0  0  0  0  0
   -0.7364   -0.0989    2.5389 O   0  0  0  0  0  0  0  0  0  0  0  0
   -1.0948   -0.2751    1.2107 C   0  0  0  0  0  0  0  0  0  0  0  0
   -0.5591   -1.0106    0.1749 C   0  0  0  0  0  0  0  0  0  0  0  0
   -1.1472   -0.9879   -1.0615 C   0  0  0  0  0  0  0  0  0  0  0  0
   -2.2657   -0.2473   -1.3041 C   0  0  0  0  0  0  0  0  0  0  0  0
   -2.8058    0.4955   -0.2561 C   0  0  0  0  0  0  0  0  0  0  0  0
   -2.2146    0.4738    0.9905 C   0  0  0  0  0  0  0  0  0  0  0  0
   -2.5780    1.1266    2.1584 O   0  0  0  0  0  0  0  0  0  0  0  0
   -4.5862    3.8610    7.7772 N   0  0  0  0  0  0  0  0  0  0  0  0
  1  2  1  0
  2  3  1  0
  3  4  1  0
  4  5  2  0
  5  6  1  0
  6  7  2  0
  7  8  1  0
  8  9  2  0
  7 10  1  0
  3 11  1  0
 11 12  2  0
 11 13  1  0
 13 14  1  0
 14 15  1  0
 15 16  1  0
 16 17  1  0
 17 18  1  0
 16 19  1  0
 19 20  1  0
 20 21  2  0
 21 22  1  0
 22 23  2  0
 23 24  1  0
 24 25  2  0
 25 26  1  0
  2 27  1  0
  9  4  1  0
 18 13  1  0
 26 16  1  0
 25 20  1  0
M  END
$$$$
