
     RDKit          3D

 27 30  0  0  0  0  0  0  0  0999 V2000
   -0.7701    2.5045    4.5822 C   0  0  0  0  0  0  0  0  0  0  0  0
   -2.1550    1.9431    4.5594 C   0  0  0  0  0  0  0  0  0  0  0  0
   -2.8635    1.9116    5.8832 C   0  0  0  0  0  0  0  0  0  0  0  0
   -1.9827    1.4971    7.0009 C   0  0  0  0  0  0  0  0  0  0  0  0
   -1.6876    0.1825    7.2930 C   0  0  0  0  0  0  0  0  0  0  0  0
   -0.8754   -0.2263    8.3174 C   0  0  0  0  0  0  0  0  0  0  0  0
   -0.3035    0.7277    9.1241 C   0  0  0  0  0  0  0  0  0  0  0  0
   -0.5575    2.0610    8.8866 C   0  0  0  0  0  0  0  0  0  0  0  0
   -1.3828    2.4408    7.8431 C   0  0  0  0  0  0  0  0  0  0  0  0
    0.7382    0.2547   10.4416 Cl  0  0  0  0  0  0  0  0  0  0  0  0
   -4.1065    1.1110    5.8718 C   0  0  0  0  0  0  0  0  0  0  0  0
   -4.1217    0.1272    5.0853 O   0  0  0  0  0  0  0  0  0  0  0  0
   -5.2412    1.3859    6.6733 N   0  0  0  0  0  0  0  0  0  0  0  0
   -5.4173    2.7339    7.1950 C   0  0  0  0  0  0  0  0  0  0  0  0
   -5.5152    2.6468    8.7027 C   0  0  0  0  0  0  0  0  0  0  0  0
   -6.8319    1.9354    8.9690 C   0  0  0  0  0  0  0  0  0  0  0  0
   -6.8642    0.5809    8.3631 C   0  0  0  0  0  0  0  0  0  0  0  0
   -6.2433    0.4290    7.0209 C   0  0  0  0  0  0  0  0  0  0  0  0
   -6.8967    1.7701   10.3936 O   0  0  0  0  0  0  0  0  0  0  0  0
   -8.1031    2.2834   10.8458 C   0  0  0  0  0  0  0  0  0  0  0  0
   -8.7274    2.2916   12.0751 C   0  0  0  0  0  0  0  0  0  0  0  0
   -9.9493    2.8918   12.2226 C   0  0  0  0  0  0  0  0  0  0  0  0
  -10.5787    3.4921   11.1728 C   0  0  0  0  0  0  0  0  0  0  0  0
   -9.9463    3.4829    9.9311 C   0  0  0  0  0  0  0  0  0  0  0  0
   -8.7150    2.8786    9.7807 C   0  0  0  0  0  0  0  0  0  0  0  0
   -7.9176    2.7536    8.6533 O   0  0  0  0  0  0  0  0  0  0  0  0
   -2.9037    2.6016    3.5320 N   0  0  0  0  0  0  0  0  0  0  0  0
  1  2  1  0
  2  3  1  0
  3  4  1  0
  4  5  2  0
  5  6  1  0
  6  7  2  0
  7  8  1  0
  8  9  2  0
  7 10  1  0
  3 11  1  0
 11 12  2  0
 11 13  1  0
 13 14  1  0
 14 15  1  0
 15 16  1  0
 16 17  1  0
 17 18  1  0
 16 19  1  0
 19 20  1  0
 20 21  2  0
 21 22  1  0
 22 23  2  0
 23 24  1  0
 24 25  2  0
 25 26  1  0
  2 27  1  0
  9  4  1  0
 18 13  1  0
 26 16  1  0
 25 20  1  0
M  END
$$$$
