
     RDKit          3D

 27 30  0  0  0  0  0  0  0  0999 V2000
    1.3933   -3.1313    5.4551 C   0  0  0  0  0  0  0  0  0  0  0  0
    0.2125   -2.3264    5.0174 C   0  0  0  0  0  0  0  0  0  0  0  0
    0.0052   -1.0302    5.7471 C   0  0  0  0  0  0  0  0  0  0  0  0
    0.0775   -1.1776    7.2201 C   0  0  0  0  0  0  0  0  0  0  0  0
   -0.8914   -1.8065    7.9726 C   0  0  0  0  0  0  0  0  0  0  0  0
   -0.8471   -1.9582    9.3332 C   0  0  0  0  0  0  0  0  0  0  0  0
    0.2331   -1.4538   10.0164 C   0  0  0  0  0  0  0  0  0  0  0  0
    1.2376   -0.8132    9.3240 C   0  0  0  0  0  0  0  0  0  0  0  0
    1.1624   -0.6767    7.9493 C   0  0  0  0  0  0  0  0  0  0  0  0
    0.3333   -1.6230   11.7501 Cl  0  0  0  0  0  0  0  0  0  0  0  0
   -1.2288   -0.3180    5.3523 C   0  0  0  0  0  0  0  0  0  0  0  0
   -1.8909   -0.8392    4.4159 O   0  0  0  0  0  0  0  0  0  0  0  0
   -1.6874    0.8793    5.9536 N   0  0  0  0  0  0  0  0  0  0  0  0
   -3.0222    1.3592    5.6241 C   0  0  0  0  0  0  0  0  0  0  0  0
   -2.8961    2.7644    5.0767 C   0  0  0  0  0  0  0  0  0  0  0  0
   -2.4449    3.6062    6.2593 C   0  0  0  0  0  0  0  0  0  0  0  0
   -1.1477    3.1404    6.8101 C   0  0  0  0  0  0  0  0  0  0  0  0
   -0.9311    1.6710    6.8712 C   0  0  0  0  0  0  0  0  0  0  0  0
   -2.2390    4.9261    5.7336 O   0  0  0  0  0  0  0  0  0  0  0  0
   -2.9591    5.8278    6.5029 C   0  0  0  0  0  0  0  0  0  0  0  0
   -3.0400    7.2040    6.5212 C   0  0  0  0  0  0  0  0  0  0  0  0
   -3.8604    7.8334    7.4189 C   0  0  0  0  0  0  0  0  0  0  0  0
   -4.6130    7.1288    8.3108 C   0  0  0  0  0  0  0  0  0  0  0  0
   -4.5300    5.7379    8.2909 C   0  0  0  0  0  0  0  0  0  0  0  0
   -3.7038    5.1020    7.3871 C   0  0  0  0  0  0  0  0  0  0  0  0
   -3.4707    3.7488    7.1948 O   0  0  0  0  0  0  0  0  0  0  0  0
    0.2587   -2.1741    3.5946 N   0  0  0  0  0  0  0  0  0  0  0  0
  1  2  1  0
  2  3  1  0
  3  4  1  0
  4  5  2  0
  5  6  1  0
  6  7  2  0
  7  8  1  0
  8  9  2  0
  7 10  1  0
  3 11  1  0
 11 12  2  0
 11 13  1  0
 13 14  1  0
 14 15  1  0
 15 16  1  0
 16 17  1  0
 17 18  1  0
 16 19  1  0
 19 20  1  0
 20 21  2  0
 21 22  1  0
 22 23  2  0
 23 24  1  0
 24 25  2  0
 25 26  1  0
  2 27  1  0
  9  4  1  0
 18 13  1  0
 26 16  1  0
 25 20  1  0
M  END
$$$$
