
     RDKit          3D

 27 30  0  0  0  0  0  0  0  0999 V2000
   -4.2347    4.4231    6.9581 C   0  0  0  0  0  0  0  0  0  0  0  0
   -5.4591    3.5698    7.0378 C   0  0  0  0  0  0  0  0  0  0  0  0
   -5.8328    3.0994    8.4143 C   0  0  0  0  0  0  0  0  0  0  0  0
   -4.6655    2.6471    9.2078 C   0  0  0  0  0  0  0  0  0  0  0  0
   -4.2642    3.2445   10.3836 C   0  0  0  0  0  0  0  0  0  0  0  0
   -3.1919    2.8445   11.1362 C   0  0  0  0  0  0  0  0  0  0  0  0
   -2.4494    1.7717   10.7052 C   0  0  0  0  0  0  0  0  0  0  0  0
   -2.7969    1.1289    9.5369 C   0  0  0  0  0  0  0  0  0  0  0  0
   -3.8861    1.5581    8.7998 C   0  0  0  0  0  0  0  0  0  0  0  0
   -1.0746    1.2260   11.6307 Cl  0  0  0  0  0  0  0  0  0  0  0  0
   -6.8994    2.0755    8.4221 C   0  0  0  0  0  0  0  0  0  0  0  0
   -6.6572    1.0219    7.7755 O   0  0  0  0  0  0  0  0  0  0  0  0
   -8.1366    2.2157    9.0967 N   0  0  0  0  0  0  0  0  0  0  0  0
   -8.4676    3.5050    9.6870 C   0  0  0  0  0  0  0  0  0  0  0  0
   -8.7346    3.2939   11.1615 C   0  0  0  0  0  0  0  0  0  0  0  0
  -10.0196    2.4835   11.2145 C   0  0  0  0  0  0  0  0  0  0  0  0
   -9.8847    1.1814   10.5150 C   0  0  0  0  0  0  0  0  0  0  0  0
   -9.1021    1.1743    9.2512 C   0  0  0  0  0  0  0  0  0  0  0  0
  -10.2385    2.2030   12.6053 O   0  0  0  0  0  0  0  0  0  0  0  0
  -11.5229    2.6035   12.9423 C   0  0  0  0  0  0  0  0  0  0  0  0
  -12.2855    2.4763   14.0839 C   0  0  0  0  0  0  0  0  0  0  0  0
  -13.5558    2.9863   14.1234 C   0  0  0  0  0  0  0  0  0  0  0  0
  -14.0991    3.6271   13.0498 C   0  0  0  0  0  0  0  0  0  0  0  0
  -13.3269    3.7546   11.8969 C   0  0  0  0  0  0  0  0  0  0  0  0
  -12.0468    3.2415   11.8553 C   0  0  0  0  0  0  0  0  0  0  0  0
  -11.1163    3.2552   10.8274 O   0  0  0  0  0  0  0  0  0  0  0  0
   -6.5294    4.2323    6.3559 N   0  0  0  0  0  0  0  0  0  0  0  0
  1  2  1  0
  2  3  1  0
  3  4  1  0
  4  5  2  0
  5  6  1  0
  6  7  2  0
  7  8  1  0
  8  9  2  0
  7 10  1  0
  3 11  1  0
 11 12  2  0
 11 13  1  0
 13 14  1  0
 14 15  1  0
 15 16  1  0
 16 17  1  0
 17 18  1  0
 16 19  1  0
 19 20  1  0
 20 21  2  0
 21 22  1  0
 22 23  2  0
 23 24  1  0
 24 25  2  0
 25 26  1  0
  2 27  1  0
  9  4  1  0
 18 13  1  0
 26 16  1  0
 25 20  1  0
M  END
$$$$
