
     RDKit          3D

 27 30  0  0  0  0  0  0  0  0999 V2000
   -1.0249   -2.5809    4.7685 C   0  0  0  0  0  0  0  0  0  0  0  0
   -1.4689   -1.1807    4.4924 C   0  0  0  0  0  0  0  0  0  0  0  0
   -0.5258   -0.1014    4.9409 C   0  0  0  0  0  0  0  0  0  0  0  0
   -0.2624   -0.1327    6.3992 C   0  0  0  0  0  0  0  0  0  0  0  0
   -1.2293   -0.4038    7.3437 C   0  0  0  0  0  0  0  0  0  0  0  0
   -1.0113   -0.4413    8.6955 C   0  0  0  0  0  0  0  0  0  0  0  0
    0.2562   -0.1935    9.1645 C   0  0  0  0  0  0  0  0  0  0  0  0
    1.2695    0.0844    8.2730 C   0  0  0  0  0  0  0  0  0  0  0  0
    1.0160    0.1147    6.9132 C   0  0  0  0  0  0  0  0  0  0  0  0
    0.5818   -0.2302   10.8783 Cl  0  0  0  0  0  0  0  0  0  0  0  0
   -0.9286    1.2546    4.5108 C   0  0  0  0  0  0  0  0  0  0  0  0
   -1.0846    1.4165    3.2714 O   0  0  0  0  0  0  0  0  0  0  0  0
   -1.1404    2.3425    5.3924 N   0  0  0  0  0  0  0  0  0  0  0  0
   -1.0021    2.1176    6.8244 C   0  0  0  0  0  0  0  0  0  0  0  0
   -2.3011    2.5151    7.4915 C   0  0  0  0  0  0  0  0  0  0  0  0
   -2.3806    4.0240    7.3255 C   0  0  0  0  0  0  0  0  0  0  0  0
   -2.3811    4.4266    5.8969 C   0  0  0  0  0  0  0  0  0  0  0  0
   -1.4887    3.6660    4.9831 C   0  0  0  0  0  0  0  0  0  0  0  0
   -3.6496    4.4038    7.8789 O   0  0  0  0  0  0  0  0  0  0  0  0
   -3.4440    5.4080    8.8132 C   0  0  0  0  0  0  0  0  0  0  0  0
   -4.2946    6.2024    9.5524 C   0  0  0  0  0  0  0  0  0  0  0  0
   -3.7876    7.1337   10.4187 C   0  0  0  0  0  0  0  0  0  0  0  0
   -2.4441    7.3027   10.5757 C   0  0  0  0  0  0  0  0  0  0  0  0
   -1.5858    6.4991    9.8278 C   0  0  0  0  0  0  0  0  0  0  0  0
   -2.0948    5.5601    8.9543 C   0  0  0  0  0  0  0  0  0  0  0  0
   -1.4341    4.6677    8.1240 O   0  0  0  0  0  0  0  0  0  0  0  0
   -1.8346   -1.0755    3.1123 N   0  0  0  0  0  0  0  0  0  0  0  0
  1  2  1  0
  2  3  1  0
  3  4  1  0
  4  5  2  0
  5  6  1  0
  6  7  2  0
  7  8  1  0
  8  9  2  0
  7 10  1  0
  3 11  1  0
 11 12  2  0
 11 13  1  0
 13 14  1  0
 14 15  1  0
 15 16  1  0
 16 17  1  0
 17 18  1  0
 16 19  1  0
 19 20  1  0
 20 21  2  0
 21 22  1  0
 22 23  2  0
 23 24  1  0
 24 25  2  0
 25 26  1  0
  2 27  1  0
  9  4  1  0
 18 13  1  0
 26 16  1  0
 25 20  1  0
M  END
$$$$
