
     RDKit          3D

 27 30  0  0  0  0  0  0  0  0999 V2000
   -0.4420    3.8544    6.5320 C   0  0  0  0  0  0  0  0  0  0  0  0
   -1.7307    3.2254    6.1108 C   0  0  0  0  0  0  0  0  0  0  0  0
   -2.6248    2.7691    7.2279 C   0  0  0  0  0  0  0  0  0  0  0  0
   -1.9520    1.8367    8.1632 C   0  0  0  0  0  0  0  0  0  0  0  0
   -1.7530    0.4990    7.8959 C   0  0  0  0  0  0  0  0  0  0  0  0
   -1.1324   -0.3822    8.7414 C   0  0  0  0  0  0  0  0  0  0  0  0
   -0.6672    0.0811    9.9484 C   0  0  0  0  0  0  0  0  0  0  0  0
   -0.8338    1.4087   10.2778 C   0  0  0  0  0  0  0  0  0  0  0  0
   -1.4652    2.2729    9.4011 C   0  0  0  0  0  0  0  0  0  0  0  0
    0.1299   -1.0042   11.0580 Cl  0  0  0  0  0  0  0  0  0  0  0  0
   -3.9123    2.2082    6.7657 C   0  0  0  0  0  0  0  0  0  0  0  0
   -3.9309    1.7701    5.5848 O   0  0  0  0  0  0  0  0  0  0  0  0
   -5.0848    2.1415    7.5570 N   0  0  0  0  0  0  0  0  0  0  0  0
   -6.2466    1.4425    7.0259 C   0  0  0  0  0  0  0  0  0  0  0  0
   -7.4130    2.4067    7.0162 C   0  0  0  0  0  0  0  0  0  0  0  0
   -7.7271    2.6559    8.4825 C   0  0  0  0  0  0  0  0  0  0  0  0
   -6.5709    3.2401    9.2069 C   0  0  0  0  0  0  0  0  0  0  0  0
   -5.2237    2.7182    8.8566 C   0  0  0  0  0  0  0  0  0  0  0  0
   -8.7766    3.6354    8.4883 O   0  0  0  0  0  0  0  0  0  0  0  0
   -9.8248    3.1585    9.2613 C   0  0  0  0  0  0  0  0  0  0  0  0
  -11.0114    3.7122    9.6929 C   0  0  0  0  0  0  0  0  0  0  0  0
  -11.8719    2.9794   10.4660 C   0  0  0  0  0  0  0  0  0  0  0  0
  -11.5864    1.6966   10.8284 C   0  0  0  0  0  0  0  0  0  0  0  0
  -10.3867    1.1386   10.3913 C   0  0  0  0  0  0  0  0  0  0  0  0
   -9.5184    1.8755    9.6122 C   0  0  0  0  0  0  0  0  0  0  0  0
   -8.2894    1.5243    9.0750 O   0  0  0  0  0  0  0  0  0  0  0  0
   -2.3859    4.0935    5.1798 N   0  0  0  0  0  0  0  0  0  0  0  0
  1  2  1  0
  2  3  1  0
  3  4  1  0
  4  5  2  0
  5  6  1  0
  6  7  2  0
  7  8  1  0
  8  9  2  0
  7 10  1  0
  3 11  1  0
 11 12  2  0
 11 13  1  0
 13 14  1  0
 14 15  1  0
 15 16  1  0
 16 17  1  0
 17 18  1  0
 16 19  1  0
 19 20  1  0
 20 21  2  0
 21 22  1  0
 22 23  2  0
 23 24  1  0
 24 25  2  0
 25 26  1  0
  2 27  1  0
  9  4  1  0
 18 13  1  0
 26 16  1  0
 25 20  1  0
M  END
$$$$
