
     RDKit          3D

 27 30  0  0  0  0  0  0  0  0999 V2000
    0.9648    0.2237    5.9668 C   0  0  0  0  0  0  0  0  0  0  0  0
   -0.1829   -0.4087    5.2482 C   0  0  0  0  0  0  0  0  0  0  0  0
   -1.4623    0.3779    5.2510 C   0  0  0  0  0  0  0  0  0  0  0  0
   -1.7282    1.0451    6.5475 C   0  0  0  0  0  0  0  0  0  0  0  0
   -1.8551    0.3687    7.7420 C   0  0  0  0  0  0  0  0  0  0  0  0
   -2.0980    0.9613    8.9529 C   0  0  0  0  0  0  0  0  0  0  0  0
   -2.2278    2.3283    9.0018 C   0  0  0  0  0  0  0  0  0  0  0  0
   -2.1118    3.0648    7.8431 C   0  0  0  0  0  0  0  0  0  0  0  0
   -1.8661    2.4354    6.6358 C   0  0  0  0  0  0  0  0  0  0  0  0
   -2.5376    3.1276   10.5215 Cl  0  0  0  0  0  0  0  0  0  0  0  0
   -2.6393   -0.4021    4.8127 C   0  0  0  0  0  0  0  0  0  0  0  0
   -2.4135   -1.5905    4.4610 O   0  0  0  0  0  0  0  0  0  0  0  0
   -3.9617    0.1027    4.7701 N   0  0  0  0  0  0  0  0  0  0  0  0
   -4.1882    1.4970    5.1237 C   0  0  0  0  0  0  0  0  0  0  0  0
   -5.1884    1.5391    6.2586 C   0  0  0  0  0  0  0  0  0  0  0  0
   -6.4950    1.0601    5.6468 C   0  0  0  0  0  0  0  0  0  0  0  0
   -6.3812   -0.3149    5.0998 C   0  0  0  0  0  0  0  0  0  0  0  0
   -5.1130   -0.6602    4.4054 C   0  0  0  0  0  0  0  0  0  0  0  0
   -7.4322    1.0137    6.7332 O   0  0  0  0  0  0  0  0  0  0  0  0
   -8.5601    1.7384    6.3780 C   0  0  0  0  0  0  0  0  0  0  0  0
   -9.7870    1.9343    6.9757 C   0  0  0  0  0  0  0  0  0  0  0  0
  -10.7285    2.7242    6.3719 C   0  0  0  0  0  0  0  0  0  0  0  0
  -10.4859    3.3338    5.1769 C   0  0  0  0  0  0  0  0  0  0  0  0
   -9.2454    3.1347    4.5742 C   0  0  0  0  0  0  0  0  0  0  0  0
   -8.2954    2.3391    5.1811 C   0  0  0  0  0  0  0  0  0  0  0  0
   -7.0145    2.0093    4.7653 O   0  0  0  0  0  0  0  0  0  0  0  0
    0.2458   -0.7877    3.9359 N   0  0  0  0  0  0  0  0  0  0  0  0
  1  2  1  0
  2  3  1  0
  3  4  1  0
  4  5  2  0
  5  6  1  0
  6  7  2  0
  7  8  1  0
  8  9  2  0
  7 10  1  0
  3 11  1  0
 11 12  2  0
 11 13  1  0
 13 14  1  0
 14 15  1  0
 15 16  1  0
 16 17  1  0
 17 18  1  0
 16 19  1  0
 19 20  1  0
 20 21  2  0
 21 22  1  0
 22 23  2  0
 23 24  1  0
 24 25  2  0
 25 26  1  0
  2 27  1  0
  9  4  1  0
 18 13  1  0
 26 16  1  0
 25 20  1  0
M  END
$$$$
