
     RDKit          3D

 27 30  0  0  0  0  0  0  0  0999 V2000
  -16.1856    3.4100    6.1882 C   0  0  0  0  0  0  0  0  0  0  0  0
  -15.5962    2.4480    7.1684 C   0  0  0  0  0  0  0  0  0  0  0  0
  -15.7146    2.8405    8.6131 C   0  0  0  0  0  0  0  0  0  0  0  0
  -17.0549    3.3689    8.9611 C   0  0  0  0  0  0  0  0  0  0  0  0
  -17.6799    4.3821    8.2659 C   0  0  0  0  0  0  0  0  0  0  0  0
  -18.9180    4.8860    8.5651 C   0  0  0  0  0  0  0  0  0  0  0  0
  -19.6033    4.3566    9.6320 C   0  0  0  0  0  0  0  0  0  0  0  0
  -19.0349    3.3408   10.3695 C   0  0  0  0  0  0  0  0  0  0  0  0
  -17.7822    2.8542   10.0408 C   0  0  0  0  0  0  0  0  0  0  0  0
  -21.1834    4.9663   10.0512 Cl  0  0  0  0  0  0  0  0  0  0  0  0
  -14.6537    3.7659    9.0652 C   0  0  0  0  0  0  0  0  0  0  0  0
  -14.3225    4.6662    8.2488 O   0  0  0  0  0  0  0  0  0  0  0  0
  -14.0139    3.6928   10.3264 N   0  0  0  0  0  0  0  0  0  0  0  0
  -13.1078    4.7653   10.7126 C   0  0  0  0  0  0  0  0  0  0  0  0
  -11.7577    4.1542   11.0195 C   0  0  0  0  0  0  0  0  0  0  0  0
  -11.9763    3.3359   12.2818 C   0  0  0  0  0  0  0  0  0  0  0  0
  -12.9983    2.2773   12.0878 C   0  0  0  0  0  0  0  0  0  0  0  0
  -14.1857    2.6306   11.2660 C   0  0  0  0  0  0  0  0  0  0  0  0
  -10.7238    2.6820   12.5360 O   0  0  0  0  0  0  0  0  0  0  0  0
  -10.3395    2.9506   13.8413 C   0  0  0  0  0  0  0  0  0  0  0  0
   -9.3056    2.5020   14.6353 C   0  0  0  0  0  0  0  0  0  0  0  0
   -9.1770    2.9574   15.9203 C   0  0  0  0  0  0  0  0  0  0  0  0
  -10.0552    3.8567   16.4479 C   0  0  0  0  0  0  0  0  0  0  0  0
  -11.0996    4.3091   15.6439 C   0  0  0  0  0  0  0  0  0  0  0  0
  -11.2308    3.8513   14.3489 C   0  0  0  0  0  0  0  0  0  0  0  0
  -12.1799    4.1629   13.3875 O   0  0  0  0  0  0  0  0  0  0  0  0
  -16.1057    1.1384    6.8939 N   0  0  0  0  0  0  0  0  0  0  0  0
  1  2  1  0
  2  3  1  0
  3  4  1  0
  4  5  2  0
  5  6  1  0
  6  7  2  0
  7  8  1  0
  8  9  2  0
  7 10  1  0
  3 11  1  0
 11 12  2  0
 11 13  1  0
 13 14  1  0
 14 15  1  0
 15 16  1  0
 16 17  1  0
 17 18  1  0
 16 19  1  0
 19 20  1  0
 20 21  2  0
 21 22  1  0
 22 23  2  0
 23 24  1  0
 24 25  2  0
 25 26  1  0
  2 27  1  0
  9  4  1  0
 18 13  1  0
 26 16  1  0
 25 20  1  0
M  END
$$$$
