
     RDKit          3D

 27 30  0  0  0  0  0  0  0  0999 V2000
    2.6376   -0.5425    9.4493 C   0  0  0  0  0  0  0  0  0  0  0  0
    1.9778    0.4239    8.5196 C   0  0  0  0  0  0  0  0  0  0  0  0
    0.4959    0.2498    8.3484 C   0  0  0  0  0  0  0  0  0  0  0  0
   -0.1634   -0.3112    9.5514 C   0  0  0  0  0  0  0  0  0  0  0  0
    0.0590   -1.5894   10.0176 C   0  0  0  0  0  0  0  0  0  0  0  0
   -0.5349   -2.1302   11.1272 C   0  0  0  0  0  0  0  0  0  0  0  0
   -1.4198   -1.3589   11.8413 C   0  0  0  0  0  0  0  0  0  0  0  0
   -1.6871   -0.0715   11.4292 C   0  0  0  0  0  0  0  0  0  0  0  0
   -1.0701    0.4450   10.3037 C   0  0  0  0  0  0  0  0  0  0  0  0
   -2.2009   -2.0048   13.2616 Cl  0  0  0  0  0  0  0  0  0  0  0  0
    0.1245   -0.5193    7.1415 C   0  0  0  0  0  0  0  0  0  0  0  0
    0.5471   -1.7049    7.0913 O   0  0  0  0  0  0  0  0  0  0  0  0
   -0.6554   -0.0071    6.0763 N   0  0  0  0  0  0  0  0  0  0  0  0
   -0.6620    1.4305    5.8444 C   0  0  0  0  0  0  0  0  0  0  0  0
   -2.0953    1.9119    5.9092 C   0  0  0  0  0  0  0  0  0  0  0  0
   -2.7682    1.3030    4.6897 C   0  0  0  0  0  0  0  0  0  0  0  0
   -2.7126   -0.1801    4.7068 C   0  0  0  0  0  0  0  0  0  0  0  0
   -1.4540   -0.8008    5.1971 C   0  0  0  0  0  0  0  0  0  0  0  0
   -4.1496    1.6820    4.7852 O   0  0  0  0  0  0  0  0  0  0  0  0
   -4.5291    2.2813    3.5935 C   0  0  0  0  0  0  0  0  0  0  0  0
   -5.7371    2.7265    3.1000 C   0  0  0  0  0  0  0  0  0  0  0  0
   -5.8057    3.2914    1.8545 C   0  0  0  0  0  0  0  0  0  0  0  0
   -4.6969    3.4296    1.0736 C   0  0  0  0  0  0  0  0  0  0  0  0
   -3.4768    2.9791    1.5739 C   0  0  0  0  0  0  0  0  0  0  0  0
   -3.4057    2.4096    2.8287 C   0  0  0  0  0  0  0  0  0  0  0  0
   -2.3128    1.9011    3.5138 O   0  0  0  0  0  0  0  0  0  0  0  0
    2.3521    1.7541    8.8938 N   0  0  0  0  0  0  0  0  0  0  0  0
  1  2  1  0
  2  3  1  0
  3  4  1  0
  4  5  2  0
  5  6  1  0
  6  7  2  0
  7  8  1  0
  8  9  2  0
  7 10  1  0
  3 11  1  0
 11 12  2  0
 11 13  1  0
 13 14  1  0
 14 15  1  0
 15 16  1  0
 16 17  1  0
 17 18  1  0
 16 19  1  0
 19 20  1  0
 20 21  2  0
 21 22  1  0
 22 23  2  0
 23 24  1  0
 24 25  2  0
 25 26  1  0
  2 27  1  0
  9  4  1  0
 18 13  1  0
 26 16  1  0
 25 20  1  0
M  END
$$$$
