
     RDKit          3D

 27 30  0  0  0  0  0  0  0  0999 V2000
   -0.6136   -3.1540   11.0719 C   0  0  0  0  0  0  0  0  0  0  0  0
   -1.1975   -1.8104   10.7764 C   0  0  0  0  0  0  0  0  0  0  0  0
   -0.4540   -0.9893    9.7622 C   0  0  0  0  0  0  0  0  0  0  0  0
    1.0019   -0.9181   10.0306 C   0  0  0  0  0  0  0  0  0  0  0  0
    1.9528   -0.7593    9.0452 C   0  0  0  0  0  0  0  0  0  0  0  0
    3.3026   -0.6879    9.2670 C   0  0  0  0  0  0  0  0  0  0  0  0
    3.7627   -0.7793   10.5585 C   0  0  0  0  0  0  0  0  0  0  0  0
    2.8645   -0.9390   11.5912 C   0  0  0  0  0  0  0  0  0  0  0  0
    1.5069   -1.0074   11.3332 C   0  0  0  0  0  0  0  0  0  0  0  0
    5.4736   -0.6937   10.8899 Cl  0  0  0  0  0  0  0  0  0  0  0  0
   -1.0169    0.3637    9.5665 C   0  0  0  0  0  0  0  0  0  0  0  0
   -0.8815    1.1622   10.5313 O   0  0  0  0  0  0  0  0  0  0  0  0
   -1.6777    0.7916    8.3893 N   0  0  0  0  0  0  0  0  0  0  0  0
   -1.9560   -0.1889    7.3495 C   0  0  0  0  0  0  0  0  0  0  0  0
   -1.3167    0.2919    6.0648 C   0  0  0  0  0  0  0  0  0  0  0  0
   -2.1068    1.5304    5.6740 C   0  0  0  0  0  0  0  0  0  0  0  0
   -2.0412    2.5836    6.7178 C   0  0  0  0  0  0  0  0  0  0  0  0
   -2.0975    2.1328    8.1332 C   0  0  0  0  0  0  0  0  0  0  0  0
   -1.4565    2.0458    4.5026 O   0  0  0  0  0  0  0  0  0  0  0  0
   -2.4050    2.2107    3.5043 C   0  0  0  0  0  0  0  0  0  0  0  0
   -2.3643    2.7615    2.2410 C   0  0  0  0  0  0  0  0  0  0  0  0
   -3.4910    2.7833    1.4630 C   0  0  0  0  0  0  0  0  0  0  0  0
   -4.6725    2.2681    1.9069 C   0  0  0  0  0  0  0  0  0  0  0  0
   -4.7118    1.7119    3.1840 C   0  0  0  0  0  0  0  0  0  0  0  0
   -3.5776    1.6890    3.9693 C   0  0  0  0  0  0  0  0  0  0  0  0
   -3.3931    1.1926    5.2507 O   0  0  0  0  0  0  0  0  0  0  0  0
   -2.5869   -1.9678   10.4689 N   0  0  0  0  0  0  0  0  0  0  0  0
  1  2  1  0
  2  3  1  0
  3  4  1  0
  4  5  2  0
  5  6  1  0
  6  7  2  0
  7  8  1  0
  8  9  2  0
  7 10  1  0
  3 11  1  0
 11 12  2  0
 11 13  1  0
 13 14  1  0
 14 15  1  0
 15 16  1  0
 16 17  1  0
 17 18  1  0
 16 19  1  0
 19 20  1  0
 20 21  2  0
 21 22  1  0
 22 23  2  0
 23 24  1  0
 24 25  2  0
 25 26  1  0
  2 27  1  0
  9  4  1  0
 18 13  1  0
 26 16  1  0
 25 20  1  0
M  END
$$$$
