
     RDKit          3D

 27 30  0  0  0  0  0  0  0  0999 V2000
   -0.8652   -1.3831   11.6572 C   0  0  0  0  0  0  0  0  0  0  0  0
   -0.8111   -1.1379   10.1839 C   0  0  0  0  0  0  0  0  0  0  0  0
   -0.5633    0.2850    9.7723 C   0  0  0  0  0  0  0  0  0  0  0  0
   -1.8073    1.0855    9.6801 C   0  0  0  0  0  0  0  0  0  0  0  0
   -2.3462    1.5240    8.4894 C   0  0  0  0  0  0  0  0  0  0  0  0
   -3.4947    2.2620    8.3770 C   0  0  0  0  0  0  0  0  0  0  0  0
   -4.1739    2.6002    9.5226 C   0  0  0  0  0  0  0  0  0  0  0  0
   -3.6890    2.1932   10.7465 C   0  0  0  0  0  0  0  0  0  0  0  0
   -2.5257    1.4485   10.8255 C   0  0  0  0  0  0  0  0  0  0  0  0
   -5.6415    3.5392    9.4292 Cl  0  0  0  0  0  0  0  0  0  0  0  0
    0.2350    0.4140    8.5345 C   0  0  0  0  0  0  0  0  0  0  0  0
    1.4431    0.7356    8.6884 O   0  0  0  0  0  0  0  0  0  0  0  0
   -0.2735    0.2014    7.2300 N   0  0  0  0  0  0  0  0  0  0  0  0
    0.6364    0.3155    6.0990 C   0  0  0  0  0  0  0  0  0  0  0  0
    0.0826    1.3578    5.1517 C   0  0  0  0  0  0  0  0  0  0  0  0
   -1.1867    0.7396    4.5882 C   0  0  0  0  0  0  0  0  0  0  0  0
   -2.1712    0.4240    5.6531 C   0  0  0  0  0  0  0  0  0  0  0  0
   -1.6328   -0.1182    6.9283 C   0  0  0  0  0  0  0  0  0  0  0  0
   -1.7677    1.7523    3.7529 O   0  0  0  0  0  0  0  0  0  0  0  0
   -2.0057    1.2106    2.4985 C   0  0  0  0  0  0  0  0  0  0  0  0
   -2.6345    1.6838    1.3665 C   0  0  0  0  0  0  0  0  0  0  0  0
   -2.7178    0.8999    0.2468 C   0  0  0  0  0  0  0  0  0  0  0  0
   -2.1887   -0.3561    0.2164 C   0  0  0  0  0  0  0  0  0  0  0  0
   -1.5536   -0.8328    1.3614 C   0  0  0  0  0  0  0  0  0  0  0  0
   -1.4687   -0.0443    2.4906 C   0  0  0  0  0  0  0  0  0  0  0  0
   -0.8905   -0.3136    3.7217 O   0  0  0  0  0  0  0  0  0  0  0  0
    0.1061   -2.0657    9.5944 N   0  0  0  0  0  0  0  0  0  0  0  0
  1  2  1  0
  2  3  1  0
  3  4  1  0
  4  5  2  0
  5  6  1  0
  6  7  2  0
  7  8  1  0
  8  9  2  0
  7 10  1  0
  3 11  1  0
 11 12  2  0
 11 13  1  0
 13 14  1  0
 14 15  1  0
 15 16  1  0
 16 17  1  0
 17 18  1  0
 16 19  1  0
 19 20  1  0
 20 21  2  0
 21 22  1  0
 22 23  2  0
 23 24  1  0
 24 25  2  0
 25 26  1  0
  2 27  1  0
  9  4  1  0
 18 13  1  0
 26 16  1  0
 25 20  1  0
M  END
$$$$
