
     RDKit          3D

 27 30  0  0  0  0  0  0  0  0999 V2000
   -9.8424    0.6949   10.9575 C   0  0  0  0  0  0  0  0  0  0  0  0
   -9.5003    1.9001   10.1425 C   0  0  0  0  0  0  0  0  0  0  0  0
   -8.0870    1.9615    9.6380 C   0  0  0  0  0  0  0  0  0  0  0  0
   -7.0810    1.8127   10.7162 C   0  0  0  0  0  0  0  0  0  0  0  0
   -6.5700    0.5979   11.1209 C   0  0  0  0  0  0  0  0  0  0  0  0
   -5.6386    0.4338   12.1118 C   0  0  0  0  0  0  0  0  0  0  0  0
   -5.1666    1.5484   12.7619 C   0  0  0  0  0  0  0  0  0  0  0  0
   -5.6362    2.7939   12.4058 C   0  0  0  0  0  0  0  0  0  0  0  0
   -6.5774    2.9254   11.4002 C   0  0  0  0  0  0  0  0  0  0  0  0
   -3.9796    1.3888   14.0308 Cl  0  0  0  0  0  0  0  0  0  0  0  0
   -7.8016    3.1578    8.8174 C   0  0  0  0  0  0  0  0  0  0  0  0
   -8.3832    4.2187    9.1681 O   0  0  0  0  0  0  0  0  0  0  0  0
   -6.9371    3.1696    7.6958 N   0  0  0  0  0  0  0  0  0  0  0  0
   -6.3836    1.9068    7.2279 C   0  0  0  0  0  0  0  0  0  0  0  0
   -4.8745    2.0212    7.2371 C   0  0  0  0  0  0  0  0  0  0  0  0
   -4.5520    3.0318    6.1483 C   0  0  0  0  0  0  0  0  0  0  0  0
   -5.1789    4.3512    6.4113 C   0  0  0  0  0  0  0  0  0  0  0  0
   -6.5542    4.3424    6.9756 C   0  0  0  0  0  0  0  0  0  0  0  0
   -3.1291    3.2138    6.2040 O   0  0  0  0  0  0  0  0  0  0  0  0
   -2.6054    3.0102    4.9360 C   0  0  0  0  0  0  0  0  0  0  0  0
   -1.3451    3.1588    4.3970 C   0  0  0  0  0  0  0  0  0  0  0  0
   -1.1234    2.8734    3.0762 C   0  0  0  0  0  0  0  0  0  0  0  0
   -2.1281    2.4392    2.2635 C   0  0  0  0  0  0  0  0  0  0  0  0
   -3.4012    2.2897    2.8100 C   0  0  0  0  0  0  0  0  0  0  0  0
   -3.6265    2.5768    4.1406 C   0  0  0  0  0  0  0  0  0  0  0  0
   -4.7961    2.5000    4.8812 O   0  0  0  0  0  0  0  0  0  0  0  0
  -10.4780    2.0508    9.1076 N   0  0  0  0  0  0  0  0  0  0  0  0
  1  2  1  0
  2  3  1  0
  3  4  1  0
  4  5  2  0
  5  6  1  0
  6  7  2  0
  7  8  1  0
  8  9  2  0
  7 10  1  0
  3 11  1  0
 11 12  2  0
 11 13  1  0
 13 14  1  0
 14 15  1  0
 15 16  1  0
 16 17  1  0
 17 18  1  0
 16 19  1  0
 19 20  1  0
 20 21  2  0
 21 22  1  0
 22 23  2  0
 23 24  1  0
 24 25  2  0
 25 26  1  0
  2 27  1  0
  9  4  1  0
 18 13  1  0
 26 16  1  0
 25 20  1  0
M  END
$$$$
