
     RDKit          3D

 27 30  0  0  0  0  0  0  0  0999 V2000
   -0.0580   -0.7446    4.0431 C   0  0  0  0  0  0  0  0  0  0  0  0
   -1.3129    0.0043    4.3563 C   0  0  0  0  0  0  0  0  0  0  0  0
   -1.2824    0.8227    5.6151 C   0  0  0  0  0  0  0  0  0  0  0  0
   -0.9593    0.0205    6.8189 C   0  0  0  0  0  0  0  0  0  0  0  0
   -1.6295   -1.1317    7.1706 C   0  0  0  0  0  0  0  0  0  0  0  0
   -1.3490   -1.8918    8.2751 C   0  0  0  0  0  0  0  0  0  0  0  0
   -0.3291   -1.4940    9.1056 C   0  0  0  0  0  0  0  0  0  0  0  0
    0.3814   -0.3506    8.8113 C   0  0  0  0  0  0  0  0  0  0  0  0
    0.0727    0.3949    7.6874 C   0  0  0  0  0  0  0  0  0  0  0  0
    0.0646   -2.4302   10.5243 Cl  0  0  0  0  0  0  0  0  0  0  0  0
   -2.5067    1.6227    5.8324 C   0  0  0  0  0  0  0  0  0  0  0  0
   -3.5871    1.0876    5.4677 O   0  0  0  0  0  0  0  0  0  0  0  0
   -2.5243    2.9155    6.4101 N   0  0  0  0  0  0  0  0  0  0  0  0
   -1.2562    3.5893    6.6518 C   0  0  0  0  0  0  0  0  0  0  0  0
   -1.1792    3.9351    8.1232 C   0  0  0  0  0  0  0  0  0  0  0  0
   -2.2469    4.9967    8.3322 C   0  0  0  0  0  0  0  0  0  0  0  0
   -3.6008    4.4998    7.9812 C   0  0  0  0  0  0  0  0  0  0  0  0
   -3.7069    3.6235    6.7851 C   0  0  0  0  0  0  0  0  0  0  0  0
   -2.2426    5.2721    9.7411 O   0  0  0  0  0  0  0  0  0  0  0  0
   -2.1052    6.6397    9.9258 C   0  0  0  0  0  0  0  0  0  0  0  0
   -2.1488    7.4542   11.0374 C   0  0  0  0  0  0  0  0  0  0  0  0
   -1.9739    8.8061   10.9074 C   0  0  0  0  0  0  0  0  0  0  0  0
   -1.7541    9.3816    9.6913 C   0  0  0  0  0  0  0  0  0  0  0  0
   -1.7103    8.5569    8.5689 C   0  0  0  0  0  0  0  0  0  0  0  0
   -1.8864    7.1945    8.6980 C   0  0  0  0  0  0  0  0  0  0  0  0
   -1.8817    6.2017    7.7302 O   0  0  0  0  0  0  0  0  0  0  0  0
   -1.7029    0.7557    3.2017 N   0  0  0  0  0  0  0  0  0  0  0  0
  1  2  1  0
  2  3  1  0
  3  4  1  0
  4  5  2  0
  5  6  1  0
  6  7  2  0
  7  8  1  0
  8  9  2  0
  7 10  1  0
  3 11  1  0
 11 12  2  0
 11 13  1  0
 13 14  1  0
 14 15  1  0
 15 16  1  0
 16 17  1  0
 17 18  1  0
 16 19  1  0
 19 20  1  0
 20 21  2  0
 21 22  1  0
 22 23  2  0
 23 24  1  0
 24 25  2  0
 25 26  1  0
  2 27  1  0
  9  4  1  0
 18 13  1  0
 26 16  1  0
 25 20  1  0
M  END
$$$$
