
     RDKit          3D

 27 30  0  0  0  0  0  0  0  0999 V2000
  -10.6926    1.8812   12.7798 C   0  0  0  0  0  0  0  0  0  0  0  0
   -9.6867    1.2262   11.8894 C   0  0  0  0  0  0  0  0  0  0  0  0
   -9.2567    2.0301   10.6959 C   0  0  0  0  0  0  0  0  0  0  0  0
  -10.3980    2.5247    9.8901 C   0  0  0  0  0  0  0  0  0  0  0  0
  -10.7456    3.8554    9.7953 C   0  0  0  0  0  0  0  0  0  0  0  0
  -11.7930    4.3381    9.0561 C   0  0  0  0  0  0  0  0  0  0  0  0
  -12.5655    3.4475    8.3505 C   0  0  0  0  0  0  0  0  0  0  0  0
  -12.2720    2.1022    8.4019 C   0  0  0  0  0  0  0  0  0  0  0  0
  -11.2067    1.6471    9.1583 C   0  0  0  0  0  0  0  0  0  0  0  0
  -13.9103    4.0156    7.3948 Cl  0  0  0  0  0  0  0  0  0  0  0  0
   -8.2714    1.3378    9.8381 C   0  0  0  0  0  0  0  0  0  0  0  0
   -8.3344    0.0797    9.8306 O   0  0  0  0  0  0  0  0  0  0  0  0
   -7.2945    1.9958    9.0519 N   0  0  0  0  0  0  0  0  0  0  0  0
   -6.5647    1.2243    8.0557 C   0  0  0  0  0  0  0  0  0  0  0  0
   -5.0860    1.3514    8.3515 C   0  0  0  0  0  0  0  0  0  0  0  0
   -4.7522    2.8056    8.0603 C   0  0  0  0  0  0  0  0  0  0  0  0
   -5.5377    3.7366    8.9083 C   0  0  0  0  0  0  0  0  0  0  0  0
   -6.9584    3.3799    9.1618 C   0  0  0  0  0  0  0  0  0  0  0  0
   -3.3707    2.9605    8.4187 O   0  0  0  0  0  0  0  0  0  0  0  0
   -2.6922    3.5135    7.3428 C   0  0  0  0  0  0  0  0  0  0  0  0
   -1.4025    3.9691    7.1696 C   0  0  0  0  0  0  0  0  0  0  0  0
   -1.0082    4.4762    5.9603 C   0  0  0  0  0  0  0  0  0  0  0  0
   -1.8668    4.5457    4.9037 C   0  0  0  0  0  0  0  0  0  0  0  0
   -3.1699    4.0848    5.0805 C   0  0  0  0  0  0  0  0  0  0  0  0
   -3.5689    3.5734    6.2983 C   0  0  0  0  0  0  0  0  0  0  0  0
   -4.7987    3.0669    6.6902 O   0  0  0  0  0  0  0  0  0  0  0  0
   -8.5905    0.7688   12.6887 N   0  0  0  0  0  0  0  0  0  0  0  0
  1  2  1  0
  2  3  1  0
  3  4  1  0
  4  5  2  0
  5  6  1  0
  6  7  2  0
  7  8  1  0
  8  9  2  0
  7 10  1  0
  3 11  1  0
 11 12  2  0
 11 13  1  0
 13 14  1  0
 14 15  1  0
 15 16  1  0
 16 17  1  0
 17 18  1  0
 16 19  1  0
 19 20  1  0
 20 21  2  0
 21 22  1  0
 22 23  2  0
 23 24  1  0
 24 25  2  0
 25 26  1  0
  2 27  1  0
  9  4  1  0
 18 13  1  0
 26 16  1  0
 25 20  1  0
M  END
$$$$
