
     RDKit          3D

 25 28  0  0  0  0  0  0  0  0999 V2000
    1.2273    1.8907    6.5194 C   0  0  0  0  0  0  0  0  0  0  0  0
    2.3988    1.2335    6.8056 C   0  0  0  0  0  0  0  0  0  0  0  0
    2.8713    1.6755    7.9337 O   0  0  0  0  0  0  0  0  0  0  0  0
    2.0743    2.6095    8.4364 C   0  0  0  0  0  0  0  0  0  0  0  0
    1.0228    2.7674    7.5608 C   0  0  0  0  0  0  0  0  0  0  0  0
    2.2549    3.3528    9.6902 C   0  0  0  0  0  0  0  0  0  0  0  0
    3.1909    3.2078   10.6371 N   0  0  0  0  0  0  0  0  0  0  0  0
    2.9970    4.0888   11.6224 N   0  0  0  0  0  0  0  0  0  0  0  0
    3.6360    4.3540   12.7742 C   0  0  0  0  0  0  0  0  0  0  0  0
    3.2297    5.3185   13.6142 N   0  0  0  0  0  0  0  0  0  0  0  0
    2.1346    6.0595   13.2995 C   0  0  0  0  0  0  0  0  0  0  0  0
    1.4975    5.7916   12.1463 N   0  0  0  0  0  0  0  0  0  0  0  0
    1.9142    4.8229   11.3132 C   0  0  0  0  0  0  0  0  0  0  0  0
    1.4672    4.3566   10.1174 N   0  0  0  0  0  0  0  0  0  0  0  0
    1.6593    7.0867   14.1496 N   0  0  0  0  0  0  0  0  0  0  0  0
    1.0731    8.2890   13.6206 C   0  0  0  0  0  0  0  0  0  0  0  0
    2.0648    9.4081   13.5352 C   0  0  0  0  0  0  0  0  0  0  0  0
    1.4289   10.5880   12.9041 C   0  0  0  0  0  0  0  0  0  0  0  0
    0.7858   10.5382   11.6863 C   0  0  0  0  0  0  0  0  0  0  0  0
    0.2206   11.7036   11.1706 C   0  0  0  0  0  0  0  0  0  0  0  0
    0.2829   12.8923   11.8322 C   0  0  0  0  0  0  0  0  0  0  0  0
    0.9200   12.9584   13.0465 C   0  0  0  0  0  0  0  0  0  0  0  0
    1.4862   11.8122   13.5726 C   0  0  0  0  0  0  0  0  0  0  0  0
   -0.3075   14.0253   11.2550 O   0  0  0  0  0  0  0  0  0  0  0  0
    4.7860    3.6044   13.1452 N   0  0  0  0  0  0  0  0  0  0  0  0
  1  2  2  0
  2  3  1  0
  3  4  1  0
  4  5  2  0
  4  6  1  0
  6  7  2  0
  7  8  1  0
  8  9  1  0
  9 10  2  0
 10 11  1  0
 11 12  2  0
 12 13  1  0
 13 14  2  0
 11 15  1  0
 15 16  1  0
 16 17  1  0
 17 18  1  0
 18 19  2  0
 19 20  1  0
 20 21  2  0
 21 22  1  0
 22 23  2  0
 21 24  1  0
  9 25  1  0
  5  1  1  0
 14  6  1  0
 13  8  1  0
 23 18  1  0
M  END
$$$$
