
     RDKit          3D

 25 28  0  0  0  0  0  0  0  0999 V2000
    1.6142    0.0562    6.5498 C   0  0  0  0  0  0  0  0  0  0  0  0
    0.3019    0.0949    6.9529 C   0  0  0  0  0  0  0  0  0  0  0  0
    0.1693    0.9878    7.8891 O   0  0  0  0  0  0  0  0  0  0  0  0
    1.3354    1.5655    8.1477 C   0  0  0  0  0  0  0  0  0  0  0  0
    2.2709    0.9948    7.3132 C   0  0  0  0  0  0  0  0  0  0  0  0
    1.6070    2.6193    9.1340 C   0  0  0  0  0  0  0  0  0  0  0  0
    0.7637    3.2394    9.9695 N   0  0  0  0  0  0  0  0  0  0  0  0
    1.4176    4.1414   10.7067 N   0  0  0  0  0  0  0  0  0  0  0  0
    1.0472    5.0054   11.6666 C   0  0  0  0  0  0  0  0  0  0  0  0
    1.9210    5.8272   12.2681 N   0  0  0  0  0  0  0  0  0  0  0  0
    3.2294    5.7933   11.9018 C   0  0  0  0  0  0  0  0  0  0  0  0
    3.5970    4.9277   10.9410 N   0  0  0  0  0  0  0  0  0  0  0  0
    2.7122    4.1096   10.3460 C   0  0  0  0  0  0  0  0  0  0  0  0
    2.8133    3.1649    9.3741 N   0  0  0  0  0  0  0  0  0  0  0  0
    4.1938    6.6397   12.4997 N   0  0  0  0  0  0  0  0  0  0  0  0
    3.9378    7.3069   13.7479 C   0  0  0  0  0  0  0  0  0  0  0  0
    4.3617    6.4822   14.9240 C   0  0  0  0  0  0  0  0  0  0  0  0
    3.7706    7.0419   16.1618 C   0  0  0  0  0  0  0  0  0  0  0  0
    4.0440    6.5486   17.4193 C   0  0  0  0  0  0  0  0  0  0  0  0
    3.4357    7.1396   18.5258 C   0  0  0  0  0  0  0  0  0  0  0  0
    2.5783    8.1906   18.4049 C   0  0  0  0  0  0  0  0  0  0  0  0
    2.2956    8.6937   17.1591 C   0  0  0  0  0  0  0  0  0  0  0  0
    2.8901    8.1196   16.0509 C   0  0  0  0  0  0  0  0  0  0  0  0
    2.0020    8.7365   19.5605 O   0  0  0  0  0  0  0  0  0  0  0  0
   -0.3110    5.0764   12.0821 N   0  0  0  0  0  0  0  0  0  0  0  0
  1  2  2  0
  2  3  1  0
  3  4  1  0
  4  5  2  0
  4  6  1  0
  6  7  2  0
  7  8  1  0
  8  9  1  0
  9 10  2  0
 10 11  1  0
 11 12  2  0
 12 13  1  0
 13 14  2  0
 11 15  1  0
 15 16  1  0
 16 17  1  0
 17 18  1  0
 18 19  2  0
 19 20  1  0
 20 21  2  0
 21 22  1  0
 22 23  2  0
 21 24  1  0
  9 25  1  0
  5  1  1  0
 14  6  1  0
 13  8  1  0
 23 18  1  0
M  END
$$$$
