
     RDKit          3D

 25 28  0  0  0  0  0  0  0  0999 V2000
    1.6794    0.3836    6.3169 C   0  0  0  0  0  0  0  0  0  0  0  0
    2.9538    0.0563    6.7105 C   0  0  0  0  0  0  0  0  0  0  0  0
    3.2894    0.7950    7.7269 O   0  0  0  0  0  0  0  0  0  0  0  0
    2.2995    1.6173    8.0497 C   0  0  0  0  0  0  0  0  0  0  0  0
    1.2647    1.3791    7.1724 C   0  0  0  0  0  0  0  0  0  0  0  0
    2.2828    2.6069    9.1347 C   0  0  0  0  0  0  0  0  0  0  0  0
    3.1267    2.7538   10.1644 N   0  0  0  0  0  0  0  0  0  0  0  0
    2.7538    3.7839   10.9288 N   0  0  0  0  0  0  0  0  0  0  0  0
    3.2452    4.3381   12.0498 C   0  0  0  0  0  0  0  0  0  0  0  0
    2.6692    5.3978   12.6381 N   0  0  0  0  0  0  0  0  0  0  0  0
    1.5490    5.9380   12.0899 C   0  0  0  0  0  0  0  0  0  0  0  0
    1.0598    5.3812   10.9682 N   0  0  0  0  0  0  0  0  0  0  0  0
    1.6459    4.3198   10.3883 C   0  0  0  0  0  0  0  0  0  0  0  0
    1.3675    3.5822    9.2813 N   0  0  0  0  0  0  0  0  0  0  0  0
    0.8977    7.0533   12.6695 N   0  0  0  0  0  0  0  0  0  0  0  0
    1.5789    7.9296   13.5844 C   0  0  0  0  0  0  0  0  0  0  0  0
    1.7983    7.2883   14.9199 C   0  0  0  0  0  0  0  0  0  0  0  0
    2.7033    8.1330   15.7337 C   0  0  0  0  0  0  0  0  0  0  0  0
    3.2356    9.3215   15.2828 C   0  0  0  0  0  0  0  0  0  0  0  0
    4.0820   10.0459   16.1211 C   0  0  0  0  0  0  0  0  0  0  0  0
    4.4008    9.6168   17.3735 C   0  0  0  0  0  0  0  0  0  0  0  0
    3.8786    8.4349   17.8375 C   0  0  0  0  0  0  0  0  0  0  0  0
    3.0375    7.7038   17.0194 C   0  0  0  0  0  0  0  0  0  0  0  0
    5.2584   10.3957   18.1630 O   0  0  0  0  0  0  0  0  0  0  0  0
    4.4150    3.8066   12.6593 N   0  0  0  0  0  0  0  0  0  0  0  0
  1  2  2  0
  2  3  1  0
  3  4  1  0
  4  5  2  0
  4  6  1  0
  6  7  2  0
  7  8  1  0
  8  9  1  0
  9 10  2  0
 10 11  1  0
 11 12  2  0
 12 13  1  0
 13 14  2  0
 11 15  1  0
 15 16  1  0
 16 17  1  0
 17 18  1  0
 18 19  2  0
 19 20  1  0
 20 21  2  0
 21 22  1  0
 22 23  2  0
 21 24  1  0
  9 25  1  0
  5  1  1  0
 14  6  1  0
 13  8  1  0
 23 18  1  0
M  END
$$$$
