
     RDKit          3D

 25 28  0  0  0  0  0  0  0  0999 V2000
    1.1596    0.4565    6.8557 C   0  0  0  0  0  0  0  0  0  0  0  0
    2.3920   -0.0035    7.2504 C   0  0  0  0  0  0  0  0  0  0  0  0
    2.8558    0.7695    8.1877 O   0  0  0  0  0  0  0  0  0  0  0  0
    1.9944    1.7427    8.4550 C   0  0  0  0  0  0  0  0  0  0  0  0
    0.9086    1.5698    7.6253 C   0  0  0  0  0  0  0  0  0  0  0  0
    2.1447    2.8168    9.4452 C   0  0  0  0  0  0  0  0  0  0  0  0
    3.1075    3.0036   10.3573 N   0  0  0  0  0  0  0  0  0  0  0  0
    2.8689    4.1102   11.0665 N   0  0  0  0  0  0  0  0  0  0  0  0
    3.5094    4.7278   12.0732 C   0  0  0  0  0  0  0  0  0  0  0  0
    3.0500    5.8600   12.6283 N   0  0  0  0  0  0  0  0  0  0  0  0
    1.8972    6.4104   12.1641 C   0  0  0  0  0  0  0  0  0  0  0  0
    1.2587    5.7900   11.1567 N   0  0  0  0  0  0  0  0  0  0  0  0
    1.7290    4.6564   10.6090 C   0  0  0  0  0  0  0  0  0  0  0  0
    1.2939    3.8464    9.6082 N   0  0  0  0  0  0  0  0  0  0  0  0
    1.3645    7.6010   12.7141 N   0  0  0  0  0  0  0  0  0  0  0  0
    2.1692    8.4857   13.5133 C   0  0  0  0  0  0  0  0  0  0  0  0
    3.1391    7.7388   14.3762 C   0  0  0  0  0  0  0  0  0  0  0  0
    2.7879    7.9344   15.8021 C   0  0  0  0  0  0  0  0  0  0  0  0
    1.9147    8.9073   16.2382 C   0  0  0  0  0  0  0  0  0  0  0  0
    1.6491    9.0169   17.6024 C   0  0  0  0  0  0  0  0  0  0  0  0
    2.2252    8.1924   18.5204 C   0  0  0  0  0  0  0  0  0  0  0  0
    3.0971    7.2179   18.1020 C   0  0  0  0  0  0  0  0  0  0  0  0
    3.3719    7.0953   16.7527 C   0  0  0  0  0  0  0  0  0  0  0  0
    1.9128    8.3588   19.8769 O   0  0  0  0  0  0  0  0  0  0  0  0
    4.7188    4.1884   12.5917 N   0  0  0  0  0  0  0  0  0  0  0  0
  1  2  2  0
  2  3  1  0
  3  4  1  0
  4  5  2  0
  4  6  1  0
  6  7  2  0
  7  8  1  0
  8  9  1  0
  9 10  2  0
 10 11  1  0
 11 12  2  0
 12 13  1  0
 13 14  2  0
 11 15  1  0
 15 16  1  0
 16 17  1  0
 17 18  1  0
 18 19  2  0
 19 20  1  0
 20 21  2  0
 21 22  1  0
 22 23  2  0
 21 24  1  0
  9 25  1  0
  5  1  1  0
 14  6  1  0
 13  8  1  0
 23 18  1  0
M  END
$$$$
