
     RDKit          3D

 25 28  0  0  0  0  0  0  0  0999 V2000
    1.6999    0.4743    6.2659 C   0  0  0  0  0  0  0  0  0  0  0  0
    3.0020    0.2752    6.6547 C   0  0  0  0  0  0  0  0  0  0  0  0
    3.2645    1.0392    7.6739 O   0  0  0  0  0  0  0  0  0  0  0  0
    2.1978    1.7562    8.0032 C   0  0  0  0  0  0  0  0  0  0  0  0
    1.1896    1.4190    7.1273 C   0  0  0  0  0  0  0  0  0  0  0  0
    2.0849    2.7340    9.0931 C   0  0  0  0  0  0  0  0  0  0  0  0
    2.9185    2.9682   10.1149 N   0  0  0  0  0  0  0  0  0  0  0  0
    2.4437    3.9488   10.8880 N   0  0  0  0  0  0  0  0  0  0  0  0
    2.8835    4.5490   12.0066 C   0  0  0  0  0  0  0  0  0  0  0  0
    2.2017    5.5375   12.6059 N   0  0  0  0  0  0  0  0  0  0  0  0
    1.0236    5.9543   12.0716 C   0  0  0  0  0  0  0  0  0  0  0  0
    0.5862    5.3517   10.9522 N   0  0  0  0  0  0  0  0  0  0  0  0
    1.2783    4.3627   10.3613 C   0  0  0  0  0  0  0  0  0  0  0  0
    1.0703    3.6032    9.2535 N   0  0  0  0  0  0  0  0  0  0  0  0
    0.2609    6.9898   12.6631 N   0  0  0  0  0  0  0  0  0  0  0  0
    0.8878    8.1410   13.2552 C   0  0  0  0  0  0  0  0  0  0  0  0
    1.6564    7.7896   14.4916 C   0  0  0  0  0  0  0  0  0  0  0  0
    2.7258    8.7906   14.7129 C   0  0  0  0  0  0  0  0  0  0  0  0
    3.7288    8.6307   15.6443 C   0  0  0  0  0  0  0  0  0  0  0  0
    4.6902    9.6309   15.7830 C   0  0  0  0  0  0  0  0  0  0  0  0
    4.6708   10.7632   15.0267 C   0  0  0  0  0  0  0  0  0  0  0  0
    3.6782   10.9374   14.0943 C   0  0  0  0  0  0  0  0  0  0  0  0
    2.7168    9.9555   13.9436 C   0  0  0  0  0  0  0  0  0  0  0  0
    5.6693   11.7283   15.2189 O   0  0  0  0  0  0  0  0  0  0  0  0
    4.1106    4.1459   12.6017 N   0  0  0  0  0  0  0  0  0  0  0  0
  1  2  2  0
  2  3  1  0
  3  4  1  0
  4  5  2  0
  4  6  1  0
  6  7  2  0
  7  8  1  0
  8  9  1  0
  9 10  2  0
 10 11  1  0
 11 12  2  0
 12 13  1  0
 13 14  2  0
 11 15  1  0
 15 16  1  0
 16 17  1  0
 17 18  1  0
 18 19  2  0
 19 20  1  0
 20 21  2  0
 21 22  1  0
 22 23  2  0
 21 24  1  0
  9 25  1  0
  5  1  1  0
 14  6  1  0
 13  8  1  0
 23 18  1  0
M  END
$$$$
