
     RDKit          3D

 25 28  0  0  0  0  0  0  0  0999 V2000
    1.1818    0.6198    6.3639 C   0  0  0  0  0  0  0  0  0  0  0  0
    2.3199    0.0605    6.8911 C   0  0  0  0  0  0  0  0  0  0  0  0
    2.7213    0.7789    7.8981 O   0  0  0  0  0  0  0  0  0  0  0  0
    1.9073    1.8095    8.0864 C   0  0  0  0  0  0  0  0  0  0  0  0
    0.9210    1.7348    7.1279 C   0  0  0  0  0  0  0  0  0  0  0  0
    2.0139    2.8510    9.1165 C   0  0  0  0  0  0  0  0  0  0  0  0
    2.7789    2.8846   10.2153 N   0  0  0  0  0  0  0  0  0  0  0  0
    2.5752    4.0194   10.8901 N   0  0  0  0  0  0  0  0  0  0  0  0
    3.0782    4.5311   12.0260 C   0  0  0  0  0  0  0  0  0  0  0  0
    2.6983    5.7259   12.5045 N   0  0  0  0  0  0  0  0  0  0  0  0
    1.7730    6.4531   11.8246 C   0  0  0  0  0  0  0  0  0  0  0  0
    1.2716    5.9385   10.6883 N   0  0  0  0  0  0  0  0  0  0  0  0
    1.6602    4.7404   10.2193 C   0  0  0  0  0  0  0  0  0  0  0  0
    1.3233    4.0057    9.1266 N   0  0  0  0  0  0  0  0  0  0  0  0
    1.3328    7.7175   12.2844 N   0  0  0  0  0  0  0  0  0  0  0  0
    0.9629    7.9309   13.6579 C   0  0  0  0  0  0  0  0  0  0  0  0
    1.7488    7.0646   14.5933 C   0  0  0  0  0  0  0  0  0  0  0  0
    2.5507    7.9157   15.5029 C   0  0  0  0  0  0  0  0  0  0  0  0
    1.9903    8.7632   16.4340 C   0  0  0  0  0  0  0  0  0  0  0  0
    2.8279    9.5288   17.2439 C   0  0  0  0  0  0  0  0  0  0  0  0
    4.1846    9.4666   17.1453 C   0  0  0  0  0  0  0  0  0  0  0  0
    4.7584    8.6272   16.2228 C   0  0  0  0  0  0  0  0  0  0  0  0
    3.9426    7.8608   15.4114 C   0  0  0  0  0  0  0  0  0  0  0  0
    4.9668   10.2648   17.9918 O   0  0  0  0  0  0  0  0  0  0  0  0
    4.0484    3.8059   12.7712 N   0  0  0  0  0  0  0  0  0  0  0  0
  1  2  2  0
  2  3  1  0
  3  4  1  0
  4  5  2  0
  4  6  1  0
  6  7  2  0
  7  8  1  0
  8  9  1  0
  9 10  2  0
 10 11  1  0
 11 12  2  0
 12 13  1  0
 13 14  2  0
 11 15  1  0
 15 16  1  0
 16 17  1  0
 17 18  1  0
 18 19  2  0
 19 20  1  0
 20 21  2  0
 21 22  1  0
 22 23  2  0
 21 24  1  0
  9 25  1  0
  5  1  1  0
 14  6  1  0
 13  8  1  0
 23 18  1  0
M  END
$$$$
