
     RDKit          3D

 25 28  0  0  0  0  0  0  0  0999 V2000
    3.0357    0.4573    6.3771 C   0  0  0  0  0  0  0  0  0  0  0  0
    1.8818    1.0549    5.9328 C   0  0  0  0  0  0  0  0  0  0  0  0
    1.5429    1.9978    6.7620 O   0  0  0  0  0  0  0  0  0  0  0  0
    2.4152    2.0745    7.7587 C   0  0  0  0  0  0  0  0  0  0  0  0
    3.3736    1.1093    7.5414 C   0  0  0  0  0  0  0  0  0  0  0  0
    2.3886    3.0049    8.8948 C   0  0  0  0  0  0  0  0  0  0  0  0
    3.2238    3.0973    9.9377 N   0  0  0  0  0  0  0  0  0  0  0  0
    2.8436    4.0849   10.7529 N   0  0  0  0  0  0  0  0  0  0  0  0
    3.3252    4.5789   11.9058 C   0  0  0  0  0  0  0  0  0  0  0  0
    2.7432    5.6053   12.5450 N   0  0  0  0  0  0  0  0  0  0  0  0
    1.6268    6.1732   12.0172 C   0  0  0  0  0  0  0  0  0  0  0  0
    1.1474    5.6766   10.8635 N   0  0  0  0  0  0  0  0  0  0  0  0
    1.7395    4.6481   10.2327 C   0  0  0  0  0  0  0  0  0  0  0  0
    1.4710    3.9703    9.0856 N   0  0  0  0  0  0  0  0  0  0  0  0
    0.9696    7.2555   12.6501 N   0  0  0  0  0  0  0  0  0  0  0  0
    1.6858    8.4335   13.0606 C   0  0  0  0  0  0  0  0  0  0  0  0
    3.0576    8.1100   13.5670 C   0  0  0  0  0  0  0  0  0  0  0  0
    3.1276    8.3846   15.0212 C   0  0  0  0  0  0  0  0  0  0  0  0
    2.3461    9.3298   15.6497 C   0  0  0  0  0  0  0  0  0  0  0  0
    2.4864    9.5198   17.0237 C   0  0  0  0  0  0  0  0  0  0  0  0
    3.3722    8.8005   17.7670 C   0  0  0  0  0  0  0  0  0  0  0  0
    4.1579    7.8550   17.1557 C   0  0  0  0  0  0  0  0  0  0  0  0
    4.0318    7.6537   15.7939 C   0  0  0  0  0  0  0  0  0  0  0  0
    3.4611    9.0435   19.1449 O   0  0  0  0  0  0  0  0  0  0  0  0
    4.4906    4.0165   12.4956 N   0  0  0  0  0  0  0  0  0  0  0  0
  1  2  2  0
  2  3  1  0
  3  4  1  0
  4  5  2  0
  4  6  1  0
  6  7  2  0
  7  8  1  0
  8  9  1  0
  9 10  2  0
 10 11  1  0
 11 12  2  0
 12 13  1  0
 13 14  2  0
 11 15  1  0
 15 16  1  0
 16 17  1  0
 17 18  1  0
 18 19  2  0
 19 20  1  0
 20 21  2  0
 21 22  1  0
 22 23  2  0
 21 24  1  0
  9 25  1  0
  5  1  1  0
 14  6  1  0
 13  8  1  0
 23 18  1  0
M  END
$$$$
