
     RDKit          3D

 25 28  0  0  0  0  0  0  0  0999 V2000
    1.9040    0.5737    6.0951 C   0  0  0  0  0  0  0  0  0  0  0  0
    3.0566    0.0893    6.6635 C   0  0  0  0  0  0  0  0  0  0  0  0
    3.3115    0.7593    7.7485 O   0  0  0  0  0  0  0  0  0  0  0  0
    2.3828    1.6849    7.9512 C   0  0  0  0  0  0  0  0  0  0  0  0
    1.4766    1.5909    6.9181 C   0  0  0  0  0  0  0  0  0  0  0  0
    2.3098    2.6441    9.0609 C   0  0  0  0  0  0  0  0  0  0  0  0
    3.0681    2.7300   10.1616 N   0  0  0  0  0  0  0  0  0  0  0  0
    2.6690    3.7521   10.9235 N   0  0  0  0  0  0  0  0  0  0  0  0
    3.0831    4.2558   12.0982 C   0  0  0  0  0  0  0  0  0  0  0  0
    2.4978    5.3202   12.6686 N   0  0  0  0  0  0  0  0  0  0  0  0
    1.4481    5.9179   12.0455 C   0  0  0  0  0  0  0  0  0  0  0  0
    1.0361    5.4115   10.8702 N   0  0  0  0  0  0  0  0  0  0  0  0
    1.6308    4.3449   10.3090 C   0  0  0  0  0  0  0  0  0  0  0  0
    1.4209    3.6493    9.1603 N   0  0  0  0  0  0  0  0  0  0  0  0
    0.7906    7.0408   12.6027 N   0  0  0  0  0  0  0  0  0  0  0  0
    1.2418    7.6449   13.8276 C   0  0  0  0  0  0  0  0  0  0  0  0
    2.4688    8.4792   13.6249 C   0  0  0  0  0  0  0  0  0  0  0  0
    3.0705    8.8050   14.9389 C   0  0  0  0  0  0  0  0  0  0  0  0
    3.9755    7.9862   15.5790 C   0  0  0  0  0  0  0  0  0  0  0  0
    4.4846    8.3765   16.8168 C   0  0  0  0  0  0  0  0  0  0  0  0
    4.1164    9.5428   17.4156 C   0  0  0  0  0  0  0  0  0  0  0  0
    3.2159   10.3695   16.7908 C   0  0  0  0  0  0  0  0  0  0  0  0
    2.7009    9.9979   15.5628 C   0  0  0  0  0  0  0  0  0  0  0  0
    4.6682    9.8731   18.6614 O   0  0  0  0  0  0  0  0  0  0  0  0
    4.1772    3.6632   12.7867 N   0  0  0  0  0  0  0  0  0  0  0  0
  1  2  2  0
  2  3  1  0
  3  4  1  0
  4  5  2  0
  4  6  1  0
  6  7  2  0
  7  8  1  0
  8  9  1  0
  9 10  2  0
 10 11  1  0
 11 12  2  0
 12 13  1  0
 13 14  2  0
 11 15  1  0
 15 16  1  0
 16 17  1  0
 17 18  1  0
 18 19  2  0
 19 20  1  0
 20 21  2  0
 21 22  1  0
 22 23  2  0
 21 24  1  0
  9 25  1  0
  5  1  1  0
 14  6  1  0
 13  8  1  0
 23 18  1  0
M  END
$$$$
