
     RDKit          3D

 25 28  0  0  0  0  0  0  0  0999 V2000
    1.2156    0.1625    6.8796 C   0  0  0  0  0  0  0  0  0  0  0  0
    2.4392   -0.2555    7.3427 C   0  0  0  0  0  0  0  0  0  0  0  0
    2.8416    0.5552    8.2765 O   0  0  0  0  0  0  0  0  0  0  0  0
    1.9465    1.5140    8.4760 C   0  0  0  0  0  0  0  0  0  0  0  0
    0.9039    1.2908    7.6038 C   0  0  0  0  0  0  0  0  0  0  0  0
    2.0263    2.6194    9.4397 C   0  0  0  0  0  0  0  0  0  0  0  0
    2.8476    2.7775   10.4858 N   0  0  0  0  0  0  0  0  0  0  0  0
    2.5907    3.9306   11.1094 N   0  0  0  0  0  0  0  0  0  0  0  0
    3.1143    4.5460   12.1829 C   0  0  0  0  0  0  0  0  0  0  0  0
    2.6660    5.7335   12.6186 N   0  0  0  0  0  0  0  0  0  0  0  0
    1.6469    6.3446   11.9589 C   0  0  0  0  0  0  0  0  0  0  0  0
    1.1251    5.7263   10.8851 N   0  0  0  0  0  0  0  0  0  0  0  0
    1.5829    4.5369   10.4585 C   0  0  0  0  0  0  0  0  0  0  0  0
    1.2453    3.7150    9.4300 N   0  0  0  0  0  0  0  0  0  0  0  0
    1.1318    7.5955   12.3759 N   0  0  0  0  0  0  0  0  0  0  0  0
    1.6814    8.2957   13.5058 C   0  0  0  0  0  0  0  0  0  0  0  0
    1.0002    7.9209   14.7857 C   0  0  0  0  0  0  0  0  0  0  0  0
    1.9310    8.1211   15.9208 C   0  0  0  0  0  0  0  0  0  0  0  0
    1.8105    7.4572   17.1224 C   0  0  0  0  0  0  0  0  0  0  0  0
    2.7339    7.7153   18.1345 C   0  0  0  0  0  0  0  0  0  0  0  0
    3.7534    8.6039   17.9746 C   0  0  0  0  0  0  0  0  0  0  0  0
    3.8872    9.2734   16.7835 C   0  0  0  0  0  0  0  0  0  0  0  0
    2.9802    9.0295   15.7691 C   0  0  0  0  0  0  0  0  0  0  0  0
    4.6462    8.8148   19.0348 O   0  0  0  0  0  0  0  0  0  0  0  0
    4.1816    3.9443   12.9048 N   0  0  0  0  0  0  0  0  0  0  0  0
  1  2  2  0
  2  3  1  0
  3  4  1  0
  4  5  2  0
  4  6  1  0
  6  7  2  0
  7  8  1  0
  8  9  1  0
  9 10  2  0
 10 11  1  0
 11 12  2  0
 12 13  1  0
 13 14  2  0
 11 15  1  0
 15 16  1  0
 16 17  1  0
 17 18  1  0
 18 19  2  0
 19 20  1  0
 20 21  2  0
 21 22  1  0
 22 23  2  0
 21 24  1  0
  9 25  1  0
  5  1  1  0
 14  6  1  0
 13  8  1  0
 23 18  1  0
M  END
$$$$
