
     RDKit          3D

 25 28  0  0  0  0  0  0  0  0999 V2000
    2.1232    0.2541    6.4419 C   0  0  0  0  0  0  0  0  0  0  0  0
    3.3379   -0.0620    6.9995 C   0  0  0  0  0  0  0  0  0  0  0  0
    3.5391    0.6924    8.0395 O   0  0  0  0  0  0  0  0  0  0  0  0
    2.5140    1.5148    8.2215 C   0  0  0  0  0  0  0  0  0  0  0  0
    1.6002    1.2597    7.2230 C   0  0  0  0  0  0  0  0  0  0  0  0
    2.3565    2.5195    9.2811 C   0  0  0  0  0  0  0  0  0  0  0  0
    3.0530    2.6763   10.4142 N   0  0  0  0  0  0  0  0  0  0  0  0
    2.5867    3.7189   11.1071 N   0  0  0  0  0  0  0  0  0  0  0  0
    2.9245    4.2861   12.2773 C   0  0  0  0  0  0  0  0  0  0  0  0
    2.2812    5.3569   12.7676 N   0  0  0  0  0  0  0  0  0  0  0  0
    1.2500    5.8953   12.0646 C   0  0  0  0  0  0  0  0  0  0  0  0
    0.9145    5.3254   10.8940 N   0  0  0  0  0  0  0  0  0  0  0  0
    1.5667    4.2531   10.4135 C   0  0  0  0  0  0  0  0  0  0  0  0
    1.4367    3.5015    9.2885 N   0  0  0  0  0  0  0  0  0  0  0  0
    0.5338    7.0219   12.5352 N   0  0  0  0  0  0  0  0  0  0  0  0
    0.8580    7.6489   13.7885 C   0  0  0  0  0  0  0  0  0  0  0  0
    1.9942    8.6156   13.6567 C   0  0  0  0  0  0  0  0  0  0  0  0
    2.7007    8.7313   14.9538 C   0  0  0  0  0  0  0  0  0  0  0  0
    3.9445    8.1857   15.1875 C   0  0  0  0  0  0  0  0  0  0  0  0
    4.5283    8.3439   16.4436 C   0  0  0  0  0  0  0  0  0  0  0  0
    3.9088    9.0212   17.4495 C   0  0  0  0  0  0  0  0  0  0  0  0
    2.6695    9.5707   17.2325 C   0  0  0  0  0  0  0  0  0  0  0  0
    2.0759    9.4233   15.9927 C   0  0  0  0  0  0  0  0  0  0  0  0
    4.5541    9.1420   18.6882 O   0  0  0  0  0  0  0  0  0  0  0  0
    3.9964    3.7570   13.0476 N   0  0  0  0  0  0  0  0  0  0  0  0
  1  2  2  0
  2  3  1  0
  3  4  1  0
  4  5  2  0
  4  6  1  0
  6  7  2  0
  7  8  1  0
  8  9  1  0
  9 10  2  0
 10 11  1  0
 11 12  2  0
 12 13  1  0
 13 14  2  0
 11 15  1  0
 15 16  1  0
 16 17  1  0
 17 18  1  0
 18 19  2  0
 19 20  1  0
 20 21  2  0
 21 22  1  0
 22 23  2  0
 21 24  1  0
  9 25  1  0
  5  1  1  0
 14  6  1  0
 13  8  1  0
 23 18  1  0
M  END
$$$$
