
     RDKit          3D

 25 28  0  0  0  0  0  0  0  0999 V2000
    1.6288    0.9697    5.8619 C   0  0  0  0  0  0  0  0  0  0  0  0
    2.8167    0.4882    6.3551 C   0  0  0  0  0  0  0  0  0  0  0  0
    3.1343    1.1525    7.4270 O   0  0  0  0  0  0  0  0  0  0  0  0
    2.2149    2.0715    7.6927 C   0  0  0  0  0  0  0  0  0  0  0  0
    1.2474    1.9791    6.7166 C   0  0  0  0  0  0  0  0  0  0  0  0
    2.2051    3.0229    8.8114 C   0  0  0  0  0  0  0  0  0  0  0  0
    2.9482    3.0326    9.9256 N   0  0  0  0  0  0  0  0  0  0  0  0
    2.6253    4.0782   10.6918 N   0  0  0  0  0  0  0  0  0  0  0  0
    3.0604    4.5332   11.8788 C   0  0  0  0  0  0  0  0  0  0  0  0
    2.5589    5.6387   12.4508 N   0  0  0  0  0  0  0  0  0  0  0  0
    1.5760    6.3307   11.8165 C   0  0  0  0  0  0  0  0  0  0  0  0
    1.1428    5.8729   10.6289 N   0  0  0  0  0  0  0  0  0  0  0  0
    1.6532    4.7642   10.0663 C   0  0  0  0  0  0  0  0  0  0  0  0
    1.4046    4.1002    8.9067 N   0  0  0  0  0  0  0  0  0  0  0  0
    1.0079    7.5011   12.3746 N   0  0  0  0  0  0  0  0  0  0  0  0
    1.4246    8.0007   13.6575 C   0  0  0  0  0  0  0  0  0  0  0  0
    2.8934    8.2904   13.6985 C   0  0  0  0  0  0  0  0  0  0  0  0
    3.2841    8.6820   15.0728 C   0  0  0  0  0  0  0  0  0  0  0  0
    4.1768    9.6963   15.3440 C   0  0  0  0  0  0  0  0  0  0  0  0
    4.4858    9.9897   16.6715 C   0  0  0  0  0  0  0  0  0  0  0  0
    3.9333    9.3057   17.7113 C   0  0  0  0  0  0  0  0  0  0  0  0
    3.0421    8.2926   17.4578 C   0  0  0  0  0  0  0  0  0  0  0  0
    2.7244    7.9883   16.1472 C   0  0  0  0  0  0  0  0  0  0  0  0
    4.2892    9.6539   19.0219 O   0  0  0  0  0  0  0  0  0  0  0  0
    4.0868    3.8417   12.5793 N   0  0  0  0  0  0  0  0  0  0  0  0
  1  2  2  0
  2  3  1  0
  3  4  1  0
  4  5  2  0
  4  6  1  0
  6  7  2  0
  7  8  1  0
  8  9  1  0
  9 10  2  0
 10 11  1  0
 11 12  2  0
 12 13  1  0
 13 14  2  0
 11 15  1  0
 15 16  1  0
 16 17  1  0
 17 18  1  0
 18 19  2  0
 19 20  1  0
 20 21  2  0
 21 22  1  0
 22 23  2  0
 21 24  1  0
  9 25  1  0
  5  1  1  0
 14  6  1  0
 13  8  1  0
 23 18  1  0
M  END
$$$$
