
     RDKit          3D

 25 28  0  0  0  0  0  0  0  0999 V2000
    3.2011    0.2135    6.7326 C   0  0  0  0  0  0  0  0  0  0  0  0
    2.0711    0.6853    6.1109 C   0  0  0  0  0  0  0  0  0  0  0  0
    1.5502    1.6325    6.8339 O   0  0  0  0  0  0  0  0  0  0  0  0
    2.2742    1.8328    7.9275 C   0  0  0  0  0  0  0  0  0  0  0  0
    3.3282    0.9468    7.8906 C   0  0  0  0  0  0  0  0  0  0  0  0
    2.0222    2.8096    8.9949 C   0  0  0  0  0  0  0  0  0  0  0  0
    2.6574    2.9760   10.1622 N   0  0  0  0  0  0  0  0  0  0  0  0
    2.1126    3.9838   10.8494 N   0  0  0  0  0  0  0  0  0  0  0  0
    2.3695    4.5434   12.0435 C   0  0  0  0  0  0  0  0  0  0  0  0
    1.6563    5.5753   12.5204 N   0  0  0  0  0  0  0  0  0  0  0  0
    0.6358    6.0805   11.7783 C   0  0  0  0  0  0  0  0  0  0  0  0
    0.3813    5.5183   10.5838 N   0  0  0  0  0  0  0  0  0  0  0  0
    1.1029    4.4850   10.1171 C   0  0  0  0  0  0  0  0  0  0  0  0
    1.0596    3.7496    8.9750 N   0  0  0  0  0  0  0  0  0  0  0  0
   -0.1518    7.1653   12.2330 N   0  0  0  0  0  0  0  0  0  0  0  0
    0.1446    7.8446   13.4658 C   0  0  0  0  0  0  0  0  0  0  0  0
    1.0637    9.0089   13.2597 C   0  0  0  0  0  0  0  0  0  0  0  0
    2.0815    9.0347   14.3358 C   0  0  0  0  0  0  0  0  0  0  0  0
    1.9928    8.2682   15.4777 C   0  0  0  0  0  0  0  0  0  0  0  0
    2.9994    8.3637   16.4376 C   0  0  0  0  0  0  0  0  0  0  0  0
    4.0699    9.1913   16.2837 C   0  0  0  0  0  0  0  0  0  0  0  0
    4.1729    9.9613   15.1518 C   0  0  0  0  0  0  0  0  0  0  0  0
    3.1836    9.8790   14.1897 C   0  0  0  0  0  0  0  0  0  0  0  0
    5.0457    9.2375   17.2893 O   0  0  0  0  0  0  0  0  0  0  0  0
    3.4271    4.0481   12.8549 N   0  0  0  0  0  0  0  0  0  0  0  0
  1  2  2  0
  2  3  1  0
  3  4  1  0
  4  5  2  0
  4  6  1  0
  6  7  2  0
  7  8  1  0
  8  9  1  0
  9 10  2  0
 10 11  1  0
 11 12  2  0
 12 13  1  0
 13 14  2  0
 11 15  1  0
 15 16  1  0
 16 17  1  0
 17 18  1  0
 18 19  2  0
 19 20  1  0
 20 21  2  0
 21 22  1  0
 22 23  2  0
 21 24  1  0
  9 25  1  0
  5  1  1  0
 14  6  1  0
 13  8  1  0
 23 18  1  0
M  END
$$$$
