
     RDKit          3D

 25 28  0  0  0  0  0  0  0  0999 V2000
    3.3092   -0.5528    7.6565 C   0  0  0  0  0  0  0  0  0  0  0  0
    2.2159   -0.4336    6.8340 C   0  0  0  0  0  0  0  0  0  0  0  0
    1.5715    0.6549    7.1359 O   0  0  0  0  0  0  0  0  0  0  0  0
    2.1752    1.2903    8.1320 C   0  0  0  0  0  0  0  0  0  0  0  0
    3.2808    0.5475    8.4831 C   0  0  0  0  0  0  0  0  0  0  0  0
    1.7637    2.5514    8.7623 C   0  0  0  0  0  0  0  0  0  0  0  0
    0.6826    3.3062    8.5269 N   0  0  0  0  0  0  0  0  0  0  0  0
    0.6827    4.3803    9.3211 N   0  0  0  0  0  0  0  0  0  0  0  0
   -0.1511    5.4219    9.4796 C   0  0  0  0  0  0  0  0  0  0  0  0
    0.0810    6.3972   10.3716 N   0  0  0  0  0  0  0  0  0  0  0  0
    1.1954    6.3402   11.1476 C   0  0  0  0  0  0  0  0  0  0  0  0
    2.0277    5.2967   10.9866 N   0  0  0  0  0  0  0  0  0  0  0  0
    1.7842    4.3259   10.0896 C   0  0  0  0  0  0  0  0  0  0  0  0
    2.4414    3.1910    9.7328 N   0  0  0  0  0  0  0  0  0  0  0  0
    1.4923    7.3426   12.1019 N   0  0  0  0  0  0  0  0  0  0  0  0
    2.4803    7.1359   13.1267 C   0  0  0  0  0  0  0  0  0  0  0  0
    1.8587    6.8171   14.4514 C   0  0  0  0  0  0  0  0  0  0  0  0
    2.8545    7.0213   15.5292 C   0  0  0  0  0  0  0  0  0  0  0  0
    2.6014    7.7680   16.6595 C   0  0  0  0  0  0  0  0  0  0  0  0
    3.6041    7.9066   17.6183 C   0  0  0  0  0  0  0  0  0  0  0  0
    4.8280    7.3272   17.4744 C   0  0  0  0  0  0  0  0  0  0  0  0
    5.0958    6.5802   16.3541 C   0  0  0  0  0  0  0  0  0  0  0  0
    4.1128    6.4323   15.3933 C   0  0  0  0  0  0  0  0  0  0  0  0
    5.7899    7.5081   18.4782 O   0  0  0  0  0  0  0  0  0  0  0  0
   -1.3292    5.5240    8.6896 N   0  0  0  0  0  0  0  0  0  0  0  0
  1  2  2  0
  2  3  1  0
  3  4  1  0
  4  5  2  0
  4  6  1  0
  6  7  2  0
  7  8  1  0
  8  9  1  0
  9 10  2  0
 10 11  1  0
 11 12  2  0
 12 13  1  0
 13 14  2  0
 11 15  1  0
 15 16  1  0
 16 17  1  0
 17 18  1  0
 18 19  2  0
 19 20  1  0
 20 21  2  0
 21 22  1  0
 22 23  2  0
 21 24  1  0
  9 25  1  0
  5  1  1  0
 14  6  1  0
 13  8  1  0
 23 18  1  0
M  END
$$$$
