
     RDKit          3D

 25 28  0  0  0  0  0  0  0  0999 V2000
    1.9468    0.5670    5.7238 C   0  0  0  0  0  0  0  0  0  0  0  0
    3.1502    0.1678    6.2517 C   0  0  0  0  0  0  0  0  0  0  0  0
    3.4049    0.8730    7.3143 O   0  0  0  0  0  0  0  0  0  0  0  0
    2.4274    1.7412    7.5402 C   0  0  0  0  0  0  0  0  0  0  0  0
    1.4882    1.5702    6.5472 C   0  0  0  0  0  0  0  0  0  0  0  0
    2.3374    2.7144    8.6364 C   0  0  0  0  0  0  0  0  0  0  0  0
    3.0776    2.8133    9.7483 N   0  0  0  0  0  0  0  0  0  0  0  0
    2.6674    3.8455   10.4905 N   0  0  0  0  0  0  0  0  0  0  0  0
    3.0629    4.3636   11.6654 C   0  0  0  0  0  0  0  0  0  0  0  0
    2.4697    5.4358   12.2126 N   0  0  0  0  0  0  0  0  0  0  0  0
    1.4313    6.0268   11.5647 C   0  0  0  0  0  0  0  0  0  0  0  0
    1.0380    5.5060   10.3893 N   0  0  0  0  0  0  0  0  0  0  0  0
    1.6403    4.4317    9.8515 C   0  0  0  0  0  0  0  0  0  0  0  0
    1.4485    3.7219    8.7084 N   0  0  0  0  0  0  0  0  0  0  0  0
    0.7662    7.1575   12.0967 N   0  0  0  0  0  0  0  0  0  0  0  0
    1.1597    7.7395   13.3519 C   0  0  0  0  0  0  0  0  0  0  0  0
    2.4614    8.4729   13.2486 C   0  0  0  0  0  0  0  0  0  0  0  0
    3.1490    8.4513   14.5606 C   0  0  0  0  0  0  0  0  0  0  0  0
    4.5189    8.3834   14.6942 C   0  0  0  0  0  0  0  0  0  0  0  0
    5.0747    8.3640   15.9727 C   0  0  0  0  0  0  0  0  0  0  0  0
    4.3068    8.4102   17.0964 C   0  0  0  0  0  0  0  0  0  0  0  0
    2.9405    8.4782   16.9802 C   0  0  0  0  0  0  0  0  0  0  0  0
    2.3726    8.4983   15.7199 C   0  0  0  0  0  0  0  0  0  0  0  0
    4.9325    8.3872   18.3508 O   0  0  0  0  0  0  0  0  0  0  0  0
    4.1446    3.7784   12.3794 N   0  0  0  0  0  0  0  0  0  0  0  0
  1  2  2  0
  2  3  1  0
  3  4  1  0
  4  5  2  0
  4  6  1  0
  6  7  2  0
  7  8  1  0
  8  9  1  0
  9 10  2  0
 10 11  1  0
 11 12  2  0
 12 13  1  0
 13 14  2  0
 11 15  1  0
 15 16  1  0
 16 17  1  0
 17 18  1  0
 18 19  2  0
 19 20  1  0
 20 21  2  0
 21 22  1  0
 22 23  2  0
 21 24  1  0
  9 25  1  0
  5  1  1  0
 14  6  1  0
 13  8  1  0
 23 18  1  0
M  END
$$$$
