
     RDKit          3D

 25 28  0  0  0  0  0  0  0  0999 V2000
    2.8593    0.0297    6.4325 C   0  0  0  0  0  0  0  0  0  0  0  0
    2.9563   -0.7072    7.5873 C   0  0  0  0  0  0  0  0  0  0  0  0
    2.8070    0.0815    8.6106 O   0  0  0  0  0  0  0  0  0  0  0  0
    2.6112    1.3307    8.2087 C   0  0  0  0  0  0  0  0  0  0  0  0
    2.6393    1.3286    6.8316 C   0  0  0  0  0  0  0  0  0  0  0  0
    2.4011    2.5142    9.0525 C   0  0  0  0  0  0  0  0  0  0  0  0
    2.0597    3.7602    8.6994 N   0  0  0  0  0  0  0  0  0  0  0  0
    1.9713    4.5425    9.7787 N   0  0  0  0  0  0  0  0  0  0  0  0
    1.6700    5.8381    9.9682 C   0  0  0  0  0  0  0  0  0  0  0  0
    1.6494    6.3989   11.1872 N   0  0  0  0  0  0  0  0  0  0  0  0
    1.9419    5.6395   12.2758 C   0  0  0  0  0  0  0  0  0  0  0  0
    2.2430    4.3435   12.0829 N   0  0  0  0  0  0  0  0  0  0  0  0
    2.2603    3.7934   10.8568 C   0  0  0  0  0  0  0  0  0  0  0  0
    2.5235    2.5436   10.3922 N   0  0  0  0  0  0  0  0  0  0  0  0
    1.9390    6.1790   13.5845 N   0  0  0  0  0  0  0  0  0  0  0  0
    1.6326    7.5635   13.8262 C   0  0  0  0  0  0  0  0  0  0  0  0
    0.1573    7.8065   13.9119 C   0  0  0  0  0  0  0  0  0  0  0  0
   -0.1734    9.0915   13.2529 C   0  0  0  0  0  0  0  0  0  0  0  0
   -1.0774    9.1989   12.2183 C   0  0  0  0  0  0  0  0  0  0  0  0
   -1.3202   10.4524   11.6583 C   0  0  0  0  0  0  0  0  0  0  0  0
   -0.6923   11.5767   12.1010 C   0  0  0  0  0  0  0  0  0  0  0  0
    0.2110   11.4865   13.1309 C   0  0  0  0  0  0  0  0  0  0  0  0
    0.4638   10.2512   13.6978 C   0  0  0  0  0  0  0  0  0  0  0  0
   -0.9844   12.8051   11.4918 O   0  0  0  0  0  0  0  0  0  0  0  0
    1.3577    6.6713    8.8589 N   0  0  0  0  0  0  0  0  0  0  0  0
  1  2  2  0
  2  3  1  0
  3  4  1  0
  4  5  2  0
  4  6  1  0
  6  7  2  0
  7  8  1  0
  8  9  1  0
  9 10  2  0
 10 11  1  0
 11 12  2  0
 12 13  1  0
 13 14  2  0
 11 15  1  0
 15 16  1  0
 16 17  1  0
 17 18  1  0
 18 19  2  0
 19 20  1  0
 20 21  2  0
 21 22  1  0
 22 23  2  0
 21 24  1  0
  9 25  1  0
  5  1  1  0
 14  6  1  0
 13  8  1  0
 23 18  1  0
M  END
$$$$
