
     RDKit          3D

 25 28  0  0  0  0  0  0  0  0999 V2000
    1.5803    1.2717    6.3420 C   0  0  0  0  0  0  0  0  0  0  0  0
    2.8418    0.8341    6.6634 C   0  0  0  0  0  0  0  0  0  0  0  0
    3.2342    1.4263    7.7528 O   0  0  0  0  0  0  0  0  0  0  0  0
    2.2957    2.2534    8.1949 C   0  0  0  0  0  0  0  0  0  0  0  0
    1.2346    2.1765    7.3200 C   0  0  0  0  0  0  0  0  0  0  0  0
    2.3511    3.1042    9.3908 C   0  0  0  0  0  0  0  0  0  0  0  0
    3.2159    3.0785   10.4131 N   0  0  0  0  0  0  0  0  0  0  0  0
    2.9137    4.0280   11.3029 N   0  0  0  0  0  0  0  0  0  0  0  0
    3.4515    4.4145   12.4718 C   0  0  0  0  0  0  0  0  0  0  0  0
    2.9458    5.4260   13.1944 N   0  0  0  0  0  0  0  0  0  0  0  0
    1.8514    6.0901   12.7379 C   0  0  0  0  0  0  0  0  0  0  0  0
    1.3156    5.7009   11.5678 N   0  0  0  0  0  0  0  0  0  0  0  0
    1.8314    4.6862   10.8532 C   0  0  0  0  0  0  0  0  0  0  0  0
    1.4958    4.1043    9.6717 N   0  0  0  0  0  0  0  0  0  0  0  0
    1.2737    7.1618   13.4600 N   0  0  0  0  0  0  0  0  0  0  0  0
    0.1358    7.8820   12.9545 C   0  0  0  0  0  0  0  0  0  0  0  0
    0.4570    9.3181   12.6765 C   0  0  0  0  0  0  0  0  0  0  0  0
    1.0829    9.9276   13.8730 C   0  0  0  0  0  0  0  0  0  0  0  0
    1.6685   11.1750   13.8663 C   0  0  0  0  0  0  0  0  0  0  0  0
    2.2363   11.6632   15.0423 C   0  0  0  0  0  0  0  0  0  0  0  0
    2.2312   10.9464   16.2002 C   0  0  0  0  0  0  0  0  0  0  0  0
    1.6516    9.7021   16.2234 C   0  0  0  0  0  0  0  0  0  0  0  0
    1.0840    9.2026   15.0660 C   0  0  0  0  0  0  0  0  0  0  0  0
    2.8204   11.4987   17.3462 O   0  0  0  0  0  0  0  0  0  0  0  0
    4.5967    3.7489   12.9892 N   0  0  0  0  0  0  0  0  0  0  0  0
  1  2  2  0
  2  3  1  0
  3  4  1  0
  4  5  2  0
  4  6  1  0
  6  7  2  0
  7  8  1  0
  8  9  1  0
  9 10  2  0
 10 11  1  0
 11 12  2  0
 12 13  1  0
 13 14  2  0
 11 15  1  0
 15 16  1  0
 16 17  1  0
 17 18  1  0
 18 19  2  0
 19 20  1  0
 20 21  2  0
 21 22  1  0
 22 23  2  0
 21 24  1  0
  9 25  1  0
  5  1  1  0
 14  6  1  0
 13  8  1  0
 23 18  1  0
M  END
$$$$
