
     RDKit          3D

 25 28  0  0  0  0  0  0  0  0999 V2000
    2.8046   -0.0013    6.6676 C   0  0  0  0  0  0  0  0  0  0  0  0
    1.8083    0.6807    6.0130 C   0  0  0  0  0  0  0  0  0  0  0  0
    1.4289    1.6872    6.7440 O   0  0  0  0  0  0  0  0  0  0  0  0
    2.1221    1.7269    7.8745 C   0  0  0  0  0  0  0  0  0  0  0  0
    3.0026    0.6679    7.8541 C   0  0  0  0  0  0  0  0  0  0  0  0
    1.9953    2.7057    8.9621 C   0  0  0  0  0  0  0  0  0  0  0  0
    2.6680    2.7845   10.1176 N   0  0  0  0  0  0  0  0  0  0  0  0
    2.2455    3.8312   10.8321 N   0  0  0  0  0  0  0  0  0  0  0  0
    2.5837    4.3399   12.0287 C   0  0  0  0  0  0  0  0  0  0  0  0
    1.9919    5.4318   12.5371 N   0  0  0  0  0  0  0  0  0  0  0  0
    1.0148    6.0534   11.8256 C   0  0  0  0  0  0  0  0  0  0  0  0
    0.6787    5.5419   10.6285 N   0  0  0  0  0  0  0  0  0  0  0  0
    1.2789    4.4475   10.1301 C   0  0  0  0  0  0  0  0  0  0  0  0
    1.1358    3.7408    8.9780 N   0  0  0  0  0  0  0  0  0  0  0  0
    0.3541    7.2060   12.3143 N   0  0  0  0  0  0  0  0  0  0  0  0
    0.6620    7.7577   13.6065 C   0  0  0  0  0  0  0  0  0  0  0  0
    1.7847    8.7468   13.5430 C   0  0  0  0  0  0  0  0  0  0  0  0
    2.6977    8.5361   14.6906 C   0  0  0  0  0  0  0  0  0  0  0  0
    4.0535    8.3335   14.5497 C   0  0  0  0  0  0  0  0  0  0  0  0
    4.8316    8.1401   15.6902 C   0  0  0  0  0  0  0  0  0  0  0  0
    4.2950    8.1447   16.9418 C   0  0  0  0  0  0  0  0  0  0  0  0
    2.9459    8.3452   17.0990 C   0  0  0  0  0  0  0  0  0  0  0  0
    2.1594    8.5387   15.9787 C   0  0  0  0  0  0  0  0  0  0  0  0
    5.1365    7.9437   18.0449 O   0  0  0  0  0  0  0  0  0  0  0  0
    3.6001    3.7231   12.8088 N   0  0  0  0  0  0  0  0  0  0  0  0
  1  2  2  0
  2  3  1  0
  3  4  1  0
  4  5  2  0
  4  6  1  0
  6  7  2  0
  7  8  1  0
  8  9  1  0
  9 10  2  0
 10 11  1  0
 11 12  2  0
 12 13  1  0
 13 14  2  0
 11 15  1  0
 15 16  1  0
 16 17  1  0
 17 18  1  0
 18 19  2  0
 19 20  1  0
 20 21  2  0
 21 22  1  0
 22 23  2  0
 21 24  1  0
  9 25  1  0
  5  1  1  0
 14  6  1  0
 13  8  1  0
 23 18  1  0
M  END
$$$$
