
     RDKit          3D

 25 28  0  0  0  0  0  0  0  0999 V2000
    1.8047    0.4438    6.2697 C   0  0  0  0  0  0  0  0  0  0  0  0
    2.9987    0.0331    6.8101 C   0  0  0  0  0  0  0  0  0  0  0  0
    3.2734    0.7689    7.8466 O   0  0  0  0  0  0  0  0  0  0  0  0
    2.3186    1.6690    8.0428 C   0  0  0  0  0  0  0  0  0  0  0  0
    1.3734    1.4869    7.0576 C   0  0  0  0  0  0  0  0  0  0  0  0
    2.2556    2.6825    9.1039 C   0  0  0  0  0  0  0  0  0  0  0  0
    2.9981    2.8000   10.2123 N   0  0  0  0  0  0  0  0  0  0  0  0
    2.6167    3.8687   10.9173 N   0  0  0  0  0  0  0  0  0  0  0  0
    3.0262    4.4167   12.0736 C   0  0  0  0  0  0  0  0  0  0  0  0
    2.4630    5.5236   12.5820 N   0  0  0  0  0  0  0  0  0  0  0  0
    1.4415    6.1201   11.9125 C   0  0  0  0  0  0  0  0  0  0  0  0
    1.0341    5.5693   10.7557 N   0  0  0  0  0  0  0  0  0  0  0  0
    1.6063    4.4603   10.2568 C   0  0  0  0  0  0  0  0  0  0  0  0
    1.3950    3.7162    9.1393 N   0  0  0  0  0  0  0  0  0  0  0  0
    0.8081    7.2869   12.4035 N   0  0  0  0  0  0  0  0  0  0  0  0
    1.1978    7.8848   13.6523 C   0  0  0  0  0  0  0  0  0  0  0  0
    2.4986    8.6189   13.5430 C   0  0  0  0  0  0  0  0  0  0  0  0
    3.1381    8.6975   14.8771 C   0  0  0  0  0  0  0  0  0  0  0  0
    4.4303    9.1356   15.0704 C   0  0  0  0  0  0  0  0  0  0  0  0
    4.9471    9.1706   16.3648 C   0  0  0  0  0  0  0  0  0  0  0  0
    4.2155    8.7854   17.4468 C   0  0  0  0  0  0  0  0  0  0  0  0
    2.9266    8.3466   17.2709 C   0  0  0  0  0  0  0  0  0  0  0  0
    2.3982    8.3054   15.9941 C   0  0  0  0  0  0  0  0  0  0  0  0
    4.7984    8.8464   18.7204 O   0  0  0  0  0  0  0  0  0  0  0  0
    4.0912    3.8273   12.8090 N   0  0  0  0  0  0  0  0  0  0  0  0
  1  2  2  0
  2  3  1  0
  3  4  1  0
  4  5  2  0
  4  6  1  0
  6  7  2  0
  7  8  1  0
  8  9  1  0
  9 10  2  0
 10 11  1  0
 11 12  2  0
 12 13  1  0
 13 14  2  0
 11 15  1  0
 15 16  1  0
 16 17  1  0
 17 18  1  0
 18 19  2  0
 19 20  1  0
 20 21  2  0
 21 22  1  0
 22 23  2  0
 21 24  1  0
  9 25  1  0
  5  1  1  0
 14  6  1  0
 13  8  1  0
 23 18  1  0
M  END
$$$$
