
     RDKit          3D

 25 28  0  0  0  0  0  0  0  0999 V2000
    1.6297    0.4318    6.4256 C   0  0  0  0  0  0  0  0  0  0  0  0
    2.8032    0.0233    7.0105 C   0  0  0  0  0  0  0  0  0  0  0  0
    3.0208    0.7382    8.0748 O   0  0  0  0  0  0  0  0  0  0  0  0
    2.0463    1.6219    8.2474 C   0  0  0  0  0  0  0  0  0  0  0  0
    1.1493    1.4511    7.2162 C   0  0  0  0  0  0  0  0  0  0  0  0
    1.9218    2.6097    9.3270 C   0  0  0  0  0  0  0  0  0  0  0  0
    2.6294    2.7264   10.4582 N   0  0  0  0  0  0  0  0  0  0  0  0
    2.1949    3.7673   11.1741 N   0  0  0  0  0  0  0  0  0  0  0  0
    2.5547    4.3027   12.3526 C   0  0  0  0  0  0  0  0  0  0  0  0
    1.9427    5.3803   12.8676 N   0  0  0  0  0  0  0  0  0  0  0  0
    0.9216    5.9588   12.1821 C   0  0  0  0  0  0  0  0  0  0  0  0
    0.5639    5.4206   11.0031 N   0  0  0  0  0  0  0  0  0  0  0  0
    1.1848    4.3411   10.4977 C   0  0  0  0  0  0  0  0  0  0  0  0
    1.0281    3.6151    9.3595 N   0  0  0  0  0  0  0  0  0  0  0  0
    0.2381    7.0944   12.6790 N   0  0  0  0  0  0  0  0  0  0  0  0
    0.6074    7.7078   13.9266 C   0  0  0  0  0  0  0  0  0  0  0  0
    1.7822    8.6245   13.7768 C   0  0  0  0  0  0  0  0  0  0  0  0
    2.5247    8.6934   15.0569 C   0  0  0  0  0  0  0  0  0  0  0  0
    1.9127    8.6231   16.2896 C   0  0  0  0  0  0  0  0  0  0  0  0
    2.6961    8.7010   17.4403 C   0  0  0  0  0  0  0  0  0  0  0  0
    4.0492    8.8446   17.3861 C   0  0  0  0  0  0  0  0  0  0  0  0
    4.6740    8.9161   16.1657 C   0  0  0  0  0  0  0  0  0  0  0  0
    3.9123    8.8405   15.0145 C   0  0  0  0  0  0  0  0  0  0  0  0
    4.7753    8.9163   18.5833 O   0  0  0  0  0  0  0  0  0  0  0  0
    3.6172    3.7311   13.1054 N   0  0  0  0  0  0  0  0  0  0  0  0
  1  2  2  0
  2  3  1  0
  3  4  1  0
  4  5  2  0
  4  6  1  0
  6  7  2  0
  7  8  1  0
  8  9  1  0
  9 10  2  0
 10 11  1  0
 11 12  2  0
 12 13  1  0
 13 14  2  0
 11 15  1  0
 15 16  1  0
 16 17  1  0
 17 18  1  0
 18 19  2  0
 19 20  1  0
 20 21  2  0
 21 22  1  0
 22 23  2  0
 21 24  1  0
  9 25  1  0
  5  1  1  0
 14  6  1  0
 13  8  1  0
 23 18  1  0
M  END
$$$$
