
     RDKit          3D

 25 28  0  0  0  0  0  0  0  0999 V2000
    2.1714    0.0823    6.5733 C   0  0  0  0  0  0  0  0  0  0  0  0
    1.0846    0.7996    6.1369 C   0  0  0  0  0  0  0  0  0  0  0  0
    0.8665    1.7851    6.9570 O   0  0  0  0  0  0  0  0  0  0  0  0
    1.7576    1.7765    7.9399 C   0  0  0  0  0  0  0  0  0  0  0  0
    2.5985    0.7073    7.7230 C   0  0  0  0  0  0  0  0  0  0  0  0
    1.8531    2.7185    9.0626 C   0  0  0  0  0  0  0  0  0  0  0  0
    1.0722    3.7641    9.3637 N   0  0  0  0  0  0  0  0  0  0  0  0
    1.5056    4.3641   10.4758 N   0  0  0  0  0  0  0  0  0  0  0  0
    1.0887    5.4270   11.1840 C   0  0  0  0  0  0  0  0  0  0  0  0
    1.7153    5.8377   12.2973 N   0  0  0  0  0  0  0  0  0  0  0  0
    2.8113    5.1626   12.7336 C   0  0  0  0  0  0  0  0  0  0  0  0
    3.2259    4.0994   12.0228 N   0  0  0  0  0  0  0  0  0  0  0  0
    2.5897    3.6979   10.9091 C   0  0  0  0  0  0  0  0  0  0  0  0
    2.7917    2.6846   10.0261 N   0  0  0  0  0  0  0  0  0  0  0  0
    3.5134    5.5532   13.8991 N   0  0  0  0  0  0  0  0  0  0  0  0
    3.1061    6.6936   14.6752 C   0  0  0  0  0  0  0  0  0  0  0  0
    3.5313    7.9840   14.0452 C   0  0  0  0  0  0  0  0  0  0  0  0
    2.7325    9.0979   14.6071 C   0  0  0  0  0  0  0  0  0  0  0  0
    2.2874    9.1253   15.9111 C   0  0  0  0  0  0  0  0  0  0  0  0
    1.5375   10.2164   16.3481 C   0  0  0  0  0  0  0  0  0  0  0  0
    1.2296   11.2583   15.5271 C   0  0  0  0  0  0  0  0  0  0  0  0
    1.6657   11.2461   14.2254 C   0  0  0  0  0  0  0  0  0  0  0  0
    2.4105   10.1719   13.7754 C   0  0  0  0  0  0  0  0  0  0  0  0
    0.4714   12.3236   16.0330 O   0  0  0  0  0  0  0  0  0  0  0  0
   -0.0531    6.1644   10.7655 N   0  0  0  0  0  0  0  0  0  0  0  0
  1  2  2  0
  2  3  1  0
  3  4  1  0
  4  5  2  0
  4  6  1  0
  6  7  2  0
  7  8  1  0
  8  9  1  0
  9 10  2  0
 10 11  1  0
 11 12  2  0
 12 13  1  0
 13 14  2  0
 11 15  1  0
 15 16  1  0
 16 17  1  0
 17 18  1  0
 18 19  2  0
 19 20  1  0
 20 21  2  0
 21 22  1  0
 22 23  2  0
 21 24  1  0
  9 25  1  0
  5  1  1  0
 14  6  1  0
 13  8  1  0
 23 18  1  0
M  END
$$$$
