
     RDKit          3D

 25 28  0  0  0  0  0  0  0  0999 V2000
    1.3370    0.3940    6.5231 C   0  0  0  0  0  0  0  0  0  0  0  0
    2.6114    0.0220    6.8748 C   0  0  0  0  0  0  0  0  0  0  0  0
    3.0063    0.7483    7.8787 O   0  0  0  0  0  0  0  0  0  0  0  0
    2.0572    1.6050    8.2331 C   0  0  0  0  0  0  0  0  0  0  0  0
    0.9861    1.4035    7.3907 C   0  0  0  0  0  0  0  0  0  0  0  0
    2.1113    2.5946    9.3169 C   0  0  0  0  0  0  0  0  0  0  0  0
    3.0235    2.7450   10.2860 N   0  0  0  0  0  0  0  0  0  0  0  0
    2.7000    3.7736   11.0746 N   0  0  0  0  0  0  0  0  0  0  0  0
    3.2652    4.3298   12.1592 C   0  0  0  0  0  0  0  0  0  0  0  0
    2.7268    5.3871   12.7861 N   0  0  0  0  0  0  0  0  0  0  0  0
    1.5693    5.9228   12.3165 C   0  0  0  0  0  0  0  0  0  0  0  0
    1.0062    5.3640   11.2310 N   0  0  0  0  0  0  0  0  0  0  0  0
    1.5553    4.3050   10.6119 C   0  0  0  0  0  0  0  0  0  0  0  0
    1.2043    3.5662    9.5264 N   0  0  0  0  0  0  0  0  0  0  0  0
    0.9550    7.0354   12.9398 N   0  0  0  0  0  0  0  0  0  0  0  0
    1.7294    8.0357   13.6245 C   0  0  0  0  0  0  0  0  0  0  0  0
    2.7662    7.4296   14.5193 C   0  0  0  0  0  0  0  0  0  0  0  0
    2.9720    8.2992   15.7010 C   0  0  0  0  0  0  0  0  0  0  0  0
    3.7512    7.9371   16.7784 C   0  0  0  0  0  0  0  0  0  0  0  0
    3.8820    8.8222   17.8476 C   0  0  0  0  0  0  0  0  0  0  0  0
    3.2638   10.0355   17.8625 C   0  0  0  0  0  0  0  0  0  0  0  0
    2.4842   10.4110   16.7967 C   0  0  0  0  0  0  0  0  0  0  0  0
    2.3435    9.5454   15.7280 C   0  0  0  0  0  0  0  0  0  0  0  0
    3.4391   10.8761   18.9707 O   0  0  0  0  0  0  0  0  0  0  0  0
    4.4763    3.8030   12.6865 N   0  0  0  0  0  0  0  0  0  0  0  0
  1  2  2  0
  2  3  1  0
  3  4  1  0
  4  5  2  0
  4  6  1  0
  6  7  2  0
  7  8  1  0
  8  9  1  0
  9 10  2  0
 10 11  1  0
 11 12  2  0
 12 13  1  0
 13 14  2  0
 11 15  1  0
 15 16  1  0
 16 17  1  0
 17 18  1  0
 18 19  2  0
 19 20  1  0
 20 21  2  0
 21 22  1  0
 22 23  2  0
 21 24  1  0
  9 25  1  0
  5  1  1  0
 14  6  1  0
 13  8  1  0
 23 18  1  0
M  END
$$$$
