
     RDKit          3D

 25 28  0  0  0  0  0  0  0  0999 V2000
    1.2510    0.1854    6.6790 C   0  0  0  0  0  0  0  0  0  0  0  0
    2.5187   -0.1503    7.0870 C   0  0  0  0  0  0  0  0  0  0  0  0
    2.8982    0.6717    8.0205 O   0  0  0  0  0  0  0  0  0  0  0  0
    1.9450    1.5595    8.2725 C   0  0  0  0  0  0  0  0  0  0  0  0
    0.8877    1.2759    7.4365 C   0  0  0  0  0  0  0  0  0  0  0  0
    1.9831    2.6515    9.2539 C   0  0  0  0  0  0  0  0  0  0  0  0
    2.8399    2.8589   10.2621 N   0  0  0  0  0  0  0  0  0  0  0  0
    2.5220    3.9765   10.9212 N   0  0  0  0  0  0  0  0  0  0  0  0
    3.0469    4.6147   11.9806 C   0  0  0  0  0  0  0  0  0  0  0  0
    2.5263    5.7541   12.4619 N   0  0  0  0  0  0  0  0  0  0  0  0
    1.4295    6.2907   11.8649 C   0  0  0  0  0  0  0  0  0  0  0  0
    0.9066    5.6497   10.8051 N   0  0  0  0  0  0  0  0  0  0  0  0
    1.4373    4.5090   10.3324 C   0  0  0  0  0  0  0  0  0  0  0  0
    1.1165    3.6796    9.3046 N   0  0  0  0  0  0  0  0  0  0  0  0
    0.8363    7.4881   12.3322 N   0  0  0  0  0  0  0  0  0  0  0  0
    1.4872    8.3173   13.3107 C   0  0  0  0  0  0  0  0  0  0  0  0
    0.9464    8.0915   14.6889 C   0  0  0  0  0  0  0  0  0  0  0  0
    2.0390    8.2291   15.6799 C   0  0  0  0  0  0  0  0  0  0  0  0
    1.8555    8.0579   17.0349 C   0  0  0  0  0  0  0  0  0  0  0  0
    2.9452    8.2123   17.8909 C   0  0  0  0  0  0  0  0  0  0  0  0
    4.1876    8.5273   17.4311 C   0  0  0  0  0  0  0  0  0  0  0  0
    4.3869    8.7011   16.0839 C   0  0  0  0  0  0  0  0  0  0  0  0
    3.3173    8.5518   15.2208 C   0  0  0  0  0  0  0  0  0  0  0  0
    5.2385    8.6673   18.3484 O   0  0  0  0  0  0  0  0  0  0  0  0
    4.1940    4.0904   12.6375 N   0  0  0  0  0  0  0  0  0  0  0  0
  1  2  2  0
  2  3  1  0
  3  4  1  0
  4  5  2  0
  4  6  1  0
  6  7  2  0
  7  8  1  0
  8  9  1  0
  9 10  2  0
 10 11  1  0
 11 12  2  0
 12 13  1  0
 13 14  2  0
 11 15  1  0
 15 16  1  0
 16 17  1  0
 17 18  1  0
 18 19  2  0
 19 20  1  0
 20 21  2  0
 21 22  1  0
 22 23  2  0
 21 24  1  0
  9 25  1  0
  5  1  1  0
 14  6  1  0
 13  8  1  0
 23 18  1  0
M  END
$$$$
