
     RDKit          3D

 25 28  0  0  0  0  0  0  0  0999 V2000
    0.3417    2.2834    6.1860 C   0  0  0  0  0  0  0  0  0  0  0  0
    1.3410    1.3656    6.3986 C   0  0  0  0  0  0  0  0  0  0  0  0
    1.8991    1.6014    7.5494 O   0  0  0  0  0  0  0  0  0  0  0  0
    1.3259    2.6431    8.1382 C   0  0  0  0  0  0  0  0  0  0  0  0
    0.3343    3.0966    7.2966 C   0  0  0  0  0  0  0  0  0  0  0  0
    1.6651    3.2254    9.4431 C   0  0  0  0  0  0  0  0  0  0  0  0
    2.5579    2.8125   10.3520 N   0  0  0  0  0  0  0  0  0  0  0  0
    2.5572    3.6284   11.4098 N   0  0  0  0  0  0  0  0  0  0  0  0
    3.2454    3.6592   12.5632 C   0  0  0  0  0  0  0  0  0  0  0  0
    3.0531    4.6124   13.4881 N   0  0  0  0  0  0  0  0  0  0  0  0
    2.1323    5.5860   13.2611 C   0  0  0  0  0  0  0  0  0  0  0  0
    1.4452    5.5524   12.1060 N   0  0  0  0  0  0  0  0  0  0  0  0
    1.6470    4.5923   11.1874 C   0  0  0  0  0  0  0  0  0  0  0  0
    1.1047    4.3298    9.9690 N   0  0  0  0  0  0  0  0  0  0  0  0
    1.8853    6.6137   14.2027 N   0  0  0  0  0  0  0  0  0  0  0  0
    1.1899    7.8181   13.8358 C   0  0  0  0  0  0  0  0  0  0  0  0
    2.1209    8.8686   13.3138 C   0  0  0  0  0  0  0  0  0  0  0  0
    1.5411   10.2104   13.5550 C   0  0  0  0  0  0  0  0  0  0  0  0
    2.0349   11.0886   14.4953 C   0  0  0  0  0  0  0  0  0  0  0  0
    1.4189   12.3293   14.6528 C   0  0  0  0  0  0  0  0  0  0  0  0
    0.3430   12.7031   13.9064 C   0  0  0  0  0  0  0  0  0  0  0  0
   -0.1608   11.8396   12.9654 C   0  0  0  0  0  0  0  0  0  0  0  0
    0.4378   10.6051   12.7961 C   0  0  0  0  0  0  0  0  0  0  0  0
   -0.2273   13.9663   14.1175 O   0  0  0  0  0  0  0  0  0  0  0  0
    4.2187    2.6612   12.8443 N   0  0  0  0  0  0  0  0  0  0  0  0
  1  2  2  0
  2  3  1  0
  3  4  1  0
  4  5  2  0
  4  6  1  0
  6  7  2  0
  7  8  1  0
  8  9  1  0
  9 10  2  0
 10 11  1  0
 11 12  2  0
 12 13  1  0
 13 14  2  0
 11 15  1  0
 15 16  1  0
 16 17  1  0
 17 18  1  0
 18 19  2  0
 19 20  1  0
 20 21  2  0
 21 22  1  0
 22 23  2  0
 21 24  1  0
  9 25  1  0
  5  1  1  0
 14  6  1  0
 13  8  1  0
 23 18  1  0
M  END
$$$$
