
     RDKit          3D

 25 28  0  0  0  0  0  0  0  0999 V2000
    1.3408    0.3078    6.5578 C   0  0  0  0  0  0  0  0  0  0  0  0
    2.5944   -0.0752    6.9677 C   0  0  0  0  0  0  0  0  0  0  0  0
    2.9936    0.7184    7.9176 O   0  0  0  0  0  0  0  0  0  0  0  0
    2.0675    1.6318    8.1789 C   0  0  0  0  0  0  0  0  0  0  0  0
    1.0073    1.3962    7.3316 C   0  0  0  0  0  0  0  0  0  0  0  0
    2.1336    2.7052    9.1791 C   0  0  0  0  0  0  0  0  0  0  0  0
    2.9793    2.8591   10.2062 N   0  0  0  0  0  0  0  0  0  0  0  0
    2.6971    3.9787   10.8781 N   0  0  0  0  0  0  0  0  0  0  0  0
    3.2287    4.5765   11.9575 C   0  0  0  0  0  0  0  0  0  0  0  0
    2.7483    5.7294   12.4484 N   0  0  0  0  0  0  0  0  0  0  0  0
    1.6870    6.3224   11.8407 C   0  0  0  0  0  0  0  0  0  0  0  0
    1.1574    5.7217   10.7608 N   0  0  0  0  0  0  0  0  0  0  0  0
    1.6476    4.5669   10.2786 C   0  0  0  0  0  0  0  0  0  0  0  0
    1.3111    3.7687    9.2313 N   0  0  0  0  0  0  0  0  0  0  0  0
    1.1369    7.5366   12.3171 N   0  0  0  0  0  0  0  0  0  0  0  0
    1.7229    8.2441   13.4239 C   0  0  0  0  0  0  0  0  0  0  0  0
    1.2730    7.6965   14.7433 C   0  0  0  0  0  0  0  0  0  0  0  0
    2.2389    8.0848   15.7974 C   0  0  0  0  0  0  0  0  0  0  0  0
    2.0877    7.7417   17.1236 C   0  0  0  0  0  0  0  0  0  0  0  0
    3.0486    8.1570   18.0445 C   0  0  0  0  0  0  0  0  0  0  0  0
    4.1340    8.8922   17.6760 C   0  0  0  0  0  0  0  0  0  0  0  0
    4.2990    9.2420   16.3587 C   0  0  0  0  0  0  0  0  0  0  0  0
    3.3557    8.8385   15.4321 C   0  0  0  0  0  0  0  0  0  0  0  0
    5.0613    9.2760   18.6549 O   0  0  0  0  0  0  0  0  0  0  0  0
    4.3396    3.9927   12.6264 N   0  0  0  0  0  0  0  0  0  0  0  0
  1  2  2  0
  2  3  1  0
  3  4  1  0
  4  5  2  0
  4  6  1  0
  6  7  2  0
  7  8  1  0
  8  9  1  0
  9 10  2  0
 10 11  1  0
 11 12  2  0
 12 13  1  0
 13 14  2  0
 11 15  1  0
 15 16  1  0
 16 17  1  0
 17 18  1  0
 18 19  2  0
 19 20  1  0
 20 21  2  0
 21 22  1  0
 22 23  2  0
 21 24  1  0
  9 25  1  0
  5  1  1  0
 14  6  1  0
 13  8  1  0
 23 18  1  0
M  END
$$$$
