
     RDKit          3D

 25 28  0  0  0  0  0  0  0  0999 V2000
    1.5212    0.1105    6.6436 C   0  0  0  0  0  0  0  0  0  0  0  0
    2.7939   -0.2112    7.0473 C   0  0  0  0  0  0  0  0  0  0  0  0
    3.1691    0.6180    7.9763 O   0  0  0  0  0  0  0  0  0  0  0  0
    2.2082    1.4972    8.2291 C   0  0  0  0  0  0  0  0  0  0  0  0
    1.1502    1.2000    7.3986 C   0  0  0  0  0  0  0  0  0  0  0  0
    2.2394    2.5931    9.2064 C   0  0  0  0  0  0  0  0  0  0  0  0
    3.1062    2.8199   10.2019 N   0  0  0  0  0  0  0  0  0  0  0  0
    2.7766    3.9337   10.8618 N   0  0  0  0  0  0  0  0  0  0  0  0
    3.3041    4.5852   11.9117 C   0  0  0  0  0  0  0  0  0  0  0  0
    2.7690    5.7164   12.3965 N   0  0  0  0  0  0  0  0  0  0  0  0
    1.6542    6.2304   11.8132 C   0  0  0  0  0  0  0  0  0  0  0  0
    1.1287    5.5761   10.7628 N   0  0  0  0  0  0  0  0  0  0  0  0
    1.6740    4.4439   10.2864 C   0  0  0  0  0  0  0  0  0  0  0  0
    1.3545    3.6050    9.2658 N   0  0  0  0  0  0  0  0  0  0  0  0
    1.0453    7.4181   12.2848 N   0  0  0  0  0  0  0  0  0  0  0  0
    1.6357    8.1980   13.3394 C   0  0  0  0  0  0  0  0  0  0  0  0
    1.2937    7.6614   14.6951 C   0  0  0  0  0  0  0  0  0  0  0  0
    2.2888    8.1384   15.6835 C   0  0  0  0  0  0  0  0  0  0  0  0
    3.1800    7.3029   16.3214 C   0  0  0  0  0  0  0  0  0  0  0  0
    4.0776    7.8446   17.2404 C   0  0  0  0  0  0  0  0  0  0  0  0
    4.1030    9.1751   17.5291 C   0  0  0  0  0  0  0  0  0  0  0  0
    3.2218   10.0208   16.9020 C   0  0  0  0  0  0  0  0  0  0  0  0
    2.3247    9.5004   15.9879 C   0  0  0  0  0  0  0  0  0  0  0  0
    5.0326    9.6520   18.4639 O   0  0  0  0  0  0  0  0  0  0  0  0
    4.4698    4.0846   12.5543 N   0  0  0  0  0  0  0  0  0  0  0  0
  1  2  2  0
  2  3  1  0
  3  4  1  0
  4  5  2  0
  4  6  1  0
  6  7  2  0
  7  8  1  0
  8  9  1  0
  9 10  2  0
 10 11  1  0
 11 12  2  0
 12 13  1  0
 13 14  2  0
 11 15  1  0
 15 16  1  0
 16 17  1  0
 17 18  1  0
 18 19  2  0
 19 20  1  0
 20 21  2  0
 21 22  1  0
 22 23  2  0
 21 24  1  0
  9 25  1  0
  5  1  1  0
 14  6  1  0
 13  8  1  0
 23 18  1  0
M  END
$$$$
