
     RDKit          3D

 25 28  0  0  0  0  0  0  0  0999 V2000
    1.7632    0.0483    6.7403 C   0  0  0  0  0  0  0  0  0  0  0  0
    3.0033   -0.2386    7.2561 C   0  0  0  0  0  0  0  0  0  0  0  0
    3.2892    0.6253    8.1853 O   0  0  0  0  0  0  0  0  0  0  0  0
    2.2979    1.4951    8.3310 C   0  0  0  0  0  0  0  0  0  0  0  0
    1.3158    1.1540    7.4273 C   0  0  0  0  0  0  0  0  0  0  0  0
    2.2330    2.6209    9.2718 C   0  0  0  0  0  0  0  0  0  0  0  0
    3.0222    2.9020   10.3168 N   0  0  0  0  0  0  0  0  0  0  0  0
    2.6192    4.0261   10.9157 N   0  0  0  0  0  0  0  0  0  0  0  0
    3.0555    4.7239   11.9777 C   0  0  0  0  0  0  0  0  0  0  0  0
    2.4594    5.8543   12.3873 N   0  0  0  0  0  0  0  0  0  0  0  0
    1.3753    6.3192   11.7120 C   0  0  0  0  0  0  0  0  0  0  0  0
    0.9412    5.6187   10.6498 N   0  0  0  0  0  0  0  0  0  0  0  0
    1.5470    4.4878   10.2493 C   0  0  0  0  0  0  0  0  0  0  0  0
    1.3208    3.6094    9.2370 N   0  0  0  0  0  0  0  0  0  0  0  0
    0.7051    7.5037   12.1015 N   0  0  0  0  0  0  0  0  0  0  0  0
    1.2395    8.3703   13.1175 C   0  0  0  0  0  0  0  0  0  0  0  0
    0.9368    7.8731   14.4974 C   0  0  0  0  0  0  0  0  0  0  0  0
    2.0357    8.2543   15.4148 C   0  0  0  0  0  0  0  0  0  0  0  0
    2.6697    9.4770   15.3669 C   0  0  0  0  0  0  0  0  0  0  0  0
    3.6975    9.7430   16.2705 C   0  0  0  0  0  0  0  0  0  0  0  0
    4.0965    8.8326   17.2013 C   0  0  0  0  0  0  0  0  0  0  0  0
    3.4748    7.6100   17.2621 C   0  0  0  0  0  0  0  0  0  0  0  0
    2.4537    7.3294   16.3734 C   0  0  0  0  0  0  0  0  0  0  0  0
    5.1371    9.1668   18.0793 O   0  0  0  0  0  0  0  0  0  0  0  0
    4.1858    4.2756   12.7151 N   0  0  0  0  0  0  0  0  0  0  0  0
  1  2  2  0
  2  3  1  0
  3  4  1  0
  4  5  2  0
  4  6  1  0
  6  7  2  0
  7  8  1  0
  8  9  1  0
  9 10  2  0
 10 11  1  0
 11 12  2  0
 12 13  1  0
 13 14  2  0
 11 15  1  0
 15 16  1  0
 16 17  1  0
 17 18  1  0
 18 19  2  0
 19 20  1  0
 20 21  2  0
 21 22  1  0
 22 23  2  0
 21 24  1  0
  9 25  1  0
  5  1  1  0
 14  6  1  0
 13  8  1  0
 23 18  1  0
M  END
$$$$
