
     RDKit          3D

 25 28  0  0  0  0  0  0  0  0999 V2000
    3.1487   -0.8963    8.7495 C   0  0  0  0  0  0  0  0  0  0  0  0
    3.1018   -0.5546    7.4202 C   0  0  0  0  0  0  0  0  0  0  0  0
    2.6043    0.6414    7.3044 O   0  0  0  0  0  0  0  0  0  0  0  0
    2.3066    1.1376    8.4983 C   0  0  0  0  0  0  0  0  0  0  0  0
    2.6412    0.1844    9.4346 C   0  0  0  0  0  0  0  0  0  0  0  0
    1.7277    2.4542    8.7956 C   0  0  0  0  0  0  0  0  0  0  0  0
    1.3620    3.4313    7.9557 N   0  0  0  0  0  0  0  0  0  0  0  0
    0.8769    4.4733    8.6365 N   0  0  0  0  0  0  0  0  0  0  0  0
    0.3871    5.6726    8.2801 C   0  0  0  0  0  0  0  0  0  0  0  0
   -0.0485    6.5662    9.1815 N   0  0  0  0  0  0  0  0  0  0  0  0
    0.0028    6.2585   10.5044 C   0  0  0  0  0  0  0  0  0  0  0  0
    0.4935    5.0577   10.8578 N   0  0  0  0  0  0  0  0  0  0  0  0
    0.9266    4.1711    9.9453 C   0  0  0  0  0  0  0  0  0  0  0  0
    1.4543    2.9213   10.0275 N   0  0  0  0  0  0  0  0  0  0  0  0
   -0.4393    7.1638   11.4988 N   0  0  0  0  0  0  0  0  0  0  0  0
    0.1507    7.1866   12.8104 C   0  0  0  0  0  0  0  0  0  0  0  0
    1.4903    7.8561   12.8132 C   0  0  0  0  0  0  0  0  0  0  0  0
    2.0665    7.8083   14.1772 C   0  0  0  0  0  0  0  0  0  0  0  0
    1.3613    8.1603   15.3077 C   0  0  0  0  0  0  0  0  0  0  0  0
    1.9909    8.0862   16.5494 C   0  0  0  0  0  0  0  0  0  0  0  0
    3.2828    7.6765   16.6824 C   0  0  0  0  0  0  0  0  0  0  0  0
    3.9988    7.3222   15.5658 C   0  0  0  0  0  0  0  0  0  0  0  0
    3.3899    7.3898   14.3266 C   0  0  0  0  0  0  0  0  0  0  0  0
    3.8534    7.6258   17.9620 O   0  0  0  0  0  0  0  0  0  0  0  0
    0.3144    6.0384    6.9078 N   0  0  0  0  0  0  0  0  0  0  0  0
  1  2  2  0
  2  3  1  0
  3  4  1  0
  4  5  2  0
  4  6  1  0
  6  7  2  0
  7  8  1  0
  8  9  1  0
  9 10  2  0
 10 11  1  0
 11 12  2  0
 12 13  1  0
 13 14  2  0
 11 15  1  0
 15 16  1  0
 16 17  1  0
 17 18  1  0
 18 19  2  0
 19 20  1  0
 20 21  2  0
 21 22  1  0
 22 23  2  0
 21 24  1  0
  9 25  1  0
  5  1  1  0
 14  6  1  0
 13  8  1  0
 23 18  1  0
M  END
$$$$
