
     RDKit          3D

 25 28  0  0  0  0  0  0  0  0999 V2000
    1.8550    0.2253    6.3508 C   0  0  0  0  0  0  0  0  0  0  0  0
    3.0485   -0.1304    6.9297 C   0  0  0  0  0  0  0  0  0  0  0  0
    3.2637    0.6278    7.9641 O   0  0  0  0  0  0  0  0  0  0  0  0
    2.2684    1.4908    8.1218 C   0  0  0  0  0  0  0  0  0  0  0  0
    1.3598    1.2592    7.1128 C   0  0  0  0  0  0  0  0  0  0  0  0
    2.1345    2.5132    9.1677 C   0  0  0  0  0  0  0  0  0  0  0  0
    2.8568    2.6894   10.2817 N   0  0  0  0  0  0  0  0  0  0  0  0
    2.4057    3.7433   10.9675 N   0  0  0  0  0  0  0  0  0  0  0  0
    2.7699    4.3302   12.1199 C   0  0  0  0  0  0  0  0  0  0  0  0
    2.1370    5.4088   12.6068 N   0  0  0  0  0  0  0  0  0  0  0  0
    1.0895    5.9347   11.9189 C   0  0  0  0  0  0  0  0  0  0  0  0
    0.7275    5.3451   10.7661 N   0  0  0  0  0  0  0  0  0  0  0  0
    1.3694    4.2651   10.2887 C   0  0  0  0  0  0  0  0  0  0  0  0
    1.2142    3.4947    9.1799 N   0  0  0  0  0  0  0  0  0  0  0  0
    0.3832    7.0687   12.3869 N   0  0  0  0  0  0  0  0  0  0  0  0
    0.7471    7.7278   13.6125 C   0  0  0  0  0  0  0  0  0  0  0  0
    2.0065    8.5256   13.4699 C   0  0  0  0  0  0  0  0  0  0  0  0
    2.7645    8.4888   14.7422 C   0  0  0  0  0  0  0  0  0  0  0  0
    2.1670    8.3204   15.9726 C   0  0  0  0  0  0  0  0  0  0  0  0
    2.9644    8.3030   17.1161 C   0  0  0  0  0  0  0  0  0  0  0  0
    4.3172    8.4471   17.0573 C   0  0  0  0  0  0  0  0  0  0  0  0
    4.9276    8.6156   15.8392 C   0  0  0  0  0  0  0  0  0  0  0  0
    4.1520    8.6353   14.6950 C   0  0  0  0  0  0  0  0  0  0  0  0
    5.0579    8.4197   18.2474 O   0  0  0  0  0  0  0  0  0  0  0  0
    3.8597    3.8147   12.8741 N   0  0  0  0  0  0  0  0  0  0  0  0
  1  2  2  0
  2  3  1  0
  3  4  1  0
  4  5  2  0
  4  6  1  0
  6  7  2  0
  7  8  1  0
  8  9  1  0
  9 10  2  0
 10 11  1  0
 11 12  2  0
 12 13  1  0
 13 14  2  0
 11 15  1  0
 15 16  1  0
 16 17  1  0
 17 18  1  0
 18 19  2  0
 19 20  1  0
 20 21  2  0
 21 22  1  0
 22 23  2  0
 21 24  1  0
  9 25  1  0
  5  1  1  0
 14  6  1  0
 13  8  1  0
 23 18  1  0
M  END
$$$$
