
     RDKit          3D

 25 28  0  0  0  0  0  0  0  0999 V2000
    1.5273    0.7451    6.3759 C   0  0  0  0  0  0  0  0  0  0  0  0
    2.7679    0.3680    6.8286 C   0  0  0  0  0  0  0  0  0  0  0  0
    3.0388    1.0179    7.9221 O   0  0  0  0  0  0  0  0  0  0  0  0
    2.0367    1.8266    8.2414 C   0  0  0  0  0  0  0  0  0  0  0  0
    1.0634    1.6751    7.2786 C   0  0  0  0  0  0  0  0  0  0  0  0
    1.9537    2.7264    9.3992 C   0  0  0  0  0  0  0  0  0  0  0  0
    2.7627    2.8203   10.4625 N   0  0  0  0  0  0  0  0  0  0  0  0
    2.3314    3.7736   11.2931 N   0  0  0  0  0  0  0  0  0  0  0  0
    2.7708    4.2540   12.4683 C   0  0  0  0  0  0  0  0  0  0  0  0
    2.1405    5.2437   13.1195 N   0  0  0  0  0  0  0  0  0  0  0  0
    1.0170    5.7870   12.5809 C   0  0  0  0  0  0  0  0  0  0  0  0
    0.5799    5.3040   11.4048 N   0  0  0  0  0  0  0  0  0  0  0  0
    1.2202    4.3124   10.7623 C   0  0  0  0  0  0  0  0  0  0  0  0
    0.9998    3.6553    9.5931 N   0  0  0  0  0  0  0  0  0  0  0  0
    0.3097    6.8302   13.2254 N   0  0  0  0  0  0  0  0  0  0  0  0
    0.8746    7.5459   14.3379 C   0  0  0  0  0  0  0  0  0  0  0  0
    1.6721    8.7340   13.8960 C   0  0  0  0  0  0  0  0  0  0  0  0
    2.4851    9.2354   15.0284 C   0  0  0  0  0  0  0  0  0  0  0  0
    3.3565   10.2976   14.9205 C   0  0  0  0  0  0  0  0  0  0  0  0
    4.0826   10.6948   16.0424 C   0  0  0  0  0  0  0  0  0  0  0  0
    3.9589   10.0666   17.2442 C   0  0  0  0  0  0  0  0  0  0  0  0
    3.0949    9.0068   17.3682 C   0  0  0  0  0  0  0  0  0  0  0  0
    2.3670    8.5996   16.2657 C   0  0  0  0  0  0  0  0  0  0  0  0
    4.7200   10.5189   18.3312 O   0  0  0  0  0  0  0  0  0  0  0  0
    3.9417    3.7162   13.0701 N   0  0  0  0  0  0  0  0  0  0  0  0
  1  2  2  0
  2  3  1  0
  3  4  1  0
  4  5  2  0
  4  6  1  0
  6  7  2  0
  7  8  1  0
  8  9  1  0
  9 10  2  0
 10 11  1  0
 11 12  2  0
 12 13  1  0
 13 14  2  0
 11 15  1  0
 15 16  1  0
 16 17  1  0
 17 18  1  0
 18 19  2  0
 19 20  1  0
 20 21  2  0
 21 22  1  0
 22 23  2  0
 21 24  1  0
  9 25  1  0
  5  1  1  0
 14  6  1  0
 13  8  1  0
 23 18  1  0
M  END
$$$$
