
     RDKit          3D

 25 28  0  0  0  0  0  0  0  0999 V2000
    1.7512    0.4412    6.3659 C   0  0  0  0  0  0  0  0  0  0  0  0
    3.0281    0.1552    6.7826 C   0  0  0  0  0  0  0  0  0  0  0  0
    3.3636    0.9822    7.7285 O   0  0  0  0  0  0  0  0  0  0  0  0
    2.3711    1.8259    7.9806 C   0  0  0  0  0  0  0  0  0  0  0  0
    1.3347    1.5068    7.1313 C   0  0  0  0  0  0  0  0  0  0  0  0
    2.3535    2.9076    8.9739 C   0  0  0  0  0  0  0  0  0  0  0  0
    3.1974    3.1460    9.9862 N   0  0  0  0  0  0  0  0  0  0  0  0
    2.8234    4.2393   10.6567 N   0  0  0  0  0  0  0  0  0  0  0  0
    3.3143    4.8910   11.7241 C   0  0  0  0  0  0  0  0  0  0  0  0
    2.7371    5.9979   12.2165 N   0  0  0  0  0  0  0  0  0  0  0  0
    1.6161    6.4861   11.6230 C   0  0  0  0  0  0  0  0  0  0  0  0
    1.1273    5.8317   10.5552 N   0  0  0  0  0  0  0  0  0  0  0  0
    1.7146    4.7239   10.0712 C   0  0  0  0  0  0  0  0  0  0  0  0
    1.4370    3.8909    9.0338 N   0  0  0  0  0  0  0  0  0  0  0  0
    0.9636    7.6475   12.1019 N   0  0  0  0  0  0  0  0  0  0  0  0
    1.5668    8.4919   13.0979 C   0  0  0  0  0  0  0  0  0  0  0  0
    1.1718    8.0945   14.4868 C   0  0  0  0  0  0  0  0  0  0  0  0
    2.3456    8.1956   15.3850 C   0  0  0  0  0  0  0  0  0  0  0  0
    2.8722    7.1179   16.0637 C   0  0  0  0  0  0  0  0  0  0  0  0
    3.9777    7.3127   16.8906 C   0  0  0  0  0  0  0  0  0  0  0  0
    4.5556    8.5353   17.0501 C   0  0  0  0  0  0  0  0  0  0  0  0
    4.0429    9.6189   16.3808 C   0  0  0  0  0  0  0  0  0  0  0  0
    2.9469    9.4437   15.5567 C   0  0  0  0  0  0  0  0  0  0  0  0
    5.6655    8.6592   17.8977 O   0  0  0  0  0  0  0  0  0  0  0  0
    4.4848    4.4169   12.3778 N   0  0  0  0  0  0  0  0  0  0  0  0
  1  2  2  0
  2  3  1  0
  3  4  1  0
  4  5  2  0
  4  6  1  0
  6  7  2  0
  7  8  1  0
  8  9  1  0
  9 10  2  0
 10 11  1  0
 11 12  2  0
 12 13  1  0
 13 14  2  0
 11 15  1  0
 15 16  1  0
 16 17  1  0
 17 18  1  0
 18 19  2  0
 19 20  1  0
 20 21  2  0
 21 22  1  0
 22 23  2  0
 21 24  1  0
  9 25  1  0
  5  1  1  0
 14  6  1  0
 13  8  1  0
 23 18  1  0
M  END
$$$$
