
     RDKit          3D

 19 21  0  0  0  0  0  0  0  0999 V2000
   -2.3683    4.9369   13.4321 C   0  0  0  0  0  0  0  0  0  0  0  0
   -1.1732    4.3893   12.7208 C   0  0  0  0  0  0  0  0  0  0  0  0
   -1.0738    4.9146   11.3134 C   0  0  0  0  0  0  0  0  0  0  0  0
   -1.9239    4.5143   10.5065 O   0  0  0  0  0  0  0  0  0  0  0  0
   -0.0718    5.8158   10.9170 N   0  0  0  0  0  0  0  0  0  0  0  0
    0.0544    6.2295    9.5383 C   0  0  0  0  0  0  0  0  0  0  0  0
    0.7496    5.2067    8.6645 C   0  0  0  0  0  0  0  0  0  0  0  0
    1.7237    5.9477    7.7969 C   0  0  0  0  0  0  0  0  0  0  0  0
    1.0795    6.6881    6.6552 C   0  0  0  0  0  0  0  0  0  0  0  0
    2.3535    7.0872    5.8889 C   0  0  0  0  0  0  0  0  0  0  0  0
    3.0682    5.7587    5.9588 C   0  0  0  0  0  0  0  0  0  0  0  0
    2.6774    5.0858    7.0925 C   0  0  0  0  0  0  0  0  0  0  0  0
    3.1982    3.8209    7.3765 C   0  0  0  0  0  0  0  0  0  0  0  0
    4.1082    3.2196    6.5378 C   0  0  0  0  0  0  0  0  0  0  0  0
    4.4871    3.9120    5.4062 C   0  0  0  0  0  0  0  0  0  0  0  0
    3.9799    5.1652    5.1114 C   0  0  0  0  0  0  0  0  0  0  0  0
    4.4751    1.9735    7.0325 O   0  0  0  0  0  0  0  0  0  0  0  0
    3.5823    1.5704    8.0496 C   0  0  0  0  0  0  0  0  0  0  0  0
    2.9606    2.8709    8.5123 C   0  0  0  0  0  0  0  0  0  0  0  0
  1  2  1  0
  2  3  1  0
  3  4  2  0
  3  5  1  0
  5  6  1  0
  6  7  1  0
  7  8  1  0
  8  9  1  0
  9 10  1  0
 10 11  1  0
 11 12  2  0
 12 13  1  0
 13 14  2  0
 14 15  1  0
 15 16  2  0
 14 17  1  0
 17 18  1  0
 18 19  1  0
 12  8  1  0
 16 11  1  0
 19 13  1  0
M  END
$$$$
