
     RDKit          3D

 19 21  0  0  0  0  0  0  0  0999 V2000
    0.6004   -1.7787   11.2620 C   0  0  0  0  0  0  0  0  0  0  0  0
    0.5965   -0.2850   11.3153 C   0  0  0  0  0  0  0  0  0  0  0  0
    0.8442    0.3212    9.9596 C   0  0  0  0  0  0  0  0  0  0  0  0
   -0.1542    0.6311    9.2955 O   0  0  0  0  0  0  0  0  0  0  0  0
    2.1386    0.5322    9.4563 N   0  0  0  0  0  0  0  0  0  0  0  0
    2.3537    1.3085    8.2568 C   0  0  0  0  0  0  0  0  0  0  0  0
    2.2131    2.8007    8.4727 C   0  0  0  0  0  0  0  0  0  0  0  0
    2.5108    3.4719    7.1644 C   0  0  0  0  0  0  0  0  0  0  0  0
    3.9463    3.3444    6.7288 C   0  0  0  0  0  0  0  0  0  0  0  0
    3.9168    4.3243    5.5420 C   0  0  0  0  0  0  0  0  0  0  0  0
    3.1581    5.4454    6.2112 C   0  0  0  0  0  0  0  0  0  0  0  0
    2.3330    4.9268    7.1814 C   0  0  0  0  0  0  0  0  0  0  0  0
    1.5293    5.7728    7.9496 C   0  0  0  0  0  0  0  0  0  0  0  0
    1.5407    7.1353    7.7580 C   0  0  0  0  0  0  0  0  0  0  0  0
    2.3753    7.6348    6.7794 C   0  0  0  0  0  0  0  0  0  0  0  0
    3.1771    6.8096    6.0108 C   0  0  0  0  0  0  0  0  0  0  0  0
    0.6621    7.7568    8.6376 O   0  0  0  0  0  0  0  0  0  0  0  0
    0.2753    6.8588    9.6564 C   0  0  0  0  0  0  0  0  0  0  0  0
    0.5535    5.4978    9.0547 C   0  0  0  0  0  0  0  0  0  0  0  0
  1  2  1  0
  2  3  1  0
  3  4  2  0
  3  5  1  0
  5  6  1  0
  6  7  1  0
  7  8  1  0
  8  9  1  0
  9 10  1  0
 10 11  1  0
 11 12  2  0
 12 13  1  0
 13 14  2  0
 14 15  1  0
 15 16  2  0
 14 17  1  0
 17 18  1  0
 18 19  1  0
 12  8  1  0
 16 11  1  0
 19 13  1  0
M  END
$$$$
