
     RDKit          3D

 19 21  0  0  0  0  0  0  0  0999 V2000
    1.3897   -2.9511   10.0560 C   0  0  0  0  0  0  0  0  0  0  0  0
    0.1617   -2.4570    9.3618 C   0  0  0  0  0  0  0  0  0  0  0  0
    0.0957   -0.9529    9.3504 C   0  0  0  0  0  0  0  0  0  0  0  0
    0.0881   -0.3857   10.4514 O   0  0  0  0  0  0  0  0  0  0  0  0
    0.0446   -0.2123    8.1578 N   0  0  0  0  0  0  0  0  0  0  0  0
   -0.0875    1.2263    8.1798 C   0  0  0  0  0  0  0  0  0  0  0  0
    1.1264    1.9503    7.6365 C   0  0  0  0  0  0  0  0  0  0  0  0
    0.7548    3.3960    7.4859 C   0  0  0  0  0  0  0  0  0  0  0  0
   -0.3482    3.6393    6.4904 C   0  0  0  0  0  0  0  0  0  0  0  0
   -0.2718    5.1756    6.4301 C   0  0  0  0  0  0  0  0  0  0  0  0
    1.2290    5.3097    6.3305 C   0  0  0  0  0  0  0  0  0  0  0  0
    1.8283    4.2399    6.9529 C   0  0  0  0  0  0  0  0  0  0  0  0
    3.2208    4.1336    6.9875 C   0  0  0  0  0  0  0  0  0  0  0  0
    4.0236    5.0876    6.4055 C   0  0  0  0  0  0  0  0  0  0  0  0
    3.4022    6.1528    5.7866 C   0  0  0  0  0  0  0  0  0  0  0  0
    2.0243    6.2717    5.7441 C   0  0  0  0  0  0  0  0  0  0  0  0
    5.3644    4.7612    6.5716 O   0  0  0  0  0  0  0  0  0  0  0  0
    5.4912    3.4190    6.9915 C   0  0  0  0  0  0  0  0  0  0  0  0
    4.1331    3.1012    7.5798 C   0  0  0  0  0  0  0  0  0  0  0  0
  1  2  1  0
  2  3  1  0
  3  4  2  0
  3  5  1  0
  5  6  1  0
  6  7  1  0
  7  8  1  0
  8  9  1  0
  9 10  1  0
 10 11  1  0
 11 12  2  0
 12 13  1  0
 13 14  2  0
 14 15  1  0
 15 16  2  0
 14 17  1  0
 17 18  1  0
 18 19  1  0
 12  8  1  0
 16 11  1  0
 19 13  1  0
M  END
$$$$
