
     RDKit          3D

 19 21  0  0  0  0  0  0  0  0999 V2000
   -0.0882   -2.6317   10.3951 C   0  0  0  0  0  0  0  0  0  0  0  0
    0.3782   -1.2144   10.3063 C   0  0  0  0  0  0  0  0  0  0  0  0
    0.4914   -0.7541    8.8773 C   0  0  0  0  0  0  0  0  0  0  0  0
    1.2688   -1.3841    8.1474 O   0  0  0  0  0  0  0  0  0  0  0  0
   -0.2418    0.3355    8.3788 N   0  0  0  0  0  0  0  0  0  0  0  0
    0.1234    0.9718    7.1340 C   0  0  0  0  0  0  0  0  0  0  0  0
    1.3388    1.8675    7.2503 C   0  0  0  0  0  0  0  0  0  0  0  0
    0.8537    3.2867    7.2129 C   0  0  0  0  0  0  0  0  0  0  0  0
   -0.2039    3.5402    6.1718 C   0  0  0  0  0  0  0  0  0  0  0  0
   -0.2567    5.0759    6.2635 C   0  0  0  0  0  0  0  0  0  0  0  0
    1.2302    5.3388    6.2805 C   0  0  0  0  0  0  0  0  0  0  0  0
    1.8807    4.2630    6.8378 C   0  0  0  0  0  0  0  0  0  0  0  0
    3.2726    4.2653    6.9576 C   0  0  0  0  0  0  0  0  0  0  0  0
    4.0238    5.3341    6.5256 C   0  0  0  0  0  0  0  0  0  0  0  0
    3.3515    6.4031    5.9699 C   0  0  0  0  0  0  0  0  0  0  0  0
    1.9736    6.4153    5.8444 C   0  0  0  0  0  0  0  0  0  0  0  0
    5.3753    5.1008    6.7515 O   0  0  0  0  0  0  0  0  0  0  0  0
    5.5917    3.7375    7.0494 C   0  0  0  0  0  0  0  0  0  0  0  0
    4.2329    3.2546    7.5101 C   0  0  0  0  0  0  0  0  0  0  0  0
  1  2  1  0
  2  3  1  0
  3  4  2  0
  3  5  1  0
  5  6  1  0
  6  7  1  0
  7  8  1  0
  8  9  1  0
  9 10  1  0
 10 11  1  0
 11 12  2  0
 12 13  1  0
 13 14  2  0
 14 15  1  0
 15 16  2  0
 14 17  1  0
 17 18  1  0
 18 19  1  0
 12  8  1  0
 16 11  1  0
 19 13  1  0
M  END
$$$$
