
     RDKit          3D

 19 21  0  0  0  0  0  0  0  0999 V2000
   -0.0984    9.6988    9.3247 C   0  0  0  0  0  0  0  0  0  0  0  0
    0.7835    8.5397    9.6603 C   0  0  0  0  0  0  0  0  0  0  0  0
    1.6574    8.1500    8.4980 C   0  0  0  0  0  0  0  0  0  0  0  0
    2.8488    8.4832    8.5585 O   0  0  0  0  0  0  0  0  0  0  0  0
    1.1623    7.4425    7.3900 N   0  0  0  0  0  0  0  0  0  0  0  0
    2.0121    6.5488    6.6369 C   0  0  0  0  0  0  0  0  0  0  0  0
    1.8179    5.0903    6.9946 C   0  0  0  0  0  0  0  0  0  0  0  0
    3.1749    4.5130    7.2708 C   0  0  0  0  0  0  0  0  0  0  0  0
    4.0709    4.4617    6.0620 C   0  0  0  0  0  0  0  0  0  0  0  0
    5.2140    3.6190    6.6559 C   0  0  0  0  0  0  0  0  0  0  0  0
    4.3709    2.5669    7.3361 C   0  0  0  0  0  0  0  0  0  0  0  0
    3.1565    3.1078    7.6876 C   0  0  0  0  0  0  0  0  0  0  0  0
    2.1940    2.3235    8.3280 C   0  0  0  0  0  0  0  0  0  0  0  0
    2.4326    1.0007    8.6222 C   0  0  0  0  0  0  0  0  0  0  0  0
    3.6573    0.4779    8.2612 C   0  0  0  0  0  0  0  0  0  0  0  0
    4.6204    1.2421    7.6264 C   0  0  0  0  0  0  0  0  0  0  0  0
    1.3308    0.4376    9.2553 O   0  0  0  0  0  0  0  0  0  0  0  0
    0.2058    1.2799    9.1174 C   0  0  0  0  0  0  0  0  0  0  0  0
    0.8111    2.6347    8.8177 C   0  0  0  0  0  0  0  0  0  0  0  0
  1  2  1  0
  2  3  1  0
  3  4  2  0
  3  5  1  0
  5  6  1  0
  6  7  1  0
  7  8  1  0
  8  9  1  0
  9 10  1  0
 10 11  1  0
 11 12  2  0
 12 13  1  0
 13 14  2  0
 14 15  1  0
 15 16  2  0
 14 17  1  0
 17 18  1  0
 18 19  1  0
 12  8  1  0
 16 11  1  0
 19 13  1  0
M  END
$$$$
