
     RDKit          3D

 19 21  0  0  0  0  0  0  0  0999 V2000
    0.2031   -3.3917   10.0077 C   0  0  0  0  0  0  0  0  0  0  0  0
   -0.1040   -2.3670    8.9639 C   0  0  0  0  0  0  0  0  0  0  0  0
    0.4290   -1.0105    9.3415 C   0  0  0  0  0  0  0  0  0  0  0  0
    1.2941   -0.9771   10.2272 O   0  0  0  0  0  0  0  0  0  0  0  0
   -0.0216    0.1707    8.7292 N   0  0  0  0  0  0  0  0  0  0  0  0
    0.5398    1.4540    9.0837 C   0  0  0  0  0  0  0  0  0  0  0  0
    1.4367    2.0354    8.0111 C   0  0  0  0  0  0  0  0  0  0  0  0
    0.9431    3.4214    7.7180 C   0  0  0  0  0  0  0  0  0  0  0  0
   -0.1719    3.4684    6.7075 C   0  0  0  0  0  0  0  0  0  0  0  0
   -0.2273    4.9918    6.4935 C   0  0  0  0  0  0  0  0  0  0  0  0
    1.2569    5.2437    6.3753 C   0  0  0  0  0  0  0  0  0  0  0  0
    1.9428    4.2969    7.0992 C   0  0  0  0  0  0  0  0  0  0  0  0
    3.3391    4.3146    7.1389 C   0  0  0  0  0  0  0  0  0  0  0  0
    4.0598    5.2710    6.4614 C   0  0  0  0  0  0  0  0  0  0  0  0
    3.3522    6.2117    5.7415 C   0  0  0  0  0  0  0  0  0  0  0  0
    1.9695    6.2069    5.6925 C   0  0  0  0  0  0  0  0  0  0  0  0
    5.4229    5.0792    6.6542 O   0  0  0  0  0  0  0  0  0  0  0  0
    5.6624    3.8016    7.2057 C   0  0  0  0  0  0  0  0  0  0  0  0
    4.3337    3.4287    7.8281 C   0  0  0  0  0  0  0  0  0  0  0  0
  1  2  1  0
  2  3  1  0
  3  4  2  0
  3  5  1  0
  5  6  1  0
  6  7  1  0
  7  8  1  0
  8  9  1  0
  9 10  1  0
 10 11  1  0
 11 12  2  0
 12 13  1  0
 13 14  2  0
 14 15  1  0
 15 16  2  0
 14 17  1  0
 17 18  1  0
 18 19  1  0
 12  8  1  0
 16 11  1  0
 19 13  1  0
M  END
$$$$
