
     RDKit          3D

 19 21  0  0  0  0  0  0  0  0999 V2000
    1.1681   -3.9992    9.7145 C   0  0  0  0  0  0  0  0  0  0  0  0
    2.0092   -2.7658    9.7862 C   0  0  0  0  0  0  0  0  0  0  0  0
    1.1944   -1.5217    9.5513 C   0  0  0  0  0  0  0  0  0  0  0  0
    0.2902   -1.2846   10.3639 O   0  0  0  0  0  0  0  0  0  0  0  0
    1.4341   -0.6601    8.4681 N   0  0  0  0  0  0  0  0  0  0  0  0
    0.9270    0.6929    8.4665 C   0  0  0  0  0  0  0  0  0  0  0  0
    1.8541    1.6820    7.7919 C   0  0  0  0  0  0  0  0  0  0  0  0
    1.0692    2.9373    7.5495 C   0  0  0  0  0  0  0  0  0  0  0  0
   -0.1093    2.7494    6.6315 C   0  0  0  0  0  0  0  0  0  0  0  0
   -0.4879    4.2284    6.4341 C   0  0  0  0  0  0  0  0  0  0  0  0
    0.9007    4.7735    6.1997 C   0  0  0  0  0  0  0  0  0  0  0  0
    1.8190    3.9911    6.8596 C   0  0  0  0  0  0  0  0  0  0  0  0
    3.1817    4.2905    6.7879 C   0  0  0  0  0  0  0  0  0  0  0  0
    3.6381    5.3667    6.0622 C   0  0  0  0  0  0  0  0  0  0  0  0
    2.7002    6.1389    5.4081 C   0  0  0  0  0  0  0  0  0  0  0  0
    1.3475    5.8547    5.4696 C   0  0  0  0  0  0  0  0  0  0  0  0
    5.0228    5.4556    6.1442 O   0  0  0  0  0  0  0  0  0  0  0  0
    5.5584    4.2575    6.6653 C   0  0  0  0  0  0  0  0  0  0  0  0
    4.3863    3.6296    7.3889 C   0  0  0  0  0  0  0  0  0  0  0  0
  1  2  1  0
  2  3  1  0
  3  4  2  0
  3  5  1  0
  5  6  1  0
  6  7  1  0
  7  8  1  0
  8  9  1  0
  9 10  1  0
 10 11  1  0
 11 12  2  0
 12 13  1  0
 13 14  2  0
 14 15  1  0
 15 16  2  0
 14 17  1  0
 17 18  1  0
 18 19  1  0
 12  8  1  0
 16 11  1  0
 19 13  1  0
M  END
$$$$
