
     RDKit          3D

 19 21  0  0  0  0  0  0  0  0999 V2000
   -1.1030    9.0258    4.1205 C   0  0  0  0  0  0  0  0  0  0  0  0
    0.2499    8.4917    4.4644 C   0  0  0  0  0  0  0  0  0  0  0  0
    0.2077    7.0157    4.7581 C   0  0  0  0  0  0  0  0  0  0  0  0
    0.4035    6.2505    3.8041 O   0  0  0  0  0  0  0  0  0  0  0  0
   -0.0405    6.5129    6.0461 N   0  0  0  0  0  0  0  0  0  0  0  0
    0.3042    5.1535    6.3939 C   0  0  0  0  0  0  0  0  0  0  0  0
    1.7958    4.9242    6.5185 C   0  0  0  0  0  0  0  0  0  0  0  0
    2.0039    3.4597    6.7688 C   0  0  0  0  0  0  0  0  0  0  0  0
    1.1514    2.9059    7.8793 C   0  0  0  0  0  0  0  0  0  0  0  0
    1.8006    1.5152    7.9990 C   0  0  0  0  0  0  0  0  0  0  0  0
    3.2457    1.9510    7.9536 C   0  0  0  0  0  0  0  0  0  0  0  0
    3.3523    3.1142    7.2281 C   0  0  0  0  0  0  0  0  0  0  0  0
    4.5973    3.7225    7.0497 C   0  0  0  0  0  0  0  0  0  0  0  0
    5.7403    3.1793    7.5897 C   0  0  0  0  0  0  0  0  0  0  0  0
    5.6112    2.0119    8.3137 C   0  0  0  0  0  0  0  0  0  0  0  0
    4.3851    1.3980    8.4991 C   0  0  0  0  0  0  0  0  0  0  0  0
    6.8452    3.9622    7.2761 O   0  0  0  0  0  0  0  0  0  0  0  0
    6.4288    5.2198    6.7872 C   0  0  0  0  0  0  0  0  0  0  0  0
    5.0095    4.9687    6.3244 C   0  0  0  0  0  0  0  0  0  0  0  0
  1  2  1  0
  2  3  1  0
  3  4  2  0
  3  5  1  0
  5  6  1  0
  6  7  1  0
  7  8  1  0
  8  9  1  0
  9 10  1  0
 10 11  1  0
 11 12  2  0
 12 13  1  0
 13 14  2  0
 14 15  1  0
 15 16  2  0
 14 17  1  0
 17 18  1  0
 18 19  1  0
 12  8  1  0
 16 11  1  0
 19 13  1  0
M  END
$$$$
