
     RDKit          3D

 19 21  0  0  0  0  0  0  0  0999 V2000
    0.8243   -2.5869   10.4831 C   0  0  0  0  0  0  0  0  0  0  0  0
    1.1898   -1.1508   10.6788 C   0  0  0  0  0  0  0  0  0  0  0  0
    0.7813   -0.3069    9.5008 C   0  0  0  0  0  0  0  0  0  0  0  0
   -0.4319   -0.2273    9.2646 O   0  0  0  0  0  0  0  0  0  0  0  0
    1.7175    0.3649    8.6974 N   0  0  0  0  0  0  0  0  0  0  0  0
    1.2994    1.3767    7.7544 C   0  0  0  0  0  0  0  0  0  0  0  0
    1.2256    2.7649    8.3549 C   0  0  0  0  0  0  0  0  0  0  0  0
    1.3187    3.7468    7.2244 C   0  0  0  0  0  0  0  0  0  0  0  0
    2.6391    3.7179    6.5016 C   0  0  0  0  0  0  0  0  0  0  0  0
    2.4524    4.9708    5.6269 C   0  0  0  0  0  0  0  0  0  0  0  0
    1.9001    5.8910    6.6893 C   0  0  0  0  0  0  0  0  0  0  0  0
    1.2371    5.1503    7.6393 C   0  0  0  0  0  0  0  0  0  0  0  0
    0.6419    5.7798    8.7354 C   0  0  0  0  0  0  0  0  0  0  0  0
    0.7019    7.1453    8.8927 C   0  0  0  0  0  0  0  0  0  0  0  0
    1.3716    7.8697    7.9281 C   0  0  0  0  0  0  0  0  0  0  0  0
    1.9662    7.2605    6.8372 C   0  0  0  0  0  0  0  0  0  0  0  0
    0.0399    7.5301   10.0527 O   0  0  0  0  0  0  0  0  0  0  0  0
   -0.2077    6.4048   10.8691 C   0  0  0  0  0  0  0  0  0  0  0  0
   -0.1293    5.2415    9.9035 C   0  0  0  0  0  0  0  0  0  0  0  0
  1  2  1  0
  2  3  1  0
  3  4  2  0
  3  5  1  0
  5  6  1  0
  6  7  1  0
  7  8  1  0
  8  9  1  0
  9 10  1  0
 10 11  1  0
 11 12  2  0
 12 13  1  0
 13 14  2  0
 14 15  1  0
 15 16  2  0
 14 17  1  0
 17 18  1  0
 18 19  1  0
 12  8  1  0
 16 11  1  0
 19 13  1  0
M  END
$$$$
