
     RDKit          3D

 19 21  0  0  0  0  0  0  0  0999 V2000
    0.2948   -2.5799   10.7209 C   0  0  0  0  0  0  0  0  0  0  0  0
    1.1951   -1.6816    9.9357 C   0  0  0  0  0  0  0  0  0  0  0  0
    0.4347   -0.9015    8.8965 C   0  0  0  0  0  0  0  0  0  0  0  0
   -0.7982   -0.8727    9.0110 O   0  0  0  0  0  0  0  0  0  0  0  0
    1.0762   -0.2325    7.8410 N   0  0  0  0  0  0  0  0  0  0  0  0
    0.4734    0.9221    7.2155 C   0  0  0  0  0  0  0  0  0  0  0  0
    0.9170    2.2360    7.8237 C   0  0  0  0  0  0  0  0  0  0  0  0
    0.6280    3.3135    6.8206 C   0  0  0  0  0  0  0  0  0  0  0  0
    1.3102    3.1078    5.4943 C   0  0  0  0  0  0  0  0  0  0  0  0
    0.9949    4.4729    4.8567 C   0  0  0  0  0  0  0  0  0  0  0  0
    1.3311    5.3442    6.0434 C   0  0  0  0  0  0  0  0  0  0  0  0
    1.1189    4.6400    7.2053 C   0  0  0  0  0  0  0  0  0  0  0  0
    1.3684    5.2335    8.4452 C   0  0  0  0  0  0  0  0  0  0  0  0
    1.8286    6.5269    8.5370 C   0  0  0  0  0  0  0  0  0  0  0  0
    2.0345    7.2157    7.3594 C   0  0  0  0  0  0  0  0  0  0  0  0
    1.7921    6.6414    6.1241 C   0  0  0  0  0  0  0  0  0  0  0  0
    1.9990    6.8884    9.8682 O   0  0  0  0  0  0  0  0  0  0  0  0
    1.9611    5.7431   10.6933 C   0  0  0  0  0  0  0  0  0  0  0  0
    1.2328    4.7202    9.8477 C   0  0  0  0  0  0  0  0  0  0  0  0
  1  2  1  0
  2  3  1  0
  3  4  2  0
  3  5  1  0
  5  6  1  0
  6  7  1  0
  7  8  1  0
  8  9  1  0
  9 10  1  0
 10 11  1  0
 11 12  2  0
 12 13  1  0
 13 14  2  0
 14 15  1  0
 15 16  2  0
 14 17  1  0
 17 18  1  0
 18 19  1  0
 12  8  1  0
 16 11  1  0
 19 13  1  0
M  END
$$$$
