
     RDKit          3D

 19 21  0  0  0  0  0  0  0  0999 V2000
    0.3219   -2.3051   10.7915 C   0  0  0  0  0  0  0  0  0  0  0  0
    0.2948   -0.8184   10.6399 C   0  0  0  0  0  0  0  0  0  0  0  0
    0.4168   -0.4035    9.1979 C   0  0  0  0  0  0  0  0  0  0  0  0
    1.1497   -1.0950    8.4777 O   0  0  0  0  0  0  0  0  0  0  0  0
   -0.2607    0.7115    8.6772 N   0  0  0  0  0  0  0  0  0  0  0  0
   -0.1052    1.0980    7.2937 C   0  0  0  0  0  0  0  0  0  0  0  0
    1.0809    2.0082    7.0530 C   0  0  0  0  0  0  0  0  0  0  0  0
    0.6109    3.4184    7.2556 C   0  0  0  0  0  0  0  0  0  0  0  0
   -0.4717    3.8416    6.2988 C   0  0  0  0  0  0  0  0  0  0  0  0
   -0.5048    5.3434    6.6349 C   0  0  0  0  0  0  0  0  0  0  0  0
    0.9849    5.5902    6.6509 C   0  0  0  0  0  0  0  0  0  0  0  0
    1.6382    4.4351    7.0113 C   0  0  0  0  0  0  0  0  0  0  0  0
    3.0328    4.4089    7.0901 C   0  0  0  0  0  0  0  0  0  0  0  0
    3.7839    5.5277    6.8123 C   0  0  0  0  0  0  0  0  0  0  0  0
    3.1087    6.6761    6.4530 C   0  0  0  0  0  0  0  0  0  0  0  0
    1.7281    6.7174    6.3705 C   0  0  0  0  0  0  0  0  0  0  0  0
    5.1383    5.2523    6.9595 O   0  0  0  0  0  0  0  0  0  0  0  0
    5.3474    3.8576    7.0305 C   0  0  0  0  0  0  0  0  0  0  0  0
    3.9964    3.3167    7.4472 C   0  0  0  0  0  0  0  0  0  0  0  0
  1  2  1  0
  2  3  1  0
  3  4  2  0
  3  5  1  0
  5  6  1  0
  6  7  1  0
  7  8  1  0
  8  9  1  0
  9 10  1  0
 10 11  1  0
 11 12  2  0
 12 13  1  0
 13 14  2  0
 14 15  1  0
 15 16  2  0
 14 17  1  0
 17 18  1  0
 18 19  1  0
 12  8  1  0
 16 11  1  0
 19 13  1  0
M  END
$$$$
