
     RDKit          3D

 19 21  0  0  0  0  0  0  0  0999 V2000
    0.5510   -2.3787   11.1311 C   0  0  0  0  0  0  0  0  0  0  0  0
    1.1842   -1.8383    9.8897 C   0  0  0  0  0  0  0  0  0  0  0  0
    0.5719   -0.5258    9.4784 C   0  0  0  0  0  0  0  0  0  0  0  0
   -0.1901    0.0143   10.2918 O   0  0  0  0  0  0  0  0  0  0  0  0
    0.8406    0.0718    8.2358 N   0  0  0  0  0  0  0  0  0  0  0  0
   -0.0279    1.0935    7.6976 C   0  0  0  0  0  0  0  0  0  0  0  0
    0.5307    2.4938    7.8395 C   0  0  0  0  0  0  0  0  0  0  0  0
    1.8554    2.5203    7.1358 C   0  0  0  0  0  0  0  0  0  0  0  0
    2.9804    1.9190    7.9354 C   0  0  0  0  0  0  0  0  0  0  0  0
    4.1562    2.3413    7.0361 C   0  0  0  0  0  0  0  0  0  0  0  0
    3.7369    3.7721    6.7965 C   0  0  0  0  0  0  0  0  0  0  0  0
    2.3671    3.8678    6.8688 C   0  0  0  0  0  0  0  0  0  0  0  0
    1.7358    5.1009    6.6881 C   0  0  0  0  0  0  0  0  0  0  0  0
    2.4604    6.2427    6.4349 C   0  0  0  0  0  0  0  0  0  0  0  0
    3.8334    6.1247    6.3661 C   0  0  0  0  0  0  0  0  0  0  0  0
    4.4729    4.9104    6.5430 C   0  0  0  0  0  0  0  0  0  0  0  0
    1.6124    7.3349    6.2938 O   0  0  0  0  0  0  0  0  0  0  0  0
    0.3202    7.0129    6.7634 C   0  0  0  0  0  0  0  0  0  0  0  0
    0.2904    5.5002    6.7120 C   0  0  0  0  0  0  0  0  0  0  0  0
  1  2  1  0
  2  3  1  0
  3  4  2  0
  3  5  1  0
  5  6  1  0
  6  7  1  0
  7  8  1  0
  8  9  1  0
  9 10  1  0
 10 11  1  0
 11 12  2  0
 12 13  1  0
 13 14  2  0
 14 15  1  0
 15 16  2  0
 14 17  1  0
 17 18  1  0
 18 19  1  0
 12  8  1  0
 16 11  1  0
 19 13  1  0
M  END
$$$$
