
     RDKit          3D

 19 21  0  0  0  0  0  0  0  0999 V2000
    0.4391   -2.4455   10.8593 C   0  0  0  0  0  0  0  0  0  0  0  0
    0.3613   -0.9531   10.8338 C   0  0  0  0  0  0  0  0  0  0  0  0
    1.0385   -0.3810    9.6169 C   0  0  0  0  0  0  0  0  0  0  0  0
    2.2264   -0.6859    9.4436 O   0  0  0  0  0  0  0  0  0  0  0  0
    0.3706    0.4596    8.7112 N   0  0  0  0  0  0  0  0  0  0  0  0
    1.1005    1.2130    7.7174 C   0  0  0  0  0  0  0  0  0  0  0  0
    1.5772    2.5613    8.2151 C   0  0  0  0  0  0  0  0  0  0  0  0
    2.0186    3.3497    7.0174 C   0  0  0  0  0  0  0  0  0  0  0  0
    3.4771    3.1824    6.6835 C   0  0  0  0  0  0  0  0  0  0  0  0
    3.5985    4.2840    5.6151 C   0  0  0  0  0  0  0  0  0  0  0  0
    2.8454    5.3709    6.3444 C   0  0  0  0  0  0  0  0  0  0  0  0
    1.9158    4.8025    7.1831 C   0  0  0  0  0  0  0  0  0  0  0  0
    1.0953    5.6085    7.9762 C   0  0  0  0  0  0  0  0  0  0  0  0
    1.1936    6.9804    7.9398 C   0  0  0  0  0  0  0  0  0  0  0  0
    2.1325    7.5303    7.0913 C   0  0  0  0  0  0  0  0  0  0  0  0
    2.9522    6.7451    6.3001 C   0  0  0  0  0  0  0  0  0  0  0  0
    0.2776    7.5563    8.8122 O   0  0  0  0  0  0  0  0  0  0  0  0
   -0.2398    6.5794    9.6908 C   0  0  0  0  0  0  0  0  0  0  0  0
    0.0170    5.2765    8.9641 C   0  0  0  0  0  0  0  0  0  0  0  0
  1  2  1  0
  2  3  1  0
  3  4  2  0
  3  5  1  0
  5  6  1  0
  6  7  1  0
  7  8  1  0
  8  9  1  0
  9 10  1  0
 10 11  1  0
 11 12  2  0
 12 13  1  0
 13 14  2  0
 14 15  1  0
 15 16  2  0
 14 17  1  0
 17 18  1  0
 18 19  1  0
 12  8  1  0
 16 11  1  0
 19 13  1  0
M  END
$$$$
