
     RDKit          3D

 19 21  0  0  0  0  0  0  0  0999 V2000
    0.7543   -2.4834   10.5014 C   0  0  0  0  0  0  0  0  0  0  0  0
    0.6989   -0.9993   10.3323 C   0  0  0  0  0  0  0  0  0  0  0  0
    1.3253   -0.5630    9.0347 C   0  0  0  0  0  0  0  0  0  0  0  0
    0.7699   -0.9370    7.9928 O   0  0  0  0  0  0  0  0  0  0  0  0
    2.4838    0.2301    8.9891 N   0  0  0  0  0  0  0  0  0  0  0  0
    2.9134    0.8505    7.7569 C   0  0  0  0  0  0  0  0  0  0  0  0
    2.0805    2.0534    7.3666 C   0  0  0  0  0  0  0  0  0  0  0  0
    2.9977    3.0349    6.6987 C   0  0  0  0  0  0  0  0  0  0  0  0
    4.2591    3.3116    7.4726 C   0  0  0  0  0  0  0  0  0  0  0  0
    4.7890    4.4920    6.6387 C   0  0  0  0  0  0  0  0  0  0  0  0
    3.4939    5.2574    6.5073 C   0  0  0  0  0  0  0  0  0  0  0  0
    2.4353    4.3809    6.5550 C   0  0  0  0  0  0  0  0  0  0  0  0
    1.1239    4.8533    6.4611 C   0  0  0  0  0  0  0  0  0  0  0  0
    0.8579    6.1958    6.3192 C   0  0  0  0  0  0  0  0  0  0  0  0
    1.9342    7.0578    6.2732 C   0  0  0  0  0  0  0  0  0  0  0  0
    3.2385    6.6050    6.3651 C   0  0  0  0  0  0  0  0  0  0  0  0
   -0.5129    6.4145    6.2481 O   0  0  0  0  0  0  0  0  0  0  0  0
   -1.2130    5.2592    6.6594 C   0  0  0  0  0  0  0  0  0  0  0  0
   -0.1996    4.1484    6.4836 C   0  0  0  0  0  0  0  0  0  0  0  0
  1  2  1  0
  2  3  1  0
  3  4  2  0
  3  5  1  0
  5  6  1  0
  6  7  1  0
  7  8  1  0
  8  9  1  0
  9 10  1  0
 10 11  1  0
 11 12  2  0
 12 13  1  0
 13 14  2  0
 14 15  1  0
 15 16  2  0
 14 17  1  0
 17 18  1  0
 18 19  1  0
 12  8  1  0
 16 11  1  0
 19 13  1  0
M  END
$$$$
