
     RDKit          3D

 19 21  0  0  0  0  0  0  0  0999 V2000
    1.2175   -3.0571   10.6134 C   0  0  0  0  0  0  0  0  0  0  0  0
    1.4575   -1.6820   11.1477 C   0  0  0  0  0  0  0  0  0  0  0  0
    0.9071   -0.6238   10.2289 C   0  0  0  0  0  0  0  0  0  0  0  0
    0.4900   -1.0035    9.1262 O   0  0  0  0  0  0  0  0  0  0  0  0
    0.8610    0.7333   10.5886 N   0  0  0  0  0  0  0  0  0  0  0  0
    0.2776    1.7179    9.7066 C   0  0  0  0  0  0  0  0  0  0  0  0
    1.2287    2.8388    9.3434 C   0  0  0  0  0  0  0  0  0  0  0  0
    1.0397    3.1305    7.8839 C   0  0  0  0  0  0  0  0  0  0  0  0
    1.9550    2.3442    6.9836 C   0  0  0  0  0  0  0  0  0  0  0  0
    1.6555    3.0681    5.6585 C   0  0  0  0  0  0  0  0  0  0  0  0
    1.7157    4.4866    6.1732 C   0  0  0  0  0  0  0  0  0  0  0  0
    1.3575    4.5092    7.5007 C   0  0  0  0  0  0  0  0  0  0  0  0
    1.3436    5.7146    8.2069 C   0  0  0  0  0  0  0  0  0  0  0  0
    1.6844    6.9011    7.5992 C   0  0  0  0  0  0  0  0  0  0  0  0
    2.0403    6.8561    6.2669 C   0  0  0  0  0  0  0  0  0  0  0  0
    2.0589    5.6701    5.5544 C   0  0  0  0  0  0  0  0  0  0  0  0
    1.5941    7.9532    8.5030 O   0  0  0  0  0  0  0  0  0  0  0  0
    1.4980    7.4566    9.8214 C   0  0  0  0  0  0  0  0  0  0  0  0
    1.0048    6.0380    9.6315 C   0  0  0  0  0  0  0  0  0  0  0  0
  1  2  1  0
  2  3  1  0
  3  4  2  0
  3  5  1  0
  5  6  1  0
  6  7  1  0
  7  8  1  0
  8  9  1  0
  9 10  1  0
 10 11  1  0
 11 12  2  0
 12 13  1  0
 13 14  2  0
 14 15  1  0
 15 16  2  0
 14 17  1  0
 17 18  1  0
 18 19  1  0
 12  8  1  0
 16 11  1  0
 19 13  1  0
M  END
$$$$
