
     RDKit          3D

 19 21  0  0  0  0  0  0  0  0999 V2000
    0.5503   -1.9018   10.8025 C   0  0  0  0  0  0  0  0  0  0  0  0
    1.3398   -2.0740    9.5451 C   0  0  0  0  0  0  0  0  0  0  0  0
    1.1234   -0.9299    8.5907 C   0  0  0  0  0  0  0  0  0  0  0  0
    0.0061   -0.8466    8.0629 O   0  0  0  0  0  0  0  0  0  0  0  0
    2.1289    0.0072    8.3012 N   0  0  0  0  0  0  0  0  0  0  0  0
    1.9017    1.0746    7.3541 C   0  0  0  0  0  0  0  0  0  0  0  0
    1.7883    2.4389    8.0012 C   0  0  0  0  0  0  0  0  0  0  0  0
    1.8684    3.4614    6.9062 C   0  0  0  0  0  0  0  0  0  0  0  0
    3.2230    3.5496    6.2552 C   0  0  0  0  0  0  0  0  0  0  0  0
    2.9917    4.8140    5.4083 C   0  0  0  0  0  0  0  0  0  0  0  0
    2.3201    5.6577    6.4655 C   0  0  0  0  0  0  0  0  0  0  0  0
    1.6641    4.8413    7.3565 C   0  0  0  0  0  0  0  0  0  0  0  0
    0.9690    5.3909    8.4366 C   0  0  0  0  0  0  0  0  0  0  0  0
    0.9219    6.7514    8.6364 C   0  0  0  0  0  0  0  0  0  0  0  0
    1.5864    7.5524    7.7306 C   0  0  0  0  0  0  0  0  0  0  0  0
    2.2791    7.0228    6.6563 C   0  0  0  0  0  0  0  0  0  0  0  0
    0.1746    7.0503    9.7696 O   0  0  0  0  0  0  0  0  0  0  0  0
   -0.0328    5.8842   10.5385 C   0  0  0  0  0  0  0  0  0  0  0  0
    0.1794    4.7615    9.5454 C   0  0  0  0  0  0  0  0  0  0  0  0
  1  2  1  0
  2  3  1  0
  3  4  2  0
  3  5  1  0
  5  6  1  0
  6  7  1  0
  7  8  1  0
  8  9  1  0
  9 10  1  0
 10 11  1  0
 11 12  2  0
 12 13  1  0
 13 14  2  0
 14 15  1  0
 15 16  2  0
 14 17  1  0
 17 18  1  0
 18 19  1  0
 12  8  1  0
 16 11  1  0
 19 13  1  0
M  END
$$$$
