
     RDKit          3D

 19 21  0  0  0  0  0  0  0  0999 V2000
    0.0062    3.3032   13.9487 C   0  0  0  0  0  0  0  0  0  0  0  0
   -0.4398    1.9935   13.3832 C   0  0  0  0  0  0  0  0  0  0  0  0
   -0.2417    1.9345   11.8919 C   0  0  0  0  0  0  0  0  0  0  0  0
   -1.2563    2.0377   11.1891 O   0  0  0  0  0  0  0  0  0  0  0  0
    1.0256    1.7707   11.3085 N   0  0  0  0  0  0  0  0  0  0  0  0
    1.1893    1.7654    9.8729 C   0  0  0  0  0  0  0  0  0  0  0  0
    1.4351    3.1414    9.2904 C   0  0  0  0  0  0  0  0  0  0  0  0
    2.2162    2.9575    8.0228 C   0  0  0  0  0  0  0  0  0  0  0  0
    3.5936    2.3880    8.2350 C   0  0  0  0  0  0  0  0  0  0  0  0
    4.1456    2.5783    6.8106 C   0  0  0  0  0  0  0  0  0  0  0  0
    3.6581    3.9890    6.5808 C   0  0  0  0  0  0  0  0  0  0  0  0
    2.5160    4.2058    7.3153 C   0  0  0  0  0  0  0  0  0  0  0  0
    1.8767    5.4474    7.2749 C   0  0  0  0  0  0  0  0  0  0  0  0
    2.3674    6.4775    6.5061 C   0  0  0  0  0  0  0  0  0  0  0  0
    3.5141    6.2388    5.7767 C   0  0  0  0  0  0  0  0  0  0  0  0
    4.1584    5.0146    5.8067 C   0  0  0  0  0  0  0  0  0  0  0  0
    1.5623    7.6035    6.6316 O   0  0  0  0  0  0  0  0  0  0  0  0
    0.6909    7.4595    7.7334 C   0  0  0  0  0  0  0  0  0  0  0  0
    0.6440    5.9629    7.9559 C   0  0  0  0  0  0  0  0  0  0  0  0
  1  2  1  0
  2  3  1  0
  3  4  2  0
  3  5  1  0
  5  6  1  0
  6  7  1  0
  7  8  1  0
  8  9  1  0
  9 10  1  0
 10 11  1  0
 11 12  2  0
 12 13  1  0
 13 14  2  0
 14 15  1  0
 15 16  2  0
 14 17  1  0
 17 18  1  0
 18 19  1  0
 12  8  1  0
 16 11  1  0
 19 13  1  0
M  END
$$$$
