
     RDKit          3D

 19 21  0  0  0  0  0  0  0  0999 V2000
   -0.7343    9.7371   10.1515 C   0  0  0  0  0  0  0  0  0  0  0  0
   -0.4871    8.3448    9.6672 C   0  0  0  0  0  0  0  0  0  0  0  0
    0.9822    8.0176    9.6396 C   0  0  0  0  0  0  0  0  0  0  0  0
    1.5475    7.8935   10.7346 O   0  0  0  0  0  0  0  0  0  0  0  0
    1.6936    7.8572    8.4390 N   0  0  0  0  0  0  0  0  0  0  0  0
    2.7761    6.9057    8.3363 C   0  0  0  0  0  0  0  0  0  0  0  0
    2.3128    5.4640    8.3476 C   0  0  0  0  0  0  0  0  0  0  0  0
    2.8910    4.7988    7.1335 C   0  0  0  0  0  0  0  0  0  0  0  0
    2.4798    5.4406    5.8352 C   0  0  0  0  0  0  0  0  0  0  0  0
    3.0332    4.3801    4.8664 C   0  0  0  0  0  0  0  0  0  0  0  0
    2.5359    3.1515    5.5901 C   0  0  0  0  0  0  0  0  0  0  0  0
    2.4455    3.4163    6.9364 C   0  0  0  0  0  0  0  0  0  0  0  0
    1.9985    2.4312    7.8204 C   0  0  0  0  0  0  0  0  0  0  0  0
    1.6402    1.1805    7.3726 C   0  0  0  0  0  0  0  0  0  0  0  0
    1.7387    0.9356    6.0183 C   0  0  0  0  0  0  0  0  0  0  0  0
    2.1794    1.9011    5.1306 C   0  0  0  0  0  0  0  0  0  0  0  0
    1.2320    0.3827    8.4350 O   0  0  0  0  0  0  0  0  0  0  0  0
    1.0033    1.1758    9.5807 C   0  0  0  0  0  0  0  0  0  0  0  0
    1.8002    2.4334    9.3070 C   0  0  0  0  0  0  0  0  0  0  0  0
  1  2  1  0
  2  3  1  0
  3  4  2  0
  3  5  1  0
  5  6  1  0
  6  7  1  0
  7  8  1  0
  8  9  1  0
  9 10  1  0
 10 11  1  0
 11 12  2  0
 12 13  1  0
 13 14  2  0
 14 15  1  0
 15 16  2  0
 14 17  1  0
 17 18  1  0
 18 19  1  0
 12  8  1  0
 16 11  1  0
 19 13  1  0
M  END
$$$$
