
     RDKit          3D

 19 21  0  0  0  0  0  0  0  0999 V2000
   -0.0758   -2.5371   11.1023 C   0  0  0  0  0  0  0  0  0  0  0  0
    0.1120   -1.0554   11.0444 C   0  0  0  0  0  0  0  0  0  0  0  0
    0.7090   -0.6207    9.7324 C   0  0  0  0  0  0  0  0  0  0  0  0
    1.7773   -1.1529    9.4012 O   0  0  0  0  0  0  0  0  0  0  0  0
    0.0977    0.3407    8.9108 N   0  0  0  0  0  0  0  0  0  0  0  0
    0.8026    0.9190    7.7899 C   0  0  0  0  0  0  0  0  0  0  0  0
    0.9656    2.4210    7.8919 C   0  0  0  0  0  0  0  0  0  0  0  0
    2.1006    2.8100    6.9912 C   0  0  0  0  0  0  0  0  0  0  0  0
    3.4368    2.2738    7.4312 C   0  0  0  0  0  0  0  0  0  0  0  0
    4.3339    3.0562    6.4552 C   0  0  0  0  0  0  0  0  0  0  0  0
    3.6860    4.4114    6.6113 C   0  0  0  0  0  0  0  0  0  0  0  0
    2.3604    4.2517    6.9404 C   0  0  0  0  0  0  0  0  0  0  0  0
    1.5457    5.3677    7.1467 C   0  0  0  0  0  0  0  0  0  0  0  0
    2.0424    6.6452    7.0270 C   0  0  0  0  0  0  0  0  0  0  0  0
    3.3747    6.7831    6.6958 C   0  0  0  0  0  0  0  0  0  0  0  0
    4.1940    5.6875    6.4886 C   0  0  0  0  0  0  0  0  0  0  0  0
    1.0447    7.5798    7.2782 O   0  0  0  0  0  0  0  0  0  0  0  0
   -0.0674    6.9550    7.8840 C   0  0  0  0  0  0  0  0  0  0  0  0
    0.0962    5.4976    7.5089 C   0  0  0  0  0  0  0  0  0  0  0  0
  1  2  1  0
  2  3  1  0
  3  4  2  0
  3  5  1  0
  5  6  1  0
  6  7  1  0
  7  8  1  0
  8  9  1  0
  9 10  1  0
 10 11  1  0
 11 12  2  0
 12 13  1  0
 13 14  2  0
 14 15  1  0
 15 16  2  0
 14 17  1  0
 17 18  1  0
 18 19  1  0
 12  8  1  0
 16 11  1  0
 19 13  1  0
M  END
$$$$
