
     RDKit          3D

 19 21  0  0  0  0  0  0  0  0999 V2000
   -1.4192   -1.9126    9.3533 C   0  0  0  0  0  0  0  0  0  0  0  0
   -1.4271   -0.4784    8.9323 C   0  0  0  0  0  0  0  0  0  0  0  0
   -0.0429    0.1133    8.9452 C   0  0  0  0  0  0  0  0  0  0  0  0
    0.7594   -0.3239    8.1090 O   0  0  0  0  0  0  0  0  0  0  0  0
    0.3379    1.1139    9.8548 N   0  0  0  0  0  0  0  0  0  0  0  0
    1.6505    1.7148    9.7943 C   0  0  0  0  0  0  0  0  0  0  0  0
    1.8458    2.6134    8.5912 C   0  0  0  0  0  0  0  0  0  0  0  0
    1.5857    4.0218    9.0379 C   0  0  0  0  0  0  0  0  0  0  0  0
    0.1275    4.3344    9.2442 C   0  0  0  0  0  0  0  0  0  0  0  0
    0.2415    5.8572    9.4379 C   0  0  0  0  0  0  0  0  0  0  0  0
    1.1869    6.1462    8.2963 C   0  0  0  0  0  0  0  0  0  0  0  0
    1.9738    5.0434    8.0610 C   0  0  0  0  0  0  0  0  0  0  0  0
    2.9284    5.0629    7.0411 C   0  0  0  0  0  0  0  0  0  0  0  0
    3.1059    6.1757    6.2517 C   0  0  0  0  0  0  0  0  0  0  0  0
    2.3064    7.2713    6.5047 C   0  0  0  0  0  0  0  0  0  0  0  0
    1.3567    7.2670    7.5110 C   0  0  0  0  0  0  0  0  0  0  0  0
    4.1073    5.9514    5.3141 O   0  0  0  0  0  0  0  0  0  0  0  0
    4.4083    4.5737    5.2423 C   0  0  0  0  0  0  0  0  0  0  0  0
    3.9063    4.0311    6.5634 C   0  0  0  0  0  0  0  0  0  0  0  0
  1  2  1  0
  2  3  1  0
  3  4  2  0
  3  5  1  0
  5  6  1  0
  6  7  1  0
  7  8  1  0
  8  9  1  0
  9 10  1  0
 10 11  1  0
 11 12  2  0
 12 13  1  0
 13 14  2  0
 14 15  1  0
 15 16  2  0
 14 17  1  0
 17 18  1  0
 18 19  1  0
 12  8  1  0
 16 11  1  0
 19 13  1  0
M  END
$$$$
