
     RDKit          3D

 19 21  0  0  0  0  0  0  0  0999 V2000
    0.0303   -2.1472   11.1221 C   0  0  0  0  0  0  0  0  0  0  0  0
    1.3227   -1.7256   10.5009 C   0  0  0  0  0  0  0  0  0  0  0  0
    1.1022   -0.8386    9.3045 C   0  0  0  0  0  0  0  0  0  0  0  0
    0.0227   -0.9610    8.7098 O   0  0  0  0  0  0  0  0  0  0  0  0
    2.0635    0.0887    8.8695 N   0  0  0  0  0  0  0  0  0  0  0  0
    1.7788    1.0050    7.7892 C   0  0  0  0  0  0  0  0  0  0  0  0
    1.8343    2.4602    8.2043 C   0  0  0  0  0  0  0  0  0  0  0  0
    2.2051    3.2581    6.9891 C   0  0  0  0  0  0  0  0  0  0  0  0
    3.6663    3.1816    6.6346 C   0  0  0  0  0  0  0  0  0  0  0  0
    3.6994    4.2731    5.5495 C   0  0  0  0  0  0  0  0  0  0  0  0
    2.8876    5.3190    6.2757 C   0  0  0  0  0  0  0  0  0  0  0  0
    2.0098    4.7034    7.1367 C   0  0  0  0  0  0  0  0  0  0  0  0
    1.1502    5.4656    7.9316 C   0  0  0  0  0  0  0  0  0  0  0  0
    1.1578    6.8403    7.8750 C   0  0  0  0  0  0  0  0  0  0  0  0
    2.0459    7.4379    7.0044 C   0  0  0  0  0  0  0  0  0  0  0  0
    2.9034    6.6964    6.2110 C   0  0  0  0  0  0  0  0  0  0  0  0
    0.2191    7.3678    8.7539 O   0  0  0  0  0  0  0  0  0  0  0  0
   -0.2200    6.3721    9.6538 C   0  0  0  0  0  0  0  0  0  0  0  0
    0.1107    5.0783    8.9408 C   0  0  0  0  0  0  0  0  0  0  0  0
  1  2  1  0
  2  3  1  0
  3  4  2  0
  3  5  1  0
  5  6  1  0
  6  7  1  0
  7  8  1  0
  8  9  1  0
  9 10  1  0
 10 11  1  0
 11 12  2  0
 12 13  1  0
 13 14  2  0
 14 15  1  0
 15 16  2  0
 14 17  1  0
 17 18  1  0
 18 19  1  0
 12  8  1  0
 16 11  1  0
 19 13  1  0
M  END
$$$$
