
     RDKit          3D

 19 21  0  0  0  0  0  0  0  0999 V2000
    0.9782   -1.9227   10.6514 C   0  0  0  0  0  0  0  0  0  0  0  0
   -0.1481   -1.3886    9.8266 C   0  0  0  0  0  0  0  0  0  0  0  0
    0.3462   -0.4892    8.7250 C   0  0  0  0  0  0  0  0  0  0  0  0
    1.4060   -0.8138    8.1722 O   0  0  0  0  0  0  0  0  0  0  0  0
   -0.3482    0.6662    8.3302 N   0  0  0  0  0  0  0  0  0  0  0  0
    0.0065    1.3709    7.1197 C   0  0  0  0  0  0  0  0  0  0  0  0
    1.2908    2.1643    7.2398 C   0  0  0  0  0  0  0  0  0  0  0  0
    0.9164    3.6161    7.2926 C   0  0  0  0  0  0  0  0  0  0  0  0
   -0.0502    4.0340    6.2167 C   0  0  0  0  0  0  0  0  0  0  0  0
    0.0060    5.5571    6.4328 C   0  0  0  0  0  0  0  0  0  0  0  0
    1.5042    5.6986    6.5579 C   0  0  0  0  0  0  0  0  0  0  0  0
    2.0354    4.5340    7.0605 C   0  0  0  0  0  0  0  0  0  0  0  0
    3.4130    4.4160    7.2606 C   0  0  0  0  0  0  0  0  0  0  0  0
    4.2681    5.4522    6.9636 C   0  0  0  0  0  0  0  0  0  0  0  0
    3.7146    6.6117    6.4608 C   0  0  0  0  0  0  0  0  0  0  0  0
    2.3524    6.7434    6.2569 C   0  0  0  0  0  0  0  0  0  0  0  0
    5.5810    5.0950    7.2474 O   0  0  0  0  0  0  0  0  0  0  0  0
    5.6755    3.6997    7.4426 C   0  0  0  0  0  0  0  0  0  0  0  0
    4.2576    3.2918    7.7819 C   0  0  0  0  0  0  0  0  0  0  0  0
  1  2  1  0
  2  3  1  0
  3  4  2  0
  3  5  1  0
  5  6  1  0
  6  7  1  0
  7  8  1  0
  8  9  1  0
  9 10  1  0
 10 11  1  0
 11 12  2  0
 12 13  1  0
 13 14  2  0
 14 15  1  0
 15 16  2  0
 14 17  1  0
 17 18  1  0
 18 19  1  0
 12  8  1  0
 16 11  1  0
 19 13  1  0
M  END
$$$$
