
     RDKit          3D

 19 21  0  0  0  0  0  0  0  0999 V2000
   -0.7652   -2.2061   10.3293 C   0  0  0  0  0  0  0  0  0  0  0  0
    0.6392   -1.7137   10.4683 C   0  0  0  0  0  0  0  0  0  0  0  0
    0.9200   -0.5625    9.5396 C   0  0  0  0  0  0  0  0  0  0  0  0
    0.9017   -0.8070    8.3256 O   0  0  0  0  0  0  0  0  0  0  0  0
    1.1917    0.7330   10.0099 N   0  0  0  0  0  0  0  0  0  0  0  0
    2.1597    1.5774    9.3484 C   0  0  0  0  0  0  0  0  0  0  0  0
    1.7138    3.0191    9.2222 C   0  0  0  0  0  0  0  0  0  0  0  0
    1.7757    3.3807    7.7676 C   0  0  0  0  0  0  0  0  0  0  0  0
    3.0994    3.0717    7.1203 C   0  0  0  0  0  0  0  0  0  0  0  0
    2.8706    3.7812    5.7735 C   0  0  0  0  0  0  0  0  0  0  0  0
    2.2802    5.0645    6.3073 C   0  0  0  0  0  0  0  0  0  0  0  0
    1.6406    4.8154    7.4988 C   0  0  0  0  0  0  0  0  0  0  0  0
    1.0179    5.8539    8.1955 C   0  0  0  0  0  0  0  0  0  0  0  0
    1.0269    7.1424    7.7130 C   0  0  0  0  0  0  0  0  0  0  0  0
    1.6737    7.3706    6.5158 C   0  0  0  0  0  0  0  0  0  0  0  0
    2.2951    6.3524    5.8145 C   0  0  0  0  0  0  0  0  0  0  0  0
    0.3461    7.9901    8.5789 O   0  0  0  0  0  0  0  0  0  0  0  0
    0.1364    7.3524    9.8212 C   0  0  0  0  0  0  0  0  0  0  0  0
    0.2619    5.8804    9.4904 C   0  0  0  0  0  0  0  0  0  0  0  0
  1  2  1  0
  2  3  1  0
  3  4  2  0
  3  5  1  0
  5  6  1  0
  6  7  1  0
  7  8  1  0
  8  9  1  0
  9 10  1  0
 10 11  1  0
 11 12  2  0
 12 13  1  0
 13 14  2  0
 14 15  1  0
 15 16  2  0
 14 17  1  0
 17 18  1  0
 18 19  1  0
 12  8  1  0
 16 11  1  0
 19 13  1  0
M  END
$$$$
