
     RDKit          3D

 19 21  0  0  0  0  0  0  0  0999 V2000
    0.8972   -3.3241    9.7445 C   0  0  0  0  0  0  0  0  0  0  0  0
    0.7896   -2.0374   10.4974 C   0  0  0  0  0  0  0  0  0  0  0  0
    0.6068   -0.8642    9.5718 C   0  0  0  0  0  0  0  0  0  0  0  0
   -0.2045   -1.0039    8.6464 O   0  0  0  0  0  0  0  0  0  0  0  0
    1.3140    0.3385    9.7348 N   0  0  0  0  0  0  0  0  0  0  0  0
    0.7829    1.5876    9.2392 C   0  0  0  0  0  0  0  0  0  0  0  0
    1.4880    2.0904    7.9970 C   0  0  0  0  0  0  0  0  0  0  0  0
    1.0148    3.4926    7.7508 C   0  0  0  0  0  0  0  0  0  0  0  0
   -0.1157    3.5875    6.7610 C   0  0  0  0  0  0  0  0  0  0  0  0
   -0.1471    5.1170    6.5902 C   0  0  0  0  0  0  0  0  0  0  0  0
    1.3394    5.3458    6.4537 C   0  0  0  0  0  0  0  0  0  0  0  0
    2.0198    4.3673    7.1395 C   0  0  0  0  0  0  0  0  0  0  0  0
    3.4167    4.3592    7.1559 C   0  0  0  0  0  0  0  0  0  0  0  0
    4.1433    5.3212    6.4928 C   0  0  0  0  0  0  0  0  0  0  0  0
    3.4411    6.2940    5.8113 C   0  0  0  0  0  0  0  0  0  0  0  0
    2.0579    6.3150    5.7858 C   0  0  0  0  0  0  0  0  0  0  0  0
    5.5057    5.1001    6.6570 O   0  0  0  0  0  0  0  0  0  0  0  0
    5.7311    3.8036    7.1689 C   0  0  0  0  0  0  0  0  0  0  0  0
    4.4064    3.4369    7.8033 C   0  0  0  0  0  0  0  0  0  0  0  0
  1  2  1  0
  2  3  1  0
  3  4  2  0
  3  5  1  0
  5  6  1  0
  6  7  1  0
  7  8  1  0
  8  9  1  0
  9 10  1  0
 10 11  1  0
 11 12  2  0
 12 13  1  0
 13 14  2  0
 14 15  1  0
 15 16  2  0
 14 17  1  0
 17 18  1  0
 18 19  1  0
 12  8  1  0
 16 11  1  0
 19 13  1  0
M  END
$$$$
