
     RDKit          3D

 19 21  0  0  0  0  0  0  0  0999 V2000
    0.8007   -2.9728   10.3869 C   0  0  0  0  0  0  0  0  0  0  0  0
    0.6215   -1.5001   10.5688 C   0  0  0  0  0  0  0  0  0  0  0  0
    0.8580   -0.7478    9.2863 C   0  0  0  0  0  0  0  0  0  0  0  0
    1.7969   -1.1343    8.5770 O   0  0  0  0  0  0  0  0  0  0  0  0
    0.0620    0.3422    8.8971 N   0  0  0  0  0  0  0  0  0  0  0  0
    0.4623    1.2059    7.8101 C   0  0  0  0  0  0  0  0  0  0  0  0
    1.1782    2.4587    8.2694 C   0  0  0  0  0  0  0  0  0  0  0  0
    1.4187    3.3070    7.0556 C   0  0  0  0  0  0  0  0  0  0  0  0
    2.7325    3.0329    6.3733 C   0  0  0  0  0  0  0  0  0  0  0  0
    2.7292    4.2104    5.3817 C   0  0  0  0  0  0  0  0  0  0  0  0
    2.2928    5.2933    6.3395 C   0  0  0  0  0  0  0  0  0  0  0  0
    1.5228    4.7419    7.3365 C   0  0  0  0  0  0  0  0  0  0  0  0
    1.0040    5.5469    8.3536 C   0  0  0  0  0  0  0  0  0  0  0  0
    1.2466    6.9009    8.3853 C   0  0  0  0  0  0  0  0  0  0  0  0
    2.0212    7.4338    7.3755 C   0  0  0  0  0  0  0  0  0  0  0  0
    2.5421    6.6494    6.3616 C   0  0  0  0  0  0  0  0  0  0  0  0
    0.6276    7.4797    9.4870 O   0  0  0  0  0  0  0  0  0  0  0  0
    0.2187    6.4806   10.3973 C   0  0  0  0  0  0  0  0  0  0  0  0
    0.1514    5.2305    9.5461 C   0  0  0  0  0  0  0  0  0  0  0  0
  1  2  1  0
  2  3  1  0
  3  4  2  0
  3  5  1  0
  5  6  1  0
  6  7  1  0
  7  8  1  0
  8  9  1  0
  9 10  1  0
 10 11  1  0
 11 12  2  0
 12 13  1  0
 13 14  2  0
 14 15  1  0
 15 16  2  0
 14 17  1  0
 17 18  1  0
 18 19  1  0
 12  8  1  0
 16 11  1  0
 19 13  1  0
M  END
$$$$
