
     RDKit          3D

 19 21  0  0  0  0  0  0  0  0999 V2000
    0.0823   -1.8134   10.8378 C   0  0  0  0  0  0  0  0  0  0  0  0
    0.0583   -1.5902    9.3601 C   0  0  0  0  0  0  0  0  0  0  0  0
    1.0914   -0.5820    8.9324 C   0  0  0  0  0  0  0  0  0  0  0  0
    2.2570   -0.7874    9.2975 O   0  0  0  0  0  0  0  0  0  0  0  0
    0.7669    0.5433    8.1568 N   0  0  0  0  0  0  0  0  0  0  0  0
    1.7977    1.3352    7.5258 C   0  0  0  0  0  0  0  0  0  0  0  0
    1.9528    2.7140    8.1322 C   0  0  0  0  0  0  0  0  0  0  0  0
    1.9193    3.7044    7.0058 C   0  0  0  0  0  0  0  0  0  0  0  0
    3.2516    3.9066    6.3345 C   0  0  0  0  0  0  0  0  0  0  0  0
    2.8865    5.1144    5.4528 C   0  0  0  0  0  0  0  0  0  0  0  0
    2.1447    5.9198    6.4928 C   0  0  0  0  0  0  0  0  0  0  0  0
    1.5827    5.0706    7.4168 C   0  0  0  0  0  0  0  0  0  0  0  0
    0.8472    5.5820    8.4889 C   0  0  0  0  0  0  0  0  0  0  0  0
    0.6663    6.9366    8.6479 C   0  0  0  0  0  0  0  0  0  0  0  0
    1.2383    7.7710    7.7096 C   0  0  0  0  0  0  0  0  0  0  0  0
    1.9695    7.2794    6.6427 C   0  0  0  0  0  0  0  0  0  0  0  0
   -0.0955    7.1952    9.7814 O   0  0  0  0  0  0  0  0  0  0  0  0
   -0.1775    6.0390   10.5880 C   0  0  0  0  0  0  0  0  0  0  0  0
    0.1357    4.9123    9.6266 C   0  0  0  0  0  0  0  0  0  0  0  0
  1  2  1  0
  2  3  1  0
  3  4  2  0
  3  5  1  0
  5  6  1  0
  6  7  1  0
  7  8  1  0
  8  9  1  0
  9 10  1  0
 10 11  1  0
 11 12  2  0
 12 13  1  0
 13 14  2  0
 14 15  1  0
 15 16  2  0
 14 17  1  0
 17 18  1  0
 18 19  1  0
 12  8  1  0
 16 11  1  0
 19 13  1  0
M  END
$$$$
