
     RDKit          3D

 19 21  0  0  0  0  0  0  0  0999 V2000
   -0.0761   -1.6950   10.3563 C   0  0  0  0  0  0  0  0  0  0  0  0
    0.9723   -1.4248    9.3257 C   0  0  0  0  0  0  0  0  0  0  0  0
    1.4746   -0.0075    9.4007 C   0  0  0  0  0  0  0  0  0  0  0  0
    1.7044    0.4446   10.5307 O   0  0  0  0  0  0  0  0  0  0  0  0
    1.6785    0.7788    8.2547 N   0  0  0  0  0  0  0  0  0  0  0  0
    2.3441    2.0585    8.3385 C   0  0  0  0  0  0  0  0  0  0  0  0
    1.3964    3.2150    8.5783 C   0  0  0  0  0  0  0  0  0  0  0  0
    1.4105    4.0681    7.3443 C   0  0  0  0  0  0  0  0  0  0  0  0
    2.7030    4.0027    6.5750 C   0  0  0  0  0  0  0  0  0  0  0  0
    2.4373    5.1441    5.5770 C   0  0  0  0  0  0  0  0  0  0  0  0
    1.8914    6.1578    6.5542 C   0  0  0  0  0  0  0  0  0  0  0  0
    1.2924    5.5055    7.6062 C   0  0  0  0  0  0  0  0  0  0  0  0
    0.7157    6.2327    8.6504 C   0  0  0  0  0  0  0  0  0  0  0  0
    0.7308    7.6085    8.6548 C   0  0  0  0  0  0  0  0  0  0  0  0
    1.3365    8.2431    7.5899 C   0  0  0  0  0  0  0  0  0  0  0  0
    1.9120    7.5366    6.5486 C   0  0  0  0  0  0  0  0  0  0  0  0
    0.0989    8.0975    9.7921 O   0  0  0  0  0  0  0  0  0  0  0  0
   -0.0760    7.0621   10.7362 C   0  0  0  0  0  0  0  0  0  0  0  0
    0.0094    5.8021    9.9014 C   0  0  0  0  0  0  0  0  0  0  0  0
  1  2  1  0
  2  3  1  0
  3  4  2  0
  3  5  1  0
  5  6  1  0
  6  7  1  0
  7  8  1  0
  8  9  1  0
  9 10  1  0
 10 11  1  0
 11 12  2  0
 12 13  1  0
 13 14  2  0
 14 15  1  0
 15 16  2  0
 14 17  1  0
 17 18  1  0
 18 19  1  0
 12  8  1  0
 16 11  1  0
 19 13  1  0
M  END
$$$$
