
     RDKit          3D

 19 21  0  0  0  0  0  0  0  0999 V2000
    0.6328   -2.4211   10.7640 C   0  0  0  0  0  0  0  0  0  0  0  0
    0.9164   -1.9680    9.3681 C   0  0  0  0  0  0  0  0  0  0  0  0
    0.4648   -0.5500    9.1404 C   0  0  0  0  0  0  0  0  0  0  0  0
    0.3051    0.1538   10.1470 O   0  0  0  0  0  0  0  0  0  0  0  0
    0.2310   -0.0332    7.8553 N   0  0  0  0  0  0  0  0  0  0  0  0
    0.0450    1.3841    7.6452 C   0  0  0  0  0  0  0  0  0  0  0  0
    1.3348    2.1244    7.3601 C   0  0  0  0  0  0  0  0  0  0  0  0
    1.0199    3.5912    7.3682 C   0  0  0  0  0  0  0  0  0  0  0  0
    0.0001    3.9995    6.3387 C   0  0  0  0  0  0  0  0  0  0  0  0
    0.1280    5.5272    6.4781 C   0  0  0  0  0  0  0  0  0  0  0  0
    1.6356    5.6129    6.4986 C   0  0  0  0  0  0  0  0  0  0  0  0
    2.1548    4.4514    7.0204 C   0  0  0  0  0  0  0  0  0  0  0  0
    3.5372    4.2864    7.1359 C   0  0  0  0  0  0  0  0  0  0  0  0
    4.4091    5.2724    6.7350 C   0  0  0  0  0  0  0  0  0  0  0  0
    3.8674    6.4298    6.2147 C   0  0  0  0  0  0  0  0  0  0  0  0
    2.5006    6.6077    6.0938 C   0  0  0  0  0  0  0  0  0  0  0  0
    5.7236    4.8750    6.9494 O   0  0  0  0  0  0  0  0  0  0  0  0
    5.7782    3.4872    7.2042 C   0  0  0  0  0  0  0  0  0  0  0  0
    4.3718    3.1531    7.6539 C   0  0  0  0  0  0  0  0  0  0  0  0
  1  2  1  0
  2  3  1  0
  3  4  2  0
  3  5  1  0
  5  6  1  0
  6  7  1  0
  7  8  1  0
  8  9  1  0
  9 10  1  0
 10 11  1  0
 11 12  2  0
 12 13  1  0
 13 14  2  0
 14 15  1  0
 15 16  2  0
 14 17  1  0
 17 18  1  0
 18 19  1  0
 12  8  1  0
 16 11  1  0
 19 13  1  0
M  END
$$$$
