
     RDKit          3D

 19 21  0  0  0  0  0  0  0  0999 V2000
    0.4910   -2.2247   11.2876 C   0  0  0  0  0  0  0  0  0  0  0  0
    0.4951   -1.6804    9.8956 C   0  0  0  0  0  0  0  0  0  0  0  0
    1.3099   -0.4184    9.7937 C   0  0  0  0  0  0  0  0  0  0  0  0
    2.0327   -0.1406   10.7603 O   0  0  0  0  0  0  0  0  0  0  0  0
    1.2648    0.4156    8.6642 N   0  0  0  0  0  0  0  0  0  0  0  0
    2.4097    1.2074    8.2771 C   0  0  0  0  0  0  0  0  0  0  0  0
    2.2941    2.6650    8.6711 C   0  0  0  0  0  0  0  0  0  0  0  0
    2.3845    3.4769    7.4128 C   0  0  0  0  0  0  0  0  0  0  0  0
    3.7709    3.5415    6.8295 C   0  0  0  0  0  0  0  0  0  0  0  0
    3.5206    4.6137    5.7537 C   0  0  0  0  0  0  0  0  0  0  0  0
    2.7328    5.5844    6.6008 C   0  0  0  0  0  0  0  0  0  0  0  0
    2.0698    4.8975    7.5906 C   0  0  0  0  0  0  0  0  0  0  0  0
    1.2747    5.5822    8.5129 C   0  0  0  0  0  0  0  0  0  0  0  0
    1.1341    6.9498    8.4567 C   0  0  0  0  0  0  0  0  0  0  0  0
    1.8074    7.6195    7.4558 C   0  0  0  0  0  0  0  0  0  0  0  0
    2.5986    6.9553    6.5353 C   0  0  0  0  0  0  0  0  0  0  0  0
    0.2983    7.3944    9.4744 O   0  0  0  0  0  0  0  0  0  0  0  0
    0.1109    6.3739   10.4323 C   0  0  0  0  0  0  0  0  0  0  0  0
    0.4534    5.1087    9.6749 C   0  0  0  0  0  0  0  0  0  0  0  0
  1  2  1  0
  2  3  1  0
  3  4  2  0
  3  5  1  0
  5  6  1  0
  6  7  1  0
  7  8  1  0
  8  9  1  0
  9 10  1  0
 10 11  1  0
 11 12  2  0
 12 13  1  0
 13 14  2  0
 14 15  1  0
 15 16  2  0
 14 17  1  0
 17 18  1  0
 18 19  1  0
 12  8  1  0
 16 11  1  0
 19 13  1  0
M  END
$$$$
