
     RDKit          3D

 19 21  0  0  0  0  0  0  0  0999 V2000
   -0.8229   -1.0785   10.5817 C   0  0  0  0  0  0  0  0  0  0  0  0
   -0.1970   -1.3265    9.2472 C   0  0  0  0  0  0  0  0  0  0  0  0
    0.8162   -0.2677    8.9021 C   0  0  0  0  0  0  0  0  0  0  0  0
    1.7176   -0.0671    9.7275 O   0  0  0  0  0  0  0  0  0  0  0  0
    0.7574    0.4669    7.7062 N   0  0  0  0  0  0  0  0  0  0  0  0
    1.8788    1.2651    7.2668 C   0  0  0  0  0  0  0  0  0  0  0  0
    1.8219    2.6994    7.7491 C   0  0  0  0  0  0  0  0  0  0  0  0
    2.6927    3.5127    6.8374 C   0  0  0  0  0  0  0  0  0  0  0  0
    4.1660    3.2645    7.0232 C   0  0  0  0  0  0  0  0  0  0  0  0
    4.7065    4.4052    6.1421 C   0  0  0  0  0  0  0  0  0  0  0  0
    3.7953    5.5040    6.6347 C   0  0  0  0  0  0  0  0  0  0  0  0
    2.6047    4.9596    7.0554 C   0  0  0  0  0  0  0  0  0  0  0  0
    1.5952    5.7799    7.5650 C   0  0  0  0  0  0  0  0  0  0  0  0
    1.7627    7.1424    7.6587 C   0  0  0  0  0  0  0  0  0  0  0  0
    2.9645    7.6681    7.2309 C   0  0  0  0  0  0  0  0  0  0  0  0
    3.9736    6.8685    6.7241 C   0  0  0  0  0  0  0  0  0  0  0  0
    0.6253    7.7359    8.1934 O   0  0  0  0  0  0  0  0  0  0  0  0
   -0.2127    6.7550    8.7675 C   0  0  0  0  0  0  0  0  0  0  0  0
    0.2238    5.4739    8.0892 C   0  0  0  0  0  0  0  0  0  0  0  0
  1  2  1  0
  2  3  1  0
  3  4  2  0
  3  5  1  0
  5  6  1  0
  6  7  1  0
  7  8  1  0
  8  9  1  0
  9 10  1  0
 10 11  1  0
 11 12  2  0
 12 13  1  0
 13 14  2  0
 14 15  1  0
 15 16  2  0
 14 17  1  0
 17 18  1  0
 18 19  1  0
 12  8  1  0
 16 11  1  0
 19 13  1  0
M  END
$$$$
