
     RDKit          3D

 19 21  0  0  0  0  0  0  0  0999 V2000
    0.1122   -2.1840   10.1443 C   0  0  0  0  0  0  0  0  0  0  0  0
    0.6828   -0.8114    9.9878 C   0  0  0  0  0  0  0  0  0  0  0  0
    0.2375   -0.1665    8.7023 C   0  0  0  0  0  0  0  0  0  0  0  0
    0.2240   -0.8840    7.6928 O   0  0  0  0  0  0  0  0  0  0  0  0
   -0.1477    1.1826    8.6328 N   0  0  0  0  0  0  0  0  0  0  0  0
   -0.5000    1.7922    7.3711 C   0  0  0  0  0  0  0  0  0  0  0  0
    0.6707    2.4537    6.6748 C   0  0  0  0  0  0  0  0  0  0  0  0
    0.5629    3.9294    6.9225 C   0  0  0  0  0  0  0  0  0  0  0  0
   -0.3218    4.6477    5.9387 C   0  0  0  0  0  0  0  0  0  0  0  0
    0.0080    6.0957    6.3439 C   0  0  0  0  0  0  0  0  0  0  0  0
    1.5084    5.9529    6.4391 C   0  0  0  0  0  0  0  0  0  0  0  0
    1.8264    4.6576    6.7735 C   0  0  0  0  0  0  0  0  0  0  0  0
    3.1621    4.2732    6.9141 C   0  0  0  0  0  0  0  0  0  0  0  0
    4.1866    5.1717    6.7239 C   0  0  0  0  0  0  0  0  0  0  0  0
    3.8457    6.4662    6.3893 C   0  0  0  0  0  0  0  0  0  0  0  0
    2.5275    6.8617    6.2464 C   0  0  0  0  0  0  0  0  0  0  0  0
    5.4165    4.5545    6.9192 O   0  0  0  0  0  0  0  0  0  0  0  0
    5.2611    3.1511    6.9333 C   0  0  0  0  0  0  0  0  0  0  0  0
    3.7959    2.9594    7.2623 C   0  0  0  0  0  0  0  0  0  0  0  0
  1  2  1  0
  2  3  1  0
  3  4  2  0
  3  5  1  0
  5  6  1  0
  6  7  1  0
  7  8  1  0
  8  9  1  0
  9 10  1  0
 10 11  1  0
 11 12  2  0
 12 13  1  0
 13 14  2  0
 14 15  1  0
 15 16  2  0
 14 17  1  0
 17 18  1  0
 18 19  1  0
 12  8  1  0
 16 11  1  0
 19 13  1  0
M  END
$$$$
