
     RDKit          3D

 19 21  0  0  0  0  0  0  0  0999 V2000
   -0.2010   -2.3542   10.5438 C   0  0  0  0  0  0  0  0  0  0  0  0
   -0.4673   -1.0592    9.8466 C   0  0  0  0  0  0  0  0  0  0  0  0
    0.7949   -0.4577    9.2882 C   0  0  0  0  0  0  0  0  0  0  0  0
    1.7869   -0.4526   10.0300 O   0  0  0  0  0  0  0  0  0  0  0  0
    0.8625    0.0765    7.9908 N   0  0  0  0  0  0  0  0  0  0  0  0
    1.9262    0.9775    7.6110 C   0  0  0  0  0  0  0  0  0  0  0  0
    1.8287    2.3362    8.2725 C   0  0  0  0  0  0  0  0  0  0  0  0
    1.4796    3.3299    7.2041 C   0  0  0  0  0  0  0  0  0  0  0  0
    1.7862    2.8548    5.8088 C   0  0  0  0  0  0  0  0  0  0  0  0
    1.5434    4.1750    5.0554 C   0  0  0  0  0  0  0  0  0  0  0  0
    2.2831    5.0956    5.9965 C   0  0  0  0  0  0  0  0  0  0  0  0
    2.2473    4.5769    7.2695 C   0  0  0  0  0  0  0  0  0  0  0  0
    2.8735    5.2484    8.3224 C   0  0  0  0  0  0  0  0  0  0  0  0
    3.5368    6.4361    8.1168 C   0  0  0  0  0  0  0  0  0  0  0  0
    3.5604    6.9393    6.8322 C   0  0  0  0  0  0  0  0  0  0  0  0
    2.9451    6.2857    5.7793 C   0  0  0  0  0  0  0  0  0  0  0  0
    4.0730    6.9060    9.3100 O   0  0  0  0  0  0  0  0  0  0  0  0
    4.0558    5.8867   10.2871 C   0  0  0  0  0  0  0  0  0  0  0  0
    2.9979    4.9287    9.7824 C   0  0  0  0  0  0  0  0  0  0  0  0
  1  2  1  0
  2  3  1  0
  3  4  2  0
  3  5  1  0
  5  6  1  0
  6  7  1  0
  7  8  1  0
  8  9  1  0
  9 10  1  0
 10 11  1  0
 11 12  2  0
 12 13  1  0
 13 14  2  0
 14 15  1  0
 15 16  2  0
 14 17  1  0
 17 18  1  0
 18 19  1  0
 12  8  1  0
 16 11  1  0
 19 13  1  0
M  END
$$$$
