
     RDKit          3D

 33 36  0  0  0  0  0  0  0  0999 V2000
   -4.6954    1.2063    8.7911 C   0  0  0  0  0  0  0  0  0  0  0  0
   -3.9840    1.0517   10.1234 C   0  0  0  0  0  0  0  0  0  0  0  0
   -4.5859    1.9628   11.1754 C   0  0  0  0  0  0  0  0  0  0  0  0
   -3.8939    1.6643   12.4874 C   0  0  0  0  0  0  0  0  0  0  0  0
   -4.4203    0.9809   13.5198 N   0  0  0  0  0  0  0  0  0  0  0  0
   -3.5550    0.8755   14.5298 C   0  0  0  0  0  0  0  0  0  0  0  0
   -2.4016    1.5369   14.1066 C   0  0  0  0  0  0  0  0  0  0  0  0
   -2.6480    1.9998   12.8708 N   0  0  0  0  0  0  0  0  0  0  0  0
   -1.7547    2.7833   12.0717 C   0  0  0  0  0  0  0  0  0  0  0  0
   -0.5080    2.1277   11.6575 C   0  0  0  0  0  0  0  0  0  0  0  0
   -0.5070    0.9172   10.9509 C   0  0  0  0  0  0  0  0  0  0  0  0
    0.6256    0.2760   10.5383 C   0  0  0  0  0  0  0  0  0  0  0  0
    1.8674    0.8357   10.8229 C   0  0  0  0  0  0  0  0  0  0  0  0
    1.8980    2.0066   11.5049 C   0  0  0  0  0  0  0  0  0  0  0  0
    0.7236    2.6523   11.9213 C   0  0  0  0  0  0  0  0  0  0  0  0
    3.0661    0.1392   10.3818 C   0  0  0  0  0  0  0  0  0  0  0  0
    3.3793    0.0791    9.0394 C   0  0  0  0  0  0  0  0  0  0  0  0
    4.5211   -0.6018    8.6290 C   0  0  0  0  0  0  0  0  0  0  0  0
    5.3324   -1.2095    9.5440 C   0  0  0  0  0  0  0  0  0  0  0  0
    5.0255   -1.1538   10.8874 C   0  0  0  0  0  0  0  0  0  0  0  0
    3.8757   -0.4682   11.3060 C   0  0  0  0  0  0  0  0  0  0  0  0
    3.5689   -0.4008   12.7102 C   0  0  0  0  0  0  0  0  0  0  0  0
    4.2892    0.0666   13.7402 N   0  0  0  0  0  0  0  0  0  0  0  0
    3.5931   -0.0905   14.8537 N   0  0  0  0  0  0  0  0  0  0  0  0
    2.4394   -0.6523   14.5450 N   0  0  0  0  0  0  0  0  0  0  0  0
    2.4060   -0.8475   13.2549 N   0  0  0  0  0  0  0  0  0  0  0  0
   -1.1850    1.6198   14.9176 C   0  0  0  0  0  0  0  0  0  0  0  0
   -0.9126    2.6977   15.5568 O   0  0  0  0  0  0  0  0  0  0  0  0
   -0.2642    0.6124   15.0740 O   0  0  0  0  0  1  0  0  0  0  0  0
   -3.8357    0.1925   15.8051 C   0  0  0  0  0  0  0  0  0  0  0  0
   -5.1890   -0.1546   15.8825 O   0  0  0  0  0  0  0  0  0  0  0  0
   -3.5748    1.1846   16.9493 C   0  0  0  0  0  0  0  0  0  0  0  0
   -3.0107   -1.0179   16.0563 C   0  0  0  0  0  0  0  0  0  0  0  0
  1  2  1  0
  2  3  1  0
  3  4  1  0
  4  5  2  0
  5  6  1  0
  6  7  2  0
  7  8  1  0
  8  9  1  0
  9 10  1  0
 10 11  2  0
 11 12  1  0
 12 13  2  0
 13 14  1  0
 14 15  2  0
 13 16  1  0
 16 17  2  0
 17 18  1  0
 18 19  2  0
 19 20  1  0
 20 21  2  0
 21 22  1  0
 22 23  2  0
 23 24  1  0
 24 25  2  0
 25 26  1  0
  7 27  1  0
 27 28  2  0
 27 29  1  0
  6 30  1  0
 30 31  1  0
 30 32  1  0
 30 33  1  0
  8  4  1  0
 15 10  1  0
 21 16  1  0
 26 22  1  0
M  CHG  1  29  -1
M  END
$$$$
