
     RDKit          3D

 33 36  0  0  0  0  0  0  0  0999 V2000
   -1.6642    6.6747   13.8275 C   0  0  0  0  0  0  0  0  0  0  0  0
   -2.2747    5.3036   14.0562 C   0  0  0  0  0  0  0  0  0  0  0  0
   -2.2094    4.4577   12.7995 C   0  0  0  0  0  0  0  0  0  0  0  0
   -3.0529    3.2240   13.0357 C   0  0  0  0  0  0  0  0  0  0  0  0
   -4.3265    3.0506   12.6382 N   0  0  0  0  0  0  0  0  0  0  0  0
   -4.7894    1.8490   12.9874 C   0  0  0  0  0  0  0  0  0  0  0  0
   -3.7358    1.2188   13.6504 C   0  0  0  0  0  0  0  0  0  0  0  0
   -2.7081    2.0824   13.6598 N   0  0  0  0  0  0  0  0  0  0  0  0
   -1.4352    1.8692   14.2801 C   0  0  0  0  0  0  0  0  0  0  0  0
   -0.3298    1.5019   13.3863 C   0  0  0  0  0  0  0  0  0  0  0  0
    0.7139    2.3911   13.0949 C   0  0  0  0  0  0  0  0  0  0  0  0
    1.7654    2.0910   12.2773 C   0  0  0  0  0  0  0  0  0  0  0  0
    1.8303    0.8338   11.6844 C   0  0  0  0  0  0  0  0  0  0  0  0
    0.8351   -0.0478   11.9481 C   0  0  0  0  0  0  0  0  0  0  0  0
   -0.2386    0.2774   12.7913 C   0  0  0  0  0  0  0  0  0  0  0  0
    2.9536    0.5293   10.8115 C   0  0  0  0  0  0  0  0  0  0  0  0
    2.9380    0.9361    9.4931 C   0  0  0  0  0  0  0  0  0  0  0  0
    4.0122    0.6268    8.6648 C   0  0  0  0  0  0  0  0  0  0  0  0
    5.0797   -0.0750    9.1468 C   0  0  0  0  0  0  0  0  0  0  0  0
    5.1021   -0.4851   10.4634 C   0  0  0  0  0  0  0  0  0  0  0  0
    4.0218   -0.1753   11.3024 C   0  0  0  0  0  0  0  0  0  0  0  0
    4.0577   -0.5929   12.6789 C   0  0  0  0  0  0  0  0  0  0  0  0
    4.7761   -0.1318   13.7131 N   0  0  0  0  0  0  0  0  0  0  0  0
    4.4770   -0.8396   14.7896 N   0  0  0  0  0  0  0  0  0  0  0  0
    3.5778   -1.7452   14.4531 N   0  0  0  0  0  0  0  0  0  0  0  0
    3.3117   -1.6120   13.1823 N   0  0  0  0  0  0  0  0  0  0  0  0
   -3.8210   -0.1489   14.1672 C   0  0  0  0  0  0  0  0  0  0  0  0
   -4.1369   -0.3525   15.3933 O   0  0  0  0  0  0  0  0  0  0  0  0
   -3.5897   -1.2896   13.4377 O   0  0  0  0  0  1  0  0  0  0  0  0
   -6.1509    1.3615   12.7037 C   0  0  0  0  0  0  0  0  0  0  0  0
   -6.5744    1.8073   11.4468 O   0  0  0  0  0  0  0  0  0  0  0  0
   -7.1083    1.9843   13.7316 C   0  0  0  0  0  0  0  0  0  0  0  0
   -6.3087   -0.1148   12.7719 C   0  0  0  0  0  0  0  0  0  0  0  0
  1  2  1  0
  2  3  1  0
  3  4  1  0
  4  5  2  0
  5  6  1  0
  6  7  2  0
  7  8  1  0
  8  9  1  0
  9 10  1  0
 10 11  2  0
 11 12  1  0
 12 13  2  0
 13 14  1  0
 14 15  2  0
 13 16  1  0
 16 17  2  0
 17 18  1  0
 18 19  2  0
 19 20  1  0
 20 21  2  0
 21 22  1  0
 22 23  2  0
 23 24  1  0
 24 25  2  0
 25 26  1  0
  7 27  1  0
 27 28  2  0
 27 29  1  0
  6 30  1  0
 30 31  1  0
 30 32  1  0
 30 33  1  0
  8  4  1  0
 15 10  1  0
 21 16  1  0
 26 22  1  0
M  CHG  1  29  -1
M  END
$$$$
