
     RDKit          3D

 33 36  0  0  0  0  0  0  0  0999 V2000
   -6.8301    0.8300    9.0732 C   0  0  0  0  0  0  0  0  0  0  0  0
   -6.0172    0.8971   10.3537 C   0  0  0  0  0  0  0  0  0  0  0  0
   -5.0080    2.0276   10.3039 C   0  0  0  0  0  0  0  0  0  0  0  0
   -4.4439    2.1973   11.6976 C   0  0  0  0  0  0  0  0  0  0  0  0
   -4.7002    3.2195   12.5338 N   0  0  0  0  0  0  0  0  0  0  0  0
   -4.0609    3.0742   13.6957 C   0  0  0  0  0  0  0  0  0  0  0  0
   -3.3523    1.8771   13.5873 C   0  0  0  0  0  0  0  0  0  0  0  0
   -3.6086    1.3808   12.3666 N   0  0  0  0  0  0  0  0  0  0  0  0
   -3.0499    0.1859   11.8094 C   0  0  0  0  0  0  0  0  0  0  0  0
   -1.6277    0.2398   11.4489 C   0  0  0  0  0  0  0  0  0  0  0  0
   -0.7550   -0.8240   11.7162 C   0  0  0  0  0  0  0  0  0  0  0  0
    0.5714   -0.8220   11.3922 C   0  0  0  0  0  0  0  0  0  0  0  0
    1.1161    0.2903   10.7577 C   0  0  0  0  0  0  0  0  0  0  0  0
    0.2961    1.3347   10.4859 C   0  0  0  0  0  0  0  0  0  0  0  0
   -1.0654    1.3157   10.8259 C   0  0  0  0  0  0  0  0  0  0  0  0
    2.5318    0.2809   10.4230 C   0  0  0  0  0  0  0  0  0  0  0  0
    2.9328    0.3015    9.1029 C   0  0  0  0  0  0  0  0  0  0  0  0
    4.2895    0.2784    8.7954 C   0  0  0  0  0  0  0  0  0  0  0  0
    5.2250    0.2357    9.7892 C   0  0  0  0  0  0  0  0  0  0  0  0
    4.8316    0.2146   11.1109 C   0  0  0  0  0  0  0  0  0  0  0  0
    3.4651    0.2383   11.4258 C   0  0  0  0  0  0  0  0  0  0  0  0
    3.0612    0.2313   12.8069 C   0  0  0  0  0  0  0  0  0  0  0  0
    3.1408   -0.7331   13.7353 N   0  0  0  0  0  0  0  0  0  0  0  0
    2.6307   -0.2783   14.8676 N   0  0  0  0  0  0  0  0  0  0  0  0
    2.2274    0.9629   14.6710 N   0  0  0  0  0  0  0  0  0  0  0  0
    2.4790    1.2887   13.4324 N   0  0  0  0  0  0  0  0  0  0  0  0
   -2.5403    1.3279   14.6753 C   0  0  0  0  0  0  0  0  0  0  0  0
   -2.9056    0.2505   15.2672 O   0  0  0  0  0  0  0  0  0  0  0  0
   -1.3705    1.8724   15.1465 O   0  0  0  0  0  1  0  0  0  0  0  0
   -4.1305    4.0303   14.8150 C   0  0  0  0  0  0  0  0  0  0  0  0
   -5.1080    4.9999   14.5654 O   0  0  0  0  0  0  0  0  0  0  0  0
   -2.7890    4.7753   14.8950 C   0  0  0  0  0  0  0  0  0  0  0  0
   -4.3881    3.4144   16.1429 C   0  0  0  0  0  0  0  0  0  0  0  0
  1  2  1  0
  2  3  1  0
  3  4  1  0
  4  5  2  0
  5  6  1  0
  6  7  2  0
  7  8  1  0
  8  9  1  0
  9 10  1  0
 10 11  2  0
 11 12  1  0
 12 13  2  0
 13 14  1  0
 14 15  2  0
 13 16  1  0
 16 17  2  0
 17 18  1  0
 18 19  2  0
 19 20  1  0
 20 21  2  0
 21 22  1  0
 22 23  2  0
 23 24  1  0
 24 25  2  0
 25 26  1  0
  7 27  1  0
 27 28  2  0
 27 29  1  0
  6 30  1  0
 30 31  1  0
 30 32  1  0
 30 33  1  0
  8  4  1  0
 15 10  1  0
 21 16  1  0
 26 22  1  0
M  CHG  1  29  -1
M  END
$$$$
