
     RDKit          3D

 33 36  0  0  0  0  0  0  0  0999 V2000
   -5.6806   -0.6947    9.2346 C   0  0  0  0  0  0  0  0  0  0  0  0
   -5.3160   -0.0633   10.5663 C   0  0  0  0  0  0  0  0  0  0  0  0
   -4.4641    1.1756   10.3708 C   0  0  0  0  0  0  0  0  0  0  0  0
   -4.1412    1.7282   11.7418 C   0  0  0  0  0  0  0  0  0  0  0  0
   -4.6244    2.8687   12.2671 N   0  0  0  0  0  0  0  0  0  0  0  0
   -4.1603    3.0752   13.5007 C   0  0  0  0  0  0  0  0  0  0  0  0
   -3.3269    1.9902   13.7749 C   0  0  0  0  0  0  0  0  0  0  0  0
   -3.3412    1.2024   12.6880 N   0  0  0  0  0  0  0  0  0  0  0  0
   -2.5863   -0.0014   12.5110 C   0  0  0  0  0  0  0  0  0  0  0  0
   -1.2347    0.1538   11.9590 C   0  0  0  0  0  0  0  0  0  0  0  0
   -0.3525   -0.9293   11.8443 C   0  0  0  0  0  0  0  0  0  0  0  0
    0.9089   -0.8343   11.3304 C   0  0  0  0  0  0  0  0  0  0  0  0
    1.3723    0.4003   10.8861 C   0  0  0  0  0  0  0  0  0  0  0  0
    0.5411    1.4664   10.9840 C   0  0  0  0  0  0  0  0  0  0  0  0
   -0.7529    1.3507   11.5149 C   0  0  0  0  0  0  0  0  0  0  0  0
    2.7201    0.4881   10.3456 C   0  0  0  0  0  0  0  0  0  0  0  0
    2.9309    1.0197    9.0899 C   0  0  0  0  0  0  0  0  0  0  0  0
    4.2231    1.0856    8.5785 C   0  0  0  0  0  0  0  0  0  0  0  0
    5.2821    0.6287    9.3095 C   0  0  0  0  0  0  0  0  0  0  0  0
    5.0790    0.0958   10.5652 C   0  0  0  0  0  0  0  0  0  0  0  0
    3.7782    0.0277   11.0852 C   0  0  0  0  0  0  0  0  0  0  0  0
    3.5744   -0.5156   12.4019 C   0  0  0  0  0  0  0  0  0  0  0  0
    3.7457   -1.7608   12.8691 N   0  0  0  0  0  0  0  0  0  0  0  0
    3.4203   -1.7840   14.1509 N   0  0  0  0  0  0  0  0  0  0  0  0
    3.0440   -0.5695   14.5046 N   0  0  0  0  0  0  0  0  0  0  0  0
    3.1303    0.2108   13.4619 N   0  0  0  0  0  0  0  0  0  0  0  0
   -2.6411    1.8134   15.0568 C   0  0  0  0  0  0  0  0  0  0  0  0
   -1.7287    2.6402   15.4154 O   0  0  0  0  0  0  0  0  0  0  0  0
   -2.8894    0.8071   15.9584 O   0  0  0  0  0  1  0  0  0  0  0  0
   -4.4970    4.2404   14.3378 C   0  0  0  0  0  0  0  0  0  0  0  0
   -5.4231    5.0586   13.6815 O   0  0  0  0  0  0  0  0  0  0  0  0
   -3.2255    5.0833   14.5222 C   0  0  0  0  0  0  0  0  0  0  0  0
   -5.0195    3.9048   15.6882 C   0  0  0  0  0  0  0  0  0  0  0  0
  1  2  1  0
  2  3  1  0
  3  4  1  0
  4  5  2  0
  5  6  1  0
  6  7  2  0
  7  8  1  0
  8  9  1  0
  9 10  1  0
 10 11  2  0
 11 12  1  0
 12 13  2  0
 13 14  1  0
 14 15  2  0
 13 16  1  0
 16 17  2  0
 17 18  1  0
 18 19  2  0
 19 20  1  0
 20 21  2  0
 21 22  1  0
 22 23  2  0
 23 24  1  0
 24 25  2  0
 25 26  1  0
  7 27  1  0
 27 28  2  0
 27 29  1  0
  6 30  1  0
 30 31  1  0
 30 32  1  0
 30 33  1  0
  8  4  1  0
 15 10  1  0
 21 16  1  0
 26 22  1  0
M  CHG  1  29  -1
M  END
$$$$
