
     RDKit          3D

 33 36  0  0  0  0  0  0  0  0999 V2000
   -3.0164    0.3097   18.4408 C   0  0  0  0  0  0  0  0  0  0  0  0
   -2.8797    0.7921   17.0077 C   0  0  0  0  0  0  0  0  0  0  0  0
   -4.0370    0.3109   16.1545 C   0  0  0  0  0  0  0  0  0  0  0  0
   -3.9272    0.9947   14.8093 C   0  0  0  0  0  0  0  0  0  0  0  0
   -4.7686    1.9270   14.3266 N   0  0  0  0  0  0  0  0  0  0  0  0
   -4.3945    2.3451   13.1162 C   0  0  0  0  0  0  0  0  0  0  0  0
   -3.2362    1.6287   12.8128 C   0  0  0  0  0  0  0  0  0  0  0  0
   -2.9896    0.8241   13.8586 N   0  0  0  0  0  0  0  0  0  0  0  0
   -1.9221   -0.1253   13.9569 C   0  0  0  0  0  0  0  0  0  0  0  0
   -0.7797    0.0856   13.0592 C   0  0  0  0  0  0  0  0  0  0  0  0
    0.0268   -0.9753   12.6249 C   0  0  0  0  0  0  0  0  0  0  0  0
    1.0931   -0.8283   11.7848 C   0  0  0  0  0  0  0  0  0  0  0  0
    1.4213    0.4401   11.3161 C   0  0  0  0  0  0  0  0  0  0  0  0
    0.6589    1.4859   11.7188 C   0  0  0  0  0  0  0  0  0  0  0  0
   -0.4339    1.3166   12.5829 C   0  0  0  0  0  0  0  0  0  0  0  0
    2.5630    0.5829   10.4258 C   0  0  0  0  0  0  0  0  0  0  0  0
    2.4140    1.1976    9.1995 C   0  0  0  0  0  0  0  0  0  0  0  0
    3.5103    1.3158    8.3512 C   0  0  0  0  0  0  0  0  0  0  0  0
    4.7305    0.8287    8.7233 C   0  0  0  0  0  0  0  0  0  0  0  0
    4.8869    0.2128    9.9473 C   0  0  0  0  0  0  0  0  0  0  0  0
    3.7847    0.0917   10.8061 C   0  0  0  0  0  0  0  0  0  0  0  0
    3.9575   -0.5385   12.0881 C   0  0  0  0  0  0  0  0  0  0  0  0
    3.9925   -1.8357   12.4261 N   0  0  0  0  0  0  0  0  0  0  0  0
    4.1645   -1.9313   13.7340 N   0  0  0  0  0  0  0  0  0  0  0  0
    4.2389   -0.7114   14.2320 N   0  0  0  0  0  0  0  0  0  0  0  0
    4.1162    0.1436   13.2535 N   0  0  0  0  0  0  0  0  0  0  0  0
   -2.4790    1.8213   11.5741 C   0  0  0  0  0  0  0  0  0  0  0  0
   -2.8549    1.2380   10.4956 O   0  0  0  0  0  0  0  0  0  0  0  0
   -1.3567    2.6023   11.4422 O   0  0  0  0  0  1  0  0  0  0  0  0
   -5.1143    3.3546   12.3196 C   0  0  0  0  0  0  0  0  0  0  0  0
   -5.6239    4.3572   13.1520 O   0  0  0  0  0  0  0  0  0  0  0  0
   -6.3268    2.6748   11.6646 C   0  0  0  0  0  0  0  0  0  0  0  0
   -4.3089    3.9845   11.2408 C   0  0  0  0  0  0  0  0  0  0  0  0
  1  2  1  0
  2  3  1  0
  3  4  1  0
  4  5  2  0
  5  6  1  0
  6  7  2  0
  7  8  1  0
  8  9  1  0
  9 10  1  0
 10 11  2  0
 11 12  1  0
 12 13  2  0
 13 14  1  0
 14 15  2  0
 13 16  1  0
 16 17  2  0
 17 18  1  0
 18 19  2  0
 19 20  1  0
 20 21  2  0
 21 22  1  0
 22 23  2  0
 23 24  1  0
 24 25  2  0
 25 26  1  0
  7 27  1  0
 27 28  2  0
 27 29  1  0
  6 30  1  0
 30 31  1  0
 30 32  1  0
 30 33  1  0
  8  4  1  0
 15 10  1  0
 21 16  1  0
 26 22  1  0
M  CHG  1  29  -1
M  END
$$$$
