
     RDKit          3D

 33 36  0  0  0  0  0  0  0  0999 V2000
   -5.6819    2.5409    9.6859 C   0  0  0  0  0  0  0  0  0  0  0  0
   -4.3975    1.7984    9.3633 C   0  0  0  0  0  0  0  0  0  0  0  0
   -4.2290    0.5822   10.2529 C   0  0  0  0  0  0  0  0  0  0  0  0
   -3.6642    1.0578   11.5736 C   0  0  0  0  0  0  0  0  0  0  0  0
   -4.2572    0.9366   12.7751 N   0  0  0  0  0  0  0  0  0  0  0  0
   -3.4994    1.4439   13.7489 C   0  0  0  0  0  0  0  0  0  0  0  0
   -2.3474    1.9177   13.1201 C   0  0  0  0  0  0  0  0  0  0  0  0
   -2.4874    1.6674   11.8087 N   0  0  0  0  0  0  0  0  0  0  0  0
   -1.5607    2.0299   10.7789 C   0  0  0  0  0  0  0  0  0  0  0  0
   -0.2213    1.4356   10.8709 C   0  0  0  0  0  0  0  0  0  0  0  0
    0.0920    0.4599   11.8272 C   0  0  0  0  0  0  0  0  0  0  0  0
    1.3196   -0.1262   11.9447 C   0  0  0  0  0  0  0  0  0  0  0  0
    2.3395    0.2488   11.0755 C   0  0  0  0  0  0  0  0  0  0  0  0
    2.0660    1.1902   10.1395 C   0  0  0  0  0  0  0  0  0  0  0  0
    0.7981    1.7822   10.0328 C   0  0  0  0  0  0  0  0  0  0  0  0
    3.6440   -0.3800   11.2153 C   0  0  0  0  0  0  0  0  0  0  0  0
    4.2116   -1.0452   10.1479 C   0  0  0  0  0  0  0  0  0  0  0  0
    5.4533   -1.6543   10.2983 C   0  0  0  0  0  0  0  0  0  0  0  0
    6.1130   -1.5982   11.4926 C   0  0  0  0  0  0  0  0  0  0  0  0
    5.5517   -0.9354   12.5639 C   0  0  0  0  0  0  0  0  0  0  0  0
    4.3003   -0.3194   12.4170 C   0  0  0  0  0  0  0  0  0  0  0  0
    3.7266    0.3834   13.5339 C   0  0  0  0  0  0  0  0  0  0  0  0
    3.3479   -0.0578   14.7423 N   0  0  0  0  0  0  0  0  0  0  0  0
    2.8646    0.9595   15.4356 N   0  0  0  0  0  0  0  0  0  0  0  0
    2.9308    2.0420   14.6834 N   0  0  0  0  0  0  0  0  0  0  0  0
    3.4488    1.7143   13.5311 N   0  0  0  0  0  0  0  0  0  0  0  0
   -1.2305    2.5227   13.8490 C   0  0  0  0  0  0  0  0  0  0  0  0
   -0.4636    1.7904   14.5701 O   0  0  0  0  0  0  0  0  0  0  0  0
   -0.9029    3.8567   13.8359 O   0  0  0  0  0  1  0  0  0  0  0  0
   -3.8743    1.4706   15.1739 C   0  0  0  0  0  0  0  0  0  0  0  0
   -5.2133    1.0960   15.3309 O   0  0  0  0  0  0  0  0  0  0  0  0
   -3.7667    2.9203   15.6721 C   0  0  0  0  0  0  0  0  0  0  0  0
   -3.0284    0.6235   16.0547 C   0  0  0  0  0  0  0  0  0  0  0  0
  1  2  1  0
  2  3  1  0
  3  4  1  0
  4  5  2  0
  5  6  1  0
  6  7  2  0
  7  8  1  0
  8  9  1  0
  9 10  1  0
 10 11  2  0
 11 12  1  0
 12 13  2  0
 13 14  1  0
 14 15  2  0
 13 16  1  0
 16 17  2  0
 17 18  1  0
 18 19  2  0
 19 20  1  0
 20 21  2  0
 21 22  1  0
 22 23  2  0
 23 24  1  0
 24 25  2  0
 25 26  1  0
  7 27  1  0
 27 28  2  0
 27 29  1  0
  6 30  1  0
 30 31  1  0
 30 32  1  0
 30 33  1  0
  8  4  1  0
 15 10  1  0
 21 16  1  0
 26 22  1  0
M  CHG  1  29  -1
M  END
$$$$
