
     RDKit          3D

 33 36  0  0  0  0  0  0  0  0999 V2000
   -5.6164    0.1333    9.0607 C   0  0  0  0  0  0  0  0  0  0  0  0
   -4.6049    0.5909   10.0963 C   0  0  0  0  0  0  0  0  0  0  0  0
   -4.6276   -0.3059   11.3187 C   0  0  0  0  0  0  0  0  0  0  0  0
   -3.7959    0.3633   12.3909 C   0  0  0  0  0  0  0  0  0  0  0  0
   -4.0028    0.2795   13.7177 N   0  0  0  0  0  0  0  0  0  0  0  0
   -3.0901    0.9726   14.4007 C   0  0  0  0  0  0  0  0  0  0  0  0
   -2.2473    1.5324   13.4399 C   0  0  0  0  0  0  0  0  0  0  0  0
   -2.7086    1.1425   12.2410 N   0  0  0  0  0  0  0  0  0  0  0  0
   -2.1744    1.5248   10.9687 C   0  0  0  0  0  0  0  0  0  0  0  0
   -0.7402    1.2838   10.7667 C   0  0  0  0  0  0  0  0  0  0  0  0
   -0.1497    0.0453   11.0531 C   0  0  0  0  0  0  0  0  0  0  0  0
    1.1761   -0.2271   10.8735 C   0  0  0  0  0  0  0  0  0  0  0  0
    2.0146    0.7665   10.3774 C   0  0  0  0  0  0  0  0  0  0  0  0
    1.4717    1.9749   10.0908 C   0  0  0  0  0  0  0  0  0  0  0  0
    0.1063    2.2375   10.2813 C   0  0  0  0  0  0  0  0  0  0  0  0
    3.4261    0.4642   10.1959 C   0  0  0  0  0  0  0  0  0  0  0  0
    4.0203    0.6395    8.9630 C   0  0  0  0  0  0  0  0  0  0  0  0
    5.3675    0.3337    8.7987 C   0  0  0  0  0  0  0  0  0  0  0  0
    6.1044   -0.1375    9.8473 C   0  0  0  0  0  0  0  0  0  0  0  0
    5.5172   -0.3155   11.0825 C   0  0  0  0  0  0  0  0  0  0  0  0
    4.1594   -0.0082   11.2531 C   0  0  0  0  0  0  0  0  0  0  0  0
    3.5561   -0.1818   12.5478 C   0  0  0  0  0  0  0  0  0  0  0  0
    3.3331   -1.2923   13.2658 N   0  0  0  0  0  0  0  0  0  0  0  0
    2.7407   -0.9556   14.3993 N   0  0  0  0  0  0  0  0  0  0  0  0
    2.5837    0.3547   14.4112 N   0  0  0  0  0  0  0  0  0  0  0  0
    3.0700    0.8401   13.3015 N   0  0  0  0  0  0  0  0  0  0  0  0
   -1.0779    2.3461   13.7795 C   0  0  0  0  0  0  0  0  0  0  0  0
    0.0007    1.7817   14.1827 O   0  0  0  0  0  0  0  0  0  0  0  0
   -1.0141    3.7161   13.7032 O   0  0  0  0  0  1  0  0  0  0  0  0
   -3.0507    1.0847   15.8696 C   0  0  0  0  0  0  0  0  0  0  0  0
   -4.0792    0.3283   16.4423 O   0  0  0  0  0  0  0  0  0  0  0  0
   -3.3250    2.5487   16.2474 C   0  0  0  0  0  0  0  0  0  0  0  0
   -1.7581    0.6903   16.4882 C   0  0  0  0  0  0  0  0  0  0  0  0
  1  2  1  0
  2  3  1  0
  3  4  1  0
  4  5  2  0
  5  6  1  0
  6  7  2  0
  7  8  1  0
  8  9  1  0
  9 10  1  0
 10 11  2  0
 11 12  1  0
 12 13  2  0
 13 14  1  0
 14 15  2  0
 13 16  1  0
 16 17  2  0
 17 18  1  0
 18 19  2  0
 19 20  1  0
 20 21  2  0
 21 22  1  0
 22 23  2  0
 23 24  1  0
 24 25  2  0
 25 26  1  0
  7 27  1  0
 27 28  2  0
 27 29  1  0
  6 30  1  0
 30 31  1  0
 30 32  1  0
 30 33  1  0
  8  4  1  0
 15 10  1  0
 21 16  1  0
 26 22  1  0
M  CHG  1  29  -1
M  END
$$$$
