
     RDKit          3D

 33 36  0  0  0  0  0  0  0  0999 V2000
   -4.0329    0.3414    8.6875 C   0  0  0  0  0  0  0  0  0  0  0  0
   -3.6046    0.8571   10.0498 C   0  0  0  0  0  0  0  0  0  0  0  0
   -4.5677    0.4110   11.1326 C   0  0  0  0  0  0  0  0  0  0  0  0
   -4.2283    1.1808   12.3902 C   0  0  0  0  0  0  0  0  0  0  0  0
   -4.7561    2.3620   12.7594 N   0  0  0  0  0  0  0  0  0  0  0  0
   -4.2611    2.7763   13.9270 C   0  0  0  0  0  0  0  0  0  0  0  0
   -3.3590    1.7887   14.3241 C   0  0  0  0  0  0  0  0  0  0  0  0
   -3.3672    0.8455   13.3690 N   0  0  0  0  0  0  0  0  0  0  0  0
   -2.5526   -0.3319   13.3416 C   0  0  0  0  0  0  0  0  0  0  0  0
   -1.2809   -0.2258   12.6156 C   0  0  0  0  0  0  0  0  0  0  0  0
   -1.0319   -0.9584   11.4468 C   0  0  0  0  0  0  0  0  0  0  0  0
    0.1308   -0.8859   10.7346 C   0  0  0  0  0  0  0  0  0  0  0  0
    1.1466   -0.0418   11.1727 C   0  0  0  0  0  0  0  0  0  0  0  0
    0.9344    0.6798   12.3003 C   0  0  0  0  0  0  0  0  0  0  0  0
   -0.2672    0.5931   13.0201 C   0  0  0  0  0  0  0  0  0  0  0  0
    2.3820    0.0217   10.4071 C   0  0  0  0  0  0  0  0  0  0  0  0
    2.3614    0.4296    9.0891 C   0  0  0  0  0  0  0  0  0  0  0  0
    3.5477    0.4730    8.3635 C   0  0  0  0  0  0  0  0  0  0  0  0
    4.7299    0.1154    8.9457 C   0  0  0  0  0  0  0  0  0  0  0  0
    4.7582   -0.2936   10.2625 C   0  0  0  0  0  0  0  0  0  0  0  0
    3.5650   -0.3385   10.9982 C   0  0  0  0  0  0  0  0  0  0  0  0
    3.6030   -0.7518   12.3760 C   0  0  0  0  0  0  0  0  0  0  0  0
    4.3620   -0.3241   13.3955 N   0  0  0  0  0  0  0  0  0  0  0  0
    4.0454   -1.0110   14.4805 N   0  0  0  0  0  0  0  0  0  0  0  0
    3.0951   -1.8704   14.1638 N   0  0  0  0  0  0  0  0  0  0  0  0
    2.8143   -1.7289   12.8970 N   0  0  0  0  0  0  0  0  0  0  0  0
   -2.6196    1.8431   15.5871 C   0  0  0  0  0  0  0  0  0  0  0  0
   -2.9456    1.0673   16.5549 O   0  0  0  0  0  0  0  0  0  0  0  0
   -1.5606    2.6767   15.8525 O   0  0  0  0  0  1  0  0  0  0  0  0
   -4.6331    4.0366   14.5941 C   0  0  0  0  0  0  0  0  0  0  0  0
   -4.3344    5.1283   13.7714 O   0  0  0  0  0  0  0  0  0  0  0  0
   -3.7640    4.1892   15.8522 C   0  0  0  0  0  0  0  0  0  0  0  0
   -6.0568    4.1213   15.0124 C   0  0  0  0  0  0  0  0  0  0  0  0
  1  2  1  0
  2  3  1  0
  3  4  1  0
  4  5  2  0
  5  6  1  0
  6  7  2  0
  7  8  1  0
  8  9  1  0
  9 10  1  0
 10 11  2  0
 11 12  1  0
 12 13  2  0
 13 14  1  0
 14 15  2  0
 13 16  1  0
 16 17  2  0
 17 18  1  0
 18 19  2  0
 19 20  1  0
 20 21  2  0
 21 22  1  0
 22 23  2  0
 23 24  1  0
 24 25  2  0
 25 26  1  0
  7 27  1  0
 27 28  2  0
 27 29  1  0
  6 30  1  0
 30 31  1  0
 30 32  1  0
 30 33  1  0
  8  4  1  0
 15 10  1  0
 21 16  1  0
 26 22  1  0
M  CHG  1  29  -1
M  END
$$$$
