
     RDKit          3D

 33 36  0  0  0  0  0  0  0  0999 V2000
   -4.3974    1.1940    8.1606 C   0  0  0  0  0  0  0  0  0  0  0  0
   -3.8000    1.5209    9.5175 C   0  0  0  0  0  0  0  0  0  0  0  0
   -4.5414    0.8053   10.6298 C   0  0  0  0  0  0  0  0  0  0  0  0
   -3.9779    1.2985   11.9445 C   0  0  0  0  0  0  0  0  0  0  0  0
   -4.5771    1.2038   13.1454 N   0  0  0  0  0  0  0  0  0  0  0  0
   -3.8188    1.7210   14.1136 C   0  0  0  0  0  0  0  0  0  0  0  0
   -2.6597    2.1730   13.4818 C   0  0  0  0  0  0  0  0  0  0  0  0
   -2.7964    1.9012   12.1743 N   0  0  0  0  0  0  0  0  0  0  0  0
   -1.8620    2.2370   11.1425 C   0  0  0  0  0  0  0  0  0  0  0  0
   -0.5672    1.5462   11.1880 C   0  0  0  0  0  0  0  0  0  0  0  0
   -0.4273    0.2713   11.7534 C   0  0  0  0  0  0  0  0  0  0  0  0
    0.7533   -0.4122   11.8105 C   0  0  0  0  0  0  0  0  0  0  0  0
    1.9028    0.1683   11.2831 C   0  0  0  0  0  0  0  0  0  0  0  0
    1.7983    1.4009   10.7291 C   0  0  0  0  0  0  0  0  0  0  0  0
    0.5763    2.0892   10.6787 C   0  0  0  0  0  0  0  0  0  0  0  0
    3.1549   -0.5690   11.3553 C   0  0  0  0  0  0  0  0  0  0  0  0
    3.2713   -1.8004   10.7438 C   0  0  0  0  0  0  0  0  0  0  0  0
    4.4696   -2.5018   10.8317 C   0  0  0  0  0  0  0  0  0  0  0  0
    5.5292   -1.9808   11.5176 C   0  0  0  0  0  0  0  0  0  0  0  0
    5.4200   -0.7507   12.1316 C   0  0  0  0  0  0  0  0  0  0  0  0
    4.2142   -0.0396   12.0453 C   0  0  0  0  0  0  0  0  0  0  0  0
    4.1113    1.2500   12.6753 C   0  0  0  0  0  0  0  0  0  0  0  0
    4.1755    1.5978   13.9688 N   0  0  0  0  0  0  0  0  0  0  0  0
    4.0171    2.9072   14.0669 N   0  0  0  0  0  0  0  0  0  0  0  0
    3.8526    3.3965   12.8522 N   0  0  0  0  0  0  0  0  0  0  0  0
    3.9064    2.4110   11.9981 N   0  0  0  0  0  0  0  0  0  0  0  0
   -1.5404    2.7802   14.2050 C   0  0  0  0  0  0  0  0  0  0  0  0
   -1.3264    4.0413   14.1136 O   0  0  0  0  0  0  0  0  0  0  0  0
   -0.6568    2.1059   15.0123 O   0  0  0  0  0  1  0  0  0  0  0  0
   -4.1996    1.7760   15.5361 C   0  0  0  0  0  0  0  0  0  0  0  0
   -5.4980    1.2846   15.7108 O   0  0  0  0  0  0  0  0  0  0  0  0
   -4.2303    3.2502   15.9688 C   0  0  0  0  0  0  0  0  0  0  0  0
   -3.2810    1.0523   16.4535 C   0  0  0  0  0  0  0  0  0  0  0  0
  1  2  1  0
  2  3  1  0
  3  4  1  0
  4  5  2  0
  5  6  1  0
  6  7  2  0
  7  8  1  0
  8  9  1  0
  9 10  1  0
 10 11  2  0
 11 12  1  0
 12 13  2  0
 13 14  1  0
 14 15  2  0
 13 16  1  0
 16 17  2  0
 17 18  1  0
 18 19  2  0
 19 20  1  0
 20 21  2  0
 21 22  1  0
 22 23  2  0
 23 24  1  0
 24 25  2  0
 25 26  1  0
  7 27  1  0
 27 28  2  0
 27 29  1  0
  6 30  1  0
 30 31  1  0
 30 32  1  0
 30 33  1  0
  8  4  1  0
 15 10  1  0
 21 16  1  0
 26 22  1  0
M  CHG  1  29  -1
M  END
$$$$
