
     RDKit          3D

 33 36  0  0  0  0  0  0  0  0999 V2000
    0.8037    3.4458    8.1944 C   0  0  0  0  0  0  0  0  0  0  0  0
    0.2229    3.6957    9.5747 C   0  0  0  0  0  0  0  0  0  0  0  0
   -1.2894    3.5864    9.5612 C   0  0  0  0  0  0  0  0  0  0  0  0
   -1.7869    3.9725   10.9369 C   0  0  0  0  0  0  0  0  0  0  0  0
   -2.5244    5.0579   11.2338 N   0  0  0  0  0  0  0  0  0  0  0  0
   -2.8145    5.1123   12.5349 C   0  0  0  0  0  0  0  0  0  0  0  0
   -2.2205    3.9831   13.0996 C   0  0  0  0  0  0  0  0  0  0  0  0
   -1.6092    3.3236   12.1028 N   0  0  0  0  0  0  0  0  0  0  0  0
   -0.8308    2.1292   12.2367 C   0  0  0  0  0  0  0  0  0  0  0  0
   -1.5709    0.9040   12.5631 C   0  0  0  0  0  0  0  0  0  0  0  0
   -2.9286    0.7528   12.2490 C   0  0  0  0  0  0  0  0  0  0  0  0
   -3.6548   -0.3699   12.5252 C   0  0  0  0  0  0  0  0  0  0  0  0
   -3.0348   -1.4442   13.1559 C   0  0  0  0  0  0  0  0  0  0  0  0
   -1.7219   -1.3274   13.4716 C   0  0  0  0  0  0  0  0  0  0  0  0
   -0.9904   -0.1657   13.1800 C   0  0  0  0  0  0  0  0  0  0  0  0
   -3.8218   -2.6322   13.4488 C   0  0  0  0  0  0  0  0  0  0  0  0
   -4.2282   -3.4649   12.4264 C   0  0  0  0  0  0  0  0  0  0  0  0
   -4.9921   -4.5905   12.7180 C   0  0  0  0  0  0  0  0  0  0  0  0
   -5.3415   -4.8764   14.0067 C   0  0  0  0  0  0  0  0  0  0  0  0
   -4.9392   -4.0486   15.0338 C   0  0  0  0  0  0  0  0  0  0  0  0
   -4.1685   -2.9129   14.7448 C   0  0  0  0  0  0  0  0  0  0  0  0
   -3.7391   -2.0613   15.8222 C   0  0  0  0  0  0  0  0  0  0  0  0
   -4.3743   -1.0623   16.4522 N   0  0  0  0  0  0  0  0  0  0  0  0
   -3.5715   -0.5624   17.3769 N   0  0  0  0  0  0  0  0  0  0  0  0
   -2.4339   -1.2305   17.3426 N   0  0  0  0  0  0  0  0  0  0  0  0
   -2.5158   -2.1401   16.4101 N   0  0  0  0  0  0  0  0  0  0  0  0
   -2.3354    3.6457   14.5201 C   0  0  0  0  0  0  0  0  0  0  0  0
   -3.4210    3.1339   14.9718 O   0  0  0  0  0  0  0  0  0  0  0  0
   -1.3517    3.8267   15.4617 O   0  0  0  0  0  1  0  0  0  0  0  0
   -3.5997    6.1834   13.1735 C   0  0  0  0  0  0  0  0  0  0  0  0
   -3.8094    7.2344   12.2738 O   0  0  0  0  0  0  0  0  0  0  0  0
   -2.7718    6.7609   14.3320 C   0  0  0  0  0  0  0  0  0  0  0  0
   -4.9102    5.7490   13.7240 C   0  0  0  0  0  0  0  0  0  0  0  0
  1  2  1  0
  2  3  1  0
  3  4  1  0
  4  5  2  0
  5  6  1  0
  6  7  2  0
  7  8  1  0
  8  9  1  0
  9 10  1  0
 10 11  2  0
 11 12  1  0
 12 13  2  0
 13 14  1  0
 14 15  2  0
 13 16  1  0
 16 17  2  0
 17 18  1  0
 18 19  2  0
 19 20  1  0
 20 21  2  0
 21 22  1  0
 22 23  2  0
 23 24  1  0
 24 25  2  0
 25 26  1  0
  7 27  1  0
 27 28  2  0
 27 29  1  0
  6 30  1  0
 30 31  1  0
 30 32  1  0
 30 33  1  0
  8  4  1  0
 15 10  1  0
 21 16  1  0
 26 22  1  0
M  CHG  1  29  -1
M  END
$$$$
