
     RDKit          3D

 33 36  0  0  0  0  0  0  0  0999 V2000
   -4.4951    2.2380    8.3549 C   0  0  0  0  0  0  0  0  0  0  0  0
   -4.0109    2.3260    9.7912 C   0  0  0  0  0  0  0  0  0  0  0  0
   -3.4926    0.9869   10.2781 C   0  0  0  0  0  0  0  0  0  0  0  0
   -3.2376    1.1096   11.7645 C   0  0  0  0  0  0  0  0  0  0  0  0
   -3.9578    0.5264   12.7397 N   0  0  0  0  0  0  0  0  0  0  0  0
   -3.4730    0.8179   13.9480 C   0  0  0  0  0  0  0  0  0  0  0  0
   -2.3696    1.6413   13.7213 C   0  0  0  0  0  0  0  0  0  0  0  0
   -2.2632    1.7944   12.3919 N   0  0  0  0  0  0  0  0  0  0  0  0
   -1.2963    2.6029   11.7124 C   0  0  0  0  0  0  0  0  0  0  0  0
   -0.0223    1.9527   11.3812 C   0  0  0  0  0  0  0  0  0  0  0  0
    0.1157    0.5579   11.3671 C   0  0  0  0  0  0  0  0  0  0  0  0
    1.2768   -0.0904   11.0575 C   0  0  0  0  0  0  0  0  0  0  0  0
    2.4068    0.6538   10.7325 C   0  0  0  0  0  0  0  0  0  0  0  0
    2.3036    2.0052   10.7374 C   0  0  0  0  0  0  0  0  0  0  0  0
    1.1018    2.6553   11.0579 C   0  0  0  0  0  0  0  0  0  0  0  0
    3.6386   -0.0498   10.4099 C   0  0  0  0  0  0  0  0  0  0  0  0
    4.0060   -0.2374    9.0932 C   0  0  0  0  0  0  0  0  0  0  0  0
    5.1794   -0.9240    8.7973 C   0  0  0  0  0  0  0  0  0  0  0  0
    5.9683   -1.4123    9.7992 C   0  0  0  0  0  0  0  0  0  0  0  0
    5.6073   -1.2289   11.1175 C   0  0  0  0  0  0  0  0  0  0  0  0
    4.4255   -0.5370   11.4208 C   0  0  0  0  0  0  0  0  0  0  0  0
    4.0618   -0.3357   12.7984 C   0  0  0  0  0  0  0  0  0  0  0  0
    3.4011   -1.1309   13.6524 N   0  0  0  0  0  0  0  0  0  0  0  0
    3.2952   -0.5120   14.8165 N   0  0  0  0  0  0  0  0  0  0  0  0
    3.8799    0.6667   14.7134 N   0  0  0  0  0  0  0  0  0  0  0  0
    4.3491    0.7916   13.5019 N   0  0  0  0  0  0  0  0  0  0  0  0
   -1.5233    2.1580   14.7991 C   0  0  0  0  0  0  0  0  0  0  0  0
   -0.5300    1.4659   15.2222 O   0  0  0  0  0  0  0  0  0  0  0  0
   -1.6903    3.3665   15.4304 O   0  0  0  0  0  1  0  0  0  0  0  0
   -4.0460    0.3382   15.2182 C   0  0  0  0  0  0  0  0  0  0  0  0
   -3.2255    0.7053   16.2905 O   0  0  0  0  0  0  0  0  0  0  0  0
   -4.0619   -1.1981   15.1884 C   0  0  0  0  0  0  0  0  0  0  0  0
   -5.4320    0.8017   15.4887 C   0  0  0  0  0  0  0  0  0  0  0  0
  1  2  1  0
  2  3  1  0
  3  4  1  0
  4  5  2  0
  5  6  1  0
  6  7  2  0
  7  8  1  0
  8  9  1  0
  9 10  1  0
 10 11  2  0
 11 12  1  0
 12 13  2  0
 13 14  1  0
 14 15  2  0
 13 16  1  0
 16 17  2  0
 17 18  1  0
 18 19  2  0
 19 20  1  0
 20 21  2  0
 21 22  1  0
 22 23  2  0
 23 24  1  0
 24 25  2  0
 25 26  1  0
  7 27  1  0
 27 28  2  0
 27 29  1  0
  6 30  1  0
 30 31  1  0
 30 32  1  0
 30 33  1  0
  8  4  1  0
 15 10  1  0
 21 16  1  0
 26 22  1  0
M  CHG  1  29  -1
M  END
$$$$
