
     RDKit          3D

 33 36  0  0  0  0  0  0  0  0999 V2000
   -3.8557   -0.9046    8.7458 C   0  0  0  0  0  0  0  0  0  0  0  0
   -3.5374   -0.1720   10.0370 C   0  0  0  0  0  0  0  0  0  0  0  0
   -4.3426    1.1074   10.1544 C   0  0  0  0  0  0  0  0  0  0  0  0
   -4.0264    1.7234   11.4997 C   0  0  0  0  0  0  0  0  0  0  0  0
   -4.8754    1.8307   12.5379 N   0  0  0  0  0  0  0  0  0  0  0  0
   -4.2933    2.4108   13.5889 C   0  0  0  0  0  0  0  0  0  0  0  0
   -2.9860    2.6886   13.1882 C   0  0  0  0  0  0  0  0  0  0  0  0
   -2.8664    2.2604   11.9216 N   0  0  0  0  0  0  0  0  0  0  0  0
   -1.7035    2.3883   11.0960 C   0  0  0  0  0  0  0  0  0  0  0  0
   -0.5071    1.6630   11.5413 C   0  0  0  0  0  0  0  0  0  0  0  0
    0.7854    2.0919   11.2092 C   0  0  0  0  0  0  0  0  0  0  0  0
    1.9258    1.4552   11.6071 C   0  0  0  0  0  0  0  0  0  0  0  0
    1.8284    0.3091   12.3903 C   0  0  0  0  0  0  0  0  0  0  0  0
    0.5911   -0.1295   12.7278 C   0  0  0  0  0  0  0  0  0  0  0  0
   -0.5708    0.5376   12.3101 C   0  0  0  0  0  0  0  0  0  0  0  0
    3.0514   -0.3621   12.8028 C   0  0  0  0  0  0  0  0  0  0  0  0
    3.1710   -0.8611   14.0837 C   0  0  0  0  0  0  0  0  0  0  0  0
    4.3509   -1.4887   14.4703 C   0  0  0  0  0  0  0  0  0  0  0  0
    5.3893   -1.6143   13.5925 C   0  0  0  0  0  0  0  0  0  0  0  0
    5.2771   -1.1177   12.3108 C   0  0  0  0  0  0  0  0  0  0  0  0
    4.0894   -0.4846   11.9162 C   0  0  0  0  0  0  0  0  0  0  0  0
    3.9728    0.0181   10.5730 C   0  0  0  0  0  0  0  0  0  0  0  0
    4.8000    0.7919    9.8551 N   0  0  0  0  0  0  0  0  0  0  0  0
    4.2622    1.0020    8.6651 N   0  0  0  0  0  0  0  0  0  0  0  0
    3.1034    0.3721    8.6174 N   0  0  0  0  0  0  0  0  0  0  0  0
    2.9111   -0.2281    9.7603 N   0  0  0  0  0  0  0  0  0  0  0  0
   -1.9916    3.2988   14.0734 C   0  0  0  0  0  0  0  0  0  0  0  0
   -1.6364    2.6982   15.1494 O   0  0  0  0  0  0  0  0  0  0  0  0
   -1.3684    4.5038   13.8571 O   0  0  0  0  0  1  0  0  0  0  0  0
   -4.9623    2.6786   14.8744 C   0  0  0  0  0  0  0  0  0  0  0  0
   -4.0511    3.2076   15.7952 O   0  0  0  0  0  0  0  0  0  0  0  0
   -5.4402    1.3388   15.4558 C   0  0  0  0  0  0  0  0  0  0  0  0
   -6.1397    3.5813   14.7858 C   0  0  0  0  0  0  0  0  0  0  0  0
  1  2  1  0
  2  3  1  0
  3  4  1  0
  4  5  2  0
  5  6  1  0
  6  7  2  0
  7  8  1  0
  8  9  1  0
  9 10  1  0
 10 11  2  0
 11 12  1  0
 12 13  2  0
 13 14  1  0
 14 15  2  0
 13 16  1  0
 16 17  2  0
 17 18  1  0
 18 19  2  0
 19 20  1  0
 20 21  2  0
 21 22  1  0
 22 23  2  0
 23 24  1  0
 24 25  2  0
 25 26  1  0
  7 27  1  0
 27 28  2  0
 27 29  1  0
  6 30  1  0
 30 31  1  0
 30 32  1  0
 30 33  1  0
  8  4  1  0
 15 10  1  0
 21 16  1  0
 26 22  1  0
M  CHG  1  29  -1
M  END
$$$$
