
     RDKit          3D

 33 36  0  0  0  0  0  0  0  0999 V2000
   -2.5532    2.8911    8.0730 C   0  0  0  0  0  0  0  0  0  0  0  0
   -2.7799    2.7692    9.5692 C   0  0  0  0  0  0  0  0  0  0  0  0
   -2.9200    1.3181    9.9861 C   0  0  0  0  0  0  0  0  0  0  0  0
   -3.1038    1.2907   11.4877 C   0  0  0  0  0  0  0  0  0  0  0  0
   -4.1087    0.6884   12.1491 N   0  0  0  0  0  0  0  0  0  0  0  0
   -3.9826    0.8331   13.4693 C   0  0  0  0  0  0  0  0  0  0  0  0
   -2.8171    1.5773   13.6559 C   0  0  0  0  0  0  0  0  0  0  0  0
   -2.3187    1.8346   12.4363 N   0  0  0  0  0  0  0  0  0  0  0  0
   -1.1522    2.6144   12.1510 C   0  0  0  0  0  0  0  0  0  0  0  0
    0.1395    1.9359   12.3146 C   0  0  0  0  0  0  0  0  0  0  0  0
    0.2260    0.5648   12.5925 C   0  0  0  0  0  0  0  0  0  0  0  0
    1.4034   -0.1097   12.7444 C   0  0  0  0  0  0  0  0  0  0  0  0
    2.6051    0.5810   12.6209 C   0  0  0  0  0  0  0  0  0  0  0  0
    2.5530    1.9084   12.3519 C   0  0  0  0  0  0  0  0  0  0  0  0
    1.3336    2.5860   12.1986 C   0  0  0  0  0  0  0  0  0  0  0  0
    3.8520   -0.1491   12.7903 C   0  0  0  0  0  0  0  0  0  0  0  0
    4.2150   -0.6233   14.0342 C   0  0  0  0  0  0  0  0  0  0  0  0
    5.4165   -1.3081   14.1859 C   0  0  0  0  0  0  0  0  0  0  0  0
    6.2373   -1.5138   13.1141 C   0  0  0  0  0  0  0  0  0  0  0  0
    5.8812   -1.0425   11.8679 C   0  0  0  0  0  0  0  0  0  0  0  0
    4.6707   -0.3520   11.7100 C   0  0  0  0  0  0  0  0  0  0  0  0
    4.2975    0.1243   10.4044 C   0  0  0  0  0  0  0  0  0  0  0  0
    3.9589   -0.5466    9.2938 N   0  0  0  0  0  0  0  0  0  0  0  0
    3.7037    0.3235    8.3309 N   0  0  0  0  0  0  0  0  0  0  0  0
    3.8761    1.5391    8.8150 N   0  0  0  0  0  0  0  0  0  0  0  0
    4.2348    1.4396   10.0660 N   0  0  0  0  0  0  0  0  0  0  0  0
   -2.2952    1.9263   14.9790 C   0  0  0  0  0  0  0  0  0  0  0  0
   -2.2461    3.1542   15.3455 O   0  0  0  0  0  0  0  0  0  0  0  0
   -1.8344    1.0304   15.9129 O   0  0  0  0  0  1  0  0  0  0  0  0
   -4.9273    0.2958   14.4646 C   0  0  0  0  0  0  0  0  0  0  0  0
   -4.2524   -0.0391   15.6437 O   0  0  0  0  0  0  0  0  0  0  0  0
   -5.5144   -1.0127   13.9126 C   0  0  0  0  0  0  0  0  0  0  0  0
   -6.0608    1.1983   14.7956 C   0  0  0  0  0  0  0  0  0  0  0  0
  1  2  1  0
  2  3  1  0
  3  4  1  0
  4  5  2  0
  5  6  1  0
  6  7  2  0
  7  8  1  0
  8  9  1  0
  9 10  1  0
 10 11  2  0
 11 12  1  0
 12 13  2  0
 13 14  1  0
 14 15  2  0
 13 16  1  0
 16 17  2  0
 17 18  1  0
 18 19  2  0
 19 20  1  0
 20 21  2  0
 21 22  1  0
 22 23  2  0
 23 24  1  0
 24 25  2  0
 25 26  1  0
  7 27  1  0
 27 28  2  0
 27 29  1  0
  6 30  1  0
 30 31  1  0
 30 32  1  0
 30 33  1  0
  8  4  1  0
 15 10  1  0
 21 16  1  0
 26 22  1  0
M  CHG  1  29  -1
M  END
$$$$
