
     RDKit          3D

 33 36  0  0  0  0  0  0  0  0999 V2000
   -5.8055   -1.4533   10.2071 C   0  0  0  0  0  0  0  0  0  0  0  0
   -5.4491   -0.5077   11.3401 C   0  0  0  0  0  0  0  0  0  0  0  0
   -4.5108    0.5855   10.8674 C   0  0  0  0  0  0  0  0  0  0  0  0
   -4.1255    1.4101   12.0761 C   0  0  0  0  0  0  0  0  0  0  0  0
   -4.6613    2.5929   12.4281 N   0  0  0  0  0  0  0  0  0  0  0  0
   -4.1169    3.0624   13.5520 C   0  0  0  0  0  0  0  0  0  0  0  0
   -3.1725    2.1105   13.9379 C   0  0  0  0  0  0  0  0  0  0  0  0
   -3.2076    1.1313   13.0203 N   0  0  0  0  0  0  0  0  0  0  0  0
   -2.3679   -0.0283   12.9942 C   0  0  0  0  0  0  0  0  0  0  0  0
   -1.0440    0.1412   12.3825 C   0  0  0  0  0  0  0  0  0  0  0  0
   -0.8048   -0.1684   11.0366 C   0  0  0  0  0  0  0  0  0  0  0  0
    0.4060   -0.0193   10.4233 C   0  0  0  0  0  0  0  0  0  0  0  0
    1.4849    0.4674   11.1550 C   0  0  0  0  0  0  0  0  0  0  0  0
    1.2837    0.7759   12.4594 C   0  0  0  0  0  0  0  0  0  0  0  0
    0.0320    0.6166   13.0738 C   0  0  0  0  0  0  0  0  0  0  0  0
    2.7704    0.6164   10.4904 C   0  0  0  0  0  0  0  0  0  0  0  0
    2.8552    1.2816    9.2845 C   0  0  0  0  0  0  0  0  0  0  0  0
    4.0881    1.4055    8.6521 C   0  0  0  0  0  0  0  0  0  0  0  0
    5.2128    0.8743    9.2156 C   0  0  0  0  0  0  0  0  0  0  0  0
    5.1357    0.2078   10.4205 C   0  0  0  0  0  0  0  0  0  0  0  0
    3.8950    0.0808   11.0621 C   0  0  0  0  0  0  0  0  0  0  0  0
    3.8234   -0.6027   12.3264 C   0  0  0  0  0  0  0  0  0  0  0  0
    4.4212   -0.3383   13.4973 N   0  0  0  0  0  0  0  0  0  0  0  0
    4.0575   -1.2550   14.3785 N   0  0  0  0  0  0  0  0  0  0  0  0
    3.2364   -2.0993   13.7828 N   0  0  0  0  0  0  0  0  0  0  0  0
    3.0826   -1.7219   12.5428 N   0  0  0  0  0  0  0  0  0  0  0  0
   -2.3707    2.2293   15.1577 C   0  0  0  0  0  0  0  0  0  0  0  0
   -2.6037    1.4585   16.1558 O   0  0  0  0  0  0  0  0  0  0  0  0
   -1.3440    3.1215   15.3498 O   0  0  0  0  0  1  0  0  0  0  0  0
   -4.4837    4.3390   14.1903 C   0  0  0  0  0  0  0  0  0  0  0  0
   -5.6400    4.8621   13.6011 O   0  0  0  0  0  0  0  0  0  0  0  0
   -3.3606    5.3522   13.9190 C   0  0  0  0  0  0  0  0  0  0  0  0
   -4.6820    4.2636   15.6613 C   0  0  0  0  0  0  0  0  0  0  0  0
  1  2  1  0
  2  3  1  0
  3  4  1  0
  4  5  2  0
  5  6  1  0
  6  7  2  0
  7  8  1  0
  8  9  1  0
  9 10  1  0
 10 11  2  0
 11 12  1  0
 12 13  2  0
 13 14  1  0
 14 15  2  0
 13 16  1  0
 16 17  2  0
 17 18  1  0
 18 19  2  0
 19 20  1  0
 20 21  2  0
 21 22  1  0
 22 23  2  0
 23 24  1  0
 24 25  2  0
 25 26  1  0
  7 27  1  0
 27 28  2  0
 27 29  1  0
  6 30  1  0
 30 31  1  0
 30 32  1  0
 30 33  1  0
  8  4  1  0
 15 10  1  0
 21 16  1  0
 26 22  1  0
M  CHG  1  29  -1
M  END
$$$$
