
     RDKit          3D

 33 36  0  0  0  0  0  0  0  0999 V2000
   -5.7332    0.0261    9.1495 C   0  0  0  0  0  0  0  0  0  0  0  0
   -5.3206    0.4488   10.5482 C   0  0  0  0  0  0  0  0  0  0  0  0
   -4.2919    1.5617   10.5036 C   0  0  0  0  0  0  0  0  0  0  0  0
   -3.9713    1.9441   11.9320 C   0  0  0  0  0  0  0  0  0  0  0  0
   -4.3851    3.0580   12.5629 N   0  0  0  0  0  0  0  0  0  0  0  0
   -3.9449    3.1005   13.8216 C   0  0  0  0  0  0  0  0  0  0  0  0
   -3.2026    1.9325   13.9994 C   0  0  0  0  0  0  0  0  0  0  0  0
   -3.2416    1.2641   12.8359 N   0  0  0  0  0  0  0  0  0  0  0  0
   -2.5724    0.0306   12.5509 C   0  0  0  0  0  0  0  0  0  0  0  0
   -1.2180    0.1391   11.9946 C   0  0  0  0  0  0  0  0  0  0  0  0
   -0.7164   -0.7957   11.0786 C   0  0  0  0  0  0  0  0  0  0  0  0
    0.5319   -0.7309   10.5292 C   0  0  0  0  0  0  0  0  0  0  0  0
    1.3781    0.3158   10.8823 C   0  0  0  0  0  0  0  0  0  0  0  0
    0.9203    1.2358   11.7660 C   0  0  0  0  0  0  0  0  0  0  0  0
   -0.3662    1.1539   12.3210 C   0  0  0  0  0  0  0  0  0  0  0  0
    2.7073    0.3696   10.2933 C   0  0  0  0  0  0  0  0  0  0  0  0
    2.8625    0.6810    8.9580 C   0  0  0  0  0  0  0  0  0  0  0  0
    4.1379    0.7158    8.4033 C   0  0  0  0  0  0  0  0  0  0  0  0
    5.2350    0.4446    9.1697 C   0  0  0  0  0  0  0  0  0  0  0  0
    5.0875    0.1323   10.5050 C   0  0  0  0  0  0  0  0  0  0  0  0
    3.8038    0.0965   11.0688 C   0  0  0  0  0  0  0  0  0  0  0  0
    3.6576   -0.2153   12.4660 C   0  0  0  0  0  0  0  0  0  0  0  0
    4.3127    0.2525   13.5385 N   0  0  0  0  0  0  0  0  0  0  0  0
    3.8348   -0.3378   14.6212 N   0  0  0  0  0  0  0  0  0  0  0  0
    2.8844   -1.1754   14.2509 N   0  0  0  0  0  0  0  0  0  0  0  0
    2.7626   -1.1155   12.9527 N   0  0  0  0  0  0  0  0  0  0  0  0
   -2.5713    1.5728   15.2710 C   0  0  0  0  0  0  0  0  0  0  0  0
   -1.5612    2.2387   15.6964 O   0  0  0  0  0  0  0  0  0  0  0  0
   -2.9715    0.5493   16.0951 O   0  0  0  0  0  1  0  0  0  0  0  0
   -4.2203    4.1957   14.7684 C   0  0  0  0  0  0  0  0  0  0  0  0
   -4.8012    5.2799   14.1013 O   0  0  0  0  0  0  0  0  0  0  0  0
   -2.8794    4.6964   15.3274 C   0  0  0  0  0  0  0  0  0  0  0  0
   -5.0807    3.8192   15.9204 C   0  0  0  0  0  0  0  0  0  0  0  0
  1  2  1  0
  2  3  1  0
  3  4  1  0
  4  5  2  0
  5  6  1  0
  6  7  2  0
  7  8  1  0
  8  9  1  0
  9 10  1  0
 10 11  2  0
 11 12  1  0
 12 13  2  0
 13 14  1  0
 14 15  2  0
 13 16  1  0
 16 17  2  0
 17 18  1  0
 18 19  2  0
 19 20  1  0
 20 21  2  0
 21 22  1  0
 22 23  2  0
 23 24  1  0
 24 25  2  0
 25 26  1  0
  7 27  1  0
 27 28  2  0
 27 29  1  0
  6 30  1  0
 30 31  1  0
 30 32  1  0
 30 33  1  0
  8  4  1  0
 15 10  1  0
 21 16  1  0
 26 22  1  0
M  CHG  1  29  -1
M  END
$$$$
