
     RDKit          3D

 33 36  0  0  0  0  0  0  0  0999 V2000
   -5.2079   -0.0282    9.1983 C   0  0  0  0  0  0  0  0  0  0  0  0
   -5.0531    0.5647   10.5874 C   0  0  0  0  0  0  0  0  0  0  0  0
   -3.7842    1.3879   10.6939 C   0  0  0  0  0  0  0  0  0  0  0  0
   -3.7066    1.9256   12.1061 C   0  0  0  0  0  0  0  0  0  0  0  0
   -4.0143    3.1771   12.4922 N   0  0  0  0  0  0  0  0  0  0  0  0
   -3.8540    3.3376   13.8069 C   0  0  0  0  0  0  0  0  0  0  0  0
   -3.4158    2.1024   14.2854 C   0  0  0  0  0  0  0  0  0  0  0  0
   -3.3380    1.2792   13.2278 N   0  0  0  0  0  0  0  0  0  0  0  0
   -2.8840   -0.0786   13.2495 C   0  0  0  0  0  0  0  0  0  0  0  0
   -1.4427   -0.2853   13.0604 C   0  0  0  0  0  0  0  0  0  0  0  0
   -0.5465    0.7882   12.9662 C   0  0  0  0  0  0  0  0  0  0  0  0
    0.8009    0.6443   12.7988 C   0  0  0  0  0  0  0  0  0  0  0  0
    1.3441   -0.6339   12.7134 C   0  0  0  0  0  0  0  0  0  0  0  0
    0.5018   -1.6921   12.8016 C   0  0  0  0  0  0  0  0  0  0  0  0
   -0.8810   -1.5258   12.9740 C   0  0  0  0  0  0  0  0  0  0  0  0
    2.7806   -0.7725   12.5299 C   0  0  0  0  0  0  0  0  0  0  0  0
    3.5397   -1.4365   13.4716 C   0  0  0  0  0  0  0  0  0  0  0  0
    4.9145   -1.5503   13.2915 C   0  0  0  0  0  0  0  0  0  0  0  0
    5.5166   -1.0107   12.1911 C   0  0  0  0  0  0  0  0  0  0  0  0
    4.7644   -0.3453   11.2458 C   0  0  0  0  0  0  0  0  0  0  0  0
    3.3780   -0.2284   11.4228 C   0  0  0  0  0  0  0  0  0  0  0  0
    2.5965    0.4539   10.4256 C   0  0  0  0  0  0  0  0  0  0  0  0
    2.6811    1.7073    9.9566 N   0  0  0  0  0  0  0  0  0  0  0  0
    1.7382    1.8868    9.0466 N   0  0  0  0  0  0  0  0  0  0  0  0
    1.0549    0.7635    8.9313 N   0  0  0  0  0  0  0  0  0  0  0  0
    1.5584   -0.1139    9.7560 N   0  0  0  0  0  0  0  0  0  0  0  0
   -3.1559    1.8410   15.7028 C   0  0  0  0  0  0  0  0  0  0  0  0
   -3.9237    1.0522   16.3607 O   0  0  0  0  0  0  0  0  0  0  0  0
   -2.1231    2.3768   16.4331 O   0  0  0  0  0  1  0  0  0  0  0  0
   -4.1007    4.5961   14.5330 C   0  0  0  0  0  0  0  0  0  0  0  0
   -3.5521    4.5307   15.8186 O   0  0  0  0  0  0  0  0  0  0  0  0
   -5.6181    4.7564   14.7151 C   0  0  0  0  0  0  0  0  0  0  0  0
   -3.5934    5.8159   13.8520 C   0  0  0  0  0  0  0  0  0  0  0  0
  1  2  1  0
  2  3  1  0
  3  4  1  0
  4  5  2  0
  5  6  1  0
  6  7  2  0
  7  8  1  0
  8  9  1  0
  9 10  1  0
 10 11  2  0
 11 12  1  0
 12 13  2  0
 13 14  1  0
 14 15  2  0
 13 16  1  0
 16 17  2  0
 17 18  1  0
 18 19  2  0
 19 20  1  0
 20 21  2  0
 21 22  1  0
 22 23  2  0
 23 24  1  0
 24 25  2  0
 25 26  1  0
  7 27  1  0
 27 28  2  0
 27 29  1  0
  6 30  1  0
 30 31  1  0
 30 32  1  0
 30 33  1  0
  8  4  1  0
 15 10  1  0
 21 16  1  0
 26 22  1  0
M  CHG  1  29  -1
M  END
$$$$
