
     RDKit          3D

 33 36  0  0  0  0  0  0  0  0999 V2000
   -4.2699   -1.0887    9.8138 C   0  0  0  0  0  0  0  0  0  0  0  0
   -4.3298   -0.3848   11.1577 C   0  0  0  0  0  0  0  0  0  0  0  0
   -3.2962    0.7211   11.2440 C   0  0  0  0  0  0  0  0  0  0  0  0
   -3.5972    1.5308   12.4862 C   0  0  0  0  0  0  0  0  0  0  0  0
   -4.5028    2.5211   12.5828 N   0  0  0  0  0  0  0  0  0  0  0  0
   -4.5411    3.0317   13.8148 C   0  0  0  0  0  0  0  0  0  0  0  0
   -3.5954    2.3143   14.5481 C   0  0  0  0  0  0  0  0  0  0  0  0
   -3.0473    1.4204   13.7098 N   0  0  0  0  0  0  0  0  0  0  0  0
   -1.9935    0.5044   14.0276 C   0  0  0  0  0  0  0  0  0  0  0  0
   -0.8590    0.4702   13.0963 C   0  0  0  0  0  0  0  0  0  0  0  0
   -0.1252    1.6219   12.7802 C   0  0  0  0  0  0  0  0  0  0  0  0
    0.9411    1.6365   11.9274 C   0  0  0  0  0  0  0  0  0  0  0  0
    1.3453    0.4508   11.3217 C   0  0  0  0  0  0  0  0  0  0  0  0
    0.6548   -0.6797   11.6086 C   0  0  0  0  0  0  0  0  0  0  0  0
   -0.4390   -0.6766   12.4879 C   0  0  0  0  0  0  0  0  0  0  0  0
    2.4796    0.4818   10.4113 C   0  0  0  0  0  0  0  0  0  0  0  0
    2.3789    1.1335    9.1992 C   0  0  0  0  0  0  0  0  0  0  0  0
    3.4662    1.1443    8.3313 C   0  0  0  0  0  0  0  0  0  0  0  0
    4.6302    0.5159    8.6703 C   0  0  0  0  0  0  0  0  0  0  0  0
    4.7381   -0.1377    9.8800 C   0  0  0  0  0  0  0  0  0  0  0  0
    3.6448   -0.1510   10.7584 C   0  0  0  0  0  0  0  0  0  0  0  0
    3.7684   -0.8217   12.0254 C   0  0  0  0  0  0  0  0  0  0  0  0
    3.8232   -0.3305   13.2720 N   0  0  0  0  0  0  0  0  0  0  0  0
    3.9478   -1.3364   14.1218 N   0  0  0  0  0  0  0  0  0  0  0  0
    3.9735   -2.4609   13.4313 N   0  0  0  0  0  0  0  0  0  0  0  0
    3.8662   -2.1707   12.1633 N   0  0  0  0  0  0  0  0  0  0  0  0
   -3.3497    2.5416   15.9739 C   0  0  0  0  0  0  0  0  0  0  0  0
   -3.9313    1.8074   16.8498 O   0  0  0  0  0  0  0  0  0  0  0  0
   -2.5181    3.5038   16.4932 O   0  0  0  0  0  1  0  0  0  0  0  0
   -5.4228    4.1344   14.2370 C   0  0  0  0  0  0  0  0  0  0  0  0
   -6.3012    4.4772   13.2031 O   0  0  0  0  0  0  0  0  0  0  0  0
   -4.5519    5.3735   14.4968 C   0  0  0  0  0  0  0  0  0  0  0  0
   -6.2082    3.8646   15.4696 C   0  0  0  0  0  0  0  0  0  0  0  0
  1  2  1  0
  2  3  1  0
  3  4  1  0
  4  5  2  0
  5  6  1  0
  6  7  2  0
  7  8  1  0
  8  9  1  0
  9 10  1  0
 10 11  2  0
 11 12  1  0
 12 13  2  0
 13 14  1  0
 14 15  2  0
 13 16  1  0
 16 17  2  0
 17 18  1  0
 18 19  2  0
 19 20  1  0
 20 21  2  0
 21 22  1  0
 22 23  2  0
 23 24  1  0
 24 25  2  0
 25 26  1  0
  7 27  1  0
 27 28  2  0
 27 29  1  0
  6 30  1  0
 30 31  1  0
 30 32  1  0
 30 33  1  0
  8  4  1  0
 15 10  1  0
 21 16  1  0
 26 22  1  0
M  CHG  1  29  -1
M  END
$$$$
