
     RDKit          3D

 33 36  0  0  0  0  0  0  0  0999 V2000
   -5.4350    0.1295    9.0439 C   0  0  0  0  0  0  0  0  0  0  0  0
   -4.9470    0.5216   10.4270 C   0  0  0  0  0  0  0  0  0  0  0  0
   -4.9508    2.0276   10.6032 C   0  0  0  0  0  0  0  0  0  0  0  0
   -4.4512    2.3247   12.0002 C   0  0  0  0  0  0  0  0  0  0  0  0
   -4.7100    3.4371   12.7112 N   0  0  0  0  0  0  0  0  0  0  0  0
   -4.1356    3.3943   13.9146 C   0  0  0  0  0  0  0  0  0  0  0  0
   -3.4684    2.1700   13.9688 C   0  0  0  0  0  0  0  0  0  0  0  0
   -3.6821    1.5565   12.7941 N   0  0  0  0  0  0  0  0  0  0  0  0
   -3.1420    0.2920   12.3944 C   0  0  0  0  0  0  0  0  0  0  0  0
   -1.7987    0.3165   11.8022 C   0  0  0  0  0  0  0  0  0  0  0  0
   -1.0424    1.4944   11.7303 C   0  0  0  0  0  0  0  0  0  0  0  0
    0.2125    1.5635   11.1968 C   0  0  0  0  0  0  0  0  0  0  0  0
    0.8003    0.4100   10.6865 C   0  0  0  0  0  0  0  0  0  0  0  0
    0.0928   -0.7448   10.7426 C   0  0  0  0  0  0  0  0  0  0  0  0
   -1.1963   -0.7977   11.2949 C   0  0  0  0  0  0  0  0  0  0  0  0
    2.1357    0.4990   10.1164 C   0  0  0  0  0  0  0  0  0  0  0  0
    2.3196    0.3651    8.7554 C   0  0  0  0  0  0  0  0  0  0  0  0
    3.6032    0.4384    8.2239 C   0  0  0  0  0  0  0  0  0  0  0  0
    4.6802    0.6419    9.0383 C   0  0  0  0  0  0  0  0  0  0  0  0
    4.5042    0.7764   10.3995 C   0  0  0  0  0  0  0  0  0  0  0  0
    3.2120    0.7037   10.9400 C   0  0  0  0  0  0  0  0  0  0  0  0
    3.0332    0.8598   12.3592 C   0  0  0  0  0  0  0  0  0  0  0  0
    3.4520    1.8242   13.1914 N   0  0  0  0  0  0  0  0  0  0  0  0
    3.0525    1.5324   14.4180 N   0  0  0  0  0  0  0  0  0  0  0  0
    2.3854    0.3944   14.3764 N   0  0  0  0  0  0  0  0  0  0  0  0
    2.3628   -0.0274   13.1415 N   0  0  0  0  0  0  0  0  0  0  0  0
   -2.7335    1.7122   15.1500 C   0  0  0  0  0  0  0  0  0  0  0  0
   -1.7842    2.4275   15.6316 O   0  0  0  0  0  0  0  0  0  0  0  0
   -2.9703    0.5417   15.8288 O   0  0  0  0  0  1  0  0  0  0  0  0
   -4.2248    4.4647   14.9235 C   0  0  0  0  0  0  0  0  0  0  0  0
   -4.9814    5.5340   14.4316 O   0  0  0  0  0  0  0  0  0  0  0  0
   -2.8099    5.0104   15.1717 C   0  0  0  0  0  0  0  0  0  0  0  0
   -4.7837    4.0388   16.2332 C   0  0  0  0  0  0  0  0  0  0  0  0
  1  2  1  0
  2  3  1  0
  3  4  1  0
  4  5  2  0
  5  6  1  0
  6  7  2  0
  7  8  1  0
  8  9  1  0
  9 10  1  0
 10 11  2  0
 11 12  1  0
 12 13  2  0
 13 14  1  0
 14 15  2  0
 13 16  1  0
 16 17  2  0
 17 18  1  0
 18 19  2  0
 19 20  1  0
 20 21  2  0
 21 22  1  0
 22 23  2  0
 23 24  1  0
 24 25  2  0
 25 26  1  0
  7 27  1  0
 27 28  2  0
 27 29  1  0
  6 30  1  0
 30 31  1  0
 30 32  1  0
 30 33  1  0
  8  4  1  0
 15 10  1  0
 21 16  1  0
 26 22  1  0
M  CHG  1  29  -1
M  END
$$$$
