
     RDKit          3D

 33 36  0  0  0  0  0  0  0  0999 V2000
   -4.0979    1.4687    8.9688 C   0  0  0  0  0  0  0  0  0  0  0  0
   -3.5115    1.6179   10.3613 C   0  0  0  0  0  0  0  0  0  0  0  0
   -4.5845    1.4890   11.4248 C   0  0  0  0  0  0  0  0  0  0  0  0
   -3.8955    1.1552   12.7298 C   0  0  0  0  0  0  0  0  0  0  0  0
   -4.3536    0.3095   13.6706 N   0  0  0  0  0  0  0  0  0  0  0  0
   -3.5105    0.2190   14.7006 C   0  0  0  0  0  0  0  0  0  0  0  0
   -2.4454    1.0649   14.3894 C   0  0  0  0  0  0  0  0  0  0  0  0
   -2.7174    1.6117   13.1940 N   0  0  0  0  0  0  0  0  0  0  0  0
   -1.9159    2.5812   12.5099 C   0  0  0  0  0  0  0  0  0  0  0  0
   -0.6706    2.0878   11.9086 C   0  0  0  0  0  0  0  0  0  0  0  0
   -0.4665    0.7275   11.6391 C   0  0  0  0  0  0  0  0  0  0  0  0
    0.6701    0.2243   11.0741 C   0  0  0  0  0  0  0  0  0  0  0  0
    1.7041    1.0917   10.7352 C   0  0  0  0  0  0  0  0  0  0  0  0
    1.5351    2.4134   10.9836 C   0  0  0  0  0  0  0  0  0  0  0  0
    0.3598    2.9135   11.5650 C   0  0  0  0  0  0  0  0  0  0  0  0
    2.9114    0.5413   10.1386 C   0  0  0  0  0  0  0  0  0  0  0  0
    3.1921    0.7666    8.8066 C   0  0  0  0  0  0  0  0  0  0  0  0
    4.3429    0.2233    8.2443 C   0  0  0  0  0  0  0  0  0  0  0  0
    5.1949   -0.5297    9.0003 C   0  0  0  0  0  0  0  0  0  0  0  0
    4.9208   -0.7593   10.3323 C   0  0  0  0  0  0  0  0  0  0  0  0
    3.7621   -0.2134   10.9037 C   0  0  0  0  0  0  0  0  0  0  0  0
    3.4892   -0.4439   12.2976 C   0  0  0  0  0  0  0  0  0  0  0  0
    3.1589   -1.5689   12.9485 N   0  0  0  0  0  0  0  0  0  0  0  0
    2.9965   -1.2878   14.2306 N   0  0  0  0  0  0  0  0  0  0  0  0
    3.2190    0.0016   14.4033 N   0  0  0  0  0  0  0  0  0  0  0  0
    3.5181    0.5285   13.2473 N   0  0  0  0  0  0  0  0  0  0  0  0
   -1.2742    1.2260   15.2538 C   0  0  0  0  0  0  0  0  0  0  0  0
   -1.1021    2.3182   15.9036 O   0  0  0  0  0  0  0  0  0  0  0  0
   -0.2969    0.2811   15.4518 O   0  0  0  0  0  1  0  0  0  0  0  0
   -3.7322   -0.6182   15.8929 C   0  0  0  0  0  0  0  0  0  0  0  0
   -5.0696   -1.0241   15.9597 O   0  0  0  0  0  0  0  0  0  0  0  0
   -3.4761    0.2432   17.1394 C   0  0  0  0  0  0  0  0  0  0  0  0
   -2.8579   -1.8169   15.9816 C   0  0  0  0  0  0  0  0  0  0  0  0
  1  2  1  0
  2  3  1  0
  3  4  1  0
  4  5  2  0
  5  6  1  0
  6  7  2  0
  7  8  1  0
  8  9  1  0
  9 10  1  0
 10 11  2  0
 11 12  1  0
 12 13  2  0
 13 14  1  0
 14 15  2  0
 13 16  1  0
 16 17  2  0
 17 18  1  0
 18 19  2  0
 19 20  1  0
 20 21  2  0
 21 22  1  0
 22 23  2  0
 23 24  1  0
 24 25  2  0
 25 26  1  0
  7 27  1  0
 27 28  2  0
 27 29  1  0
  6 30  1  0
 30 31  1  0
 30 32  1  0
 30 33  1  0
  8  4  1  0
 15 10  1  0
 21 16  1  0
 26 22  1  0
M  CHG  1  29  -1
M  END
$$$$
