
     RDKit          3D

 33 36  0  0  0  0  0  0  0  0999 V2000
   -2.2146   -2.0482   15.3025 C   0  0  0  0  0  0  0  0  0  0  0  0
   -2.4115   -0.6067   14.8684 C   0  0  0  0  0  0  0  0  0  0  0  0
   -3.8402   -0.1546   15.0998 C   0  0  0  0  0  0  0  0  0  0  0  0
   -3.9577    1.2649   14.5896 C   0  0  0  0  0  0  0  0  0  0  0  0
   -4.2006    2.3555   15.3391 N   0  0  0  0  0  0  0  0  0  0  0  0
   -4.2334    3.4632   14.5962 C   0  0  0  0  0  0  0  0  0  0  0  0
   -3.9938    3.0445   13.2869 C   0  0  0  0  0  0  0  0  0  0  0  0
   -3.8350    1.7121   13.3260 N   0  0  0  0  0  0  0  0  0  0  0  0
   -3.6168    0.8570   12.1983 C   0  0  0  0  0  0  0  0  0  0  0  0
   -2.2483    0.8168   11.6680 C   0  0  0  0  0  0  0  0  0  0  0  0
   -1.2126    1.5742   12.2324 C   0  0  0  0  0  0  0  0  0  0  0  0
    0.0752    1.5625   11.7789 C   0  0  0  0  0  0  0  0  0  0  0  0
    0.4075    0.7591   10.6924 C   0  0  0  0  0  0  0  0  0  0  0  0
   -0.5733    0.0147   10.1258 C   0  0  0  0  0  0  0  0  0  0  0  0
   -1.8921    0.0388   10.6052 C   0  0  0  0  0  0  0  0  0  0  0  0
    1.7823    0.7602   10.2164 C   0  0  0  0  0  0  0  0  0  0  0  0
    2.0682    1.1438    8.9222 C   0  0  0  0  0  0  0  0  0  0  0  0
    3.3854    1.1274    8.4747 C   0  0  0  0  0  0  0  0  0  0  0  0
    4.3953    0.7353    9.3060 C   0  0  0  0  0  0  0  0  0  0  0  0
    4.1170    0.3503   10.6008 C   0  0  0  0  0  0  0  0  0  0  0  0
    2.7907    0.3656   11.0566 C   0  0  0  0  0  0  0  0  0  0  0  0
    2.5084   -0.0228   12.4131 C   0  0  0  0  0  0  0  0  0  0  0  0
    2.9779    0.4559   13.5744 N   0  0  0  0  0  0  0  0  0  0  0  0
    2.4345   -0.2269   14.5682 N   0  0  0  0  0  0  0  0  0  0  0  0
    1.6257   -1.1341   14.0536 N   0  0  0  0  0  0  0  0  0  0  0  0
    1.6568   -1.0265   12.7533 N   0  0  0  0  0  0  0  0  0  0  0  0
   -3.9091    3.9699   12.1550 C   0  0  0  0  0  0  0  0  0  0  0  0
   -2.8788    4.7208   12.0163 O   0  0  0  0  0  0  0  0  0  0  0  0
   -4.8637    4.1204   11.1787 O   0  0  0  0  0  1  0  0  0  0  0  0
   -4.4863    4.8166   15.1217 C   0  0  0  0  0  0  0  0  0  0  0  0
   -5.6230    5.3670   14.5194 O   0  0  0  0  0  0  0  0  0  0  0  0
   -3.3048    5.7151   14.7240 C   0  0  0  0  0  0  0  0  0  0  0  0
   -4.6370    4.8914   16.5984 C   0  0  0  0  0  0  0  0  0  0  0  0
  1  2  1  0
  2  3  1  0
  3  4  1  0
  4  5  2  0
  5  6  1  0
  6  7  2  0
  7  8  1  0
  8  9  1  0
  9 10  1  0
 10 11  2  0
 11 12  1  0
 12 13  2  0
 13 14  1  0
 14 15  2  0
 13 16  1  0
 16 17  2  0
 17 18  1  0
 18 19  2  0
 19 20  1  0
 20 21  2  0
 21 22  1  0
 22 23  2  0
 23 24  1  0
 24 25  2  0
 25 26  1  0
  7 27  1  0
 27 28  2  0
 27 29  1  0
  6 30  1  0
 30 31  1  0
 30 32  1  0
 30 33  1  0
  8  4  1  0
 15 10  1  0
 21 16  1  0
 26 22  1  0
M  CHG  1  29  -1
M  END
$$$$
