
     RDKit          3D

 33 36  0  0  0  0  0  0  0  0999 V2000
   -4.1422   -2.6606   11.0965 C   0  0  0  0  0  0  0  0  0  0  0  0
   -3.5436   -1.4559   11.8004 C   0  0  0  0  0  0  0  0  0  0  0  0
   -4.4295   -0.2350   11.6470 C   0  0  0  0  0  0  0  0  0  0  0  0
   -3.7944    0.8910   12.4331 C   0  0  0  0  0  0  0  0  0  0  0  0
   -4.1524    1.2928   13.6662 N   0  0  0  0  0  0  0  0  0  0  0  0
   -3.3922    2.3030   14.0924 C   0  0  0  0  0  0  0  0  0  0  0  0
   -2.4907    2.5568   13.0582 C   0  0  0  0  0  0  0  0  0  0  0  0
   -2.7681    1.6853   12.0756 N   0  0  0  0  0  0  0  0  0  0  0  0
   -2.1188    1.6189   10.8011 C   0  0  0  0  0  0  0  0  0  0  0  0
   -0.7059    1.2199   10.8112 C   0  0  0  0  0  0  0  0  0  0  0  0
    0.2976    2.0338   10.2678 C   0  0  0  0  0  0  0  0  0  0  0  0
    1.6236    1.7085   10.2621 C   0  0  0  0  0  0  0  0  0  0  0  0
    2.0315    0.5021   10.8230 C   0  0  0  0  0  0  0  0  0  0  0  0
    1.0833   -0.3060   11.3568 C   0  0  0  0  0  0  0  0  0  0  0  0
   -0.2757    0.0444   11.3542 C   0  0  0  0  0  0  0  0  0  0  0  0
    3.4468    0.1658   10.8055 C   0  0  0  0  0  0  0  0  0  0  0  0
    4.1119    0.0255    9.6047 C   0  0  0  0  0  0  0  0  0  0  0  0
    5.4621   -0.3099    9.6009 C   0  0  0  0  0  0  0  0  0  0  0  0
    6.1323   -0.5006   10.7752 C   0  0  0  0  0  0  0  0  0  0  0  0
    5.4741   -0.3624   11.9793 C   0  0  0  0  0  0  0  0  0  0  0  0
    4.1130   -0.0240   11.9881 C   0  0  0  0  0  0  0  0  0  0  0  0
    3.4354    0.1335   13.2477 C   0  0  0  0  0  0  0  0  0  0  0  0
    3.3889    1.1757   14.0902 N   0  0  0  0  0  0  0  0  0  0  0  0
    2.6420    0.8493   15.1318 N   0  0  0  0  0  0  0  0  0  0  0  0
    2.2132   -0.3874   14.9625 N   0  0  0  0  0  0  0  0  0  0  0  0
    2.6818   -0.8367   13.8302 N   0  0  0  0  0  0  0  0  0  0  0  0
   -1.4454    3.5792   13.1423 C   0  0  0  0  0  0  0  0  0  0  0  0
   -1.6131    4.7161   12.5732 O   0  0  0  0  0  0  0  0  0  0  0  0
   -0.2489    3.4395   13.8025 O   0  0  0  0  0  1  0  0  0  0  0  0
   -3.5406    2.9695   15.3983 C   0  0  0  0  0  0  0  0  0  0  0  0
   -4.6401    2.4468   16.0883 O   0  0  0  0  0  0  0  0  0  0  0  0
   -3.8495    4.4538   15.1481 C   0  0  0  0  0  0  0  0  0  0  0  0
   -2.3412    2.8961   16.2730 C   0  0  0  0  0  0  0  0  0  0  0  0
  1  2  1  0
  2  3  1  0
  3  4  1  0
  4  5  2  0
  5  6  1  0
  6  7  2  0
  7  8  1  0
  8  9  1  0
  9 10  1  0
 10 11  2  0
 11 12  1  0
 12 13  2  0
 13 14  1  0
 14 15  2  0
 13 16  1  0
 16 17  2  0
 17 18  1  0
 18 19  2  0
 19 20  1  0
 20 21  2  0
 21 22  1  0
 22 23  2  0
 23 24  1  0
 24 25  2  0
 25 26  1  0
  7 27  1  0
 27 28  2  0
 27 29  1  0
  6 30  1  0
 30 31  1  0
 30 32  1  0
 30 33  1  0
  8  4  1  0
 15 10  1  0
 21 16  1  0
 26 22  1  0
M  CHG  1  29  -1
M  END
$$$$
