
     RDKit          3D

 33 36  0  0  0  0  0  0  0  0999 V2000
   -5.2404    0.8916    8.1488 C   0  0  0  0  0  0  0  0  0  0  0  0
   -5.1344    1.2396    9.6228 C   0  0  0  0  0  0  0  0  0  0  0  0
   -3.8035    1.8944    9.9373 C   0  0  0  0  0  0  0  0  0  0  0  0
   -3.7466    2.1167   11.4328 C   0  0  0  0  0  0  0  0  0  0  0  0
   -4.1876    3.2070   12.0862 N   0  0  0  0  0  0  0  0  0  0  0  0
   -4.0072    3.0953   13.4034 C   0  0  0  0  0  0  0  0  0  0  0  0
   -3.4122    1.8481   13.5965 C   0  0  0  0  0  0  0  0  0  0  0  0
   -3.2705    1.2910   12.3833 N   0  0  0  0  0  0  0  0  0  0  0  0
   -2.6593    0.0266   12.1039 C   0  0  0  0  0  0  0  0  0  0  0  0
   -1.1991   -0.0350   12.2446 C   0  0  0  0  0  0  0  0  0  0  0  0
   -0.5507   -1.1714   12.7473 C   0  0  0  0  0  0  0  0  0  0  0  0
    0.8033   -1.2771   12.8880 C   0  0  0  0  0  0  0  0  0  0  0  0
    1.6123   -0.2073   12.5177 C   0  0  0  0  0  0  0  0  0  0  0  0
    1.0134    0.9055   12.0276 C   0  0  0  0  0  0  0  0  0  0  0  0
   -0.3802    0.9970   11.8895 C   0  0  0  0  0  0  0  0  0  0  0  0
    3.0529   -0.3316   12.6779 C   0  0  0  0  0  0  0  0  0  0  0  0
    3.5919   -0.6094   13.9173 C   0  0  0  0  0  0  0  0  0  0  0  0
    4.9720   -0.7122   14.0602 C   0  0  0  0  0  0  0  0  0  0  0  0
    5.7951   -0.5407   12.9843 C   0  0  0  0  0  0  0  0  0  0  0  0
    5.2635   -0.2626   11.7424 C   0  0  0  0  0  0  0  0  0  0  0  0
    3.8728   -0.1584   11.5933 C   0  0  0  0  0  0  0  0  0  0  0  0
    3.3234    0.1171   10.2922 C   0  0  0  0  0  0  0  0  0  0  0  0
    3.6925    1.0062    9.3587 N   0  0  0  0  0  0  0  0  0  0  0  0
    2.8785    0.8988    8.3218 N   0  0  0  0  0  0  0  0  0  0  0  0
    1.9961   -0.0470    8.5843 N   0  0  0  0  0  0  0  0  0  0  0  0
    2.2485   -0.5311    9.7699 N   0  0  0  0  0  0  0  0  0  0  0  0
   -3.0803    1.3176   14.9205 C   0  0  0  0  0  0  0  0  0  0  0  0
   -3.6367    0.2400   15.3376 O   0  0  0  0  0  0  0  0  0  0  0  0
   -2.1893    1.8807   15.8015 O   0  0  0  0  0  1  0  0  0  0  0  0
   -4.3781    4.1256   14.3896 C   0  0  0  0  0  0  0  0  0  0  0  0
   -5.0612    5.1740   13.7632 O   0  0  0  0  0  0  0  0  0  0  0  0
   -3.0865    4.7290   14.9631 C   0  0  0  0  0  0  0  0  0  0  0  0
   -5.1931    3.6298   15.5293 C   0  0  0  0  0  0  0  0  0  0  0  0
  1  2  1  0
  2  3  1  0
  3  4  1  0
  4  5  2  0
  5  6  1  0
  6  7  2  0
  7  8  1  0
  8  9  1  0
  9 10  1  0
 10 11  2  0
 11 12  1  0
 12 13  2  0
 13 14  1  0
 14 15  2  0
 13 16  1  0
 16 17  2  0
 17 18  1  0
 18 19  2  0
 19 20  1  0
 20 21  2  0
 21 22  1  0
 22 23  2  0
 23 24  1  0
 24 25  2  0
 25 26  1  0
  7 27  1  0
 27 28  2  0
 27 29  1  0
  6 30  1  0
 30 31  1  0
 30 32  1  0
 30 33  1  0
  8  4  1  0
 15 10  1  0
 21 16  1  0
 26 22  1  0
M  CHG  1  29  -1
M  END
$$$$
