
     RDKit          3D

 33 36  0  0  0  0  0  0  0  0999 V2000
   -5.9620    0.7951    9.1472 C   0  0  0  0  0  0  0  0  0  0  0  0
   -5.1514    1.2759   10.3375 C   0  0  0  0  0  0  0  0  0  0  0  0
   -4.2912    0.1618   10.9012 C   0  0  0  0  0  0  0  0  0  0  0  0
   -3.6478    0.6793   12.1691 C   0  0  0  0  0  0  0  0  0  0  0  0
   -4.0511    0.4126   13.4246 N   0  0  0  0  0  0  0  0  0  0  0  0
   -3.2694    1.0077   14.3272 C   0  0  0  0  0  0  0  0  0  0  0  0
   -2.3047    1.6974   13.5920 C   0  0  0  0  0  0  0  0  0  0  0  0
   -2.5696    1.4752   12.2949 N   0  0  0  0  0  0  0  0  0  0  0  0
   -1.8583    2.0310   11.1833 C   0  0  0  0  0  0  0  0  0  0  0  0
   -0.4869    1.5472   10.9813 C   0  0  0  0  0  0  0  0  0  0  0  0
    0.4683    2.2986   10.2830 C   0  0  0  0  0  0  0  0  0  0  0  0
    1.7560    1.8936   10.0779 C   0  0  0  0  0  0  0  0  0  0  0  0
    2.1721    0.6651   10.5818 C   0  0  0  0  0  0  0  0  0  0  0  0
    1.2703   -0.0839   11.2622 C   0  0  0  0  0  0  0  0  0  0  0  0
   -0.0496    0.3482   11.4639 C   0  0  0  0  0  0  0  0  0  0  0  0
    3.5454    0.2437   10.3514 C   0  0  0  0  0  0  0  0  0  0  0  0
    4.0661    0.2432    9.0736 C   0  0  0  0  0  0  0  0  0  0  0  0
    5.3764   -0.1751    8.8646 C   0  0  0  0  0  0  0  0  0  0  0  0
    6.1492   -0.5842    9.9134 C   0  0  0  0  0  0  0  0  0  0  0  0
    5.6355   -0.5867   11.1933 C   0  0  0  0  0  0  0  0  0  0  0  0
    4.3152   -0.1655   11.4091 C   0  0  0  0  0  0  0  0  0  0  0  0
    3.7897   -0.1561   12.7486 C   0  0  0  0  0  0  0  0  0  0  0  0
    3.5905   -1.1594   13.6157 N   0  0  0  0  0  0  0  0  0  0  0  0
    3.0756   -0.6650   14.7291 N   0  0  0  0  0  0  0  0  0  0  0  0
    2.9445    0.6399   14.5809 N   0  0  0  0  0  0  0  0  0  0  0  0
    3.3705    0.9663   13.3912 N   0  0  0  0  0  0  0  0  0  0  0  0
   -1.2203    2.4601   14.2142 C   0  0  0  0  0  0  0  0  0  0  0  0
   -0.1433    1.8652   14.5757 O   0  0  0  0  0  0  0  0  0  0  0  0
   -1.2381    3.8118   14.4583 O   0  0  0  0  0  1  0  0  0  0  0  0
   -3.4555    0.9162   15.7862 C   0  0  0  0  0  0  0  0  0  0  0  0
   -4.5570    0.1069   16.0856 O   0  0  0  0  0  0  0  0  0  0  0  0
   -3.7892    2.3191   16.3171 C   0  0  0  0  0  0  0  0  0  0  0  0
   -2.2715    0.4175   16.5334 C   0  0  0  0  0  0  0  0  0  0  0  0
  1  2  1  0
  2  3  1  0
  3  4  1  0
  4  5  2  0
  5  6  1  0
  6  7  2  0
  7  8  1  0
  8  9  1  0
  9 10  1  0
 10 11  2  0
 11 12  1  0
 12 13  2  0
 13 14  1  0
 14 15  2  0
 13 16  1  0
 16 17  2  0
 17 18  1  0
 18 19  2  0
 19 20  1  0
 20 21  2  0
 21 22  1  0
 22 23  2  0
 23 24  1  0
 24 25  2  0
 25 26  1  0
  7 27  1  0
 27 28  2  0
 27 29  1  0
  6 30  1  0
 30 31  1  0
 30 32  1  0
 30 33  1  0
  8  4  1  0
 15 10  1  0
 21 16  1  0
 26 22  1  0
M  CHG  1  29  -1
M  END
$$$$
