
     RDKit          3D

 33 36  0  0  0  0  0  0  0  0999 V2000
   -0.3252    0.4181   16.8718 C   0  0  0  0  0  0  0  0  0  0  0  0
   -1.2355    0.6504   15.6792 C   0  0  0  0  0  0  0  0  0  0  0  0
   -2.6015    1.1398   16.1191 C   0  0  0  0  0  0  0  0  0  0  0  0
   -3.3481    1.5829   14.8800 C   0  0  0  0  0  0  0  0  0  0  0  0
   -4.1716    2.6432   14.7915 N   0  0  0  0  0  0  0  0  0  0  0  0
   -4.6677    2.7769   13.5602 C   0  0  0  0  0  0  0  0  0  0  0  0
   -4.1195    1.7297   12.8188 C   0  0  0  0  0  0  0  0  0  0  0  0
   -3.3313    1.0321   13.6520 N   0  0  0  0  0  0  0  0  0  0  0  0
   -2.6058   -0.1584   13.3251 C   0  0  0  0  0  0  0  0  0  0  0  0
   -1.3252    0.0302   12.6321 C   0  0  0  0  0  0  0  0  0  0  0  0
   -0.4774   -1.0462   12.3365 C   0  0  0  0  0  0  0  0  0  0  0  0
    0.7171   -0.9201   11.6873 C   0  0  0  0  0  0  0  0  0  0  0  0
    1.1430    0.3416   11.2833 C   0  0  0  0  0  0  0  0  0  0  0  0
    0.3437    1.4019   11.5551 C   0  0  0  0  0  0  0  0  0  0  0  0
   -0.8815    1.2540   12.2233 C   0  0  0  0  0  0  0  0  0  0  0  0
    2.4202    0.4620   10.5972 C   0  0  0  0  0  0  0  0  0  0  0  0
    2.4904    1.0781    9.3646 C   0  0  0  0  0  0  0  0  0  0  0  0
    3.7154    1.1748    8.7123 C   0  0  0  0  0  0  0  0  0  0  0  0
    4.8467    0.6653    9.2827 C   0  0  0  0  0  0  0  0  0  0  0  0
    4.7842    0.0479   10.5144 C   0  0  0  0  0  0  0  0  0  0  0  0
    3.5515   -0.0516   11.1760 C   0  0  0  0  0  0  0  0  0  0  0  0
    3.4953   -0.6835   12.4675 C   0  0  0  0  0  0  0  0  0  0  0  0
    3.6562   -1.9674   12.8194 N   0  0  0  0  0  0  0  0  0  0  0  0
    3.5047   -2.0730   14.1291 N   0  0  0  0  0  0  0  0  0  0  0  0
    3.2490   -0.8726   14.6144 N   0  0  0  0  0  0  0  0  0  0  0  0
    3.2393   -0.0200   13.6262 N   0  0  0  0  0  0  0  0  0  0  0  0
   -4.3841    1.5373   11.3913 C   0  0  0  0  0  0  0  0  0  0  0  0
   -5.3926    0.8406   11.0143 O   0  0  0  0  0  0  0  0  0  0  0  0
   -3.6291    2.0540   10.3666 O   0  0  0  0  0  1  0  0  0  0  0  0
   -5.6058    3.8351   13.1459 C   0  0  0  0  0  0  0  0  0  0  0  0
   -5.9596    3.6717   11.8020 O   0  0  0  0  0  0  0  0  0  0  0  0
   -4.8801    5.1861   13.2437 C   0  0  0  0  0  0  0  0  0  0  0  0
   -6.8431    3.9238   13.9645 C   0  0  0  0  0  0  0  0  0  0  0  0
  1  2  1  0
  2  3  1  0
  3  4  1  0
  4  5  2  0
  5  6  1  0
  6  7  2  0
  7  8  1  0
  8  9  1  0
  9 10  1  0
 10 11  2  0
 11 12  1  0
 12 13  2  0
 13 14  1  0
 14 15  2  0
 13 16  1  0
 16 17  2  0
 17 18  1  0
 18 19  2  0
 19 20  1  0
 20 21  2  0
 21 22  1  0
 22 23  2  0
 23 24  1  0
 24 25  2  0
 25 26  1  0
  7 27  1  0
 27 28  2  0
 27 29  1  0
  6 30  1  0
 30 31  1  0
 30 32  1  0
 30 33  1  0
  8  4  1  0
 15 10  1  0
 21 16  1  0
 26 22  1  0
M  CHG  1  29  -1
M  END
$$$$
