
     RDKit          3D

 33 36  0  0  0  0  0  0  0  0999 V2000
   -5.3525    1.1260    8.8600 C   0  0  0  0  0  0  0  0  0  0  0  0
   -4.6194    1.6552   10.0796 C   0  0  0  0  0  0  0  0  0  0  0  0
   -3.9024    0.5400   10.8152 C   0  0  0  0  0  0  0  0  0  0  0  0
   -3.5575    1.0525   12.1964 C   0  0  0  0  0  0  0  0  0  0  0  0
   -4.1558    0.6891   13.3453 N   0  0  0  0  0  0  0  0  0  0  0  0
   -3.6163    1.3093   14.3962 C   0  0  0  0  0  0  0  0  0  0  0  0
   -2.6067    2.1200   13.8762 C   0  0  0  0  0  0  0  0  0  0  0  0
   -2.6055    1.9375   12.5462 N   0  0  0  0  0  0  0  0  0  0  0  0
   -1.7614    2.6099   11.6051 C   0  0  0  0  0  0  0  0  0  0  0  0
   -0.4625    1.9820   11.3323 C   0  0  0  0  0  0  0  0  0  0  0  0
    0.6256    2.7153   10.8394 C   0  0  0  0  0  0  0  0  0  0  0  0
    1.8529    2.1766   10.5791 C   0  0  0  0  0  0  0  0  0  0  0  0
    2.0641    0.8204   10.8079 C   0  0  0  0  0  0  0  0  0  0  0  0
    1.0300    0.0854   11.2850 C   0  0  0  0  0  0  0  0  0  0  0  0
   -0.2252    0.6557   11.5473 C   0  0  0  0  0  0  0  0  0  0  0  0
    3.3751    0.2586   10.5213 C   0  0  0  0  0  0  0  0  0  0  0  0
    3.8428    0.2149    9.2239 C   0  0  0  0  0  0  0  0  0  0  0  0
    5.0924   -0.3373    8.9611 C   0  0  0  0  0  0  0  0  0  0  0  0
    5.8578   -0.8352    9.9764 C   0  0  0  0  0  0  0  0  0  0  0  0
    5.3968   -0.7952   11.2756 C   0  0  0  0  0  0  0  0  0  0  0  0
    4.1379   -0.2391   11.5456 C   0  0  0  0  0  0  0  0  0  0  0  0
    3.6687   -0.1866   12.9049 C   0  0  0  0  0  0  0  0  0  0  0  0
    3.1046   -1.1314   13.6712 N   0  0  0  0  0  0  0  0  0  0  0  0
    2.8308   -0.6120   14.8564 N   0  0  0  0  0  0  0  0  0  0  0  0
    3.2133    0.6512   14.8532 N   0  0  0  0  0  0  0  0  0  0  0  0
    3.7219    0.9268   13.6833 N   0  0  0  0  0  0  0  0  0  0  0  0
   -1.7365    2.9485   14.7135 C   0  0  0  0  0  0  0  0  0  0  0  0
   -1.8576    4.2250   14.6978 O   0  0  0  0  0  0  0  0  0  0  0  0
   -0.7602    2.4755   15.5563 O   0  0  0  0  0  1  0  0  0  0  0  0
   -4.0570    1.1303   15.7910 C   0  0  0  0  0  0  0  0  0  0  0  0
   -3.7474   -0.1595   16.2365 O   0  0  0  0  0  0  0  0  0  0  0  0
   -5.5886    1.2483   15.8301 C   0  0  0  0  0  0  0  0  0  0  0  0
   -3.5004    2.1200   16.7501 C   0  0  0  0  0  0  0  0  0  0  0  0
  1  2  1  0
  2  3  1  0
  3  4  1  0
  4  5  2  0
  5  6  1  0
  6  7  2  0
  7  8  1  0
  8  9  1  0
  9 10  1  0
 10 11  2  0
 11 12  1  0
 12 13  2  0
 13 14  1  0
 14 15  2  0
 13 16  1  0
 16 17  2  0
 17 18  1  0
 18 19  2  0
 19 20  1  0
 20 21  2  0
 21 22  1  0
 22 23  2  0
 23 24  1  0
 24 25  2  0
 25 26  1  0
  7 27  1  0
 27 28  2  0
 27 29  1  0
  6 30  1  0
 30 31  1  0
 30 32  1  0
 30 33  1  0
  8  4  1  0
 15 10  1  0
 21 16  1  0
 26 22  1  0
M  CHG  1  29  -1
M  END
$$$$
