
     RDKit          3D

 33 36  0  0  0  0  0  0  0  0999 V2000
   -2.8996    0.2127   10.4256 C   0  0  0  0  0  0  0  0  0  0  0  0
   -2.7790    1.7225   10.3212 C   0  0  0  0  0  0  0  0  0  0  0  0
   -3.9028    2.4153   11.0668 C   0  0  0  0  0  0  0  0  0  0  0  0
   -3.7023    2.1500   12.5429 C   0  0  0  0  0  0  0  0  0  0  0  0
   -4.5370    1.4604   13.3415 N   0  0  0  0  0  0  0  0  0  0  0  0
   -4.0741    1.3909   14.5908 C   0  0  0  0  0  0  0  0  0  0  0  0
   -2.8627    2.0833   14.5815 C   0  0  0  0  0  0  0  0  0  0  0  0
   -2.6762    2.5269   13.3283 N   0  0  0  0  0  0  0  0  0  0  0  0
   -1.5811    3.3300   12.8739 C   0  0  0  0  0  0  0  0  0  0  0  0
   -0.4673    2.6125   12.2412 C   0  0  0  0  0  0  0  0  0  0  0  0
   -0.5319    1.2398   11.9654 C   0  0  0  0  0  0  0  0  0  0  0  0
    0.4743    0.5331   11.3716 C   0  0  0  0  0  0  0  0  0  0  0  0
    1.6457    1.1903   11.0079 C   0  0  0  0  0  0  0  0  0  0  0  0
    1.7370    2.5186   11.2618 C   0  0  0  0  0  0  0  0  0  0  0  0
    0.6926    3.2295   11.8729 C   0  0  0  0  0  0  0  0  0  0  0  0
    2.7116    0.4241   10.3809 C   0  0  0  0  0  0  0  0  0  0  0  0
    2.9316    0.5244    9.0224 C   0  0  0  0  0  0  0  0  0  0  0  0
    3.9452   -0.2239    8.4324 C   0  0  0  0  0  0  0  0  0  0  0  0
    4.7225   -1.0552    9.1870 C   0  0  0  0  0  0  0  0  0  0  0  0
    4.5082   -1.1608   10.5453 C   0  0  0  0  0  0  0  0  0  0  0  0
    3.4879   -0.4080   11.1448 C   0  0  0  0  0  0  0  0  0  0  0  0
    3.2790   -0.5111   12.5647 C   0  0  0  0  0  0  0  0  0  0  0  0
    2.7425   -1.4963   13.2994 N   0  0  0  0  0  0  0  0  0  0  0  0
    2.7537   -1.1345   14.5715 N   0  0  0  0  0  0  0  0  0  0  0  0
    3.2901    0.0685   14.6551 N   0  0  0  0  0  0  0  0  0  0  0  0
    3.6138    0.4618   13.4534 N   0  0  0  0  0  0  0  0  0  0  0  0
   -2.0061    2.2107   15.7625 C   0  0  0  0  0  0  0  0  0  0  0  0
   -1.9835    3.3099   16.4227 O   0  0  0  0  0  0  0  0  0  0  0  0
   -1.1886    1.2257   16.2610 O   0  0  0  0  0  1  0  0  0  0  0  0
   -4.7629    0.7114   15.7024 C   0  0  0  0  0  0  0  0  0  0  0  0
   -6.1349    0.6230   15.4421 O   0  0  0  0  0  0  0  0  0  0  0  0
   -4.6140    1.5787   16.9621 C   0  0  0  0  0  0  0  0  0  0  0  0
   -4.2424   -0.6441   16.0198 C   0  0  0  0  0  0  0  0  0  0  0  0
  1  2  1  0
  2  3  1  0
  3  4  1  0
  4  5  2  0
  5  6  1  0
  6  7  2  0
  7  8  1  0
  8  9  1  0
  9 10  1  0
 10 11  2  0
 11 12  1  0
 12 13  2  0
 13 14  1  0
 14 15  2  0
 13 16  1  0
 16 17  2  0
 17 18  1  0
 18 19  2  0
 19 20  1  0
 20 21  2  0
 21 22  1  0
 22 23  2  0
 23 24  1  0
 24 25  2  0
 25 26  1  0
  7 27  1  0
 27 28  2  0
 27 29  1  0
  6 30  1  0
 30 31  1  0
 30 32  1  0
 30 33  1  0
  8  4  1  0
 15 10  1  0
 21 16  1  0
 26 22  1  0
M  CHG  1  29  -1
M  END
$$$$
