
     RDKit          3D

 33 36  0  0  0  0  0  0  0  0999 V2000
   -2.0675    6.7528   12.9289 C   0  0  0  0  0  0  0  0  0  0  0  0
   -2.8785    5.5557   13.3918 C   0  0  0  0  0  0  0  0  0  0  0  0
   -2.7227    4.3863   12.4394 C   0  0  0  0  0  0  0  0  0  0  0  0
   -3.3969    3.1891   13.0729 C   0  0  0  0  0  0  0  0  0  0  0  0
   -4.6837    2.8310   12.9120 N   0  0  0  0  0  0  0  0  0  0  0  0
   -4.9720    1.7203   13.5925 C   0  0  0  0  0  0  0  0  0  0  0  0
   -3.7857    1.3498   14.2267 C   0  0  0  0  0  0  0  0  0  0  0  0
   -2.8610    2.2626   13.8891 N   0  0  0  0  0  0  0  0  0  0  0  0
   -1.5072    2.3010   14.3541 C   0  0  0  0  0  0  0  0  0  0  0  0
   -0.4739    1.9320   13.3785 C   0  0  0  0  0  0  0  0  0  0  0  0
   -0.3241    0.6158   12.9203 C   0  0  0  0  0  0  0  0  0  0  0  0
    0.6156    0.2281   12.0088 C   0  0  0  0  0  0  0  0  0  0  0  0
    1.4903    1.1761   11.4867 C   0  0  0  0  0  0  0  0  0  0  0  0
    1.3692    2.4577   11.9109 C   0  0  0  0  0  0  0  0  0  0  0  0
    0.3971    2.8389   12.8486 C   0  0  0  0  0  0  0  0  0  0  0  0
    2.4899    0.7480   10.5203 C   0  0  0  0  0  0  0  0  0  0  0  0
    2.3412    1.0589    9.1842 C   0  0  0  0  0  0  0  0  0  0  0  0
    3.2970    0.6320    8.2678 C   0  0  0  0  0  0  0  0  0  0  0  0
    4.3793   -0.0909    8.6808 C   0  0  0  0  0  0  0  0  0  0  0  0
    4.5345   -0.4056   10.0146 C   0  0  0  0  0  0  0  0  0  0  0  0
    3.5738    0.0229   10.9423 C   0  0  0  0  0  0  0  0  0  0  0  0
    3.7489   -0.2956   12.3345 C   0  0  0  0  0  0  0  0  0  0  0  0
    4.8652   -0.4562   13.0600 N   0  0  0  0  0  0  0  0  0  0  0  0
    4.5267   -0.7530   14.3036 N   0  0  0  0  0  0  0  0  0  0  0  0
    3.2094   -0.7837   14.3781 N   0  0  0  0  0  0  0  0  0  0  0  0
    2.7216   -0.5099   13.1988 N   0  0  0  0  0  0  0  0  0  0  0  0
   -3.6633    0.1470   15.0532 C   0  0  0  0  0  0  0  0  0  0  0  0
   -4.0186    0.1767   16.2851 O   0  0  0  0  0  0  0  0  0  0  0  0
   -3.1880   -1.0678   14.6228 O   0  0  0  0  0  1  0  0  0  0  0  0
   -6.2988    1.0798   13.6265 C   0  0  0  0  0  0  0  0  0  0  0  0
   -7.2806    2.0144   13.9741 O   0  0  0  0  0  0  0  0  0  0  0  0
   -6.2929    0.0205   14.7396 C   0  0  0  0  0  0  0  0  0  0  0  0
   -6.6967    0.4079   12.3619 C   0  0  0  0  0  0  0  0  0  0  0  0
  1  2  1  0
  2  3  1  0
  3  4  1  0
  4  5  2  0
  5  6  1  0
  6  7  2  0
  7  8  1  0
  8  9  1  0
  9 10  1  0
 10 11  2  0
 11 12  1  0
 12 13  2  0
 13 14  1  0
 14 15  2  0
 13 16  1  0
 16 17  2  0
 17 18  1  0
 18 19  2  0
 19 20  1  0
 20 21  2  0
 21 22  1  0
 22 23  2  0
 23 24  1  0
 24 25  2  0
 25 26  1  0
  7 27  1  0
 27 28  2  0
 27 29  1  0
  6 30  1  0
 30 31  1  0
 30 32  1  0
 30 33  1  0
  8  4  1  0
 15 10  1  0
 21 16  1  0
 26 22  1  0
M  CHG  1  29  -1
M  END
$$$$
