
     RDKit          3D

 33 36  0  0  0  0  0  0  0  0999 V2000
   -4.0137    0.7573    8.6223 C   0  0  0  0  0  0  0  0  0  0  0  0
   -3.6548    1.2541   10.0113 C   0  0  0  0  0  0  0  0  0  0  0  0
   -4.7872    1.0118   10.9900 C   0  0  0  0  0  0  0  0  0  0  0  0
   -4.3861    1.6266   12.3130 C   0  0  0  0  0  0  0  0  0  0  0  0
   -4.8227    2.8014   12.8021 N   0  0  0  0  0  0  0  0  0  0  0  0
   -4.2934    3.0610   13.9989 C   0  0  0  0  0  0  0  0  0  0  0  0
   -3.4658    1.9751   14.2870 C   0  0  0  0  0  0  0  0  0  0  0  0
   -3.5484    1.1338   13.2443 N   0  0  0  0  0  0  0  0  0  0  0  0
   -2.8241   -0.0921   13.0923 C   0  0  0  0  0  0  0  0  0  0  0  0
   -1.5484   -0.0083   12.3704 C   0  0  0  0  0  0  0  0  0  0  0  0
   -1.0740   -1.0641   11.5799 C   0  0  0  0  0  0  0  0  0  0  0  0
    0.1007   -1.0282   10.8848 C   0  0  0  0  0  0  0  0  0  0  0  0
    0.8945    0.1130   10.9471 C   0  0  0  0  0  0  0  0  0  0  0  0
    0.4613    1.1508   11.7036 C   0  0  0  0  0  0  0  0  0  0  0  0
   -0.7493    1.0969   12.4116 C   0  0  0  0  0  0  0  0  0  0  0  0
    2.1460    0.1356   10.2057 C   0  0  0  0  0  0  0  0  0  0  0  0
    2.1367    0.2668    8.8322 C   0  0  0  0  0  0  0  0  0  0  0  0
    3.3396    0.2732    8.1333 C   0  0  0  0  0  0  0  0  0  0  0  0
    4.5272    0.1510    8.7961 C   0  0  0  0  0  0  0  0  0  0  0  0
    4.5443    0.0192   10.1688 C   0  0  0  0  0  0  0  0  0  0  0  0
    3.3342    0.0127   10.8778 C   0  0  0  0  0  0  0  0  0  0  0  0
    3.3593   -0.1100   12.3113 C   0  0  0  0  0  0  0  0  0  0  0  0
    3.7464    0.7597   13.2557 N   0  0  0  0  0  0  0  0  0  0  0  0
    3.5969    0.1953   14.4425 N   0  0  0  0  0  0  0  0  0  0  0  0
    3.1200   -1.0224   14.2647 N   0  0  0  0  0  0  0  0  0  0  0  0
    2.9697   -1.2254   12.9842 N   0  0  0  0  0  0  0  0  0  0  0  0
   -2.7193    1.8500   15.5408 C   0  0  0  0  0  0  0  0  0  0  0  0
   -1.8294    2.7211   15.8469 O   0  0  0  0  0  0  0  0  0  0  0  0
   -2.8853    0.8498   16.4677 O   0  0  0  0  0  1  0  0  0  0  0  0
   -4.5675    4.2734   14.7906 C   0  0  0  0  0  0  0  0  0  0  0  0
   -4.0414    5.4008   14.1502 O   0  0  0  0  0  0  0  0  0  0  0  0
   -3.8273    4.1495   16.1315 C   0  0  0  0  0  0  0  0  0  0  0  0
   -6.0047    4.5111   15.0853 C   0  0  0  0  0  0  0  0  0  0  0  0
  1  2  1  0
  2  3  1  0
  3  4  1  0
  4  5  2  0
  5  6  1  0
  6  7  2  0
  7  8  1  0
  8  9  1  0
  9 10  1  0
 10 11  2  0
 11 12  1  0
 12 13  2  0
 13 14  1  0
 14 15  2  0
 13 16  1  0
 16 17  2  0
 17 18  1  0
 18 19  2  0
 19 20  1  0
 20 21  2  0
 21 22  1  0
 22 23  2  0
 23 24  1  0
 24 25  2  0
 25 26  1  0
  7 27  1  0
 27 28  2  0
 27 29  1  0
  6 30  1  0
 30 31  1  0
 30 32  1  0
 30 33  1  0
  8  4  1  0
 15 10  1  0
 21 16  1  0
 26 22  1  0
M  CHG  1  29  -1
M  END
$$$$
