
     RDKit          3D

 33 36  0  0  0  0  0  0  0  0999 V2000
   -0.9299   -0.3421   17.2937 C   0  0  0  0  0  0  0  0  0  0  0  0
   -1.4862    0.4410   16.1180 C   0  0  0  0  0  0  0  0  0  0  0  0
   -2.9950    0.3143   16.0394 C   0  0  0  0  0  0  0  0  0  0  0  0
   -3.4616    1.1424   14.8622 C   0  0  0  0  0  0  0  0  0  0  0  0
   -4.1608    2.2898   14.9317 N   0  0  0  0  0  0  0  0  0  0  0  0
   -4.4099    2.7861   13.7187 C   0  0  0  0  0  0  0  0  0  0  0  0
   -3.8275    1.8916   12.8201 C   0  0  0  0  0  0  0  0  0  0  0  0
   -3.2679    0.9137   13.5499 N   0  0  0  0  0  0  0  0  0  0  0  0
   -2.5999   -0.2436   13.0353 C   0  0  0  0  0  0  0  0  0  0  0  0
   -1.3092   -0.0098   12.3757 C   0  0  0  0  0  0  0  0  0  0  0  0
   -0.4826   -1.0666   11.9699 C   0  0  0  0  0  0  0  0  0  0  0  0
    0.7204   -0.8977   11.3465 C   0  0  0  0  0  0  0  0  0  0  0  0
    1.1777    0.3904   11.0859 C   0  0  0  0  0  0  0  0  0  0  0  0
    0.3995    1.4328   11.4666 C   0  0  0  0  0  0  0  0  0  0  0  0
   -0.8348    1.2409   12.1063 C   0  0  0  0  0  0  0  0  0  0  0  0
    2.4635    0.5558   10.4257 C   0  0  0  0  0  0  0  0  0  0  0  0
    2.5558    1.2876    9.2596 C   0  0  0  0  0  0  0  0  0  0  0  0
    3.7887    1.4270    8.6304 C   0  0  0  0  0  0  0  0  0  0  0  0
    4.9060    0.8458    9.1580 C   0  0  0  0  0  0  0  0  0  0  0  0
    4.8214    0.1126   10.3231 C   0  0  0  0  0  0  0  0  0  0  0  0
    3.5807   -0.0303   10.9614 C   0  0  0  0  0  0  0  0  0  0  0  0
    3.5015   -0.7838   12.1847 C   0  0  0  0  0  0  0  0  0  0  0  0
    3.6714   -2.0936   12.4162 N   0  0  0  0  0  0  0  0  0  0  0  0
    3.4893   -2.3261   13.7055 N   0  0  0  0  0  0  0  0  0  0  0  0
    3.2052   -1.1807   14.2966 N   0  0  0  0  0  0  0  0  0  0  0  0
    3.2080   -0.2374   13.3945 N   0  0  0  0  0  0  0  0  0  0  0  0
   -3.8421    2.0929   11.3695 C   0  0  0  0  0  0  0  0  0  0  0  0
   -3.2097    3.0818   10.8530 O   0  0  0  0  0  0  0  0  0  0  0  0
   -4.4916    1.2911   10.4627 O   0  0  0  0  0  1  0  0  0  0  0  0
   -5.1620    4.0267   13.4599 C   0  0  0  0  0  0  0  0  0  0  0  0
   -4.8533    4.9920   14.4248 O   0  0  0  0  0  0  0  0  0  0  0  0
   -6.6602    3.7215   13.6135 C   0  0  0  0  0  0  0  0  0  0  0  0
   -4.9531    4.6093   12.1087 C   0  0  0  0  0  0  0  0  0  0  0  0
  1  2  1  0
  2  3  1  0
  3  4  1  0
  4  5  2  0
  5  6  1  0
  6  7  2  0
  7  8  1  0
  8  9  1  0
  9 10  1  0
 10 11  2  0
 11 12  1  0
 12 13  2  0
 13 14  1  0
 14 15  2  0
 13 16  1  0
 16 17  2  0
 17 18  1  0
 18 19  2  0
 19 20  1  0
 20 21  2  0
 21 22  1  0
 22 23  2  0
 23 24  1  0
 24 25  2  0
 25 26  1  0
  7 27  1  0
 27 28  2  0
 27 29  1  0
  6 30  1  0
 30 31  1  0
 30 32  1  0
 30 33  1  0
  8  4  1  0
 15 10  1  0
 21 16  1  0
 26 22  1  0
M  CHG  1  29  -1
M  END
$$$$
