
     RDKit          3D

 33 36  0  0  0  0  0  0  0  0999 V2000
   -1.4264    6.9232   12.3016 C   0  0  0  0  0  0  0  0  0  0  0  0
   -2.1251    5.6665   12.7892 C   0  0  0  0  0  0  0  0  0  0  0  0
   -1.8095    4.4822   11.8965 C   0  0  0  0  0  0  0  0  0  0  0  0
   -2.5877    3.2954   12.4210 C   0  0  0  0  0  0  0  0  0  0  0  0
   -3.7574    2.8415   11.9355 N   0  0  0  0  0  0  0  0  0  0  0  0
   -4.1838    1.7700   12.6064 C   0  0  0  0  0  0  0  0  0  0  0  0
   -3.2166    1.5291   13.5829 C   0  0  0  0  0  0  0  0  0  0  0  0
   -2.2724    2.4723   13.4384 N   0  0  0  0  0  0  0  0  0  0  0  0
   -1.1132    2.6363   14.2629 C   0  0  0  0  0  0  0  0  0  0  0  0
    0.1032    1.9439   13.8196 C   0  0  0  0  0  0  0  0  0  0  0  0
    0.2585    0.5577   13.9573 C   0  0  0  0  0  0  0  0  0  0  0  0
    1.3667   -0.1295   13.5526 C   0  0  0  0  0  0  0  0  0  0  0  0
    2.4208    0.5631   12.9647 C   0  0  0  0  0  0  0  0  0  0  0  0
    2.2991    1.9050   12.8177 C   0  0  0  0  0  0  0  0  0  0  0  0
    1.1523    2.5954   13.2394 C   0  0  0  0  0  0  0  0  0  0  0  0
    3.5976   -0.1810   12.5429 C   0  0  0  0  0  0  0  0  0  0  0  0
    4.2557   -1.0026   13.4350 C   0  0  0  0  0  0  0  0  0  0  0  0
    5.3881   -1.6982   13.0233 C   0  0  0  0  0  0  0  0  0  0  0  0
    5.8516   -1.5737   11.7450 C   0  0  0  0  0  0  0  0  0  0  0  0
    5.1992   -0.7542   10.8479 C   0  0  0  0  0  0  0  0  0  0  0  0
    4.0569   -0.0512   11.2581 C   0  0  0  0  0  0  0  0  0  0  0  0
    3.3719    0.7906   10.3134 C   0  0  0  0  0  0  0  0  0  0  0  0
    3.7615    1.9228    9.7094 N   0  0  0  0  0  0  0  0  0  0  0  0
    2.7842    2.3460    8.9252 N   0  0  0  0  0  0  0  0  0  0  0  0
    1.7779    1.4976    9.0231 N   0  0  0  0  0  0  0  0  0  0  0  0
    2.1139    0.5512    9.8568 N   0  0  0  0  0  0  0  0  0  0  0  0
   -3.2885    0.4046   14.5183 C   0  0  0  0  0  0  0  0  0  0  0  0
   -3.6458    0.6034   15.7338 O   0  0  0  0  0  0  0  0  0  0  0  0
   -3.0023   -0.9035   14.2115 O   0  0  0  0  0  1  0  0  0  0  0  0
   -5.4362    1.0476   12.3217 C   0  0  0  0  0  0  0  0  0  0  0  0
   -6.2593    1.8124   11.4877 O   0  0  0  0  0  0  0  0  0  0  0  0
   -6.2000    0.8705   13.6432 C   0  0  0  0  0  0  0  0  0  0  0  0
   -5.2535   -0.2985   11.7186 C   0  0  0  0  0  0  0  0  0  0  0  0
  1  2  1  0
  2  3  1  0
  3  4  1  0
  4  5  2  0
  5  6  1  0
  6  7  2  0
  7  8  1  0
  8  9  1  0
  9 10  1  0
 10 11  2  0
 11 12  1  0
 12 13  2  0
 13 14  1  0
 14 15  2  0
 13 16  1  0
 16 17  2  0
 17 18  1  0
 18 19  2  0
 19 20  1  0
 20 21  2  0
 21 22  1  0
 22 23  2  0
 23 24  1  0
 24 25  2  0
 25 26  1  0
  7 27  1  0
 27 28  2  0
 27 29  1  0
  6 30  1  0
 30 31  1  0
 30 32  1  0
 30 33  1  0
  8  4  1  0
 15 10  1  0
 21 16  1  0
 26 22  1  0
M  CHG  1  29  -1
M  END
$$$$
