
     RDKit          3D

 30 30  0  0  0  0  0  0  0  0999 V2000
   -4.0733    5.5662   11.9378 C   0  0  0  0  0  0  0  0  0  0  0  0
   -5.3338    6.3511   11.6156 C   0  0  0  0  0  0  0  0  0  0  0  0
   -5.8529    6.3098   10.3815 C   0  0  0  0  0  0  0  0  0  0  0  0
   -7.0631    7.0631   10.0521 C   0  0  0  0  0  0  0  0  0  0  0  0
   -7.3965    8.0973   11.1363 C   0  0  0  0  0  0  0  0  0  0  0  0
   -7.3246    7.4724   12.5041 C   0  0  0  0  0  0  0  0  0  0  0  0
   -5.9055    7.0781   12.7658 C   0  0  0  0  0  0  0  0  0  0  0  0
   -6.8643    7.9471    8.8192 C   0  0  0  0  0  0  0  0  0  0  0  0
   -8.2886    6.2029    9.8276 C   0  0  0  0  0  0  0  0  0  0  0  0
   -5.1747    5.5019    9.3942 C   0  0  0  0  0  0  0  0  0  0  0  0
   -4.1256    4.8515    9.1250 C   0  0  0  0  0  0  0  0  0  0  0  0
   -3.4538    3.8591    8.4002 C   0  0  0  0  0  0  0  0  0  0  0  0
   -2.7383    4.1944    7.2938 C   0  0  0  0  0  0  0  0  0  0  0  0
   -2.9493    3.7323    5.9935 C   0  0  0  0  0  0  0  0  0  0  0  0
   -2.1905    4.2236    5.0027 C   0  0  0  0  0  0  0  0  0  0  0  0
   -2.3697    3.7129    3.6313 C   0  0  0  0  0  0  0  0  0  0  0  0
   -1.7839    2.5910    3.2792 C   0  0  0  0  0  0  0  0  0  0  0  0
   -0.6374    2.3991    2.4009 C   0  0  0  0  0  0  0  0  0  0  0  0
   -0.6711    1.1293    1.6601 N   0  0  0  0  0  0  0  0  0  0  0  0
   -0.4218    0.0479    2.5984 C   0  0  0  0  0  0  0  0  0  0  0  0
    1.0749   -0.2991    2.5956 C   0  0  0  0  0  0  0  0  0  0  0  0
    1.2187   -1.7141    2.1538 C   0  0  0  0  0  0  0  0  0  0  0  0
    2.6088   -2.1840    1.8915 C   0  0  0  0  0  0  0  0  0  0  0  0
    2.7941   -3.6617    1.7961 C   0  0  0  0  0  0  0  0  0  0  0  0
    3.7820   -3.9864    0.7215 C   0  0  0  0  0  0  0  0  0  0  0  0
    4.9434   -4.2828    1.0487 O   0  0  0  0  0  0  0  0  0  0  0  0
    3.3878   -3.9507   -0.6013 O   0  0  0  0  0  0  0  0  0  0  0  0
    3.2857   -4.2508    3.0262 N   0  0  0  0  0  0  0  0  0  0  0  0
   -3.2180    4.5388    2.7499 C   0  0  0  0  0  0  0  0  0  0  0  0
   -3.4041    2.3982    8.7371 C   0  0  0  0  0  0  0  0  0  0  0  0
  1  2  1  0
  2  3  2  0
  3  4  1  0
  4  5  1  0
  5  6  1  0
  6  7  1  0
  4  8  1  0
  4  9  1  0
  3 10  1  0
 10 11  2  3
 11 12  1  0
 12 13  2  3
 13 14  1  0
 14 15  2  3
 15 16  1  0
 16 17  2  3
 17 18  1  0
 18 19  1  0
 19 20  1  0
 20 21  1  0
 21 22  1  0
 22 23  1  0
 23 24  1  0
 24 25  1  0
 25 26  2  0
 25 27  1  0
 24 28  1  0
 16 29  1  0
 12 30  1  0
  7  2  1  0
M  END
$$$$
