
     RDKit          3D

 30 30  0  0  0  0  0  0  0  0999 V2000
   -1.3923    4.5185    2.7288 C   0  0  0  0  0  0  0  0  0  0  0  0
   -2.8928    4.6284    2.5155 C   0  0  0  0  0  0  0  0  0  0  0  0
   -3.7362    4.3177    3.5086 C   0  0  0  0  0  0  0  0  0  0  0  0
   -5.1838    4.4129    3.3195 C   0  0  0  0  0  0  0  0  0  0  0  0
   -5.5509    4.5535    1.8357 C   0  0  0  0  0  0  0  0  0  0  0  0
   -4.6992    5.6057    1.1769 C   0  0  0  0  0  0  0  0  0  0  0  0
   -3.2801    5.1324    1.1834 C   0  0  0  0  0  0  0  0  0  0  0  0
   -5.8936    3.1124    3.7012 C   0  0  0  0  0  0  0  0  0  0  0  0
   -5.8359    5.5502    4.0768 C   0  0  0  0  0  0  0  0  0  0  0  0
   -3.1659    3.8844    4.7634 C   0  0  0  0  0  0  0  0  0  0  0  0
   -2.4491    4.2156    5.7496 C   0  0  0  0  0  0  0  0  0  0  0  0
   -1.8078    3.9041    6.9551 C   0  0  0  0  0  0  0  0  0  0  0  0
   -0.5109    3.4961    6.9477 C   0  0  0  0  0  0  0  0  0  0  0  0
   -0.0196    2.2729    7.4075 C   0  0  0  0  0  0  0  0  0  0  0  0
    1.2473    1.9379    7.1224 C   0  0  0  0  0  0  0  0  0  0  0  0
    1.7981    0.6743    7.6457 C   0  0  0  0  0  0  0  0  0  0  0  0
    1.5447    0.3254    8.8866 C   0  0  0  0  0  0  0  0  0  0  0  0
    0.8903   -0.8801    9.3779 C   0  0  0  0  0  0  0  0  0  0  0  0
    0.6930   -0.8891   10.8351 N   0  0  0  0  0  0  0  0  0  0  0  0
   -0.7257   -1.0573   11.1015 C   0  0  0  0  0  0  0  0  0  0  0  0
   -1.3439    0.3011   11.4666 C   0  0  0  0  0  0  0  0  0  0  0  0
   -1.3995    0.3974   12.9517 C   0  0  0  0  0  0  0  0  0  0  0  0
   -1.9162    1.6796   13.5094 C   0  0  0  0  0  0  0  0  0  0  0  0
   -3.2619    1.6199   14.1519 C   0  0  0  0  0  0  0  0  0  0  0  0
   -3.1175    1.4368   15.6289 C   0  0  0  0  0  0  0  0  0  0  0  0
   -3.4276    2.3771   16.3796 O   0  0  0  0  0  0  0  0  0  0  0  0
   -2.6465    0.2376   16.1252 O   0  0  0  0  0  0  0  0  0  0  0  0
   -4.0436    2.8224   13.9406 N   0  0  0  0  0  0  0  0  0  0  0  0
    2.6129   -0.1074    6.6952 C   0  0  0  0  0  0  0  0  0  0  0  0
   -2.4068    4.0023    8.3268 C   0  0  0  0  0  0  0  0  0  0  0  0
  1  2  1  0
  2  3  2  0
  3  4  1  0
  4  5  1  0
  5  6  1  0
  6  7  1  0
  4  8  1  0
  4  9  1  0
  3 10  1  0
 10 11  2  3
 11 12  1  0
 12 13  2  3
 13 14  1  0
 14 15  2  3
 15 16  1  0
 16 17  2  3
 17 18  1  0
 18 19  1  0
 19 20  1  0
 20 21  1  0
 21 22  1  0
 22 23  1  0
 23 24  1  0
 24 25  1  0
 25 26  2  0
 25 27  1  0
 24 28  1  0
 16 29  1  0
 12 30  1  0
  7  2  1  0
M  END
$$$$
