
     RDKit          3D

 30 30  0  0  0  0  0  0  0  0999 V2000
   -1.6690    7.8287    3.9190 C   0  0  0  0  0  0  0  0  0  0  0  0
   -0.5708    6.8490    4.2974 C   0  0  0  0  0  0  0  0  0  0  0  0
   -0.8317    5.8415    5.1405 C   0  0  0  0  0  0  0  0  0  0  0  0
    0.2146    4.8918    5.5198 C   0  0  0  0  0  0  0  0  0  0  0  0
    1.6085    5.4022    5.1287 C   0  0  0  0  0  0  0  0  0  0  0  0
    1.6110    5.8991    3.7076 C   0  0  0  0  0  0  0  0  0  0  0  0
    0.7209    7.0990    3.6285 C   0  0  0  0  0  0  0  0  0  0  0  0
    0.3386    4.7596    7.0390 C   0  0  0  0  0  0  0  0  0  0  0  0
    0.0381    3.5065    4.9349 C   0  0  0  0  0  0  0  0  0  0  0  0
   -2.1752    5.7314    5.6604 C   0  0  0  0  0  0  0  0  0  0  0  0
   -2.9254    5.9376    6.6558 C   0  0  0  0  0  0  0  0  0  0  0  0
   -4.1989    6.0028    7.2350 C   0  0  0  0  0  0  0  0  0  0  0  0
   -4.7780    4.8760    7.7284 C   0  0  0  0  0  0  0  0  0  0  0  0
   -4.4071    4.1862    8.8840 C   0  0  0  0  0  0  0  0  0  0  0  0
   -5.2342    3.2487    9.3696 C   0  0  0  0  0  0  0  0  0  0  0  0
   -4.6780    2.1166   10.1330 C   0  0  0  0  0  0  0  0  0  0  0  0
   -3.3748    1.9723   10.2148 C   0  0  0  0  0  0  0  0  0  0  0  0
   -2.6148    0.9368   10.9026 C   0  0  0  0  0  0  0  0  0  0  0  0
   -1.1682    1.1981   10.9419 N   0  0  0  0  0  0  0  0  0  0  0  0
   -0.4787    0.0171   10.4502 C   0  0  0  0  0  0  0  0  0  0  0  0
   -0.1069    0.2178    8.9730 C   0  0  0  0  0  0  0  0  0  0  0  0
    0.5778   -1.0169    8.4988 C   0  0  0  0  0  0  0  0  0  0  0  0
    1.0608   -1.0016    7.0886 C   0  0  0  0  0  0  0  0  0  0  0  0
    2.4096   -1.5945    6.8513 C   0  0  0  0  0  0  0  0  0  0  0  0
    2.4537   -2.9946    7.3746 C   0  0  0  0  0  0  0  0  0  0  0  0
    2.6512   -3.1717    8.5885 O   0  0  0  0  0  0  0  0  0  0  0  0
    2.2758   -4.0535    6.5067 O   0  0  0  0  0  0  0  0  0  0  0  0
    2.7653   -1.6475    5.4468 N   0  0  0  0  0  0  0  0  0  0  0  0
   -5.6707    1.2181   10.7541 C   0  0  0  0  0  0  0  0  0  0  0  0
   -5.0285    7.2401    7.4109 C   0  0  0  0  0  0  0  0  0  0  0  0
  1  2  1  0
  2  3  2  0
  3  4  1  0
  4  5  1  0
  5  6  1  0
  6  7  1  0
  4  8  1  0
  4  9  1  0
  3 10  1  0
 10 11  2  3
 11 12  1  0
 12 13  2  3
 13 14  1  0
 14 15  2  3
 15 16  1  0
 16 17  2  3
 17 18  1  0
 18 19  1  0
 19 20  1  0
 20 21  1  0
 21 22  1  0
 22 23  1  0
 23 24  1  0
 24 25  1  0
 25 26  2  0
 25 27  1  0
 24 28  1  0
 16 29  1  0
 12 30  1  0
  7  2  1  0
M  END
$$$$
