
     RDKit          3D

 30 30  0  0  0  0  0  0  0  0999 V2000
   -3.7025    4.2859   14.1669 C   0  0  0  0  0  0  0  0  0  0  0  0
   -3.9033    2.8186   13.8264 C   0  0  0  0  0  0  0  0  0  0  0  0
   -3.9728    2.4303   12.5464 C   0  0  0  0  0  0  0  0  0  0  0  0
   -4.1707    1.0227   12.2002 C   0  0  0  0  0  0  0  0  0  0  0  0
   -4.6134    0.1991   13.4176 C   0  0  0  0  0  0  0  0  0  0  0  0
   -3.7402    0.5002   14.6064 C   0  0  0  0  0  0  0  0  0  0  0  0
   -3.9600    1.9265   15.0008 C   0  0  0  0  0  0  0  0  0  0  0  0
   -5.3486    0.8332   11.2422 C   0  0  0  0  0  0  0  0  0  0  0  0
   -2.9541    0.3545   11.5955 C   0  0  0  0  0  0  0  0  0  0  0  0
   -3.8498    3.4479   11.5281 C   0  0  0  0  0  0  0  0  0  0  0  0
   -3.4336    3.7097   10.3644 C   0  0  0  0  0  0  0  0  0  0  0  0
   -3.1427    4.6272    9.3469 C   0  0  0  0  0  0  0  0  0  0  0  0
   -2.6486    4.1882    8.1588 C   0  0  0  0  0  0  0  0  0  0  0  0
   -1.3130    3.9089    7.8641 C   0  0  0  0  0  0  0  0  0  0  0  0
   -0.9265    3.8856    6.5800 C   0  0  0  0  0  0  0  0  0  0  0  0
   -1.8262    3.3121    5.5626 C   0  0  0  0  0  0  0  0  0  0  0  0
   -1.5073    3.4084    4.2918 C   0  0  0  0  0  0  0  0  0  0  0  0
   -0.7395    2.4797    3.4729 C   0  0  0  0  0  0  0  0  0  0  0  0
    0.5923    2.9834    3.1053 N   0  0  0  0  0  0  0  0  0  0  0  0
    1.5820    2.2763    3.9006 C   0  0  0  0  0  0  0  0  0  0  0  0
    2.1249    1.0819    3.1009 C   0  0  0  0  0  0  0  0  0  0  0  0
    2.4432   -0.0097    4.0628 C   0  0  0  0  0  0  0  0  0  0  0  0
    3.0567   -1.2388    3.4842 C   0  0  0  0  0  0  0  0  0  0  0  0
    3.3341   -2.3472    4.4442 C   0  0  0  0  0  0  0  0  0  0  0  0
    3.4946   -3.6374    3.7056 C   0  0  0  0  0  0  0  0  0  0  0  0
    3.4652   -4.7003    4.3484 O   0  0  0  0  0  0  0  0  0  0  0  0
    3.6708   -3.6226    2.3363 O   0  0  0  0  0  0  0  0  0  0  0  0
    4.5438   -2.1382    5.2154 N   0  0  0  0  0  0  0  0  0  0  0  0
   -3.0448    2.6623    6.0835 C   0  0  0  0  0  0  0  0  0  0  0  0
   -3.3522    6.1113    9.4075 C   0  0  0  0  0  0  0  0  0  0  0  0
  1  2  1  0
  2  3  2  0
  3  4  1  0
  4  5  1  0
  5  6  1  0
  6  7  1  0
  4  8  1  0
  4  9  1  0
  3 10  1  0
 10 11  2  3
 11 12  1  0
 12 13  2  3
 13 14  1  0
 14 15  2  3
 15 16  1  0
 16 17  2  3
 17 18  1  0
 18 19  1  0
 19 20  1  0
 20 21  1  0
 21 22  1  0
 22 23  1  0
 23 24  1  0
 24 25  1  0
 25 26  2  0
 25 27  1  0
 24 28  1  0
 16 29  1  0
 12 30  1  0
  7  2  1  0
M  END
$$$$
