
     RDKit          3D

 30 30  0  0  0  0  0  0  0  0999 V2000
   -2.9609    3.9151    1.1461 C   0  0  0  0  0  0  0  0  0  0  0  0
   -4.3689    3.4974    0.7559 C   0  0  0  0  0  0  0  0  0  0  0  0
   -5.3423    3.4784    1.6759 C   0  0  0  0  0  0  0  0  0  0  0  0
   -6.7024    3.0742    1.3193 C   0  0  0  0  0  0  0  0  0  0  0  0
   -6.7457    2.3887   -0.0535 C   0  0  0  0  0  0  0  0  0  0  0  0
   -5.9759    3.1895   -1.0697 C   0  0  0  0  0  0  0  0  0  0  0  0
   -4.5324    3.1827   -0.6767 C   0  0  0  0  0  0  0  0  0  0  0  0
   -7.2284    1.9728    2.2419 C   0  0  0  0  0  0  0  0  0  0  0  0
   -7.7059    4.2080    1.3125 C   0  0  0  0  0  0  0  0  0  0  0  0
   -4.9992    3.8655    3.0249 C   0  0  0  0  0  0  0  0  0  0  0  0
   -4.3064    3.5845    4.0433 C   0  0  0  0  0  0  0  0  0  0  0  0
   -3.9318    3.8226    5.3716 C   0  0  0  0  0  0  0  0  0  0  0  0
   -2.9243    3.1018    5.9318 C   0  0  0  0  0  0  0  0  0  0  0  0
   -1.6528    3.5695    6.2687 C   0  0  0  0  0  0  0  0  0  0  0  0
   -0.7390    2.6933    6.7115 C   0  0  0  0  0  0  0  0  0  0  0  0
    0.0510    3.0154    7.9139 C   0  0  0  0  0  0  0  0  0  0  0  0
    0.1700    2.1187    8.8666 C   0  0  0  0  0  0  0  0  0  0  0  0
    0.9780    2.1786   10.0776 C   0  0  0  0  0  0  0  0  0  0  0  0
    1.0707    0.8933   10.7859 N   0  0  0  0  0  0  0  0  0  0  0  0
    2.3803    0.3213   10.5218 C   0  0  0  0  0  0  0  0  0  0  0  0
    2.3031   -1.2094   10.6302 C   0  0  0  0  0  0  0  0  0  0  0  0
    3.2428   -1.7897    9.6310 C   0  0  0  0  0  0  0  0  0  0  0  0
    3.1302   -3.2574    9.3962 C   0  0  0  0  0  0  0  0  0  0  0  0
    4.1465   -3.8547    8.4810 C   0  0  0  0  0  0  0  0  0  0  0  0
    5.4687   -3.9471    9.1733 C   0  0  0  0  0  0  0  0  0  0  0  0
    5.7326   -4.9744    9.8205 O   0  0  0  0  0  0  0  0  0  0  0  0
    6.3624   -2.8987    9.0807 O   0  0  0  0  0  0  0  0  0  0  0  0
    3.7958   -5.1907    8.0408 N   0  0  0  0  0  0  0  0  0  0  0  0
    0.6540    4.3624    7.9379 C   0  0  0  0  0  0  0  0  0  0  0  0
   -4.5229    4.8544    6.2861 C   0  0  0  0  0  0  0  0  0  0  0  0
  1  2  1  0
  2  3  2  0
  3  4  1  0
  4  5  1  0
  5  6  1  0
  6  7  1  0
  4  8  1  0
  4  9  1  0
  3 10  1  0
 10 11  2  3
 11 12  1  0
 12 13  2  3
 13 14  1  0
 14 15  2  3
 15 16  1  0
 16 17  2  3
 17 18  1  0
 18 19  1  0
 19 20  1  0
 20 21  1  0
 21 22  1  0
 22 23  1  0
 23 24  1  0
 24 25  1  0
 25 26  2  0
 25 27  1  0
 24 28  1  0
 16 29  1  0
 12 30  1  0
  7  2  1  0
M  END
$$$$
