
     RDKit          3D

 30 30  0  0  0  0  0  0  0  0999 V2000
   -2.3486    7.9362    2.4711 C   0  0  0  0  0  0  0  0  0  0  0  0
   -3.0090    8.2243    3.8089 C   0  0  0  0  0  0  0  0  0  0  0  0
   -3.1197    7.2538    4.7254 C   0  0  0  0  0  0  0  0  0  0  0  0
   -3.7569    7.5119    6.0168 C   0  0  0  0  0  0  0  0  0  0  0  0
   -4.5316    8.8371    6.0088 C   0  0  0  0  0  0  0  0  0  0  0  0
   -3.6895    9.9392    5.4233 C   0  0  0  0  0  0  0  0  0  0  0  0
   -3.4415    9.6248    3.9819 C   0  0  0  0  0  0  0  0  0  0  0  0
   -4.8629    6.4984    6.3176 C   0  0  0  0  0  0  0  0  0  0  0  0
   -2.7992    7.5322    7.1893 C   0  0  0  0  0  0  0  0  0  0  0  0
   -2.5931    5.9506    4.3907 C   0  0  0  0  0  0  0  0  0  0  0  0
   -1.7382    5.0678    4.6835 C   0  0  0  0  0  0  0  0  0  0  0  0
   -1.0754    3.8662    4.4031 C   0  0  0  0  0  0  0  0  0  0  0  0
   -1.5657    2.6930    4.8845 C   0  0  0  0  0  0  0  0  0  0  0  0
   -1.3207    2.1417    6.1434 C   0  0  0  0  0  0  0  0  0  0  0  0
   -2.1217    1.1610    6.5857 C   0  0  0  0  0  0  0  0  0  0  0  0
   -1.6329    0.2411    7.6290 C   0  0  0  0  0  0  0  0  0  0  0  0
   -2.2476    0.1969    8.7891 C   0  0  0  0  0  0  0  0  0  0  0  0
   -2.1422    1.1202    9.9113 C   0  0  0  0  0  0  0  0  0  0  0  0
   -1.7743    0.4673   11.1765 N   0  0  0  0  0  0  0  0  0  0  0  0
   -1.2463   -0.8518   10.8716 C   0  0  0  0  0  0  0  0  0  0  0  0
    0.2871   -0.8251   10.9653 C   0  0  0  0  0  0  0  0  0  0  0  0
    0.7829   -2.2195   10.7987 C   0  0  0  0  0  0  0  0  0  0  0  0
    2.2593   -2.4075   10.8815 C   0  0  0  0  0  0  0  0  0  0  0  0
    2.7510   -3.8086   10.7316 C   0  0  0  0  0  0  0  0  0  0  0  0
    2.4939   -4.2965    9.3417 C   0  0  0  0  0  0  0  0  0  0  0  0
    1.4249   -4.8833    9.1038 O   0  0  0  0  0  0  0  0  0  0  0  0
    3.4408   -4.0874    8.3589 O   0  0  0  0  0  0  0  0  0  0  0  0
    4.1738   -3.9383   10.9780 N   0  0  0  0  0  0  0  0  0  0  0  0
   -0.4566   -0.5713    7.2618 C   0  0  0  0  0  0  0  0  0  0  0  0
    0.1590    3.7115    3.5651 C   0  0  0  0  0  0  0  0  0  0  0  0
  1  2  1  0
  2  3  2  0
  3  4  1  0
  4  5  1  0
  5  6  1  0
  6  7  1  0
  4  8  1  0
  4  9  1  0
  3 10  1  0
 10 11  2  3
 11 12  1  0
 12 13  2  3
 13 14  1  0
 14 15  2  3
 15 16  1  0
 16 17  2  3
 17 18  1  0
 18 19  1  0
 19 20  1  0
 20 21  1  0
 21 22  1  0
 22 23  1  0
 23 24  1  0
 24 25  1  0
 25 26  2  0
 25 27  1  0
 24 28  1  0
 16 29  1  0
 12 30  1  0
  7  2  1  0
M  END
$$$$
