
     RDKit          3D

 30 30  0  0  0  0  0  0  0  0999 V2000
   -8.2521    4.9980    6.0983 C   0  0  0  0  0  0  0  0  0  0  0  0
   -8.8193    6.1996    6.8354 C   0  0  0  0  0  0  0  0  0  0  0  0
   -8.1087    6.7877    7.8066 C   0  0  0  0  0  0  0  0  0  0  0  0
   -8.6412    7.9424    8.5302 C   0  0  0  0  0  0  0  0  0  0  0  0
  -10.1446    8.1221    8.2779 C   0  0  0  0  0  0  0  0  0  0  0  0
  -10.4492    8.0306    6.8064 C   0  0  0  0  0  0  0  0  0  0  0  0
  -10.1415    6.6399    6.3491 C   0  0  0  0  0  0  0  0  0  0  0  0
   -8.5952    7.7343   10.0453 C   0  0  0  0  0  0  0  0  0  0  0  0
   -7.9491    9.2502    8.2089 C   0  0  0  0  0  0  0  0  0  0  0  0
   -6.8074    6.2397    8.1128 C   0  0  0  0  0  0  0  0  0  0  0  0
   -5.7822    5.6699    7.6435 C   0  0  0  0  0  0  0  0  0  0  0  0
   -4.6330    4.8871    7.8115 C   0  0  0  0  0  0  0  0  0  0  0  0
   -4.3466    3.9027    6.9185 C   0  0  0  0  0  0  0  0  0  0  0  0
   -3.1041    3.6393    6.3390 C   0  0  0  0  0  0  0  0  0  0  0  0
   -3.0595    2.9277    5.2030 C   0  0  0  0  0  0  0  0  0  0  0  0
   -1.7523    2.5601    4.6289 C   0  0  0  0  0  0  0  0  0  0  0  0
   -0.9876    1.7013    5.2642 C   0  0  0  0  0  0  0  0  0  0  0  0
    0.2397    1.0630    4.8068 C   0  0  0  0  0  0  0  0  0  0  0  0
    0.7688    0.0650    5.7485 N   0  0  0  0  0  0  0  0  0  0  0  0
    1.2013    0.7577    6.9506 C   0  0  0  0  0  0  0  0  0  0  0  0
    2.7106    0.5488    7.1484 C   0  0  0  0  0  0  0  0  0  0  0  0
    2.8981   -0.5764    8.1059 C   0  0  0  0  0  0  0  0  0  0  0  0
    4.0160   -1.5159    7.8068 C   0  0  0  0  0  0  0  0  0  0  0  0
    4.2294   -2.6158    8.7927 C   0  0  0  0  0  0  0  0  0  0  0  0
    4.3223   -3.9292    8.0838 C   0  0  0  0  0  0  0  0  0  0  0  0
    3.2721   -4.4943    7.7351 O   0  0  0  0  0  0  0  0  0  0  0  0
    5.5618   -4.4832    7.8330 O   0  0  0  0  0  0  0  0  0  0  0  0
    5.4458   -2.4554    9.5649 N   0  0  0  0  0  0  0  0  0  0  0  0
   -1.4109    3.2148    3.3509 C   0  0  0  0  0  0  0  0  0  0  0  0
   -3.6128    5.0358    8.9011 C   0  0  0  0  0  0  0  0  0  0  0  0
  1  2  1  0
  2  3  2  0
  3  4  1  0
  4  5  1  0
  5  6  1  0
  6  7  1  0
  4  8  1  0
  4  9  1  0
  3 10  1  0
 10 11  2  3
 11 12  1  0
 12 13  2  3
 13 14  1  0
 14 15  2  3
 15 16  1  0
 16 17  2  3
 17 18  1  0
 18 19  1  0
 19 20  1  0
 20 21  1  0
 21 22  1  0
 22 23  1  0
 23 24  1  0
 24 25  1  0
 25 26  2  0
 25 27  1  0
 24 28  1  0
 16 29  1  0
 12 30  1  0
  7  2  1  0
M  END
$$$$
