
     RDKit          3D

 30 30  0  0  0  0  0  0  0  0999 V2000
   -4.6249    2.9959    8.4295 C   0  0  0  0  0  0  0  0  0  0  0  0
   -5.1796    4.3844    8.1588 C   0  0  0  0  0  0  0  0  0  0  0  0
   -4.5525    5.2023    7.3033 C   0  0  0  0  0  0  0  0  0  0  0  0
   -5.0695    6.5443    7.0344 C   0  0  0  0  0  0  0  0  0  0  0  0
   -6.1280    6.9584    8.0661 C   0  0  0  0  0  0  0  0  0  0  0  0
   -7.1364    5.8576    8.2611 C   0  0  0  0  0  0  0  0  0  0  0  0
   -6.4375    4.6836    8.8704 C   0  0  0  0  0  0  0  0  0  0  0  0
   -3.9963    7.6169    7.2313 C   0  0  0  0  0  0  0  0  0  0  0  0
   -5.6648    6.7156    5.6528 C   0  0  0  0  0  0  0  0  0  0  0  0
   -3.3527    4.7137    6.6638 C   0  0  0  0  0  0  0  0  0  0  0  0
   -2.8085    3.7308    6.0861 C   0  0  0  0  0  0  0  0  0  0  0  0
   -1.7013    3.1332    5.4707 C   0  0  0  0  0  0  0  0  0  0  0  0
   -1.1190    2.0418    6.0347 C   0  0  0  0  0  0  0  0  0  0  0  0
    0.1453    1.9828    6.6238 C   0  0  0  0  0  0  0  0  0  0  0  0
    0.5845    0.8057    7.0931 C   0  0  0  0  0  0  0  0  0  0  0  0
    1.9805    0.6836    7.5514 C   0  0  0  0  0  0  0  0  0  0  0  0
    2.3554   -0.3981    8.1957 C   0  0  0  0  0  0  0  0  0  0  0  0
    3.5495   -0.6089    9.0035 C   0  0  0  0  0  0  0  0  0  0  0  0
    4.2646   -1.8528    8.6811 N   0  0  0  0  0  0  0  0  0  0  0  0
    4.4493   -2.6038    9.9115 C   0  0  0  0  0  0  0  0  0  0  0  0
    3.1985   -3.4525   10.1873 C   0  0  0  0  0  0  0  0  0  0  0  0
    3.2783   -4.6776    9.3441 C   0  0  0  0  0  0  0  0  0  0  0  0
    3.8392   -5.8929   10.0001 C   0  0  0  0  0  0  0  0  0  0  0  0
    3.9757   -7.1009    9.1346 C   0  0  0  0  0  0  0  0  0  0  0  0
    4.2760   -8.3017    9.9736 C   0  0  0  0  0  0  0  0  0  0  0  0
    4.2545   -9.4233    9.4392 O   0  0  0  0  0  0  0  0  0  0  0  0
    4.5686   -8.1423   11.3135 O   0  0  0  0  0  0  0  0  0  0  0  0
    2.7744   -7.3932    8.3774 N   0  0  0  0  0  0  0  0  0  0  0  0
    2.8572    1.8281    7.2352 C   0  0  0  0  0  0  0  0  0  0  0  0
   -1.0692    3.5609    4.1794 C   0  0  0  0  0  0  0  0  0  0  0  0
  1  2  1  0
  2  3  2  0
  3  4  1  0
  4  5  1  0
  5  6  1  0
  6  7  1  0
  4  8  1  0
  4  9  1  0
  3 10  1  0
 10 11  2  3
 11 12  1  0
 12 13  2  3
 13 14  1  0
 14 15  2  3
 15 16  1  0
 16 17  2  3
 17 18  1  0
 18 19  1  0
 19 20  1  0
 20 21  1  0
 21 22  1  0
 22 23  1  0
 23 24  1  0
 24 25  1  0
 25 26  2  0
 25 27  1  0
 24 28  1  0
 16 29  1  0
 12 30  1  0
  7  2  1  0
M  END
$$$$
