
     RDKit          3D

 30 30  0  0  0  0  0  0  0  0999 V2000
   -4.9120    6.6309    4.9192 C   0  0  0  0  0  0  0  0  0  0  0  0
   -4.0637    5.6995    4.0696 C   0  0  0  0  0  0  0  0  0  0  0  0
   -3.6684    4.5174    4.5602 C   0  0  0  0  0  0  0  0  0  0  0  0
   -2.8472    3.6103    3.7582 C   0  0  0  0  0  0  0  0  0  0  0  0
   -2.2602    4.3182    2.5291 C   0  0  0  0  0  0  0  0  0  0  0  0
   -3.3261    5.1008    1.8095 C   0  0  0  0  0  0  0  0  0  0  0  0
   -3.7875    6.2028    2.7099 C   0  0  0  0  0  0  0  0  0  0  0  0
   -1.5861    3.1736    4.5066 C   0  0  0  0  0  0  0  0  0  0  0  0
   -3.5733    2.3686    3.2856 C   0  0  0  0  0  0  0  0  0  0  0  0
   -4.0777    4.1768    5.9032 C   0  0  0  0  0  0  0  0  0  0  0  0
   -3.7999    4.2755    7.1317 C   0  0  0  0  0  0  0  0  0  0  0  0
   -4.0072    3.9045    8.4663 C   0  0  0  0  0  0  0  0  0  0  0  0
   -2.9500    3.5464    9.2426 C   0  0  0  0  0  0  0  0  0  0  0  0
   -2.8652    2.4242   10.0686 C   0  0  0  0  0  0  0  0  0  0  0  0
   -1.7293    1.7111   10.0743 C   0  0  0  0  0  0  0  0  0  0  0  0
   -1.1967    1.2066   11.3531 C   0  0  0  0  0  0  0  0  0  0  0  0
    0.0420    0.7726   11.4094 C   0  0  0  0  0  0  0  0  0  0  0  0
    0.5375   -0.5889   11.2557 C   0  0  0  0  0  0  0  0  0  0  0  0
    1.9876   -0.7134   11.4661 N   0  0  0  0  0  0  0  0  0  0  0  0
    2.6409   -0.6759   10.1684 C   0  0  0  0  0  0  0  0  0  0  0  0
    2.3021   -1.9542    9.3863 C   0  0  0  0  0  0  0  0  0  0  0  0
    2.9830   -1.8789    8.0638 C   0  0  0  0  0  0  0  0  0  0  0  0
    2.2108   -2.3898    6.8957 C   0  0  0  0  0  0  0  0  0  0  0  0
    2.9414   -3.3158    5.9814 C   0  0  0  0  0  0  0  0  0  0  0  0
    2.1022   -3.6199    4.7816 C   0  0  0  0  0  0  0  0  0  0  0  0
    1.0686   -4.2928    4.9318 O   0  0  0  0  0  0  0  0  0  0  0  0
    2.4889   -3.1513    3.5418 O   0  0  0  0  0  0  0  0  0  0  0  0
    4.1949   -2.7665    5.5031 N   0  0  0  0  0  0  0  0  0  0  0  0
   -2.1372    1.2348   12.4903 C   0  0  0  0  0  0  0  0  0  0  0  0
   -5.3238    3.8845    9.1847 C   0  0  0  0  0  0  0  0  0  0  0  0
  1  2  1  0
  2  3  2  0
  3  4  1  0
  4  5  1  0
  5  6  1  0
  6  7  1  0
  4  8  1  0
  4  9  1  0
  3 10  1  0
 10 11  2  3
 11 12  1  0
 12 13  2  3
 13 14  1  0
 14 15  2  3
 15 16  1  0
 16 17  2  3
 17 18  1  0
 18 19  1  0
 19 20  1  0
 20 21  1  0
 21 22  1  0
 22 23  1  0
 23 24  1  0
 24 25  1  0
 25 26  2  0
 25 27  1  0
 24 28  1  0
 16 29  1  0
 12 30  1  0
  7  2  1  0
M  END
$$$$
