
     RDKit          3D

 30 30  0  0  0  0  0  0  0  0999 V2000
   -7.1386    5.0966    6.3431 C   0  0  0  0  0  0  0  0  0  0  0  0
   -6.8020    5.3254    4.8791 C   0  0  0  0  0  0  0  0  0  0  0  0
   -5.5272    5.2870    4.4699 C   0  0  0  0  0  0  0  0  0  0  0  0
   -5.1842    5.5098    3.0652 C   0  0  0  0  0  0  0  0  0  0  0  0
   -6.3647    6.1027    2.2833 C   0  0  0  0  0  0  0  0  0  0  0  0
   -7.6285    5.3368    2.5711 C   0  0  0  0  0  0  0  0  0  0  0  0
   -7.9784    5.5332    4.0123 C   0  0  0  0  0  0  0  0  0  0  0  0
   -4.1189    6.5963    2.9056 C   0  0  0  0  0  0  0  0  0  0  0  0
   -4.7111    4.2696    2.3368 C   0  0  0  0  0  0  0  0  0  0  0  0
   -4.5108    5.0230    5.4622 C   0  0  0  0  0  0  0  0  0  0  0  0
   -3.3367    5.2899    5.8449 C   0  0  0  0  0  0  0  0  0  0  0  0
   -2.2446    5.0617    6.6915 C   0  0  0  0  0  0  0  0  0  0  0  0
   -1.5340    3.9074    6.5855 C   0  0  0  0  0  0  0  0  0  0  0  0
   -1.0245    3.1432    7.6368 C   0  0  0  0  0  0  0  0  0  0  0  0
    0.0455    2.3667    7.4111 C   0  0  0  0  0  0  0  0  0  0  0  0
   -0.1079    0.9004    7.4213 C   0  0  0  0  0  0  0  0  0  0  0  0
    0.9119    0.1430    7.0864 C   0  0  0  0  0  0  0  0  0  0  0  0
    0.9499   -1.3010    6.8963 C   0  0  0  0  0  0  0  0  0  0  0  0
    2.2347   -1.7912    6.3753 N   0  0  0  0  0  0  0  0  0  0  0  0
    3.2690   -1.4798    7.3476 C   0  0  0  0  0  0  0  0  0  0  0  0
    3.9080   -2.7828    7.8521 C   0  0  0  0  0  0  0  0  0  0  0  0
    3.3905   -3.0486    9.2231 C   0  0  0  0  0  0  0  0  0  0  0  0
    3.6413   -4.4131    9.7683 C   0  0  0  0  0  0  0  0  0  0  0  0
    3.2126   -4.6443   11.1790 C   0  0  0  0  0  0  0  0  0  0  0  0
    3.7394   -5.9559   11.6668 C   0  0  0  0  0  0  0  0  0  0  0  0
    3.6815   -6.9403   10.9107 O   0  0  0  0  0  0  0  0  0  0  0  0
    4.2748   -6.0469   12.9362 O   0  0  0  0  0  0  0  0  0  0  0  0
    3.6893   -3.6222   12.0900 N   0  0  0  0  0  0  0  0  0  0  0  0
   -1.4392    0.4020    7.8184 C   0  0  0  0  0  0  0  0  0  0  0  0
   -1.7219    6.0042    7.7348 C   0  0  0  0  0  0  0  0  0  0  0  0
  1  2  1  0
  2  3  2  0
  3  4  1  0
  4  5  1  0
  5  6  1  0
  6  7  1  0
  4  8  1  0
  4  9  1  0
  3 10  1  0
 10 11  2  3
 11 12  1  0
 12 13  2  3
 13 14  1  0
 14 15  2  3
 15 16  1  0
 16 17  2  3
 17 18  1  0
 18 19  1  0
 19 20  1  0
 20 21  1  0
 21 22  1  0
 22 23  1  0
 23 24  1  0
 24 25  1  0
 25 26  2  0
 25 27  1  0
 24 28  1  0
 16 29  1  0
 12 30  1  0
  7  2  1  0
M  END
$$$$
