
     RDKit          3D

 30 30  0  0  0  0  0  0  0  0999 V2000
   -5.4629    7.0081    6.5899 C   0  0  0  0  0  0  0  0  0  0  0  0
   -5.2583    6.5915    5.1430 C   0  0  0  0  0  0  0  0  0  0  0  0
   -4.7790    5.3739    4.8568 C   0  0  0  0  0  0  0  0  0  0  0  0
   -4.5710    4.9576    3.4697 C   0  0  0  0  0  0  0  0  0  0  0  0
   -4.6322    6.1518    2.5071 C   0  0  0  0  0  0  0  0  0  0  0  0
   -5.8386    7.0045    2.7972 C   0  0  0  0  0  0  0  0  0  0  0  0
   -5.6707    7.6081    4.1557 C   0  0  0  0  0  0  0  0  0  0  0  0
   -3.1513    4.4357    3.2398 C   0  0  0  0  0  0  0  0  0  0  0  0
   -5.5478    3.9084    2.9827 C   0  0  0  0  0  0  0  0  0  0  0  0
   -4.4738    4.4952    5.9623 C   0  0  0  0  0  0  0  0  0  0  0  0
   -3.5576    4.0197    6.6906 C   0  0  0  0  0  0  0  0  0  0  0  0
   -3.0856    3.0530    7.5875 C   0  0  0  0  0  0  0  0  0  0  0  0
   -2.0364    2.2609    7.2406 C   0  0  0  0  0  0  0  0  0  0  0  0
   -0.9693    1.8860    8.0589 C   0  0  0  0  0  0  0  0  0  0  0  0
   -0.1926    0.8611    7.6778 C   0  0  0  0  0  0  0  0  0  0  0  0
    1.2729    1.0220    7.6812 C   0  0  0  0  0  0  0  0  0  0  0  0
    2.0352   -0.0184    7.9305 C   0  0  0  0  0  0  0  0  0  0  0  0
    2.7533   -0.3486    9.1545 C   0  0  0  0  0  0  0  0  0  0  0  0
    2.1000   -1.3956    9.9544 N   0  0  0  0  0  0  0  0  0  0  0  0
    2.5700   -2.6878    9.4840 C   0  0  0  0  0  0  0  0  0  0  0  0
    3.5549   -3.2783   10.5048 C   0  0  0  0  0  0  0  0  0  0  0  0
    3.9456   -4.6365   10.0350 C   0  0  0  0  0  0  0  0  0  0  0  0
    4.8458   -5.4111   10.9360 C   0  0  0  0  0  0  0  0  0  0  0  0
    5.1384   -6.8146   10.5215 C   0  0  0  0  0  0  0  0  0  0  0  0
    5.7371   -6.8305    9.1513 C   0  0  0  0  0  0  0  0  0  0  0  0
    4.9947   -7.0460    8.1785 O   0  0  0  0  0  0  0  0  0  0  0  0
    7.0907   -6.6075    8.9953 O   0  0  0  0  0  0  0  0  0  0  0  0
    6.0708   -7.4835   11.4075 N   0  0  0  0  0  0  0  0  0  0  0  0
    1.7648    2.3842    7.3965 C   0  0  0  0  0  0  0  0  0  0  0  0
   -3.6102    2.7971    8.9693 C   0  0  0  0  0  0  0  0  0  0  0  0
  1  2  1  0
  2  3  2  0
  3  4  1  0
  4  5  1  0
  5  6  1  0
  6  7  1  0
  4  8  1  0
  4  9  1  0
  3 10  1  0
 10 11  2  3
 11 12  1  0
 12 13  2  3
 13 14  1  0
 14 15  2  3
 15 16  1  0
 16 17  2  3
 17 18  1  0
 18 19  1  0
 19 20  1  0
 20 21  1  0
 21 22  1  0
 22 23  1  0
 23 24  1  0
 24 25  1  0
 25 26  2  0
 25 27  1  0
 24 28  1  0
 16 29  1  0
 12 30  1  0
  7  2  1  0
M  END
$$$$
