
     RDKit          3D

 30 30  0  0  0  0  0  0  0  0999 V2000
   -3.1680    5.0579    1.1061 C   0  0  0  0  0  0  0  0  0  0  0  0
   -4.5128    4.4643    0.7210 C   0  0  0  0  0  0  0  0  0  0  0  0
   -5.4430    4.2454    1.6595 C   0  0  0  0  0  0  0  0  0  0  0  0
   -6.7413    3.6700    1.3077 C   0  0  0  0  0  0  0  0  0  0  0  0
   -6.7295    3.0733   -0.1065 C   0  0  0  0  0  0  0  0  0  0  0  0
   -6.1165    4.0403   -1.0841 C   0  0  0  0  0  0  0  0  0  0  0  0
   -4.6753    4.2197   -0.7254 C   0  0  0  0  0  0  0  0  0  0  0  0
   -7.0728    2.4477    2.1663 C   0  0  0  0  0  0  0  0  0  0  0  0
   -7.8976    4.6431    1.3996 C   0  0  0  0  0  0  0  0  0  0  0  0
   -5.1161    4.5928    3.0233 C   0  0  0  0  0  0  0  0  0  0  0  0
   -5.0684    4.1842    4.2178 C   0  0  0  0  0  0  0  0  0  0  0  0
   -4.9212    4.4282    5.5891 C   0  0  0  0  0  0  0  0  0  0  0  0
   -4.5962    3.4090    6.4282 C   0  0  0  0  0  0  0  0  0  0  0  0
   -3.7000    3.4634    7.4971 C   0  0  0  0  0  0  0  0  0  0  0  0
   -3.3417    2.3192    8.0980 C   0  0  0  0  0  0  0  0  0  0  0  0
   -2.0099    2.2142    8.7216 C   0  0  0  0  0  0  0  0  0  0  0  0
   -1.1098    1.4187    8.1899 C   0  0  0  0  0  0  0  0  0  0  0  0
   -0.1657    0.5348    8.8609 C   0  0  0  0  0  0  0  0  0  0  0  0
   -0.1379   -0.8261    8.3046 N   0  0  0  0  0  0  0  0  0  0  0  0
    1.1960   -1.0788    7.7858 C   0  0  0  0  0  0  0  0  0  0  0  0
    1.9565   -1.9996    8.7525 C   0  0  0  0  0  0  0  0  0  0  0  0
    3.4113   -1.8736    8.4596 C   0  0  0  0  0  0  0  0  0  0  0  0
    4.3209   -2.7472    9.2541 C   0  0  0  0  0  0  0  0  0  0  0  0
    5.7741   -2.6487    8.9286 C   0  0  0  0  0  0  0  0  0  0  0  0
    6.2817   -1.2811    9.2574 C   0  0  0  0  0  0  0  0  0  0  0  0
    5.5750   -0.2989    8.9753 O   0  0  0  0  0  0  0  0  0  0  0  0
    7.5146   -1.1379    9.8622 O   0  0  0  0  0  0  0  0  0  0  0  0
    6.5846   -3.5984    9.6655 N   0  0  0  0  0  0  0  0  0  0  0  0
   -1.8046    3.0392    9.9282 C   0  0  0  0  0  0  0  0  0  0  0  0
   -5.0575    5.7575    6.2707 C   0  0  0  0  0  0  0  0  0  0  0  0
  1  2  1  0
  2  3  2  0
  3  4  1  0
  4  5  1  0
  5  6  1  0
  6  7  1  0
  4  8  1  0
  4  9  1  0
  3 10  1  0
 10 11  2  3
 11 12  1  0
 12 13  2  3
 13 14  1  0
 14 15  2  3
 15 16  1  0
 16 17  2  3
 17 18  1  0
 18 19  1  0
 19 20  1  0
 20 21  1  0
 21 22  1  0
 22 23  1  0
 23 24  1  0
 24 25  1  0
 25 26  2  0
 25 27  1  0
 24 28  1  0
 16 29  1  0
 12 30  1  0
  7  2  1  0
M  END
$$$$
