
     RDKit          3D

 30 30  0  0  0  0  0  0  0  0999 V2000
   -4.9677    6.9347    9.6865 C   0  0  0  0  0  0  0  0  0  0  0  0
   -5.8001    6.9711    8.4157 C   0  0  0  0  0  0  0  0  0  0  0  0
   -5.7774    5.9336    7.5689 C   0  0  0  0  0  0  0  0  0  0  0  0
   -6.5686    5.9535    6.3384 C   0  0  0  0  0  0  0  0  0  0  0  0
   -7.0854    7.3640    6.0226 C   0  0  0  0  0  0  0  0  0  0  0  0
   -7.6993    7.9894    7.2468 C   0  0  0  0  0  0  0  0  0  0  0  0
   -6.6198    8.1890    8.2631 C   0  0  0  0  0  0  0  0  0  0  0  0
   -5.7134    5.6448    5.1078 C   0  0  0  0  0  0  0  0  0  0  0  0
   -7.7512    5.0080    6.3447 C   0  0  0  0  0  0  0  0  0  0  0  0
   -4.9448    4.8040    7.9126 C   0  0  0  0  0  0  0  0  0  0  0  0
   -3.8493    4.4367    8.4235 C   0  0  0  0  0  0  0  0  0  0  0  0
   -2.9650    3.4284    8.8272 C   0  0  0  0  0  0  0  0  0  0  0  0
   -1.6261    3.5930    8.6581 C   0  0  0  0  0  0  0  0  0  0  0  0
   -0.8589    3.1335    7.5861 C   0  0  0  0  0  0  0  0  0  0  0  0
    0.4417    3.4570    7.5375 C   0  0  0  0  0  0  0  0  0  0  0  0
    1.3962    2.5292    6.9037 C   0  0  0  0  0  0  0  0  0  0  0  0
    1.5605    1.3280    7.4096 C   0  0  0  0  0  0  0  0  0  0  0  0
    2.7997    0.6594    7.7839 C   0  0  0  0  0  0  0  0  0  0  0  0
    2.5927   -0.6614    8.3963 N   0  0  0  0  0  0  0  0  0  0  0  0
    3.5923   -1.5720    7.8639 C   0  0  0  0  0  0  0  0  0  0  0  0
    4.3269   -2.2625    9.0233 C   0  0  0  0  0  0  0  0  0  0  0  0
    3.3495   -3.1325    9.7345 C   0  0  0  0  0  0  0  0  0  0  0  0
    3.6831   -4.5841    9.7958 C   0  0  0  0  0  0  0  0  0  0  0  0
    2.7483   -5.4386   10.5852 C   0  0  0  0  0  0  0  0  0  0  0  0
    3.0159   -6.8834   10.3077 C   0  0  0  0  0  0  0  0  0  0  0  0
    3.0067   -7.2760    9.1289 O   0  0  0  0  0  0  0  0  0  0  0  0
    3.2655   -7.7451   11.3572 O   0  0  0  0  0  0  0  0  0  0  0  0
    2.8751   -5.2435   12.0162 N   0  0  0  0  0  0  0  0  0  0  0  0
    2.1046    3.0543    5.7200 C   0  0  0  0  0  0  0  0  0  0  0  0
   -3.3404    2.1341    9.4860 C   0  0  0  0  0  0  0  0  0  0  0  0
  1  2  1  0
  2  3  2  0
  3  4  1  0
  4  5  1  0
  5  6  1  0
  6  7  1  0
  4  8  1  0
  4  9  1  0
  3 10  1  0
 10 11  2  3
 11 12  1  0
 12 13  2  3
 13 14  1  0
 14 15  2  3
 15 16  1  0
 16 17  2  3
 17 18  1  0
 18 19  1  0
 19 20  1  0
 20 21  1  0
 21 22  1  0
 22 23  1  0
 23 24  1  0
 24 25  1  0
 25 26  2  0
 25 27  1  0
 24 28  1  0
 16 29  1  0
 12 30  1  0
  7  2  1  0
M  END
$$$$
