
     RDKit          3D

 30 30  0  0  0  0  0  0  0  0999 V2000
   -5.2254    6.0303    6.7284 C   0  0  0  0  0  0  0  0  0  0  0  0
   -5.1017    5.4776    5.3183 C   0  0  0  0  0  0  0  0  0  0  0  0
   -4.6846    4.2195    5.1250 C   0  0  0  0  0  0  0  0  0  0  0  0
   -4.5548    3.6724    3.7743 C   0  0  0  0  0  0  0  0  0  0  0  0
   -4.6107    4.7774    2.7103 C   0  0  0  0  0  0  0  0  0  0  0  0
   -5.7680    5.7046    2.9700 C   0  0  0  0  0  0  0  0  0  0  0  0
   -5.5164    6.4191    4.2601 C   0  0  0  0  0  0  0  0  0  0  0  0
   -3.1686    3.0704    3.5357 C   0  0  0  0  0  0  0  0  0  0  0  0
   -5.5933    2.6277    3.4247 C   0  0  0  0  0  0  0  0  0  0  0  0
   -4.3661    3.4304    6.2927 C   0  0  0  0  0  0  0  0  0  0  0  0
   -3.7677    3.4138    7.4051 C   0  0  0  0  0  0  0  0  0  0  0  0
   -3.3665    2.7449    8.5684 C   0  0  0  0  0  0  0  0  0  0  0  0
   -2.0614    2.4041    8.7388 C   0  0  0  0  0  0  0  0  0  0  0  0
   -0.9949    2.7481    7.9063 C   0  0  0  0  0  0  0  0  0  0  0  0
    0.2554    2.6337    8.3780 C   0  0  0  0  0  0  0  0  0  0  0  0
    1.3954    2.8985    7.4814 C   0  0  0  0  0  0  0  0  0  0  0  0
    2.1028    1.8910    7.0230 C   0  0  0  0  0  0  0  0  0  0  0  0
    3.1182    1.1040    7.7104 C   0  0  0  0  0  0  0  0  0  0  0  0
    3.7636    0.0995    6.8520 N   0  0  0  0  0  0  0  0  0  0  0  0
    3.0318   -1.1492    6.9828 C   0  0  0  0  0  0  0  0  0  0  0  0
    3.8236   -2.1170    7.8756 C   0  0  0  0  0  0  0  0  0  0  0  0
    2.8636   -2.7781    8.8027 C   0  0  0  0  0  0  0  0  0  0  0  0
    3.3963   -3.1553   10.1428 C   0  0  0  0  0  0  0  0  0  0  0  0
    2.4244   -3.7932   11.0786 C   0  0  0  0  0  0  0  0  0  0  0  0
    2.6515   -5.2705   11.1253 C   0  0  0  0  0  0  0  0  0  0  0  0
    2.7055   -5.8309   12.2330 O   0  0  0  0  0  0  0  0  0  0  0  0
    2.7955   -5.9764    9.9475 O   0  0  0  0  0  0  0  0  0  0  0  0
    2.5364   -3.2964   12.4360 N   0  0  0  0  0  0  0  0  0  0  0  0
    1.6463    4.3199    7.1729 C   0  0  0  0  0  0  0  0  0  0  0  0
   -4.2491    2.3681    9.7213 C   0  0  0  0  0  0  0  0  0  0  0  0
  1  2  1  0
  2  3  2  0
  3  4  1  0
  4  5  1  0
  5  6  1  0
  6  7  1  0
  4  8  1  0
  4  9  1  0
  3 10  1  0
 10 11  2  3
 11 12  1  0
 12 13  2  3
 13 14  1  0
 14 15  2  3
 15 16  1  0
 16 17  2  3
 17 18  1  0
 18 19  1  0
 19 20  1  0
 20 21  1  0
 21 22  1  0
 22 23  1  0
 23 24  1  0
 24 25  1  0
 25 26  2  0
 25 27  1  0
 24 28  1  0
 16 29  1  0
 12 30  1  0
  7  2  1  0
M  END
$$$$
