
     RDKit          3D

 30 30  0  0  0  0  0  0  0  0999 V2000
   -2.0229    4.1367    0.3583 C   0  0  0  0  0  0  0  0  0  0  0  0
   -3.4707    3.6979    0.2158 C   0  0  0  0  0  0  0  0  0  0  0  0
   -4.3313    3.8867    1.2247 C   0  0  0  0  0  0  0  0  0  0  0  0
   -5.7277    3.4661    1.1069 C   0  0  0  0  0  0  0  0  0  0  0  0
   -5.9364    2.5324   -0.0935 C   0  0  0  0  0  0  0  0  0  0  0  0
   -5.2810    3.0987   -1.3250 C   0  0  0  0  0  0  0  0  0  0  0  0
   -3.8019    3.1204   -1.1014 C   0  0  0  0  0  0  0  0  0  0  0  0
   -6.1548    2.5791    2.2781 C   0  0  0  0  0  0  0  0  0  0  0  0
   -6.7135    4.6095    0.9925 C   0  0  0  0  0  0  0  0  0  0  0  0
   -3.8308    4.5134    2.4264 C   0  0  0  0  0  0  0  0  0  0  0  0
   -3.1181    4.3626    3.4586 C   0  0  0  0  0  0  0  0  0  0  0  0
   -2.8941    3.7915    4.7177 C   0  0  0  0  0  0  0  0  0  0  0  0
   -3.5355    4.2853    5.8100 C   0  0  0  0  0  0  0  0  0  0  0  0
   -3.4688    3.7858    7.1120 C   0  0  0  0  0  0  0  0  0  0  0  0
   -4.2138    4.3655    8.0647 C   0  0  0  0  0  0  0  0  0  0  0  0
   -4.1094    3.8894    9.4562 C   0  0  0  0  0  0  0  0  0  0  0  0
   -2.9436    3.4976    9.9179 C   0  0  0  0  0  0  0  0  0  0  0  0
   -2.6598    2.5573   10.9940 C   0  0  0  0  0  0  0  0  0  0  0  0
   -1.2286    2.2579   11.1502 N   0  0  0  0  0  0  0  0  0  0  0  0
   -0.8634    1.2533   10.1656 C   0  0  0  0  0  0  0  0  0  0  0  0
    0.6639    1.0873   10.1440 C   0  0  0  0  0  0  0  0  0  0  0  0
    0.9695   -0.3695   10.1925 C   0  0  0  0  0  0  0  0  0  0  0  0
    1.9580   -0.8684    9.1946 C   0  0  0  0  0  0  0  0  0  0  0  0
    2.4111   -2.2795    9.3698 C   0  0  0  0  0  0  0  0  0  0  0  0
    3.2382   -2.7019    8.1979 C   0  0  0  0  0  0  0  0  0  0  0  0
    3.7647   -3.8273    8.2141 O   0  0  0  0  0  0  0  0  0  0  0  0
    3.3994   -1.8411    7.1305 O   0  0  0  0  0  0  0  0  0  0  0  0
    3.2181   -2.4712   10.5589 N   0  0  0  0  0  0  0  0  0  0  0  0
   -5.3678    3.8952   10.2275 C   0  0  0  0  0  0  0  0  0  0  0  0
   -2.0065    2.6186    5.0119 C   0  0  0  0  0  0  0  0  0  0  0  0
  1  2  1  0
  2  3  2  0
  3  4  1  0
  4  5  1  0
  5  6  1  0
  6  7  1  0
  4  8  1  0
  4  9  1  0
  3 10  1  0
 10 11  2  3
 11 12  1  0
 12 13  2  3
 13 14  1  0
 14 15  2  3
 15 16  1  0
 16 17  2  3
 17 18  1  0
 18 19  1  0
 19 20  1  0
 20 21  1  0
 21 22  1  0
 22 23  1  0
 23 24  1  0
 24 25  1  0
 25 26  2  0
 25 27  1  0
 24 28  1  0
 16 29  1  0
 12 30  1  0
  7  2  1  0
M  END
$$$$
