
     RDKit          3D

 30 30  0  0  0  0  0  0  0  0999 V2000
   -6.2839    8.4344    7.1577 C   0  0  0  0  0  0  0  0  0  0  0  0
   -6.8525    7.3693    8.0804 C   0  0  0  0  0  0  0  0  0  0  0  0
   -6.1609    6.2466    8.3155 C   0  0  0  0  0  0  0  0  0  0  0  0
   -6.6950    5.2084    9.1970 C   0  0  0  0  0  0  0  0  0  0  0  0
   -8.1874    5.4249    9.4842 C   0  0  0  0  0  0  0  0  0  0  0  0
   -8.4504    6.8569    9.8676 C   0  0  0  0  0  0  0  0  0  0  0  0
   -8.1525    7.7218    8.6838 C   0  0  0  0  0  0  0  0  0  0  0  0
   -6.6967    3.8353    8.5221 C   0  0  0  0  0  0  0  0  0  0  0  0
   -5.9724    5.0859   10.5219 C   0  0  0  0  0  0  0  0  0  0  0  0
   -4.8783    6.0994    7.6669 C   0  0  0  0  0  0  0  0  0  0  0  0
   -4.1099    5.3097    7.0488 C   0  0  0  0  0  0  0  0  0  0  0  0
   -2.9405    5.0619    6.3190 C   0  0  0  0  0  0  0  0  0  0  0  0
   -2.2102    3.9425    6.5680 C   0  0  0  0  0  0  0  0  0  0  0  0
   -0.8362    3.8801    6.8075 C   0  0  0  0  0  0  0  0  0  0  0  0
   -0.3186    2.7477    7.3057 C   0  0  0  0  0  0  0  0  0  0  0  0
    0.5553    1.9160    6.4582 C   0  0  0  0  0  0  0  0  0  0  0  0
    1.6397    1.3849    6.9757 C   0  0  0  0  0  0  0  0  0  0  0  0
    2.8763    1.0046    6.3055 C   0  0  0  0  0  0  0  0  0  0  0  0
    3.9990    0.7790    7.2281 N   0  0  0  0  0  0  0  0  0  0  0  0
    3.6020   -0.2368    8.1886 C   0  0  0  0  0  0  0  0  0  0  0  0
    3.4353   -1.5848    7.4705 C   0  0  0  0  0  0  0  0  0  0  0  0
    3.2868   -2.6435    8.5074 C   0  0  0  0  0  0  0  0  0  0  0  0
    3.1897   -4.0448    8.0084 C   0  0  0  0  0  0  0  0  0  0  0  0
    3.1089   -5.1082    9.0523 C   0  0  0  0  0  0  0  0  0  0  0  0
    2.8954   -6.4418    8.4104 C   0  0  0  0  0  0  0  0  0  0  0  0
    3.6372   -7.3848    8.7334 O   0  0  0  0  0  0  0  0  0  0  0  0
    1.8874   -6.5978    7.4799 O   0  0  0  0  0  0  0  0  0  0  0  0
    4.3113   -5.2041    9.8565 N   0  0  0  0  0  0  0  0  0  0  0  0
    0.1171    1.7531    5.0582 C   0  0  0  0  0  0  0  0  0  0  0  0
   -2.3876    5.9163    5.2170 C   0  0  0  0  0  0  0  0  0  0  0  0
  1  2  1  0
  2  3  2  0
  3  4  1  0
  4  5  1  0
  5  6  1  0
  6  7  1  0
  4  8  1  0
  4  9  1  0
  3 10  1  0
 10 11  2  3
 11 12  1  0
 12 13  2  3
 13 14  1  0
 14 15  2  3
 15 16  1  0
 16 17  2  3
 17 18  1  0
 18 19  1  0
 19 20  1  0
 20 21  1  0
 21 22  1  0
 22 23  1  0
 23 24  1  0
 24 25  1  0
 25 26  2  0
 25 27  1  0
 24 28  1  0
 16 29  1  0
 12 30  1  0
  7  2  1  0
M  END
$$$$
