
     RDKit          3D

 30 30  0  0  0  0  0  0  0  0999 V2000
   -8.3595    4.8959    9.4290 C   0  0  0  0  0  0  0  0  0  0  0  0
   -8.2351    5.9143    8.3081 C   0  0  0  0  0  0  0  0  0  0  0  0
   -7.1173    5.9689    7.5722 C   0  0  0  0  0  0  0  0  0  0  0  0
   -6.9782    6.9462    6.4924 C   0  0  0  0  0  0  0  0  0  0  0  0
   -8.0587    8.0336    6.5729 C   0  0  0  0  0  0  0  0  0  0  0  0
   -9.4172    7.4163    6.7729 C   0  0  0  0  0  0  0  0  0  0  0  0
   -9.4367    6.7486    8.1115 C   0  0  0  0  0  0  0  0  0  0  0  0
   -5.6924    7.7644    6.6285 C   0  0  0  0  0  0  0  0  0  0  0  0
   -7.0149    6.3463    5.1028 C   0  0  0  0  0  0  0  0  0  0  0  0
   -6.0603    5.0352    7.8858 C   0  0  0  0  0  0  0  0  0  0  0  0
   -5.0755    4.7938    8.6395 C   0  0  0  0  0  0  0  0  0  0  0  0
   -4.0117    3.9743    9.0373 C   0  0  0  0  0  0  0  0  0  0  0  0
   -3.0981    3.5565    8.1212 C   0  0  0  0  0  0  0  0  0  0  0  0
   -1.7253    3.4033    8.3237 C   0  0  0  0  0  0  0  0  0  0  0  0
   -0.9156    3.3650    7.2552 C   0  0  0  0  0  0  0  0  0  0  0  0
    0.2540    2.4674    7.2640 C   0  0  0  0  0  0  0  0  0  0  0  0
    1.2315    2.6736    6.4110 C   0  0  0  0  0  0  0  0  0  0  0  0
    2.4220    1.8665    6.1779 C   0  0  0  0  0  0  0  0  0  0  0  0
    3.3483    2.4552    5.1992 N   0  0  0  0  0  0  0  0  0  0  0  0
    2.7613    2.3180    3.8769 C   0  0  0  0  0  0  0  0  0  0  0  0
    3.5367    1.2587    3.0786 C   0  0  0  0  0  0  0  0  0  0  0  0
    2.7600   -0.0113    3.1235 C   0  0  0  0  0  0  0  0  0  0  0  0
    2.3536   -0.5814    1.8076 C   0  0  0  0  0  0  0  0  0  0  0  0
    1.0810   -1.3609    1.7958 C   0  0  0  0  0  0  0  0  0  0  0  0
    0.7069   -1.7110    0.3910 C   0  0  0  0  0  0  0  0  0  0  0  0
    0.0629   -0.8855   -0.2780 O   0  0  0  0  0  0  0  0  0  0  0  0
    1.0810   -2.9335   -0.1304 O   0  0  0  0  0  0  0  0  0  0  0  0
    1.1707   -2.6017    2.5403 N   0  0  0  0  0  0  0  0  0  0  0  0
    0.2161    1.3816    8.2631 C   0  0  0  0  0  0  0  0  0  0  0  0
   -3.7312    3.5045   10.4340 C   0  0  0  0  0  0  0  0  0  0  0  0
  1  2  1  0
  2  3  2  0
  3  4  1  0
  4  5  1  0
  5  6  1  0
  6  7  1  0
  4  8  1  0
  4  9  1  0
  3 10  1  0
 10 11  2  3
 11 12  1  0
 12 13  2  3
 13 14  1  0
 14 15  2  3
 15 16  1  0
 16 17  2  3
 17 18  1  0
 18 19  1  0
 19 20  1  0
 20 21  1  0
 21 22  1  0
 22 23  1  0
 23 24  1  0
 24 25  1  0
 25 26  2  0
 25 27  1  0
 24 28  1  0
 16 29  1  0
 12 30  1  0
  7  2  1  0
M  END
$$$$
