
     RDKit          3D

 30 30  0  0  0  0  0  0  0  0999 V2000
   -5.5918    6.5092    6.1101 C   0  0  0  0  0  0  0  0  0  0  0  0
   -5.5717    6.0639    4.6574 C   0  0  0  0  0  0  0  0  0  0  0  0
   -5.1001    4.8528    4.3334 C   0  0  0  0  0  0  0  0  0  0  0  0
   -5.0686    4.4095    2.9395 C   0  0  0  0  0  0  0  0  0  0  0  0
   -5.2934    5.5784    1.9704 C   0  0  0  0  0  0  0  0  0  0  0  0
   -6.4740    6.4060    2.4038 C   0  0  0  0  0  0  0  0  0  0  0  0
   -6.1426    7.0457    3.7149 C   0  0  0  0  0  0  0  0  0  0  0  0
   -3.6781    3.9195    2.5302 C   0  0  0  0  0  0  0  0  0  0  0  0
   -6.0711    3.3238    2.6100 C   0  0  0  0  0  0  0  0  0  0  0  0
   -4.6235    4.0088    5.4048 C   0  0  0  0  0  0  0  0  0  0  0  0
   -3.6777    3.7882    6.2128 C   0  0  0  0  0  0  0  0  0  0  0  0
   -3.0788    3.0107    7.2120 C   0  0  0  0  0  0  0  0  0  0  0  0
   -2.0542    2.1741    6.8974 C   0  0  0  0  0  0  0  0  0  0  0  0
   -0.7512    2.2285    7.3956 C   0  0  0  0  0  0  0  0  0  0  0  0
    0.1528    1.3509    6.9360 C   0  0  0  0  0  0  0  0  0  0  0  0
    1.5106    1.3410    7.5104 C   0  0  0  0  0  0  0  0  0  0  0  0
    2.3440    0.3811    7.1792 C   0  0  0  0  0  0  0  0  0  0  0  0
    3.6766    0.1114    7.7028 C   0  0  0  0  0  0  0  0  0  0  0  0
    3.9877   -1.3221    7.8070 N   0  0  0  0  0  0  0  0  0  0  0  0
    3.8279   -1.7231    9.1947 C   0  0  0  0  0  0  0  0  0  0  0  0
    2.5776   -2.6054    9.3332 C   0  0  0  0  0  0  0  0  0  0  0  0
    2.7397   -3.4453   10.5524 C   0  0  0  0  0  0  0  0  0  0  0  0
    3.0181   -4.8917   10.3231 C   0  0  0  0  0  0  0  0  0  0  0  0
    3.1353   -5.7385   11.5464 C   0  0  0  0  0  0  0  0  0  0  0  0
    3.3880   -7.1615   11.1627 C   0  0  0  0  0  0  0  0  0  0  0  0
    4.2799   -7.7901   11.7572 O   0  0  0  0  0  0  0  0  0  0  0  0
    2.6324   -7.7438   10.1646 O   0  0  0  0  0  0  0  0  0  0  0  0
    4.2190   -5.3275   12.4173 N   0  0  0  0  0  0  0  0  0  0  0  0
    1.8178    2.4474    8.4379 C   0  0  0  0  0  0  0  0  0  0  0  0
   -3.4341    3.0162    8.6693 C   0  0  0  0  0  0  0  0  0  0  0  0
  1  2  1  0
  2  3  2  0
  3  4  1  0
  4  5  1  0
  5  6  1  0
  6  7  1  0
  4  8  1  0
  4  9  1  0
  3 10  1  0
 10 11  2  3
 11 12  1  0
 12 13  2  3
 13 14  1  0
 14 15  2  3
 15 16  1  0
 16 17  2  3
 17 18  1  0
 18 19  1  0
 19 20  1  0
 20 21  1  0
 21 22  1  0
 22 23  1  0
 23 24  1  0
 24 25  1  0
 25 26  2  0
 25 27  1  0
 24 28  1  0
 16 29  1  0
 12 30  1  0
  7  2  1  0
M  END
$$$$
