
     RDKit          3D

 30 30  0  0  0  0  0  0  0  0999 V2000
   -2.8924    2.9313    1.9289 C   0  0  0  0  0  0  0  0  0  0  0  0
   -4.0234    3.7749    1.3648 C   0  0  0  0  0  0  0  0  0  0  0  0
   -4.6171    4.6995    2.1309 C   0  0  0  0  0  0  0  0  0  0  0  0
   -5.7108    5.5173    1.6061 C   0  0  0  0  0  0  0  0  0  0  0  0
   -6.2606    4.9475    0.2910 C   0  0  0  0  0  0  0  0  0  0  0  0
   -5.1360    4.6133   -0.6524 C   0  0  0  0  0  0  0  0  0  0  0  0
   -4.3344    3.5020   -0.0519 C   0  0  0  0  0  0  0  0  0  0  0  0
   -6.9421    5.4696    2.5131 C   0  0  0  0  0  0  0  0  0  0  0  0
   -5.3462    6.9686    1.3757 C   0  0  0  0  0  0  0  0  0  0  0  0
   -4.1424    4.8543    3.4866 C   0  0  0  0  0  0  0  0  0  0  0  0
   -4.3498    4.5704    4.7001 C   0  0  0  0  0  0  0  0  0  0  0  0
   -4.1518    4.8154    6.0647 C   0  0  0  0  0  0  0  0  0  0  0  0
   -3.1563    4.1731    6.7316 C   0  0  0  0  0  0  0  0  0  0  0  0
   -3.3087    3.1815    7.7025 C   0  0  0  0  0  0  0  0  0  0  0  0
   -2.2441    2.4382    8.0386 C   0  0  0  0  0  0  0  0  0  0  0  0
   -2.4096    1.3234    8.9891 C   0  0  0  0  0  0  0  0  0  0  0  0
   -1.6795    0.2406    8.8465 C   0  0  0  0  0  0  0  0  0  0  0  0
   -0.2673    0.1332    8.5044 C   0  0  0  0  0  0  0  0  0  0  0  0
    0.1784   -1.2495    8.2766 N   0  0  0  0  0  0  0  0  0  0  0  0
    0.5708   -1.8179    9.5553 C   0  0  0  0  0  0  0  0  0  0  0  0
    2.1022   -1.9244    9.6212 C   0  0  0  0  0  0  0  0  0  0  0  0
    2.4551   -3.3540    9.8446 C   0  0  0  0  0  0  0  0  0  0  0  0
    3.8863   -3.6391   10.1483 C   0  0  0  0  0  0  0  0  0  0  0  0
    4.1455   -4.4835   11.3513 C   0  0  0  0  0  0  0  0  0  0  0  0
    5.5464   -5.0055   11.3193 C   0  0  0  0  0  0  0  0  0  0  0  0
    5.8537   -5.8360   10.4477 O   0  0  0  0  0  0  0  0  0  0  0  0
    6.4626   -4.5586   12.2505 O   0  0  0  0  0  0  0  0  0  0  0  0
    3.9833   -3.7591   12.5966 N   0  0  0  0  0  0  0  0  0  0  0  0
   -3.4162    1.5332   10.0480 C   0  0  0  0  0  0  0  0  0  0  0  0
   -4.9309    5.7763    6.9131 C   0  0  0  0  0  0  0  0  0  0  0  0
  1  2  1  0
  2  3  2  0
  3  4  1  0
  4  5  1  0
  5  6  1  0
  6  7  1  0
  4  8  1  0
  4  9  1  0
  3 10  1  0
 10 11  2  3
 11 12  1  0
 12 13  2  3
 13 14  1  0
 14 15  2  3
 15 16  1  0
 16 17  2  3
 17 18  1  0
 18 19  1  0
 19 20  1  0
 20 21  1  0
 21 22  1  0
 22 23  1  0
 23 24  1  0
 24 25  1  0
 25 26  2  0
 25 27  1  0
 24 28  1  0
 16 29  1  0
 12 30  1  0
  7  2  1  0
M  END
$$$$
