
     RDKit          3D

 30 30  0  0  0  0  0  0  0  0999 V2000
   -4.4751    7.7453    6.3585 C   0  0  0  0  0  0  0  0  0  0  0  0
   -4.4353    7.1679    4.9535 C   0  0  0  0  0  0  0  0  0  0  0  0
   -4.2014    5.8617    4.7713 C   0  0  0  0  0  0  0  0  0  0  0  0
   -4.1547    5.2895    3.4256 C   0  0  0  0  0  0  0  0  0  0  0  0
   -4.0565    6.3815    2.3512 C   0  0  0  0  0  0  0  0  0  0  0  0
   -5.0699    7.4658    2.6043 C   0  0  0  0  0  0  0  0  0  0  0  0
   -4.7155    8.1491    3.8871 C   0  0  0  0  0  0  0  0  0  0  0  0
   -2.8685    4.4949    3.1902 C   0  0  0  0  0  0  0  0  0  0  0  0
   -5.3319    4.3994    3.0876 C   0  0  0  0  0  0  0  0  0  0  0  0
   -3.9945    5.0461    5.9458 C   0  0  0  0  0  0  0  0  0  0  0  0
   -3.2847    4.1443    6.4739 C   0  0  0  0  0  0  0  0  0  0  0  0
   -3.1457    3.0311    7.3123 C   0  0  0  0  0  0  0  0  0  0  0  0
   -2.3621    3.1103    8.4205 C   0  0  0  0  0  0  0  0  0  0  0  0
   -2.1721    2.1138    9.3796 C   0  0  0  0  0  0  0  0  0  0  0  0
   -1.0306    1.4100    9.3618 C   0  0  0  0  0  0  0  0  0  0  0  0
   -0.6752    0.5759   10.5245 C   0  0  0  0  0  0  0  0  0  0  0  0
    0.4279   -0.1368   10.4937 C   0  0  0  0  0  0  0  0  0  0  0  0
    0.9383   -1.0681   11.4912 C   0  0  0  0  0  0  0  0  0  0  0  0
    2.2322   -1.6658   11.1290 N   0  0  0  0  0  0  0  0  0  0  0  0
    2.2810   -1.8044    9.6832 C   0  0  0  0  0  0  0  0  0  0  0  0
    2.3451   -3.2940    9.3123 C   0  0  0  0  0  0  0  0  0  0  0  0
    3.7703   -3.7223    9.3714 C   0  0  0  0  0  0  0  0  0  0  0  0
    4.0757   -5.0717    8.8168 C   0  0  0  0  0  0  0  0  0  0  0  0
    5.1645   -5.8301    9.5001 C   0  0  0  0  0  0  0  0  0  0  0  0
    4.5933   -6.6723   10.5957 C   0  0  0  0  0  0  0  0  0  0  0  0
    4.0507   -6.1081   11.5607 O   0  0  0  0  0  0  0  0  0  0  0  0
    4.6793   -8.0479   10.5146 O   0  0  0  0  0  0  0  0  0  0  0  0
    5.8844   -6.7155    8.6060 N   0  0  0  0  0  0  0  0  0  0  0  0
   -1.6252    0.6187   11.6533 C   0  0  0  0  0  0  0  0  0  0  0  0
   -3.8196    1.7024    7.1376 C   0  0  0  0  0  0  0  0  0  0  0  0
  1  2  1  0
  2  3  2  0
  3  4  1  0
  4  5  1  0
  5  6  1  0
  6  7  1  0
  4  8  1  0
  4  9  1  0
  3 10  1  0
 10 11  2  3
 11 12  1  0
 12 13  2  3
 13 14  1  0
 14 15  2  3
 15 16  1  0
 16 17  2  3
 17 18  1  0
 18 19  1  0
 19 20  1  0
 20 21  1  0
 21 22  1  0
 22 23  1  0
 23 24  1  0
 24 25  1  0
 25 26  2  0
 25 27  1  0
 24 28  1  0
 16 29  1  0
 12 30  1  0
  7  2  1  0
M  END
$$$$
