
     RDKit          3D

 30 30  0  0  0  0  0  0  0  0999 V2000
   -4.0317    5.7131    6.8572 C   0  0  0  0  0  0  0  0  0  0  0  0
   -4.9970    5.3682    7.9790 C   0  0  0  0  0  0  0  0  0  0  0  0
   -4.5562    4.7299    9.0709 C   0  0  0  0  0  0  0  0  0  0  0  0
   -5.4722    4.3855   10.1584 C   0  0  0  0  0  0  0  0  0  0  0  0
   -6.9386    4.5269    9.7271 C   0  0  0  0  0  0  0  0  0  0  0  0
   -7.1608    5.8423    9.0294 C   0  0  0  0  0  0  0  0  0  0  0  0
   -6.3790    5.8348    7.7539 C   0  0  0  0  0  0  0  0  0  0  0  0
   -5.3893    2.9019   10.5231 C   0  0  0  0  0  0  0  0  0  0  0  0
   -5.2713    5.1971   11.4207 C   0  0  0  0  0  0  0  0  0  0  0  0
   -3.1524    4.3934    9.1315 C   0  0  0  0  0  0  0  0  0  0  0  0
   -2.2101    3.7593    8.5784 C   0  0  0  0  0  0  0  0  0  0  0  0
   -0.8683    3.3610    8.5271 C   0  0  0  0  0  0  0  0  0  0  0  0
   -0.4543    2.4953    7.5640 C   0  0  0  0  0  0  0  0  0  0  0  0
   -0.0531    2.8213    6.2672 C   0  0  0  0  0  0  0  0  0  0  0  0
   -0.0093    1.8514    5.3420 C   0  0  0  0  0  0  0  0  0  0  0  0
    0.1508    2.2118    3.9213 C   0  0  0  0  0  0  0  0  0  0  0  0
    0.6607    1.3344    3.0871 C   0  0  0  0  0  0  0  0  0  0  0  0
    0.9002    1.4706    1.6564 C   0  0  0  0  0  0  0  0  0  0  0  0
    0.9937    0.1835    0.9513 N   0  0  0  0  0  0  0  0  0  0  0  0
    2.2201   -0.4757    1.3676 C   0  0  0  0  0  0  0  0  0  0  0  0
    2.7175   -1.3934    0.2402 C   0  0  0  0  0  0  0  0  0  0  0  0
    1.6628   -2.4112   -0.0240 C   0  0  0  0  0  0  0  0  0  0  0  0
    2.1378   -3.8020   -0.2735 C   0  0  0  0  0  0  0  0  0  0  0  0
    1.7154   -4.4168   -1.5661 C   0  0  0  0  0  0  0  0  0  0  0  0
    2.6342   -5.5412   -1.9237 C   0  0  0  0  0  0  0  0  0  0  0  0
    2.1621   -6.6853   -2.0334 O   0  0  0  0  0  0  0  0  0  0  0  0
    3.9768   -5.2884   -2.1229 O   0  0  0  0  0  0  0  0  0  0  0  0
    0.3703   -4.9559   -1.5234 N   0  0  0  0  0  0  0  0  0  0  0  0
   -0.2896    3.5723    3.5557 C   0  0  0  0  0  0  0  0  0  0  0  0
    0.2280    3.8258    9.4394 C   0  0  0  0  0  0  0  0  0  0  0  0
  1  2  1  0
  2  3  2  0
  3  4  1  0
  4  5  1  0
  5  6  1  0
  6  7  1  0
  4  8  1  0
  4  9  1  0
  3 10  1  0
 10 11  2  3
 11 12  1  0
 12 13  2  3
 13 14  1  0
 14 15  2  3
 15 16  1  0
 16 17  2  3
 17 18  1  0
 18 19  1  0
 19 20  1  0
 20 21  1  0
 21 22  1  0
 22 23  1  0
 23 24  1  0
 24 25  1  0
 25 26  2  0
 25 27  1  0
 24 28  1  0
 16 29  1  0
 12 30  1  0
  7  2  1  0
M  END
$$$$
