
     RDKit          3D

 30 30  0  0  0  0  0  0  0  0999 V2000
   -3.6789    6.8023    6.8991 C   0  0  0  0  0  0  0  0  0  0  0  0
   -3.5502    6.3193    5.4641 C   0  0  0  0  0  0  0  0  0  0  0  0
   -3.6039    5.0093    5.1898 C   0  0  0  0  0  0  0  0  0  0  0  0
   -3.4768    4.5260    3.8148 C   0  0  0  0  0  0  0  0  0  0  0  0
   -2.9528    5.6229    2.8773 C   0  0  0  0  0  0  0  0  0  0  0  0
   -3.7098    6.9068    3.0894 C   0  0  0  0  0  0  0  0  0  0  0  0
   -3.4161    7.4021    4.4702 C   0  0  0  0  0  0  0  0  0  0  0  0
   -2.3931    3.4536    3.6871 C   0  0  0  0  0  0  0  0  0  0  0  0
   -4.7601    3.9772    3.2280 C   0  0  0  0  0  0  0  0  0  0  0  0
   -3.7867    4.0982    6.2961 C   0  0  0  0  0  0  0  0  0  0  0  0
   -3.3558    3.7357    7.4270 C   0  0  0  0  0  0  0  0  0  0  0  0
   -3.4457    2.9310    8.5697 C   0  0  0  0  0  0  0  0  0  0  0  0
   -2.3238    2.3700    9.0942 C   0  0  0  0  0  0  0  0  0  0  0  0
   -2.2177    1.1040    9.6731 C   0  0  0  0  0  0  0  0  0  0  0  0
   -1.1799    0.3246    9.3352 C   0  0  0  0  0  0  0  0  0  0  0  0
   -0.1774   -0.0302   10.3563 C   0  0  0  0  0  0  0  0  0  0  0  0
    1.0007   -0.4712    9.9775 C   0  0  0  0  0  0  0  0  0  0  0  0
    2.0615   -1.0494   10.7919 C   0  0  0  0  0  0  0  0  0  0  0  0
    3.2752   -1.3770   10.0290 N   0  0  0  0  0  0  0  0  0  0  0  0
    2.9510   -2.4390    9.0915 C   0  0  0  0  0  0  0  0  0  0  0  0
    2.9774   -1.8846    7.6588 C   0  0  0  0  0  0  0  0  0  0  0  0
    3.5265   -2.9425    6.7658 C   0  0  0  0  0  0  0  0  0  0  0  0
    3.6320   -2.5944    5.3203 C   0  0  0  0  0  0  0  0  0  0  0  0
    4.3324   -3.5891    4.4559 C   0  0  0  0  0  0  0  0  0  0  0  0
    5.8105   -3.4979    4.6631 C   0  0  0  0  0  0  0  0  0  0  0  0
    6.4168   -2.5129    4.2091 O   0  0  0  0  0  0  0  0  0  0  0  0
    6.4668   -4.5008    5.3486 O   0  0  0  0  0  0  0  0  0  0  0  0
    3.9411   -4.9567    4.7359 N   0  0  0  0  0  0  0  0  0  0  0  0
   -0.6053    0.1471   11.7577 C   0  0  0  0  0  0  0  0  0  0  0  0
   -4.6960    2.6248    9.3400 C   0  0  0  0  0  0  0  0  0  0  0  0
  1  2  1  0
  2  3  2  0
  3  4  1  0
  4  5  1  0
  5  6  1  0
  6  7  1  0
  4  8  1  0
  4  9  1  0
  3 10  1  0
 10 11  2  3
 11 12  1  0
 12 13  2  3
 13 14  1  0
 14 15  2  3
 15 16  1  0
 16 17  2  3
 17 18  1  0
 18 19  1  0
 19 20  1  0
 20 21  1  0
 21 22  1  0
 22 23  1  0
 23 24  1  0
 24 25  1  0
 25 26  2  0
 25 27  1  0
 24 28  1  0
 16 29  1  0
 12 30  1  0
  7  2  1  0
M  END
$$$$
