
     RDKit          3D

 30 30  0  0  0  0  0  0  0  0999 V2000
   -6.4578    6.3553    7.5658 C   0  0  0  0  0  0  0  0  0  0  0  0
   -6.8097    5.7503    6.2171 C   0  0  0  0  0  0  0  0  0  0  0  0
   -5.8541    5.1930    5.4619 C   0  0  0  0  0  0  0  0  0  0  0  0
   -6.1739    4.6102    4.1586 C   0  0  0  0  0  0  0  0  0  0  0  0
   -7.5710    5.0295    3.6804 C   0  0  0  0  0  0  0  0  0  0  0  0
   -8.5826    4.8527    4.7814 C   0  0  0  0  0  0  0  0  0  0  0  0
   -8.2467    5.8055    5.8847 C   0  0  0  0  0  0  0  0  0  0  0  0
   -5.2777    5.1682    3.0511 C   0  0  0  0  0  0  0  0  0  0  0  0
   -6.0950    3.0988    4.1175 C   0  0  0  0  0  0  0  0  0  0  0  0
   -4.5047    5.1928    5.9780 C   0  0  0  0  0  0  0  0  0  0  0  0
   -3.7664    4.8952    6.9590 C   0  0  0  0  0  0  0  0  0  0  0  0
   -2.4987    4.7552    7.5378 C   0  0  0  0  0  0  0  0  0  0  0  0
   -2.0155    3.5163    7.8207 C   0  0  0  0  0  0  0  0  0  0  0  0
   -0.7123    3.0622    7.6100 C   0  0  0  0  0  0  0  0  0  0  0  0
   -0.3616    1.8607    8.0918 C   0  0  0  0  0  0  0  0  0  0  0  0
    0.3657    0.9161    7.2244 C   0  0  0  0  0  0  0  0  0  0  0  0
    0.6638   -0.2794    7.6801 C   0  0  0  0  0  0  0  0  0  0  0  0
    1.7434   -0.6686    8.5778 C   0  0  0  0  0  0  0  0  0  0  0  0
    1.4428   -1.8692    9.3720 N   0  0  0  0  0  0  0  0  0  0  0  0
    2.0769   -3.0093    8.7316 C   0  0  0  0  0  0  0  0  0  0  0  0
    3.5994   -2.9216    8.9186 C   0  0  0  0  0  0  0  0  0  0  0  0
    4.1881   -4.2310    8.5220 C   0  0  0  0  0  0  0  0  0  0  0  0
    5.6549   -4.3856    8.7375 C   0  0  0  0  0  0  0  0  0  0  0  0
    6.2466   -5.6872    8.3098 C   0  0  0  0  0  0  0  0  0  0  0  0
    7.7194   -5.6908    8.5686 C   0  0  0  0  0  0  0  0  0  0  0  0
    8.4952   -5.7427    7.5994 O   0  0  0  0  0  0  0  0  0  0  0  0
    8.1842   -5.6369    9.8676 O   0  0  0  0  0  0  0  0  0  0  0  0
    5.6825   -6.8231    9.0121 N   0  0  0  0  0  0  0  0  0  0  0  0
    0.7052    1.4190    5.8788 C   0  0  0  0  0  0  0  0  0  0  0  0
   -1.5505    5.8687    7.8710 C   0  0  0  0  0  0  0  0  0  0  0  0
  1  2  1  0
  2  3  2  0
  3  4  1  0
  4  5  1  0
  5  6  1  0
  6  7  1  0
  4  8  1  0
  4  9  1  0
  3 10  1  0
 10 11  2  3
 11 12  1  0
 12 13  2  3
 13 14  1  0
 14 15  2  3
 15 16  1  0
 16 17  2  3
 17 18  1  0
 18 19  1  0
 19 20  1  0
 20 21  1  0
 21 22  1  0
 22 23  1  0
 23 24  1  0
 24 25  1  0
 25 26  2  0
 25 27  1  0
 24 28  1  0
 16 29  1  0
 12 30  1  0
  7  2  1  0
M  END
$$$$
