
     RDKit          3D

 30 30  0  0  0  0  0  0  0  0999 V2000
   -6.1898    5.9698    8.1937 C   0  0  0  0  0  0  0  0  0  0  0  0
   -5.6059    6.4739    6.8845 C   0  0  0  0  0  0  0  0  0  0  0  0
   -4.6280    5.7884    6.2780 C   0  0  0  0  0  0  0  0  0  0  0  0
   -4.0507    6.2614    5.0197 C   0  0  0  0  0  0  0  0  0  0  0  0
   -4.4469    7.7155    4.7285 C   0  0  0  0  0  0  0  0  0  0  0  0
   -5.9269    7.9103    4.9240 C   0  0  0  0  0  0  0  0  0  0  0  0
   -6.2400    7.7043    6.3723 C   0  0  0  0  0  0  0  0  0  0  0  0
   -2.5254    6.3558    5.0941 C   0  0  0  0  0  0  0  0  0  0  0  0
   -4.4166    5.4220    3.8138 C   0  0  0  0  0  0  0  0  0  0  0  0
   -4.1657    4.5749    6.9114 C   0  0  0  0  0  0  0  0  0  0  0  0
   -3.7179    4.0629    7.9761 C   0  0  0  0  0  0  0  0  0  0  0  0
   -3.1835    2.9768    8.6804 C   0  0  0  0  0  0  0  0  0  0  0  0
   -1.8356    2.8363    8.7896 C   0  0  0  0  0  0  0  0  0  0  0  0
   -1.0403    1.8945    8.1344 C   0  0  0  0  0  0  0  0  0  0  0  0
    0.2141    1.6967    8.5658 C   0  0  0  0  0  0  0  0  0  0  0  0
    1.2676    1.3469    7.5955 C   0  0  0  0  0  0  0  0  0  0  0  0
    1.3148    0.1287    7.1061 C   0  0  0  0  0  0  0  0  0  0  0  0
    2.4803   -0.7132    6.8702 C   0  0  0  0  0  0  0  0  0  0  0  0
    2.5596   -1.2353    5.4978 N   0  0  0  0  0  0  0  0  0  0  0  0
    1.2701   -1.8111    5.1544 C   0  0  0  0  0  0  0  0  0  0  0  0
    0.7521   -1.1723    3.8566 C   0  0  0  0  0  0  0  0  0  0  0  0
    1.4016   -1.8669    2.7104 C   0  0  0  0  0  0  0  0  0  0  0  0
    0.4915   -2.5913    1.7783 C   0  0  0  0  0  0  0  0  0  0  0  0
    0.8648   -2.5503    0.3339 C   0  0  0  0  0  0  0  0  0  0  0  0
    2.1028   -3.3559    0.1010 C   0  0  0  0  0  0  0  0  0  0  0  0
    3.2052   -2.8430    0.3572 O   0  0  0  0  0  0  0  0  0  0  0  0
    1.9979   -4.6422   -0.3898 O   0  0  0  0  0  0  0  0  0  0  0  0
   -0.1673   -3.0851   -0.5326 N   0  0  0  0  0  0  0  0  0  0  0  0
    2.2051    2.4344    7.2536 C   0  0  0  0  0  0  0  0  0  0  0  0
   -3.9655    1.9120    9.3909 C   0  0  0  0  0  0  0  0  0  0  0  0
  1  2  1  0
  2  3  2  0
  3  4  1  0
  4  5  1  0
  5  6  1  0
  6  7  1  0
  4  8  1  0
  4  9  1  0
  3 10  1  0
 10 11  2  3
 11 12  1  0
 12 13  2  3
 13 14  1  0
 14 15  2  3
 15 16  1  0
 16 17  2  3
 17 18  1  0
 18 19  1  0
 19 20  1  0
 20 21  1  0
 21 22  1  0
 22 23  1  0
 23 24  1  0
 24 25  1  0
 25 26  2  0
 25 27  1  0
 24 28  1  0
 16 29  1  0
 12 30  1  0
  7  2  1  0
M  END
$$$$
