
     RDKit          3D

 30 30  0  0  0  0  0  0  0  0999 V2000
   -7.5560    5.9419    5.8905 C   0  0  0  0  0  0  0  0  0  0  0  0
   -6.8247    5.6386    4.5934 C   0  0  0  0  0  0  0  0  0  0  0  0
   -5.6797    4.9439    4.6154 C   0  0  0  0  0  0  0  0  0  0  0  0
   -4.9597    4.6470    3.3769 C   0  0  0  0  0  0  0  0  0  0  0  0
   -5.4789    5.4927    2.2057 C   0  0  0  0  0  0  0  0  0  0  0  0
   -6.9832    5.4581    2.1537 C   0  0  0  0  0  0  0  0  0  0  0  0
   -7.5107    6.1292    3.3822 C   0  0  0  0  0  0  0  0  0  0  0  0
   -3.4935    5.0773    3.4547 C   0  0  0  0  0  0  0  0  0  0  0  0
   -5.0065    3.1909    2.9647 C   0  0  0  0  0  0  0  0  0  0  0  0
   -5.1844    4.5057    5.8999 C   0  0  0  0  0  0  0  0  0  0  0  0
   -4.3022    4.6768    6.7879 C   0  0  0  0  0  0  0  0  0  0  0  0
   -3.4577    4.1745    7.7860 C   0  0  0  0  0  0  0  0  0  0  0  0
   -2.1136    4.1426    7.5843 C   0  0  0  0  0  0  0  0  0  0  0  0
   -1.2203    3.1873    8.0726 C   0  0  0  0  0  0  0  0  0  0  0  0
   -0.0930    2.9474    7.3867 C   0  0  0  0  0  0  0  0  0  0  0  0
    1.2066    3.0237    8.0787 C   0  0  0  0  0  0  0  0  0  0  0  0
    1.9836    1.9649    8.1099 C   0  0  0  0  0  0  0  0  0  0  0  0
    3.4065    1.8707    7.8112 C   0  0  0  0  0  0  0  0  0  0  0  0
    3.9216    0.4935    7.8345 N   0  0  0  0  0  0  0  0  0  0  0  0
    3.8740   -0.0334    6.4810 C   0  0  0  0  0  0  0  0  0  0  0  0
    2.6972   -1.0129    6.3527 C   0  0  0  0  0  0  0  0  0  0  0  0
    2.3904   -1.1767    4.9045 C   0  0  0  0  0  0  0  0  0  0  0  0
    1.3866   -2.2229    4.5585 C   0  0  0  0  0  0  0  0  0  0  0  0
    1.1123   -2.4125    3.1038 C   0  0  0  0  0  0  0  0  0  0  0  0
    2.3336   -2.9321    2.4150 C   0  0  0  0  0  0  0  0  0  0  0  0
    2.3511   -4.1184    2.0460 O   0  0  0  0  0  0  0  0  0  0  0  0
    3.4083   -2.0912    2.2046 O   0  0  0  0  0  0  0  0  0  0  0  0
    0.0396   -3.3538    2.8483 N   0  0  0  0  0  0  0  0  0  0  0  0
    1.5244    4.3265    8.6953 C   0  0  0  0  0  0  0  0  0  0  0  0
   -3.8829    3.6699    9.1331 C   0  0  0  0  0  0  0  0  0  0  0  0
  1  2  1  0
  2  3  2  0
  3  4  1  0
  4  5  1  0
  5  6  1  0
  6  7  1  0
  4  8  1  0
  4  9  1  0
  3 10  1  0
 10 11  2  3
 11 12  1  0
 12 13  2  3
 13 14  1  0
 14 15  2  3
 15 16  1  0
 16 17  2  3
 17 18  1  0
 18 19  1  0
 19 20  1  0
 20 21  1  0
 21 22  1  0
 22 23  1  0
 23 24  1  0
 24 25  1  0
 25 26  2  0
 25 27  1  0
 24 28  1  0
 16 29  1  0
 12 30  1  0
  7  2  1  0
M  END
$$$$
