
     RDKit          3D

 30 30  0  0  0  0  0  0  0  0999 V2000
   -4.4853    2.5396   13.0321 C   0  0  0  0  0  0  0  0  0  0  0  0
   -3.2235    3.2330   13.5182 C   0  0  0  0  0  0  0  0  0  0  0  0
   -2.4340    3.8765   12.6483 C   0  0  0  0  0  0  0  0  0  0  0  0
   -1.2129    4.5453   13.0977 C   0  0  0  0  0  0  0  0  0  0  0  0
   -0.8267    4.1182   14.5206 C   0  0  0  0  0  0  0  0  0  0  0  0
   -2.0217    4.1785   15.4343 C   0  0  0  0  0  0  0  0  0  0  0  0
   -3.0140    3.1565   14.9771 C   0  0  0  0  0  0  0  0  0  0  0  0
    0.0083    4.1019   12.2897 C   0  0  0  0  0  0  0  0  0  0  0  0
   -1.2833    6.0573   13.0616 C   0  0  0  0  0  0  0  0  0  0  0  0
   -2.8294    3.8814   11.2586 C   0  0  0  0  0  0  0  0  0  0  0  0
   -3.7937    4.0073   10.4521 C   0  0  0  0  0  0  0  0  0  0  0  0
   -4.3193    3.9481    9.1553 C   0  0  0  0  0  0  0  0  0  0  0  0
   -3.5348    4.2631    8.0905 C   0  0  0  0  0  0  0  0  0  0  0  0
   -3.7924    3.9699    6.7501 C   0  0  0  0  0  0  0  0  0  0  0  0
   -3.0392    4.5524    5.8056 C   0  0  0  0  0  0  0  0  0  0  0  0
   -1.8303    3.8647    5.3164 C   0  0  0  0  0  0  0  0  0  0  0  0
   -1.8969    3.1461    4.2187 C   0  0  0  0  0  0  0  0  0  0  0  0
   -0.8071    2.6191    3.4079 C   0  0  0  0  0  0  0  0  0  0  0  0
   -1.2613    1.9177    2.1979 N   0  0  0  0  0  0  0  0  0  0  0  0
   -1.2744    0.4913    2.4763 C   0  0  0  0  0  0  0  0  0  0  0  0
    0.0964   -0.1113    2.1320 C   0  0  0  0  0  0  0  0  0  0  0  0
   -0.1307   -1.3291    1.3053 C   0  0  0  0  0  0  0  0  0  0  0  0
    0.6496   -1.4197    0.0384 C   0  0  0  0  0  0  0  0  0  0  0  0
    0.4067   -2.6332   -0.7956 C   0  0  0  0  0  0  0  0  0  0  0  0
    1.3843   -2.6826   -1.9261 C   0  0  0  0  0  0  0  0  0  0  0  0
    0.9652   -2.9453   -3.0660 O   0  0  0  0  0  0  0  0  0  0  0  0
    2.7212   -2.4377   -1.6835 O   0  0  0  0  0  0  0  0  0  0  0  0
    0.5460   -3.8690   -0.0506 N   0  0  0  0  0  0  0  0  0  0  0  0
   -0.6160    4.0520    6.1343 C   0  0  0  0  0  0  0  0  0  0  0  0
   -5.7099    3.5267    8.7828 C   0  0  0  0  0  0  0  0  0  0  0  0
  1  2  1  0
  2  3  2  0
  3  4  1  0
  4  5  1  0
  5  6  1  0
  6  7  1  0
  4  8  1  0
  4  9  1  0
  3 10  1  0
 10 11  2  3
 11 12  1  0
 12 13  2  3
 13 14  1  0
 14 15  2  3
 15 16  1  0
 16 17  2  3
 17 18  1  0
 18 19  1  0
 19 20  1  0
 20 21  1  0
 21 22  1  0
 22 23  1  0
 23 24  1  0
 24 25  1  0
 25 26  2  0
 25 27  1  0
 24 28  1  0
 16 29  1  0
 12 30  1  0
  7  2  1  0
M  END
$$$$
