
     RDKit          3D

 30 30  0  0  0  0  0  0  0  0999 V2000
    4.1788   -0.8041   10.9611 C   0  0  0  0  0  0  0  0  0  0  0  0
    3.7545   -2.1620   10.4272 C   0  0  0  0  0  0  0  0  0  0  0  0
    2.9729   -2.2420    9.3424 C   0  0  0  0  0  0  0  0  0  0  0  0
    2.5506   -3.5406    8.8174 C   0  0  0  0  0  0  0  0  0  0  0  0
    2.8136   -4.6689    9.8244 C   0  0  0  0  0  0  0  0  0  0  0  0
    4.2104   -4.5702   10.3773 C   0  0  0  0  0  0  0  0  0  0  0  0
    4.3121   -3.3073   11.1727 C   0  0  0  0  0  0  0  0  0  0  0  0
    1.0324   -3.6168    8.6432 C   0  0  0  0  0  0  0  0  0  0  0  0
    3.1994   -3.9203    7.5032 C   0  0  0  0  0  0  0  0  0  0  0  0
    2.5624   -1.0057    8.7176 C   0  0  0  0  0  0  0  0  0  0  0  0
    1.8918    0.0562    8.8543 C   0  0  0  0  0  0  0  0  0  0  0  0
    1.2074    1.1496    8.3085 C   0  0  0  0  0  0  0  0  0  0  0  0
   -0.0875    1.3797    8.6529 C   0  0  0  0  0  0  0  0  0  0  0  0
   -0.6794    2.6223    8.8865 C   0  0  0  0  0  0  0  0  0  0  0  0
   -1.6686    2.7069    9.7882 C   0  0  0  0  0  0  0  0  0  0  0  0
   -3.0701    2.6697    9.3321 C   0  0  0  0  0  0  0  0  0  0  0  0
   -3.3978    3.2619    8.2062 C   0  0  0  0  0  0  0  0  0  0  0  0
   -4.5668    4.0812    7.9150 C   0  0  0  0  0  0  0  0  0  0  0  0
   -4.4827    4.7884    6.6284 N   0  0  0  0  0  0  0  0  0  0  0  0
   -4.1511    3.8196    5.5971 C   0  0  0  0  0  0  0  0  0  0  0  0
   -5.2687    3.7890    4.5432 C   0  0  0  0  0  0  0  0  0  0  0  0
   -4.9919    4.8614    3.5474 C   0  0  0  0  0  0  0  0  0  0  0  0
   -4.7289    4.4110    2.1510 C   0  0  0  0  0  0  0  0  0  0  0  0
   -5.2074    5.3197    1.0682 C   0  0  0  0  0  0  0  0  0  0  0  0
   -4.3974    5.1116   -0.1714 C   0  0  0  0  0  0  0  0  0  0  0  0
   -3.1896    4.8432   -0.0566 O   0  0  0  0  0  0  0  0  0  0  0  0
   -5.0017    5.2207   -1.4080 O   0  0  0  0  0  0  0  0  0  0  0  0
   -6.5968    5.0995    0.7176 N   0  0  0  0  0  0  0  0  0  0  0  0
   -4.0080    1.9477   10.2139 C   0  0  0  0  0  0  0  0  0  0  0  0
    1.7752    2.1662    7.3629 C   0  0  0  0  0  0  0  0  0  0  0  0
  1  2  1  0
  2  3  2  0
  3  4  1  0
  4  5  1  0
  5  6  1  0
  6  7  1  0
  4  8  1  0
  4  9  1  0
  3 10  1  0
 10 11  2  3
 11 12  1  0
 12 13  2  3
 13 14  1  0
 14 15  2  3
 15 16  1  0
 16 17  2  3
 17 18  1  0
 18 19  1  0
 19 20  1  0
 20 21  1  0
 21 22  1  0
 22 23  1  0
 23 24  1  0
 24 25  1  0
 25 26  2  0
 25 27  1  0
 24 28  1  0
 16 29  1  0
 12 30  1  0
  7  2  1  0
M  END
$$$$
