
     RDKit          3D

 30 30  0  0  0  0  0  0  0  0999 V2000
   -3.5702    2.1076    8.9617 C   0  0  0  0  0  0  0  0  0  0  0  0
   -4.3030    3.2479    8.2749 C   0  0  0  0  0  0  0  0  0  0  0  0
   -3.7945    3.8009    7.1660 C   0  0  0  0  0  0  0  0  0  0  0  0
   -4.4838    4.9028    6.4944 C   0  0  0  0  0  0  0  0  0  0  0  0
   -5.5791    5.5084    7.3831 C   0  0  0  0  0  0  0  0  0  0  0  0
   -6.4341    4.4239    7.9828 C   0  0  0  0  0  0  0  0  0  0  0  0
   -5.5837    3.6149    8.9103 C   0  0  0  0  0  0  0  0  0  0  0  0
   -3.5578    6.0999    6.2700 C   0  0  0  0  0  0  0  0  0  0  0  0
   -5.1070    4.5285    5.1663 C   0  0  0  0  0  0  0  0  0  0  0  0
   -2.5462    3.2740    6.6644 C   0  0  0  0  0  0  0  0  0  0  0  0
   -1.3169    3.1068    6.9033 C   0  0  0  0  0  0  0  0  0  0  0  0
   -0.0020    2.9057    6.4651 C   0  0  0  0  0  0  0  0  0  0  0  0
    1.0404    3.2767    7.2552 C   0  0  0  0  0  0  0  0  0  0  0  0
    2.1787    2.5211    7.5421 C   0  0  0  0  0  0  0  0  0  0  0  0
    2.9121    2.8418    8.6182 C   0  0  0  0  0  0  0  0  0  0  0  0
    4.2165    2.1873    8.8274 C   0  0  0  0  0  0  0  0  0  0  0  0
    4.5115    1.1043    8.1448 C   0  0  0  0  0  0  0  0  0  0  0  0
    3.6522    0.3169    7.2705 C   0  0  0  0  0  0  0  0  0  0  0  0
    4.3813   -0.6819    6.4747 N   0  0  0  0  0  0  0  0  0  0  0  0
    4.5273   -1.8849    7.2769 C   0  0  0  0  0  0  0  0  0  0  0  0
    3.1452   -2.3496    7.7611 C   0  0  0  0  0  0  0  0  0  0  0  0
    3.2558   -3.7786    8.1661 C   0  0  0  0  0  0  0  0  0  0  0  0
    2.0080   -4.4178    8.6726 C   0  0  0  0  0  0  0  0  0  0  0  0
    2.1483   -5.8109    9.1890 C   0  0  0  0  0  0  0  0  0  0  0  0
    2.8930   -5.8046   10.4857 C   0  0  0  0  0  0  0  0  0  0  0  0
    2.4049   -6.4069   11.4567 O   0  0  0  0  0  0  0  0  0  0  0  0
    4.0973   -5.1358   10.5779 O   0  0  0  0  0  0  0  0  0  0  0  0
    0.8726   -6.4571    9.4273 N   0  0  0  0  0  0  0  0  0  0  0  0
    5.0998    2.8300    9.8201 C   0  0  0  0  0  0  0  0  0  0  0  0
    0.4118    2.2678    5.1721 C   0  0  0  0  0  0  0  0  0  0  0  0
  1  2  1  0
  2  3  2  0
  3  4  1  0
  4  5  1  0
  5  6  1  0
  6  7  1  0
  4  8  1  0
  4  9  1  0
  3 10  1  0
 10 11  2  3
 11 12  1  0
 12 13  2  3
 13 14  1  0
 14 15  2  3
 15 16  1  0
 16 17  2  3
 17 18  1  0
 18 19  1  0
 19 20  1  0
 20 21  1  0
 21 22  1  0
 22 23  1  0
 23 24  1  0
 24 25  1  0
 25 26  2  0
 25 27  1  0
 24 28  1  0
 16 29  1  0
 12 30  1  0
  7  2  1  0
M  END
$$$$
