
     RDKit          3D

 30 30  0  0  0  0  0  0  0  0999 V2000
   -1.9658    7.0333    6.3534 C   0  0  0  0  0  0  0  0  0  0  0  0
   -3.0720    6.8853    5.3220 C   0  0  0  0  0  0  0  0  0  0  0  0
   -3.9173    5.8485    5.3890 C   0  0  0  0  0  0  0  0  0  0  0  0
   -4.9850    5.6874    4.4018 C   0  0  0  0  0  0  0  0  0  0  0  0
   -4.7714    6.5996    3.1857 C   0  0  0  0  0  0  0  0  0  0  0  0
   -4.4461    8.0019    3.6264 C   0  0  0  0  0  0  0  0  0  0  0  0
   -3.1268    7.9780    4.3314 C   0  0  0  0  0  0  0  0  0  0  0  0
   -4.9644    4.2967    3.7641 C   0  0  0  0  0  0  0  0  0  0  0  0
   -6.3758    5.9413    4.9436 C   0  0  0  0  0  0  0  0  0  0  0  0
   -3.7334    4.9000    6.4632 C   0  0  0  0  0  0  0  0  0  0  0  0
   -2.9915    3.9919    6.9332 C   0  0  0  0  0  0  0  0  0  0  0  0
   -2.7439    2.9730    7.8617 C   0  0  0  0  0  0  0  0  0  0  0  0
   -1.4708    2.7167    8.2639 C   0  0  0  0  0  0  0  0  0  0  0  0
   -0.8617    1.4637    8.3536 C   0  0  0  0  0  0  0  0  0  0  0  0
    0.4446    1.4008    8.6511 C   0  0  0  0  0  0  0  0  0  0  0  0
    1.1273    0.0940    8.6442 C   0  0  0  0  0  0  0  0  0  0  0  0
    1.9590   -0.1939    7.6690 C   0  0  0  0  0  0  0  0  0  0  0  0
    2.7074   -1.4235    7.4437 C   0  0  0  0  0  0  0  0  0  0  0  0
    4.0576   -1.4045    8.0261 N   0  0  0  0  0  0  0  0  0  0  0  0
    3.9618   -1.8317    9.4118 C   0  0  0  0  0  0  0  0  0  0  0  0
    4.6411   -3.2001    9.5750 C   0  0  0  0  0  0  0  0  0  0  0  0
    3.5744   -4.2350    9.6716 C   0  0  0  0  0  0  0  0  0  0  0  0
    3.5829   -5.0764   10.9021 C   0  0  0  0  0  0  0  0  0  0  0  0
    3.7430   -6.5450   10.6907 C   0  0  0  0  0  0  0  0  0  0  0  0
    3.3835   -7.2851   11.9394 C   0  0  0  0  0  0  0  0  0  0  0  0
    3.5871   -8.5099   11.9863 O   0  0  0  0  0  0  0  0  0  0  0  0
    2.8372   -6.5992   13.0059 O   0  0  0  0  0  0  0  0  0  0  0  0
    2.9018   -7.0587    9.6275 N   0  0  0  0  0  0  0  0  0  0  0  0
    0.8004   -0.8014    9.7711 C   0  0  0  0  0  0  0  0  0  0  0  0
   -3.7762    2.1071    8.5211 C   0  0  0  0  0  0  0  0  0  0  0  0
  1  2  1  0
  2  3  2  0
  3  4  1  0
  4  5  1  0
  5  6  1  0
  6  7  1  0
  4  8  1  0
  4  9  1  0
  3 10  1  0
 10 11  2  3
 11 12  1  0
 12 13  2  3
 13 14  1  0
 14 15  2  3
 15 16  1  0
 16 17  2  3
 17 18  1  0
 18 19  1  0
 19 20  1  0
 20 21  1  0
 21 22  1  0
 22 23  1  0
 23 24  1  0
 24 25  1  0
 25 26  2  0
 25 27  1  0
 24 28  1  0
 16 29  1  0
 12 30  1  0
  7  2  1  0
M  END
$$$$
