
     RDKit          3D

 30 30  0  0  0  0  0  0  0  0999 V2000
   -0.0089    8.0830   10.5471 C   0  0  0  0  0  0  0  0  0  0  0  0
    0.9562    7.2660    9.7043 C   0  0  0  0  0  0  0  0  0  0  0  0
    0.4868    6.3916    8.8048 C   0  0  0  0  0  0  0  0  0  0  0  0
    1.4013    5.5931    7.9883 C   0  0  0  0  0  0  0  0  0  0  0  0
    2.8351    5.6430    8.5343 C   0  0  0  0  0  0  0  0  0  0  0  0
    3.2387    7.0623    8.8332 C   0  0  0  0  0  0  0  0  0  0  0  0
    2.3799    7.5693    9.9483 C   0  0  0  0  0  0  0  0  0  0  0  0
    1.0807    4.0994    8.0716 C   0  0  0  0  0  0  0  0  0  0  0  0
    1.4384    5.9906    6.5278 C   0  0  0  0  0  0  0  0  0  0  0  0
   -0.9466    6.2651    8.6754 C   0  0  0  0  0  0  0  0  0  0  0  0
   -1.9245    5.4652    8.6777 C   0  0  0  0  0  0  0  0  0  0  0  0
   -3.2922    5.2050    8.5259 C   0  0  0  0  0  0  0  0  0  0  0  0
   -3.7011    4.0822    7.8774 C   0  0  0  0  0  0  0  0  0  0  0  0
   -4.4678    4.0255    6.7121 C   0  0  0  0  0  0  0  0  0  0  0  0
   -4.7485    2.8260    6.1818 C   0  0  0  0  0  0  0  0  0  0  0  0
   -4.5410    2.6051    4.7389 C   0  0  0  0  0  0  0  0  0  0  0  0
   -4.2810    1.3934    4.3029 C   0  0  0  0  0  0  0  0  0  0  0  0
   -3.2322    0.9601    3.3891 C   0  0  0  0  0  0  0  0  0  0  0  0
   -3.5311    1.2403    1.9767 N   0  0  0  0  0  0  0  0  0  0  0  0
   -2.4112    1.9737    1.4111 C   0  0  0  0  0  0  0  0  0  0  0  0
   -1.8653    1.2160    0.1911 C   0  0  0  0  0  0  0  0  0  0  0  0
   -0.9717    0.1314    0.6846 C   0  0  0  0  0  0  0  0  0  0  0  0
   -0.4788   -0.8327   -0.3398 C   0  0  0  0  0  0  0  0  0  0  0  0
    0.3489   -1.9649    0.1704 C   0  0  0  0  0  0  0  0  0  0  0  0
    0.9470   -2.7193   -0.9739 C   0  0  0  0  0  0  0  0  0  0  0  0
    0.1866   -3.2644   -1.7915 O   0  0  0  0  0  0  0  0  0  0  0  0
    2.3200   -2.7947   -1.0983 O   0  0  0  0  0  0  0  0  0  0  0  0
    1.4413   -1.5300    1.0184 N   0  0  0  0  0  0  0  0  0  0  0  0
   -4.6460    3.8072    3.8889 C   0  0  0  0  0  0  0  0  0  0  0  0
   -4.4167    6.0489    9.0489 C   0  0  0  0  0  0  0  0  0  0  0  0
  1  2  1  0
  2  3  2  0
  3  4  1  0
  4  5  1  0
  5  6  1  0
  6  7  1  0
  4  8  1  0
  4  9  1  0
  3 10  1  0
 10 11  2  3
 11 12  1  0
 12 13  2  3
 13 14  1  0
 14 15  2  3
 15 16  1  0
 16 17  2  3
 17 18  1  0
 18 19  1  0
 19 20  1  0
 20 21  1  0
 21 22  1  0
 22 23  1  0
 23 24  1  0
 24 25  1  0
 25 26  2  0
 25 27  1  0
 24 28  1  0
 16 29  1  0
 12 30  1  0
  7  2  1  0
M  END
$$$$
