
     RDKit          3D

 30 30  0  0  0  0  0  0  0  0999 V2000
   -4.2345    3.1302   10.0792 C   0  0  0  0  0  0  0  0  0  0  0  0
   -5.5212    3.8349    9.6831 C   0  0  0  0  0  0  0  0  0  0  0  0
   -5.5180    4.7244    8.6816 C   0  0  0  0  0  0  0  0  0  0  0  0
   -6.7464    5.4159    8.2899 C   0  0  0  0  0  0  0  0  0  0  0  0
   -7.8479    5.2515    9.3463 C   0  0  0  0  0  0  0  0  0  0  0  0
   -7.9713    3.8099    9.7626 C   0  0  0  0  0  0  0  0  0  0  0  0
   -6.7062    3.4113   10.4543 C   0  0  0  0  0  0  0  0  0  0  0  0
   -6.5588    6.9341    8.2592 C   0  0  0  0  0  0  0  0  0  0  0  0
   -7.3060    4.9790    6.9527 C   0  0  0  0  0  0  0  0  0  0  0  0
   -4.2636    4.9759    8.0105 C   0  0  0  0  0  0  0  0  0  0  0  0
   -3.6691    5.0123    6.8963 C   0  0  0  0  0  0  0  0  0  0  0  0
   -2.5044    5.1775    6.1361 C   0  0  0  0  0  0  0  0  0  0  0  0
   -2.2019    4.2848    5.1563 C   0  0  0  0  0  0  0  0  0  0  0  0
   -0.9535    3.7114    4.9080 C   0  0  0  0  0  0  0  0  0  0  0  0
   -0.8748    2.6814    4.0527 C   0  0  0  0  0  0  0  0  0  0  0  0
    0.4493    2.1732    3.6501 C   0  0  0  0  0  0  0  0  0  0  0  0
    0.7069    0.8894    3.7564 C   0  0  0  0  0  0  0  0  0  0  0  0
    1.9097    0.1665    3.3646 C   0  0  0  0  0  0  0  0  0  0  0  0
    1.8091   -1.2881    3.5553 N   0  0  0  0  0  0  0  0  0  0  0  0
    1.5532   -1.5462    4.9624 C   0  0  0  0  0  0  0  0  0  0  0  0
    2.8881   -1.6574    5.7149 C   0  0  0  0  0  0  0  0  0  0  0  0
    2.5894   -1.9878    7.1361 C   0  0  0  0  0  0  0  0  0  0  0  0
    3.7672   -2.1658    8.0322 C   0  0  0  0  0  0  0  0  0  0  0  0
    3.4720   -2.6385    9.4166 C   0  0  0  0  0  0  0  0  0  0  0  0
    2.0442   -2.3575    9.7610 C   0  0  0  0  0  0  0  0  0  0  0  0
    1.6981   -1.1800    9.9549 O   0  0  0  0  0  0  0  0  0  0  0  0
    1.1466   -3.4023    9.8559 O   0  0  0  0  0  0  0  0  0  0  0  0
    3.6842   -4.0627    9.5855 N   0  0  0  0  0  0  0  0  0  0  0  0
    1.3963    3.1888    3.1498 C   0  0  0  0  0  0  0  0  0  0  0  0
   -1.5166    6.2991    6.2633 C   0  0  0  0  0  0  0  0  0  0  0  0
  1  2  1  0
  2  3  2  0
  3  4  1  0
  4  5  1  0
  5  6  1  0
  6  7  1  0
  4  8  1  0
  4  9  1  0
  3 10  1  0
 10 11  2  3
 11 12  1  0
 12 13  2  3
 13 14  1  0
 14 15  2  3
 15 16  1  0
 16 17  2  3
 17 18  1  0
 18 19  1  0
 19 20  1  0
 20 21  1  0
 21 22  1  0
 22 23  1  0
 23 24  1  0
 24 25  1  0
 25 26  2  0
 25 27  1  0
 24 28  1  0
 16 29  1  0
 12 30  1  0
  7  2  1  0
M  END
$$$$
