
     RDKit          3D

 30 30  0  0  0  0  0  0  0  0999 V2000
   -7.1809    5.3718    8.3659 C   0  0  0  0  0  0  0  0  0  0  0  0
   -6.5685    6.6104    8.9985 C   0  0  0  0  0  0  0  0  0  0  0  0
   -5.2485    6.8225    8.9170 C   0  0  0  0  0  0  0  0  0  0  0  0
   -4.6411    8.0069    9.5244 C   0  0  0  0  0  0  0  0  0  0  0  0
   -5.6085    8.7043   10.4910 C   0  0  0  0  0  0  0  0  0  0  0  0
   -6.9624    8.8735    9.8547 C   0  0  0  0  0  0  0  0  0  0  0  0
   -7.5484    7.5155    9.6302 C   0  0  0  0  0  0  0  0  0  0  0  0
   -3.4782    7.6389   10.4481 C   0  0  0  0  0  0  0  0  0  0  0  0
   -4.1490    9.0337    8.5266 C   0  0  0  0  0  0  0  0  0  0  0  0
   -4.4526    5.8421    8.2150 C   0  0  0  0  0  0  0  0  0  0  0  0
   -4.4506    4.9555    7.3150 C   0  0  0  0  0  0  0  0  0  0  0  0
   -3.7915    3.9674    6.5729 C   0  0  0  0  0  0  0  0  0  0  0  0
   -2.7059    3.3376    7.0958 C   0  0  0  0  0  0  0  0  0  0  0  0
   -1.6680    2.7355    6.3822 C   0  0  0  0  0  0  0  0  0  0  0  0
   -0.6728    2.1479    7.0626 C   0  0  0  0  0  0  0  0  0  0  0  0
    0.5729    1.7898    6.3599 C   0  0  0  0  0  0  0  0  0  0  0  0
    0.7467    0.5559    5.9439 C   0  0  0  0  0  0  0  0  0  0  0  0
    1.8830   -0.0131    5.2311 C   0  0  0  0  0  0  0  0  0  0  0  0
    1.7898   -1.4687    5.0440 N   0  0  0  0  0  0  0  0  0  0  0  0
    0.6950   -1.7408    4.1278 C   0  0  0  0  0  0  0  0  0  0  0  0
    1.2590   -2.2306    2.7852 C   0  0  0  0  0  0  0  0  0  0  0  0
    0.5268   -1.5286    1.6947 C   0  0  0  0  0  0  0  0  0  0  0  0
    0.9971   -1.7985    0.3061 C   0  0  0  0  0  0  0  0  0  0  0  0
    0.2787   -1.0722   -0.7819 C   0  0  0  0  0  0  0  0  0  0  0  0
    0.8591   -1.4357   -2.1112 C   0  0  0  0  0  0  0  0  0  0  0  0
    0.1227   -1.4068   -3.1116 O   0  0  0  0  0  0  0  0  0  0  0  0
    2.1897   -1.7932   -2.2002 O   0  0  0  0  0  0  0  0  0  0  0  0
   -1.1368   -1.3817   -0.8300 N   0  0  0  0  0  0  0  0  0  0  0  0
    1.5435    2.8878    6.1846 C   0  0  0  0  0  0  0  0  0  0  0  0
   -4.1820    3.4762    5.2105 C   0  0  0  0  0  0  0  0  0  0  0  0
  1  2  1  0
  2  3  2  0
  3  4  1  0
  4  5  1  0
  5  6  1  0
  6  7  1  0
  4  8  1  0
  4  9  1  0
  3 10  1  0
 10 11  2  3
 11 12  1  0
 12 13  2  3
 13 14  1  0
 14 15  2  3
 15 16  1  0
 16 17  2  3
 17 18  1  0
 18 19  1  0
 19 20  1  0
 20 21  1  0
 21 22  1  0
 22 23  1  0
 23 24  1  0
 24 25  1  0
 25 26  2  0
 25 27  1  0
 24 28  1  0
 16 29  1  0
 12 30  1  0
  7  2  1  0
M  END
$$$$
