
     RDKit          3D

 30 30  0  0  0  0  0  0  0  0999 V2000
   -6.0477    1.9874    2.8424 C   0  0  0  0  0  0  0  0  0  0  0  0
   -5.8899    3.1327    1.8563 C   0  0  0  0  0  0  0  0  0  0  0  0
   -5.2833    4.2653    2.2351 C   0  0  0  0  0  0  0  0  0  0  0  0
   -5.1270    5.3801    1.3006 C   0  0  0  0  0  0  0  0  0  0  0  0
   -6.0097    5.2022    0.0573 C   0  0  0  0  0  0  0  0  0  0  0  0
   -5.8658    3.8108   -0.4994 C   0  0  0  0  0  0  0  0  0  0  0  0
   -6.4095    2.8449    0.5053 C   0  0  0  0  0  0  0  0  0  0  0  0
   -5.6598    6.6902    1.8844 C   0  0  0  0  0  0  0  0  0  0  0  0
   -3.7032    5.6095    0.8395 C   0  0  0  0  0  0  0  0  0  0  0  0
   -4.7964    4.3450    3.5930 C   0  0  0  0  0  0  0  0  0  0  0  0
   -4.6447    3.7223    4.6817 C   0  0  0  0  0  0  0  0  0  0  0  0
   -4.4267    3.7125    6.0651 C   0  0  0  0  0  0  0  0  0  0  0  0
   -3.5241    2.8498    6.6033 C   0  0  0  0  0  0  0  0  0  0  0  0
   -3.1878    2.7305    7.9530 C   0  0  0  0  0  0  0  0  0  0  0  0
   -2.0004    2.1983    8.2779 C   0  0  0  0  0  0  0  0  0  0  0  0
   -1.6682    1.9799    9.6976 C   0  0  0  0  0  0  0  0  0  0  0  0
   -1.1411    0.8349   10.0678 C   0  0  0  0  0  0  0  0  0  0  0  0
   -0.1948    0.5739   11.1444 C   0  0  0  0  0  0  0  0  0  0  0  0
    0.1640   -0.8458   11.2798 N   0  0  0  0  0  0  0  0  0  0  0  0
    0.8397   -1.2627   10.0626 C   0  0  0  0  0  0  0  0  0  0  0  0
    2.3087   -0.8150   10.1121 C   0  0  0  0  0  0  0  0  0  0  0  0
    3.1358   -1.9918   10.4984 C   0  0  0  0  0  0  0  0  0  0  0  0
    4.3958   -2.1924    9.7276 C   0  0  0  0  0  0  0  0  0  0  0  0
    5.2398   -3.3515   10.1414 C   0  0  0  0  0  0  0  0  0  0  0  0
    4.4874   -4.6291    9.9473 C   0  0  0  0  0  0  0  0  0  0  0  0
    3.6708   -4.9782   10.8163 O   0  0  0  0  0  0  0  0  0  0  0  0
    4.7127   -5.3889    8.8167 O   0  0  0  0  0  0  0  0  0  0  0  0
    6.4700   -3.4556    9.3812 N   0  0  0  0  0  0  0  0  0  0  0  0
   -1.9707    3.1056   10.6031 C   0  0  0  0  0  0  0  0  0  0  0  0
   -5.0846    4.6101    7.0708 C   0  0  0  0  0  0  0  0  0  0  0  0
  1  2  1  0
  2  3  2  0
  3  4  1  0
  4  5  1  0
  5  6  1  0
  6  7  1  0
  4  8  1  0
  4  9  1  0
  3 10  1  0
 10 11  2  3
 11 12  1  0
 12 13  2  3
 13 14  1  0
 14 15  2  3
 15 16  1  0
 16 17  2  3
 17 18  1  0
 18 19  1  0
 19 20  1  0
 20 21  1  0
 21 22  1  0
 22 23  1  0
 23 24  1  0
 24 25  1  0
 25 26  2  0
 25 27  1  0
 24 28  1  0
 16 29  1  0
 12 30  1  0
  7  2  1  0
M  END
$$$$
