
     RDKit          3D

 30 30  0  0  0  0  0  0  0  0999 V2000
   -7.2952    5.1666    2.6335 C   0  0  0  0  0  0  0  0  0  0  0  0
   -6.3876    4.5059    1.6095 C   0  0  0  0  0  0  0  0  0  0  0  0
   -5.0754    4.3896    1.8520 C   0  0  0  0  0  0  0  0  0  0  0  0
   -4.1859    3.7609    0.8754 C   0  0  0  0  0  0  0  0  0  0  0  0
   -4.8672    3.6073   -0.4916 C   0  0  0  0  0  0  0  0  0  0  0  0
   -6.2438    3.0184   -0.3338 C   0  0  0  0  0  0  0  0  0  0  0  0
   -7.0904    3.9984    0.4150 C   0  0  0  0  0  0  0  0  0  0  0  0
   -2.9910    4.6546    0.5369 C   0  0  0  0  0  0  0  0  0  0  0  0
   -3.6608    2.4045    1.2960 C   0  0  0  0  0  0  0  0  0  0  0  0
   -4.5751    4.9085    3.1042 C   0  0  0  0  0  0  0  0  0  0  0  0
   -3.9178    4.6457    4.1505 C   0  0  0  0  0  0  0  0  0  0  0  0
   -3.3611    5.0347    5.3754 C   0  0  0  0  0  0  0  0  0  0  0  0
   -3.7587    4.4267    6.5246 C   0  0  0  0  0  0  0  0  0  0  0  0
   -3.4460    4.8206    7.8269 C   0  0  0  0  0  0  0  0  0  0  0  0
   -3.9995    4.1571    8.8526 C   0  0  0  0  0  0  0  0  0  0  0  0
   -3.2707    3.0314    9.4653 C   0  0  0  0  0  0  0  0  0  0  0  0
   -2.2377    3.2767   10.2389 C   0  0  0  0  0  0  0  0  0  0  0  0
   -1.7220    2.4845   11.3476 C   0  0  0  0  0  0  0  0  0  0  0  0
   -1.7328    1.0367   11.0899 N   0  0  0  0  0  0  0  0  0  0  0  0
   -0.3720    0.6150   10.8030 C   0  0  0  0  0  0  0  0  0  0  0  0
   -0.3761   -0.3576    9.6136 C   0  0  0  0  0  0  0  0  0  0  0  0
    1.0256   -0.8022    9.3777 C   0  0  0  0  0  0  0  0  0  0  0  0
    1.5535   -1.8381   10.3105 C   0  0  0  0  0  0  0  0  0  0  0  0
    1.9074   -3.1523    9.6983 C   0  0  0  0  0  0  0  0  0  0  0  0
    2.7196   -2.9396    8.4609 C   0  0  0  0  0  0  0  0  0  0  0  0
    2.1329   -2.6480    7.4052 O   0  0  0  0  0  0  0  0  0  0  0  0
    4.0930   -3.0703    8.5151 O   0  0  0  0  0  0  0  0  0  0  0  0
    2.6836   -3.9982   10.5837 N   0  0  0  0  0  0  0  0  0  0  0  0
   -3.7854    1.6868    9.1400 C   0  0  0  0  0  0  0  0  0  0  0  0
   -2.3006    6.0768    5.5740 C   0  0  0  0  0  0  0  0  0  0  0  0
  1  2  1  0
  2  3  2  0
  3  4  1  0
  4  5  1  0
  5  6  1  0
  6  7  1  0
  4  8  1  0
  4  9  1  0
  3 10  1  0
 10 11  2  3
 11 12  1  0
 12 13  2  3
 13 14  1  0
 14 15  2  3
 15 16  1  0
 16 17  2  3
 17 18  1  0
 18 19  1  0
 19 20  1  0
 20 21  1  0
 21 22  1  0
 22 23  1  0
 23 24  1  0
 24 25  1  0
 25 26  2  0
 25 27  1  0
 24 28  1  0
 16 29  1  0
 12 30  1  0
  7  2  1  0
M  END
$$$$
