
     RDKit          3D

 30 30  0  0  0  0  0  0  0  0999 V2000
   -2.2663    7.2667    6.0115 C   0  0  0  0  0  0  0  0  0  0  0  0
   -3.4893    6.8332    5.2207 C   0  0  0  0  0  0  0  0  0  0  0  0
   -4.0383    5.6311    5.4395 C   0  0  0  0  0  0  0  0  0  0  0  0
   -5.2129    5.1952    4.6841 C   0  0  0  0  0  0  0  0  0  0  0  0
   -5.4643    6.0927    3.4644 C   0  0  0  0  0  0  0  0  0  0  0  0
   -5.3950    7.5456    3.8529 C   0  0  0  0  0  0  0  0  0  0  0  0
   -3.9938    7.8511    4.2786 C   0  0  0  0  0  0  0  0  0  0  0  0
   -4.9948    3.8277    4.0334 C   0  0  0  0  0  0  0  0  0  0  0  0
   -6.4883    5.1364    5.4977 C   0  0  0  0  0  0  0  0  0  0  0  0
   -3.4281    4.7860    6.4400 C   0  0  0  0  0  0  0  0  0  0  0  0
   -2.5841    3.8706    6.6540 C   0  0  0  0  0  0  0  0  0  0  0  0
   -1.9364    2.9826    7.5220 C   0  0  0  0  0  0  0  0  0  0  0  0
   -0.6261    2.6772    7.3260 C   0  0  0  0  0  0  0  0  0  0  0  0
    0.0901    1.6475    7.9390 C   0  0  0  0  0  0  0  0  0  0  0  0
    1.3704    1.4545    7.5892 C   0  0  0  0  0  0  0  0  0  0  0  0
    1.8474    0.0877    7.3102 C   0  0  0  0  0  0  0  0  0  0  0  0
    2.8096   -0.4221    8.0451 C   0  0  0  0  0  0  0  0  0  0  0  0
    2.8676   -1.7262    8.6922 C   0  0  0  0  0  0  0  0  0  0  0  0
    3.2686   -2.8136    7.7870 N   0  0  0  0  0  0  0  0  0  0  0  0
    3.5901   -3.9805    8.5915 C   0  0  0  0  0  0  0  0  0  0  0  0
    2.7922   -3.9347    9.9037 C   0  0  0  0  0  0  0  0  0  0  0  0
    3.1212   -5.1589   10.6856 C   0  0  0  0  0  0  0  0  0  0  0  0
    2.3420   -5.3689   11.9388 C   0  0  0  0  0  0  0  0  0  0  0  0
    3.0718   -6.0272   13.0618 C   0  0  0  0  0  0  0  0  0  0  0  0
    2.1656   -6.1829   14.2411 C   0  0  0  0  0  0  0  0  0  0  0  0
    1.9691   -5.2006   14.9761 O   0  0  0  0  0  0  0  0  0  0  0  0
    1.5704   -7.4040   14.4879 O   0  0  0  0  0  0  0  0  0  0  0  0
    3.5650   -7.3469   12.7196 N   0  0  0  0  0  0  0  0  0  0  0  0
    1.1783   -0.6046    6.1914 C   0  0  0  0  0  0  0  0  0  0  0  0
   -2.5428    2.3184    8.7225 C   0  0  0  0  0  0  0  0  0  0  0  0
  1  2  1  0
  2  3  2  0
  3  4  1  0
  4  5  1  0
  5  6  1  0
  6  7  1  0
  4  8  1  0
  4  9  1  0
  3 10  1  0
 10 11  2  3
 11 12  1  0
 12 13  2  3
 13 14  1  0
 14 15  2  3
 15 16  1  0
 16 17  2  3
 17 18  1  0
 18 19  1  0
 19 20  1  0
 20 21  1  0
 21 22  1  0
 22 23  1  0
 23 24  1  0
 24 25  1  0
 25 26  2  0
 25 27  1  0
 24 28  1  0
 16 29  1  0
 12 30  1  0
  7  2  1  0
M  END
$$$$
