
     RDKit          3D

 30 30  0  0  0  0  0  0  0  0999 V2000
   -4.8874    6.2791    2.8027 C   0  0  0  0  0  0  0  0  0  0  0  0
   -4.9789    5.6646    1.4160 C   0  0  0  0  0  0  0  0  0  0  0  0
   -4.8577    4.3398    1.2599 C   0  0  0  0  0  0  0  0  0  0  0  0
   -4.9382    3.7314   -0.0682 C   0  0  0  0  0  0  0  0  0  0  0  0
   -4.8229    4.7845   -1.1791 C   0  0  0  0  0  0  0  0  0  0  0  0
   -5.7324    5.9512   -0.8992 C   0  0  0  0  0  0  0  0  0  0  0  0
   -5.2481    6.6371    0.3389 C   0  0  0  0  0  0  0  0  0  0  0  0
   -3.7340    2.8324   -0.3555 C   0  0  0  0  0  0  0  0  0  0  0  0
   -6.1990    2.9282   -0.3084 C   0  0  0  0  0  0  0  0  0  0  0  0
   -4.6421    3.5408    2.4442 C   0  0  0  0  0  0  0  0  0  0  0  0
   -3.9284    3.3791    3.4740 C   0  0  0  0  0  0  0  0  0  0  0  0
   -3.4640    2.5816    4.5275 C   0  0  0  0  0  0  0  0  0  0  0  0
   -3.6922    2.9574    5.8141 C   0  0  0  0  0  0  0  0  0  0  0  0
   -3.0308    2.4860    6.9495 C   0  0  0  0  0  0  0  0  0  0  0  0
   -3.7028    2.4228    8.1085 C   0  0  0  0  0  0  0  0  0  0  0  0
   -3.0178    2.7810    9.3639 C   0  0  0  0  0  0  0  0  0  0  0  0
   -2.2486    1.8947    9.9544 C   0  0  0  0  0  0  0  0  0  0  0  0
   -0.9685    2.0992   10.6195 C   0  0  0  0  0  0  0  0  0  0  0  0
   -0.6978    1.1227   11.6852 N   0  0  0  0  0  0  0  0  0  0  0  0
   -0.1570   -0.0799   11.0742 C   0  0  0  0  0  0  0  0  0  0  0  0
    1.3214    0.1443   10.7209 C   0  0  0  0  0  0  0  0  0  0  0  0
    1.7656   -0.9869    9.8599 C   0  0  0  0  0  0  0  0  0  0  0  0
    3.1748   -0.9326    9.3769 C   0  0  0  0  0  0  0  0  0  0  0  0
    3.7994   -2.2427    9.0293 C   0  0  0  0  0  0  0  0  0  0  0  0
    3.9842   -3.0664   10.2636 C   0  0  0  0  0  0  0  0  0  0  0  0
    3.2651   -2.8330   11.2496 O   0  0  0  0  0  0  0  0  0  0  0  0
    4.9416   -4.0610   10.2833 O   0  0  0  0  0  0  0  0  0  0  0  0
    3.0000   -3.0232    8.1054 N   0  0  0  0  0  0  0  0  0  0  0  0
   -3.2698    4.1484    9.8594 C   0  0  0  0  0  0  0  0  0  0  0  0
   -2.7329    1.2785    4.3949 C   0  0  0  0  0  0  0  0  0  0  0  0
  1  2  1  0
  2  3  2  0
  3  4  1  0
  4  5  1  0
  5  6  1  0
  6  7  1  0
  4  8  1  0
  4  9  1  0
  3 10  1  0
 10 11  2  3
 11 12  1  0
 12 13  2  3
 13 14  1  0
 14 15  2  3
 15 16  1  0
 16 17  2  3
 17 18  1  0
 18 19  1  0
 19 20  1  0
 20 21  1  0
 21 22  1  0
 22 23  1  0
 23 24  1  0
 24 25  1  0
 25 26  2  0
 25 27  1  0
 24 28  1  0
 16 29  1  0
 12 30  1  0
  7  2  1  0
M  END
$$$$
