
     RDKit          3D

 30 30  0  0  0  0  0  0  0  0999 V2000
   -5.8849    5.6603    9.3121 C   0  0  0  0  0  0  0  0  0  0  0  0
   -6.1523    5.6518    7.8163 C   0  0  0  0  0  0  0  0  0  0  0  0
   -5.1355    5.7695    6.9523 C   0  0  0  0  0  0  0  0  0  0  0  0
   -5.3748    5.7683    5.5090 C   0  0  0  0  0  0  0  0  0  0  0  0
   -6.8620    5.9651    5.1835 C   0  0  0  0  0  0  0  0  0  0  0  0
   -7.7134    5.0512    6.0240 C   0  0  0  0  0  0  0  0  0  0  0  0
   -7.5707    5.4619    7.4555 C   0  0  0  0  0  0  0  0  0  0  0  0
   -4.7364    6.9795    4.8260 C   0  0  0  0  0  0  0  0  0  0  0  0
   -4.8983    4.5176    4.8012 C   0  0  0  0  0  0  0  0  0  0  0  0
   -3.8035    5.9008    7.4963 C   0  0  0  0  0  0  0  0  0  0  0  0
   -2.6749    5.3486    7.6284 C   0  0  0  0  0  0  0  0  0  0  0  0
   -1.2967    5.4237    7.8659 C   0  0  0  0  0  0  0  0  0  0  0  0
   -0.4611    4.5091    7.3057 C   0  0  0  0  0  0  0  0  0  0  0  0
    0.1825    3.4575    7.9605 C   0  0  0  0  0  0  0  0  0  0  0  0
    1.0949    2.7403    7.2882 C   0  0  0  0  0  0  0  0  0  0  0  0
    0.9130    1.2839    7.1493 C   0  0  0  0  0  0  0  0  0  0  0  0
    1.7095    0.6077    6.3530 C   0  0  0  0  0  0  0  0  0  0  0  0
    1.6200   -0.7888    5.9471 C   0  0  0  0  0  0  0  0  0  0  0  0
    2.8665   -1.3139    5.3702 N   0  0  0  0  0  0  0  0  0  0  0  0
    2.7896   -1.1836    3.9248 C   0  0  0  0  0  0  0  0  0  0  0  0
    1.5597   -1.9443    3.4057 C   0  0  0  0  0  0  0  0  0  0  0  0
    1.5283   -1.8113    1.9227 C   0  0  0  0  0  0  0  0  0  0  0  0
    0.8762   -2.9243    1.1756 C   0  0  0  0  0  0  0  0  0  0  0  0
    0.0050   -2.5240    0.0320 C   0  0  0  0  0  0  0  0  0  0  0  0
    0.8348   -1.9330   -1.0626 C   0  0  0  0  0  0  0  0  0  0  0  0
    1.2868   -0.7850   -0.9149 O   0  0  0  0  0  0  0  0  0  0  0  0
    1.0802   -2.6676   -2.2056 O   0  0  0  0  0  0  0  0  0  0  0  0
   -0.7294   -3.6372   -0.5365 N   0  0  0  0  0  0  0  0  0  0  0  0
   -0.1861    0.7006    7.9432 C   0  0  0  0  0  0  0  0  0  0  0  0
   -0.5956    6.4675    8.6839 C   0  0  0  0  0  0  0  0  0  0  0  0
  1  2  1  0
  2  3  2  0
  3  4  1  0
  4  5  1  0
  5  6  1  0
  6  7  1  0
  4  8  1  0
  4  9  1  0
  3 10  1  0
 10 11  2  3
 11 12  1  0
 12 13  2  3
 13 14  1  0
 14 15  2  3
 15 16  1  0
 16 17  2  3
 17 18  1  0
 18 19  1  0
 19 20  1  0
 20 21  1  0
 21 22  1  0
 22 23  1  0
 23 24  1  0
 24 25  1  0
 25 26  2  0
 25 27  1  0
 24 28  1  0
 16 29  1  0
 12 30  1  0
  7  2  1  0
M  END
$$$$
