
     RDKit          3D

 30 30  0  0  0  0  0  0  0  0999 V2000
   -5.9826    5.5944    8.0045 C   0  0  0  0  0  0  0  0  0  0  0  0
   -6.1401    5.3742    6.5092 C   0  0  0  0  0  0  0  0  0  0  0  0
   -5.0631    5.3818    5.7128 C   0  0  0  0  0  0  0  0  0  0  0  0
   -5.1965    5.1765    4.2704 C   0  0  0  0  0  0  0  0  0  0  0  0
   -6.6562    5.3089    3.8143 C   0  0  0  0  0  0  0  0  0  0  0  0
   -7.5656    4.5116    4.7109 C   0  0  0  0  0  0  0  0  0  0  0  0
   -7.5282    5.1196    6.0773 C   0  0  0  0  0  0  0  0  0  0  0  0
   -4.5115    6.2878    3.4724 C   0  0  0  0  0  0  0  0  0  0  0  0
   -4.6681    3.8448    3.7809 C   0  0  0  0  0  0  0  0  0  0  0  0
   -3.7745    5.6030    6.3277 C   0  0  0  0  0  0  0  0  0  0  0  0
   -2.7957    5.0616    6.9149 C   0  0  0  0  0  0  0  0  0  0  0  0
   -1.5691    5.1517    7.5849 C   0  0  0  0  0  0  0  0  0  0  0  0
   -0.6477    4.1613    7.4488 C   0  0  0  0  0  0  0  0  0  0  0  0
    0.6791    4.1924    7.8819 C   0  0  0  0  0  0  0  0  0  0  0  0
    1.5705    3.3836    7.2902 C   0  0  0  0  0  0  0  0  0  0  0  0
    1.4843    1.9279    7.5074 C   0  0  0  0  0  0  0  0  0  0  0  0
    1.6316    1.1139    6.4869 C   0  0  0  0  0  0  0  0  0  0  0  0
    2.2190   -0.2192    6.4630 C   0  0  0  0  0  0  0  0  0  0  0  0
    1.2682   -1.2733    6.0790 N   0  0  0  0  0  0  0  0  0  0  0  0
    1.6882   -1.8216    4.8003 C   0  0  0  0  0  0  0  0  0  0  0  0
    1.0392   -1.0212    3.6607 C   0  0  0  0  0  0  0  0  0  0  0  0
    0.9751   -1.8996    2.4597 C   0  0  0  0  0  0  0  0  0  0  0  0
    1.8475   -1.5135    1.3143 C   0  0  0  0  0  0  0  0  0  0  0  0
    1.3667   -1.9150   -0.0403 C   0  0  0  0  0  0  0  0  0  0  0  0
    2.5313   -2.1820   -0.9395 C   0  0  0  0  0  0  0  0  0  0  0  0
    2.9738   -1.2519   -1.6344 O   0  0  0  0  0  0  0  0  0  0  0  0
    3.0868   -3.4454   -0.9798 O   0  0  0  0  0  0  0  0  0  0  0  0
    0.5537   -3.1151   -0.0194 N   0  0  0  0  0  0  0  0  0  0  0  0
    1.2296    1.5054    8.8985 C   0  0  0  0  0  0  0  0  0  0  0  0
   -1.1182    6.2865    8.4560 C   0  0  0  0  0  0  0  0  0  0  0  0
  1  2  1  0
  2  3  2  0
  3  4  1  0
  4  5  1  0
  5  6  1  0
  6  7  1  0
  4  8  1  0
  4  9  1  0
  3 10  1  0
 10 11  2  3
 11 12  1  0
 12 13  2  3
 13 14  1  0
 14 15  2  3
 15 16  1  0
 16 17  2  3
 17 18  1  0
 18 19  1  0
 19 20  1  0
 20 21  1  0
 21 22  1  0
 22 23  1  0
 23 24  1  0
 24 25  1  0
 25 26  2  0
 25 27  1  0
 24 28  1  0
 16 29  1  0
 12 30  1  0
  7  2  1  0
M  END
$$$$
