
     RDKit          3D

 30 30  0  0  0  0  0  0  0  0999 V2000
   -3.7818    3.6998    9.1603 C   0  0  0  0  0  0  0  0  0  0  0  0
   -4.6148    4.5778    8.2415 C   0  0  0  0  0  0  0  0  0  0  0  0
   -4.0701    5.0953    7.1326 C   0  0  0  0  0  0  0  0  0  0  0  0
   -4.8557    5.9468    6.2392 C   0  0  0  0  0  0  0  0  0  0  0  0
   -6.1608    6.4083    6.9025 C   0  0  0  0  0  0  0  0  0  0  0  0
   -6.8686    5.2449    7.5446 C   0  0  0  0  0  0  0  0  0  0  0  0
   -6.0186    4.7403    8.6675 C   0  0  0  0  0  0  0  0  0  0  0  0
   -4.1534    7.2769    5.9587 C   0  0  0  0  0  0  0  0  0  0  0  0
   -5.2021    5.3034    4.9131 C   0  0  0  0  0  0  0  0  0  0  0  0
   -2.6861    4.7859    6.8567 C   0  0  0  0  0  0  0  0  0  0  0  0
   -1.7907    3.8957    6.9000 C   0  0  0  0  0  0  0  0  0  0  0  0
   -0.4581    3.4926    6.7473 C   0  0  0  0  0  0  0  0  0  0  0  0
   -0.1654    2.1804    6.5452 C   0  0  0  0  0  0  0  0  0  0  0  0
    0.7375    1.4060    7.2759 C   0  0  0  0  0  0  0  0  0  0  0  0
    0.5056    0.0911    7.4022 C   0  0  0  0  0  0  0  0  0  0  0  0
    1.4928   -0.8723    6.8817 C   0  0  0  0  0  0  0  0  0  0  0  0
    2.5493   -1.1671    7.6046 C   0  0  0  0  0  0  0  0  0  0  0  0
    3.6456   -2.0729    7.2876 C   0  0  0  0  0  0  0  0  0  0  0  0
    4.7531   -2.0152    8.2534 N   0  0  0  0  0  0  0  0  0  0  0  0
    4.1910   -2.0465    9.5932 C   0  0  0  0  0  0  0  0  0  0  0  0
    4.8105   -3.2100   10.3826 C   0  0  0  0  0  0  0  0  0  0  0  0
    3.7001   -4.0220   10.9534 C   0  0  0  0  0  0  0  0  0  0  0  0
    4.0415   -5.4178   11.3496 C   0  0  0  0  0  0  0  0  0  0  0  0
    2.9025   -6.3806   11.4049 C   0  0  0  0  0  0  0  0  0  0  0  0
    3.4083   -7.7571   11.6975 C   0  0  0  0  0  0  0  0  0  0  0  0
    2.9402   -8.3699   12.6718 O   0  0  0  0  0  0  0  0  0  0  0  0
    4.3766   -8.3151   10.8868 O   0  0  0  0  0  0  0  0  0  0  0  0
    1.9320   -6.0507   12.4300 N   0  0  0  0  0  0  0  0  0  0  0  0
    1.1937   -1.4340    5.5499 C   0  0  0  0  0  0  0  0  0  0  0  0
    0.7436    4.3904    6.7507 C   0  0  0  0  0  0  0  0  0  0  0  0
  1  2  1  0
  2  3  2  0
  3  4  1  0
  4  5  1  0
  5  6  1  0
  6  7  1  0
  4  8  1  0
  4  9  1  0
  3 10  1  0
 10 11  2  3
 11 12  1  0
 12 13  2  3
 13 14  1  0
 14 15  2  3
 15 16  1  0
 16 17  2  3
 17 18  1  0
 18 19  1  0
 19 20  1  0
 20 21  1  0
 21 22  1  0
 22 23  1  0
 23 24  1  0
 24 25  1  0
 25 26  2  0
 25 27  1  0
 24 28  1  0
 16 29  1  0
 12 30  1  0
  7  2  1  0
M  END
$$$$
