
     RDKit          3D

 30 30  0  0  0  0  0  0  0  0999 V2000
   -4.8899    7.2324   11.3225 C   0  0  0  0  0  0  0  0  0  0  0  0
   -5.3814    7.6030    9.9332 C   0  0  0  0  0  0  0  0  0  0  0  0
   -5.2244    6.7466    8.9154 C   0  0  0  0  0  0  0  0  0  0  0  0
   -5.6870    7.0887    7.5703 C   0  0  0  0  0  0  0  0  0  0  0  0
   -6.0114    8.5842    7.4485 C   0  0  0  0  0  0  0  0  0  0  0  0
   -6.8611    9.0376    8.6056 C   0  0  0  0  0  0  0  0  0  0  0  0
   -6.0520    8.9157    9.8580 C   0  0  0  0  0  0  0  0  0  0  0  0
   -4.5803    6.9171    6.5278 C   0  0  0  0  0  0  0  0  0  0  0  0
   -6.8980    6.3043    7.1114 C   0  0  0  0  0  0  0  0  0  0  0  0
   -4.5819    5.4829    9.1938 C   0  0  0  0  0  0  0  0  0  0  0  0
   -3.5629    4.7658    8.9849 C   0  0  0  0  0  0  0  0  0  0  0  0
   -2.9482    3.5107    8.8944 C   0  0  0  0  0  0  0  0  0  0  0  0
   -1.8194    3.3604    8.1516 C   0  0  0  0  0  0  0  0  0  0  0  0
   -1.5446    2.3278    7.2531 C   0  0  0  0  0  0  0  0  0  0  0  0
   -0.3532    2.3075    6.6377 C   0  0  0  0  0  0  0  0  0  0  0  0
   -0.1971    1.5451    5.3855 C   0  0  0  0  0  0  0  0  0  0  0  0
   -0.0659    0.2391    5.4378 C   0  0  0  0  0  0  0  0  0  0  0  0
   -0.1578   -0.7294    4.3533 C   0  0  0  0  0  0  0  0  0  0  0  0
    0.3989   -0.2425    3.0822 N   0  0  0  0  0  0  0  0  0  0  0  0
    1.8257   -0.5184    3.0747 C   0  0  0  0  0  0  0  0  0  0  0  0
    2.0748   -1.9173    2.4902 C   0  0  0  0  0  0  0  0  0  0  0  0
    1.6691   -1.8966    1.0573 C   0  0  0  0  0  0  0  0  0  0  0  0
    1.8953   -3.1548    0.2908 C   0  0  0  0  0  0  0  0  0  0  0  0
    1.3648   -3.1770   -1.1039 C   0  0  0  0  0  0  0  0  0  0  0  0
    2.4247   -2.7378   -2.0629 C   0  0  0  0  0  0  0  0  0  0  0  0
    2.1590   -2.7160   -3.2765 O   0  0  0  0  0  0  0  0  0  0  0  0
    3.6665   -2.3686   -1.5855 O   0  0  0  0  0  0  0  0  0  0  0  0
    0.9246   -4.4939   -1.5209 N   0  0  0  0  0  0  0  0  0  0  0  0
   -0.2006    2.3474    4.1466 C   0  0  0  0  0  0  0  0  0  0  0  0
   -3.3958    2.2547    9.5816 C   0  0  0  0  0  0  0  0  0  0  0  0
  1  2  1  0
  2  3  2  0
  3  4  1  0
  4  5  1  0
  5  6  1  0
  6  7  1  0
  4  8  1  0
  4  9  1  0
  3 10  1  0
 10 11  2  3
 11 12  1  0
 12 13  2  3
 13 14  1  0
 14 15  2  3
 15 16  1  0
 16 17  2  3
 17 18  1  0
 18 19  1  0
 19 20  1  0
 20 21  1  0
 21 22  1  0
 22 23  1  0
 23 24  1  0
 24 25  1  0
 25 26  2  0
 25 27  1  0
 24 28  1  0
 16 29  1  0
 12 30  1  0
  7  2  1  0
M  END
$$$$
