
     RDKit          3D

 26 29  0  0  0  0  0  0  0  0999 V2000
    0.7442    5.8945   12.7766 C   0  0  0  0  0  0  0  0  0  0  0  0
    1.7015    4.7481   12.9666 C   0  0  0  0  0  0  0  0  0  0  0  0
    0.9817    3.4191   13.0214 C   0  0  0  0  0  0  0  0  0  0  0  0
    2.0624    2.3430   13.1769 C   0  0  0  0  0  0  0  0  0  0  0  0
    2.6335    2.3960   14.4241 O   0  0  0  0  0  0  0  0  0  0  0  0
    0.3118    3.2442   11.7324 N   0  0  0  0  0  0  0  0  0  0  0  0
   -0.9015    2.5158   11.6115 C   0  0  0  0  0  0  0  0  0  0  0  0
   -1.4048    1.9392   12.6092 O   0  0  0  0  0  0  0  0  0  0  0  0
   -1.5927    2.4315   10.2808 C   0  0  0  0  0  0  0  0  0  0  0  0
   -0.5606    2.1216    9.2519 C   0  0  0  0  0  0  0  0  0  0  0  0
   -0.9445    1.1532    8.2769 N   0  0  0  0  0  0  0  0  0  0  0  0
   -2.3829    1.2760    7.9614 C   0  0  0  0  0  0  0  0  0  0  0  0
   -2.6892    0.5706    6.7128 C   0  0  0  0  0  0  0  0  0  0  0  0
   -3.7877   -0.4160    6.7887 C   0  0  0  0  0  0  0  0  0  0  0  0
   -4.4000   -1.2216    5.8628 C   0  0  0  0  0  0  0  0  0  0  0  0
   -5.3891   -1.9694    6.4556 N   0  0  0  0  0  0  0  0  0  0  0  0
   -5.4074   -1.6382    7.7676 C   0  0  0  0  0  0  0  0  0  0  0  0
   -6.1397   -2.0096    8.8921 C   0  0  0  0  0  0  0  0  0  0  0  0
   -5.8507   -1.4233   10.1051 C   0  0  0  0  0  0  0  0  0  0  0  0
   -4.8497   -0.4615   10.2802 C   0  0  0  0  0  0  0  0  0  0  0  0
   -4.1368   -0.1069    9.1601 C   0  0  0  0  0  0  0  0  0  0  0  0
   -4.4340   -0.6958    7.9636 C   0  0  0  0  0  0  0  0  0  0  0  0
   -3.0693    0.8775    9.1920 C   0  0  0  0  0  0  0  0  0  0  0  0
   -2.7031    1.4245   10.3468 C   0  0  0  0  0  0  0  0  0  0  0  0
   -6.2745   -2.9399    5.8501 C   0  0  0  0  0  0  0  0  0  0  0  0
   -0.7538   -0.2118    8.7237 C   0  0  0  0  0  0  0  0  0  0  0  0
  1  2  1  0
  2  3  1  0
  3  4  1  0
  4  5  1  0
  3  6  1  0
  6  7  1  0
  7  8  2  0
  7  9  1  0
  9 10  1  0
 10 11  1  0
 11 12  1  0
 12 13  1  0
 13 14  1  0
 14 15  2  0
 15 16  1  0
 16 17  1  0
 17 18  2  0
 18 19  1  0
 19 20  2  0
 20 21  1  0
 21 22  2  0
 21 23  1  0
 23 24  2  0
 16 25  1  0
 11 26  1  0
 24  9  1  0
 23 12  1  0
 22 14  1  0
 22 17  1  0
M  END
$$$$
