
     RDKit          3D

 26 29  0  0  0  0  0  0  0  0999 V2000
    0.0631    5.7544   13.5186 C   0  0  0  0  0  0  0  0  0  0  0  0
    1.0579    4.6414   13.3226 C   0  0  0  0  0  0  0  0  0  0  0  0
    0.3891    3.2849   13.3195 C   0  0  0  0  0  0  0  0  0  0  0  0
    1.5042    2.2476   13.4945 C   0  0  0  0  0  0  0  0  0  0  0  0
    1.3972    1.6100   14.7054 O   0  0  0  0  0  0  0  0  0  0  0  0
   -0.2225    3.1149   12.0012 N   0  0  0  0  0  0  0  0  0  0  0  0
   -1.2847    2.1981   11.7810 C   0  0  0  0  0  0  0  0  0  0  0  0
   -1.6020    1.3608   12.6639 O   0  0  0  0  0  0  0  0  0  0  0  0
   -2.0383    2.2261   10.4821 C   0  0  0  0  0  0  0  0  0  0  0  0
   -1.0425    2.1385    9.3774 C   0  0  0  0  0  0  0  0  0  0  0  0
   -1.4017    1.2735    8.3010 N   0  0  0  0  0  0  0  0  0  0  0  0
   -2.8603    1.3133    8.0675 C   0  0  0  0  0  0  0  0  0  0  0  0
   -3.1778    0.7497    6.7515 C   0  0  0  0  0  0  0  0  0  0  0  0
   -4.1900   -0.3279    6.7446 C   0  0  0  0  0  0  0  0  0  0  0  0
   -4.7867   -1.0576    5.7483 C   0  0  0  0  0  0  0  0  0  0  0  0
   -5.6807   -1.9560    6.2801 N   0  0  0  0  0  0  0  0  0  0  0  0
   -5.6536   -1.7977    7.6238 C   0  0  0  0  0  0  0  0  0  0  0  0
   -6.2925   -2.3703    8.7204 C   0  0  0  0  0  0  0  0  0  0  0  0
   -5.9849   -1.9212    9.9863 C   0  0  0  0  0  0  0  0  0  0  0  0
   -5.0542   -0.9084   10.2428 C   0  0  0  0  0  0  0  0  0  0  0  0
   -4.4330   -0.3547    9.1490 C   0  0  0  0  0  0  0  0  0  0  0  0
   -4.7478   -0.8091    7.8995 C   0  0  0  0  0  0  0  0  0  0  0  0
   -3.4457    0.7044    9.2637 C   0  0  0  0  0  0  0  0  0  0  0  0
   -3.0614    1.1285   10.4633 C   0  0  0  0  0  0  0  0  0  0  0  0
   -6.5189   -2.9126    5.5913 C   0  0  0  0  0  0  0  0  0  0  0  0
   -1.0809   -0.1162    8.5555 C   0  0  0  0  0  0  0  0  0  0  0  0
  1  2  1  0
  2  3  1  0
  3  4  1  0
  4  5  1  0
  3  6  1  0
  6  7  1  0
  7  8  2  0
  7  9  1  0
  9 10  1  0
 10 11  1  0
 11 12  1  0
 12 13  1  0
 13 14  1  0
 14 15  2  0
 15 16  1  0
 16 17  1  0
 17 18  2  0
 18 19  1  0
 19 20  2  0
 20 21  1  0
 21 22  2  0
 21 23  1  0
 23 24  2  0
 16 25  1  0
 11 26  1  0
 24  9  1  0
 23 12  1  0
 22 14  1  0
 22 17  1  0
M  END
$$$$
