
     RDKit          3D

 26 29  0  0  0  0  0  0  0  0999 V2000
   -1.6884    5.3739   14.2826 C   0  0  0  0  0  0  0  0  0  0  0  0
   -0.2651    4.8979   14.1622 C   0  0  0  0  0  0  0  0  0  0  0  0
   -0.1877    3.4974   13.5966 C   0  0  0  0  0  0  0  0  0  0  0  0
    1.2990    3.1989   13.3709 C   0  0  0  0  0  0  0  0  0  0  0  0
    1.7219    2.1705   14.1758 O   0  0  0  0  0  0  0  0  0  0  0  0
   -0.8742    3.5214   12.3047 N   0  0  0  0  0  0  0  0  0  0  0  0
   -1.5537    2.3825   11.7963 C   0  0  0  0  0  0  0  0  0  0  0  0
   -1.5874    1.3105   12.4527 O   0  0  0  0  0  0  0  0  0  0  0  0
   -2.2396    2.4557   10.4621 C   0  0  0  0  0  0  0  0  0  0  0  0
   -1.1851    2.4712    9.4097 C   0  0  0  0  0  0  0  0  0  0  0  0
   -1.4512    1.6562    8.2691 N   0  0  0  0  0  0  0  0  0  0  0  0
   -2.8961    1.6522    7.9596 C   0  0  0  0  0  0  0  0  0  0  0  0
   -3.1209    1.1533    6.5991 C   0  0  0  0  0  0  0  0  0  0  0  0
   -4.0850    0.0391    6.4778 C   0  0  0  0  0  0  0  0  0  0  0  0
   -4.5978   -0.6549    5.4117 C   0  0  0  0  0  0  0  0  0  0  0  0
   -5.4794   -1.6168    5.8436 N   0  0  0  0  0  0  0  0  0  0  0  0
   -5.5286   -1.5353    7.1935 C   0  0  0  0  0  0  0  0  0  0  0  0
   -6.1988   -2.1948    8.2205 C   0  0  0  0  0  0  0  0  0  0  0  0
   -5.9763   -1.8078    9.5241 C   0  0  0  0  0  0  0  0  0  0  0  0
   -5.1039   -0.7757    9.8864 C   0  0  0  0  0  0  0  0  0  0  0  0
   -4.4508   -0.1358    8.8603 C   0  0  0  0  0  0  0  0  0  0  0  0
   -4.6809   -0.5294    7.5723 C   0  0  0  0  0  0  0  0  0  0  0  0
   -3.5163    0.9528    9.0868 C   0  0  0  0  0  0  0  0  0  0  0  0
   -3.2129    1.3218   10.3271 C   0  0  0  0  0  0  0  0  0  0  0  0
   -6.2396   -2.5643    5.0585 C   0  0  0  0  0  0  0  0  0  0  0  0
   -1.0855    0.2678    8.4631 C   0  0  0  0  0  0  0  0  0  0  0  0
  1  2  1  0
  2  3  1  0
  3  4  1  0
  4  5  1  0
  3  6  1  0
  6  7  1  0
  7  8  2  0
  7  9  1  0
  9 10  1  0
 10 11  1  0
 11 12  1  0
 12 13  1  0
 13 14  1  0
 14 15  2  0
 15 16  1  0
 16 17  1  0
 17 18  2  0
 18 19  1  0
 19 20  2  0
 20 21  1  0
 21 22  2  0
 21 23  1  0
 23 24  2  0
 16 25  1  0
 11 26  1  0
 24  9  1  0
 23 12  1  0
 22 14  1  0
 22 17  1  0
M  END
$$$$
