
     RDKit          3D

 26 29  0  0  0  0  0  0  0  0999 V2000
   -1.5978    4.5989   14.4256 C   0  0  0  0  0  0  0  0  0  0  0  0
   -0.1756    4.1830   14.1589 C   0  0  0  0  0  0  0  0  0  0  0  0
   -0.0944    2.7685   13.6296 C   0  0  0  0  0  0  0  0  0  0  0  0
    1.3962    2.4415   13.4837 C   0  0  0  0  0  0  0  0  0  0  0  0
    2.0123    2.3970   14.7095 O   0  0  0  0  0  0  0  0  0  0  0  0
   -0.7171    2.7729   12.3056 N   0  0  0  0  0  0  0  0  0  0  0  0
   -1.5513    1.7105   11.8667 C   0  0  0  0  0  0  0  0  0  0  0  0
   -1.7043    0.6820   12.5736 O   0  0  0  0  0  0  0  0  0  0  0  0
   -2.2589    1.8132   10.5459 C   0  0  0  0  0  0  0  0  0  0  0  0
   -1.2212    1.9057    9.4808 C   0  0  0  0  0  0  0  0  0  0  0  0
   -1.4772    1.1278    8.3123 N   0  0  0  0  0  0  0  0  0  0  0  0
   -2.9256    1.0874    8.0224 C   0  0  0  0  0  0  0  0  0  0  0  0
   -3.1540    0.6354    6.6462 C   0  0  0  0  0  0  0  0  0  0  0  0
   -4.0824   -0.5050    6.4935 C   0  0  0  0  0  0  0  0  0  0  0  0
   -4.5878   -1.1732    5.4076 C   0  0  0  0  0  0  0  0  0  0  0  0
   -5.4306   -2.1805    5.8126 N   0  0  0  0  0  0  0  0  0  0  0  0
   -5.4624   -2.1541    7.1653 C   0  0  0  0  0  0  0  0  0  0  0  0
   -6.0951   -2.8757    8.1741 C   0  0  0  0  0  0  0  0  0  0  0  0
   -5.8663   -2.5332    9.4890 C   0  0  0  0  0  0  0  0  0  0  0  0
   -5.0231   -1.4874    9.8804 C   0  0  0  0  0  0  0  0  0  0  0  0
   -4.4068   -0.7860    8.8719 C   0  0  0  0  0  0  0  0  0  0  0  0
   -4.6429   -1.1360    7.5724 C   0  0  0  0  0  0  0  0  0  0  0  0
   -3.5056    0.3237    9.1290 C   0  0  0  0  0  0  0  0  0  0  0  0
   -3.1962    0.6534   10.3789 C   0  0  0  0  0  0  0  0  0  0  0  0
   -6.1707   -3.1213    5.0006 C   0  0  0  0  0  0  0  0  0  0  0  0
   -1.0630   -0.2541    8.4457 C   0  0  0  0  0  0  0  0  0  0  0  0
  1  2  1  0
  2  3  1  0
  3  4  1  0
  4  5  1  0
  3  6  1  0
  6  7  1  0
  7  8  2  0
  7  9  1  0
  9 10  1  0
 10 11  1  0
 11 12  1  0
 12 13  1  0
 13 14  1  0
 14 15  2  0
 15 16  1  0
 16 17  1  0
 17 18  2  0
 18 19  1  0
 19 20  2  0
 20 21  1  0
 21 22  2  0
 21 23  1  0
 23 24  2  0
 16 25  1  0
 11 26  1  0
 24  9  1  0
 23 12  1  0
 22 14  1  0
 22 17  1  0
M  END
$$$$
