
     RDKit          3D

 26 29  0  0  0  0  0  0  0  0999 V2000
   -0.3815    4.0906   15.9064 C   0  0  0  0  0  0  0  0  0  0  0  0
   -0.9555    3.7027   14.5696 C   0  0  0  0  0  0  0  0  0  0  0  0
   -0.0201    2.7984   13.7983 C   0  0  0  0  0  0  0  0  0  0  0  0
    1.3506    3.4850   13.7991 C   0  0  0  0  0  0  0  0  0  0  0  0
    2.3057    2.6770   13.2340 O   0  0  0  0  0  0  0  0  0  0  0  0
   -0.5246    2.7346   12.4264 N   0  0  0  0  0  0  0  0  0  0  0  0
   -1.3891    1.6940   11.9939 C   0  0  0  0  0  0  0  0  0  0  0  0
   -1.5759    0.6771   12.7096 O   0  0  0  0  0  0  0  0  0  0  0  0
   -2.0886    1.8060   10.6696 C   0  0  0  0  0  0  0  0  0  0  0  0
   -1.0447    1.8627    9.6081 C   0  0  0  0  0  0  0  0  0  0  0  0
   -1.3170    1.0835    8.4442 N   0  0  0  0  0  0  0  0  0  0  0  0
   -2.7648    1.0799    8.1487 C   0  0  0  0  0  0  0  0  0  0  0  0
   -2.9999    0.6241    6.7749 C   0  0  0  0  0  0  0  0  0  0  0  0
   -3.9581   -0.4920    6.6267 C   0  0  0  0  0  0  0  0  0  0  0  0
   -4.4771   -1.1543    5.5436 C   0  0  0  0  0  0  0  0  0  0  0  0
   -5.3482   -2.1356    5.9524 N   0  0  0  0  0  0  0  0  0  0  0  0
   -5.3846   -2.0984    7.3047 C   0  0  0  0  0  0  0  0  0  0  0  0
   -6.0404   -2.7954    8.3162 C   0  0  0  0  0  0  0  0  0  0  0  0
   -5.8075   -2.4495    9.6295 C   0  0  0  0  0  0  0  0  0  0  0  0
   -4.9380   -1.4239   10.0167 C   0  0  0  0  0  0  0  0  0  0  0  0
   -4.2992   -0.7467    9.0057 C   0  0  0  0  0  0  0  0  0  0  0  0
   -4.5396   -1.0998    7.7078 C   0  0  0  0  0  0  0  0  0  0  0  0
   -3.3695    0.3402    9.2584 C   0  0  0  0  0  0  0  0  0  0  0  0
   -3.0561    0.6706   10.5072 C   0  0  0  0  0  0  0  0  0  0  0  0
   -6.1102   -3.0621    5.1443 C   0  0  0  0  0  0  0  0  0  0  0  0
   -0.9406   -0.3080    8.5893 C   0  0  0  0  0  0  0  0  0  0  0  0
  1  2  1  0
  2  3  1  0
  3  4  1  0
  4  5  1  0
  3  6  1  0
  6  7  1  0
  7  8  2  0
  7  9  1  0
  9 10  1  0
 10 11  1  0
 11 12  1  0
 12 13  1  0
 13 14  1  0
 14 15  2  0
 15 16  1  0
 16 17  1  0
 17 18  2  0
 18 19  1  0
 19 20  2  0
 20 21  1  0
 21 22  2  0
 21 23  1  0
 23 24  2  0
 16 25  1  0
 11 26  1  0
 24  9  1  0
 23 12  1  0
 22 14  1  0
 22 17  1  0
M  END
$$$$
