
     RDKit          3D

 26 29  0  0  0  0  0  0  0  0999 V2000
   -0.9210    5.0351   14.4516 C   0  0  0  0  0  0  0  0  0  0  0  0
    0.3743    4.5778   13.8353 C   0  0  0  0  0  0  0  0  0  0  0  0
    0.3389    3.1080   13.4804 C   0  0  0  0  0  0  0  0  0  0  0  0
    1.7961    2.6338   13.4373 C   0  0  0  0  0  0  0  0  0  0  0  0
    2.1826    2.1212   14.6506 O   0  0  0  0  0  0  0  0  0  0  0  0
   -0.2388    3.0075   12.1399 N   0  0  0  0  0  0  0  0  0  0  0  0
   -1.3008    2.1109   11.8472 C   0  0  0  0  0  0  0  0  0  0  0  0
   -1.6782    1.2652   12.6978 O   0  0  0  0  0  0  0  0  0  0  0  0
   -1.9818    2.1708   10.5099 C   0  0  0  0  0  0  0  0  0  0  0  0
   -0.9237    2.1679    9.4610 C   0  0  0  0  0  0  0  0  0  0  0  0
   -1.1899    1.3399    8.3298 N   0  0  0  0  0  0  0  0  0  0  0  0
   -2.6338    1.3391    8.0154 C   0  0  0  0  0  0  0  0  0  0  0  0
   -2.8564    0.8243    6.6605 C   0  0  0  0  0  0  0  0  0  0  0  0
   -3.8255   -0.2867    6.5498 C   0  0  0  0  0  0  0  0  0  0  0  0
   -4.3382   -0.9915    5.4907 C   0  0  0  0  0  0  0  0  0  0  0  0
   -5.2260   -1.9436    5.9316 N   0  0  0  0  0  0  0  0  0  0  0  0
   -5.2794   -1.8449    7.2803 C   0  0  0  0  0  0  0  0  0  0  0  0
   -5.9562   -2.4882    8.3131 C   0  0  0  0  0  0  0  0  0  0  0  0
   -5.7363   -2.0859    9.6125 C   0  0  0  0  0  0  0  0  0  0  0  0
   -4.8600   -1.0536    9.9648 C   0  0  0  0  0  0  0  0  0  0  0  0
   -4.2003   -0.4299    8.9330 C   0  0  0  0  0  0  0  0  0  0  0  0
   -4.4280   -0.8385    7.6493 C   0  0  0  0  0  0  0  0  0  0  0  0
   -3.2613    0.6569    9.1491 C   0  0  0  0  0  0  0  0  0  0  0  0
   -2.9603    1.0400   10.3858 C   0  0  0  0  0  0  0  0  0  0  0  0
   -5.9882   -2.8971    5.1558 C   0  0  0  0  0  0  0  0  0  0  0  0
   -0.8317   -0.0477    8.5425 C   0  0  0  0  0  0  0  0  0  0  0  0
  1  2  1  0
  2  3  1  0
  3  4  1  0
  4  5  1  0
  3  6  1  0
  6  7  1  0
  7  8  2  0
  7  9  1  0
  9 10  1  0
 10 11  1  0
 11 12  1  0
 12 13  1  0
 13 14  1  0
 14 15  2  0
 15 16  1  0
 16 17  1  0
 17 18  2  0
 18 19  1  0
 19 20  2  0
 20 21  1  0
 21 22  2  0
 21 23  1  0
 23 24  2  0
 16 25  1  0
 11 26  1  0
 24  9  1  0
 23 12  1  0
 22 14  1  0
 22 17  1  0
M  END
$$$$
