
     RDKit          3D

 26 29  0  0  0  0  0  0  0  0999 V2000
    3.0772    4.1048   12.1420 C   0  0  0  0  0  0  0  0  0  0  0  0
    2.1480    3.2455   12.9574 C   0  0  0  0  0  0  0  0  0  0  0  0
    0.7487    3.8177   13.0021 C   0  0  0  0  0  0  0  0  0  0  0  0
    0.5576    4.3953   14.4092 C   0  0  0  0  0  0  0  0  0  0  0  0
    0.3999    5.7581   14.3643 O   0  0  0  0  0  0  0  0  0  0  0  0
   -0.1751    2.6990   12.8125 N   0  0  0  0  0  0  0  0  0  0  0  0
   -0.6707    2.3461   11.5291 C   0  0  0  0  0  0  0  0  0  0  0  0
   -0.5521    3.1351   10.5572 O   0  0  0  0  0  0  0  0  0  0  0  0
   -1.3433    1.0185   11.3273 C   0  0  0  0  0  0  0  0  0  0  0  0
   -2.4061    0.8859   12.3629 C   0  0  0  0  0  0  0  0  0  0  0  0
   -3.6425    0.3439   11.9007 N   0  0  0  0  0  0  0  0  0  0  0  0
   -3.4048   -0.6752   10.8574 C   0  0  0  0  0  0  0  0  0  0  0  0
   -4.6070   -1.4927   10.6652 C   0  0  0  0  0  0  0  0  0  0  0  0
   -5.0977   -1.5911    9.2741 C   0  0  0  0  0  0  0  0  0  0  0  0
   -6.1264   -2.2778    8.6813 C   0  0  0  0  0  0  0  0  0  0  0  0
   -6.1577   -2.0249    7.3307 N   0  0  0  0  0  0  0  0  0  0  0  0
   -5.1425   -1.1717    7.0611 C   0  0  0  0  0  0  0  0  0  0  0  0
   -4.6300   -0.5375    5.9324 C   0  0  0  0  0  0  0  0  0  0  0  0
   -3.5384    0.2926    6.0665 C   0  0  0  0  0  0  0  0  0  0  0  0
   -2.9020    0.5424    7.2873 C   0  0  0  0  0  0  0  0  0  0  0  0
   -3.4209   -0.0915    8.3907 C   0  0  0  0  0  0  0  0  0  0  0  0
   -4.5033   -0.9122    8.2435 C   0  0  0  0  0  0  0  0  0  0  0  0
   -2.8633    0.0739    9.7216 C   0  0  0  0  0  0  0  0  0  0  0  0
   -1.8533    0.9149    9.9199 C   0  0  0  0  0  0  0  0  0  0  0  0
   -7.0726   -2.5396    6.3356 C   0  0  0  0  0  0  0  0  0  0  0  0
   -4.5078    1.3351   11.2941 C   0  0  0  0  0  0  0  0  0  0  0  0
  1  2  1  0
  2  3  1  0
  3  4  1  0
  4  5  1  0
  3  6  1  0
  6  7  1  0
  7  8  2  0
  7  9  1  0
  9 10  1  0
 10 11  1  0
 11 12  1  0
 12 13  1  0
 13 14  1  0
 14 15  2  0
 15 16  1  0
 16 17  1  0
 17 18  2  0
 18 19  1  0
 19 20  2  0
 20 21  1  0
 21 22  2  0
 21 23  1  0
 23 24  2  0
 16 25  1  0
 11 26  1  0
 24  9  1  0
 23 12  1  0
 22 14  1  0
 22 17  1  0
M  END
$$$$
