
     RDKit          3D

 26 29  0  0  0  0  0  0  0  0999 V2000
   -1.4180    5.0645   14.6974 C   0  0  0  0  0  0  0  0  0  0  0  0
   -0.0651    4.6132   14.2149 C   0  0  0  0  0  0  0  0  0  0  0  0
   -0.0889    3.1775   13.7398 C   0  0  0  0  0  0  0  0  0  0  0  0
    1.3724    2.7233   13.6484 C   0  0  0  0  0  0  0  0  0  0  0  0
    1.4847    1.3763   13.8875 O   0  0  0  0  0  0  0  0  0  0  0  0
   -0.6753    3.1822   12.3993 N   0  0  0  0  0  0  0  0  0  0  0  0
   -1.4813    2.1109   11.9306 C   0  0  0  0  0  0  0  0  0  0  0  0
   -1.6433    1.0777   12.6288 O   0  0  0  0  0  0  0  0  0  0  0  0
   -2.1482    2.2096   10.5885 C   0  0  0  0  0  0  0  0  0  0  0  0
   -1.0786    2.2548    9.5522 C   0  0  0  0  0  0  0  0  0  0  0  0
   -1.3229    1.4637    8.3901 N   0  0  0  0  0  0  0  0  0  0  0  0
   -2.7631    1.4578    8.0594 C   0  0  0  0  0  0  0  0  0  0  0  0
   -2.9650    0.9879    6.6851 C   0  0  0  0  0  0  0  0  0  0  0  0
   -3.9201   -0.1292    6.5250 C   0  0  0  0  0  0  0  0  0  0  0  0
   -4.4129   -0.8024    5.4364 C   0  0  0  0  0  0  0  0  0  0  0  0
   -5.2946   -1.7790    5.8340 N   0  0  0  0  0  0  0  0  0  0  0  0
   -5.3639   -1.7278    7.1845 C   0  0  0  0  0  0  0  0  0  0  0  0
   -6.0447   -2.4140    8.1868 C   0  0  0  0  0  0  0  0  0  0  0  0
   -5.8437   -2.0546    9.5017 C   0  0  0  0  0  0  0  0  0  0  0  0
   -4.9832   -1.0255    9.8995 C   0  0  0  0  0  0  0  0  0  0  0  0
   -4.3193   -0.3591    8.8974 C   0  0  0  0  0  0  0  0  0  0  0  0
   -4.5282   -0.7254    7.5978 C   0  0  0  0  0  0  0  0  0  0  0  0
   -3.3953    0.7298    9.1616 C   0  0  0  0  0  0  0  0  0  0  0  0
   -3.1123    1.0730   10.4142 C   0  0  0  0  0  0  0  0  0  0  0  0
   -6.0373   -2.7134    5.0170 C   0  0  0  0  0  0  0  0  0  0  0  0
   -0.9513    0.0736    8.5587 C   0  0  0  0  0  0  0  0  0  0  0  0
  1  2  1  0
  2  3  1  0
  3  4  1  0
  4  5  1  0
  3  6  1  0
  6  7  1  0
  7  8  2  0
  7  9  1  0
  9 10  1  0
 10 11  1  0
 11 12  1  0
 12 13  1  0
 13 14  1  0
 14 15  2  0
 15 16  1  0
 16 17  1  0
 17 18  2  0
 18 19  1  0
 19 20  2  0
 20 21  1  0
 21 22  2  0
 21 23  1  0
 23 24  2  0
 16 25  1  0
 11 26  1  0
 24  9  1  0
 23 12  1  0
 22 14  1  0
 22 17  1  0
M  END
$$$$
