
     RDKit          3D

 26 29  0  0  0  0  0  0  0  0999 V2000
   -0.2308    4.4201   15.6590 C   0  0  0  0  0  0  0  0  0  0  0  0
   -0.6769    4.4241   14.2210 C   0  0  0  0  0  0  0  0  0  0  0  0
   -0.0263    3.3124   13.4284 C   0  0  0  0  0  0  0  0  0  0  0  0
    1.4491    3.6964   13.2673 C   0  0  0  0  0  0  0  0  0  0  0  0
    2.2604    2.5966   13.3958 O   0  0  0  0  0  0  0  0  0  0  0  0
   -0.6653    3.2976   12.1122 N   0  0  0  0  0  0  0  0  0  0  0  0
   -1.3607    2.1570   11.6300 C   0  0  0  0  0  0  0  0  0  0  0  0
   -1.3793    1.0896   12.2943 O   0  0  0  0  0  0  0  0  0  0  0  0
   -2.0821    2.2230   10.3143 C   0  0  0  0  0  0  0  0  0  0  0  0
   -1.0556    2.2611    9.2351 C   0  0  0  0  0  0  0  0  0  0  0  0
   -1.3366    1.4458    8.0984 N   0  0  0  0  0  0  0  0  0  0  0  0
   -2.7887    1.4171    7.8262 C   0  0  0  0  0  0  0  0  0  0  0  0
   -3.0398    0.9194    6.4699 C   0  0  0  0  0  0  0  0  0  0  0  0
   -3.9867   -0.2115    6.3688 C   0  0  0  0  0  0  0  0  0  0  0  0
   -4.5146   -0.9105    5.3134 C   0  0  0  0  0  0  0  0  0  0  0  0
   -5.3675   -1.8896    5.7639 N   0  0  0  0  0  0  0  0  0  0  0  0
   -5.3832   -1.8140    7.1150 C   0  0  0  0  0  0  0  0  0  0  0  0
   -6.0148   -2.4891    8.1562 C   0  0  0  0  0  0  0  0  0  0  0  0
   -5.7657   -2.1030    9.4552 C   0  0  0  0  0  0  0  0  0  0  0  0
   -4.9026   -1.0569    9.7991 C   0  0  0  0  0  0  0  0  0  0  0  0
   -4.2877   -0.4017    8.7592 C   0  0  0  0  0  0  0  0  0  0  0  0
   -4.5440   -0.7946    7.4759 C   0  0  0  0  0  0  0  0  0  0  0  0
   -3.3671    0.7026    8.9660 C   0  0  0  0  0  0  0  0  0  0  0  0
   -3.0384    1.0723   10.1997 C   0  0  0  0  0  0  0  0  0  0  0  0
   -6.1308   -2.8476    4.9947 C   0  0  0  0  0  0  0  0  0  0  0  0
   -0.9414    0.0634    8.2771 C   0  0  0  0  0  0  0  0  0  0  0  0
  1  2  1  0
  2  3  1  0
  3  4  1  0
  4  5  1  0
  3  6  1  0
  6  7  1  0
  7  8  2  0
  7  9  1  0
  9 10  1  0
 10 11  1  0
 11 12  1  0
 12 13  1  0
 13 14  1  0
 14 15  2  0
 15 16  1  0
 16 17  1  0
 17 18  2  0
 18 19  1  0
 19 20  2  0
 20 21  1  0
 21 22  2  0
 21 23  1  0
 23 24  2  0
 16 25  1  0
 11 26  1  0
 24  9  1  0
 23 12  1  0
 22 14  1  0
 22 17  1  0
M  END
$$$$
