
     RDKit          3D

 26 29  0  0  0  0  0  0  0  0999 V2000
   -1.7050    3.0615   15.6954 C   0  0  0  0  0  0  0  0  0  0  0  0
   -0.6972    3.5557   14.6918 C   0  0  0  0  0  0  0  0  0  0  0  0
   -0.2111    2.4429   13.7901 C   0  0  0  0  0  0  0  0  0  0  0  0
    1.2859    2.6851   13.5656 C   0  0  0  0  0  0  0  0  0  0  0  0
    2.0047    2.4090   14.7020 O   0  0  0  0  0  0  0  0  0  0  0  0
   -0.9174    2.5875   12.5169 N   0  0  0  0  0  0  0  0  0  0  0  0
   -1.6523    1.5166   11.9423 C   0  0  0  0  0  0  0  0  0  0  0  0
   -1.6891    0.3914   12.5024 O   0  0  0  0  0  0  0  0  0  0  0  0
   -2.3939    1.7265   10.6532 C   0  0  0  0  0  0  0  0  0  0  0  0
   -1.3842    1.9192    9.5747 C   0  0  0  0  0  0  0  0  0  0  0  0
   -1.6647    1.2427    8.3501 N   0  0  0  0  0  0  0  0  0  0  0  0
   -3.1198    1.2150    8.0938 C   0  0  0  0  0  0  0  0  0  0  0  0
   -3.3801    0.8812    6.6898 C   0  0  0  0  0  0  0  0  0  0  0  0
   -4.3047   -0.2498    6.4622 C   0  0  0  0  0  0  0  0  0  0  0  0
   -4.8332   -0.8263    5.3356 C   0  0  0  0  0  0  0  0  0  0  0  0
   -5.6590   -1.8719    5.6729 N   0  0  0  0  0  0  0  0  0  0  0  0
   -5.6567   -1.9623    7.0232 C   0  0  0  0  0  0  0  0  0  0  0  0
   -6.2589   -2.7735    7.9813 C   0  0  0  0  0  0  0  0  0  0  0  0
   -5.9989   -2.5435    9.3148 C   0  0  0  0  0  0  0  0  0  0  0  0
   -5.1528   -1.5281    9.7739 C   0  0  0  0  0  0  0  0  0  0  0  0
   -4.5669   -0.7372    8.8148 C   0  0  0  0  0  0  0  0  0  0  0  0
   -4.8336   -0.9760    7.4962 C   0  0  0  0  0  0  0  0  0  0  0  0
   -3.6666    0.3539    9.1443 C   0  0  0  0  0  0  0  0  0  0  0  0
   -3.3277    0.5774   10.4100 C   0  0  0  0  0  0  0  0  0  0  0  0
   -6.4134   -2.7456    4.8013 C   0  0  0  0  0  0  0  0  0  0  0  0
   -1.2384   -0.1419    8.3535 C   0  0  0  0  0  0  0  0  0  0  0  0
  1  2  1  0
  2  3  1  0
  3  4  1  0
  4  5  1  0
  3  6  1  0
  6  7  1  0
  7  8  2  0
  7  9  1  0
  9 10  1  0
 10 11  1  0
 11 12  1  0
 12 13  1  0
 13 14  1  0
 14 15  2  0
 15 16  1  0
 16 17  1  0
 17 18  2  0
 18 19  1  0
 19 20  2  0
 20 21  1  0
 21 22  2  0
 21 23  1  0
 23 24  2  0
 16 25  1  0
 11 26  1  0
 24  9  1  0
 23 12  1  0
 22 14  1  0
 22 17  1  0
M  END
$$$$
