
     RDKit          3D

 26 29  0  0  0  0  0  0  0  0999 V2000
   -0.9917    2.9558   16.0566 C   0  0  0  0  0  0  0  0  0  0  0  0
   -0.9478    3.5464   14.6724 C   0  0  0  0  0  0  0  0  0  0  0  0
   -0.0357    2.7617   13.7560 C   0  0  0  0  0  0  0  0  0  0  0  0
    1.3090    3.4978   13.7432 C   0  0  0  0  0  0  0  0  0  0  0  0
    2.3261    2.6712   14.1511 O   0  0  0  0  0  0  0  0  0  0  0  0
   -0.6262    2.8167   12.4185 N   0  0  0  0  0  0  0  0  0  0  0  0
   -1.3986    1.7454   11.8961 C   0  0  0  0  0  0  0  0  0  0  0  0
   -1.4833    0.6547   12.5160 O   0  0  0  0  0  0  0  0  0  0  0  0
   -2.1225    1.9134   10.5909 C   0  0  0  0  0  0  0  0  0  0  0  0
   -1.0982    2.0264    9.5149 C   0  0  0  0  0  0  0  0  0  0  0  0
   -1.3864    1.2998    8.3212 N   0  0  0  0  0  0  0  0  0  0  0  0
   -2.8392    1.2996    8.0515 C   0  0  0  0  0  0  0  0  0  0  0  0
   -3.0961    0.9060    6.6624 C   0  0  0  0  0  0  0  0  0  0  0  0
   -4.0498   -0.2089    6.4796 C   0  0  0  0  0  0  0  0  0  0  0  0
   -4.5840   -0.8242    5.3764 C   0  0  0  0  0  0  0  0  0  0  0  0
   -5.4415   -1.8294    5.7547 N   0  0  0  0  0  0  0  0  0  0  0  0
   -5.4538   -1.8549    7.1077 C   0  0  0  0  0  0  0  0  0  0  0  0
   -6.0869   -2.6024    8.0973 C   0  0  0  0  0  0  0  0  0  0  0  0
   -5.8327   -2.3158    9.4208 C   0  0  0  0  0  0  0  0  0  0  0  0
   -4.9628   -1.3031    9.8397 C   0  0  0  0  0  0  0  0  0  0  0  0
   -4.3465   -0.5754    8.8500 C   0  0  0  0  0  0  0  0  0  0  0  0
   -4.6079   -0.8699    7.5416 C   0  0  0  0  0  0  0  0  0  0  0  0
   -3.4192    0.5052    9.1363 C   0  0  0  0  0  0  0  0  0  0  0  0
   -3.0856    0.7799   10.3932 C   0  0  0  0  0  0  0  0  0  0  0  0
   -6.2120   -2.7230    4.9181 C   0  0  0  0  0  0  0  0  0  0  0  0
   -0.9987   -0.0942    8.3951 C   0  0  0  0  0  0  0  0  0  0  0  0
  1  2  1  0
  2  3  1  0
  3  4  1  0
  4  5  1  0
  3  6  1  0
  6  7  1  0
  7  8  2  0
  7  9  1  0
  9 10  1  0
 10 11  1  0
 11 12  1  0
 12 13  1  0
 13 14  1  0
 14 15  2  0
 15 16  1  0
 16 17  1  0
 17 18  2  0
 18 19  1  0
 19 20  2  0
 20 21  1  0
 21 22  2  0
 21 23  1  0
 23 24  2  0
 16 25  1  0
 11 26  1  0
 24  9  1  0
 23 12  1  0
 22 14  1  0
 22 17  1  0
M  END
$$$$
