
     RDKit          3D

 26 29  0  0  0  0  0  0  0  0999 V2000
   -1.3256    4.8404   14.6668 C   0  0  0  0  0  0  0  0  0  0  0  0
   -0.1683    4.6435   13.7241 C   0  0  0  0  0  0  0  0  0  0  0  0
   -0.0122    3.1938   13.3222 C   0  0  0  0  0  0  0  0  0  0  0  0
    1.4945    2.9213   13.2459 C   0  0  0  0  0  0  0  0  0  0  0  0
    1.8429    1.8579   14.0409 O   0  0  0  0  0  0  0  0  0  0  0  0
   -0.5932    3.0575   11.9863 N   0  0  0  0  0  0  0  0  0  0  0  0
   -1.5806    2.0789   11.6952 C   0  0  0  0  0  0  0  0  0  0  0  0
   -1.8943    1.2113   12.5496 O   0  0  0  0  0  0  0  0  0  0  0  0
   -2.2587    2.0776   10.3551 C   0  0  0  0  0  0  0  0  0  0  0  0
   -1.1978    2.0525    9.3094 C   0  0  0  0  0  0  0  0  0  0  0  0
   -1.4475    1.1786    8.2095 N   0  0  0  0  0  0  0  0  0  0  0  0
   -2.8902    1.1426    7.8921 C   0  0  0  0  0  0  0  0  0  0  0  0
   -3.1008    0.5738    6.5570 C   0  0  0  0  0  0  0  0  0  0  0  0
   -4.0516   -0.5560    6.4859 C   0  0  0  0  0  0  0  0  0  0  0  0
   -4.5499   -1.3082    5.4529 C   0  0  0  0  0  0  0  0  0  0  0  0
   -5.4235   -2.2573    5.9272 N   0  0  0  0  0  0  0  0  0  0  0  0
   -5.4823   -2.1091    7.2711 C   0  0  0  0  0  0  0  0  0  0  0  0
   -6.1516   -2.7240    8.3259 C   0  0  0  0  0  0  0  0  0  0  0  0
   -5.9419   -2.2698    9.6098 C   0  0  0  0  0  0  0  0  0  0  0  0
   -5.0832   -1.2110    9.9250 C   0  0  0  0  0  0  0  0  0  0  0  0
   -4.4307   -0.6158    8.8720 C   0  0  0  0  0  0  0  0  0  0  0  0
   -4.6482   -1.0759    7.6040 C   0  0  0  0  0  0  0  0  0  0  0  0
   -3.5099    0.4934    9.0492 C   0  0  0  0  0  0  0  0  0  0  0  0
   -3.2186    0.9273   10.2713 C   0  0  0  0  0  0  0  0  0  0  0  0
   -6.1681   -3.2515    5.1861 C   0  0  0  0  0  0  0  0  0  0  0  0
   -1.0677   -0.1942    8.4749 C   0  0  0  0  0  0  0  0  0  0  0  0
  1  2  1  0
  2  3  1  0
  3  4  1  0
  4  5  1  0
  3  6  1  0
  6  7  1  0
  7  8  2  0
  7  9  1  0
  9 10  1  0
 10 11  1  0
 11 12  1  0
 12 13  1  0
 13 14  1  0
 14 15  2  0
 15 16  1  0
 16 17  1  0
 17 18  2  0
 18 19  1  0
 19 20  2  0
 20 21  1  0
 21 22  2  0
 21 23  1  0
 23 24  2  0
 16 25  1  0
 11 26  1  0
 24  9  1  0
 23 12  1  0
 22 14  1  0
 22 17  1  0
M  END
$$$$
