
     RDKit          3D

 26 29  0  0  0  0  0  0  0  0999 V2000
   -0.1491    6.0376   14.2128 C   0  0  0  0  0  0  0  0  0  0  0  0
    0.6385    5.3957   13.1017 C   0  0  0  0  0  0  0  0  0  0  0  0
    0.3605    3.9124   13.0011 C   0  0  0  0  0  0  0  0  0  0  0  0
    1.7219    3.2090   13.0437 C   0  0  0  0  0  0  0  0  0  0  0  0
    1.7283    2.2062   13.9811 O   0  0  0  0  0  0  0  0  0  0  0  0
   -0.2581    3.6828   11.6952 N   0  0  0  0  0  0  0  0  0  0  0  0
   -1.1644    2.6119   11.4736 C   0  0  0  0  0  0  0  0  0  0  0  0
   -1.3333    1.7241   12.3479 O   0  0  0  0  0  0  0  0  0  0  0  0
   -1.9300    2.5360   10.1837 C   0  0  0  0  0  0  0  0  0  0  0  0
   -0.9407    2.4536    9.0727 C   0  0  0  0  0  0  0  0  0  0  0  0
   -1.2593    1.5200    8.0418 N   0  0  0  0  0  0  0  0  0  0  0  0
   -2.7198    1.4657    7.8236 C   0  0  0  0  0  0  0  0  0  0  0  0
   -3.0161    0.8238    6.5389 C   0  0  0  0  0  0  0  0  0  0  0  0
   -3.9648   -0.3088    6.5937 C   0  0  0  0  0  0  0  0  0  0  0  0
   -4.5274   -1.1173    5.6393 C   0  0  0  0  0  0  0  0  0  0  0  0
   -5.3635   -2.0392    6.2224 N   0  0  0  0  0  0  0  0  0  0  0  0
   -5.3335   -1.8168    7.5570 C   0  0  0  0  0  0  0  0  0  0  0  0
   -5.9286   -2.3728    8.6863 C   0  0  0  0  0  0  0  0  0  0  0  0
   -5.6360   -1.8481    9.9263 C   0  0  0  0  0  0  0  0  0  0  0  0
   -4.7628   -0.7730   10.1248 C   0  0  0  0  0  0  0  0  0  0  0  0
   -4.1842   -0.2367    8.9994 C   0  0  0  0  0  0  0  0  0  0  0  0
   -4.4835   -0.7663    7.7760 C   0  0  0  0  0  0  0  0  0  0  0  0
   -3.2584    0.8812    9.0535 C   0  0  0  0  0  0  0  0  0  0  0  0
   -2.8884    1.3822   10.2276 C   0  0  0  0  0  0  0  0  0  0  0  0
   -6.1515   -3.0733    5.5884 C   0  0  0  0  0  0  0  0  0  0  0  0
   -0.8568    0.1643    8.3566 C   0  0  0  0  0  0  0  0  0  0  0  0
  1  2  1  0
  2  3  1  0
  3  4  1  0
  4  5  1  0
  3  6  1  0
  6  7  1  0
  7  8  2  0
  7  9  1  0
  9 10  1  0
 10 11  1  0
 11 12  1  0
 12 13  1  0
 13 14  1  0
 14 15  2  0
 15 16  1  0
 16 17  1  0
 17 18  2  0
 18 19  1  0
 19 20  2  0
 20 21  1  0
 21 22  2  0
 21 23  1  0
 23 24  2  0
 16 25  1  0
 11 26  1  0
 24  9  1  0
 23 12  1  0
 22 14  1  0
 22 17  1  0
M  END
$$$$
