
     RDKit          3D

 26 29  0  0  0  0  0  0  0  0999 V2000
    0.0582    3.0343   15.6656 C   0  0  0  0  0  0  0  0  0  0  0  0
   -0.5553    3.4635   14.3594 C   0  0  0  0  0  0  0  0  0  0  0  0
    0.4552    3.4518   13.2341 C   0  0  0  0  0  0  0  0  0  0  0  0
    1.2367    4.7668   13.3351 C   0  0  0  0  0  0  0  0  0  0  0  0
    2.4913    4.6362   12.7934 O   0  0  0  0  0  0  0  0  0  0  0  0
   -0.3019    3.4379   11.9821 N   0  0  0  0  0  0  0  0  0  0  0  0
   -0.9639    2.2694   11.5200 C   0  0  0  0  0  0  0  0  0  0  0  0
   -0.8315    1.1758   12.1264 O   0  0  0  0  0  0  0  0  0  0  0  0
   -1.8310    2.3369   10.2956 C   0  0  0  0  0  0  0  0  0  0  0  0
   -0.9349    2.3717    9.1059 C   0  0  0  0  0  0  0  0  0  0  0  0
   -1.3466    1.5568    8.0094 N   0  0  0  0  0  0  0  0  0  0  0  0
   -2.8204    1.5322    7.9054 C   0  0  0  0  0  0  0  0  0  0  0  0
   -3.2267    1.0347    6.5872 C   0  0  0  0  0  0  0  0  0  0  0  0
   -4.1822   -0.0934    6.5960 C   0  0  0  0  0  0  0  0  0  0  0  0
   -4.8294   -0.7913    5.6086 C   0  0  0  0  0  0  0  0  0  0  0  0
   -5.6279   -1.7678    6.1545 N   0  0  0  0  0  0  0  0  0  0  0  0
   -5.4885   -1.6917    7.4985 C   0  0  0  0  0  0  0  0  0  0  0  0
   -5.9985   -2.3646    8.6056 C   0  0  0  0  0  0  0  0  0  0  0  0
   -5.6010   -1.9787    9.8673 C   0  0  0  0  0  0  0  0  0  0  0  0
   -4.7012   -0.9349   10.1093 C   0  0  0  0  0  0  0  0  0  0  0  0
   -4.2077   -0.2819    9.0053 C   0  0  0  0  0  0  0  0  0  0  0  0
   -4.6105   -0.6745    7.7602 C   0  0  0  0  0  0  0  0  0  0  0  0
   -3.2664    0.8198    9.1046 C   0  0  0  0  0  0  0  0  0  0  0  0
   -2.7974    1.1890   10.2922 C   0  0  0  0  0  0  0  0  0  0  0  0
   -6.4771   -2.7239    5.4785 C   0  0  0  0  0  0  0  0  0  0  0  0
   -0.9375    0.1733    8.1426 C   0  0  0  0  0  0  0  0  0  0  0  0
  1  2  1  0
  2  3  1  0
  3  4  1  0
  4  5  1  0
  3  6  1  0
  6  7  1  0
  7  8  2  0
  7  9  1  0
  9 10  1  0
 10 11  1  0
 11 12  1  0
 12 13  1  0
 13 14  1  0
 14 15  2  0
 15 16  1  0
 16 17  1  0
 17 18  2  0
 18 19  1  0
 19 20  2  0
 20 21  1  0
 21 22  2  0
 21 23  1  0
 23 24  2  0
 16 25  1  0
 11 26  1  0
 24  9  1  0
 23 12  1  0
 22 14  1  0
 22 17  1  0
M  END
$$$$
