
     RDKit          3D

 26 29  0  0  0  0  0  0  0  0999 V2000
   -2.0466    3.5148   15.2668 C   0  0  0  0  0  0  0  0  0  0  0  0
   -0.6864    3.9427   14.7833 C   0  0  0  0  0  0  0  0  0  0  0  0
   -0.0829    2.9293   13.8366 C   0  0  0  0  0  0  0  0  0  0  0  0
    1.3637    3.3714   13.5877 C   0  0  0  0  0  0  0  0  0  0  0  0
    2.2383    2.3349   13.8000 O   0  0  0  0  0  0  0  0  0  0  0  0
   -0.8342    3.0167   12.5840 N   0  0  0  0  0  0  0  0  0  0  0  0
   -1.4043    1.8694   11.9711 C   0  0  0  0  0  0  0  0  0  0  0  0
   -1.2507    0.7289   12.4780 O   0  0  0  0  0  0  0  0  0  0  0  0
   -2.1991    2.0160   10.7052 C   0  0  0  0  0  0  0  0  0  0  0  0
   -1.2360    2.1919    9.5821 C   0  0  0  0  0  0  0  0  0  0  0  0
   -1.5468    1.4654    8.3940 N   0  0  0  0  0  0  0  0  0  0  0  0
   -3.0095    1.3962    8.1955 C   0  0  0  0  0  0  0  0  0  0  0  0
   -3.3151    1.0060    6.8154 C   0  0  0  0  0  0  0  0  0  0  0  0
   -4.2208   -0.1527    6.6640 C   0  0  0  0  0  0  0  0  0  0  0  0
   -4.7780   -0.7812    5.5797 C   0  0  0  0  0  0  0  0  0  0  0  0
   -5.5655   -1.8320    5.9856 N   0  0  0  0  0  0  0  0  0  0  0  0
   -5.5097   -1.8734    7.3371 C   0  0  0  0  0  0  0  0  0  0  0  0
   -6.0558   -2.6625    8.3460 C   0  0  0  0  0  0  0  0  0  0  0  0
   -5.7508   -2.3786    9.6594 C   0  0  0  0  0  0  0  0  0  0  0  0
   -4.9120   -1.3288   10.0492 C   0  0  0  0  0  0  0  0  0  0  0  0
   -4.3818   -0.5603    9.0407 C   0  0  0  0  0  0  0  0  0  0  0  0
   -4.6927   -0.8526    7.7427 C   0  0  0  0  0  0  0  0  0  0  0  0
   -3.4955    0.5617    9.2963 C   0  0  0  0  0  0  0  0  0  0  0  0
   -3.1141    0.8384   10.5391 C   0  0  0  0  0  0  0  0  0  0  0  0
   -6.3317   -2.7532    5.1754 C   0  0  0  0  0  0  0  0  0  0  0  0
   -1.0882    0.0916    8.4298 C   0  0  0  0  0  0  0  0  0  0  0  0
  1  2  1  0
  2  3  1  0
  3  4  1  0
  4  5  1  0
  3  6  1  0
  6  7  1  0
  7  8  2  0
  7  9  1  0
  9 10  1  0
 10 11  1  0
 11 12  1  0
 12 13  1  0
 13 14  1  0
 14 15  2  0
 15 16  1  0
 16 17  1  0
 17 18  2  0
 18 19  1  0
 19 20  2  0
 20 21  1  0
 21 22  2  0
 21 23  1  0
 23 24  2  0
 16 25  1  0
 11 26  1  0
 24  9  1  0
 23 12  1  0
 22 14  1  0
 22 17  1  0
M  END
$$$$
