
     RDKit          3D

 26 29  0  0  0  0  0  0  0  0999 V2000
   -1.8356    4.7788   14.5284 C   0  0  0  0  0  0  0  0  0  0  0  0
   -0.3799    4.5109   14.2528 C   0  0  0  0  0  0  0  0  0  0  0  0
   -0.1493    3.0913   13.7845 C   0  0  0  0  0  0  0  0  0  0  0  0
    1.3654    2.8587   13.8245 C   0  0  0  0  0  0  0  0  0  0  0  0
    1.6583    1.6077   14.3076 O   0  0  0  0  0  0  0  0  0  0  0  0
   -0.6097    3.0205   12.3975 N   0  0  0  0  0  0  0  0  0  0  0  0
   -1.4013    1.9400   11.9253 C   0  0  0  0  0  0  0  0  0  0  0  0
   -1.5272    0.8916   12.6080 O   0  0  0  0  0  0  0  0  0  0  0  0
   -2.0962    2.0472   10.5982 C   0  0  0  0  0  0  0  0  0  0  0  0
   -1.0483    2.1273    9.5421 C   0  0  0  0  0  0  0  0  0  0  0  0
   -1.3017    1.3498    8.3728 N   0  0  0  0  0  0  0  0  0  0  0  0
   -2.7478    1.3232    8.0702 C   0  0  0  0  0  0  0  0  0  0  0  0
   -2.9686    0.8708    6.6929 C   0  0  0  0  0  0  0  0  0  0  0  0
   -3.9069   -0.2606    6.5340 C   0  0  0  0  0  0  0  0  0  0  0  0
   -4.4093   -0.9258    5.4449 C   0  0  0  0  0  0  0  0  0  0  0  0
   -5.2656   -1.9239    5.8443 N   0  0  0  0  0  0  0  0  0  0  0  0
   -5.3091   -1.8946    7.1966 C   0  0  0  0  0  0  0  0  0  0  0  0
   -5.9578   -2.6080    8.2011 C   0  0  0  0  0  0  0  0  0  0  0  0
   -5.7372   -2.2652    9.5173 C   0  0  0  0  0  0  0  0  0  0  0  0
   -4.8871   -1.2271    9.9142 C   0  0  0  0  0  0  0  0  0  0  0  0
   -4.2550   -0.5338    8.9099 C   0  0  0  0  0  0  0  0  0  0  0  0
   -4.4831   -0.8839    7.6091 C   0  0  0  0  0  0  0  0  0  0  0  0
   -3.3451    0.5674    9.1730 C   0  0  0  0  0  0  0  0  0  0  0  0
   -3.0435    0.8964   10.4250 C   0  0  0  0  0  0  0  0  0  0  0  0
   -6.0078   -2.8589    5.0276 C   0  0  0  0  0  0  0  0  0  0  0  0
   -0.9024   -0.0359    8.5124 C   0  0  0  0  0  0  0  0  0  0  0  0
  1  2  1  0
  2  3  1  0
  3  4  1  0
  4  5  1  0
  3  6  1  0
  6  7  1  0
  7  8  2  0
  7  9  1  0
  9 10  1  0
 10 11  1  0
 11 12  1  0
 12 13  1  0
 13 14  1  0
 14 15  2  0
 15 16  1  0
 16 17  1  0
 17 18  2  0
 18 19  1  0
 19 20  2  0
 20 21  1  0
 21 22  2  0
 21 23  1  0
 23 24  2  0
 16 25  1  0
 11 26  1  0
 24  9  1  0
 23 12  1  0
 22 14  1  0
 22 17  1  0
M  END
$$$$
