
     RDKit          3D

 26 29  0  0  0  0  0  0  0  0999 V2000
   -1.9100    4.4784   14.7663 C   0  0  0  0  0  0  0  0  0  0  0  0
   -0.4891    4.2411   14.3285 C   0  0  0  0  0  0  0  0  0  0  0  0
   -0.3052    2.8579   13.7449 C   0  0  0  0  0  0  0  0  0  0  0  0
    1.2060    2.6372   13.6120 C   0  0  0  0  0  0  0  0  0  0  0  0
    1.5754    1.4279   14.1461 O   0  0  0  0  0  0  0  0  0  0  0  0
   -0.9073    2.8749   12.4115 N   0  0  0  0  0  0  0  0  0  0  0  0
   -1.7408    1.8205   11.9526 C   0  0  0  0  0  0  0  0  0  0  0  0
   -1.9472    0.8084   12.6696 O   0  0  0  0  0  0  0  0  0  0  0  0
   -2.3835    1.9119   10.5982 C   0  0  0  0  0  0  0  0  0  0  0  0
   -1.2953    1.9723    9.5824 C   0  0  0  0  0  0  0  0  0  0  0  0
   -1.5072    1.1794    8.4152 N   0  0  0  0  0  0  0  0  0  0  0  0
   -2.9407    1.1549    8.0574 C   0  0  0  0  0  0  0  0  0  0  0  0
   -3.1104    0.6839    6.6790 C   0  0  0  0  0  0  0  0  0  0  0  0
   -4.0475   -0.4455    6.5000 C   0  0  0  0  0  0  0  0  0  0  0  0
   -4.5108   -1.1239    5.4017 C   0  0  0  0  0  0  0  0  0  0  0  0
   -5.3869   -2.1124    5.7818 N   0  0  0  0  0  0  0  0  0  0  0  0
   -5.4823   -2.0637    7.1308 C   0  0  0  0  0  0  0  0  0  0  0  0
   -6.1728   -2.7598    8.1194 C   0  0  0  0  0  0  0  0  0  0  0  0
   -6.0014   -2.3993    9.4382 C   0  0  0  0  0  0  0  0  0  0  0  0
   -5.1621   -1.3594    9.8530 C   0  0  0  0  0  0  0  0  0  0  0  0
   -4.4884   -0.6833    8.8643 C   0  0  0  0  0  0  0  0  0  0  0  0
   -4.6679   -1.0509    7.5606 C   0  0  0  0  0  0  0  0  0  0  0  0
   -3.5838    0.4175    9.1468 C   0  0  0  0  0  0  0  0  0  0  0  0
   -3.3290    0.7629   10.4048 C   0  0  0  0  0  0  0  0  0  0  0  0
   -6.1017   -3.0556    4.9501 C   0  0  0  0  0  0  0  0  0  0  0  0
   -1.1205   -0.2060    8.5896 C   0  0  0  0  0  0  0  0  0  0  0  0
  1  2  1  0
  2  3  1  0
  3  4  1  0
  4  5  1  0
  3  6  1  0
  6  7  1  0
  7  8  2  0
  7  9  1  0
  9 10  1  0
 10 11  1  0
 11 12  1  0
 12 13  1  0
 13 14  1  0
 14 15  2  0
 15 16  1  0
 16 17  1  0
 17 18  2  0
 18 19  1  0
 19 20  2  0
 20 21  1  0
 21 22  2  0
 21 23  1  0
 23 24  2  0
 16 25  1  0
 11 26  1  0
 24  9  1  0
 23 12  1  0
 22 14  1  0
 22 17  1  0
M  END
$$$$
