
     RDKit          3D

 26 29  0  0  0  0  0  0  0  0999 V2000
   -2.2001    3.9278   14.9881 C   0  0  0  0  0  0  0  0  0  0  0  0
   -1.0088    4.2470   14.1246 C   0  0  0  0  0  0  0  0  0  0  0  0
   -0.3225    2.9935   13.6295 C   0  0  0  0  0  0  0  0  0  0  0  0
    1.1846    3.2673   13.6908 C   0  0  0  0  0  0  0  0  0  0  0  0
    1.9026    2.1383   13.3837 O   0  0  0  0  0  0  0  0  0  0  0  0
   -0.7215    2.8126   12.2335 N   0  0  0  0  0  0  0  0  0  0  0  0
   -1.7163    1.8725   11.8546 C   0  0  0  0  0  0  0  0  0  0  0  0
   -2.0898    0.9772   12.6546 O   0  0  0  0  0  0  0  0  0  0  0  0
   -2.3305    1.9456   10.4859 C   0  0  0  0  0  0  0  0  0  0  0  0
   -1.2227    1.9286    9.4897 C   0  0  0  0  0  0  0  0  0  0  0  0
   -1.4462    1.1073    8.3446 N   0  0  0  0  0  0  0  0  0  0  0  0
   -2.8728    1.1292    7.9603 C   0  0  0  0  0  0  0  0  0  0  0  0
   -3.0371    0.6207    6.5947 C   0  0  0  0  0  0  0  0  0  0  0  0
   -4.0165   -0.4751    6.4339 C   0  0  0  0  0  0  0  0  0  0  0  0
   -4.4877   -1.1697    5.3492 C   0  0  0  0  0  0  0  0  0  0  0  0
   -5.4102   -2.1090    5.7437 N   0  0  0  0  0  0  0  0  0  0  0  0
   -5.5277   -2.0123    7.0884 C   0  0  0  0  0  0  0  0  0  0  0  0
   -6.2637   -2.6473    8.0853 C   0  0  0  0  0  0  0  0  0  0  0  0
   -6.1012   -2.2511    9.3950 C   0  0  0  0  0  0  0  0  0  0  0  0
   -5.2275   -1.2331    9.7924 C   0  0  0  0  0  0  0  0  0  0  0  0
   -4.5089   -0.6175    8.7957 C   0  0  0  0  0  0  0  0  0  0  0  0
   -4.6801   -1.0199    7.5012 C   0  0  0  0  0  0  0  0  0  0  0  0
   -3.5651    0.4544    9.0602 C   0  0  0  0  0  0  0  0  0  0  0  0
   -3.3188    0.8302   10.3112 C   0  0  0  0  0  0  0  0  0  0  0  0
   -6.1482   -3.0491    4.9290 C   0  0  0  0  0  0  0  0  0  0  0  0
   -1.1199   -0.2862    8.5705 C   0  0  0  0  0  0  0  0  0  0  0  0
  1  2  1  0
  2  3  1  0
  3  4  1  0
  4  5  1  0
  3  6  1  0
  6  7  1  0
  7  8  2  0
  7  9  1  0
  9 10  1  0
 10 11  1  0
 11 12  1  0
 12 13  1  0
 13 14  1  0
 14 15  2  0
 15 16  1  0
 16 17  1  0
 17 18  2  0
 18 19  1  0
 19 20  2  0
 20 21  1  0
 21 22  2  0
 21 23  1  0
 23 24  2  0
 16 25  1  0
 11 26  1  0
 24  9  1  0
 23 12  1  0
 22 14  1  0
 22 17  1  0
M  END
$$$$
