
     RDKit          3D

 26 29  0  0  0  0  0  0  0  0999 V2000
   -0.3057    4.3722   15.7615 C   0  0  0  0  0  0  0  0  0  0  0  0
   -0.6836    4.3798   14.3041 C   0  0  0  0  0  0  0  0  0  0  0  0
    0.0013    3.2680   13.5409 C   0  0  0  0  0  0  0  0  0  0  0  0
    1.4829    3.6505   13.4476 C   0  0  0  0  0  0  0  0  0  0  0  0
    2.2867    2.5935   13.7955 O   0  0  0  0  0  0  0  0  0  0  0  0
   -0.5770    3.2551   12.1969 N   0  0  0  0  0  0  0  0  0  0  0  0
   -1.2521    2.1162   11.6830 C   0  0  0  0  0  0  0  0  0  0  0  0
   -1.2424    1.0274   12.3121 O   0  0  0  0  0  0  0  0  0  0  0  0
   -1.9859    2.2095   10.3759 C   0  0  0  0  0  0  0  0  0  0  0  0
   -0.9700    2.2527    9.2870 C   0  0  0  0  0  0  0  0  0  0  0  0
   -1.2713    1.4574    8.1412 N   0  0  0  0  0  0  0  0  0  0  0  0
   -2.7263    1.4485    7.8835 C   0  0  0  0  0  0  0  0  0  0  0  0
   -2.9965    0.9738    6.5226 C   0  0  0  0  0  0  0  0  0  0  0  0
   -3.9567   -0.1451    6.4145 C   0  0  0  0  0  0  0  0  0  0  0  0
   -4.5028   -0.8226    5.3543 C   0  0  0  0  0  0  0  0  0  0  0  0
   -5.3618   -1.7990    5.7989 N   0  0  0  0  0  0  0  0  0  0  0  0
   -5.3632   -1.7434    7.1511 C   0  0  0  0  0  0  0  0  0  0  0  0
   -5.9916   -2.4271    8.1886 C   0  0  0  0  0  0  0  0  0  0  0  0
   -5.7252   -2.0631    9.4905 C   0  0  0  0  0  0  0  0  0  0  0  0
   -4.8472   -1.0316    9.8411 C   0  0  0  0  0  0  0  0  0  0  0  0
   -4.2357   -0.3677    8.8047 C   0  0  0  0  0  0  0  0  0  0  0  0
   -4.5092   -0.7386    7.5185 C   0  0  0  0  0  0  0  0  0  0  0  0
   -3.3011    0.7234    9.0185 C   0  0  0  0  0  0  0  0  0  0  0  0
   -2.9559    1.0711   10.2541 C   0  0  0  0  0  0  0  0  0  0  0  0
   -6.1434   -2.7371    5.0235 C   0  0  0  0  0  0  0  0  0  0  0  0
   -0.8896    0.0683    8.2954 C   0  0  0  0  0  0  0  0  0  0  0  0
  1  2  1  0
  2  3  1  0
  3  4  1  0
  4  5  1  0
  3  6  1  0
  6  7  1  0
  7  8  2  0
  7  9  1  0
  9 10  1  0
 10 11  1  0
 11 12  1  0
 12 13  1  0
 13 14  1  0
 14 15  2  0
 15 16  1  0
 16 17  1  0
 17 18  2  0
 18 19  1  0
 19 20  2  0
 20 21  1  0
 21 22  2  0
 21 23  1  0
 23 24  2  0
 16 25  1  0
 11 26  1  0
 24  9  1  0
 23 12  1  0
 22 14  1  0
 22 17  1  0
M  END
$$$$
