
     RDKit          3D

 26 29  0  0  0  0  0  0  0  0999 V2000
    2.6928    2.7629   13.3653 C   0  0  0  0  0  0  0  0  0  0  0  0
    1.4584    1.9729   13.7105 C   0  0  0  0  0  0  0  0  0  0  0  0
    0.2503    2.8664   13.8830 C   0  0  0  0  0  0  0  0  0  0  0  0
   -0.6817    2.1550   14.8707 C   0  0  0  0  0  0  0  0  0  0  0  0
   -1.4431    3.0600   15.5675 O   0  0  0  0  0  0  0  0  0  0  0  0
   -0.4066    2.9508   12.5784 N   0  0  0  0  0  0  0  0  0  0  0  0
   -1.2446    1.9119   12.0931 C   0  0  0  0  0  0  0  0  0  0  0  0
   -1.3819    0.8436   12.7420 O   0  0  0  0  0  0  0  0  0  0  0  0
   -1.9754    2.0875   10.7928 C   0  0  0  0  0  0  0  0  0  0  0  0
   -0.9590    2.3208    9.7287 C   0  0  0  0  0  0  0  0  0  0  0  0
   -1.1925    1.6304    8.5019 N   0  0  0  0  0  0  0  0  0  0  0  0
   -2.6411    1.5404    8.2244 C   0  0  0  0  0  0  0  0  0  0  0  0
   -2.8663    1.1930    6.8176 C   0  0  0  0  0  0  0  0  0  0  0  0
   -3.7387    0.0233    6.5796 C   0  0  0  0  0  0  0  0  0  0  0  0
   -4.2256   -0.5774    5.4468 C   0  0  0  0  0  0  0  0  0  0  0  0
   -5.0111   -1.6565    5.7748 N   0  0  0  0  0  0  0  0  0  0  0  0
   -5.0248   -1.7440    7.1252 C   0  0  0  0  0  0  0  0  0  0  0  0
   -5.6061   -2.5781    8.0766 C   0  0  0  0  0  0  0  0  0  0  0  0
   -5.3758   -2.3345    9.4131 C   0  0  0  0  0  0  0  0  0  0  0  0
   -4.5804   -1.2832    9.8819 C   0  0  0  0  0  0  0  0  0  0  0  0
   -4.0145   -0.4701    8.9293 C   0  0  0  0  0  0  0  0  0  0  0  0
   -4.2514   -0.7227    7.6077 C   0  0  0  0  0  0  0  0  0  0  0  0
   -3.1663    0.6590    9.2691 C   0  0  0  0  0  0  0  0  0  0  0  0
   -2.8558    0.8993   10.5390 C   0  0  0  0  0  0  0  0  0  0  0  0
   -5.7148   -2.5633    4.8946 C   0  0  0  0  0  0  0  0  0  0  0  0
   -0.7079    0.2651    8.5152 C   0  0  0  0  0  0  0  0  0  0  0  0
  1  2  1  0
  2  3  1  0
  3  4  1  0
  4  5  1  0
  3  6  1  0
  6  7  1  0
  7  8  2  0
  7  9  1  0
  9 10  1  0
 10 11  1  0
 11 12  1  0
 12 13  1  0
 13 14  1  0
 14 15  2  0
 15 16  1  0
 16 17  1  0
 17 18  2  0
 18 19  1  0
 19 20  2  0
 20 21  1  0
 21 22  2  0
 21 23  1  0
 23 24  2  0
 16 25  1  0
 11 26  1  0
 24  9  1  0
 23 12  1  0
 22 14  1  0
 22 17  1  0
M  END
$$$$
