
     RDKit          3D

 26 29  0  0  0  0  0  0  0  0999 V2000
   -1.5555    4.9205   15.0268 C   0  0  0  0  0  0  0  0  0  0  0  0
   -1.3932    4.4281   13.6133 C   0  0  0  0  0  0  0  0  0  0  0  0
   -0.3659    3.3222   13.5187 C   0  0  0  0  0  0  0  0  0  0  0  0
    1.0032    3.9784   13.7303 C   0  0  0  0  0  0  0  0  0  0  0  0
    2.0147    3.0597   13.5986 O   0  0  0  0  0  0  0  0  0  0  0  0
   -0.4381    2.7893   12.1579 N   0  0  0  0  0  0  0  0  0  0  0  0
   -1.4454    1.8675   11.7670 C   0  0  0  0  0  0  0  0  0  0  0  0
   -1.7872    0.9295   12.5314 O   0  0  0  0  0  0  0  0  0  0  0  0
   -2.1109    2.0117   10.4283 C   0  0  0  0  0  0  0  0  0  0  0  0
   -1.0410    2.0655    9.3928 C   0  0  0  0  0  0  0  0  0  0  0  0
   -1.2988    1.3087    8.2110 N   0  0  0  0  0  0  0  0  0  0  0  0
   -2.7390    1.3353    7.8813 C   0  0  0  0  0  0  0  0  0  0  0  0
   -2.9491    0.9042    6.4955 C   0  0  0  0  0  0  0  0  0  0  0  0
   -3.9227   -0.1923    6.3075 C   0  0  0  0  0  0  0  0  0  0  0  0
   -4.4271   -0.8291    5.2024 C   0  0  0  0  0  0  0  0  0  0  0  0
   -5.3248   -1.8007    5.5755 N   0  0  0  0  0  0  0  0  0  0  0  0
   -5.3930   -1.7829    6.9269 C   0  0  0  0  0  0  0  0  0  0  0  0
   -6.0849   -2.4830    7.9118 C   0  0  0  0  0  0  0  0  0  0  0  0
   -5.8775   -2.1609    9.2353 C   0  0  0  0  0  0  0  0  0  0  0  0
   -4.9998   -1.1569    9.6587 C   0  0  0  0  0  0  0  0  0  0  0  0
   -4.3252   -0.4762    8.6736 C   0  0  0  0  0  0  0  0  0  0  0  0
   -4.5405   -0.8056    7.3652 C   0  0  0  0  0  0  0  0  0  0  0  0
   -3.3829    0.5900    8.9649 C   0  0  0  0  0  0  0  0  0  0  0  0
   -3.0939    0.8962   10.2256 C   0  0  0  0  0  0  0  0  0  0  0  0
   -6.0833   -2.7013    4.7354 C   0  0  0  0  0  0  0  0  0  0  0  0
   -0.9504   -0.0914    8.3437 C   0  0  0  0  0  0  0  0  0  0  0  0
  1  2  1  0
  2  3  1  0
  3  4  1  0
  4  5  1  0
  3  6  1  0
  6  7  1  0
  7  8  2  0
  7  9  1  0
  9 10  1  0
 10 11  1  0
 11 12  1  0
 12 13  1  0
 13 14  1  0
 14 15  2  0
 15 16  1  0
 16 17  1  0
 17 18  2  0
 18 19  1  0
 19 20  2  0
 20 21  1  0
 21 22  2  0
 21 23  1  0
 23 24  2  0
 16 25  1  0
 11 26  1  0
 24  9  1  0
 23 12  1  0
 22 14  1  0
 22 17  1  0
M  END
$$$$
