
     RDKit          3D

 26 29  0  0  0  0  0  0  0  0999 V2000
    0.0767    3.4640   15.5959 C   0  0  0  0  0  0  0  0  0  0  0  0
   -0.5480    3.5227   14.2273 C   0  0  0  0  0  0  0  0  0  0  0  0
    0.4753    3.3123   13.1337 C   0  0  0  0  0  0  0  0  0  0  0  0
    1.3694    4.5576   13.1267 C   0  0  0  0  0  0  0  0  0  0  0  0
    2.5372    4.3208   12.4451 O   0  0  0  0  0  0  0  0  0  0  0  0
   -0.2598    3.2416   11.8706 N   0  0  0  0  0  0  0  0  0  0  0  0
   -1.0529    2.1145   11.5277 C   0  0  0  0  0  0  0  0  0  0  0  0
   -1.0908    1.1057   12.2773 O   0  0  0  0  0  0  0  0  0  0  0  0
   -1.8553    2.1242   10.2581 C   0  0  0  0  0  0  0  0  0  0  0  0
   -0.8986    2.1015    9.1162 C   0  0  0  0  0  0  0  0  0  0  0  0
   -1.2557    1.2355    8.0398 N   0  0  0  0  0  0  0  0  0  0  0  0
   -2.7222    1.2071    7.8609 C   0  0  0  0  0  0  0  0  0  0  0  0
   -3.0612    0.6475    6.5485 C   0  0  0  0  0  0  0  0  0  0  0  0
   -4.0195   -0.4782    6.5615 C   0  0  0  0  0  0  0  0  0  0  0  0
   -4.6170   -1.2220    5.5761 C   0  0  0  0  0  0  0  0  0  0  0  0
   -5.4458   -2.1707    6.1258 N   0  0  0  0  0  0  0  0  0  0  0  0
   -5.3759   -2.0306    7.4700 C   0  0  0  0  0  0  0  0  0  0  0  0
   -5.9447   -2.6496    8.5800 C   0  0  0  0  0  0  0  0  0  0  0  0
   -5.6118   -2.2043    9.8408 C   0  0  0  0  0  0  0  0  0  0  0  0
   -4.7224   -1.1508   10.0792 C   0  0  0  0  0  0  0  0  0  0  0  0
   -4.1704   -0.5515    8.9724 C   0  0  0  0  0  0  0  0  0  0  0  0
   -4.5094   -1.0028    7.7282 C   0  0  0  0  0  0  0  0  0  0  0  0
   -3.2320    0.5530    9.0678 C   0  0  0  0  0  0  0  0  0  0  0  0
   -2.8239    0.9781   10.2592 C   0  0  0  0  0  0  0  0  0  0  0  0
   -6.2619   -3.1573    5.4530 C   0  0  0  0  0  0  0  0  0  0  0  0
   -0.8584   -0.1404    8.2598 C   0  0  0  0  0  0  0  0  0  0  0  0
  1  2  1  0
  2  3  1  0
  3  4  1  0
  4  5  1  0
  3  6  1  0
  6  7  1  0
  7  8  2  0
  7  9  1  0
  9 10  1  0
 10 11  1  0
 11 12  1  0
 12 13  1  0
 13 14  1  0
 14 15  2  0
 15 16  1  0
 16 17  1  0
 17 18  2  0
 18 19  1  0
 19 20  2  0
 20 21  1  0
 21 22  2  0
 21 23  1  0
 23 24  2  0
 16 25  1  0
 11 26  1  0
 24  9  1  0
 23 12  1  0
 22 14  1  0
 22 17  1  0
M  END
$$$$
