
     RDKit          3D

 26 29  0  0  0  0  0  0  0  0999 V2000
   -0.2987    5.4401   15.1700 C   0  0  0  0  0  0  0  0  0  0  0  0
   -0.6324    5.1812   13.7249 C   0  0  0  0  0  0  0  0  0  0  0  0
    0.2285    4.0850   13.1378 C   0  0  0  0  0  0  0  0  0  0  0  0
    1.6466    4.6563   13.0250 C   0  0  0  0  0  0  0  0  0  0  0  0
    2.5683    3.7953   13.5666 O   0  0  0  0  0  0  0  0  0  0  0  0
   -0.2872    3.8111   11.7962 N   0  0  0  0  0  0  0  0  0  0  0  0
   -1.0716    2.6608   11.5156 C   0  0  0  0  0  0  0  0  0  0  0  0
   -1.0958    1.6910   12.3156 O   0  0  0  0  0  0  0  0  0  0  0  0
   -1.8812    2.5988   10.2521 C   0  0  0  0  0  0  0  0  0  0  0  0
   -0.9311    2.5074    9.1081 C   0  0  0  0  0  0  0  0  0  0  0  0
   -1.2961    1.5812    8.0859 N   0  0  0  0  0  0  0  0  0  0  0  0
   -2.7637    1.5462    7.9171 C   0  0  0  0  0  0  0  0  0  0  0  0
   -3.1115    0.9122    6.6413 C   0  0  0  0  0  0  0  0  0  0  0  0
   -4.0722   -0.2084    6.7250 C   0  0  0  0  0  0  0  0  0  0  0  0
   -4.6769   -1.0066    5.7879 C   0  0  0  0  0  0  0  0  0  0  0  0
   -5.5047   -1.9197    6.3963 N   0  0  0  0  0  0  0  0  0  0  0  0
   -5.4268   -1.7019    7.7297 C   0  0  0  0  0  0  0  0  0  0  0  0
   -5.9907   -2.2539    8.8770 C   0  0  0  0  0  0  0  0  0  0  0  0
   -5.6497   -1.7370   10.1079 C   0  0  0  0  0  0  0  0  0  0  0  0
   -4.7566   -0.6737   10.2797 C   0  0  0  0  0  0  0  0  0  0  0  0
   -4.2095   -0.1412    9.1370 C   0  0  0  0  0  0  0  0  0  0  0  0
   -4.5566   -0.6631    7.9229 C   0  0  0  0  0  0  0  0  0  0  0  0
   -3.2681    0.9646    9.1628 C   0  0  0  0  0  0  0  0  0  0  0  0
   -2.8523    1.4572   10.3252 C   0  0  0  0  0  0  0  0  0  0  0  0
   -6.3268   -2.9416    5.7865 C   0  0  0  0  0  0  0  0  0  0  0  0
   -0.9007    0.2194    8.3833 C   0  0  0  0  0  0  0  0  0  0  0  0
  1  2  1  0
  2  3  1  0
  3  4  1  0
  4  5  1  0
  3  6  1  0
  6  7  1  0
  7  8  2  0
  7  9  1  0
  9 10  1  0
 10 11  1  0
 11 12  1  0
 12 13  1  0
 13 14  1  0
 14 15  2  0
 15 16  1  0
 16 17  1  0
 17 18  2  0
 18 19  1  0
 19 20  2  0
 20 21  1  0
 21 22  2  0
 21 23  1  0
 23 24  2  0
 16 25  1  0
 11 26  1  0
 24  9  1  0
 23 12  1  0
 22 14  1  0
 22 17  1  0
M  END
$$$$
