
     RDKit          3D

 26 29  0  0  0  0  0  0  0  0999 V2000
   -1.4104    5.3435   14.0942 C   0  0  0  0  0  0  0  0  0  0  0  0
   -0.0271    4.7723   13.9297 C   0  0  0  0  0  0  0  0  0  0  0  0
   -0.0659    3.3188   13.5134 C   0  0  0  0  0  0  0  0  0  0  0  0
    1.3918    2.8673   13.3667 C   0  0  0  0  0  0  0  0  0  0  0  0
    1.8584    2.3235   14.5375 O   0  0  0  0  0  0  0  0  0  0  0  0
   -0.7185    3.2680   12.2048 N   0  0  0  0  0  0  0  0  0  0  0  0
   -1.5402    2.1755   11.8196 C   0  0  0  0  0  0  0  0  0  0  0  0
   -1.6524    1.1656   12.5603 O   0  0  0  0  0  0  0  0  0  0  0  0
   -2.2839    2.2236   10.5156 C   0  0  0  0  0  0  0  0  0  0  0  0
   -1.2759    2.2749    9.4197 C   0  0  0  0  0  0  0  0  0  0  0  0
   -1.5612    1.4501    8.2908 N   0  0  0  0  0  0  0  0  0  0  0  0
   -3.0168    1.3954    8.0425 C   0  0  0  0  0  0  0  0  0  0  0  0
   -3.2813    0.8879    6.6924 C   0  0  0  0  0  0  0  0  0  0  0  0
   -4.2101   -0.2595    6.6111 C   0  0  0  0  0  0  0  0  0  0  0  0
   -4.7429   -0.9718    5.5672 C   0  0  0  0  0  0  0  0  0  0  0  0
   -5.5714   -1.9636    6.0353 N   0  0  0  0  0  0  0  0  0  0  0  0
   -5.5665   -1.8827    7.3862 C   0  0  0  0  0  0  0  0  0  0  0  0
   -6.1694   -2.5642    8.4401 C   0  0  0  0  0  0  0  0  0  0  0  0
   -5.9058   -2.1685    9.7334 C   0  0  0  0  0  0  0  0  0  0  0  0
   -5.0554   -1.1063   10.0592 C   0  0  0  0  0  0  0  0  0  0  0  0
   -4.4689   -0.4449    9.0068 C   0  0  0  0  0  0  0  0  0  0  0  0
   -4.7392   -0.8475    7.7294 C   0  0  0  0  0  0  0  0  0  0  0  0
   -3.5643    0.6758    9.1944 C   0  0  0  0  0  0  0  0  0  0  0  0
   -3.2219    1.0563   10.4211 C   0  0  0  0  0  0  0  0  0  0  0  0
   -6.3305   -2.9377    5.2823 C   0  0  0  0  0  0  0  0  0  0  0  0
   -1.1394    0.0755    8.4684 C   0  0  0  0  0  0  0  0  0  0  0  0
  1  2  1  0
  2  3  1  0
  3  4  1  0
  4  5  1  0
  3  6  1  0
  6  7  1  0
  7  8  2  0
  7  9  1  0
  9 10  1  0
 10 11  1  0
 11 12  1  0
 12 13  1  0
 13 14  1  0
 14 15  2  0
 15 16  1  0
 16 17  1  0
 17 18  2  0
 18 19  1  0
 19 20  2  0
 20 21  1  0
 21 22  2  0
 21 23  1  0
 23 24  2  0
 16 25  1  0
 11 26  1  0
 24  9  1  0
 23 12  1  0
 22 14  1  0
 22 17  1  0
M  END
$$$$
