
     RDKit          3D

 26 29  0  0  0  0  0  0  0  0999 V2000
    3.0217    3.2146   12.1598 C   0  0  0  0  0  0  0  0  0  0  0  0
    2.1677    4.1106   13.0171 C   0  0  0  0  0  0  0  0  0  0  0  0
    0.8053    4.3429   12.4027 C   0  0  0  0  0  0  0  0  0  0  0  0
    0.0292    5.2292   13.3837 C   0  0  0  0  0  0  0  0  0  0  0  0
   -0.9986    5.8818   12.7496 O   0  0  0  0  0  0  0  0  0  0  0  0
    0.1504    3.0376   12.3132 N   0  0  0  0  0  0  0  0  0  0  0  0
   -0.4842    2.5982   11.1210 C   0  0  0  0  0  0  0  0  0  0  0  0
   -0.5009    3.3283   10.0974 O   0  0  0  0  0  0  0  0  0  0  0  0
   -1.1427    1.2490   11.0789 C   0  0  0  0  0  0  0  0  0  0  0  0
   -2.0970    1.1737   12.2206 C   0  0  0  0  0  0  0  0  0  0  0  0
   -3.3595    0.5803   11.9207 N   0  0  0  0  0  0  0  0  0  0  0  0
   -3.2006   -0.5068   10.9325 C   0  0  0  0  0  0  0  0  0  0  0  0
   -4.3966   -1.3551   10.9165 C   0  0  0  0  0  0  0  0  0  0  0  0
   -5.0173   -1.5604    9.5904 C   0  0  0  0  0  0  0  0  0  0  0  0
   -6.0825   -2.3041    9.1506 C   0  0  0  0  0  0  0  0  0  0  0  0
   -6.2501   -2.1489    7.7953 N   0  0  0  0  0  0  0  0  0  0  0  0
   -5.2855   -1.3009    7.3687 C   0  0  0  0  0  0  0  0  0  0  0  0
   -4.8993   -0.7409    6.1539 C   0  0  0  0  0  0  0  0  0  0  0  0
   -3.8191    0.1141    6.1222 C   0  0  0  0  0  0  0  0  0  0  0  0
   -3.0734    0.4606    7.2543 C   0  0  0  0  0  0  0  0  0  0  0  0
   -3.4686   -0.1011    8.4447 C   0  0  0  0  0  0  0  0  0  0  0  0
   -4.5411   -0.9475    8.4618 C   0  0  0  0  0  0  0  0  0  0  0  0
   -2.7888    0.1679    9.6998 C   0  0  0  0  0  0  0  0  0  0  0  0
   -1.7838    1.0369    9.7390 C   0  0  0  0  0  0  0  0  0  0  0  0
   -7.2449   -2.7479    6.9329 C   0  0  0  0  0  0  0  0  0  0  0  0
   -4.3019    1.5116   11.3344 C   0  0  0  0  0  0  0  0  0  0  0  0
  1  2  1  0
  2  3  1  0
  3  4  1  0
  4  5  1  0
  3  6  1  0
  6  7  1  0
  7  8  2  0
  7  9  1  0
  9 10  1  0
 10 11  1  0
 11 12  1  0
 12 13  1  0
 13 14  1  0
 14 15  2  0
 15 16  1  0
 16 17  1  0
 17 18  2  0
 18 19  1  0
 19 20  2  0
 20 21  1  0
 21 22  2  0
 21 23  1  0
 23 24  2  0
 16 25  1  0
 11 26  1  0
 24  9  1  0
 23 12  1  0
 22 14  1  0
 22 17  1  0
M  END
$$$$
