
     RDKit          3D

 26 29  0  0  0  0  0  0  0  0999 V2000
    0.6396    2.3822   14.8678 C   0  0  0  0  0  0  0  0  0  0  0  0
   -0.1407    3.0274   13.7535 C   0  0  0  0  0  0  0  0  0  0  0  0
    0.7694    3.6458   12.7159 C   0  0  0  0  0  0  0  0  0  0  0  0
    0.6569    5.1652   12.8859 C   0  0  0  0  0  0  0  0  0  0  0  0
    1.8962    5.7368   13.0327 O   0  0  0  0  0  0  0  0  0  0  0  0
    0.2392    3.2685   11.4054 N   0  0  0  0  0  0  0  0  0  0  0  0
   -0.6965    2.2111   11.2522 C   0  0  0  0  0  0  0  0  0  0  0  0
   -0.7422    1.2701   12.0850 O   0  0  0  0  0  0  0  0  0  0  0  0
   -1.6422    2.2137   10.0853 C   0  0  0  0  0  0  0  0  0  0  0  0
   -0.8256    2.2051    8.8392 C   0  0  0  0  0  0  0  0  0  0  0  0
   -1.2960    1.3370    7.8090 N   0  0  0  0  0  0  0  0  0  0  0  0
   -2.7730    1.2912    7.8029 C   0  0  0  0  0  0  0  0  0  0  0  0
   -3.2568    0.7304    6.5373 C   0  0  0  0  0  0  0  0  0  0  0  0
   -4.1936   -0.4069    6.6584 C   0  0  0  0  0  0  0  0  0  0  0  0
   -4.8936   -1.1558    5.7472 C   0  0  0  0  0  0  0  0  0  0  0  0
   -5.6410   -2.1156    6.3868 N   0  0  0  0  0  0  0  0  0  0  0  0
   -5.4159   -1.9776    7.7141 C   0  0  0  0  0  0  0  0  0  0  0  0
   -5.8434   -2.6057    8.8808 C   0  0  0  0  0  0  0  0  0  0  0  0
   -5.3704   -2.1591   10.0955 C   0  0  0  0  0  0  0  0  0  0  0  0
   -4.4717   -1.0954   10.2319 C   0  0  0  0  0  0  0  0  0  0  0  0
   -4.0602   -0.4871    9.0702 C   0  0  0  0  0  0  0  0  0  0  0  0
   -4.5373   -0.9399    7.8726 C   0  0  0  0  0  0  0  0  0  0  0  0
   -3.1301    0.6285    9.0589 C   0  0  0  0  0  0  0  0  0  0  0  0
   -2.5903    1.0560   10.1958 C   0  0  0  0  0  0  0  0  0  0  0  0
   -6.5186   -3.1106    5.8107 C   0  0  0  0  0  0  0  0  0  0  0  0
   -0.8595   -0.0344    7.9761 C   0  0  0  0  0  0  0  0  0  0  0  0
  1  2  1  0
  2  3  1  0
  3  4  1  0
  4  5  1  0
  3  6  1  0
  6  7  1  0
  7  8  2  0
  7  9  1  0
  9 10  1  0
 10 11  1  0
 11 12  1  0
 12 13  1  0
 13 14  1  0
 14 15  2  0
 15 16  1  0
 16 17  1  0
 17 18  2  0
 18 19  1  0
 19 20  2  0
 20 21  1  0
 21 22  2  0
 21 23  1  0
 23 24  2  0
 16 25  1  0
 11 26  1  0
 24  9  1  0
 23 12  1  0
 22 14  1  0
 22 17  1  0
M  END
$$$$
