
     RDKit          3D

 32 34  0  0  0  0  0  0  0  0999 V2000
   -2.4647    4.9084   11.6185 C   0  0  0  0  0  0  0  0  0  0  0  0
   -2.1394    4.0258   10.4360 C   0  0  0  0  0  0  0  0  0  0  0  0
   -0.7984    4.3864    9.9653 N   0  0  0  0  0  0  0  0  0  0  0  0
   -0.7266    5.5392    9.0890 C   0  0  0  0  0  0  0  0  0  0  0  0
   -0.9523    5.2051    7.6636 C   0  0  0  0  0  0  0  0  0  0  0  0
   -1.2789    3.9140    7.3262 C   0  0  0  0  0  0  0  0  0  0  0  0
   -1.4988    3.5410    6.0373 N   0  0  0  0  0  0  0  0  0  0  0  0
   -1.3934    4.4582    5.0776 C   0  0  0  0  0  0  0  0  0  0  0  0
   -1.0666    5.7790    5.3546 C   0  0  0  0  0  0  0  0  0  0  0  0
   -0.8499    6.1309    6.6573 C   0  0  0  0  0  0  0  0  0  0  0  0
    0.3452    3.6428   10.3533 C   0  0  0  0  0  0  0  0  0  0  0  0
    1.4630    3.9808    9.9143 O   0  0  0  0  0  0  0  0  0  0  0  0
    0.2016    2.5043   11.2509 C   0  0  0  0  0  0  0  0  0  0  0  0
    1.1855    1.4543   11.0879 N   0  0  0  0  0  0  0  0  0  0  0  0
    0.7669    0.2674   10.4203 C   0  0  0  0  0  0  0  0  0  0  0  0
    0.5524    0.2272    9.0574 C   0  0  0  0  0  0  0  0  0  0  0  0
    0.1490   -0.8886    8.4022 N   0  0  0  0  0  0  0  0  0  0  0  0
   -0.0677   -2.0358    9.0555 C   0  0  0  0  0  0  0  0  0  0  0  0
    0.1345   -2.0521   10.4408 C   0  0  0  0  0  0  0  0  0  0  0  0
    0.5434   -0.9127   11.0894 C   0  0  0  0  0  0  0  0  0  0  0  0
   -0.4851   -3.2165    8.4251 O   0  0  0  0  0  0  0  0  0  0  0  0
   -0.7924   -3.2548    7.0514 C   0  0  0  0  0  0  0  0  0  0  0  0
    2.7361    1.7405   11.6805 S   0  0  0  0  0  6  0  0  0  0  0  0
    2.6441    2.9412   12.6174 O   0  0  0  0  0  0  0  0  0  0  0  0
    3.6311    2.1839   10.5580 O   0  0  0  0  0  0  0  0  0  0  0  0
    3.5325    0.4216   12.4671 C   0  0  0  0  0  0  0  0  0  0  0  0
    3.4758    0.3397   13.8405 C   0  0  0  0  0  0  0  0  0  0  0  0
    4.0782   -0.6751   14.5429 C   0  0  0  0  0  0  0  0  0  0  0  0
    4.7586   -1.6351   13.8251 C   0  0  0  0  0  0  0  0  0  0  0  0
    4.8494   -1.6062   12.4557 C   0  0  0  0  0  0  0  0  0  0  0  0
    4.2218   -0.5569   11.7888 C   0  0  0  0  0  0  0  0  0  0  0  0
    4.3279   -0.5354   10.3207 C   0  0  0  0  0  0  0  0  0  0  0  0
  1  2  1  0
  2  3  1  0
  3  4  1  0
  4  5  1  0
  5  6  2  0
  6  7  1  0
  7  8  2  0
  8  9  1  0
  9 10  2  0
  3 11  1  0
 11 12  2  0
 11 13  1  0
 13 14  1  0
 14 15  1  0
 15 16  2  0
 16 17  1  0
 17 18  2  0
 18 19  1  0
 19 20  2  0
 18 21  1  0
 21 22  1  0
 14 23  1  0
 23 24  2  0
 23 25  2  0
 23 26  1  0
 26 27  2  0
 27 28  1  0
 28 29  2  0
 29 30  1  0
 30 31  2  0
 31 32  1  0
 10  5  1  0
 20 15  1  0
 31 26  1  0
M  END
$$$$
