
     RDKit          3D

 32 34  0  0  0  0  0  0  0  0999 V2000
    2.8872    4.4817    8.1976 C   0  0  0  0  0  0  0  0  0  0  0  0
    1.6162    4.8260    8.9386 C   0  0  0  0  0  0  0  0  0  0  0  0
    0.7032    3.6855    8.8128 N   0  0  0  0  0  0  0  0  0  0  0  0
   -0.1846    3.7121    7.6669 C   0  0  0  0  0  0  0  0  0  0  0  0
   -1.3282    4.6386    7.8346 C   0  0  0  0  0  0  0  0  0  0  0  0
   -1.3898    5.4230    8.9609 C   0  0  0  0  0  0  0  0  0  0  0  0
   -2.4116    6.2937    9.1761 N   0  0  0  0  0  0  0  0  0  0  0  0
   -3.3786    6.3850    8.2652 C   0  0  0  0  0  0  0  0  0  0  0  0
   -3.3731    5.6196    7.1067 C   0  0  0  0  0  0  0  0  0  0  0  0
   -2.3360    4.7512    6.9116 C   0  0  0  0  0  0  0  0  0  0  0  0
    0.7027    2.6317    9.7620 C   0  0  0  0  0  0  0  0  0  0  0  0
   -0.2921    1.8822    9.8318 O   0  0  0  0  0  0  0  0  0  0  0  0
    1.8530    2.4396   10.6351 C   0  0  0  0  0  0  0  0  0  0  0  0
    1.9633    1.1290   11.2411 N   0  0  0  0  0  0  0  0  0  0  0  0
    1.5487    0.0128   10.4590 C   0  0  0  0  0  0  0  0  0  0  0  0
    0.2790   -0.5203   10.5538 C   0  0  0  0  0  0  0  0  0  0  0  0
   -0.1354   -1.5846    9.8239 N   0  0  0  0  0  0  0  0  0  0  0  0
    0.6817   -2.1887    8.9537 C   0  0  0  0  0  0  0  0  0  0  0  0
    1.9824   -1.6891    8.8170 C   0  0  0  0  0  0  0  0  0  0  0  0
    2.3864   -0.6098    9.5641 C   0  0  0  0  0  0  0  0  0  0  0  0
    0.3020   -3.2916    8.1758 O   0  0  0  0  0  0  0  0  0  0  0  0
   -0.8440   -4.0523    8.4774 C   0  0  0  0  0  0  0  0  0  0  0  0
    2.5911    1.0425   12.8018 S   0  0  0  0  0  6  0  0  0  0  0  0
    1.4222    1.2189   13.7663 O   0  0  0  0  0  0  0  0  0  0  0  0
    3.4889    2.2214   13.0504 O   0  0  0  0  0  0  0  0  0  0  0  0
    3.4982   -0.3739   13.2065 C   0  0  0  0  0  0  0  0  0  0  0  0
    3.0003   -1.2253   14.1673 C   0  0  0  0  0  0  0  0  0  0  0  0
    3.6554   -2.3715   14.5460 C   0  0  0  0  0  0  0  0  0  0  0  0
    4.8531   -2.6590   13.9276 C   0  0  0  0  0  0  0  0  0  0  0  0
    5.3989   -1.8486   12.9634 C   0  0  0  0  0  0  0  0  0  0  0  0
    4.6968   -0.6976   12.6138 C   0  0  0  0  0  0  0  0  0  0  0  0
    5.2930    0.1646   11.5803 C   0  0  0  0  0  0  0  0  0  0  0  0
  1  2  1  0
  2  3  1  0
  3  4  1  0
  4  5  1  0
  5  6  2  0
  6  7  1  0
  7  8  2  0
  8  9  1  0
  9 10  2  0
  3 11  1  0
 11 12  2  0
 11 13  1  0
 13 14  1  0
 14 15  1  0
 15 16  2  0
 16 17  1  0
 17 18  2  0
 18 19  1  0
 19 20  2  0
 18 21  1  0
 21 22  1  0
 14 23  1  0
 23 24  2  0
 23 25  2  0
 23 26  1  0
 26 27  2  0
 27 28  1  0
 28 29  2  0
 29 30  1  0
 30 31  2  0
 31 32  1  0
 10  5  1  0
 20 15  1  0
 31 26  1  0
M  END
$$$$
