
     RDKit          3D

 32 34  0  0  0  0  0  0  0  0999 V2000
    2.6992    5.7770    9.7136 C   0  0  0  0  0  0  0  0  0  0  0  0
    1.8310    4.6995    9.1068 C   0  0  0  0  0  0  0  0  0  0  0  0
    0.6386    4.5601    9.9487 N   0  0  0  0  0  0  0  0  0  0  0  0
   -0.4607    5.4527    9.6376 C   0  0  0  0  0  0  0  0  0  0  0  0
   -1.3086    4.9697    8.5231 C   0  0  0  0  0  0  0  0  0  0  0  0
   -1.0632    3.7275    7.9900 C   0  0  0  0  0  0  0  0  0  0  0  0
   -1.8038    3.2249    6.9665 N   0  0  0  0  0  0  0  0  0  0  0  0
   -2.7949    3.9625    6.4698 C   0  0  0  0  0  0  0  0  0  0  0  0
   -3.0925    5.2251    6.9654 C   0  0  0  0  0  0  0  0  0  0  0  0
   -2.3348    5.7097    7.9944 C   0  0  0  0  0  0  0  0  0  0  0  0
    0.5822    3.6065   10.9970 C   0  0  0  0  0  0  0  0  0  0  0  0
   -0.5092    3.3950   11.5630 O   0  0  0  0  0  0  0  0  0  0  0  0
    1.7880    2.8927   11.3958 C   0  0  0  0  0  0  0  0  0  0  0  0
    1.5943    1.5114   11.7852 N   0  0  0  0  0  0  0  0  0  0  0  0
    1.1946    0.5978   10.7679 C   0  0  0  0  0  0  0  0  0  0  0  0
   -0.0937    0.5657   10.2734 C   0  0  0  0  0  0  0  0  0  0  0  0
   -0.4976   -0.2980    9.3100 N   0  0  0  0  0  0  0  0  0  0  0  0
    0.3490   -1.1853    8.7754 C   0  0  0  0  0  0  0  0  0  0  0  0
    1.6696   -1.1971    9.2403 C   0  0  0  0  0  0  0  0  0  0  0  0
    2.0626   -0.3150   10.2169 C   0  0  0  0  0  0  0  0  0  0  0  0
   -0.0186   -2.0991    7.7777 O   0  0  0  0  0  0  0  0  0  0  0  0
   -1.3318   -2.5973    7.6760 C   0  0  0  0  0  0  0  0  0  0  0  0
    1.8807    1.1084   13.3955 S   0  0  0  0  0  6  0  0  0  0  0  0
    0.5363    0.7292   14.0093 O   0  0  0  0  0  0  0  0  0  0  0  0
    2.3280    2.3289   14.1491 O   0  0  0  0  0  0  0  0  0  0  0  0
    3.0524   -0.1275   13.6998 C   0  0  0  0  0  0  0  0  0  0  0  0
    2.6146   -1.3653   14.1146 C   0  0  0  0  0  0  0  0  0  0  0  0
    3.4772   -2.4017   14.3757 C   0  0  0  0  0  0  0  0  0  0  0  0
    4.8257   -2.1703   14.2092 C   0  0  0  0  0  0  0  0  0  0  0  0
    5.3211   -0.9578   13.7983 C   0  0  0  0  0  0  0  0  0  0  0  0
    4.4064    0.0617   13.5462 C   0  0  0  0  0  0  0  0  0  0  0  0
    4.9495    1.3580   13.1081 C   0  0  0  0  0  0  0  0  0  0  0  0
  1  2  1  0
  2  3  1  0
  3  4  1  0
  4  5  1  0
  5  6  2  0
  6  7  1  0
  7  8  2  0
  8  9  1  0
  9 10  2  0
  3 11  1  0
 11 12  2  0
 11 13  1  0
 13 14  1  0
 14 15  1  0
 15 16  2  0
 16 17  1  0
 17 18  2  0
 18 19  1  0
 19 20  2  0
 18 21  1  0
 21 22  1  0
 14 23  1  0
 23 24  2  0
 23 25  2  0
 23 26  1  0
 26 27  2  0
 27 28  1  0
 28 29  2  0
 29 30  1  0
 30 31  2  0
 31 32  1  0
 10  5  1  0
 20 15  1  0
 31 26  1  0
M  END
$$$$
