
     RDKit          3D

 32 34  0  0  0  0  0  0  0  0999 V2000
   -0.4683    6.2786   11.8921 C   0  0  0  0  0  0  0  0  0  0  0  0
   -0.9911    4.9591   11.3739 C   0  0  0  0  0  0  0  0  0  0  0  0
   -0.1685    4.5742   10.2226 N   0  0  0  0  0  0  0  0  0  0  0  0
   -0.1591    5.5084    9.1140 C   0  0  0  0  0  0  0  0  0  0  0  0
   -0.9436    5.0401    7.9480 C   0  0  0  0  0  0  0  0  0  0  0  0
   -1.6847    3.8891    8.0633 C   0  0  0  0  0  0  0  0  0  0  0  0
   -2.4264    3.4048    7.0318 N   0  0  0  0  0  0  0  0  0  0  0  0
   -2.4312    4.0696    5.8780 C   0  0  0  0  0  0  0  0  0  0  0  0
   -1.7033    5.2385    5.6991 C   0  0  0  0  0  0  0  0  0  0  0  0
   -0.9651    5.7065    6.7498 C   0  0  0  0  0  0  0  0  0  0  0  0
    0.5649    3.3604   10.2120 C   0  0  0  0  0  0  0  0  0  0  0  0
    1.1916    3.0424    9.1812 O   0  0  0  0  0  0  0  0  0  0  0  0
    0.5772    2.5083   11.3936 C   0  0  0  0  0  0  0  0  0  0  0  0
    1.4312    1.3417   11.3117 N   0  0  0  0  0  0  0  0  0  0  0  0
    0.8626    0.1553   10.7651 C   0  0  0  0  0  0  0  0  0  0  0  0
    0.6843   -0.0164    9.4072 C   0  0  0  0  0  0  0  0  0  0  0  0
    0.1408   -1.1337    8.8654 N   0  0  0  0  0  0  0  0  0  0  0  0
   -0.2609   -2.1521    9.6345 C   0  0  0  0  0  0  0  0  0  0  0  0
   -0.1037   -2.0314   11.0205 C   0  0  0  0  0  0  0  0  0  0  0  0
    0.4489   -0.8925   11.5532 C   0  0  0  0  0  0  0  0  0  0  0  0
   -0.8285   -3.3281    9.1241 O   0  0  0  0  0  0  0  0  0  0  0  0
   -0.9215   -3.5661    7.7393 C   0  0  0  0  0  0  0  0  0  0  0  0
    3.0203    1.5001   11.8474 S   0  0  0  0  0  6  0  0  0  0  0  0
    2.9992    2.4511   13.0403 O   0  0  0  0  0  0  0  0  0  0  0  0
    3.8385    2.2000   10.7995 O   0  0  0  0  0  0  0  0  0  0  0  0
    3.8619    0.0438   12.2523 C   0  0  0  0  0  0  0  0  0  0  0  0
    4.6941   -0.5216   11.3121 C   0  0  0  0  0  0  0  0  0  0  0  0
    5.4002   -1.6747   11.5526 C   0  0  0  0  0  0  0  0  0  0  0  0
    5.2545   -2.2696   12.7874 C   0  0  0  0  0  0  0  0  0  0  0  0
    4.4399   -1.7526   13.7639 C   0  0  0  0  0  0  0  0  0  0  0  0
    3.7446   -0.5817   13.4720 C   0  0  0  0  0  0  0  0  0  0  0  0
    2.8727   -0.0380   14.5261 C   0  0  0  0  0  0  0  0  0  0  0  0
  1  2  1  0
  2  3  1  0
  3  4  1  0
  4  5  1  0
  5  6  2  0
  6  7  1  0
  7  8  2  0
  8  9  1  0
  9 10  2  0
  3 11  1  0
 11 12  2  0
 11 13  1  0
 13 14  1  0
 14 15  1  0
 15 16  2  0
 16 17  1  0
 17 18  2  0
 18 19  1  0
 19 20  2  0
 18 21  1  0
 21 22  1  0
 14 23  1  0
 23 24  2  0
 23 25  2  0
 23 26  1  0
 26 27  2  0
 27 28  1  0
 28 29  2  0
 29 30  1  0
 30 31  2  0
 31 32  1  0
 10  5  1  0
 20 15  1  0
 31 26  1  0
M  END
$$$$
