
     RDKit          3D

 32 34  0  0  0  0  0  0  0  0999 V2000
   -1.1608    5.0600   12.1543 C   0  0  0  0  0  0  0  0  0  0  0  0
   -1.6086    4.2871   10.9356 C   0  0  0  0  0  0  0  0  0  0  0  0
   -0.4444    4.1214   10.0595 N   0  0  0  0  0  0  0  0  0  0  0  0
   -0.1700    5.2250    9.1602 C   0  0  0  0  0  0  0  0  0  0  0  0
   -0.6508    4.9874    7.7794 C   0  0  0  0  0  0  0  0  0  0  0  0
    0.2156    4.4562    6.8550 C   0  0  0  0  0  0  0  0  0  0  0  0
   -0.1618    4.2137    5.5715 N   0  0  0  0  0  0  0  0  0  0  0  0
   -1.4092    4.5014    5.2048 C   0  0  0  0  0  0  0  0  0  0  0  0
   -2.3316    5.0398    6.0923 C   0  0  0  0  0  0  0  0  0  0  0  0
   -1.9298    5.2750    7.3772 C   0  0  0  0  0  0  0  0  0  0  0  0
    0.3516    2.9485   10.1031 C   0  0  0  0  0  0  0  0  0  0  0  0
    1.5356    3.0073    9.7146 O   0  0  0  0  0  0  0  0  0  0  0  0
   -0.2181    1.7016   10.5963 C   0  0  0  0  0  0  0  0  0  0  0  0
    0.6057    0.9685   11.5349 N   0  0  0  0  0  0  0  0  0  0  0  0
   -0.0622    0.1147   12.4593 C   0  0  0  0  0  0  0  0  0  0  0  0
   -0.7403   -1.0179   12.0563 C   0  0  0  0  0  0  0  0  0  0  0  0
   -1.3871   -1.8414   12.9170 N   0  0  0  0  0  0  0  0  0  0  0  0
   -1.4035   -1.5950   14.2318 C   0  0  0  0  0  0  0  0  0  0  0  0
   -0.7311   -0.4583   14.6964 C   0  0  0  0  0  0  0  0  0  0  0  0
   -0.0806    0.3657   13.8109 C   0  0  0  0  0  0  0  0  0  0  0  0
   -2.0571   -2.4146   15.1629 O   0  0  0  0  0  0  0  0  0  0  0  0
   -2.6427   -3.6397   14.7899 C   0  0  0  0  0  0  0  0  0  0  0  0
    2.2745    1.1741   11.4330 S   0  0  0  0  0  6  0  0  0  0  0  0
    2.7601    1.5965   12.8164 O   0  0  0  0  0  0  0  0  0  0  0  0
    2.5855    2.3371   10.5339 O   0  0  0  0  0  0  0  0  0  0  0  0
    3.1980   -0.1694   10.8542 C   0  0  0  0  0  0  0  0  0  0  0  0
    2.5842   -1.0880   10.0322 C   0  0  0  0  0  0  0  0  0  0  0  0
    3.2449   -2.1811    9.5275 C   0  0  0  0  0  0  0  0  0  0  0  0
    4.5700   -2.3435    9.8702 C   0  0  0  0  0  0  0  0  0  0  0  0
    5.2347   -1.4614   10.6853 C   0  0  0  0  0  0  0  0  0  0  0  0
    4.5216   -0.3686   11.1720 C   0  0  0  0  0  0  0  0  0  0  0  0
    5.2444    0.5693   12.0467 C   0  0  0  0  0  0  0  0  0  0  0  0
  1  2  1  0
  2  3  1  0
  3  4  1  0
  4  5  1  0
  5  6  2  0
  6  7  1  0
  7  8  2  0
  8  9  1  0
  9 10  2  0
  3 11  1  0
 11 12  2  0
 11 13  1  0
 13 14  1  0
 14 15  1  0
 15 16  2  0
 16 17  1  0
 17 18  2  0
 18 19  1  0
 19 20  2  0
 18 21  1  0
 21 22  1  0
 14 23  1  0
 23 24  2  0
 23 25  2  0
 23 26  1  0
 26 27  2  0
 27 28  1  0
 28 29  2  0
 29 30  1  0
 30 31  2  0
 31 32  1  0
 10  5  1  0
 20 15  1  0
 31 26  1  0
M  END
$$$$
