
     RDKit          3D

 32 34  0  0  0  0  0  0  0  0999 V2000
   -0.5672    4.1724   14.7168 C   0  0  0  0  0  0  0  0  0  0  0  0
   -0.5656    2.9205   13.8707 C   0  0  0  0  0  0  0  0  0  0  0  0
    0.8239    2.6340   13.5000 N   0  0  0  0  0  0  0  0  0  0  0  0
    1.7523    2.4829   14.6033 C   0  0  0  0  0  0  0  0  0  0  0  0
    2.2118    1.0876   14.7939 C   0  0  0  0  0  0  0  0  0  0  0  0
    1.7534    0.1133   13.9405 C   0  0  0  0  0  0  0  0  0  0  0  0
    2.1356   -1.1859   14.0605 N   0  0  0  0  0  0  0  0  0  0  0  0
    2.9792   -1.5186   15.0356 C   0  0  0  0  0  0  0  0  0  0  0  0
    3.4776   -0.5803   15.9296 C   0  0  0  0  0  0  0  0  0  0  0  0
    3.0796    0.7196   15.7898 C   0  0  0  0  0  0  0  0  0  0  0  0
    1.2166    2.5155   12.1424 C   0  0  0  0  0  0  0  0  0  0  0  0
    2.4078    2.2550   11.8788 O   0  0  0  0  0  0  0  0  0  0  0  0
    0.2334    2.6978   11.0829 C   0  0  0  0  0  0  0  0  0  0  0  0
    0.6713    2.3212    9.7550 N   0  0  0  0  0  0  0  0  0  0  0  0
    0.7343    0.9288    9.4604 C   0  0  0  0  0  0  0  0  0  0  0  0
   -0.3975    0.1762    9.2201 C   0  0  0  0  0  0  0  0  0  0  0  0
   -0.3619   -1.1502    8.9433 N   0  0  0  0  0  0  0  0  0  0  0  0
    0.7974   -1.8155    8.8871 C   0  0  0  0  0  0  0  0  0  0  0  0
    1.9780   -1.1010    9.1230 C   0  0  0  0  0  0  0  0  0  0  0  0
    1.9243    0.2427    9.4021 C   0  0  0  0  0  0  0  0  0  0  0  0
    0.8883   -3.1859    8.6050 O   0  0  0  0  0  0  0  0  0  0  0  0
    0.3560   -3.7365    7.4233 C   0  0  0  0  0  0  0  0  0  0  0  0
    1.0430    3.5605    8.6764 S   0  0  0  0  0  6  0  0  0  0  0  0
    2.2509    3.1021    7.8648 O   0  0  0  0  0  0  0  0  0  0  0  0
    1.5142    4.7672    9.4375 O   0  0  0  0  0  0  0  0  0  0  0  0
   -0.2232    4.0929    7.6245 C   0  0  0  0  0  0  0  0  0  0  0  0
   -0.5541    3.3111    6.5404 C   0  0  0  0  0  0  0  0  0  0  0  0
   -1.5473    3.6589    5.6579 C   0  0  0  0  0  0  0  0  0  0  0  0
   -2.2235    4.8379    5.8865 C   0  0  0  0  0  0  0  0  0  0  0  0
   -1.9382    5.6580    6.9497 C   0  0  0  0  0  0  0  0  0  0  0  0
   -0.9226    5.2619    7.8165 C   0  0  0  0  0  0  0  0  0  0  0  0
   -0.6242    6.1504    8.9518 C   0  0  0  0  0  0  0  0  0  0  0  0
  1  2  1  0
  2  3  1  0
  3  4  1  0
  4  5  1  0
  5  6  2  0
  6  7  1  0
  7  8  2  0
  8  9  1  0
  9 10  2  0
  3 11  1  0
 11 12  2  0
 11 13  1  0
 13 14  1  0
 14 15  1  0
 15 16  2  0
 16 17  1  0
 17 18  2  0
 18 19  1  0
 19 20  2  0
 18 21  1  0
 21 22  1  0
 14 23  1  0
 23 24  2  0
 23 25  2  0
 23 26  1  0
 26 27  2  0
 27 28  1  0
 28 29  2  0
 29 30  1  0
 30 31  2  0
 31 32  1  0
 10  5  1  0
 20 15  1  0
 31 26  1  0
M  END
$$$$
