
     RDKit          3D

 32 34  0  0  0  0  0  0  0  0999 V2000
    2.8123    3.1069    8.7487 C   0  0  0  0  0  0  0  0  0  0  0  0
    1.6558    4.0777    8.8045 C   0  0  0  0  0  0  0  0  0  0  0  0
    0.4586    3.3240    9.1904 N   0  0  0  0  0  0  0  0  0  0  0  0
   -0.5095    3.0952    8.1356 C   0  0  0  0  0  0  0  0  0  0  0  0
   -1.1146    4.3436    7.6164 C   0  0  0  0  0  0  0  0  0  0  0  0
   -1.5607    5.2883    8.5087 C   0  0  0  0  0  0  0  0  0  0  0  0
   -2.1256    6.4550    8.0986 N   0  0  0  0  0  0  0  0  0  0  0  0
   -2.2478    6.6838    6.7925 C   0  0  0  0  0  0  0  0  0  0  0  0
   -1.8164    5.7687    5.8414 C   0  0  0  0  0  0  0  0  0  0  0  0
   -1.2516    4.6028    6.2769 C   0  0  0  0  0  0  0  0  0  0  0  0
    0.2761    2.8561   10.5167 C   0  0  0  0  0  0  0  0  0  0  0  0
   -0.8839    2.6848   10.9425 O   0  0  0  0  0  0  0  0  0  0  0  0
    1.4346    2.5840   11.3571 C   0  0  0  0  0  0  0  0  0  0  0  0
    1.5506    1.2225   11.8365 N   0  0  0  0  0  0  0  0  0  0  0  0
    0.9515    0.2002   11.0456 C   0  0  0  0  0  0  0  0  0  0  0  0
   -0.3017   -0.3064   11.3254 C   0  0  0  0  0  0  0  0  0  0  0  0
   -0.8887   -1.2822   10.5903 N   0  0  0  0  0  0  0  0  0  0  0  0
   -0.2717   -1.8186    9.5314 C   0  0  0  0  0  0  0  0  0  0  0  0
    1.0029   -1.3420    9.2018 C   0  0  0  0  0  0  0  0  0  0  0  0
    1.5835   -0.3527    9.9570 C   0  0  0  0  0  0  0  0  0  0  0  0
   -0.8350   -2.8289    8.7393 O   0  0  0  0  0  0  0  0  0  0  0  0
   -2.0644   -3.4312    9.0695 C   0  0  0  0  0  0  0  0  0  0  0  0
    2.4001    0.9705   13.2691 S   0  0  0  0  0  6  0  0  0  0  0  0
    1.3725    0.9051   14.3949 O   0  0  0  0  0  0  0  0  0  0  0  0
    3.2432    2.1761   13.5742 O   0  0  0  0  0  0  0  0  0  0  0  0
    3.4487   -0.4042   13.3294 C   0  0  0  0  0  0  0  0  0  0  0  0
    3.1345   -1.4380   14.1831 C   0  0  0  0  0  0  0  0  0  0  0  0
    3.9110   -2.5656   14.2907 C   0  0  0  0  0  0  0  0  0  0  0  0
    5.0412   -2.6425   13.5055 C   0  0  0  0  0  0  0  0  0  0  0  0
    5.4053   -1.6442   12.6365 C   0  0  0  0  0  0  0  0  0  0  0  0
    4.5854   -0.5208   12.5634 C   0  0  0  0  0  0  0  0  0  0  0  0
    4.9871    0.5440   11.6296 C   0  0  0  0  0  0  0  0  0  0  0  0
  1  2  1  0
  2  3  1  0
  3  4  1  0
  4  5  1  0
  5  6  2  0
  6  7  1  0
  7  8  2  0
  8  9  1  0
  9 10  2  0
  3 11  1  0
 11 12  2  0
 11 13  1  0
 13 14  1  0
 14 15  1  0
 15 16  2  0
 16 17  1  0
 17 18  2  0
 18 19  1  0
 19 20  2  0
 18 21  1  0
 21 22  1  0
 14 23  1  0
 23 24  2  0
 23 25  2  0
 23 26  1  0
 26 27  2  0
 27 28  1  0
 28 29  2  0
 29 30  1  0
 30 31  2  0
 31 32  1  0
 10  5  1  0
 20 15  1  0
 31 26  1  0
M  END
$$$$
