
     RDKit          3D

 32 34  0  0  0  0  0  0  0  0999 V2000
   -2.3367   -0.9827   11.1611 C   0  0  0  0  0  0  0  0  0  0  0  0
   -0.8902   -0.7129   11.5044 C   0  0  0  0  0  0  0  0  0  0  0  0
   -0.0908   -0.9692   10.3022 N   0  0  0  0  0  0  0  0  0  0  0  0
    0.2929   -2.3500   10.0827 C   0  0  0  0  0  0  0  0  0  0  0  0
    1.6823   -2.6447   10.5035 C   0  0  0  0  0  0  0  0  0  0  0  0
    2.4540   -1.6278   11.0112 C   0  0  0  0  0  0  0  0  0  0  0  0
    3.7361   -1.8308   11.4155 N   0  0  0  0  0  0  0  0  0  0  0  0
    4.2543   -3.0532   11.3142 C   0  0  0  0  0  0  0  0  0  0  0  0
    3.5256   -4.1221   10.8096 C   0  0  0  0  0  0  0  0  0  0  0  0
    2.2388   -3.8944   10.4094 C   0  0  0  0  0  0  0  0  0  0  0  0
    0.2747    0.0802    9.4209 C   0  0  0  0  0  0  0  0  0  0  0  0
    1.0032   -0.1794    8.4420 O   0  0  0  0  0  0  0  0  0  0  0  0
   -0.2007    1.4350    9.6675 C   0  0  0  0  0  0  0  0  0  0  0  0
    0.8115    2.4694    9.6167 N   0  0  0  0  0  0  0  0  0  0  0  0
    1.6101    2.6571   10.7814 C   0  0  0  0  0  0  0  0  0  0  0  0
    2.7420    1.9059   11.0256 C   0  0  0  0  0  0  0  0  0  0  0  0
    3.5135    2.0634   12.1289 N   0  0  0  0  0  0  0  0  0  0  0  0
    3.2126    2.9751   13.0606 C   0  0  0  0  0  0  0  0  0  0  0  0
    2.0739    3.7655   12.8640 C   0  0  0  0  0  0  0  0  0  0  0  0
    1.3030    3.5931   11.7404 C   0  0  0  0  0  0  0  0  0  0  0  0
    3.9771    3.1772   14.2184 O   0  0  0  0  0  0  0  0  0  0  0  0
    4.9010    2.2170   14.6738 C   0  0  0  0  0  0  0  0  0  0  0  0
    0.9667    3.3379    8.1817 S   0  0  0  0  0  6  0  0  0  0  0  0
    1.2984    2.3331    7.0825 O   0  0  0  0  0  0  0  0  0  0  0  0
    2.1649    4.2406    8.2655 O   0  0  0  0  0  0  0  0  0  0  0  0
   -0.3741    4.3249    7.7116 C   0  0  0  0  0  0  0  0  0  0  0  0
   -1.1961    3.8841    6.6987 C   0  0  0  0  0  0  0  0  0  0  0  0
   -2.2824    4.6045    6.2661 C   0  0  0  0  0  0  0  0  0  0  0  0
   -2.5391    5.8097    6.8837 C   0  0  0  0  0  0  0  0  0  0  0  0
   -1.7556    6.3005    7.8984 C   0  0  0  0  0  0  0  0  0  0  0  0
   -0.6654    5.5331    8.3015 C   0  0  0  0  0  0  0  0  0  0  0  0
    0.1687    6.0707    9.3889 C   0  0  0  0  0  0  0  0  0  0  0  0
  1  2  1  0
  2  3  1  0
  3  4  1  0
  4  5  1  0
  5  6  2  0
  6  7  1  0
  7  8  2  0
  8  9  1  0
  9 10  2  0
  3 11  1  0
 11 12  2  0
 11 13  1  0
 13 14  1  0
 14 15  1  0
 15 16  2  0
 16 17  1  0
 17 18  2  0
 18 19  1  0
 19 20  2  0
 18 21  1  0
 21 22  1  0
 14 23  1  0
 23 24  2  0
 23 25  2  0
 23 26  1  0
 26 27  2  0
 27 28  1  0
 28 29  2  0
 29 30  1  0
 30 31  2  0
 31 32  1  0
 10  5  1  0
 20 15  1  0
 31 26  1  0
M  END
$$$$
