
     RDKit          3D

 32 34  0  0  0  0  0  0  0  0999 V2000
   -0.0538    3.6015    6.0514 C   0  0  0  0  0  0  0  0  0  0  0  0
   -0.8807    3.5630    7.3154 C   0  0  0  0  0  0  0  0  0  0  0  0
   -0.2034    4.3922    8.3173 N   0  0  0  0  0  0  0  0  0  0  0  0
   -0.5468    5.8007    8.3065 C   0  0  0  0  0  0  0  0  0  0  0  0
   -0.8628    6.3358    9.6512 C   0  0  0  0  0  0  0  0  0  0  0  0
   -0.9066    5.4715   10.7182 C   0  0  0  0  0  0  0  0  0  0  0  0
   -1.1907    5.8975   11.9777 N   0  0  0  0  0  0  0  0  0  0  0  0
   -1.4328    7.1915   12.1775 C   0  0  0  0  0  0  0  0  0  0  0  0
   -1.4035    8.1145   11.1405 C   0  0  0  0  0  0  0  0  0  0  0  0
   -1.1157    7.6635    9.8829 C   0  0  0  0  0  0  0  0  0  0  0  0
    0.7263    3.8342    9.2314 C   0  0  0  0  0  0  0  0  0  0  0  0
    0.8733    4.3720   10.3474 O   0  0  0  0  0  0  0  0  0  0  0  0
    1.4908    2.6511    8.8592 C   0  0  0  0  0  0  0  0  0  0  0  0
    1.5960    1.6303    9.8809 N   0  0  0  0  0  0  0  0  0  0  0  0
    0.6520    0.5643    9.8362 C   0  0  0  0  0  0  0  0  0  0  0  0
    0.6344   -0.3597    8.8110 C   0  0  0  0  0  0  0  0  0  0  0  0
   -0.2574   -1.3783    8.7451 N   0  0  0  0  0  0  0  0  0  0  0  0
   -1.1888   -1.5463    9.6907 C   0  0  0  0  0  0  0  0  0  0  0  0
   -1.2171   -0.6370   10.7549 C   0  0  0  0  0  0  0  0  0  0  0  0
   -0.3061    0.3895   10.8066 C   0  0  0  0  0  0  0  0  0  0  0  0
   -2.1330   -2.5824    9.6690 O   0  0  0  0  0  0  0  0  0  0  0  0
   -2.2266   -3.4777    8.5861 C   0  0  0  0  0  0  0  0  0  0  0  0
    2.8352    1.7842   11.0115 S   0  0  0  0  0  6  0  0  0  0  0  0
    2.2691    2.5633   12.1949 O   0  0  0  0  0  0  0  0  0  0  0  0
    3.9241    2.6547   10.4510 O   0  0  0  0  0  0  0  0  0  0  0  0
    3.5884    0.3248   11.5553 C   0  0  0  0  0  0  0  0  0  0  0  0
    4.4134   -0.3558   10.6880 C   0  0  0  0  0  0  0  0  0  0  0  0
    5.0516   -1.5199   11.0400 C   0  0  0  0  0  0  0  0  0  0  0  0
    4.8433   -2.0050   12.3132 C   0  0  0  0  0  0  0  0  0  0  0  0
    4.0323   -1.3705   13.2211 C   0  0  0  0  0  0  0  0  0  0  0  0
    3.4073   -0.1934   12.8167 C   0  0  0  0  0  0  0  0  0  0  0  0
    2.5386    0.4769   13.7981 C   0  0  0  0  0  0  0  0  0  0  0  0
  1  2  1  0
  2  3  1  0
  3  4  1  0
  4  5  1  0
  5  6  2  0
  6  7  1  0
  7  8  2  0
  8  9  1  0
  9 10  2  0
  3 11  1  0
 11 12  2  0
 11 13  1  0
 13 14  1  0
 14 15  1  0
 15 16  2  0
 16 17  1  0
 17 18  2  0
 18 19  1  0
 19 20  2  0
 18 21  1  0
 21 22  1  0
 14 23  1  0
 23 24  2  0
 23 25  2  0
 23 26  1  0
 26 27  2  0
 27 28  1  0
 28 29  2  0
 29 30  1  0
 30 31  2  0
 31 32  1  0
 10  5  1  0
 20 15  1  0
 31 26  1  0
M  END
$$$$
