
     RDKit          3D

 32 34  0  0  0  0  0  0  0  0999 V2000
    4.2520    0.6746   13.9930 C   0  0  0  0  0  0  0  0  0  0  0  0
    3.0659    1.3291   13.3238 C   0  0  0  0  0  0  0  0  0  0  0  0
    3.1153    0.9909   11.8979 N   0  0  0  0  0  0  0  0  0  0  0  0
    3.9763   -0.1202   11.5429 C   0  0  0  0  0  0  0  0  0  0  0  0
    3.2341   -1.3760   11.2850 C   0  0  0  0  0  0  0  0  0  0  0  0
    1.8620   -1.3640   11.3520 C   0  0  0  0  0  0  0  0  0  0  0  0
    1.1210   -2.4814   11.1265 N   0  0  0  0  0  0  0  0  0  0  0  0
    1.7487   -3.6184   10.8324 C   0  0  0  0  0  0  0  0  0  0  0  0
    3.1327   -3.6949   10.7497 C   0  0  0  0  0  0  0  0  0  0  0  0
    3.8569   -2.5590   10.9803 C   0  0  0  0  0  0  0  0  0  0  0  0
    2.3612    1.7162   10.9404 C   0  0  0  0  0  0  0  0  0  0  0  0
    2.3631    1.3322    9.7534 O   0  0  0  0  0  0  0  0  0  0  0  0
    1.6012    2.8892   11.3511 C   0  0  0  0  0  0  0  0  0  0  0  0
    0.3826    3.1337   10.6080 N   0  0  0  0  0  0  0  0  0  0  0  0
   -0.0397    2.1220    9.6983 C   0  0  0  0  0  0  0  0  0  0  0  0
   -0.9808    1.1720   10.0404 C   0  0  0  0  0  0  0  0  0  0  0  0
   -1.3934    0.1974    9.1935 N   0  0  0  0  0  0  0  0  0  0  0  0
   -0.8998    0.1019    7.9537 C   0  0  0  0  0  0  0  0  0  0  0  0
    0.0589    1.0403    7.5533 C   0  0  0  0  0  0  0  0  0  0  0  0
    0.4660    2.0215    8.4238 C   0  0  0  0  0  0  0  0  0  0  0  0
   -1.2930   -0.8863    7.0401 O   0  0  0  0  0  0  0  0  0  0  0  0
   -2.1394   -1.9476    7.4145 C   0  0  0  0  0  0  0  0  0  0  0  0
   -0.4337    4.5774   10.9031 S   0  0  0  0  0  6  0  0  0  0  0  0
   -0.0788    5.0119   12.3219 O   0  0  0  0  0  0  0  0  0  0  0  0
   -1.9144    4.3238   10.9271 O   0  0  0  0  0  0  0  0  0  0  0  0
   -0.1641    5.8742    9.7902 C   0  0  0  0  0  0  0  0  0  0  0  0
   -1.1811    6.2323    8.9339 C   0  0  0  0  0  0  0  0  0  0  0  0
   -1.0511    7.2508    8.0219 C   0  0  0  0  0  0  0  0  0  0  0  0
    0.1505    7.9247    7.9809 C   0  0  0  0  0  0  0  0  0  0  0  0
    1.1999    7.6129    8.8091 C   0  0  0  0  0  0  0  0  0  0  0  0
    1.0192    6.5722    9.7168 C   0  0  0  0  0  0  0  0  0  0  0  0
    2.1522    6.2456   10.5982 C   0  0  0  0  0  0  0  0  0  0  0  0
  1  2  1  0
  2  3  1  0
  3  4  1  0
  4  5  1  0
  5  6  2  0
  6  7  1  0
  7  8  2  0
  8  9  1  0
  9 10  2  0
  3 11  1  0
 11 12  2  0
 11 13  1  0
 13 14  1  0
 14 15  1  0
 15 16  2  0
 16 17  1  0
 17 18  2  0
 18 19  1  0
 19 20  2  0
 18 21  1  0
 21 22  1  0
 14 23  1  0
 23 24  2  0
 23 25  2  0
 23 26  1  0
 26 27  2  0
 27 28  1  0
 28 29  2  0
 29 30  1  0
 30 31  2  0
 31 32  1  0
 10  5  1  0
 20 15  1  0
 31 26  1  0
M  END
$$$$
