
     RDKit          3D

 32 34  0  0  0  0  0  0  0  0999 V2000
    4.1489    3.2920   10.4294 C   0  0  0  0  0  0  0  0  0  0  0  0
    3.6563    3.0713   11.8407 C   0  0  0  0  0  0  0  0  0  0  0  0
    2.9307    1.7974   11.8661 N   0  0  0  0  0  0  0  0  0  0  0  0
    3.7523    0.6052   11.9404 C   0  0  0  0  0  0  0  0  0  0  0  0
    3.9305    0.1030   13.3226 C   0  0  0  0  0  0  0  0  0  0  0  0
    3.3221    0.7714   14.3573 C   0  0  0  0  0  0  0  0  0  0  0  0
    3.4452    0.3634   15.6484 N   0  0  0  0  0  0  0  0  0  0  0  0
    4.1782   -0.7165   15.9123 C   0  0  0  0  0  0  0  0  0  0  0  0
    4.8177   -1.4348   14.9107 C   0  0  0  0  0  0  0  0  0  0  0  0
    4.6798   -1.0061   13.6203 C   0  0  0  0  0  0  0  0  0  0  0  0
    1.5139    1.7535   11.8202 C   0  0  0  0  0  0  0  0  0  0  0  0
    0.9361    0.6680   12.0305 O   0  0  0  0  0  0  0  0  0  0  0  0
    0.7583    2.9650   11.5309 C   0  0  0  0  0  0  0  0  0  0  0  0
   -0.0462    2.9251   10.3274 N   0  0  0  0  0  0  0  0  0  0  0  0
   -0.3141    1.6439    9.7652 C   0  0  0  0  0  0  0  0  0  0  0  0
    0.5376    1.0464    8.8580 C   0  0  0  0  0  0  0  0  0  0  0  0
    0.3003   -0.1687    8.3064 N   0  0  0  0  0  0  0  0  0  0  0  0
   -0.7959   -0.8694    8.6182 C   0  0  0  0  0  0  0  0  0  0  0  0
   -1.6953   -0.3105    9.5341 C   0  0  0  0  0  0  0  0  0  0  0  0
   -1.4399    0.9219   10.0839 C   0  0  0  0  0  0  0  0  0  0  0  0
   -1.0872   -2.1292    8.0762 O   0  0  0  0  0  0  0  0  0  0  0  0
   -2.2401   -2.3535    7.2994 C   0  0  0  0  0  0  0  0  0  0  0  0
   -0.6087    4.3910    9.7173 S   0  0  0  0  0  6  0  0  0  0  0  0
    0.5832    5.3420    9.6635 O   0  0  0  0  0  0  0  0  0  0  0  0
   -1.5644    5.0115   10.6967 O   0  0  0  0  0  0  0  0  0  0  0  0
   -1.4149    4.3477    8.1872 C   0  0  0  0  0  0  0  0  0  0  0  0
   -2.7833    4.4984    8.1568 C   0  0  0  0  0  0  0  0  0  0  0  0
   -3.5001    4.4787    6.9855 C   0  0  0  0  0  0  0  0  0  0  0  0
   -2.8024    4.3002    5.8103 C   0  0  0  0  0  0  0  0  0  0  0  0
   -1.4389    4.1447    5.7780 C   0  0  0  0  0  0  0  0  0  0  0  0
   -0.7568    4.1719    6.9919 C   0  0  0  0  0  0  0  0  0  0  0  0
    0.7047    4.0020    6.9449 C   0  0  0  0  0  0  0  0  0  0  0  0
  1  2  1  0
  2  3  1  0
  3  4  1  0
  4  5  1  0
  5  6  2  0
  6  7  1  0
  7  8  2  0
  8  9  1  0
  9 10  2  0
  3 11  1  0
 11 12  2  0
 11 13  1  0
 13 14  1  0
 14 15  1  0
 15 16  2  0
 16 17  1  0
 17 18  2  0
 18 19  1  0
 19 20  2  0
 18 21  1  0
 21 22  1  0
 14 23  1  0
 23 24  2  0
 23 25  2  0
 23 26  1  0
 26 27  2  0
 27 28  1  0
 28 29  2  0
 29 30  1  0
 30 31  2  0
 31 32  1  0
 10  5  1  0
 20 15  1  0
 31 26  1  0
M  END
$$$$
