
     RDKit          3D

 32 34  0  0  0  0  0  0  0  0999 V2000
    2.2221    5.3244   11.7333 C   0  0  0  0  0  0  0  0  0  0  0  0
    1.0403    4.3855   11.8025 C   0  0  0  0  0  0  0  0  0  0  0  0
    0.4970    4.2511   10.4472 N   0  0  0  0  0  0  0  0  0  0  0  0
   -0.8107    4.8386   10.2311 C   0  0  0  0  0  0  0  0  0  0  0  0
   -1.3356    4.6106    8.8648 C   0  0  0  0  0  0  0  0  0  0  0  0
   -0.6019    3.8482    7.9884 C   0  0  0  0  0  0  0  0  0  0  0  0
   -1.0262    3.6008    6.7206 N   0  0  0  0  0  0  0  0  0  0  0  0
   -2.1880    4.1149    6.3217 C   0  0  0  0  0  0  0  0  0  0  0  0
   -2.9751    4.8933    7.1600 C   0  0  0  0  0  0  0  0  0  0  0  0
   -2.5284    5.1287    8.4300 C   0  0  0  0  0  0  0  0  0  0  0  0
    1.2195    3.5850    9.4247 C   0  0  0  0  0  0  0  0  0  0  0  0
    0.9045    3.7847    8.2342 O   0  0  0  0  0  0  0  0  0  0  0  0
    2.3102    2.6845    9.7740 C   0  0  0  0  0  0  0  0  0  0  0  0
    1.9101    1.3798   10.2585 N   0  0  0  0  0  0  0  0  0  0  0  0
    0.7968    0.7612    9.6201 C   0  0  0  0  0  0  0  0  0  0  0  0
    0.7852    0.4844    8.2679 C   0  0  0  0  0  0  0  0  0  0  0  0
   -0.2644   -0.0983    7.6386 N   0  0  0  0  0  0  0  0  0  0  0  0
   -1.3695   -0.4438    8.3088 C   0  0  0  0  0  0  0  0  0  0  0  0
   -1.4122   -0.1858    9.6842 C   0  0  0  0  0  0  0  0  0  0  0  0
   -0.3400    0.4053   10.3065 C   0  0  0  0  0  0  0  0  0  0  0  0
   -2.4812   -1.0483    7.7053 O   0  0  0  0  0  0  0  0  0  0  0  0
   -2.4347   -1.5354    6.3849 C   0  0  0  0  0  0  0  0  0  0  0  0
    2.8089    0.7052   11.5133 S   0  0  0  0  0  6  0  0  0  0  0  0
    4.2693    1.0716   11.2668 O   0  0  0  0  0  0  0  0  0  0  0  0
    2.7575   -0.7936   11.4215 O   0  0  0  0  0  0  0  0  0  0  0  0
    2.3457    1.1260   13.1261 C   0  0  0  0  0  0  0  0  0  0  0  0
    1.2348    0.5236   13.6730 C   0  0  0  0  0  0  0  0  0  0  0  0
    0.8000    0.7989   14.9463 C   0  0  0  0  0  0  0  0  0  0  0  0
    1.5181    1.7149   15.6846 C   0  0  0  0  0  0  0  0  0  0  0  0
    2.6331    2.3471   15.1931 C   0  0  0  0  0  0  0  0  0  0  0  0
    3.0341    2.0344   13.8965 C   0  0  0  0  0  0  0  0  0  0  0  0
    4.2297    2.7202   13.3797 C   0  0  0  0  0  0  0  0  0  0  0  0
  1  2  1  0
  2  3  1  0
  3  4  1  0
  4  5  1  0
  5  6  2  0
  6  7  1  0
  7  8  2  0
  8  9  1  0
  9 10  2  0
  3 11  1  0
 11 12  2  0
 11 13  1  0
 13 14  1  0
 14 15  1  0
 15 16  2  0
 16 17  1  0
 17 18  2  0
 18 19  1  0
 19 20  2  0
 18 21  1  0
 21 22  1  0
 14 23  1  0
 23 24  2  0
 23 25  2  0
 23 26  1  0
 26 27  2  0
 27 28  1  0
 28 29  2  0
 29 30  1  0
 30 31  2  0
 31 32  1  0
 10  5  1  0
 20 15  1  0
 31 26  1  0
M  END
$$$$
