
     RDKit          3D

 32 34  0  0  0  0  0  0  0  0999 V2000
    0.6554    6.5995   10.7585 C   0  0  0  0  0  0  0  0  0  0  0  0
    0.9648    5.2286   10.2037 C   0  0  0  0  0  0  0  0  0  0  0  0
   -0.2485    4.4140   10.3243 N   0  0  0  0  0  0  0  0  0  0  0  0
   -1.4152    4.9130    9.6231 C   0  0  0  0  0  0  0  0  0  0  0  0
   -1.5249    4.4058    8.2356 C   0  0  0  0  0  0  0  0  0  0  0  0
   -0.6127    3.4795    7.7915 C   0  0  0  0  0  0  0  0  0  0  0  0
   -0.6570    2.9739    6.5301 N   0  0  0  0  0  0  0  0  0  0  0  0
   -1.6148    3.3922    5.7050 C   0  0  0  0  0  0  0  0  0  0  0  0
   -2.5657    4.3261    6.0945 C   0  0  0  0  0  0  0  0  0  0  0  0
   -2.5015    4.8205    7.3670 C   0  0  0  0  0  0  0  0  0  0  0  0
   -0.2612    3.2161   11.0834 C   0  0  0  0  0  0  0  0  0  0  0  0
   -1.2967    2.5204   11.0967 O   0  0  0  0  0  0  0  0  0  0  0  0
    0.9238    2.8169   11.8310 C   0  0  0  0  0  0  0  0  0  0  0  0
    1.6033    1.6369   11.3380 N   0  0  0  0  0  0  0  0  0  0  0  0
    0.7929    0.5940   10.8040 C   0  0  0  0  0  0  0  0  0  0  0  0
    0.6306    0.4114    9.4455 C   0  0  0  0  0  0  0  0  0  0  0  0
   -0.1393   -0.5701    8.9154 N   0  0  0  0  0  0  0  0  0  0  0  0
   -0.7976   -1.4333    9.6973 C   0  0  0  0  0  0  0  0  0  0  0  0
   -0.6688   -1.2942   11.0845 C   0  0  0  0  0  0  0  0  0  0  0  0
    0.1153   -0.2942   11.6054 C   0  0  0  0  0  0  0  0  0  0  0  0
   -1.6059   -2.4649    9.1992 O   0  0  0  0  0  0  0  0  0  0  0  0
   -1.3691   -3.0503    7.9406 C   0  0  0  0  0  0  0  0  0  0  0  0
    3.2856    1.6152   11.4200 S   0  0  0  0  0  6  0  0  0  0  0  0
    3.7114    2.8357   12.2304 O   0  0  0  0  0  0  0  0  0  0  0  0
    3.8603    1.8323   10.0488 O   0  0  0  0  0  0  0  0  0  0  0  0
    4.0231    0.1840   12.0530 C   0  0  0  0  0  0  0  0  0  0  0  0
    4.6345   -0.6864   11.1786 C   0  0  0  0  0  0  0  0  0  0  0  0
    5.2450   -1.8431   11.5977 C   0  0  0  0  0  0  0  0  0  0  0  0
    5.2323   -2.1214   12.9476 C   0  0  0  0  0  0  0  0  0  0  0  0
    4.6388   -1.2920   13.8664 C   0  0  0  0  0  0  0  0  0  0  0  0
    4.0329   -0.1312   13.3921 C   0  0  0  0  0  0  0  0  0  0  0  0
    3.3979    0.7493   14.3865 C   0  0  0  0  0  0  0  0  0  0  0  0
  1  2  1  0
  2  3  1  0
  3  4  1  0
  4  5  1  0
  5  6  2  0
  6  7  1  0
  7  8  2  0
  8  9  1  0
  9 10  2  0
  3 11  1  0
 11 12  2  0
 11 13  1  0
 13 14  1  0
 14 15  1  0
 15 16  2  0
 16 17  1  0
 17 18  2  0
 18 19  1  0
 19 20  2  0
 18 21  1  0
 21 22  1  0
 14 23  1  0
 23 24  2  0
 23 25  2  0
 23 26  1  0
 26 27  2  0
 27 28  1  0
 28 29  2  0
 29 30  1  0
 30 31  2  0
 31 32  1  0
 10  5  1  0
 20 15  1  0
 31 26  1  0
M  END
$$$$
