
     RDKit          3D

 32 34  0  0  0  0  0  0  0  0999 V2000
    1.6968    3.7515    6.1477 C   0  0  0  0  0  0  0  0  0  0  0  0
    0.4004    3.8094    6.9216 C   0  0  0  0  0  0  0  0  0  0  0  0
    0.7037    4.3172    8.2633 N   0  0  0  0  0  0  0  0  0  0  0  0
    0.7161    5.7602    8.4034 C   0  0  0  0  0  0  0  0  0  0  0  0
   -0.5048    6.2955    9.0492 C   0  0  0  0  0  0  0  0  0  0  0  0
   -1.6064    5.4830    9.1670 C   0  0  0  0  0  0  0  0  0  0  0  0
   -2.7579    5.9121    9.7488 N   0  0  0  0  0  0  0  0  0  0  0  0
   -2.8143    7.1575   10.2166 C   0  0  0  0  0  0  0  0  0  0  0  0
   -1.7351    8.0268   10.1276 C   0  0  0  0  0  0  0  0  0  0  0  0
   -0.5881    7.5736    9.5388 C   0  0  0  0  0  0  0  0  0  0  0  0
    0.9660    3.4372    9.3441 C   0  0  0  0  0  0  0  0  0  0  0  0
    0.6463    3.7862   10.4984 O   0  0  0  0  0  0  0  0  0  0  0  0
    1.5994    2.1491    9.0952 C   0  0  0  0  0  0  0  0  0  0  0  0
    1.5501    1.2077   10.1944 N   0  0  0  0  0  0  0  0  0  0  0  0
    0.7134    0.0655   10.0368 C   0  0  0  0  0  0  0  0  0  0  0  0
    1.0341   -0.9682    9.1802 C   0  0  0  0  0  0  0  0  0  0  0  0
    0.2509   -2.0614    9.0103 N   0  0  0  0  0  0  0  0  0  0  0  0
   -0.9000   -2.2000    9.6781 C   0  0  0  0  0  0  0  0  0  0  0  0
   -1.2749   -1.1804   10.5612 C   0  0  0  0  0  0  0  0  0  0  0  0
   -0.4698   -0.0793   10.7218 C   0  0  0  0  0  0  0  0  0  0  0  0
   -1.7450   -3.3100    9.5383 O   0  0  0  0  0  0  0  0  0  0  0  0
   -1.7081   -4.1305    8.3945 C   0  0  0  0  0  0  0  0  0  0  0  0
    2.5012    1.5366   11.5452 S   0  0  0  0  0  6  0  0  0  0  0  0
    1.5521    1.8751   12.6909 O   0  0  0  0  0  0  0  0  0  0  0  0
    3.2968    2.7891   11.3091 O   0  0  0  0  0  0  0  0  0  0  0  0
    3.6229    0.3133   12.0332 C   0  0  0  0  0  0  0  0  0  0  0  0
    4.8750    0.2984   11.4602 C   0  0  0  0  0  0  0  0  0  0  0  0
    5.8253   -0.6359   11.7922 C   0  0  0  0  0  0  0  0  0  0  0  0
    5.4903   -1.5832   12.7358 C   0  0  0  0  0  0  0  0  0  0  0  0
    4.2587   -1.6186   13.3409 C   0  0  0  0  0  0  0  0  0  0  0  0
    3.3291   -0.6498   12.9706 C   0  0  0  0  0  0  0  0  0  0  0  0
    2.0112   -0.6992   13.6246 C   0  0  0  0  0  0  0  0  0  0  0  0
  1  2  1  0
  2  3  1  0
  3  4  1  0
  4  5  1  0
  5  6  2  0
  6  7  1  0
  7  8  2  0
  8  9  1  0
  9 10  2  0
  3 11  1  0
 11 12  2  0
 11 13  1  0
 13 14  1  0
 14 15  1  0
 15 16  2  0
 16 17  1  0
 17 18  2  0
 18 19  1  0
 19 20  2  0
 18 21  1  0
 21 22  1  0
 14 23  1  0
 23 24  2  0
 23 25  2  0
 23 26  1  0
 26 27  2  0
 27 28  1  0
 28 29  2  0
 29 30  1  0
 30 31  2  0
 31 32  1  0
 10  5  1  0
 20 15  1  0
 31 26  1  0
M  END
$$$$
