
     RDKit          3D

 32 34  0  0  0  0  0  0  0  0999 V2000
    1.8796    1.8277    6.1710 C   0  0  0  0  0  0  0  0  0  0  0  0
    0.8441    1.8298    7.2713 C   0  0  0  0  0  0  0  0  0  0  0  0
    0.9489    3.1089    7.9806 N   0  0  0  0  0  0  0  0  0  0  0  0
    0.4476    4.2678    7.2681 C   0  0  0  0  0  0  0  0  0  0  0  0
   -0.9028    4.6867    7.7098 C   0  0  0  0  0  0  0  0  0  0  0  0
   -1.5573    3.9343    8.6548 C   0  0  0  0  0  0  0  0  0  0  0  0
   -2.7980    4.2633    9.1032 N   0  0  0  0  0  0  0  0  0  0  0  0
   -3.3918    5.3478    8.6086 C   0  0  0  0  0  0  0  0  0  0  0  0
   -2.7825    6.1488    7.6519 C   0  0  0  0  0  0  0  0  0  0  0  0
   -1.5354    5.7987    7.2161 C   0  0  0  0  0  0  0  0  0  0  0  0
    1.5083    3.1883    9.2814 C   0  0  0  0  0  0  0  0  0  0  0  0
    1.1379    4.1041   10.0433 O   0  0  0  0  0  0  0  0  0  0  0  0
    2.4989    2.2087    9.7075 C   0  0  0  0  0  0  0  0  0  0  0  0
    2.0495    1.2623   10.7071 N   0  0  0  0  0  0  0  0  0  0  0  0
    1.1729    0.2257   10.2751 C   0  0  0  0  0  0  0  0  0  0  0  0
    1.5082   -0.6439    9.2570 C   0  0  0  0  0  0  0  0  0  0  0  0
    0.6883   -1.6335    8.8261 N   0  0  0  0  0  0  0  0  0  0  0  0
   -0.5161   -1.8246    9.3763 C   0  0  0  0  0  0  0  0  0  0  0  0
   -0.9081   -0.9704   10.4140 C   0  0  0  0  0  0  0  0  0  0  0  0
   -0.0653    0.0273   10.8387 C   0  0  0  0  0  0  0  0  0  0  0  0
   -1.4007   -2.8325    8.9673 O   0  0  0  0  0  0  0  0  0  0  0  0
   -0.9549   -3.9731    8.2722 C   0  0  0  0  0  0  0  0  0  0  0  0
    2.6206    1.4596   12.2794 S   0  0  0  0  0  6  0  0  0  0  0  0
    1.4352    1.8933   13.1365 O   0  0  0  0  0  0  0  0  0  0  0  0
    3.5833    2.6122   12.3255 O   0  0  0  0  0  0  0  0  0  0  0  0
    3.4223    0.1063   12.9999 C   0  0  0  0  0  0  0  0  0  0  0  0
    3.0175   -0.3143   14.2470 C   0  0  0  0  0  0  0  0  0  0  0  0
    3.5985   -1.3806   14.8886 C   0  0  0  0  0  0  0  0  0  0  0  0
    4.6222   -2.0379   14.2408 C   0  0  0  0  0  0  0  0  0  0  0  0
    5.0685   -1.6646   12.9975 C   0  0  0  0  0  0  0  0  0  0  0  0
    4.4475   -0.5772   12.3879 C   0  0  0  0  0  0  0  0  0  0  0  0
    4.9360   -0.1849   11.0558 C   0  0  0  0  0  0  0  0  0  0  0  0
  1  2  1  0
  2  3  1  0
  3  4  1  0
  4  5  1  0
  5  6  2  0
  6  7  1  0
  7  8  2  0
  8  9  1  0
  9 10  2  0
  3 11  1  0
 11 12  2  0
 11 13  1  0
 13 14  1  0
 14 15  1  0
 15 16  2  0
 16 17  1  0
 17 18  2  0
 18 19  1  0
 19 20  2  0
 18 21  1  0
 21 22  1  0
 14 23  1  0
 23 24  2  0
 23 25  2  0
 23 26  1  0
 26 27  2  0
 27 28  1  0
 28 29  2  0
 29 30  1  0
 30 31  2  0
 31 32  1  0
 10  5  1  0
 20 15  1  0
 31 26  1  0
M  END
$$$$
