
     RDKit          3D

 32 34  0  0  0  0  0  0  0  0999 V2000
   -2.9380    3.6342    9.7873 C   0  0  0  0  0  0  0  0  0  0  0  0
   -1.9246    4.5054   10.4924 C   0  0  0  0  0  0  0  0  0  0  0  0
   -0.7180    4.5494    9.6605 N   0  0  0  0  0  0  0  0  0  0  0  0
   -0.7434    5.4961    8.5627 C   0  0  0  0  0  0  0  0  0  0  0  0
   -0.1382    6.8042    8.9045 C   0  0  0  0  0  0  0  0  0  0  0  0
    0.3239    7.0104   10.1817 C   0  0  0  0  0  0  0  0  0  0  0  0
    0.8897    8.1872   10.5607 N   0  0  0  0  0  0  0  0  0  0  0  0
    0.9966    9.1655    9.6636 C   0  0  0  0  0  0  0  0  0  0  0  0
    0.5487    9.0185    8.3575 C   0  0  0  0  0  0  0  0  0  0  0  0
   -0.0166    7.8269    7.9992 C   0  0  0  0  0  0  0  0  0  0  0  0
    0.3943    3.7112    9.9279 C   0  0  0  0  0  0  0  0  0  0  0  0
    1.4237    3.8339    9.2338 O   0  0  0  0  0  0  0  0  0  0  0  0
    0.3216    2.7270   10.9995 C   0  0  0  0  0  0  0  0  0  0  0  0
    1.2740    1.6396   10.9125 N   0  0  0  0  0  0  0  0  0  0  0  0
    0.9588    0.5667   10.0299 C   0  0  0  0  0  0  0  0  0  0  0  0
   -0.0941   -0.2942   10.2657 C   0  0  0  0  0  0  0  0  0  0  0  0
   -0.4090   -1.3244    9.4431 N   0  0  0  0  0  0  0  0  0  0  0  0
    0.2993   -1.5676    8.3345 C   0  0  0  0  0  0  0  0  0  0  0  0
    1.3795   -0.7249    8.0460 C   0  0  0  0  0  0  0  0  0  0  0  0
    1.6850    0.3146    8.8900 C   0  0  0  0  0  0  0  0  0  0  0  0
    0.0150   -2.6190    7.4517 O   0  0  0  0  0  0  0  0  0  0  0  0
   -1.2130   -3.3073    7.4894 C   0  0  0  0  0  0  0  0  0  0  0  0
    2.6737    1.7534   11.8427 S   0  0  0  0  0  6  0  0  0  0  0  0
    2.7358    3.1770   12.3881 O   0  0  0  0  0  0  0  0  0  0  0  0
    3.8801    1.6173   10.9574 O   0  0  0  0  0  0  0  0  0  0  0  0
    2.8600    0.6077   13.1254 C   0  0  0  0  0  0  0  0  0  0  0  0
    2.4361    0.9553   14.3886 C   0  0  0  0  0  0  0  0  0  0  0  0
    2.5450    0.1049   15.4615 C   0  0  0  0  0  0  0  0  0  0  0  0
    3.1024   -1.1363   15.2413 C   0  0  0  0  0  0  0  0  0  0  0  0
    3.5429   -1.5385   14.0050 C   0  0  0  0  0  0  0  0  0  0  0  0
    3.4107   -0.6405   12.9486 C   0  0  0  0  0  0  0  0  0  0  0  0
    3.8885   -1.0822   11.6281 C   0  0  0  0  0  0  0  0  0  0  0  0
  1  2  1  0
  2  3  1  0
  3  4  1  0
  4  5  1  0
  5  6  2  0
  6  7  1  0
  7  8  2  0
  8  9  1  0
  9 10  2  0
  3 11  1  0
 11 12  2  0
 11 13  1  0
 13 14  1  0
 14 15  1  0
 15 16  2  0
 16 17  1  0
 17 18  2  0
 18 19  1  0
 19 20  2  0
 18 21  1  0
 21 22  1  0
 14 23  1  0
 23 24  2  0
 23 25  2  0
 23 26  1  0
 26 27  2  0
 27 28  1  0
 28 29  2  0
 29 30  1  0
 30 31  2  0
 31 32  1  0
 10  5  1  0
 20 15  1  0
 31 26  1  0
M  END
$$$$
