
     RDKit          3D

 32 34  0  0  0  0  0  0  0  0999 V2000
    4.1181    1.7059   13.8701 C   0  0  0  0  0  0  0  0  0  0  0  0
    3.2733    2.5604   12.9539 C   0  0  0  0  0  0  0  0  0  0  0  0
    3.2446    1.9118   11.6392 N   0  0  0  0  0  0  0  0  0  0  0  0
    4.3757    1.0583   11.3324 C   0  0  0  0  0  0  0  0  0  0  0  0
    3.9839   -0.3224   10.9658 C   0  0  0  0  0  0  0  0  0  0  0  0
    2.6492   -0.6441   10.9140 C   0  0  0  0  0  0  0  0  0  0  0  0
    2.2224   -1.8923   10.5846 N   0  0  0  0  0  0  0  0  0  0  0  0
    3.1288   -2.8268   10.3049 C   0  0  0  0  0  0  0  0  0  0  0  0
    4.4919   -2.5639   10.3398 C   0  0  0  0  0  0  0  0  0  0  0  0
    4.8976   -1.3022   10.6735 C   0  0  0  0  0  0  0  0  0  0  0  0
    2.1696    2.1180   10.7374 C   0  0  0  0  0  0  0  0  0  0  0  0
    2.0878    1.3995    9.7208 O   0  0  0  0  0  0  0  0  0  0  0  0
    1.1838    3.1562   11.0070 C   0  0  0  0  0  0  0  0  0  0  0  0
   -0.0399    3.0685   10.2377 N   0  0  0  0  0  0  0  0  0  0  0  0
   -0.4681    1.7689    9.8411 C   0  0  0  0  0  0  0  0  0  0  0  0
   -0.9027    0.8280   10.7527 C   0  0  0  0  0  0  0  0  0  0  0  0
   -1.3094   -0.4157   10.3989 N   0  0  0  0  0  0  0  0  0  0  0  0
   -1.3114   -0.8065    9.1194 C   0  0  0  0  0  0  0  0  0  0  0  0
   -0.8798    0.1085    8.1516 C   0  0  0  0  0  0  0  0  0  0  0  0
   -0.4710    1.3648    8.5270 C   0  0  0  0  0  0  0  0  0  0  0  0
   -1.7220   -2.0803    8.7017 O   0  0  0  0  0  0  0  0  0  0  0  0
   -2.6277   -2.8515    9.4553 C   0  0  0  0  0  0  0  0  0  0  0  0
   -0.8544    4.5044    9.9027 S   0  0  0  0  0  6  0  0  0  0  0  0
   -0.5723    5.4605   11.0577 O   0  0  0  0  0  0  0  0  0  0  0  0
   -2.3371    4.2643    9.9426 O   0  0  0  0  0  0  0  0  0  0  0  0
   -0.5098    5.2687    8.3895 C   0  0  0  0  0  0  0  0  0  0  0  0
    0.5020    6.2012    8.3355 C   0  0  0  0  0  0  0  0  0  0  0  0
    0.8416    6.8524    7.1750 C   0  0  0  0  0  0  0  0  0  0  0  0
    0.1295    6.5448    6.0357 C   0  0  0  0  0  0  0  0  0  0  0  0
   -0.8890    5.6244    6.0282 C   0  0  0  0  0  0  0  0  0  0  0  0
   -1.1958    4.9907    7.2298 C   0  0  0  0  0  0  0  0  0  0  0  0
   -2.2911    4.0074    7.2098 C   0  0  0  0  0  0  0  0  0  0  0  0
  1  2  1  0
  2  3  1  0
  3  4  1  0
  4  5  1  0
  5  6  2  0
  6  7  1  0
  7  8  2  0
  8  9  1  0
  9 10  2  0
  3 11  1  0
 11 12  2  0
 11 13  1  0
 13 14  1  0
 14 15  1  0
 15 16  2  0
 16 17  1  0
 17 18  2  0
 18 19  1  0
 19 20  2  0
 18 21  1  0
 21 22  1  0
 14 23  1  0
 23 24  2  0
 23 25  2  0
 23 26  1  0
 26 27  2  0
 27 28  1  0
 28 29  2  0
 29 30  1  0
 30 31  2  0
 31 32  1  0
 10  5  1  0
 20 15  1  0
 31 26  1  0
M  END
$$$$
