
     RDKit          3D

 32 34  0  0  0  0  0  0  0  0999 V2000
    3.5303   -0.7261   11.3829 C   0  0  0  0  0  0  0  0  0  0  0  0
    3.5665    0.6823   11.9289 C   0  0  0  0  0  0  0  0  0  0  0  0
    2.2002    1.0453   12.3183 N   0  0  0  0  0  0  0  0  0  0  0  0
    1.6985    0.4124   13.5223 C   0  0  0  0  0  0  0  0  0  0  0  0
    2.1371    1.0891   14.7649 C   0  0  0  0  0  0  0  0  0  0  0  0
    2.7906    2.2939   14.6716 C   0  0  0  0  0  0  0  0  0  0  0  0
    3.2194    2.9668   15.7726 N   0  0  0  0  0  0  0  0  0  0  0  0
    2.9968    2.4379   16.9742 C   0  0  0  0  0  0  0  0  0  0  0  0
    2.3420    1.2239   17.1343 C   0  0  0  0  0  0  0  0  0  0  0  0
    1.9200    0.5655   16.0135 C   0  0  0  0  0  0  0  0  0  0  0  0
    1.4327    1.9600   11.5530 C   0  0  0  0  0  0  0  0  0  0  0  0
    0.3512    2.3758   12.0155 O   0  0  0  0  0  0  0  0  0  0  0  0
    1.9122    2.3983   10.2491 C   0  0  0  0  0  0  0  0  0  0  0  0
    0.8836    2.6845    9.2708 N   0  0  0  0  0  0  0  0  0  0  0  0
    0.2916    1.5735    8.6040 C   0  0  0  0  0  0  0  0  0  0  0  0
    0.9363    0.8971    7.5881 C   0  0  0  0  0  0  0  0  0  0  0  0
    0.3905   -0.1586    6.9362 N   0  0  0  0  0  0  0  0  0  0  0  0
   -0.8288   -0.6114    7.2492 C   0  0  0  0  0  0  0  0  0  0  0  0
   -1.5288    0.0381    8.2731 C   0  0  0  0  0  0  0  0  0  0  0  0
   -0.9613    1.1063    8.9236 C   0  0  0  0  0  0  0  0  0  0  0  0
   -1.4374   -1.6984    6.6061 O   0  0  0  0  0  0  0  0  0  0  0  0
   -0.8591   -2.3109    5.4776 C   0  0  0  0  0  0  0  0  0  0  0  0
    0.4664    4.2984    9.0282 S   0  0  0  0  0  6  0  0  0  0  0  0
    1.6626    4.9769    8.3674 O   0  0  0  0  0  0  0  0  0  0  0  0
    0.3083    4.9836   10.3560 O   0  0  0  0  0  0  0  0  0  0  0  0
   -0.9771    4.6099    8.1271 C   0  0  0  0  0  0  0  0  0  0  0  0
   -2.1182    4.9673    8.8099 C   0  0  0  0  0  0  0  0  0  0  0  0
   -3.3048    5.2339    8.1719 C   0  0  0  0  0  0  0  0  0  0  0  0
   -3.3298    5.1335    6.7974 C   0  0  0  0  0  0  0  0  0  0  0  0
   -2.2247    4.7816    6.0630 C   0  0  0  0  0  0  0  0  0  0  0  0
   -1.0450    4.5211    6.7559 C   0  0  0  0  0  0  0  0  0  0  0  0
    0.1328    4.1427    5.9579 C   0  0  0  0  0  0  0  0  0  0  0  0
  1  2  1  0
  2  3  1  0
  3  4  1  0
  4  5  1  0
  5  6  2  0
  6  7  1  0
  7  8  2  0
  8  9  1  0
  9 10  2  0
  3 11  1  0
 11 12  2  0
 11 13  1  0
 13 14  1  0
 14 15  1  0
 15 16  2  0
 16 17  1  0
 17 18  2  0
 18 19  1  0
 19 20  2  0
 18 21  1  0
 21 22  1  0
 14 23  1  0
 23 24  2  0
 23 25  2  0
 23 26  1  0
 26 27  2  0
 27 28  1  0
 28 29  2  0
 29 30  1  0
 30 31  2  0
 31 32  1  0
 10  5  1  0
 20 15  1  0
 31 26  1  0
M  END
$$$$
