
     RDKit          3D

 32 34  0  0  0  0  0  0  0  0999 V2000
   -3.3332    4.2539   10.3100 C   0  0  0  0  0  0  0  0  0  0  0  0
   -1.9980    4.8698    9.9621 C   0  0  0  0  0  0  0  0  0  0  0  0
   -1.3869    4.0475    8.9131 N   0  0  0  0  0  0  0  0  0  0  0  0
   -1.6966    4.4320    7.5500 C   0  0  0  0  0  0  0  0  0  0  0  0
   -0.7815    5.4649    7.0115 C   0  0  0  0  0  0  0  0  0  0  0  0
    0.2227    5.9486    7.8147 C   0  0  0  0  0  0  0  0  0  0  0  0
    1.0961    6.8966    7.3822 N   0  0  0  0  0  0  0  0  0  0  0  0
    0.9701    7.3667    6.1428 C   0  0  0  0  0  0  0  0  0  0  0  0
   -0.0238    6.9182    5.2830 C   0  0  0  0  0  0  0  0  0  0  0  0
   -0.8903    5.9650    5.7393 C   0  0  0  0  0  0  0  0  0  0  0  0
   -0.5481    2.9489    9.2308 C   0  0  0  0  0  0  0  0  0  0  0  0
    0.1321    2.4265    8.3248 O   0  0  0  0  0  0  0  0  0  0  0  0
   -0.4919    2.4489   10.5980 C   0  0  0  0  0  0  0  0  0  0  0  0
    0.4947    1.4180   10.8444 N   0  0  0  0  0  0  0  0  0  0  0  0
    0.1047    0.0705   10.5961 C   0  0  0  0  0  0  0  0  0  0  0  0
    0.2768   -0.5297    9.3651 C   0  0  0  0  0  0  0  0  0  0  0  0
   -0.0914   -1.8079    9.1047 N   0  0  0  0  0  0  0  0  0  0  0  0
   -0.6538   -2.5729   10.0472 C   0  0  0  0  0  0  0  0  0  0  0  0
   -0.8523   -2.0144   11.3156 C   0  0  0  0  0  0  0  0  0  0  0  0
   -0.4734   -0.7177   11.5629 C   0  0  0  0  0  0  0  0  0  0  0  0
   -1.0521   -3.8993    9.8290 O   0  0  0  0  0  0  0  0  0  0  0  0
   -0.9788   -4.4955    8.5553 C   0  0  0  0  0  0  0  0  0  0  0  0
    2.0156    1.9067   11.3787 S   0  0  0  0  0  6  0  0  0  0  0  0
    1.7982    3.0412   12.3755 O   0  0  0  0  0  0  0  0  0  0  0  0
    2.7764    2.5234   10.2392 O   0  0  0  0  0  0  0  0  0  0  0  0
    3.0364    0.6896   12.0639 C   0  0  0  0  0  0  0  0  0  0  0  0
    3.1132    0.5866   13.4349 C   0  0  0  0  0  0  0  0  0  0  0  0
    3.8970   -0.3523   14.0597 C   0  0  0  0  0  0  0  0  0  0  0  0
    4.6240   -1.2118   13.2645 C   0  0  0  0  0  0  0  0  0  0  0  0
    4.5877   -1.1572   11.8934 C   0  0  0  0  0  0  0  0  0  0  0  0
    3.7780   -0.1876   11.3068 C   0  0  0  0  0  0  0  0  0  0  0  0
    3.7489   -0.1373    9.8358 C   0  0  0  0  0  0  0  0  0  0  0  0
  1  2  1  0
  2  3  1  0
  3  4  1  0
  4  5  1  0
  5  6  2  0
  6  7  1  0
  7  8  2  0
  8  9  1  0
  9 10  2  0
  3 11  1  0
 11 12  2  0
 11 13  1  0
 13 14  1  0
 14 15  1  0
 15 16  2  0
 16 17  1  0
 17 18  2  0
 18 19  1  0
 19 20  2  0
 18 21  1  0
 21 22  1  0
 14 23  1  0
 23 24  2  0
 23 25  2  0
 23 26  1  0
 26 27  2  0
 27 28  1  0
 28 29  2  0
 29 30  1  0
 30 31  2  0
 31 32  1  0
 10  5  1  0
 20 15  1  0
 31 26  1  0
M  END
$$$$
