
     RDKit          3D

 32 34  0  0  0  0  0  0  0  0999 V2000
   -0.4291    6.4909   11.0318 C   0  0  0  0  0  0  0  0  0  0  0  0
   -0.6893    5.0102   10.8802 C   0  0  0  0  0  0  0  0  0  0  0  0
    0.3525    4.4610   10.0066 N   0  0  0  0  0  0  0  0  0  0  0  0
    0.5826    5.1816    8.7698 C   0  0  0  0  0  0  0  0  0  0  0  0
   -0.2675    4.7106    7.6518 C   0  0  0  0  0  0  0  0  0  0  0  0
   -1.2386    3.7720    7.9037 C   0  0  0  0  0  0  0  0  0  0  0  0
   -2.0521    3.2977    6.9229 N   0  0  0  0  0  0  0  0  0  0  0  0
   -1.8990    3.7600    5.6836 C   0  0  0  0  0  0  0  0  0  0  0  0
   -0.9361    4.7086    5.3656 C   0  0  0  0  0  0  0  0  0  0  0  0
   -0.1297    5.1708    6.3675 C   0  0  0  0  0  0  0  0  0  0  0  0
    1.0791    3.2971   10.3655 C   0  0  0  0  0  0  0  0  0  0  0  0
    1.8380    2.7755    9.5238 O   0  0  0  0  0  0  0  0  0  0  0  0
    0.9316    2.7308   11.6996 C   0  0  0  0  0  0  0  0  0  0  0  0
    1.0075    1.2867   11.7754 N   0  0  0  0  0  0  0  0  0  0  0  0
    0.4241    0.5468   10.7069 C   0  0  0  0  0  0  0  0  0  0  0  0
    1.1887   -0.1149    9.7674 C   0  0  0  0  0  0  0  0  0  0  0  0
    0.6556   -0.8201    8.7398 N   0  0  0  0  0  0  0  0  0  0  0  0
   -0.6690   -0.9144    8.5775 C   0  0  0  0  0  0  0  0  0  0  0  0
   -1.4931   -0.2619    9.5022 C   0  0  0  0  0  0  0  0  0  0  0  0
   -0.9368    0.4483   10.5377 C   0  0  0  0  0  0  0  0  0  0  0  0
   -1.2697   -1.6307    7.5326 O   0  0  0  0  0  0  0  0  0  0  0  0
   -0.9928   -2.9937    7.3128 C   0  0  0  0  0  0  0  0  0  0  0  0
    1.7961    0.6165   13.1044 S   0  0  0  0  0  6  0  0  0  0  0  0
    0.9986   -0.6139   13.5263 O   0  0  0  0  0  0  0  0  0  0  0  0
    1.7110    1.5605   14.2702 O   0  0  0  0  0  0  0  0  0  0  0  0
    3.4667    0.2130   12.9056 C   0  0  0  0  0  0  0  0  0  0  0  0
    4.4187    1.1165   13.3220 C   0  0  0  0  0  0  0  0  0  0  0  0
    5.7653    0.8742   13.2030 C   0  0  0  0  0  0  0  0  0  0  0  0
    6.1537   -0.3239   12.6431 C   0  0  0  0  0  0  0  0  0  0  0  0
    5.2509   -1.2629   12.2098 C   0  0  0  0  0  0  0  0  0  0  0  0
    3.8966   -0.9708   12.3521 C   0  0  0  0  0  0  0  0  0  0  0  0
    2.9381   -1.9843   11.8820 C   0  0  0  0  0  0  0  0  0  0  0  0
  1  2  1  0
  2  3  1  0
  3  4  1  0
  4  5  1  0
  5  6  2  0
  6  7  1  0
  7  8  2  0
  8  9  1  0
  9 10  2  0
  3 11  1  0
 11 12  2  0
 11 13  1  0
 13 14  1  0
 14 15  1  0
 15 16  2  0
 16 17  1  0
 17 18  2  0
 18 19  1  0
 19 20  2  0
 18 21  1  0
 21 22  1  0
 14 23  1  0
 23 24  2  0
 23 25  2  0
 23 26  1  0
 26 27  2  0
 27 28  1  0
 28 29  2  0
 29 30  1  0
 30 31  2  0
 31 32  1  0
 10  5  1  0
 20 15  1  0
 31 26  1  0
M  END
$$$$
