
     RDKit          3D

 32 34  0  0  0  0  0  0  0  0999 V2000
   -1.0284    4.2288   11.9536 C   0  0  0  0  0  0  0  0  0  0  0  0
   -0.6607    4.7719   10.5924 C   0  0  0  0  0  0  0  0  0  0  0  0
   -0.4598    3.6296    9.6954 N   0  0  0  0  0  0  0  0  0  0  0  0
   -1.4579    3.4596    8.6577 C   0  0  0  0  0  0  0  0  0  0  0  0
   -1.2403    4.3406    7.4870 C   0  0  0  0  0  0  0  0  0  0  0  0
   -1.6700    5.6442    7.5459 C   0  0  0  0  0  0  0  0  0  0  0  0
   -1.5014    6.5049    6.5069 N   0  0  0  0  0  0  0  0  0  0  0  0
   -0.9014    6.0663    5.4020 C   0  0  0  0  0  0  0  0  0  0  0  0
   -0.4450    4.7604    5.2812 C   0  0  0  0  0  0  0  0  0  0  0  0
   -0.6253    3.9132    6.3383 C   0  0  0  0  0  0  0  0  0  0  0  0
    0.6473    2.7565    9.8482 C   0  0  0  0  0  0  0  0  0  0  0  0
    1.0717    2.1389    8.8508 O   0  0  0  0  0  0  0  0  0  0  0  0
    1.2691    2.5933   11.1556 C   0  0  0  0  0  0  0  0  0  0  0  0
    1.3970    1.2272   11.6186 N   0  0  0  0  0  0  0  0  0  0  0  0
    0.8622    0.2038   10.7842 C   0  0  0  0  0  0  0  0  0  0  0  0
   -0.4054   -0.3095   10.9710 C   0  0  0  0  0  0  0  0  0  0  0  0
   -0.9326   -1.2864   10.1933 N   0  0  0  0  0  0  0  0  0  0  0  0
   -0.2374   -1.8172    9.1809 C   0  0  0  0  0  0  0  0  0  0  0  0
    1.0553   -1.3337    8.9459 C   0  0  0  0  0  0  0  0  0  0  0  0
    1.5745   -0.3434    9.7433 C   0  0  0  0  0  0  0  0  0  0  0  0
   -0.7366   -2.8285    8.3480 O   0  0  0  0  0  0  0  0  0  0  0  0
   -2.0795   -2.8447    7.9244 C   0  0  0  0  0  0  0  0  0  0  0  0
    2.1842    0.9722   13.0859 S   0  0  0  0  0  6  0  0  0  0  0  0
    1.1876    0.2884   14.0171 O   0  0  0  0  0  0  0  0  0  0  0  0
    2.4855    2.2943   13.7330 O   0  0  0  0  0  0  0  0  0  0  0  0
    3.6694    0.0865   13.0372 C   0  0  0  0  0  0  0  0  0  0  0  0
    4.8552    0.7859   13.0062 C   0  0  0  0  0  0  0  0  0  0  0  0
    6.0775    0.1610   12.9690 C   0  0  0  0  0  0  0  0  0  0  0  0
    6.0927   -1.2173   12.9632 C   0  0  0  0  0  0  0  0  0  0  0  0
    4.9437   -1.9679   12.9929 C   0  0  0  0  0  0  0  0  0  0  0  0
    3.7288   -1.2880   13.0301 C   0  0  0  0  0  0  0  0  0  0  0  0
    2.5036   -2.1035   13.0596 C   0  0  0  0  0  0  0  0  0  0  0  0
  1  2  1  0
  2  3  1  0
  3  4  1  0
  4  5  1  0
  5  6  2  0
  6  7  1  0
  7  8  2  0
  8  9  1  0
  9 10  2  0
  3 11  1  0
 11 12  2  0
 11 13  1  0
 13 14  1  0
 14 15  1  0
 15 16  2  0
 16 17  1  0
 17 18  2  0
 18 19  1  0
 19 20  2  0
 18 21  1  0
 21 22  1  0
 14 23  1  0
 23 24  2  0
 23 25  2  0
 23 26  1  0
 26 27  2  0
 27 28  1  0
 28 29  2  0
 29 30  1  0
 30 31  2  0
 31 32  1  0
 10  5  1  0
 20 15  1  0
 31 26  1  0
M  END
$$$$
