
     RDKit          3D

 32 34  0  0  0  0  0  0  0  0999 V2000
    2.2486    6.5988    9.0679 C   0  0  0  0  0  0  0  0  0  0  0  0
    1.6473    5.3651    8.4359 C   0  0  0  0  0  0  0  0  0  0  0  0
    0.5927    4.8750    9.3290 N   0  0  0  0  0  0  0  0  0  0  0  0
   -0.6558    5.6113    9.2940 C   0  0  0  0  0  0  0  0  0  0  0  0
   -1.6075    5.1008    8.2801 C   0  0  0  0  0  0  0  0  0  0  0  0
   -1.2580    4.0024    7.5325 C   0  0  0  0  0  0  0  0  0  0  0  0
   -2.0849    3.4838    6.5860 N   0  0  0  0  0  0  0  0  0  0  0  0
   -3.2672    4.0614    6.3815 C   0  0  0  0  0  0  0  0  0  0  0  0
   -3.6779    5.1735    7.1044 C   0  0  0  0  0  0  0  0  0  0  0  0
   -2.8302    5.6775    8.0506 C   0  0  0  0  0  0  0  0  0  0  0  0
    0.7988    3.7498   10.1673 C   0  0  0  0  0  0  0  0  0  0  0  0
   -0.1394    3.3532   10.8875 O   0  0  0  0  0  0  0  0  0  0  0  0
    2.0914    3.0776   10.1767 C   0  0  0  0  0  0  0  0  0  0  0  0
    2.1311    1.8134   10.8817 N   0  0  0  0  0  0  0  0  0  0  0  0
    1.5005    0.6991   10.2571 C   0  0  0  0  0  0  0  0  0  0  0  0
    0.4148    0.8445    9.4172 C   0  0  0  0  0  0  0  0  0  0  0  0
   -0.2041   -0.2012    8.8166 N   0  0  0  0  0  0  0  0  0  0  0  0
    0.2131   -1.4576    9.0099 C   0  0  0  0  0  0  0  0  0  0  0  0
    1.3114   -1.6635    9.8533 C   0  0  0  0  0  0  0  0  0  0  0  0
    1.9272   -0.5929   10.4541 C   0  0  0  0  0  0  0  0  0  0  0  0
   -0.3919   -2.5725    8.4127 O   0  0  0  0  0  0  0  0  0  0  0  0
   -1.3848   -2.4363    7.4235 C   0  0  0  0  0  0  0  0  0  0  0  0
    2.9366    1.7709   12.3605 S   0  0  0  0  0  6  0  0  0  0  0  0
    2.2762    2.8101   13.2615 O   0  0  0  0  0  0  0  0  0  0  0  0
    4.3499    2.2475   12.1790 O   0  0  0  0  0  0  0  0  0  0  0  0
    3.0214    0.2419   13.1654 C   0  0  0  0  0  0  0  0  0  0  0  0
    2.0267   -0.0914   14.0574 C   0  0  0  0  0  0  0  0  0  0  0  0
    2.0168   -1.2850   14.7366 C   0  0  0  0  0  0  0  0  0  0  0  0
    3.0507   -2.1653   14.5003 C   0  0  0  0  0  0  0  0  0  0  0  0
    4.0696   -1.8884   13.6230 C   0  0  0  0  0  0  0  0  0  0  0  0
    4.0351   -0.6649   12.9585 C   0  0  0  0  0  0  0  0  0  0  0  0
    5.1341   -0.3783   12.0219 C   0  0  0  0  0  0  0  0  0  0  0  0
  1  2  1  0
  2  3  1  0
  3  4  1  0
  4  5  1  0
  5  6  2  0
  6  7  1  0
  7  8  2  0
  8  9  1  0
  9 10  2  0
  3 11  1  0
 11 12  2  0
 11 13  1  0
 13 14  1  0
 14 15  1  0
 15 16  2  0
 16 17  1  0
 17 18  2  0
 18 19  1  0
 19 20  2  0
 18 21  1  0
 21 22  1  0
 14 23  1  0
 23 24  2  0
 23 25  2  0
 23 26  1  0
 26 27  2  0
 27 28  1  0
 28 29  2  0
 29 30  1  0
 30 31  2  0
 31 32  1  0
 10  5  1  0
 20 15  1  0
 31 26  1  0
M  END
$$$$
