
     RDKit          3D

 32 34  0  0  0  0  0  0  0  0999 V2000
    2.7658    5.1182   10.5607 C   0  0  0  0  0  0  0  0  0  0  0  0
    1.2781    4.8554   10.5873 C   0  0  0  0  0  0  0  0  0  0  0  0
    0.9645    3.9515    9.4761 N   0  0  0  0  0  0  0  0  0  0  0  0
    0.8819    4.5677    8.1663 C   0  0  0  0  0  0  0  0  0  0  0  0
   -0.4323    5.1961    7.8976 C   0  0  0  0  0  0  0  0  0  0  0  0
   -1.3750    5.2210    8.8967 C   0  0  0  0  0  0  0  0  0  0  0  0
   -2.6002    5.7819    8.7157 N   0  0  0  0  0  0  0  0  0  0  0  0
   -2.8900    6.3216    7.5334 C   0  0  0  0  0  0  0  0  0  0  0  0
   -1.9802    6.3279    6.4844 C   0  0  0  0  0  0  0  0  0  0  0  0
   -0.7548    5.7585    6.6893 C   0  0  0  0  0  0  0  0  0  0  0  0
    0.7582    2.5645    9.6880 C   0  0  0  0  0  0  0  0  0  0  0  0
    0.3380    1.8652    8.7442 O   0  0  0  0  0  0  0  0  0  0  0  0
    1.0368    1.9794   10.9928 C   0  0  0  0  0  0  0  0  0  0  0  0
    1.6144    0.6516   10.9698 N   0  0  0  0  0  0  0  0  0  0  0  0
    0.7139   -0.4513   11.0161 C   0  0  0  0  0  0  0  0  0  0  0  0
    0.2074   -0.9374   12.2046 C   0  0  0  0  0  0  0  0  0  0  0  0
   -0.6459   -1.9883   12.2730 N   0  0  0  0  0  0  0  0  0  0  0  0
   -1.0516   -2.6248   11.1684 C   0  0  0  0  0  0  0  0  0  0  0  0
   -0.5685   -2.1735    9.9343 C   0  0  0  0  0  0  0  0  0  0  0  0
    0.2955   -1.1071    9.8825 C   0  0  0  0  0  0  0  0  0  0  0  0
   -1.9321   -3.7157   11.1852 O   0  0  0  0  0  0  0  0  0  0  0  0
   -2.3435   -4.3180   12.3898 C   0  0  0  0  0  0  0  0  0  0  0  0
    3.2916    0.5332   10.8675 S   0  0  0  0  0  6  0  0  0  0  0  0
    3.8344    1.9524   10.7299 O   0  0  0  0  0  0  0  0  0  0  0  0
    3.6714   -0.1599    9.5897 O   0  0  0  0  0  0  0  0  0  0  0  0
    4.1001   -0.2997   12.1503 C   0  0  0  0  0  0  0  0  0  0  0  0
    4.7503    0.4405   13.1123 C   0  0  0  0  0  0  0  0  0  0  0  0
    5.4142   -0.1410   14.1646 C   0  0  0  0  0  0  0  0  0  0  0  0
    5.4159   -1.5173   14.2393 C   0  0  0  0  0  0  0  0  0  0  0  0
    4.7856   -2.3074   13.3104 C   0  0  0  0  0  0  0  0  0  0  0  0
    4.1261   -1.6707   12.2619 C   0  0  0  0  0  0  0  0  0  0  0  0
    3.4557   -2.5284   11.2709 C   0  0  0  0  0  0  0  0  0  0  0  0
  1  2  1  0
  2  3  1  0
  3  4  1  0
  4  5  1  0
  5  6  2  0
  6  7  1  0
  7  8  2  0
  8  9  1  0
  9 10  2  0
  3 11  1  0
 11 12  2  0
 11 13  1  0
 13 14  1  0
 14 15  1  0
 15 16  2  0
 16 17  1  0
 17 18  2  0
 18 19  1  0
 19 20  2  0
 18 21  1  0
 21 22  1  0
 14 23  1  0
 23 24  2  0
 23 25  2  0
 23 26  1  0
 26 27  2  0
 27 28  1  0
 28 29  2  0
 29 30  1  0
 30 31  2  0
 31 32  1  0
 10  5  1  0
 20 15  1  0
 31 26  1  0
M  END
$$$$
