
     RDKit          3D

 32 34  0  0  0  0  0  0  0  0999 V2000
   -0.2700    5.8635   11.0900 C   0  0  0  0  0  0  0  0  0  0  0  0
   -0.9570    4.5306   11.2754 C   0  0  0  0  0  0  0  0  0  0  0  0
   -0.6775    3.7154   10.0890 N   0  0  0  0  0  0  0  0  0  0  0  0
   -1.7777    3.5593    9.1579 C   0  0  0  0  0  0  0  0  0  0  0  0
   -1.5851    4.3081    7.8944 C   0  0  0  0  0  0  0  0  0  0  0  0
   -0.3728    4.9083    7.6544 C   0  0  0  0  0  0  0  0  0  0  0  0
   -0.1306    5.6102    6.5155 N   0  0  0  0  0  0  0  0  0  0  0  0
   -1.1003    5.7159    5.6090 C   0  0  0  0  0  0  0  0  0  0  0  0
   -2.3467    5.1321    5.7931 C   0  0  0  0  0  0  0  0  0  0  0  0
   -2.5674    4.4314    6.9456 C   0  0  0  0  0  0  0  0  0  0  0  0
    0.5951    3.1247    9.8821 C   0  0  0  0  0  0  0  0  0  0  0  0
    0.8769    2.6778    8.7519 O   0  0  0  0  0  0  0  0  0  0  0  0
    1.5482    3.0480   10.9812 C   0  0  0  0  0  0  0  0  0  0  0  0
    1.9707    1.7122   11.3476 N   0  0  0  0  0  0  0  0  0  0  0  0
    1.2398    0.6227   10.7924 C   0  0  0  0  0  0  0  0  0  0  0  0
    1.5720    0.0575    9.5777 C   0  0  0  0  0  0  0  0  0  0  0  0
    0.8881   -0.9755    9.0279 N   0  0  0  0  0  0  0  0  0  0  0  0
   -0.1688   -1.5144    9.6464 C   0  0  0  0  0  0  0  0  0  0  0  0
   -0.5506   -0.9795   10.8827 C   0  0  0  0  0  0  0  0  0  0  0  0
    0.1534    0.0672   11.4259 C   0  0  0  0  0  0  0  0  0  0  0  0
   -0.9092   -2.5826    9.1208 O   0  0  0  0  0  0  0  0  0  0  0  0
   -0.2992   -3.6158    8.3836 C   0  0  0  0  0  0  0  0  0  0  0  0
    3.2976    1.5690   12.3753 S   0  0  0  0  0  6  0  0  0  0  0  0
    2.8956    2.1784   13.7151 O   0  0  0  0  0  0  0  0  0  0  0  0
    4.4210    2.4302   11.8716 O   0  0  0  0  0  0  0  0  0  0  0  0
    3.9457   -0.0184   12.6052 C   0  0  0  0  0  0  0  0  0  0  0  0
    4.8766   -0.4887   11.7062 C   0  0  0  0  0  0  0  0  0  0  0  0
    5.4422   -1.7353   11.8166 C   0  0  0  0  0  0  0  0  0  0  0  0
    5.0478   -2.5265   12.8741 C   0  0  0  0  0  0  0  0  0  0  0  0
    4.1244   -2.1121   13.8014 C   0  0  0  0  0  0  0  0  0  0  0  0
    3.5795   -0.8398   13.6463 C   0  0  0  0  0  0  0  0  0  0  0  0
    2.5887   -0.4073   14.6456 C   0  0  0  0  0  0  0  0  0  0  0  0
  1  2  1  0
  2  3  1  0
  3  4  1  0
  4  5  1  0
  5  6  2  0
  6  7  1  0
  7  8  2  0
  8  9  1  0
  9 10  2  0
  3 11  1  0
 11 12  2  0
 11 13  1  0
 13 14  1  0
 14 15  1  0
 15 16  2  0
 16 17  1  0
 17 18  2  0
 18 19  1  0
 19 20  2  0
 18 21  1  0
 21 22  1  0
 14 23  1  0
 23 24  2  0
 23 25  2  0
 23 26  1  0
 26 27  2  0
 27 28  1  0
 28 29  2  0
 29 30  1  0
 30 31  2  0
 31 32  1  0
 10  5  1  0
 20 15  1  0
 31 26  1  0
M  END
$$$$
