
     RDKit          3D

 32 34  0  0  0  0  0  0  0  0999 V2000
    2.7256   -1.2387   10.6336 C   0  0  0  0  0  0  0  0  0  0  0  0
    2.0286   -0.2574   11.5469 C   0  0  0  0  0  0  0  0  0  0  0  0
    2.8446    0.9597   11.6004 N   0  0  0  0  0  0  0  0  0  0  0  0
    4.2607    0.7594   11.8378 C   0  0  0  0  0  0  0  0  0  0  0  0
    4.5414   -0.0805   13.0253 C   0  0  0  0  0  0  0  0  0  0  0  0
    4.0802    0.3278   14.2534 C   0  0  0  0  0  0  0  0  0  0  0  0
    4.3033   -0.3961   15.3825 N   0  0  0  0  0  0  0  0  0  0  0  0
    4.9895   -1.5335   15.2897 C   0  0  0  0  0  0  0  0  0  0  0  0
    5.4817   -1.9994   14.0778 C   0  0  0  0  0  0  0  0  0  0  0  0
    5.2454   -1.2552   12.9561 C   0  0  0  0  0  0  0  0  0  0  0  0
    2.2676    2.2438   11.4284 C   0  0  0  0  0  0  0  0  0  0  0  0
    3.0014    3.2502   11.4992 O   0  0  0  0  0  0  0  0  0  0  0  0
    0.8387    2.3703   11.1737 C   0  0  0  0  0  0  0  0  0  0  0  0
    0.4675    2.5611    9.7871 N   0  0  0  0  0  0  0  0  0  0  0  0
    0.1868    1.3931    9.0212 C   0  0  0  0  0  0  0  0  0  0  0  0
   -0.6247    0.3816    9.4938 C   0  0  0  0  0  0  0  0  0  0  0  0
   -0.9011   -0.7404    8.7852 N   0  0  0  0  0  0  0  0  0  0  0  0
   -0.3909   -0.9317    7.5633 C   0  0  0  0  0  0  0  0  0  0  0  0
    0.4400    0.0632    7.0343 C   0  0  0  0  0  0  0  0  0  0  0  0
    0.7099    1.1940    7.7654 C   0  0  0  0  0  0  0  0  0  0  0  0
   -0.6458   -2.0733    6.7903 O   0  0  0  0  0  0  0  0  0  0  0  0
   -0.9913   -3.3051    7.3786 C   0  0  0  0  0  0  0  0  0  0  0  0
    0.3797    4.1429    9.2146 S   0  0  0  0  0  6  0  0  0  0  0  0
    1.7821    4.5338    8.7584 O   0  0  0  0  0  0  0  0  0  0  0  0
    0.0607    5.0734   10.3503 O   0  0  0  0  0  0  0  0  0  0  0  0
   -0.7721    4.4631    7.9641 C   0  0  0  0  0  0  0  0  0  0  0  0
   -0.3154    4.6647    6.6808 C   0  0  0  0  0  0  0  0  0  0  0  0
   -1.1616    4.9221    5.6302 C   0  0  0  0  0  0  0  0  0  0  0  0
   -2.5133    4.9757    5.8946 C   0  0  0  0  0  0  0  0  0  0  0  0
   -3.0273    4.7831    7.1528 C   0  0  0  0  0  0  0  0  0  0  0  0
   -2.1286    4.5252    8.1850 C   0  0  0  0  0  0  0  0  0  0  0  0
   -2.6913    4.3224    9.5302 C   0  0  0  0  0  0  0  0  0  0  0  0
  1  2  1  0
  2  3  1  0
  3  4  1  0
  4  5  1  0
  5  6  2  0
  6  7  1  0
  7  8  2  0
  8  9  1  0
  9 10  2  0
  3 11  1  0
 11 12  2  0
 11 13  1  0
 13 14  1  0
 14 15  1  0
 15 16  2  0
 16 17  1  0
 17 18  2  0
 18 19  1  0
 19 20  2  0
 18 21  1  0
 21 22  1  0
 14 23  1  0
 23 24  2  0
 23 25  2  0
 23 26  1  0
 26 27  2  0
 27 28  1  0
 28 29  2  0
 29 30  1  0
 30 31  2  0
 31 32  1  0
 10  5  1  0
 20 15  1  0
 31 26  1  0
M  END
$$$$
