
     RDKit          3D

 32 34  0  0  0  0  0  0  0  0999 V2000
    2.9058    5.7403   12.1698 C   0  0  0  0  0  0  0  0  0  0  0  0
    3.2747    4.5611   11.3001 C   0  0  0  0  0  0  0  0  0  0  0  0
    2.7547    3.3510   11.9447 N   0  0  0  0  0  0  0  0  0  0  0  0
    3.1558    3.1490   13.3232 C   0  0  0  0  0  0  0  0  0  0  0  0
    3.9940    1.9432   13.5175 C   0  0  0  0  0  0  0  0  0  0  0  0
    4.3314    1.1836   12.4236 C   0  0  0  0  0  0  0  0  0  0  0  0
    5.0973    0.0656   12.5327 N   0  0  0  0  0  0  0  0  0  0  0  0
    5.5307   -0.2995   13.7378 C   0  0  0  0  0  0  0  0  0  0  0  0
    5.2240    0.4261   14.8813 C   0  0  0  0  0  0  0  0  0  0  0  0
    4.4527    1.5463   14.7473 C   0  0  0  0  0  0  0  0  0  0  0  0
    1.9135    2.4465   11.2479 C   0  0  0  0  0  0  0  0  0  0  0  0
    1.4868    1.4371   11.8440 O   0  0  0  0  0  0  0  0  0  0  0  0
    1.5616    2.7051    9.8580 C   0  0  0  0  0  0  0  0  0  0  0  0
    0.1565    2.5684    9.5352 N   0  0  0  0  0  0  0  0  0  0  0  0
   -0.3615    1.2457    9.4281 C   0  0  0  0  0  0  0  0  0  0  0  0
   -0.4648    0.4060   10.5187 C   0  0  0  0  0  0  0  0  0  0  0  0
   -0.9492   -0.8574   10.4395 N   0  0  0  0  0  0  0  0  0  0  0  0
   -1.3622   -1.3695    9.2745 C   0  0  0  0  0  0  0  0  0  0  0  0
   -1.2798   -0.5610    8.1346 C   0  0  0  0  0  0  0  0  0  0  0  0
   -0.7865    0.7170    8.2322 C   0  0  0  0  0  0  0  0  0  0  0  0
   -1.8707   -2.6691    9.1394 O   0  0  0  0  0  0  0  0  0  0  0  0
   -1.6204   -3.6670   10.1009 C   0  0  0  0  0  0  0  0  0  0  0  0
   -0.7389    3.9816    9.3390 S   0  0  0  0  0  6  0  0  0  0  0  0
    0.1389    5.1381    9.8078 O   0  0  0  0  0  0  0  0  0  0  0  0
   -1.9113    3.9704   10.2786 O   0  0  0  0  0  0  0  0  0  0  0  0
   -1.3649    4.3021    7.7584 C   0  0  0  0  0  0  0  0  0  0  0  0
   -2.7262    4.2388    7.5614 C   0  0  0  0  0  0  0  0  0  0  0  0
   -3.3052    4.4811    6.3399 C   0  0  0  0  0  0  0  0  0  0  0  0
   -2.4730    4.7974    5.2877 C   0  0  0  0  0  0  0  0  0  0  0  0
   -1.1092    4.8754    5.4234 C   0  0  0  0  0  0  0  0  0  0  0  0
   -0.5697    4.6210    6.6819 C   0  0  0  0  0  0  0  0  0  0  0  0
    0.8939    4.7056    6.8147 C   0  0  0  0  0  0  0  0  0  0  0  0
  1  2  1  0
  2  3  1  0
  3  4  1  0
  4  5  1  0
  5  6  2  0
  6  7  1  0
  7  8  2  0
  8  9  1  0
  9 10  2  0
  3 11  1  0
 11 12  2  0
 11 13  1  0
 13 14  1  0
 14 15  1  0
 15 16  2  0
 16 17  1  0
 17 18  2  0
 18 19  1  0
 19 20  2  0
 18 21  1  0
 21 22  1  0
 14 23  1  0
 23 24  2  0
 23 25  2  0
 23 26  1  0
 26 27  2  0
 27 28  1  0
 28 29  2  0
 29 30  1  0
 30 31  2  0
 31 32  1  0
 10  5  1  0
 20 15  1  0
 31 26  1  0
M  END
$$$$
