
     RDKit          3D

 32 34  0  0  0  0  0  0  0  0999 V2000
    2.6951    4.6536    8.3549 C   0  0  0  0  0  0  0  0  0  0  0  0
    1.5089    3.7338    8.1819 C   0  0  0  0  0  0  0  0  0  0  0  0
    0.6866    3.8335    9.3918 N   0  0  0  0  0  0  0  0  0  0  0  0
   -0.2594    4.9316    9.4225 C   0  0  0  0  0  0  0  0  0  0  0  0
   -1.1992    4.9259    8.2775 C   0  0  0  0  0  0  0  0  0  0  0  0
   -1.5116    6.1163    7.6668 C   0  0  0  0  0  0  0  0  0  0  0  0
   -2.3668    6.1808    6.6117 N   0  0  0  0  0  0  0  0  0  0  0  0
   -2.9148    5.0540    6.1609 C   0  0  0  0  0  0  0  0  0  0  0  0
   -2.6390    3.8202    6.7353 C   0  0  0  0  0  0  0  0  0  0  0  0
   -1.7766    3.7797    7.7946 C   0  0  0  0  0  0  0  0  0  0  0  0
    0.8220    2.9049   10.4552 C   0  0  0  0  0  0  0  0  0  0  0  0
    0.0447    2.9829   11.4279 O   0  0  0  0  0  0  0  0  0  0  0  0
    1.8572    1.8814   10.3989 C   0  0  0  0  0  0  0  0  0  0  0  0
    1.6681    0.7542   11.2881 N   0  0  0  0  0  0  0  0  0  0  0  0
    0.8096   -0.2911   10.8413 C   0  0  0  0  0  0  0  0  0  0  0  0
   -0.3009   -0.6877   11.5587 C   0  0  0  0  0  0  0  0  0  0  0  0
   -1.1283   -1.6828   11.1557 N   0  0  0  0  0  0  0  0  0  0  0  0
   -0.9081   -2.3486   10.0164 C   0  0  0  0  0  0  0  0  0  0  0  0
    0.2053   -1.9876    9.2483 C   0  0  0  0  0  0  0  0  0  0  0  0
    1.0337   -0.9769    9.6709 C   0  0  0  0  0  0  0  0  0  0  0  0
   -1.7329   -3.3846    9.5558 O   0  0  0  0  0  0  0  0  0  0  0  0
   -2.8430   -3.8336   10.2966 C   0  0  0  0  0  0  0  0  0  0  0  0
    2.4958    0.7717   12.7551 S   0  0  0  0  0  6  0  0  0  0  0  0
    1.4566    0.6009   13.8591 O   0  0  0  0  0  0  0  0  0  0  0  0
    3.0920    2.1321   12.9818 O   0  0  0  0  0  0  0  0  0  0  0  0
    3.7755   -0.3763   12.9490 C   0  0  0  0  0  0  0  0  0  0  0  0
    3.6240   -1.3848   13.8742 C   0  0  0  0  0  0  0  0  0  0  0  0
    4.5894   -2.3376   14.0892 C   0  0  0  0  0  0  0  0  0  0  0  0
    5.7435   -2.2609   13.3395 C   0  0  0  0  0  0  0  0  0  0  0  0
    5.9511   -1.2790   12.4030 C   0  0  0  0  0  0  0  0  0  0  0  0
    4.9425   -0.3358   12.2216 C   0  0  0  0  0  0  0  0  0  0  0  0
    5.1774    0.7134   11.2162 C   0  0  0  0  0  0  0  0  0  0  0  0
  1  2  1  0
  2  3  1  0
  3  4  1  0
  4  5  1  0
  5  6  2  0
  6  7  1  0
  7  8  2  0
  8  9  1  0
  9 10  2  0
  3 11  1  0
 11 12  2  0
 11 13  1  0
 13 14  1  0
 14 15  1  0
 15 16  2  0
 16 17  1  0
 17 18  2  0
 18 19  1  0
 19 20  2  0
 18 21  1  0
 21 22  1  0
 14 23  1  0
 23 24  2  0
 23 25  2  0
 23 26  1  0
 26 27  2  0
 27 28  1  0
 28 29  2  0
 29 30  1  0
 30 31  2  0
 31 32  1  0
 10  5  1  0
 20 15  1  0
 31 26  1  0
M  END
$$$$
