
     RDKit          3D

 32 34  0  0  0  0  0  0  0  0999 V2000
    1.3593    2.8324    7.5671 C   0  0  0  0  0  0  0  0  0  0  0  0
    0.1900    2.1888    8.2752 C   0  0  0  0  0  0  0  0  0  0  0  0
   -0.1786    3.0509    9.4026 N   0  0  0  0  0  0  0  0  0  0  0  0
   -1.3742    3.8504    9.2203 C   0  0  0  0  0  0  0  0  0  0  0  0
   -1.2562    4.8369    8.1216 C   0  0  0  0  0  0  0  0  0  0  0  0
   -1.2030    4.3859    6.8250 C   0  0  0  0  0  0  0  0  0  0  0  0
   -1.0946    5.2378    5.7709 N   0  0  0  0  0  0  0  0  0  0  0  0
   -1.0388    6.5470    6.0079 C   0  0  0  0  0  0  0  0  0  0  0  0
   -1.0879    7.0647    7.2954 C   0  0  0  0  0  0  0  0  0  0  0  0
   -1.1969    6.1894    8.3393 C   0  0  0  0  0  0  0  0  0  0  0  0
    0.5977    3.0874   10.5889 C   0  0  0  0  0  0  0  0  0  0  0  0
    0.2312    3.8222   11.5282 O   0  0  0  0  0  0  0  0  0  0  0  0
    1.8018    2.2741   10.6948 C   0  0  0  0  0  0  0  0  0  0  0  0
    1.6275    0.9819   11.3247 N   0  0  0  0  0  0  0  0  0  0  0  0
    0.7818    0.0444   10.6649 C   0  0  0  0  0  0  0  0  0  0  0  0
    1.2846   -1.0348    9.9664 C   0  0  0  0  0  0  0  0  0  0  0  0
    0.4996   -1.9358    9.3268 N   0  0  0  0  0  0  0  0  0  0  0  0
   -0.8336   -1.8251    9.3383 C   0  0  0  0  0  0  0  0  0  0  0  0
   -1.3982   -0.7482   10.0322 C   0  0  0  0  0  0  0  0  0  0  0  0
   -0.5885    0.1559   10.6751 C   0  0  0  0  0  0  0  0  0  0  0  0
   -1.6891   -2.7294    8.6933 O   0  0  0  0  0  0  0  0  0  0  0  0
   -1.2842   -4.0427    8.3859 C   0  0  0  0  0  0  0  0  0  0  0  0
    2.4561    0.6984   12.7636 S   0  0  0  0  0  6  0  0  0  0  0  0
    1.4223    0.2667   13.7994 O   0  0  0  0  0  0  0  0  0  0  0  0
    3.0201    1.9902   13.2839 O   0  0  0  0  0  0  0  0  0  0  0  0
    3.7628   -0.4341   12.7079 C   0  0  0  0  0  0  0  0  0  0  0  0
    4.5758   -0.4507   11.5967 C   0  0  0  0  0  0  0  0  0  0  0  0
    5.6355   -1.3155   11.4729 C   0  0  0  0  0  0  0  0  0  0  0  0
    5.8742   -2.1893   12.5118 C   0  0  0  0  0  0  0  0  0  0  0  0
    5.0984   -2.2191   13.6438 C   0  0  0  0  0  0  0  0  0  0  0  0
    4.0354   -1.3226   13.7222 C   0  0  0  0  0  0  0  0  0  0  0  0
    3.2094   -1.3653   14.9399 C   0  0  0  0  0  0  0  0  0  0  0  0
  1  2  1  0
  2  3  1  0
  3  4  1  0
  4  5  1  0
  5  6  2  0
  6  7  1  0
  7  8  2  0
  8  9  1  0
  9 10  2  0
  3 11  1  0
 11 12  2  0
 11 13  1  0
 13 14  1  0
 14 15  1  0
 15 16  2  0
 16 17  1  0
 17 18  2  0
 18 19  1  0
 19 20  2  0
 18 21  1  0
 21 22  1  0
 14 23  1  0
 23 24  2  0
 23 25  2  0
 23 26  1  0
 26 27  2  0
 27 28  1  0
 28 29  2  0
 29 30  1  0
 30 31  2  0
 31 32  1  0
 10  5  1  0
 20 15  1  0
 31 26  1  0
M  END
$$$$
