
     RDKit          3D

 32 34  0  0  0  0  0  0  0  0999 V2000
    1.4719    4.2458    6.2535 C   0  0  0  0  0  0  0  0  0  0  0  0
    0.2943    4.2186    7.1999 C   0  0  0  0  0  0  0  0  0  0  0  0
    0.8212    4.2233    8.5683 N   0  0  0  0  0  0  0  0  0  0  0  0
    1.0740    5.5306    9.1420 C   0  0  0  0  0  0  0  0  0  0  0  0
   -0.0318    6.0166    9.9994 C   0  0  0  0  0  0  0  0  0  0  0  0
   -1.2223    5.3309   10.0028 C   0  0  0  0  0  0  0  0  0  0  0  0
   -2.2765    5.7237   10.7663 N   0  0  0  0  0  0  0  0  0  0  0  0
   -2.1459    6.8055   11.5317 C   0  0  0  0  0  0  0  0  0  0  0  0
   -0.9687    7.5409   11.5720 C   0  0  0  0  0  0  0  0  0  0  0  0
    0.0776    7.1273   10.7961 C   0  0  0  0  0  0  0  0  0  0  0  0
    1.0621    3.0152    9.2710 C   0  0  0  0  0  0  0  0  0  0  0  0
    0.9392    3.0038   10.5124 O   0  0  0  0  0  0  0  0  0  0  0  0
    1.4463    1.8143    8.5412 C   0  0  0  0  0  0  0  0  0  0  0  0
    1.5308    0.6045    9.3327 N   0  0  0  0  0  0  0  0  0  0  0  0
    0.4045   -0.2675    9.3118 C   0  0  0  0  0  0  0  0  0  0  0  0
    0.4500   -1.5131    8.7189 C   0  0  0  0  0  0  0  0  0  0  0  0
   -0.6102   -2.3568    8.6823 N   0  0  0  0  0  0  0  0  0  0  0  0
   -1.7832   -2.0202    9.2307 C   0  0  0  0  0  0  0  0  0  0  0  0
   -1.8859   -0.7669    9.8462 C   0  0  0  0  0  0  0  0  0  0  0  0
   -0.8020    0.0761    9.8745 C   0  0  0  0  0  0  0  0  0  0  0  0
   -2.9088   -2.8559    9.2198 O   0  0  0  0  0  0  0  0  0  0  0  0
   -3.0232   -3.9339    8.3210 C   0  0  0  0  0  0  0  0  0  0  0  0
    2.9575    0.3289   10.1848 S   0  0  0  0  0  6  0  0  0  0  0  0
    4.0123    1.2700    9.6107 O   0  0  0  0  0  0  0  0  0  0  0  0
    3.4617   -1.0554    9.8899 O   0  0  0  0  0  0  0  0  0  0  0  0
    2.8864    0.4816   11.9066 C   0  0  0  0  0  0  0  0  0  0  0  0
    2.5528   -0.6252   12.6548 C   0  0  0  0  0  0  0  0  0  0  0  0
    2.4760   -0.5910   14.0256 C   0  0  0  0  0  0  0  0  0  0  0  0
    2.7470    0.6061   14.6529 C   0  0  0  0  0  0  0  0  0  0  0  0
    3.0846    1.7421   13.9603 C   0  0  0  0  0  0  0  0  0  0  0  0
    3.1493    1.6568   12.5717 C   0  0  0  0  0  0  0  0  0  0  0  0
    3.5103    2.8820   11.8397 C   0  0  0  0  0  0  0  0  0  0  0  0
  1  2  1  0
  2  3  1  0
  3  4  1  0
  4  5  1  0
  5  6  2  0
  6  7  1  0
  7  8  2  0
  8  9  1  0
  9 10  2  0
  3 11  1  0
 11 12  2  0
 11 13  1  0
 13 14  1  0
 14 15  1  0
 15 16  2  0
 16 17  1  0
 17 18  2  0
 18 19  1  0
 19 20  2  0
 18 21  1  0
 21 22  1  0
 14 23  1  0
 23 24  2  0
 23 25  2  0
 23 26  1  0
 26 27  2  0
 27 28  1  0
 28 29  2  0
 29 30  1  0
 30 31  2  0
 31 32  1  0
 10  5  1  0
 20 15  1  0
 31 26  1  0
M  END
$$$$
