
     RDKit          3D

 32 34  0  0  0  0  0  0  0  0999 V2000
    1.6230    3.2474   14.6517 C   0  0  0  0  0  0  0  0  0  0  0  0
    2.8462    3.1328   13.7721 C   0  0  0  0  0  0  0  0  0  0  0  0
    2.6928    1.9292   12.9487 N   0  0  0  0  0  0  0  0  0  0  0  0
    3.3956    0.7509   13.4174 C   0  0  0  0  0  0  0  0  0  0  0  0
    2.4886   -0.3391   13.8457 C   0  0  0  0  0  0  0  0  0  0  0  0
    1.1490   -0.0716   13.9920 C   0  0  0  0  0  0  0  0  0  0  0  0
    0.2632   -1.0265   14.3820 N   0  0  0  0  0  0  0  0  0  0  0  0
    0.7125   -2.2556   14.6281 C   0  0  0  0  0  0  0  0  0  0  0  0
    2.0543   -2.5885   14.4982 C   0  0  0  0  0  0  0  0  0  0  0  0
    2.9264   -1.6125   14.1050 C   0  0  0  0  0  0  0  0  0  0  0  0
    1.9026    1.9360   11.7711 C   0  0  0  0  0  0  0  0  0  0  0  0
    1.6672    0.8545   11.1955 O   0  0  0  0  0  0  0  0  0  0  0  0
    1.3808    3.1937   11.2532 C   0  0  0  0  0  0  0  0  0  0  0  0
    0.5879    3.0894   10.0460 N   0  0  0  0  0  0  0  0  0  0  0  0
    0.4096    1.7882    9.4942 C   0  0  0  0  0  0  0  0  0  0  0  0
    1.3371    1.2152    8.6476 C   0  0  0  0  0  0  0  0  0  0  0  0
    1.1860   -0.0184    8.1069 N   0  0  0  0  0  0  0  0  0  0  0  0
    0.1061   -0.7631    8.3702 C   0  0  0  0  0  0  0  0  0  0  0  0
   -0.8678   -0.2306    9.2235 C   0  0  0  0  0  0  0  0  0  0  0  0
   -0.6991    1.0210    9.7631 C   0  0  0  0  0  0  0  0  0  0  0  0
   -0.0976   -2.0436    7.8368 O   0  0  0  0  0  0  0  0  0  0  0  0
    0.9714   -2.8277    7.3622 C   0  0  0  0  0  0  0  0  0  0  0  0
   -0.0679    4.5089    9.4194 S   0  0  0  0  0  6  0  0  0  0  0  0
    1.0582    5.5367    9.3622 O   0  0  0  0  0  0  0  0  0  0  0  0
   -1.0680    5.0731   10.3884 O   0  0  0  0  0  0  0  0  0  0  0  0
   -0.8613    4.3979    7.8861 C   0  0  0  0  0  0  0  0  0  0  0  0
   -0.1369    4.6666    6.7463 C   0  0  0  0  0  0  0  0  0  0  0  0
   -0.6888    4.5996    5.4905 C   0  0  0  0  0  0  0  0  0  0  0  0
   -2.0181    4.2485    5.3927 C   0  0  0  0  0  0  0  0  0  0  0  0
   -2.7904    3.9697    6.4928 C   0  0  0  0  0  0  0  0  0  0  0  0
   -2.1851    4.0513    7.7444 C   0  0  0  0  0  0  0  0  0  0  0  0
   -3.0238    3.7522    8.9167 C   0  0  0  0  0  0  0  0  0  0  0  0
  1  2  1  0
  2  3  1  0
  3  4  1  0
  4  5  1  0
  5  6  2  0
  6  7  1  0
  7  8  2  0
  8  9  1  0
  9 10  2  0
  3 11  1  0
 11 12  2  0
 11 13  1  0
 13 14  1  0
 14 15  1  0
 15 16  2  0
 16 17  1  0
 17 18  2  0
 18 19  1  0
 19 20  2  0
 18 21  1  0
 21 22  1  0
 14 23  1  0
 23 24  2  0
 23 25  2  0
 23 26  1  0
 26 27  2  0
 27 28  1  0
 28 29  2  0
 29 30  1  0
 30 31  2  0
 31 32  1  0
 10  5  1  0
 20 15  1  0
 31 26  1  0
M  END
$$$$
