
     RDKit          3D

 32 34  0  0  0  0  0  0  0  0999 V2000
    0.2732    3.9150    6.7778 C   0  0  0  0  0  0  0  0  0  0  0  0
   -0.8401    3.4407    7.6826 C   0  0  0  0  0  0  0  0  0  0  0  0
   -0.4409    3.7199    9.0656 N   0  0  0  0  0  0  0  0  0  0  0  0
   -1.0133    4.9128    9.6584 C   0  0  0  0  0  0  0  0  0  0  0  0
   -0.3138    6.1566    9.2610 C   0  0  0  0  0  0  0  0  0  0  0  0
    0.7211    6.0797    8.3607 C   0  0  0  0  0  0  0  0  0  0  0  0
    1.4044    7.1827    7.9543 N   0  0  0  0  0  0  0  0  0  0  0  0
    1.0562    8.3700    8.4464 C   0  0  0  0  0  0  0  0  0  0  0  0
    0.0194    8.5132    9.3590 C   0  0  0  0  0  0  0  0  0  0  0  0
   -0.6532    7.3907    9.7531 C   0  0  0  0  0  0  0  0  0  0  0  0
    0.4502    2.8656    9.7638 C   0  0  0  0  0  0  0  0  0  0  0  0
    0.6601    3.0726   10.9760 O   0  0  0  0  0  0  0  0  0  0  0  0
    1.1030    1.7676    9.0634 C   0  0  0  0  0  0  0  0  0  0  0  0
    1.3833    0.5954    9.8661 N   0  0  0  0  0  0  0  0  0  0  0  0
    0.2794   -0.2353   10.2137 C   0  0  0  0  0  0  0  0  0  0  0  0
   -0.1272   -1.2882    9.4192 C   0  0  0  0  0  0  0  0  0  0  0  0
   -1.1774   -2.0880    9.7271 N   0  0  0  0  0  0  0  0  0  0  0  0
   -1.8917   -1.8954   10.8417 C   0  0  0  0  0  0  0  0  0  0  0  0
   -1.5232   -0.8404   11.6851 C   0  0  0  0  0  0  0  0  0  0  0  0
   -0.4564   -0.0395   11.3584 C   0  0  0  0  0  0  0  0  0  0  0  0
   -2.9856   -2.6935   11.2053 O   0  0  0  0  0  0  0  0  0  0  0  0
   -3.2248   -3.9431   10.6017 C   0  0  0  0  0  0  0  0  0  0  0  0
    2.9871    0.3100   10.2949 S   0  0  0  0  0  6  0  0  0  0  0  0
    3.8593    1.0891    9.3150 O   0  0  0  0  0  0  0  0  0  0  0  0
    3.3229   -1.1353   10.0586 O   0  0  0  0  0  0  0  0  0  0  0  0
    3.4409    0.6713   11.9248 C   0  0  0  0  0  0  0  0  0  0  0  0
    3.8533    1.9496   12.2280 C   0  0  0  0  0  0  0  0  0  0  0  0
    4.2284    2.3207   13.4959 C   0  0  0  0  0  0  0  0  0  0  0  0
    4.1821    1.3613   14.4844 C   0  0  0  0  0  0  0  0  0  0  0  0
    3.7798    0.0713   14.2424 C   0  0  0  0  0  0  0  0  0  0  0  0
    3.4093   -0.2561   12.9404 C   0  0  0  0  0  0  0  0  0  0  0  0
    2.9818   -1.6428   12.6926 C   0  0  0  0  0  0  0  0  0  0  0  0
  1  2  1  0
  2  3  1  0
  3  4  1  0
  4  5  1  0
  5  6  2  0
  6  7  1  0
  7  8  2  0
  8  9  1  0
  9 10  2  0
  3 11  1  0
 11 12  2  0
 11 13  1  0
 13 14  1  0
 14 15  1  0
 15 16  2  0
 16 17  1  0
 17 18  2  0
 18 19  1  0
 19 20  2  0
 18 21  1  0
 21 22  1  0
 14 23  1  0
 23 24  2  0
 23 25  2  0
 23 26  1  0
 26 27  2  0
 27 28  1  0
 28 29  2  0
 29 30  1  0
 30 31  2  0
 31 32  1  0
 10  5  1  0
 20 15  1  0
 31 26  1  0
M  END
$$$$
