
     RDKit          3D

 25 28  0  0  0  0  0  0  0  0999 V2000
   -1.4593    6.2209   11.6455 C   0  0  0  0  0  0  0  0  0  0  0  0
   -0.2074    5.6611   12.2634 C   0  0  0  0  0  0  0  0  0  0  0  0
   -0.2280    4.2386   12.3742 N   0  0  0  0  0  0  0  0  0  0  0  0
   -0.6906    3.6019   13.5943 C   0  0  0  0  0  0  0  0  0  0  0  0
    0.0641    4.0386   14.8058 C   0  0  0  0  0  0  0  0  0  0  0  0
    0.2018    3.4256   11.2970 C   0  0  0  0  0  0  0  0  0  0  0  0
    1.2176    3.7685   10.5880 O   0  0  0  0  0  0  0  0  0  0  0  0
   -0.3995    2.2105   10.8949 N   0  0  0  0  0  0  0  0  0  0  0  0
    0.0582    1.4581    9.7327 C   0  0  0  0  0  0  0  0  0  0  0  0
   -0.3751    2.1163    8.4641 C   0  0  0  0  0  0  0  0  0  0  0  0
   -0.6040    1.2367    7.3752 N   0  0  0  0  0  0  0  0  0  0  0  0
    0.0661   -0.0412    7.4831 C   0  0  0  0  0  0  0  0  0  0  0  0
   -0.0896   -0.8057    6.2314 C   0  0  0  0  0  0  0  0  0  0  0  0
   -0.5562   -2.1821    6.3792 C   0  0  0  0  0  0  0  0  0  0  0  0
   -0.7573   -3.2025    5.4792 C   0  0  0  0  0  0  0  0  0  0  0  0
   -1.2130   -4.3203    6.1420 N   0  0  0  0  0  0  0  0  0  0  0  0
   -1.3088   -4.0344    7.4599 C   0  0  0  0  0  0  0  0  0  0  0  0
   -1.6770   -4.6571    8.6309 C   0  0  0  0  0  0  0  0  0  0  0  0
   -1.6353   -3.9900    9.8489 C   0  0  0  0  0  0  0  0  0  0  0  0
   -1.2220   -2.6572    9.9687 C   0  0  0  0  0  0  0  0  0  0  0  0
   -0.8615   -2.0624    8.7871 C   0  0  0  0  0  0  0  0  0  0  0  0
   -0.9061   -2.7309    7.5879 C   0  0  0  0  0  0  0  0  0  0  0  0
   -0.4089   -0.6851    8.7305 C   0  0  0  0  0  0  0  0  0  0  0  0
   -0.4186    0.0305    9.8253 C   0  0  0  0  0  0  0  0  0  0  0  0
   -1.9977    1.1370    7.0876 C   0  0  0  0  0  0  0  0  0  0  0  0
  1  2  1  0
  2  3  1  0
  3  4  1  0
  4  5  1  0
  3  6  1  0
  6  7  2  0
  6  8  1  0
  8  9  1  0
  9 10  1  0
 10 11  1  0
 11 12  1  0
 12 13  1  0
 13 14  1  0
 14 15  2  0
 15 16  1  0
 16 17  1  0
 17 18  2  0
 18 19  1  0
 19 20  2  0
 20 21  1  0
 21 22  2  0
 21 23  1  0
 23 24  2  0
 11 25  1  0
 24  9  1  0
 23 12  1  0
 22 14  1  0
 22 17  1  0
M  END
$$$$
