
     RDKit          3D

 25 28  0  0  0  0  0  0  0  0999 V2000
   -1.5090    3.2505   13.9938 C   0  0  0  0  0  0  0  0  0  0  0  0
   -1.7208    4.1978   12.8449 C   0  0  0  0  0  0  0  0  0  0  0  0
   -0.5085    4.5441   12.1767 N   0  0  0  0  0  0  0  0  0  0  0  0
    0.1335    5.8212   12.4311 C   0  0  0  0  0  0  0  0  0  0  0  0
   -0.7347    6.9896   12.1006 C   0  0  0  0  0  0  0  0  0  0  0  0
    0.0878    3.6484   11.2556 C   0  0  0  0  0  0  0  0  0  0  0  0
    1.1015    4.0145   10.5552 O   0  0  0  0  0  0  0  0  0  0  0  0
   -0.3354    2.3217   11.0095 N   0  0  0  0  0  0  0  0  0  0  0  0
    0.1206    1.5565    9.8551 C   0  0  0  0  0  0  0  0  0  0  0  0
   -0.3276    2.1922    8.5802 C   0  0  0  0  0  0  0  0  0  0  0  0
   -0.5565    1.2948    7.5060 N   0  0  0  0  0  0  0  0  0  0  0  0
    0.1257    0.0246    7.6275 C   0  0  0  0  0  0  0  0  0  0  0  0
   -0.0321   -0.7594    6.3882 C   0  0  0  0  0  0  0  0  0  0  0  0
   -0.4854   -2.1376    6.5595 C   0  0  0  0  0  0  0  0  0  0  0  0
   -0.6838   -3.1728    5.6758 C   0  0  0  0  0  0  0  0  0  0  0  0
   -1.1248   -4.2847    6.3582 N   0  0  0  0  0  0  0  0  0  0  0  0
   -1.2137   -3.9805    7.6724 C   0  0  0  0  0  0  0  0  0  0  0  0
   -1.5679   -4.5892    8.8550 C   0  0  0  0  0  0  0  0  0  0  0  0
   -1.5234   -3.9040   10.0628 C   0  0  0  0  0  0  0  0  0  0  0  0
   -1.1211   -2.5661   10.1602 C   0  0  0  0  0  0  0  0  0  0  0  0
   -0.7745   -1.9855    8.9675 C   0  0  0  0  0  0  0  0  0  0  0  0
   -0.8217   -2.6717    7.7784 C   0  0  0  0  0  0  0  0  0  0  0  0
   -0.3345   -0.6052    8.8876 C   0  0  0  0  0  0  0  0  0  0  0  0
   -0.3428    0.1262    9.9719 C   0  0  0  0  0  0  0  0  0  0  0  0
   -1.9513    1.1787    7.2300 C   0  0  0  0  0  0  0  0  0  0  0  0
  1  2  1  0
  2  3  1  0
  3  4  1  0
  4  5  1  0
  3  6  1  0
  6  7  2  0
  6  8  1  0
  8  9  1  0
  9 10  1  0
 10 11  1  0
 11 12  1  0
 12 13  1  0
 13 14  1  0
 14 15  2  0
 15 16  1  0
 16 17  1  0
 17 18  2  0
 18 19  1  0
 19 20  2  0
 20 21  1  0
 21 22  2  0
 21 23  1  0
 23 24  2  0
 11 25  1  0
 24  9  1  0
 23 12  1  0
 22 14  1  0
 22 17  1  0
M  END
$$$$
