
     RDKit          3D

 25 28  0  0  0  0  0  0  0  0999 V2000
    2.2338    4.4955   13.3403 C   0  0  0  0  0  0  0  0  0  0  0  0
    0.9347    5.1013   12.8845 C   0  0  0  0  0  0  0  0  0  0  0  0
    0.0353    4.1415   12.3314 N   0  0  0  0  0  0  0  0  0  0  0  0
   -1.3161    4.0164   12.8470 C   0  0  0  0  0  0  0  0  0  0  0  0
   -1.3888    3.2357   14.1172 C   0  0  0  0  0  0  0  0  0  0  0  0
    0.4458    3.2963   11.2715 C   0  0  0  0  0  0  0  0  0  0  0  0
    1.3272    3.6951   10.4253 O   0  0  0  0  0  0  0  0  0  0  0  0
   -0.0364    1.9889   11.0304 N   0  0  0  0  0  0  0  0  0  0  0  0
    0.3170    1.2328    9.8348 C   0  0  0  0  0  0  0  0  0  0  0  0
   -0.2074    1.8992    8.6053 C   0  0  0  0  0  0  0  0  0  0  0  0
   -0.5341    1.0248    7.5374 N   0  0  0  0  0  0  0  0  0  0  0  0
    0.1253   -0.2620    7.5903 C   0  0  0  0  0  0  0  0  0  0  0  0
   -0.1399   -1.0220    6.3544 C   0  0  0  0  0  0  0  0  0  0  0  0
   -0.6115   -2.3924    6.5378 C   0  0  0  0  0  0  0  0  0  0  0  0
   -0.8973   -3.4083    5.6557 C   0  0  0  0  0  0  0  0  0  0  0  0
   -1.3135   -4.5213    6.3518 N   0  0  0  0  0  0  0  0  0  0  0  0
   -1.3001   -4.2368    7.6733 C   0  0  0  0  0  0  0  0  0  0  0  0
   -1.5819   -4.8568    8.8694 C   0  0  0  0  0  0  0  0  0  0  0  0
   -1.4342   -4.1927   10.0808 C   0  0  0  0  0  0  0  0  0  0  0  0
   -0.9950   -2.8657   10.1685 C   0  0  0  0  0  0  0  0  0  0  0  0
   -0.7221   -2.2734    8.9624 C   0  0  0  0  0  0  0  0  0  0  0  0
   -0.8711   -2.9389    7.7700 C   0  0  0  0  0  0  0  0  0  0  0  0
   -0.2571   -0.9021    8.8711 C   0  0  0  0  0  0  0  0  0  0  0  0
   -0.1699   -0.1885    9.9638 C   0  0  0  0  0  0  0  0  0  0  0  0
   -1.9475    0.9441    7.3619 C   0  0  0  0  0  0  0  0  0  0  0  0
  1  2  1  0
  2  3  1  0
  3  4  1  0
  4  5  1  0
  3  6  1  0
  6  7  2  0
  6  8  1  0
  8  9  1  0
  9 10  1  0
 10 11  1  0
 11 12  1  0
 12 13  1  0
 13 14  1  0
 14 15  2  0
 15 16  1  0
 16 17  1  0
 17 18  2  0
 18 19  1  0
 19 20  2  0
 20 21  1  0
 21 22  2  0
 21 23  1  0
 23 24  2  0
 11 25  1  0
 24  9  1  0
 23 12  1  0
 22 14  1  0
 22 17  1  0
M  END
$$$$
