
     RDKit          3D

 25 28  0  0  0  0  0  0  0  0999 V2000
    0.2105    6.5295   11.5189 C   0  0  0  0  0  0  0  0  0  0  0  0
    0.4340    5.4789   12.5719 C   0  0  0  0  0  0  0  0  0  0  0  0
   -0.2798    4.2704   12.3145 N   0  0  0  0  0  0  0  0  0  0  0  0
   -1.5357    3.9991   12.9906 C   0  0  0  0  0  0  0  0  0  0  0  0
   -1.3542    3.4922   14.3828 C   0  0  0  0  0  0  0  0  0  0  0  0
    0.2246    3.3172   11.3963 C   0  0  0  0  0  0  0  0  0  0  0  0
    1.4632    3.3359   11.0535 O   0  0  0  0  0  0  0  0  0  0  0  0
   -0.5294    2.2907   10.7817 N   0  0  0  0  0  0  0  0  0  0  0  0
   -0.0001    1.4745    9.6955 C   0  0  0  0  0  0  0  0  0  0  0  0
   -0.3630    2.0511    8.3665 C   0  0  0  0  0  0  0  0  0  0  0  0
   -0.5227    1.1055    7.3214 N   0  0  0  0  0  0  0  0  0  0  0  0
    0.1481   -0.1569    7.5448 C   0  0  0  0  0  0  0  0  0  0  0  0
    0.0704   -0.9966    6.3348 C   0  0  0  0  0  0  0  0  0  0  0  0
   -0.3953   -2.3662    6.5384 C   0  0  0  0  0  0  0  0  0  0  0  0
   -0.5372   -3.4407    5.6916 C   0  0  0  0  0  0  0  0  0  0  0  0
   -1.0237   -4.5211    6.3934 N   0  0  0  0  0  0  0  0  0  0  0  0
   -1.1978   -4.1577    7.6838 C   0  0  0  0  0  0  0  0  0  0  0  0
   -1.6295   -4.7126    8.8672 C   0  0  0  0  0  0  0  0  0  0  0  0
   -1.6629   -3.9732   10.0429 C   0  0  0  0  0  0  0  0  0  0  0  0
   -1.2658   -2.6316   10.1057 C   0  0  0  0  0  0  0  0  0  0  0  0
   -0.8410   -2.1053    8.9130 C   0  0  0  0  0  0  0  0  0  0  0  0
   -0.8114   -2.8449    7.7558 C   0  0  0  0  0  0  0  0  0  0  0  0
   -0.3945   -0.7295    8.7995 C   0  0  0  0  0  0  0  0  0  0  0  0
   -0.4725    0.0504    9.8465 C   0  0  0  0  0  0  0  0  0  0  0  0
   -1.8966    0.9751    6.9604 C   0  0  0  0  0  0  0  0  0  0  0  0
  1  2  1  0
  2  3  1  0
  3  4  1  0
  4  5  1  0
  3  6  1  0
  6  7  2  0
  6  8  1  0
  8  9  1  0
  9 10  1  0
 10 11  1  0
 11 12  1  0
 12 13  1  0
 13 14  1  0
 14 15  2  0
 15 16  1  0
 16 17  1  0
 17 18  2  0
 18 19  1  0
 19 20  2  0
 20 21  1  0
 21 22  2  0
 21 23  1  0
 23 24  2  0
 11 25  1  0
 24  9  1  0
 23 12  1  0
 22 14  1  0
 22 17  1  0
M  END
$$$$
