
     RDKit          3D

 25 28  0  0  0  0  0  0  0  0999 V2000
   -2.3396    4.8651   12.9175 C   0  0  0  0  0  0  0  0  0  0  0  0
   -1.1441    4.0529   13.3340 C   0  0  0  0  0  0  0  0  0  0  0  0
    0.0153    4.3230   12.5473 N   0  0  0  0  0  0  0  0  0  0  0  0
    0.9077    5.4122   12.9013 C   0  0  0  0  0  0  0  0  0  0  0  0
    2.1626    4.9498   13.5642 C   0  0  0  0  0  0  0  0  0  0  0  0
    0.3142    3.5338   11.4098 C   0  0  0  0  0  0  0  0  0  0  0  0
    1.1371    3.9608   10.5196 O   0  0  0  0  0  0  0  0  0  0  0  0
   -0.2252    2.2564   11.1323 N   0  0  0  0  0  0  0  0  0  0  0  0
    0.0888    1.5229    9.9118 C   0  0  0  0  0  0  0  0  0  0  0  0
   -0.4883    2.2037    8.7143 C   0  0  0  0  0  0  0  0  0  0  0  0
   -0.8480    1.3434    7.6456 N   0  0  0  0  0  0  0  0  0  0  0  0
   -0.1755    0.0623    7.6522 C   0  0  0  0  0  0  0  0  0  0  0  0
   -0.4812   -0.6803    6.4151 C   0  0  0  0  0  0  0  0  0  0  0  0
   -0.9332   -2.0579    6.5940 C   0  0  0  0  0  0  0  0  0  0  0  0
   -1.2436   -3.0623    5.7071 C   0  0  0  0  0  0  0  0  0  0  0  0
   -1.6229   -4.1902    6.4004 N   0  0  0  0  0  0  0  0  0  0  0  0
   -1.5613   -3.9267    7.7249 C   0  0  0  0  0  0  0  0  0  0  0  0
   -1.7914   -4.5684    8.9206 C   0  0  0  0  0  0  0  0  0  0  0  0
   -1.6033   -3.9223   10.1361 C   0  0  0  0  0  0  0  0  0  0  0  0
   -1.1728   -2.5928   10.2286 C   0  0  0  0  0  0  0  0  0  0  0  0
   -0.9517   -1.9787    9.0228 C   0  0  0  0  0  0  0  0  0  0  0  0
   -1.1404   -2.6265    7.8262 C   0  0  0  0  0  0  0  0  0  0  0  0
   -0.5028   -0.6018    8.9361 C   0  0  0  0  0  0  0  0  0  0  0  0
   -0.3801    0.0950   10.0362 C   0  0  0  0  0  0  0  0  0  0  0  0
   -2.2663    1.2521    7.5229 C   0  0  0  0  0  0  0  0  0  0  0  0
  1  2  1  0
  2  3  1  0
  3  4  1  0
  4  5  1  0
  3  6  1  0
  6  7  2  0
  6  8  1  0
  8  9  1  0
  9 10  1  0
 10 11  1  0
 11 12  1  0
 12 13  1  0
 13 14  1  0
 14 15  2  0
 15 16  1  0
 16 17  1  0
 17 18  2  0
 18 19  1  0
 19 20  2  0
 20 21  1  0
 21 22  2  0
 21 23  1  0
 23 24  2  0
 11 25  1  0
 24  9  1  0
 23 12  1  0
 22 14  1  0
 22 17  1  0
M  END
$$$$
