
     RDKit          3D

 25 28  0  0  0  0  0  0  0  0999 V2000
    0.4654    3.0331   15.2469 C   0  0  0  0  0  0  0  0  0  0  0  0
   -0.3805    3.5539   14.1176 C   0  0  0  0  0  0  0  0  0  0  0  0
    0.3861    4.1765   13.0876 N   0  0  0  0  0  0  0  0  0  0  0  0
    0.7998    5.5625   13.2135 C   0  0  0  0  0  0  0  0  0  0  0  0
    2.2544    5.7150   13.5120 C   0  0  0  0  0  0  0  0  0  0  0  0
    0.7555    3.4534   11.9271 C   0  0  0  0  0  0  0  0  0  0  0  0
    1.4510    4.0157   11.0040 O   0  0  0  0  0  0  0  0  0  0  0  0
    0.4231    2.1052   11.6596 N   0  0  0  0  0  0  0  0  0  0  0  0
    0.5580    1.5145   10.3333 C   0  0  0  0  0  0  0  0  0  0  0  0
   -0.1637    2.3275    9.3091 C   0  0  0  0  0  0  0  0  0  0  0  0
   -0.6780    1.5943    8.2093 N   0  0  0  0  0  0  0  0  0  0  0  0
   -0.0319    0.3200    7.9808 C   0  0  0  0  0  0  0  0  0  0  0  0
   -0.5134   -0.2771    6.7211 C   0  0  0  0  0  0  0  0  0  0  0  0
   -0.9598   -1.6656    6.8038 C   0  0  0  0  0  0  0  0  0  0  0  0
   -1.4032   -2.5626    5.8600 C   0  0  0  0  0  0  0  0  0  0  0  0
   -1.7042   -3.7614    6.4673 N   0  0  0  0  0  0  0  0  0  0  0  0
   -1.4607   -3.6500    7.7923 C   0  0  0  0  0  0  0  0  0  0  0  0
   -1.5383   -4.4229    8.9285 C   0  0  0  0  0  0  0  0  0  0  0  0
   -1.1778   -3.9191   10.1721 C   0  0  0  0  0  0  0  0  0  0  0  0
   -0.7171   -2.6091   10.3541 C   0  0  0  0  0  0  0  0  0  0  0  0
   -0.6501   -1.8625    9.2060 C   0  0  0  0  0  0  0  0  0  0  0  0
   -1.0087   -2.3701    7.9810 C   0  0  0  0  0  0  0  0  0  0  0  0
   -0.1944   -0.4851    9.2145 C   0  0  0  0  0  0  0  0  0  0  0  0
    0.0866    0.0823   10.3590 C   0  0  0  0  0  0  0  0  0  0  0  0
   -2.1013    1.5190    8.2705 C   0  0  0  0  0  0  0  0  0  0  0  0
  1  2  1  0
  2  3  1  0
  3  4  1  0
  4  5  1  0
  3  6  1  0
  6  7  2  0
  6  8  1  0
  8  9  1  0
  9 10  1  0
 10 11  1  0
 11 12  1  0
 12 13  1  0
 13 14  1  0
 14 15  2  0
 15 16  1  0
 16 17  1  0
 17 18  2  0
 18 19  1  0
 19 20  2  0
 20 21  1  0
 21 22  2  0
 21 23  1  0
 23 24  2  0
 11 25  1  0
 24  9  1  0
 23 12  1  0
 22 14  1  0
 22 17  1  0
M  END
$$$$
