
     RDKit          3D

 25 28  0  0  0  0  0  0  0  0999 V2000
   -0.8230    7.0945    7.1547 C   0  0  0  0  0  0  0  0  0  0  0  0
    0.3146    6.1529    7.4401 C   0  0  0  0  0  0  0  0  0  0  0  0
    0.3407    5.7038    8.7942 N   0  0  0  0  0  0  0  0  0  0  0  0
    1.1186    6.4170    9.7914 C   0  0  0  0  0  0  0  0  0  0  0  0
    0.3264    7.4472   10.5258 C   0  0  0  0  0  0  0  0  0  0  0  0
   -0.3910    4.5565    9.1872 C   0  0  0  0  0  0  0  0  0  0  0  0
   -1.1859    4.6057   10.1960 O   0  0  0  0  0  0  0  0  0  0  0  0
   -0.3381    3.2928    8.5548 N   0  0  0  0  0  0  0  0  0  0  0  0
   -0.8880    2.0885    9.1658 C   0  0  0  0  0  0  0  0  0  0  0  0
   -0.2459    1.8171   10.4867 C   0  0  0  0  0  0  0  0  0  0  0  0
   -0.1612    0.4478   10.8467 N   0  0  0  0  0  0  0  0  0  0  0  0
   -1.1084   -0.4118   10.1704 C   0  0  0  0  0  0  0  0  0  0  0  0
   -1.0596   -1.7715   10.7396 C   0  0  0  0  0  0  0  0  0  0  0  0
   -0.9261   -2.8613    9.7760 C   0  0  0  0  0  0  0  0  0  0  0  0
   -0.9110   -4.2302    9.9094 C   0  0  0  0  0  0  0  0  0  0  0  0
   -0.7585   -4.8135    8.6713 N   0  0  0  0  0  0  0  0  0  0  0  0
   -0.6749   -3.8379    7.7392 C   0  0  0  0  0  0  0  0  0  0  0  0
   -0.5241   -3.7174    6.3764 C   0  0  0  0  0  0  0  0  0  0  0  0
   -0.4823   -2.4726    5.7607 C   0  0  0  0  0  0  0  0  0  0  0  0
   -0.5889   -1.2714    6.4727 C   0  0  0  0  0  0  0  0  0  0  0  0
   -0.7380   -1.4216    7.8274 C   0  0  0  0  0  0  0  0  0  0  0  0
   -0.7785   -2.6570    8.4266 C   0  0  0  0  0  0  0  0  0  0  0  0
   -0.8628   -0.2805    8.7147 C   0  0  0  0  0  0  0  0  0  0  0  0
   -0.7530    0.9241    8.2171 C   0  0  0  0  0  0  0  0  0  0  0  0
    1.1876   -0.0119   10.7805 C   0  0  0  0  0  0  0  0  0  0  0  0
  1  2  1  0
  2  3  1  0
  3  4  1  0
  4  5  1  0
  3  6  1  0
  6  7  2  0
  6  8  1  0
  8  9  1  0
  9 10  1  0
 10 11  1  0
 11 12  1  0
 12 13  1  0
 13 14  1  0
 14 15  2  0
 15 16  1  0
 16 17  1  0
 17 18  2  0
 18 19  1  0
 19 20  2  0
 20 21  1  0
 21 22  2  0
 21 23  1  0
 23 24  2  0
 11 25  1  0
 24  9  1  0
 23 12  1  0
 22 14  1  0
 22 17  1  0
M  END
$$$$
