
     RDKit          3D

 25 28  0  0  0  0  0  0  0  0999 V2000
    1.3632    4.5825   13.9129 C   0  0  0  0  0  0  0  0  0  0  0  0
    0.9279    5.2479   12.6362 C   0  0  0  0  0  0  0  0  0  0  0  0
   -0.0416    4.4895   11.9144 N   0  0  0  0  0  0  0  0  0  0  0  0
   -1.4599    4.7073   12.1354 C   0  0  0  0  0  0  0  0  0  0  0  0
   -2.0413    5.7445   11.2330 C   0  0  0  0  0  0  0  0  0  0  0  0
    0.3634    3.5133   10.9714 C   0  0  0  0  0  0  0  0  0  0  0  0
    1.5903    3.4417   10.5952 O   0  0  0  0  0  0  0  0  0  0  0  0
   -0.4833    2.5564   10.3655 N   0  0  0  0  0  0  0  0  0  0  0  0
   -0.0145    1.6388    9.3337 C   0  0  0  0  0  0  0  0  0  0  0  0
   -0.3806    2.1319    7.9723 C   0  0  0  0  0  0  0  0  0  0  0  0
   -0.6047    1.1201    7.0039 N   0  0  0  0  0  0  0  0  0  0  0  0
    0.0141   -0.1518    7.3085 C   0  0  0  0  0  0  0  0  0  0  0  0
   -0.1272   -1.0741    6.1662 C   0  0  0  0  0  0  0  0  0  0  0  0
   -0.6485   -2.4021    6.4802 C   0  0  0  0  0  0  0  0  0  0  0  0
   -0.8564   -3.5286    5.7187 C   0  0  0  0  0  0  0  0  0  0  0  0
   -1.3748   -4.5309    6.5082 N   0  0  0  0  0  0  0  0  0  0  0  0
   -1.5044   -4.0656    7.7709 C   0  0  0  0  0  0  0  0  0  0  0  0
   -1.9343   -4.5113    9.0001 C   0  0  0  0  0  0  0  0  0  0  0  0
   -1.9092   -3.6864   10.1178 C   0  0  0  0  0  0  0  0  0  0  0  0
   -1.4517   -2.3635   10.0728 C   0  0  0  0  0  0  0  0  0  0  0  0
   -1.0301   -1.9466    8.8365 C   0  0  0  0  0  0  0  0  0  0  0  0
   -1.0587   -2.7702    7.7374 C   0  0  0  0  0  0  0  0  0  0  0  0
   -0.5258   -0.6049    8.6123 C   0  0  0  0  0  0  0  0  0  0  0  0
   -0.5462    0.2529    9.5994 C   0  0  0  0  0  0  0  0  0  0  0  0
   -1.9907    1.0265    6.6792 C   0  0  0  0  0  0  0  0  0  0  0  0
  1  2  1  0
  2  3  1  0
  3  4  1  0
  4  5  1  0
  3  6  1  0
  6  7  2  0
  6  8  1  0
  8  9  1  0
  9 10  1  0
 10 11  1  0
 11 12  1  0
 12 13  1  0
 13 14  1  0
 14 15  2  0
 15 16  1  0
 16 17  1  0
 17 18  2  0
 18 19  1  0
 19 20  2  0
 20 21  1  0
 21 22  2  0
 21 23  1  0
 23 24  2  0
 11 25  1  0
 24  9  1  0
 23 12  1  0
 22 14  1  0
 22 17  1  0
M  END
$$$$
