
     RDKit          3D

 25 28  0  0  0  0  0  0  0  0999 V2000
   -2.0711    4.1663   13.6421 C   0  0  0  0  0  0  0  0  0  0  0  0
   -1.5717    4.5988   12.2909 C   0  0  0  0  0  0  0  0  0  0  0  0
   -0.1922    4.2986   12.0838 N   0  0  0  0  0  0  0  0  0  0  0  0
    0.8339    4.9916   12.8421 C   0  0  0  0  0  0  0  0  0  0  0  0
    1.4567    6.1204   12.0898 C   0  0  0  0  0  0  0  0  0  0  0  0
    0.1982    3.3207   11.1364 C   0  0  0  0  0  0  0  0  0  0  0  0
    1.4427    3.1108   10.8931 O   0  0  0  0  0  0  0  0  0  0  0  0
   -0.6821    2.5057   10.3877 N   0  0  0  0  0  0  0  0  0  0  0  0
   -0.2081    1.5448    9.3988 C   0  0  0  0  0  0  0  0  0  0  0  0
   -0.5770    1.9730    8.0163 C   0  0  0  0  0  0  0  0  0  0  0  0
   -0.7954    0.9168    7.0952 N   0  0  0  0  0  0  0  0  0  0  0  0
   -0.1691   -0.3363    7.4574 C   0  0  0  0  0  0  0  0  0  0  0  0
   -0.3051   -1.3105    6.3584 C   0  0  0  0  0  0  0  0  0  0  0  0
   -0.8188   -2.6258    6.7328 C   0  0  0  0  0  0  0  0  0  0  0  0
   -1.0202   -3.7870    6.0236 C   0  0  0  0  0  0  0  0  0  0  0  0
   -1.5327   -4.7552    6.8582 N   0  0  0  0  0  0  0  0  0  0  0  0
   -1.6650   -4.2336    8.0983 C   0  0  0  0  0  0  0  0  0  0  0  0
   -2.0923   -4.6252    9.3467 C   0  0  0  0  0  0  0  0  0  0  0  0
   -2.0719   -3.7500   10.4256 C   0  0  0  0  0  0  0  0  0  0  0  0
   -1.6221   -2.4279   10.3201 C   0  0  0  0  0  0  0  0  0  0  0  0
   -1.2030   -2.0655    9.0660 C   0  0  0  0  0  0  0  0  0  0  0  0
   -1.2268   -2.9385    8.0056 C   0  0  0  0  0  0  0  0  0  0  0  0
   -0.7064   -0.7324    8.7806 C   0  0  0  0  0  0  0  0  0  0  0  0
   -0.7317    0.1694    9.7276 C   0  0  0  0  0  0  0  0  0  0  0  0
   -2.1807    0.8005    6.7755 C   0  0  0  0  0  0  0  0  0  0  0  0
  1  2  1  0
  2  3  1  0
  3  4  1  0
  4  5  1  0
  3  6  1  0
  6  7  2  0
  6  8  1  0
  8  9  1  0
  9 10  1  0
 10 11  1  0
 11 12  1  0
 12 13  1  0
 13 14  1  0
 14 15  2  0
 15 16  1  0
 16 17  1  0
 17 18  2  0
 18 19  1  0
 19 20  2  0
 20 21  1  0
 21 22  2  0
 21 23  1  0
 23 24  2  0
 11 25  1  0
 24  9  1  0
 23 12  1  0
 22 14  1  0
 22 17  1  0
M  END
$$$$
