
     RDKit          3D

 25 28  0  0  0  0  0  0  0  0999 V2000
    0.3836    6.5803    9.6983 C   0  0  0  0  0  0  0  0  0  0  0  0
   -0.2798    6.6978    8.3535 C   0  0  0  0  0  0  0  0  0  0  0  0
   -0.4489    5.4390    7.7030 N   0  0  0  0  0  0  0  0  0  0  0  0
   -0.2815    5.3249    6.2653 C   0  0  0  0  0  0  0  0  0  0  0  0
    0.8923    6.0892    5.7495 C   0  0  0  0  0  0  0  0  0  0  0  0
   -0.7820    4.2817    8.4485 C   0  0  0  0  0  0  0  0  0  0  0  0
   -1.2904    4.3890    9.6241 O   0  0  0  0  0  0  0  0  0  0  0  0
   -0.6057    2.9472    8.0151 N   0  0  0  0  0  0  0  0  0  0  0  0
   -1.0618    1.8040    8.7969 C   0  0  0  0  0  0  0  0  0  0  0  0
   -0.3385    1.7243   10.1011 C   0  0  0  0  0  0  0  0  0  0  0  0
   -0.1666    0.4143   10.6170 N   0  0  0  0  0  0  0  0  0  0  0  0
   -1.1037   -0.5618   10.1046 C   0  0  0  0  0  0  0  0  0  0  0  0
   -0.9572   -1.8383   10.8287 C   0  0  0  0  0  0  0  0  0  0  0  0
   -0.8200   -3.0310    9.9964 C   0  0  0  0  0  0  0  0  0  0  0  0
   -0.7294   -4.3713   10.2916 C   0  0  0  0  0  0  0  0  0  0  0  0
   -0.6131   -5.0945    9.1254 N   0  0  0  0  0  0  0  0  0  0  0  0
   -0.6275   -4.2376    8.0800 C   0  0  0  0  0  0  0  0  0  0  0  0
   -0.5546   -4.2781    6.7061 C   0  0  0  0  0  0  0  0  0  0  0  0
   -0.6075   -3.1174    5.9444 C   0  0  0  0  0  0  0  0  0  0  0  0
   -0.7366   -1.8438    6.5126 C   0  0  0  0  0  0  0  0  0  0  0  0
   -0.8067   -1.8336    7.8818 C   0  0  0  0  0  0  0  0  0  0  0  0
   -0.7538   -2.9870    8.6260 C   0  0  0  0  0  0  0  0  0  0  0  0
   -0.9418   -0.5990    8.6319 C   0  0  0  0  0  0  0  0  0  0  0  0
   -0.9186    0.5393    7.9881 C   0  0  0  0  0  0  0  0  0  0  0  0
    1.1982    0.0088   10.5279 C   0  0  0  0  0  0  0  0  0  0  0  0
  1  2  1  0
  2  3  1  0
  3  4  1  0
  4  5  1  0
  3  6  1  0
  6  7  2  0
  6  8  1  0
  8  9  1  0
  9 10  1  0
 10 11  1  0
 11 12  1  0
 12 13  1  0
 13 14  1  0
 14 15  2  0
 15 16  1  0
 16 17  1  0
 17 18  2  0
 18 19  1  0
 19 20  2  0
 20 21  1  0
 21 22  2  0
 21 23  1  0
 23 24  2  0
 11 25  1  0
 24  9  1  0
 23 12  1  0
 22 14  1  0
 22 17  1  0
M  END
$$$$
