
     RDKit          3D

 25 28  0  0  0  0  0  0  0  0999 V2000
   -1.4407    3.5712   14.1136 C   0  0  0  0  0  0  0  0  0  0  0  0
   -0.9323    4.4791   13.0276 C   0  0  0  0  0  0  0  0  0  0  0  0
    0.3560    4.1025   12.5433 N   0  0  0  0  0  0  0  0  0  0  0  0
    1.5501    4.4159   13.3074 C   0  0  0  0  0  0  0  0  0  0  0  0
    2.3096    5.5774   12.7577 C   0  0  0  0  0  0  0  0  0  0  0  0
    0.4907    3.4175   11.3109 C   0  0  0  0  0  0  0  0  0  0  0  0
    1.0455    3.9925   10.3041 O   0  0  0  0  0  0  0  0  0  0  0  0
    0.0563    2.0964   11.0543 N   0  0  0  0  0  0  0  0  0  0  0  0
    0.3491    1.4054    9.8042 C   0  0  0  0  0  0  0  0  0  0  0  0
   -0.2517    2.1247    8.6413 C   0  0  0  0  0  0  0  0  0  0  0  0
   -0.6293    1.3000    7.5510 N   0  0  0  0  0  0  0  0  0  0  0  0
    0.0460    0.0213    7.5018 C   0  0  0  0  0  0  0  0  0  0  0  0
   -0.2810   -0.6800    6.2461 C   0  0  0  0  0  0  0  0  0  0  0  0
   -0.7265   -2.0641    6.3867 C   0  0  0  0  0  0  0  0  0  0  0  0
   -1.0512   -3.0389    5.4722 C   0  0  0  0  0  0  0  0  0  0  0  0
   -1.4150   -4.1905    6.1338 N   0  0  0  0  0  0  0  0  0  0  0  0
   -1.3293   -3.9718    7.4651 C   0  0  0  0  0  0  0  0  0  0  0  0
   -1.5357   -4.6541    8.6425 C   0  0  0  0  0  0  0  0  0  0  0  0
   -1.3264   -4.0490    9.8755 C   0  0  0  0  0  0  0  0  0  0  0  0
   -0.8973   -2.7221   10.0049 C   0  0  0  0  0  0  0  0  0  0  0  0
   -0.7000   -2.0671    8.8166 C   0  0  0  0  0  0  0  0  0  0  0  0
   -0.9095   -2.6746    7.6025 C   0  0  0  0  0  0  0  0  0  0  0  0
   -0.2559   -0.6867    8.7683 C   0  0  0  0  0  0  0  0  0  0  0  0
   -0.1143   -0.0271    9.8888 C   0  0  0  0  0  0  0  0  0  0  0  0
   -2.0495    1.2088    7.4516 C   0  0  0  0  0  0  0  0  0  0  0  0
  1  2  1  0
  2  3  1  0
  3  4  1  0
  4  5  1  0
  3  6  1  0
  6  7  2  0
  6  8  1  0
  8  9  1  0
  9 10  1  0
 10 11  1  0
 11 12  1  0
 12 13  1  0
 13 14  1  0
 14 15  2  0
 15 16  1  0
 16 17  1  0
 17 18  2  0
 18 19  1  0
 19 20  2  0
 20 21  1  0
 21 22  2  0
 21 23  1  0
 23 24  2  0
 11 25  1  0
 24  9  1  0
 23 12  1  0
 22 14  1  0
 22 17  1  0
M  END
$$$$
