
     RDKit          3D

 25 28  0  0  0  0  0  0  0  0999 V2000
    2.0031    5.6896   12.3089 C   0  0  0  0  0  0  0  0  0  0  0  0
    1.2599    4.6553   13.1090 C   0  0  0  0  0  0  0  0  0  0  0  0
    0.2505    3.9859   12.3545 N   0  0  0  0  0  0  0  0  0  0  0  0
   -1.1452    4.3593   12.4983 C   0  0  0  0  0  0  0  0  0  0  0  0
   -1.7461    3.8972   13.7842 C   0  0  0  0  0  0  0  0  0  0  0  0
    0.5932    2.9477   11.4541 C   0  0  0  0  0  0  0  0  0  0  0  0
    1.8124    2.5550   11.3475 O   0  0  0  0  0  0  0  0  0  0  0  0
   -0.3110    2.2587   10.6130 N   0  0  0  0  0  0  0  0  0  0  0  0
    0.1347    1.3806    9.5377 C   0  0  0  0  0  0  0  0  0  0  0  0
   -0.2504    1.9300    8.2034 C   0  0  0  0  0  0  0  0  0  0  0  0
   -0.4971    0.9593    7.1991 N   0  0  0  0  0  0  0  0  0  0  0  0
    0.1184   -0.3275    7.4422 C   0  0  0  0  0  0  0  0  0  0  0  0
   -0.0477   -1.2023    6.2664 C   0  0  0  0  0  0  0  0  0  0  0  0
   -0.5725   -2.5387    6.5356 C   0  0  0  0  0  0  0  0  0  0  0  0
   -0.8003   -3.6325    5.7332 C   0  0  0  0  0  0  0  0  0  0  0  0
   -1.3122   -4.6626    6.4904 N   0  0  0  0  0  0  0  0  0  0  0  0
   -1.4180   -4.2476    7.7727 C   0  0  0  0  0  0  0  0  0  0  0  0
   -1.8306   -4.7398    8.9901 C   0  0  0  0  0  0  0  0  0  0  0  0
   -1.7817   -3.9606   10.1393 C   0  0  0  0  0  0  0  0  0  0  0  0
   -1.3164   -2.6397   10.1397 C   0  0  0  0  0  0  0  0  0  0  0  0
   -0.9124   -2.1760    8.9142 C   0  0  0  0  0  0  0  0  0  0  0  0
   -0.9645   -2.9546    7.7837 C   0  0  0  0  0  0  0  0  0  0  0  0
   -0.4030   -0.8293    8.7356 C   0  0  0  0  0  0  0  0  0  0  0  0
   -0.4016   -0.0117    9.7565 C   0  0  0  0  0  0  0  0  0  0  0  0
   -1.8887    0.8869    6.8940 C   0  0  0  0  0  0  0  0  0  0  0  0
  1  2  1  0
  2  3  1  0
  3  4  1  0
  4  5  1  0
  3  6  1  0
  6  7  2  0
  6  8  1  0
  8  9  1  0
  9 10  1  0
 10 11  1  0
 11 12  1  0
 12 13  1  0
 13 14  1  0
 14 15  2  0
 15 16  1  0
 16 17  1  0
 17 18  2  0
 18 19  1  0
 19 20  2  0
 20 21  1  0
 21 22  2  0
 21 23  1  0
 23 24  2  0
 11 25  1  0
 24  9  1  0
 23 12  1  0
 22 14  1  0
 22 17  1  0
M  END
$$$$
