
     RDKit          3D

 25 28  0  0  0  0  0  0  0  0999 V2000
   -1.8677    4.2941   13.7478 C   0  0  0  0  0  0  0  0  0  0  0  0
   -1.8877    4.4129   12.2486 C   0  0  0  0  0  0  0  0  0  0  0  0
   -0.5920    4.6210   11.6882 N   0  0  0  0  0  0  0  0  0  0  0  0
    0.0333    5.9301   11.7457 C   0  0  0  0  0  0  0  0  0  0  0  0
    1.0134    6.0628   12.8637 C   0  0  0  0  0  0  0  0  0  0  0  0
    0.1045    3.5552   11.0677 C   0  0  0  0  0  0  0  0  0  0  0  0
    1.3375    3.6919   10.7315 O   0  0  0  0  0  0  0  0  0  0  0  0
   -0.4405    2.2869   10.7608 N   0  0  0  0  0  0  0  0  0  0  0  0
    0.0560    1.4671    9.6619 C   0  0  0  0  0  0  0  0  0  0  0  0
   -0.3534    2.0351    8.3427 C   0  0  0  0  0  0  0  0  0  0  0  0
   -0.5434    1.0833    7.3085 N   0  0  0  0  0  0  0  0  0  0  0  0
    0.1399   -0.1751    7.5160 C   0  0  0  0  0  0  0  0  0  0  0  0
    0.0257   -1.0216    6.3136 C   0  0  0  0  0  0  0  0  0  0  0  0
   -0.4269   -2.3920    6.5397 C   0  0  0  0  0  0  0  0  0  0  0  0
   -0.5922   -3.4717    5.7037 C   0  0  0  0  0  0  0  0  0  0  0  0
   -1.0503   -4.5503    6.4269 N   0  0  0  0  0  0  0  0  0  0  0  0
   -1.1832   -4.1807    7.7205 C   0  0  0  0  0  0  0  0  0  0  0  0
   -1.5729   -4.7311    8.9203 C   0  0  0  0  0  0  0  0  0  0  0  0
   -1.5706   -3.9856   10.0927 C   0  0  0  0  0  0  0  0  0  0  0  0
   -1.1774   -2.6420   10.1352 C   0  0  0  0  0  0  0  0  0  0  0  0
   -0.7947   -2.1203    8.9264 C   0  0  0  0  0  0  0  0  0  0  0  0
   -0.8003   -2.8660    7.7727 C   0  0  0  0  0  0  0  0  0  0  0  0
   -0.3583   -0.7433    8.7909 C   0  0  0  0  0  0  0  0  0  0  0  0
   -0.4049    0.0419    9.8360 C   0  0  0  0  0  0  0  0  0  0  0  0
   -1.9280    0.9452    6.9939 C   0  0  0  0  0  0  0  0  0  0  0  0
  1  2  1  0
  2  3  1  0
  3  4  1  0
  4  5  1  0
  3  6  1  0
  6  7  2  0
  6  8  1  0
  8  9  1  0
  9 10  1  0
 10 11  1  0
 11 12  1  0
 12 13  1  0
 13 14  1  0
 14 15  2  0
 15 16  1  0
 16 17  1  0
 17 18  2  0
 18 19  1  0
 19 20  2  0
 20 21  1  0
 21 22  2  0
 21 23  1  0
 23 24  2  0
 11 25  1  0
 24  9  1  0
 23 12  1  0
 22 14  1  0
 22 17  1  0
M  END
$$$$
