
     RDKit          3D

 25 28  0  0  0  0  0  0  0  0999 V2000
   -0.8022    3.4525   14.5510 C   0  0  0  0  0  0  0  0  0  0  0  0
   -0.7990    4.1584   13.2228 C   0  0  0  0  0  0  0  0  0  0  0  0
    0.4985    4.2329   12.6338 N   0  0  0  0  0  0  0  0  0  0  0  0
    1.4618    5.2156   13.0967 C   0  0  0  0  0  0  0  0  0  0  0  0
    1.4710    6.4604   12.2729 C   0  0  0  0  0  0  0  0  0  0  0  0
    0.8675    3.3502   11.5894 C   0  0  0  0  0  0  0  0  0  0  0  0
    1.9915    3.4937   10.9827 O   0  0  0  0  0  0  0  0  0  0  0  0
    0.0896    2.2685   11.1155 N   0  0  0  0  0  0  0  0  0  0  0  0
    0.4423    1.5171    9.9167 C   0  0  0  0  0  0  0  0  0  0  0  0
   -0.0649    2.1993    8.6887 C   0  0  0  0  0  0  0  0  0  0  0  0
   -0.3947    1.3372    7.6118 N   0  0  0  0  0  0  0  0  0  0  0  0
    0.2484    0.0419    7.6595 C   0  0  0  0  0  0  0  0  0  0  0  0
   -0.0172   -0.7052    6.4159 C   0  0  0  0  0  0  0  0  0  0  0  0
   -0.5071   -2.0710    6.5853 C   0  0  0  0  0  0  0  0  0  0  0  0
   -0.7991   -3.0766    5.6934 C   0  0  0  0  0  0  0  0  0  0  0  0
   -1.2341   -4.1896    6.3780 N   0  0  0  0  0  0  0  0  0  0  0  0
   -1.2267   -3.9153    7.7017 C   0  0  0  0  0  0  0  0  0  0  0  0
   -1.5248   -4.5409    8.8910 C   0  0  0  0  0  0  0  0  0  0  0  0
   -1.3777   -3.8878   10.1084 C   0  0  0  0  0  0  0  0  0  0  0  0
   -0.9227   -2.5671   10.2095 C   0  0  0  0  0  0  0  0  0  0  0  0
   -0.6338   -1.9692    9.0100 C   0  0  0  0  0  0  0  0  0  0  0  0
   -0.7823   -2.6236    7.8114 C   0  0  0  0  0  0  0  0  0  0  0  0
   -0.1512   -0.6031    8.9326 C   0  0  0  0  0  0  0  0  0  0  0  0
   -0.0631    0.1010   10.0313 C   0  0  0  0  0  0  0  0  0  0  0  0
   -1.8077    1.2754    7.4255 C   0  0  0  0  0  0  0  0  0  0  0  0
  1  2  1  0
  2  3  1  0
  3  4  1  0
  4  5  1  0
  3  6  1  0
  6  7  2  0
  6  8  1  0
  8  9  1  0
  9 10  1  0
 10 11  1  0
 11 12  1  0
 12 13  1  0
 13 14  1  0
 14 15  2  0
 15 16  1  0
 16 17  1  0
 17 18  2  0
 18 19  1  0
 19 20  2  0
 20 21  1  0
 21 22  2  0
 21 23  1  0
 23 24  2  0
 11 25  1  0
 24  9  1  0
 23 12  1  0
 22 14  1  0
 22 17  1  0
M  END
$$$$
