
     RDKit          3D

 25 28  0  0  0  0  0  0  0  0999 V2000
   -1.3324    5.7205   11.9069 C   0  0  0  0  0  0  0  0  0  0  0  0
   -0.9380    4.6026   12.8327 C   0  0  0  0  0  0  0  0  0  0  0  0
    0.3867    4.1261   12.5993 N   0  0  0  0  0  0  0  0  0  0  0  0
    1.4521    4.4232   13.5398 C   0  0  0  0  0  0  0  0  0  0  0  0
    2.4110    5.4493   13.0341 C   0  0  0  0  0  0  0  0  0  0  0  0
    0.6833    3.3564   11.4479 C   0  0  0  0  0  0  0  0  0  0  0  0
    1.6118    3.7259   10.6397 O   0  0  0  0  0  0  0  0  0  0  0  0
    0.0317    2.1594   11.0705 N   0  0  0  0  0  0  0  0  0  0  0  0
    0.3879    1.4215    9.8644 C   0  0  0  0  0  0  0  0  0  0  0  0
   -0.1183    2.1159    8.6428 C   0  0  0  0  0  0  0  0  0  0  0  0
   -0.4446    1.2647    7.5562 N   0  0  0  0  0  0  0  0  0  0  0  0
    0.2007   -0.0299    7.5912 C   0  0  0  0  0  0  0  0  0  0  0  0
   -0.0614   -0.7642    6.3392 C   0  0  0  0  0  0  0  0  0  0  0  0
   -0.5491   -2.1326    6.4932 C   0  0  0  0  0  0  0  0  0  0  0  0
   -0.8377   -3.1291    5.5902 C   0  0  0  0  0  0  0  0  0  0  0  0
   -1.2720   -4.2500    6.2620 N   0  0  0  0  0  0  0  0  0  0  0  0
   -1.2675   -3.9899    7.5886 C   0  0  0  0  0  0  0  0  0  0  0  0
   -1.5666   -4.6286    8.7706 C   0  0  0  0  0  0  0  0  0  0  0  0
   -1.4228   -3.9884    9.9952 C   0  0  0  0  0  0  0  0  0  0  0  0
   -0.9704   -2.6680   10.1111 C   0  0  0  0  0  0  0  0  0  0  0  0
   -0.6803   -2.0568    8.9186 C   0  0  0  0  0  0  0  0  0  0  0  0
   -0.8256   -2.6987    7.7128 C   0  0  0  0  0  0  0  0  0  0  0  0
   -0.2000   -0.6891    8.8566 C   0  0  0  0  0  0  0  0  0  0  0  0
   -0.1152    0.0034    9.9630 C   0  0  0  0  0  0  0  0  0  0  0  0
   -1.8572    1.2025    7.3667 C   0  0  0  0  0  0  0  0  0  0  0  0
  1  2  1  0
  2  3  1  0
  3  4  1  0
  4  5  1  0
  3  6  1  0
  6  7  2  0
  6  8  1  0
  8  9  1  0
  9 10  1  0
 10 11  1  0
 11 12  1  0
 12 13  1  0
 13 14  1  0
 14 15  2  0
 15 16  1  0
 16 17  1  0
 17 18  2  0
 18 19  1  0
 19 20  2  0
 20 21  1  0
 21 22  2  0
 21 23  1  0
 23 24  2  0
 11 25  1  0
 24  9  1  0
 23 12  1  0
 22 14  1  0
 22 17  1  0
M  END
$$$$
