
     RDKit          3D

 25 28  0  0  0  0  0  0  0  0999 V2000
    2.8031    5.0323   11.3566 C   0  0  0  0  0  0  0  0  0  0  0  0
    2.1102    5.2595   10.0411 C   0  0  0  0  0  0  0  0  0  0  0  0
    0.6972    5.4082   10.1733 N   0  0  0  0  0  0  0  0  0  0  0  0
    0.0971    6.7295   10.2193 C   0  0  0  0  0  0  0  0  0  0  0  0
   -0.1309    7.3169    8.8661 C   0  0  0  0  0  0  0  0  0  0  0  0
   -0.1420    4.2706   10.2616 C   0  0  0  0  0  0  0  0  0  0  0  0
   -1.1216    4.2477   11.0934 O   0  0  0  0  0  0  0  0  0  0  0  0
   -0.0109    3.0921    9.4911 N   0  0  0  0  0  0  0  0  0  0  0  0
   -0.7621    1.8775    9.7852 C   0  0  0  0  0  0  0  0  0  0  0  0
   -0.4541    1.3767   11.1581 C   0  0  0  0  0  0  0  0  0  0  0  0
   -0.5424   -0.0294   11.3217 N   0  0  0  0  0  0  0  0  0  0  0  0
   -1.3663   -0.6989   10.3386 C   0  0  0  0  0  0  0  0  0  0  0  0
   -1.5363   -2.1192   10.6979 C   0  0  0  0  0  0  0  0  0  0  0  0
   -1.2599   -3.0828    9.6352 C   0  0  0  0  0  0  0  0  0  0  0  0
   -1.3647   -4.4525    9.5651 C   0  0  0  0  0  0  0  0  0  0  0  0
   -0.9748   -4.8824    8.3162 N   0  0  0  0  0  0  0  0  0  0  0  0
   -0.6193   -3.8069    7.5783 C   0  0  0  0  0  0  0  0  0  0  0  0
   -0.1570   -3.5259    6.3127 C   0  0  0  0  0  0  0  0  0  0  0  0
    0.1040   -2.2218    5.9110 C   0  0  0  0  0  0  0  0  0  0  0  0
   -0.0821   -1.1183    6.7530 C   0  0  0  0  0  0  0  0  0  0  0  0
   -0.5429   -1.4276    8.0068 C   0  0  0  0  0  0  0  0  0  0  0  0
   -0.7982   -2.7206    8.3942 C   0  0  0  0  0  0  0  0  0  0  0  0
   -0.7902   -0.4044    9.0052 C   0  0  0  0  0  0  0  0  0  0  0  0
   -0.4925    0.8382    8.7262 C   0  0  0  0  0  0  0  0  0  0  0  0
    0.7535   -0.6045   11.4792 C   0  0  0  0  0  0  0  0  0  0  0  0
  1  2  1  0
  2  3  1  0
  3  4  1  0
  4  5  1  0
  3  6  1  0
  6  7  2  0
  6  8  1  0
  8  9  1  0
  9 10  1  0
 10 11  1  0
 11 12  1  0
 12 13  1  0
 13 14  1  0
 14 15  2  0
 15 16  1  0
 16 17  1  0
 17 18  2  0
 18 19  1  0
 19 20  2  0
 20 21  1  0
 21 22  2  0
 21 23  1  0
 23 24  2  0
 11 25  1  0
 24  9  1  0
 23 12  1  0
 22 14  1  0
 22 17  1  0
M  END
$$$$
