
     RDKit          3D

 25 28  0  0  0  0  0  0  0  0999 V2000
   -1.8752    3.7577   13.9934 C   0  0  0  0  0  0  0  0  0  0  0  0
   -0.3777    3.6165   14.0009 C   0  0  0  0  0  0  0  0  0  0  0  0
    0.2480    4.2511   12.8865 N   0  0  0  0  0  0  0  0  0  0  0  0
    0.6125    5.6552   12.9481 C   0  0  0  0  0  0  0  0  0  0  0  0
    2.0804    5.8730   13.1091 C   0  0  0  0  0  0  0  0  0  0  0  0
    0.5235    3.5225   11.7036 C   0  0  0  0  0  0  0  0  0  0  0  0
    1.1941    4.0615   10.7487 O   0  0  0  0  0  0  0  0  0  0  0  0
    0.1177    2.1927   11.4453 N   0  0  0  0  0  0  0  0  0  0  0  0
    0.2925    1.5603   10.1431 C   0  0  0  0  0  0  0  0  0  0  0  0
   -0.4359    2.3145    9.0795 C   0  0  0  0  0  0  0  0  0  0  0  0
   -0.9094    1.5279    7.9984 N   0  0  0  0  0  0  0  0  0  0  0  0
   -0.2218    0.2667    7.8256 C   0  0  0  0  0  0  0  0  0  0  0  0
   -0.6639   -0.3887    6.5804 C   0  0  0  0  0  0  0  0  0  0  0  0
   -1.0699   -1.7864    6.7054 C   0  0  0  0  0  0  0  0  0  0  0  0
   -1.4704   -2.7290    5.7872 C   0  0  0  0  0  0  0  0  0  0  0  0
   -1.7456   -3.9144    6.4318 N   0  0  0  0  0  0  0  0  0  0  0  0
   -1.5278   -3.7492    7.7558 C   0  0  0  0  0  0  0  0  0  0  0  0
   -1.6014   -4.4839    8.9174 C   0  0  0  0  0  0  0  0  0  0  0  0
   -1.2771   -3.9260   10.1478 C   0  0  0  0  0  0  0  0  0  0  0  0
   -0.8589   -2.5970   10.2903 C   0  0  0  0  0  0  0  0  0  0  0  0
   -0.7949   -1.8894    9.1177 C   0  0  0  0  0  0  0  0  0  0  0  0
   -1.1175   -2.4503    7.9059 C   0  0  0  0  0  0  0  0  0  0  0  0
   -0.3808   -0.4993    9.0844 C   0  0  0  0  0  0  0  0  0  0  0  0
   -0.1362    0.1162   10.2122 C   0  0  0  0  0  0  0  0  0  0  0  0
   -2.3306    1.4115    8.0398 C   0  0  0  0  0  0  0  0  0  0  0  0
  1  2  1  0
  2  3  1  0
  3  4  1  0
  4  5  1  0
  3  6  1  0
  6  7  2  0
  6  8  1  0
  8  9  1  0
  9 10  1  0
 10 11  1  0
 11 12  1  0
 12 13  1  0
 13 14  1  0
 14 15  2  0
 15 16  1  0
 16 17  1  0
 17 18  2  0
 18 19  1  0
 19 20  2  0
 20 21  1  0
 21 22  2  0
 21 23  1  0
 23 24  2  0
 11 25  1  0
 24  9  1  0
 23 12  1  0
 22 14  1  0
 22 17  1  0
M  END
$$$$
