
     RDKit          3D

 25 28  0  0  0  0  0  0  0  0999 V2000
   -1.6606    3.7964   14.1741 C   0  0  0  0  0  0  0  0  0  0  0  0
   -1.4615    4.3870   12.8052 C   0  0  0  0  0  0  0  0  0  0  0  0
   -0.0895    4.4472   12.4177 N   0  0  0  0  0  0  0  0  0  0  0  0
    0.7351    5.5785   12.8026 C   0  0  0  0  0  0  0  0  0  0  0  0
    1.5393    5.3254   14.0345 C   0  0  0  0  0  0  0  0  0  0  0  0
    0.4896    3.4054   11.6525 C   0  0  0  0  0  0  0  0  0  0  0  0
    1.7109    3.4877   11.2604 O   0  0  0  0  0  0  0  0  0  0  0  0
   -0.1672    2.2192   11.2510 N   0  0  0  0  0  0  0  0  0  0  0  0
    0.1913    1.4999   10.0344 C   0  0  0  0  0  0  0  0  0  0  0  0
   -0.2906    2.2258    8.8214 C   0  0  0  0  0  0  0  0  0  0  0  0
   -0.6176    1.4013    7.7146 N   0  0  0  0  0  0  0  0  0  0  0  0
    0.0077    0.0966    7.7309 C   0  0  0  0  0  0  0  0  0  0  0  0
   -0.2514   -0.6088    6.4618 C   0  0  0  0  0  0  0  0  0  0  0  0
   -0.7614   -1.9723    6.5832 C   0  0  0  0  0  0  0  0  0  0  0  0
   -1.0549   -2.9463    5.6574 C   0  0  0  0  0  0  0  0  0  0  0  0
   -1.5136   -4.0735    6.3021 N   0  0  0  0  0  0  0  0  0  0  0  0
   -1.5200   -3.8396    7.6336 C   0  0  0  0  0  0  0  0  0  0  0  0
   -1.8420   -4.4969    8.7993 C   0  0  0  0  0  0  0  0  0  0  0  0
   -1.7023   -3.8832   10.0379 C   0  0  0  0  0  0  0  0  0  0  0  0
   -1.2313   -2.5725   10.1850 C   0  0  0  0  0  0  0  0  0  0  0  0
   -0.9187   -1.9423    9.0080 C   0  0  0  0  0  0  0  0  0  0  0  0
   -1.0601   -2.5581    7.7882 C   0  0  0  0  0  0  0  0  0  0  0  0
   -0.4171   -0.5812    8.9785 C   0  0  0  0  0  0  0  0  0  0  0  0
   -0.3343    0.0879   10.0993 C   0  0  0  0  0  0  0  0  0  0  0  0
   -2.0287    1.3645    7.5085 C   0  0  0  0  0  0  0  0  0  0  0  0
  1  2  1  0
  2  3  1  0
  3  4  1  0
  4  5  1  0
  3  6  1  0
  6  7  2  0
  6  8  1  0
  8  9  1  0
  9 10  1  0
 10 11  1  0
 11 12  1  0
 12 13  1  0
 13 14  1  0
 14 15  2  0
 15 16  1  0
 16 17  1  0
 17 18  2  0
 18 19  1  0
 19 20  2  0
 20 21  1  0
 21 22  2  0
 21 23  1  0
 23 24  2  0
 11 25  1  0
 24  9  1  0
 23 12  1  0
 22 14  1  0
 22 17  1  0
M  END
$$$$
