
     RDKit          3D

 25 28  0  0  0  0  0  0  0  0999 V2000
   -0.8881    3.0027   14.3617 C   0  0  0  0  0  0  0  0  0  0  0  0
   -0.9857    4.0445   13.2812 C   0  0  0  0  0  0  0  0  0  0  0  0
    0.2284    4.2039   12.5487 N   0  0  0  0  0  0  0  0  0  0  0  0
    1.2022    5.2046   12.9466 C   0  0  0  0  0  0  0  0  0  0  0  0
    0.9830    6.5283   12.2925 C   0  0  0  0  0  0  0  0  0  0  0  0
    0.5031    3.3894   11.4230 C   0  0  0  0  0  0  0  0  0  0  0  0
    1.5827    3.5575   10.7461 O   0  0  0  0  0  0  0  0  0  0  0  0
   -0.3284    2.3543   10.9363 N   0  0  0  0  0  0  0  0  0  0  0  0
   -0.0026    1.5858    9.7407 C   0  0  0  0  0  0  0  0  0  0  0  0
   -0.5634    2.2346    8.5179 C   0  0  0  0  0  0  0  0  0  0  0  0
   -0.9134    1.3457    7.4695 N   0  0  0  0  0  0  0  0  0  0  0  0
   -0.2453    0.0633    7.5199 C   0  0  0  0  0  0  0  0  0  0  0  0
   -0.5390   -0.7128    6.3006 C   0  0  0  0  0  0  0  0  0  0  0  0
   -0.9976   -2.0835    6.5127 C   0  0  0  0  0  0  0  0  0  0  0  0
   -1.3009   -3.1115    5.6506 C   0  0  0  0  0  0  0  0  0  0  0  0
   -1.6920   -4.2183    6.3707 N   0  0  0  0  0  0  0  0  0  0  0  0
   -1.6450   -3.9179    7.6879 C   0  0  0  0  0  0  0  0  0  0  0  0
   -1.8912   -4.5252    8.8984 C   0  0  0  0  0  0  0  0  0  0  0  0
   -1.7152   -3.8458   10.0974 C   0  0  0  0  0  0  0  0  0  0  0  0
   -1.2815   -2.5155   10.1577 C   0  0  0  0  0  0  0  0  0  0  0  0
   -1.0442   -1.9362    8.9378 C   0  0  0  0  0  0  0  0  0  0  0  0
   -1.2211   -2.6167    7.7577 C   0  0  0  0  0  0  0  0  0  0  0  0
   -0.5898   -0.5636    8.8180 C   0  0  0  0  0  0  0  0  0  0  0  0
   -0.4777    0.1635    9.8994 C   0  0  0  0  0  0  0  0  0  0  0  0
   -2.3305    1.2552    7.3327 C   0  0  0  0  0  0  0  0  0  0  0  0
  1  2  1  0
  2  3  1  0
  3  4  1  0
  4  5  1  0
  3  6  1  0
  6  7  2  0
  6  8  1  0
  8  9  1  0
  9 10  1  0
 10 11  1  0
 11 12  1  0
 12 13  1  0
 13 14  1  0
 14 15  2  0
 15 16  1  0
 16 17  1  0
 17 18  2  0
 18 19  1  0
 19 20  2  0
 20 21  1  0
 21 22  2  0
 21 23  1  0
 23 24  2  0
 11 25  1  0
 24  9  1  0
 23 12  1  0
 22 14  1  0
 22 17  1  0
M  END
$$$$
