
     RDKit          3D

 25 28  0  0  0  0  0  0  0  0999 V2000
    2.0833    5.4659   13.3738 C   0  0  0  0  0  0  0  0  0  0  0  0
    1.0198    5.7289   12.3432 C   0  0  0  0  0  0  0  0  0  0  0  0
    0.2015    4.5894   12.0827 N   0  0  0  0  0  0  0  0  0  0  0  0
   -1.0590    4.4131   12.7814 C   0  0  0  0  0  0  0  0  0  0  0  0
   -2.1517    5.2777   12.2460 C   0  0  0  0  0  0  0  0  0  0  0  0
    0.6049    3.6129   11.1394 C   0  0  0  0  0  0  0  0  0  0  0  0
    1.7370    3.7162   10.5396 O   0  0  0  0  0  0  0  0  0  0  0  0
   -0.1450    2.4739   10.7652 N   0  0  0  0  0  0  0  0  0  0  0  0
    0.2794    1.5729    9.7002 C   0  0  0  0  0  0  0  0  0  0  0  0
   -0.1477    2.0848    8.3637 C   0  0  0  0  0  0  0  0  0  0  0  0
   -0.4124    1.0867    7.3914 N   0  0  0  0  0  0  0  0  0  0  0  0
    0.2222   -0.1878    7.6495 C   0  0  0  0  0  0  0  0  0  0  0  0
    0.0324   -1.0936    6.5011 C   0  0  0  0  0  0  0  0  0  0  0  0
   -0.4717   -2.4276    6.8182 C   0  0  0  0  0  0  0  0  0  0  0  0
   -0.7107   -3.5433    6.0502 C   0  0  0  0  0  0  0  0  0  0  0  0
   -1.1914   -4.5585    6.8469 N   0  0  0  0  0  0  0  0  0  0  0  0
   -1.2659   -4.1122    8.1208 C   0  0  0  0  0  0  0  0  0  0  0  0
   -1.6399   -4.5771    9.3612 C   0  0  0  0  0  0  0  0  0  0  0  0
   -1.5670   -3.7686   10.4887 C   0  0  0  0  0  0  0  0  0  0  0  0
   -1.1149   -2.4439   10.4430 C   0  0  0  0  0  0  0  0  0  0  0  0
   -0.7494   -2.0077    9.1956 C   0  0  0  0  0  0  0  0  0  0  0  0
   -0.8249   -2.8152    8.0868 C   0  0  0  0  0  0  0  0  0  0  0  0
   -0.2584   -0.6614    8.9690 C   0  0  0  0  0  0  0  0  0  0  0  0
   -0.2369    0.1818    9.9687 C   0  0  0  0  0  0  0  0  0  0  0  0
   -1.8111    0.9939    7.1270 C   0  0  0  0  0  0  0  0  0  0  0  0
  1  2  1  0
  2  3  1  0
  3  4  1  0
  4  5  1  0
  3  6  1  0
  6  7  2  0
  6  8  1  0
  8  9  1  0
  9 10  1  0
 10 11  1  0
 11 12  1  0
 12 13  1  0
 13 14  1  0
 14 15  2  0
 15 16  1  0
 16 17  1  0
 17 18  2  0
 18 19  1  0
 19 20  2  0
 20 21  1  0
 21 22  2  0
 21 23  1  0
 23 24  2  0
 11 25  1  0
 24  9  1  0
 23 12  1  0
 22 14  1  0
 22 17  1  0
M  END
$$$$
