
     RDKit          3D

 25 28  0  0  0  0  0  0  0  0999 V2000
   -2.3502    3.9774   13.7540 C   0  0  0  0  0  0  0  0  0  0  0  0
   -2.0763    4.3155   12.3142 C   0  0  0  0  0  0  0  0  0  0  0  0
   -0.6881    4.4965   12.0382 N   0  0  0  0  0  0  0  0  0  0  0  0
    0.0095    5.6772   12.5150 C   0  0  0  0  0  0  0  0  0  0  0  0
    0.2105    6.7077   11.4540 C   0  0  0  0  0  0  0  0  0  0  0  0
    0.0312    3.5284   11.2955 C   0  0  0  0  0  0  0  0  0  0  0  0
    1.1788    3.8148   10.7926 O   0  0  0  0  0  0  0  0  0  0  0  0
   -0.4012    2.2079   11.0327 N   0  0  0  0  0  0  0  0  0  0  0  0
    0.0932    1.4335    9.9005 C   0  0  0  0  0  0  0  0  0  0  0  0
   -0.2682    2.0863    8.6067 C   0  0  0  0  0  0  0  0  0  0  0  0
   -0.4656    1.1994    7.5175 N   0  0  0  0  0  0  0  0  0  0  0  0
    0.1722   -0.0905    7.6688 C   0  0  0  0  0  0  0  0  0  0  0  0
    0.0579   -0.8655    6.4192 C   0  0  0  0  0  0  0  0  0  0  0  0
   -0.4435   -2.2304    6.5595 C   0  0  0  0  0  0  0  0  0  0  0  0
   -0.6246   -3.2565    5.6616 C   0  0  0  0  0  0  0  0  0  0  0  0
   -1.1331   -4.3574    6.3142 N   0  0  0  0  0  0  0  0  0  0  0  0
   -1.2828   -4.0551    7.6233 C   0  0  0  0  0  0  0  0  0  0  0  0
   -1.7167   -4.6571    8.7825 C   0  0  0  0  0  0  0  0  0  0  0  0
   -1.7166   -3.9775    9.9943 C   0  0  0  0  0  0  0  0  0  0  0  0
   -1.2817   -2.6521   10.1194 C   0  0  0  0  0  0  0  0  0  0  0  0
   -0.8555   -2.0779    8.9495 C   0  0  0  0  0  0  0  0  0  0  0  0
   -0.8593   -2.7586    7.7564 C   0  0  0  0  0  0  0  0  0  0  0  0
   -0.3723   -0.7108    8.8997 C   0  0  0  0  0  0  0  0  0  0  0  0
   -0.4169    0.0170    9.9856 C   0  0  0  0  0  0  0  0  0  0  0  0
   -1.8465    1.1249    7.1675 C   0  0  0  0  0  0  0  0  0  0  0  0
  1  2  1  0
  2  3  1  0
  3  4  1  0
  4  5  1  0
  3  6  1  0
  6  7  2  0
  6  8  1  0
  8  9  1  0
  9 10  1  0
 10 11  1  0
 11 12  1  0
 12 13  1  0
 13 14  1  0
 14 15  2  0
 15 16  1  0
 16 17  1  0
 17 18  2  0
 18 19  1  0
 19 20  2  0
 20 21  1  0
 21 22  2  0
 21 23  1  0
 23 24  2  0
 11 25  1  0
 24  9  1  0
 23 12  1  0
 22 14  1  0
 22 17  1  0
M  END
$$$$
