
     RDKit          3D

 25 28  0  0  0  0  0  0  0  0999 V2000
   -1.1015    3.2097   14.4096 C   0  0  0  0  0  0  0  0  0  0  0  0
   -1.3354    4.1123   13.2293 C   0  0  0  0  0  0  0  0  0  0  0  0
   -0.1472    4.3755   12.4843 N   0  0  0  0  0  0  0  0  0  0  0  0
    0.7402    5.4573   12.8719 C   0  0  0  0  0  0  0  0  0  0  0  0
    2.0161    4.9789   13.4811 C   0  0  0  0  0  0  0  0  0  0  0  0
    0.1856    3.5865   11.3561 C   0  0  0  0  0  0  0  0  0  0  0  0
    0.9002    4.0770   10.4070 O   0  0  0  0  0  0  0  0  0  0  0  0
   -0.2054    2.2433   11.1496 N   0  0  0  0  0  0  0  0  0  0  0  0
    0.1064    1.5173    9.9241 C   0  0  0  0  0  0  0  0  0  0  0  0
   -0.4817    2.1999    8.7329 C   0  0  0  0  0  0  0  0  0  0  0  0
   -0.8420    1.3421    7.6624 N   0  0  0  0  0  0  0  0  0  0  0  0
   -0.1614    0.0652    7.6594 C   0  0  0  0  0  0  0  0  0  0  0  0
   -0.4693   -0.6737    6.4207 C   0  0  0  0  0  0  0  0  0  0  0  0
   -0.9117   -2.0549    6.5958 C   0  0  0  0  0  0  0  0  0  0  0  0
   -1.2207   -3.0573    5.7061 C   0  0  0  0  0  0  0  0  0  0  0  0
   -1.5890   -4.1906    6.3964 N   0  0  0  0  0  0  0  0  0  0  0  0
   -1.5216   -3.9327    7.7217 C   0  0  0  0  0  0  0  0  0  0  0  0
   -1.7410   -4.5812    8.9158 C   0  0  0  0  0  0  0  0  0  0  0  0
   -1.5501   -3.9394   10.1331 C   0  0  0  0  0  0  0  0  0  0  0  0
   -1.1276   -2.6076   10.2292 C   0  0  0  0  0  0  0  0  0  0  0  0
   -0.9171   -1.9868    9.0250 C   0  0  0  0  0  0  0  0  0  0  0  0
   -1.1084   -2.6303    7.8265 C   0  0  0  0  0  0  0  0  0  0  0  0
   -0.4773   -0.6067    8.9421 C   0  0  0  0  0  0  0  0  0  0  0  0
   -0.3529    0.0860   10.0446 C   0  0  0  0  0  0  0  0  0  0  0  0
   -2.2604    1.2424    7.5472 C   0  0  0  0  0  0  0  0  0  0  0  0
  1  2  1  0
  2  3  1  0
  3  4  1  0
  4  5  1  0
  3  6  1  0
  6  7  2  0
  6  8  1  0
  8  9  1  0
  9 10  1  0
 10 11  1  0
 11 12  1  0
 12 13  1  0
 13 14  1  0
 14 15  2  0
 15 16  1  0
 16 17  1  0
 17 18  2  0
 18 19  1  0
 19 20  2  0
 20 21  1  0
 21 22  2  0
 21 23  1  0
 23 24  2  0
 11 25  1  0
 24  9  1  0
 23 12  1  0
 22 14  1  0
 22 17  1  0
M  END
$$$$
