
     RDKit          3D

 25 28  0  0  0  0  0  0  0  0999 V2000
    1.9259    4.4311   14.0912 C   0  0  0  0  0  0  0  0  0  0  0  0
    0.8450    5.0108   13.2205 C   0  0  0  0  0  0  0  0  0  0  0  0
   -0.0404    4.0216   12.6975 N   0  0  0  0  0  0  0  0  0  0  0  0
   -1.3219    3.7712   13.3323 C   0  0  0  0  0  0  0  0  0  0  0  0
   -2.4351    4.5705   12.7407 C   0  0  0  0  0  0  0  0  0  0  0  0
    0.3159    3.2689   11.5518 C   0  0  0  0  0  0  0  0  0  0  0  0
    1.1722    3.7295   10.7111 O   0  0  0  0  0  0  0  0  0  0  0  0
   -0.1974    1.9953   11.2141 N   0  0  0  0  0  0  0  0  0  0  0  0
    0.1439    1.3194    9.9680 C   0  0  0  0  0  0  0  0  0  0  0  0
   -0.3984    2.0612    8.7906 C   0  0  0  0  0  0  0  0  0  0  0  0
   -0.7352    1.2559    7.6726 N   0  0  0  0  0  0  0  0  0  0  0  0
   -0.0701   -0.0286    7.6343 C   0  0  0  0  0  0  0  0  0  0  0  0
   -0.3479   -0.7085    6.3553 C   0  0  0  0  0  0  0  0  0  0  0  0
   -0.8119   -2.0901    6.4557 C   0  0  0  0  0  0  0  0  0  0  0  0
   -1.1049   -3.0484    5.5135 C   0  0  0  0  0  0  0  0  0  0  0  0
   -1.5081   -4.2058    6.1415 N   0  0  0  0  0  0  0  0  0  0  0  0
   -1.4792   -4.0070    7.4784 C   0  0  0  0  0  0  0  0  0  0  0  0
   -1.7436   -4.7041    8.6354 C   0  0  0  0  0  0  0  0  0  0  0  0
   -1.5833   -4.1187    9.8851 C   0  0  0  0  0  0  0  0  0  0  0  0
   -1.1481   -2.7981   10.0528 C   0  0  0  0  0  0  0  0  0  0  0  0
   -0.8926   -2.1281    8.8842 C   0  0  0  0  0  0  0  0  0  0  0  0
   -1.0540   -2.7160    7.6532 C   0  0  0  0  0  0  0  0  0  0  0  0
   -0.4341   -0.7516    8.8758 C   0  0  0  0  0  0  0  0  0  0  0  0
   -0.3359   -0.1096   10.0111 C   0  0  0  0  0  0  0  0  0  0  0  0
   -2.1503    1.1801    7.5095 C   0  0  0  0  0  0  0  0  0  0  0  0
  1  2  1  0
  2  3  1  0
  3  4  1  0
  4  5  1  0
  3  6  1  0
  6  7  2  0
  6  8  1  0
  8  9  1  0
  9 10  1  0
 10 11  1  0
 11 12  1  0
 12 13  1  0
 13 14  1  0
 14 15  2  0
 15 16  1  0
 16 17  1  0
 17 18  2  0
 18 19  1  0
 19 20  2  0
 20 21  1  0
 21 22  2  0
 21 23  1  0
 23 24  2  0
 11 25  1  0
 24  9  1  0
 23 12  1  0
 22 14  1  0
 22 17  1  0
M  END
$$$$
