
     RDKit          3D

 25 28  0  0  0  0  0  0  0  0999 V2000
    1.9149    5.8827   13.2017 C   0  0  0  0  0  0  0  0  0  0  0  0
    1.1079    4.6984   13.6582 C   0  0  0  0  0  0  0  0  0  0  0  0
    0.1498    4.2701   12.6913 N   0  0  0  0  0  0  0  0  0  0  0  0
   -1.2433    4.6607   12.8123 C   0  0  0  0  0  0  0  0  0  0  0  0
   -1.5813    5.8790   12.0188 C   0  0  0  0  0  0  0  0  0  0  0  0
    0.5419    3.4580   11.5991 C   0  0  0  0  0  0  0  0  0  0  0  0
    1.3722    3.9012   10.7239 O   0  0  0  0  0  0  0  0  0  0  0  0
    0.0932    2.1396   11.3539 N   0  0  0  0  0  0  0  0  0  0  0  0
    0.4200    1.4168   10.1304 C   0  0  0  0  0  0  0  0  0  0  0  0
   -0.1168    2.1253    8.9303 C   0  0  0  0  0  0  0  0  0  0  0  0
   -0.4693    1.2871    7.8418 N   0  0  0  0  0  0  0  0  0  0  0  0
    0.1777   -0.0071    7.8451 C   0  0  0  0  0  0  0  0  0  0  0  0
   -0.1147   -0.7265    6.5912 C   0  0  0  0  0  0  0  0  0  0  0  0
   -0.5974   -2.0972    6.7405 C   0  0  0  0  0  0  0  0  0  0  0  0
   -0.9075   -3.0830    5.8328 C   0  0  0  0  0  0  0  0  0  0  0  0
   -1.3241   -4.2124    6.5015 N   0  0  0  0  0  0  0  0  0  0  0  0
   -1.2869   -3.9684    7.8307 C   0  0  0  0  0  0  0  0  0  0  0  0
   -1.5562   -4.6218    9.0118 C   0  0  0  0  0  0  0  0  0  0  0  0
   -1.3827   -3.9963   10.2402 C   0  0  0  0  0  0  0  0  0  0  0  0
   -0.9286   -2.6770   10.3610 C   0  0  0  0  0  0  0  0  0  0  0  0
   -0.6686   -2.0510    9.1691 C   0  0  0  0  0  0  0  0  0  0  0  0
   -0.8432   -2.6784    7.9596 C   0  0  0  0  0  0  0  0  0  0  0  0
   -0.1911   -0.6821    9.1119 C   0  0  0  0  0  0  0  0  0  0  0  0
   -0.0794   -0.0030   10.2242 C   0  0  0  0  0  0  0  0  0  0  0  0
   -1.8860    1.2256    7.6866 C   0  0  0  0  0  0  0  0  0  0  0  0
  1  2  1  0
  2  3  1  0
  3  4  1  0
  4  5  1  0
  3  6  1  0
  6  7  2  0
  6  8  1  0
  8  9  1  0
  9 10  1  0
 10 11  1  0
 11 12  1  0
 12 13  1  0
 13 14  1  0
 14 15  2  0
 15 16  1  0
 16 17  1  0
 17 18  2  0
 18 19  1  0
 19 20  2  0
 20 21  1  0
 21 22  2  0
 21 23  1  0
 23 24  2  0
 11 25  1  0
 24  9  1  0
 23 12  1  0
 22 14  1  0
 22 17  1  0
M  END
$$$$
