
     RDKit          3D

 25 28  0  0  0  0  0  0  0  0999 V2000
   -1.8037    3.7743   13.7154 C   0  0  0  0  0  0  0  0  0  0  0  0
   -1.1026    4.4941   12.5962 C   0  0  0  0  0  0  0  0  0  0  0  0
    0.2556    4.0870   12.4355 N   0  0  0  0  0  0  0  0  0  0  0  0
    1.2968    4.6484   13.2773 C   0  0  0  0  0  0  0  0  0  0  0  0
    2.0180    5.7874   12.6364 C   0  0  0  0  0  0  0  0  0  0  0  0
    0.6096    3.1297   11.4535 C   0  0  0  0  0  0  0  0  0  0  0  0
    1.8439    2.9252   11.1593 O   0  0  0  0  0  0  0  0  0  0  0  0
   -0.2987    2.3307   10.7211 N   0  0  0  0  0  0  0  0  0  0  0  0
    0.1334    1.4228    9.6651 C   0  0  0  0  0  0  0  0  0  0  0  0
   -0.2649    1.9370    8.3207 C   0  0  0  0  0  0  0  0  0  0  0  0
   -0.5246    0.9402    7.3457 N   0  0  0  0  0  0  0  0  0  0  0  0
    0.0906   -0.3411    7.6167 C   0  0  0  0  0  0  0  0  0  0  0  0
   -0.0901   -1.2468    6.4668 C   0  0  0  0  0  0  0  0  0  0  0  0
   -0.6149   -2.5742    6.7775 C   0  0  0  0  0  0  0  0  0  0  0  0
   -0.8537   -3.6886    6.0074 C   0  0  0  0  0  0  0  0  0  0  0  0
   -1.3597   -4.6966    6.7976 N   0  0  0  0  0  0  0  0  0  0  0  0
   -1.4507   -4.2470    8.0692 C   0  0  0  0  0  0  0  0  0  0  0  0
   -1.8512   -4.7052    9.3038 C   0  0  0  0  0  0  0  0  0  0  0  0
   -1.7882   -3.8955   10.4311 C   0  0  0  0  0  0  0  0  0  0  0  0
   -1.3200   -2.5762   10.3908 C   0  0  0  0  0  0  0  0  0  0  0  0
   -0.9283   -2.1467    9.1490 C   0  0  0  0  0  0  0  0  0  0  0  0
   -0.9943   -2.9553    8.0405 C   0  0  0  0  0  0  0  0  0  0  0  0
   -0.4179   -0.8065    8.9286 C   0  0  0  0  0  0  0  0  0  0  0  0
   -0.4036    0.0382    9.9271 C   0  0  0  0  0  0  0  0  0  0  0  0
   -1.9196    0.8632    7.0576 C   0  0  0  0  0  0  0  0  0  0  0  0
  1  2  1  0
  2  3  1  0
  3  4  1  0
  4  5  1  0
  3  6  1  0
  6  7  2  0
  6  8  1  0
  8  9  1  0
  9 10  1  0
 10 11  1  0
 11 12  1  0
 12 13  1  0
 13 14  1  0
 14 15  2  0
 15 16  1  0
 16 17  1  0
 17 18  2  0
 18 19  1  0
 19 20  2  0
 20 21  1  0
 21 22  2  0
 21 23  1  0
 23 24  2  0
 11 25  1  0
 24  9  1  0
 23 12  1  0
 22 14  1  0
 22 17  1  0
M  END
$$$$
