
     RDKit          3D

 25 28  0  0  0  0  0  0  0  0999 V2000
    2.2792    4.6544   13.5448 C   0  0  0  0  0  0  0  0  0  0  0  0
    1.1261    5.3087   12.8344 C   0  0  0  0  0  0  0  0  0  0  0  0
    0.1807    4.3700   12.3235 N   0  0  0  0  0  0  0  0  0  0  0  0
   -1.1401    4.2588   12.9160 C   0  0  0  0  0  0  0  0  0  0  0  0
   -2.1253    5.2184   12.3358 C   0  0  0  0  0  0  0  0  0  0  0  0
    0.5148    3.5325   11.2312 C   0  0  0  0  0  0  0  0  0  0  0  0
    1.4075    3.8968   10.3812 O   0  0  0  0  0  0  0  0  0  0  0  0
   -0.0597    2.2692   10.9597 N   0  0  0  0  0  0  0  0  0  0  0  0
    0.2893    1.4885    9.7786 C   0  0  0  0  0  0  0  0  0  0  0  0
   -0.2371    2.1309    8.5373 C   0  0  0  0  0  0  0  0  0  0  0  0
   -0.5681    1.2357    7.4881 N   0  0  0  0  0  0  0  0  0  0  0  0
    0.0893   -0.0509    7.5652 C   0  0  0  0  0  0  0  0  0  0  0  0
   -0.1804   -0.8351    6.3456 C   0  0  0  0  0  0  0  0  0  0  0  0
   -0.6540   -2.2007    6.5577 C   0  0  0  0  0  0  0  0  0  0  0  0
   -0.9439   -3.2337    5.6970 C   0  0  0  0  0  0  0  0  0  0  0  0
   -1.3602   -4.3316    6.4165 N   0  0  0  0  0  0  0  0  0  0  0  0
   -1.3429   -4.0206    7.7320 C   0  0  0  0  0  0  0  0  0  0  0  0
   -1.6227   -4.6159    8.9410 C   0  0  0  0  0  0  0  0  0  0  0  0
   -1.4708   -3.9278   10.1384 C   0  0  0  0  0  0  0  0  0  0  0  0
   -1.0290   -2.6001   10.1982 C   0  0  0  0  0  0  0  0  0  0  0  0
   -0.7581   -2.0327    8.9797 C   0  0  0  0  0  0  0  0  0  0  0  0
   -0.9114   -2.7218    7.8013 C   0  0  0  0  0  0  0  0  0  0  0  0
   -0.2910   -0.6644    8.8597 C   0  0  0  0  0  0  0  0  0  0  0  0
   -0.1998    0.0709    9.9375 C   0  0  0  0  0  0  0  0  0  0  0  0
   -1.9821    1.1541    7.3178 C   0  0  0  0  0  0  0  0  0  0  0  0
  1  2  1  0
  2  3  1  0
  3  4  1  0
  4  5  1  0
  3  6  1  0
  6  7  2  0
  6  8  1  0
  8  9  1  0
  9 10  1  0
 10 11  1  0
 11 12  1  0
 12 13  1  0
 13 14  1  0
 14 15  2  0
 15 16  1  0
 16 17  1  0
 17 18  2  0
 18 19  1  0
 19 20  2  0
 20 21  1  0
 21 22  2  0
 21 23  1  0
 23 24  2  0
 11 25  1  0
 24  9  1  0
 23 12  1  0
 22 14  1  0
 22 17  1  0
M  END
$$$$
