
     RDKit          3D

 25 28  0  0  0  0  0  0  0  0999 V2000
    2.2163    5.8652   10.5604 C   0  0  0  0  0  0  0  0  0  0  0  0
    0.7721    6.2670   10.6842 C   0  0  0  0  0  0  0  0  0  0  0  0
   -0.0844    5.5503    9.7961 N   0  0  0  0  0  0  0  0  0  0  0  0
   -0.4505    6.1158    8.5100 C   0  0  0  0  0  0  0  0  0  0  0  0
    0.4519    5.6845    7.4019 C   0  0  0  0  0  0  0  0  0  0  0  0
   -0.5907    4.2769   10.1543 C   0  0  0  0  0  0  0  0  0  0  0  0
   -1.0382    4.0646   11.3403 O   0  0  0  0  0  0  0  0  0  0  0  0
   -0.6604    3.1515    9.3007 N   0  0  0  0  0  0  0  0  0  0  0  0
   -1.1568    1.8569    9.7519 C   0  0  0  0  0  0  0  0  0  0  0  0
   -0.4321    1.4026   10.9762 C   0  0  0  0  0  0  0  0  0  0  0  0
   -0.3083   -0.0032   11.1177 N   0  0  0  0  0  0  0  0  0  0  0  0
   -1.2840   -0.7708   10.3745 C   0  0  0  0  0  0  0  0  0  0  0  0
   -1.1835   -2.1998   10.7259 C   0  0  0  0  0  0  0  0  0  0  0  0
   -1.0952   -3.1279    9.6012 C   0  0  0  0  0  0  0  0  0  0  0  0
   -1.0548   -4.5005    9.5232 C   0  0  0  0  0  0  0  0  0  0  0  0
   -0.9707   -4.8861    8.2038 N   0  0  0  0  0  0  0  0  0  0  0  0
   -0.9563   -3.7790    7.4281 C   0  0  0  0  0  0  0  0  0  0  0  0
   -0.8904   -3.4501    6.0932 C   0  0  0  0  0  0  0  0  0  0  0  0
   -0.9018   -2.1258    5.6732 C   0  0  0  0  0  0  0  0  0  0  0  0
   -0.9800   -1.0489    6.5651 C   0  0  0  0  0  0  0  0  0  0  0  0
   -1.0444   -1.4058    7.8874 C   0  0  0  0  0  0  0  0  0  0  0  0
   -1.0327   -2.7183    8.2925 C   0  0  0  0  0  0  0  0  0  0  0  0
   -1.1293   -0.4153    8.9441 C   0  0  0  0  0  0  0  0  0  0  0  0
   -1.0652    0.8529    8.6305 C   0  0  0  0  0  0  0  0  0  0  0  0
    1.0397   -0.4182   10.9036 C   0  0  0  0  0  0  0  0  0  0  0  0
  1  2  1  0
  2  3  1  0
  3  4  1  0
  4  5  1  0
  3  6  1  0
  6  7  2  0
  6  8  1  0
  8  9  1  0
  9 10  1  0
 10 11  1  0
 11 12  1  0
 12 13  1  0
 13 14  1  0
 14 15  2  0
 15 16  1  0
 16 17  1  0
 17 18  2  0
 18 19  1  0
 19 20  2  0
 20 21  1  0
 21 22  2  0
 21 23  1  0
 23 24  2  0
 11 25  1  0
 24  9  1  0
 23 12  1  0
 22 14  1  0
 22 17  1  0
M  END
$$$$
