
     RDKit          3D

 25 28  0  0  0  0  0  0  0  0999 V2000
   -1.8914    5.4761   12.0959 C   0  0  0  0  0  0  0  0  0  0  0  0
   -1.0121    4.4515   12.7589 C   0  0  0  0  0  0  0  0  0  0  0  0
    0.3050    4.4087   12.2115 N   0  0  0  0  0  0  0  0  0  0  0  0
    1.3122    5.3619   12.6415 C   0  0  0  0  0  0  0  0  0  0  0  0
    2.1732    4.8464   13.7465 C   0  0  0  0  0  0  0  0  0  0  0  0
    0.6508    3.4366   11.2412 C   0  0  0  0  0  0  0  0  0  0  0  0
    1.8703    3.3063   10.8566 O   0  0  0  0  0  0  0  0  0  0  0  0
   -0.2507    2.5450   10.6149 N   0  0  0  0  0  0  0  0  0  0  0  0
    0.1516    1.6618    9.5267 C   0  0  0  0  0  0  0  0  0  0  0  0
   -0.2722    2.2133    8.2050 C   0  0  0  0  0  0  0  0  0  0  0  0
   -0.5604    1.2438    7.2107 N   0  0  0  0  0  0  0  0  0  0  0  0
    0.0511   -0.0482    7.4351 C   0  0  0  0  0  0  0  0  0  0  0  0
   -0.1613   -0.9227    6.2666 C   0  0  0  0  0  0  0  0  0  0  0  0
   -0.6890   -2.2541    6.5546 C   0  0  0  0  0  0  0  0  0  0  0  0
   -0.9528   -3.3466    5.7616 C   0  0  0  0  0  0  0  0  0  0  0  0
   -1.4488   -4.3712    6.5366 N   0  0  0  0  0  0  0  0  0  0  0  0
   -1.5087   -3.9540    7.8211 C   0  0  0  0  0  0  0  0  0  0  0  0
   -1.8855   -4.4412    9.0520 C   0  0  0  0  0  0  0  0  0  0  0  0
   -1.7919   -3.6613   10.1980 C   0  0  0  0  0  0  0  0  0  0  0  0
   -1.3150   -2.3446   10.1814 C   0  0  0  0  0  0  0  0  0  0  0  0
   -0.9473   -1.8858    8.9427 C   0  0  0  0  0  0  0  0  0  0  0  0
   -1.0435   -2.6651    7.8155 C   0  0  0  0  0  0  0  0  0  0  0  0
   -0.4320   -0.5440    8.7456 C   0  0  0  0  0  0  0  0  0  0  0  0
   -0.3897    0.2746    9.7648 C   0  0  0  0  0  0  0  0  0  0  0  0
   -1.9619    1.1837    6.9515 C   0  0  0  0  0  0  0  0  0  0  0  0
  1  2  1  0
  2  3  1  0
  3  4  1  0
  4  5  1  0
  3  6  1  0
  6  7  2  0
  6  8  1  0
  8  9  1  0
  9 10  1  0
 10 11  1  0
 11 12  1  0
 12 13  1  0
 13 14  1  0
 14 15  2  0
 15 16  1  0
 16 17  1  0
 17 18  2  0
 18 19  1  0
 19 20  2  0
 20 21  1  0
 21 22  2  0
 21 23  1  0
 23 24  2  0
 11 25  1  0
 24  9  1  0
 23 12  1  0
 22 14  1  0
 22 17  1  0
M  END
$$$$
