
     RDKit          3D

 25 28  0  0  0  0  0  0  0  0999 V2000
    2.0402    7.3081    9.8845 C   0  0  0  0  0  0  0  0  0  0  0  0
    1.2315    6.1691   10.4423 C   0  0  0  0  0  0  0  0  0  0  0  0
    0.5781    5.4017    9.4322 N   0  0  0  0  0  0  0  0  0  0  0  0
    0.6574    5.8001    8.0383 C   0  0  0  0  0  0  0  0  0  0  0  0
   -0.4183    6.7552    7.6398 C   0  0  0  0  0  0  0  0  0  0  0  0
   -0.1573    4.2400    9.7725 C   0  0  0  0  0  0  0  0  0  0  0  0
   -0.5933    4.0735   10.9701 O   0  0  0  0  0  0  0  0  0  0  0  0
   -0.4813    3.1852    8.8881 N   0  0  0  0  0  0  0  0  0  0  0  0
   -1.1763    1.9812    9.3277 C   0  0  0  0  0  0  0  0  0  0  0  0
   -0.7846    1.6157   10.7219 C   0  0  0  0  0  0  0  0  0  0  0  0
   -0.8181    0.2282   11.0142 N   0  0  0  0  0  0  0  0  0  0  0  0
   -1.6669   -0.5507   10.1387 C   0  0  0  0  0  0  0  0  0  0  0  0
   -1.7717   -1.9370   10.6312 C   0  0  0  0  0  0  0  0  0  0  0  0
   -1.5163   -2.9845    9.6455 C   0  0  0  0  0  0  0  0  0  0  0  0
   -1.5789   -4.3573    9.7029 C   0  0  0  0  0  0  0  0  0  0  0  0
   -1.2370   -4.8872    8.4786 N   0  0  0  0  0  0  0  0  0  0  0  0
   -0.9542   -3.8732    7.6305 C   0  0  0  0  0  0  0  0  0  0  0  0
   -0.5644   -3.6947    6.3226 C   0  0  0  0  0  0  0  0  0  0  0  0
   -0.3669   -2.4253    5.7935 C   0  0  0  0  0  0  0  0  0  0  0  0
   -0.5477   -1.2559    6.5426 C   0  0  0  0  0  0  0  0  0  0  0  0
   -0.9356   -1.4636    7.8412 C   0  0  0  0  0  0  0  0  0  0  0  0
   -1.1286   -2.7230    8.3548 C   0  0  0  0  0  0  0  0  0  0  0  0
   -1.1673   -0.3618    8.7563 C   0  0  0  0  0  0  0  0  0  0  0  0
   -0.9250    0.8585    8.3528 C   0  0  0  0  0  0  0  0  0  0  0  0
    0.5024   -0.2930   11.1545 C   0  0  0  0  0  0  0  0  0  0  0  0
  1  2  1  0
  2  3  1  0
  3  4  1  0
  4  5  1  0
  3  6  1  0
  6  7  2  0
  6  8  1  0
  8  9  1  0
  9 10  1  0
 10 11  1  0
 11 12  1  0
 12 13  1  0
 13 14  1  0
 14 15  2  0
 15 16  1  0
 16 17  1  0
 17 18  2  0
 18 19  1  0
 19 20  2  0
 20 21  1  0
 21 22  2  0
 21 23  1  0
 23 24  2  0
 11 25  1  0
 24  9  1  0
 23 12  1  0
 22 14  1  0
 22 17  1  0
M  END
$$$$
