
     RDKit          3D

 25 28  0  0  0  0  0  0  0  0999 V2000
   -2.0971    4.6118   13.5301 C   0  0  0  0  0  0  0  0  0  0  0  0
   -1.0506    3.5410   13.6733 C   0  0  0  0  0  0  0  0  0  0  0  0
    0.1807    3.8753   13.0342 N   0  0  0  0  0  0  0  0  0  0  0  0
    1.0065    4.9542   13.5461 C   0  0  0  0  0  0  0  0  0  0  0  0
    2.1833    4.4715   14.3272 C   0  0  0  0  0  0  0  0  0  0  0  0
    0.6168    3.1609   11.8917 C   0  0  0  0  0  0  0  0  0  0  0  0
    1.3153    3.7465   10.9855 O   0  0  0  0  0  0  0  0  0  0  0  0
    0.3517    1.7975   11.6254 N   0  0  0  0  0  0  0  0  0  0  0  0
    0.5359    1.2082   10.3045 C   0  0  0  0  0  0  0  0  0  0  0  0
   -0.1617    2.0127    9.2572 C   0  0  0  0  0  0  0  0  0  0  0  0
   -0.6320    1.2736    8.1418 N   0  0  0  0  0  0  0  0  0  0  0  0
    0.0355    0.0066    7.9350 C   0  0  0  0  0  0  0  0  0  0  0  0
   -0.3985   -0.5962    6.6607 C   0  0  0  0  0  0  0  0  0  0  0  0
   -0.8316   -1.9897    6.7298 C   0  0  0  0  0  0  0  0  0  0  0  0
   -1.2342   -2.8918    5.7728 C   0  0  0  0  0  0  0  0  0  0  0  0
   -1.5411   -4.0938    6.3707 N   0  0  0  0  0  0  0  0  0  0  0  0
   -1.3415   -3.9793    7.7029 C   0  0  0  0  0  0  0  0  0  0  0  0
   -1.4470   -4.7529    8.8364 C   0  0  0  0  0  0  0  0  0  0  0  0
   -1.1324   -4.2448   10.0907 C   0  0  0  0  0  0  0  0  0  0  0  0
   -0.6926   -2.9296   10.2866 C   0  0  0  0  0  0  0  0  0  0  0  0
   -0.5971   -2.1825    9.1409 C   0  0  0  0  0  0  0  0  0  0  0  0
   -0.9104   -2.6944    7.9052 C   0  0  0  0  0  0  0  0  0  0  0  0
   -0.1575   -0.8000    9.1632 C   0  0  0  0  0  0  0  0  0  0  0  0
    0.0801   -0.2293   10.3158 C   0  0  0  0  0  0  0  0  0  0  0  0
   -2.0555    1.1822    8.1572 C   0  0  0  0  0  0  0  0  0  0  0  0
  1  2  1  0
  2  3  1  0
  3  4  1  0
  4  5  1  0
  3  6  1  0
  6  7  2  0
  6  8  1  0
  8  9  1  0
  9 10  1  0
 10 11  1  0
 11 12  1  0
 12 13  1  0
 13 14  1  0
 14 15  2  0
 15 16  1  0
 16 17  1  0
 17 18  2  0
 18 19  1  0
 19 20  2  0
 20 21  1  0
 21 22  2  0
 21 23  1  0
 23 24  2  0
 11 25  1  0
 24  9  1  0
 23 12  1  0
 22 14  1  0
 22 17  1  0
M  END
$$$$
