
     RDKit          3D

 25 28  0  0  0  0  0  0  0  0999 V2000
   -2.3827    4.1582   13.2440 C   0  0  0  0  0  0  0  0  0  0  0  0
   -0.9491    3.8636   13.5911 C   0  0  0  0  0  0  0  0  0  0  0  0
   -0.0271    4.3611   12.6224 N   0  0  0  0  0  0  0  0  0  0  0  0
    0.6301    5.6405   12.8207 C   0  0  0  0  0  0  0  0  0  0  0  0
   -0.2672    6.8059   12.5663 C   0  0  0  0  0  0  0  0  0  0  0  0
    0.2619    3.6158   11.4532 C   0  0  0  0  0  0  0  0  0  0  0  0
    0.9811    4.1256   10.5178 O   0  0  0  0  0  0  0  0  0  0  0  0
   -0.1803    2.2988   11.1890 N   0  0  0  0  0  0  0  0  0  0  0  0
    0.1757    1.5839    9.9691 C   0  0  0  0  0  0  0  0  0  0  0  0
   -0.3815    2.2693    8.7648 C   0  0  0  0  0  0  0  0  0  0  0  0
   -0.7008    1.4156    7.6781 N   0  0  0  0  0  0  0  0  0  0  0  0
   -0.0090    0.1449    7.6879 C   0  0  0  0  0  0  0  0  0  0  0  0
   -0.2718   -0.5884    6.4354 C   0  0  0  0  0  0  0  0  0  0  0  0
   -0.7067   -1.9746    6.5879 C   0  0  0  0  0  0  0  0  0  0  0  0
   -0.9791   -2.9736    5.6825 C   0  0  0  0  0  0  0  0  0  0  0  0
   -1.3582   -4.1148    6.3537 N   0  0  0  0  0  0  0  0  0  0  0  0
   -1.3341   -3.8653    7.6821 C   0  0  0  0  0  0  0  0  0  0  0  0
   -1.5843   -4.5238    8.8646 C   0  0  0  0  0  0  0  0  0  0  0  0
   -1.4369   -3.8886   10.0914 C   0  0  0  0  0  0  0  0  0  0  0  0
   -1.0296   -2.5538   10.2092 C   0  0  0  0  0  0  0  0  0  0  0  0
   -0.7877   -1.9230    9.0161 C   0  0  0  0  0  0  0  0  0  0  0  0
   -0.9361   -2.5600    7.8081 C   0  0  0  0  0  0  0  0  0  0  0  0
   -0.3582   -0.5384    8.9558 C   0  0  0  0  0  0  0  0  0  0  0  0
   -0.2740    0.1478   10.0661 C   0  0  0  0  0  0  0  0  0  0  0  0
   -2.1140    1.3041    7.5184 C   0  0  0  0  0  0  0  0  0  0  0  0
  1  2  1  0
  2  3  1  0
  3  4  1  0
  4  5  1  0
  3  6  1  0
  6  7  2  0
  6  8  1  0
  8  9  1  0
  9 10  1  0
 10 11  1  0
 11 12  1  0
 12 13  1  0
 13 14  1  0
 14 15  2  0
 15 16  1  0
 16 17  1  0
 17 18  2  0
 18 19  1  0
 19 20  2  0
 20 21  1  0
 21 22  2  0
 21 23  1  0
 23 24  2  0
 11 25  1  0
 24  9  1  0
 23 12  1  0
 22 14  1  0
 22 17  1  0
M  END
$$$$
