
     RDKit          3D

 25 28  0  0  0  0  0  0  0  0999 V2000
    2.4283    5.7695   10.7045 C   0  0  0  0  0  0  0  0  0  0  0  0
    1.5129    5.6824    9.5142 C   0  0  0  0  0  0  0  0  0  0  0  0
    0.1313    5.6917    9.8711 N   0  0  0  0  0  0  0  0  0  0  0  0
   -0.5900    6.9462    9.9890 C   0  0  0  0  0  0  0  0  0  0  0  0
   -1.0767    7.4678    8.6778 C   0  0  0  0  0  0  0  0  0  0  0  0
   -0.5580    4.4788   10.1157 C   0  0  0  0  0  0  0  0  0  0  0  0
   -1.4532    4.4133   11.0357 O   0  0  0  0  0  0  0  0  0  0  0  0
   -0.3561    3.2650    9.4188 N   0  0  0  0  0  0  0  0  0  0  0  0
   -0.9817    2.0136    9.8297 C   0  0  0  0  0  0  0  0  0  0  0  0
   -0.4219    1.5366   11.1295 C   0  0  0  0  0  0  0  0  0  0  0  0
   -0.4067    0.1286   11.2999 N   0  0  0  0  0  0  0  0  0  0  0  0
   -1.3469   -0.5884   10.4659 C   0  0  0  0  0  0  0  0  0  0  0  0
   -1.3785   -2.0140   10.8427 C   0  0  0  0  0  0  0  0  0  0  0  0
   -1.2332   -2.9667    9.7449 C   0  0  0  0  0  0  0  0  0  0  0  0
   -1.2752   -4.3404    9.6877 C   0  0  0  0  0  0  0  0  0  0  0  0
   -1.0778   -4.7551    8.3894 N   0  0  0  0  0  0  0  0  0  0  0  0
   -0.9086   -3.6658    7.6068 C   0  0  0  0  0  0  0  0  0  0  0  0
   -0.6804   -3.3669    6.2827 C   0  0  0  0  0  0  0  0  0  0  0  0
   -0.5601   -2.0527    5.8484 C   0  0  0  0  0  0  0  0  0  0  0  0
   -0.6610   -0.9565    6.7142 C   0  0  0  0  0  0  0  0  0  0  0  0
   -0.8881   -1.2838    8.0262 C   0  0  0  0  0  0  0  0  0  0  0  0
   -1.0058   -2.5866    8.4456 C   0  0  0  0  0  0  0  0  0  0  0  0
   -1.0188   -0.2703    9.0561 C   0  0  0  0  0  0  0  0  0  0  0  0
   -0.8384    0.9850    8.7363 C   0  0  0  0  0  0  0  0  0  0  0  0
    0.9260   -0.3761   11.2357 C   0  0  0  0  0  0  0  0  0  0  0  0
  1  2  1  0
  2  3  1  0
  3  4  1  0
  4  5  1  0
  3  6  1  0
  6  7  2  0
  6  8  1  0
  8  9  1  0
  9 10  1  0
 10 11  1  0
 11 12  1  0
 12 13  1  0
 13 14  1  0
 14 15  2  0
 15 16  1  0
 16 17  1  0
 17 18  2  0
 18 19  1  0
 19 20  2  0
 20 21  1  0
 21 22  2  0
 21 23  1  0
 23 24  2  0
 11 25  1  0
 24  9  1  0
 23 12  1  0
 22 14  1  0
 22 17  1  0
M  END
$$$$
