
     RDKit          3D

 25 28  0  0  0  0  0  0  0  0999 V2000
   -1.1886    3.7861   13.8253 C   0  0  0  0  0  0  0  0  0  0  0  0
   -1.7832    4.3705   12.5734 C   0  0  0  0  0  0  0  0  0  0  0  0
   -0.8017    4.7043   11.5929 N   0  0  0  0  0  0  0  0  0  0  0  0
   -0.3539    6.0766   11.4370 C   0  0  0  0  0  0  0  0  0  0  0  0
    0.6631    6.4802   12.4524 C   0  0  0  0  0  0  0  0  0  0  0  0
   -0.2488    3.7036   10.7569 C   0  0  0  0  0  0  0  0  0  0  0  0
    0.9034    3.8734   10.2131 O   0  0  0  0  0  0  0  0  0  0  0  0
   -0.8616    2.4697   10.4380 N   0  0  0  0  0  0  0  0  0  0  0  0
   -0.2670    1.5184    9.5065 C   0  0  0  0  0  0  0  0  0  0  0  0
   -0.4930    1.9415    8.0921 C   0  0  0  0  0  0  0  0  0  0  0  0
   -0.5922    0.8825    7.1537 N   0  0  0  0  0  0  0  0  0  0  0  0
    0.0139   -0.3595    7.5821 C   0  0  0  0  0  0  0  0  0  0  0  0
    0.0142   -1.3348    6.4757 C   0  0  0  0  0  0  0  0  0  0  0  0
   -0.5130   -2.6595    6.7938 C   0  0  0  0  0  0  0  0  0  0  0  0
   -0.6162   -3.8234    6.0681 C   0  0  0  0  0  0  0  0  0  0  0  0
   -1.1979   -4.8015    6.8436 N   0  0  0  0  0  0  0  0  0  0  0  0
   -1.4720   -4.2837    8.0620 C   0  0  0  0  0  0  0  0  0  0  0  0
   -2.0237   -4.6842    9.2576 C   0  0  0  0  0  0  0  0  0  0  0  0
   -2.1350   -3.8100   10.3317 C   0  0  0  0  0  0  0  0  0  0  0  0
   -1.7003   -2.4800   10.2740 C   0  0  0  0  0  0  0  0  0  0  0  0
   -1.1555   -2.1087    9.0718 C   0  0  0  0  0  0  0  0  0  0  0  0
   -1.0497   -2.9808    8.0158 C   0  0  0  0  0  0  0  0  0  0  0  0
   -0.6551   -0.7667    8.8403 C   0  0  0  0  0  0  0  0  0  0  0  0
   -0.7982    0.1335    9.7783 C   0  0  0  0  0  0  0  0  0  0  0  0
   -1.9329    0.7418    6.6872 C   0  0  0  0  0  0  0  0  0  0  0  0
  1  2  1  0
  2  3  1  0
  3  4  1  0
  4  5  1  0
  3  6  1  0
  6  7  2  0
  6  8  1  0
  8  9  1  0
  9 10  1  0
 10 11  1  0
 11 12  1  0
 12 13  1  0
 13 14  1  0
 14 15  2  0
 15 16  1  0
 16 17  1  0
 17 18  2  0
 18 19  1  0
 19 20  2  0
 20 21  1  0
 21 22  2  0
 21 23  1  0
 23 24  2  0
 11 25  1  0
 24  9  1  0
 23 12  1  0
 22 14  1  0
 22 17  1  0
M  END
$$$$
