
     RDKit          3D

 41 45  0  0  0  0  0  0  0  0999 V2000
   15.3377   -2.0213   -6.5952 C   0  0  0  0  0  0  0  0  0  0  0  0
   16.2113   -0.9584   -7.2743 C   0  0  0  0  0  0  0  0  0  0  0  0
   15.3557   -0.1551   -8.1492 C   0  0  0  0  0  0  0  0  0  0  0  0
   15.8715    0.9527   -8.7736 C   0  0  0  0  0  0  0  0  0  0  0  0
   15.0968    1.7622   -9.6230 C   0  0  0  0  0  0  0  0  0  0  0  0
   13.7843    1.4465   -9.8434 C   0  0  0  0  0  0  0  0  0  0  0  0
   13.2512    0.3391   -9.2253 C   0  0  0  0  0  0  0  0  0  0  0  0
   14.0217   -0.4305   -8.4059 C   0  0  0  0  0  0  0  0  0  0  0  0
   12.9125    2.2435  -10.7054 C   0  0  0  0  0  0  0  0  0  0  0  0
   11.6783    1.9230  -10.8332 O   0  0  0  0  0  0  0  0  0  0  0  0
   13.3303    3.3768  -11.4329 N   0  0  0  0  0  0  0  0  0  0  0  0
   12.7578    3.8258  -12.6692 C   0  0  0  0  0  0  0  0  0  0  0  0
   11.3232    3.4298  -12.7582 C   0  0  0  0  0  0  0  0  0  0  0  0
   10.4236    4.5823  -12.9909 C   0  0  0  0  0  0  0  0  0  0  0  0
    9.2608    4.5516  -12.5352 O   0  0  0  0  0  0  0  0  0  0  0  0
   10.8353    5.6894  -13.6987 O   0  0  0  0  0  0  0  0  0  0  0  0
   16.9391   -0.2013   -6.2870 N   0  0  0  0  0  0  0  0  0  0  0  0
   18.2409    0.1302   -6.3686 C   0  0  0  0  0  0  0  0  0  0  0  0
   18.5495    0.8597   -5.2393 C   0  0  0  0  0  0  0  0  0  0  0  0
   17.3834    0.9516   -4.4781 C   0  0  0  0  0  0  0  0  0  0  0  0
   16.4648    0.2919   -5.1719 N   0  0  0  0  0  0  0  0  0  0  0  0
   17.2238    1.6325   -3.1967 C   0  0  0  0  0  0  0  0  0  0  0  0
   18.2768    2.3494   -2.6599 C   0  0  0  0  0  0  0  0  0  0  0  0
   18.0984    2.9871   -1.4427 C   0  0  0  0  0  0  0  0  0  0  0  0
   16.9058    2.9297   -0.7504 C   0  0  0  0  0  0  0  0  0  0  0  0
   15.8578    2.2137   -1.2887 C   0  0  0  0  0  0  0  0  0  0  0  0
   16.0390    1.5830   -2.4959 C   0  0  0  0  0  0  0  0  0  0  0  0
   14.3026    2.0715   -0.5011 Cl  0  0  0  0  0  0  0  0  0  0  0  0
   19.4016    3.9132   -0.7121 Cl  0  0  0  0  0  0  0  0  0  0  0  0
   19.2324   -0.1525   -7.3992 C   0  0  0  0  0  0  0  0  0  0  0  0
   19.5032   -1.4369   -7.7924 C   0  0  0  0  0  0  0  0  0  0  0  0
   20.4405   -1.6809   -8.7894 C   0  0  0  0  0  0  0  0  0  0  0  0
   21.1008   -0.6061   -9.3828 C   0  0  0  0  0  0  0  0  0  0  0  0
   20.8342    0.6913   -8.9916 C   0  0  0  0  0  0  0  0  0  0  0  0
   19.9049    0.9161   -8.0050 C   0  0  0  0  0  0  0  0  0  0  0  0
   22.0235   -0.8685  -10.3692 C   0  0  0  0  0  0  0  0  0  0  0  0
   22.3258   -2.1586  -10.7997 C   0  0  0  0  0  0  0  0  0  0  0  0
   21.6474   -3.1893  -10.1834 C   0  0  0  0  0  0  0  0  0  0  0  0
   20.7211   -2.9667   -9.1969 C   0  0  0  0  0  0  0  0  0  0  0  0
   23.2656   -2.3859  -11.8011 O   0  0  0  0  0  0  0  0  0  0  0  0
   24.2402   -1.4197  -12.0897 C   0  0  0  0  0  0  0  0  0  0  0  0
  1  2  1  0
  2  3  1  0
  3  4  2  0
  4  5  1  0
  5  6  2  0
  6  7  1  0
  7  8  2  0
  6  9  1  0
  9 10  2  0
  9 11  1  0
 11 12  1  0
 12 13  1  0
 13 14  1  0
 14 15  2  0
 14 16  1  0
  2 17  1  0
 17 18  1  0
 18 19  2  0
 19 20  1  0
 20 21  2  0
 20 22  1  0
 22 23  2  0
 23 24  1  0
 24 25  2  0
 25 26  1  0
 26 27  2  0
 26 28  1  0
 24 29  1  0
 18 30  1  0
 30 31  2  0
 31 32  1  0
 32 33  2  0
 33 34  1  0
 34 35  2  0
 33 36  1  0
 36 37  2  0
 37 38  1  0
 38 39  2  0
 37 40  1  0
 40 41  1  0
  8  3  1  0
 21 17  1  0
 27 22  1  0
 35 30  1  0
 39 32  1  0
M  END
$$$$
