
     RDKit          3D

 41 45  0  0  0  0  0  0  0  0999 V2000
   15.3551    1.0159   -5.3297 C   0  0  0  0  0  0  0  0  0  0  0  0
   15.8936    0.5151   -6.6763 C   0  0  0  0  0  0  0  0  0  0  0  0
   14.9855    0.9721   -7.7295 C   0  0  0  0  0  0  0  0  0  0  0  0
   15.2746    2.1187   -8.4259 C   0  0  0  0  0  0  0  0  0  0  0  0
   14.4387    2.6062   -9.4460 C   0  0  0  0  0  0  0  0  0  0  0  0
   13.2967    1.9246   -9.7655 C   0  0  0  0  0  0  0  0  0  0  0  0
   12.9918    0.7730   -9.0775 C   0  0  0  0  0  0  0  0  0  0  0  0
   13.8173    0.3200   -8.0922 C   0  0  0  0  0  0  0  0  0  0  0  0
   12.3730    2.3724  -10.8071 C   0  0  0  0  0  0  0  0  0  0  0  0
   11.2526    1.7708  -10.9656 O   0  0  0  0  0  0  0  0  0  0  0  0
   12.6196    3.4502  -11.6821 N   0  0  0  0  0  0  0  0  0  0  0  0
   11.8187    3.7928  -12.8217 C   0  0  0  0  0  0  0  0  0  0  0  0
   10.4152    4.0818  -12.4097 C   0  0  0  0  0  0  0  0  0  0  0  0
    9.4691    4.0684  -13.5481 C   0  0  0  0  0  0  0  0  0  0  0  0
    8.5748    4.9386  -13.6098 O   0  0  0  0  0  0  0  0  0  0  0  0
    9.5480    3.1193  -14.5427 O   0  0  0  0  0  0  0  0  0  0  0  0
   17.2660    0.9199   -6.8500 N   0  0  0  0  0  0  0  0  0  0  0  0
   18.1630    0.3014   -7.6400 C   0  0  0  0  0  0  0  0  0  0  0  0
   19.3482    1.0000   -7.5393 C   0  0  0  0  0  0  0  0  0  0  0  0
   19.1269    2.0597   -6.6585 C   0  0  0  0  0  0  0  0  0  0  0  0
   17.8578    1.9433   -6.2894 N   0  0  0  0  0  0  0  0  0  0  0  0
   20.0935    3.0719   -6.2437 C   0  0  0  0  0  0  0  0  0  0  0  0
   19.7610    3.9806   -5.2565 C   0  0  0  0  0  0  0  0  0  0  0  0
   20.6974    4.9304   -4.8807 C   0  0  0  0  0  0  0  0  0  0  0  0
   21.9486    4.9985   -5.4591 C   0  0  0  0  0  0  0  0  0  0  0  0
   22.2768    4.0907   -6.4435 C   0  0  0  0  0  0  0  0  0  0  0  0
   21.3454    3.1505   -6.8130 C   0  0  0  0  0  0  0  0  0  0  0  0
   23.8307    4.0822   -7.2462 Cl  0  0  0  0  0  0  0  0  0  0  0  0
   20.3306    6.1108   -3.6309 Cl  0  0  0  0  0  0  0  0  0  0  0  0
   18.0299   -0.8729   -8.4934 C   0  0  0  0  0  0  0  0  0  0  0  0
   17.4036   -2.0078   -8.0490 C   0  0  0  0  0  0  0  0  0  0  0  0
   17.2734   -3.1092   -8.8869 C   0  0  0  0  0  0  0  0  0  0  0  0
   17.7868   -3.0461  -10.1814 C   0  0  0  0  0  0  0  0  0  0  0  0
   18.4201   -1.9063  -10.6366 C   0  0  0  0  0  0  0  0  0  0  0  0
   18.5406   -0.8259   -9.7966 C   0  0  0  0  0  0  0  0  0  0  0  0
   17.6460   -4.1462  -10.9959 C   0  0  0  0  0  0  0  0  0  0  0  0
   17.0140   -5.3175  -10.5841 C   0  0  0  0  0  0  0  0  0  0  0  0
   16.5223   -5.3327   -9.2954 C   0  0  0  0  0  0  0  0  0  0  0  0
   16.6438   -4.2559   -8.4549 C   0  0  0  0  0  0  0  0  0  0  0  0
   16.8898   -6.4110  -11.4363 O   0  0  0  0  0  0  0  0  0  0  0  0
   17.2119   -6.2893  -12.7957 C   0  0  0  0  0  0  0  0  0  0  0  0
  1  2  1  0
  2  3  1  0
  3  4  2  0
  4  5  1  0
  5  6  2  0
  6  7  1  0
  7  8  2  0
  6  9  1  0
  9 10  2  0
  9 11  1  0
 11 12  1  0
 12 13  1  0
 13 14  1  0
 14 15  2  0
 14 16  1  0
  2 17  1  0
 17 18  1  0
 18 19  2  0
 19 20  1  0
 20 21  2  0
 20 22  1  0
 22 23  2  0
 23 24  1  0
 24 25  2  0
 25 26  1  0
 26 27  2  0
 26 28  1  0
 24 29  1  0
 18 30  1  0
 30 31  2  0
 31 32  1  0
 32 33  2  0
 33 34  1  0
 34 35  2  0
 33 36  1  0
 36 37  2  0
 37 38  1  0
 38 39  2  0
 37 40  1  0
 40 41  1  0
  8  3  1  0
 21 17  1  0
 27 22  1  0
 35 30  1  0
 39 32  1  0
M  END
$$$$
