
     RDKit          3D

 41 45  0  0  0  0  0  0  0  0999 V2000
   14.6110    1.3516   -5.7203 C   0  0  0  0  0  0  0  0  0  0  0  0
   15.1945    1.0055   -7.0966 C   0  0  0  0  0  0  0  0  0  0  0  0
   14.3839    1.6725   -8.1168 C   0  0  0  0  0  0  0  0  0  0  0  0
   14.9448    2.6522   -8.8970 C   0  0  0  0  0  0  0  0  0  0  0  0
   14.2145    3.3279   -9.8906 C   0  0  0  0  0  0  0  0  0  0  0  0
   12.9009    3.0077  -10.0973 C   0  0  0  0  0  0  0  0  0  0  0  0
   12.3229    2.0277   -9.3241 C   0  0  0  0  0  0  0  0  0  0  0  0
   13.0508    1.3866   -8.3666 C   0  0  0  0  0  0  0  0  0  0  0  0
   12.0737    3.6710  -11.1044 C   0  0  0  0  0  0  0  0  0  0  0  0
   12.5378    4.6785  -11.7462 O   0  0  0  0  0  0  0  0  0  0  0  0
   10.7616    3.2802  -11.4421 N   0  0  0  0  0  0  0  0  0  0  0  0
    9.9702    3.8533  -12.4922 C   0  0  0  0  0  0  0  0  0  0  0  0
   10.3229    3.2456  -13.8072 C   0  0  0  0  0  0  0  0  0  0  0  0
    9.1414    3.0210  -14.6704 C   0  0  0  0  0  0  0  0  0  0  0  0
    9.3000    2.5281  -15.8074 O   0  0  0  0  0  0  0  0  0  0  0  0
    7.8692    3.3426  -14.2528 O   0  0  0  0  0  0  0  0  0  0  0  0
   16.5989    1.3266   -7.1415 N   0  0  0  0  0  0  0  0  0  0  0  0
   17.5239    0.6616   -7.8578 C   0  0  0  0  0  0  0  0  0  0  0  0
   18.7354    1.2848   -7.6418 C   0  0  0  0  0  0  0  0  0  0  0  0
   18.5007    2.3477   -6.7683 C   0  0  0  0  0  0  0  0  0  0  0  0
   17.1989    2.3062   -6.5153 N   0  0  0  0  0  0  0  0  0  0  0  0
   19.4858    3.2943   -6.2542 C   0  0  0  0  0  0  0  0  0  0  0  0
   20.7760    3.2858   -6.7502 C   0  0  0  0  0  0  0  0  0  0  0  0
   21.6912    4.1956   -6.2455 C   0  0  0  0  0  0  0  0  0  0  0  0
   21.3570    5.1082   -5.2656 C   0  0  0  0  0  0  0  0  0  0  0  0
   20.0692    5.1137   -4.7730 C   0  0  0  0  0  0  0  0  0  0  0  0
   19.1650    4.2099   -5.2763 C   0  0  0  0  0  0  0  0  0  0  0  0
   19.5332    6.2233   -3.5318 Cl  0  0  0  0  0  0  0  0  0  0  0  0
   23.3457    4.2315   -6.8384 Cl  0  0  0  0  0  0  0  0  0  0  0  0
   17.3970   -0.4940   -8.7372 C   0  0  0  0  0  0  0  0  0  0  0  0
   16.7503   -1.6311   -8.3288 C   0  0  0  0  0  0  0  0  0  0  0  0
   16.6267   -2.7142   -9.1911 C   0  0  0  0  0  0  0  0  0  0  0  0
   17.1676   -2.6306  -10.4733 C   0  0  0  0  0  0  0  0  0  0  0  0
   17.8214   -1.4887  -10.8923 C   0  0  0  0  0  0  0  0  0  0  0  0
   17.9352   -0.4265  -10.0284 C   0  0  0  0  0  0  0  0  0  0  0  0
   17.0328   -3.7128  -11.3124 C   0  0  0  0  0  0  0  0  0  0  0  0
   16.3808   -4.8855  -10.9373 C   0  0  0  0  0  0  0  0  0  0  0  0
   15.8623   -4.9213   -9.6596 C   0  0  0  0  0  0  0  0  0  0  0  0
   15.9770   -3.8627   -8.7953 C   0  0  0  0  0  0  0  0  0  0  0  0
   16.2636   -5.9606  -11.8137 O   0  0  0  0  0  0  0  0  0  0  0  0
   17.1974   -6.1385  -12.8446 C   0  0  0  0  0  0  0  0  0  0  0  0
  1  2  1  0
  2  3  1  0
  3  4  2  0
  4  5  1  0
  5  6  2  0
  6  7  1  0
  7  8  2  0
  6  9  1  0
  9 10  2  0
  9 11  1  0
 11 12  1  0
 12 13  1  0
 13 14  1  0
 14 15  2  0
 14 16  1  0
  2 17  1  0
 17 18  1  0
 18 19  2  0
 19 20  1  0
 20 21  2  0
 20 22  1  0
 22 23  2  0
 23 24  1  0
 24 25  2  0
 25 26  1  0
 26 27  2  0
 26 28  1  0
 24 29  1  0
 18 30  1  0
 30 31  2  0
 31 32  1  0
 32 33  2  0
 33 34  1  0
 34 35  2  0
 33 36  1  0
 36 37  2  0
 37 38  1  0
 38 39  2  0
 37 40  1  0
 40 41  1  0
  8  3  1  0
 21 17  1  0
 27 22  1  0
 35 30  1  0
 39 32  1  0
M  END
$$$$
