
     RDKit          3D

 41 45  0  0  0  0  0  0  0  0999 V2000
   14.0205    1.8966   -5.3284 C   0  0  0  0  0  0  0  0  0  0  0  0
   14.8988    1.5138   -6.5268 C   0  0  0  0  0  0  0  0  0  0  0  0
   14.2166    1.9435   -7.7486 C   0  0  0  0  0  0  0  0  0  0  0  0
   13.3675    1.0791   -8.3928 C   0  0  0  0  0  0  0  0  0  0  0  0
   12.6869    1.4363   -9.5702 C   0  0  0  0  0  0  0  0  0  0  0  0
   12.8675    2.6836  -10.1017 C   0  0  0  0  0  0  0  0  0  0  0  0
   13.7151    3.5628   -9.4684 C   0  0  0  0  0  0  0  0  0  0  0  0
   14.3643    3.1939   -8.3283 C   0  0  0  0  0  0  0  0  0  0  0  0
   12.2026    3.1257  -11.3268 C   0  0  0  0  0  0  0  0  0  0  0  0
   12.4728    4.2785  -11.8171 O   0  0  0  0  0  0  0  0  0  0  0  0
   11.2561    2.3622  -12.0406 N   0  0  0  0  0  0  0  0  0  0  0  0
   10.9267    2.5346  -13.4260 C   0  0  0  0  0  0  0  0  0  0  0  0
   10.2275    3.8336  -13.6420 C   0  0  0  0  0  0  0  0  0  0  0  0
    8.9472    3.6817  -14.3694 C   0  0  0  0  0  0  0  0  0  0  0  0
    8.9313    3.8106  -15.6120 O   0  0  0  0  0  0  0  0  0  0  0  0
    7.7704    3.4024  -13.7111 O   0  0  0  0  0  0  0  0  0  0  0  0
   16.2290    2.0445   -6.3641 N   0  0  0  0  0  0  0  0  0  0  0  0
   17.3254    1.5992   -7.0050 C   0  0  0  0  0  0  0  0  0  0  0  0
   18.3878    2.3725   -6.5853 C   0  0  0  0  0  0  0  0  0  0  0  0
   17.8860    3.2971   -5.6682 C   0  0  0  0  0  0  0  0  0  0  0  0
   16.5874    3.0364   -5.5899 N   0  0  0  0  0  0  0  0  0  0  0  0
   18.6400    4.3254   -4.9575 C   0  0  0  0  0  0  0  0  0  0  0  0
   19.8963    4.6918   -5.4026 C   0  0  0  0  0  0  0  0  0  0  0  0
   20.5903    5.6712   -4.7103 C   0  0  0  0  0  0  0  0  0  0  0  0
   20.0688    6.2914   -3.5930 C   0  0  0  0  0  0  0  0  0  0  0  0
   18.8155    5.9233   -3.1519 C   0  0  0  0  0  0  0  0  0  0  0  0
   18.1308    4.9518   -3.8413 C   0  0  0  0  0  0  0  0  0  0  0  0
   18.0554    6.6397   -1.7490 Cl  0  0  0  0  0  0  0  0  0  0  0  0
   22.1913    6.1780   -5.2300 Cl  0  0  0  0  0  0  0  0  0  0  0  0
   17.4883    0.5298   -7.9822 C   0  0  0  0  0  0  0  0  0  0  0  0
   16.7502   -0.6222   -7.9056 C   0  0  0  0  0  0  0  0  0  0  0  0
   16.9105   -1.6210   -8.8589 C   0  0  0  0  0  0  0  0  0  0  0  0
   17.8294   -1.4377   -9.8911 C   0  0  0  0  0  0  0  0  0  0  0  0
   18.5777   -0.2800   -9.9749 C   0  0  0  0  0  0  0  0  0  0  0  0
   18.4076    0.6981   -9.0252 C   0  0  0  0  0  0  0  0  0  0  0  0
   17.9718   -2.4373  -10.8259 C   0  0  0  0  0  0  0  0  0  0  0  0
   17.2393   -3.6217  -10.7858 C   0  0  0  0  0  0  0  0  0  0  0  0
   16.3428   -3.7576   -9.7464 C   0  0  0  0  0  0  0  0  0  0  0  0
   16.1735   -2.7832   -8.7963 C   0  0  0  0  0  0  0  0  0  0  0  0
   17.4102   -4.6114  -11.7496 O   0  0  0  0  0  0  0  0  0  0  0  0
   18.5862   -4.6618  -12.5117 C   0  0  0  0  0  0  0  0  0  0  0  0
  1  2  1  0
  2  3  1  0
  3  4  2  0
  4  5  1  0
  5  6  2  0
  6  7  1  0
  7  8  2  0
  6  9  1  0
  9 10  2  0
  9 11  1  0
 11 12  1  0
 12 13  1  0
 13 14  1  0
 14 15  2  0
 14 16  1  0
  2 17  1  0
 17 18  1  0
 18 19  2  0
 19 20  1  0
 20 21  2  0
 20 22  1  0
 22 23  2  0
 23 24  1  0
 24 25  2  0
 25 26  1  0
 26 27  2  0
 26 28  1  0
 24 29  1  0
 18 30  1  0
 30 31  2  0
 31 32  1  0
 32 33  2  0
 33 34  1  0
 34 35  2  0
 33 36  1  0
 36 37  2  0
 37 38  1  0
 38 39  2  0
 37 40  1  0
 40 41  1  0
  8  3  1  0
 21 17  1  0
 27 22  1  0
 35 30  1  0
 39 32  1  0
M  END
$$$$
