
     RDKit          3D

 41 45  0  0  0  0  0  0  0  0999 V2000
   14.0791    1.7286   -5.7597 C   0  0  0  0  0  0  0  0  0  0  0  0
   14.8450    1.1396   -6.9516 C   0  0  0  0  0  0  0  0  0  0  0  0
   14.1427    1.5197   -8.1784 C   0  0  0  0  0  0  0  0  0  0  0  0
   14.4185    2.7250   -8.7738 C   0  0  0  0  0  0  0  0  0  0  0  0
   13.7741    3.1434   -9.9514 C   0  0  0  0  0  0  0  0  0  0  0  0
   12.8396    2.3319  -10.5336 C   0  0  0  0  0  0  0  0  0  0  0  0
   12.5510    1.1201   -9.9500 C   0  0  0  0  0  0  0  0  0  0  0  0
   13.1885    0.7360   -8.8082 C   0  0  0  0  0  0  0  0  0  0  0  0
   12.1208    2.7004  -11.7527 C   0  0  0  0  0  0  0  0  0  0  0  0
   11.7557    3.9154  -11.9336 O   0  0  0  0  0  0  0  0  0  0  0  0
   11.7851    1.7991  -12.7837 N   0  0  0  0  0  0  0  0  0  0  0  0
   10.6945    1.9586  -13.7019 C   0  0  0  0  0  0  0  0  0  0  0  0
    9.4119    2.1491  -12.9660 C   0  0  0  0  0  0  0  0  0  0  0  0
    8.7137    3.3984  -13.3445 C   0  0  0  0  0  0  0  0  0  0  0  0
    7.6206    3.3296  -13.9454 O   0  0  0  0  0  0  0  0  0  0  0  0
    9.2389    4.6373  -13.0519 O   0  0  0  0  0  0  0  0  0  0  0  0
   16.2295    1.5377   -6.9049 N   0  0  0  0  0  0  0  0  0  0  0  0
   17.2346    0.9269   -7.5590 C   0  0  0  0  0  0  0  0  0  0  0  0
   18.3932    1.6152   -7.2646 C   0  0  0  0  0  0  0  0  0  0  0  0
   18.0437    2.6608   -6.4088 C   0  0  0  0  0  0  0  0  0  0  0  0
   16.7324    2.5468   -6.2413 N   0  0  0  0  0  0  0  0  0  0  0  0
   18.9394    3.6586   -5.8318 C   0  0  0  0  0  0  0  0  0  0  0  0
   18.5029    4.4600   -4.7934 C   0  0  0  0  0  0  0  0  0  0  0  0
   19.3736    5.3985   -4.2631 C   0  0  0  0  0  0  0  0  0  0  0  0
   20.6597    5.5589   -4.7373 C   0  0  0  0  0  0  0  0  0  0  0  0
   21.0917    4.7580   -5.7731 C   0  0  0  0  0  0  0  0  0  0  0  0
   20.2252    3.8286   -6.2958 C   0  0  0  0  0  0  0  0  0  0  0  0
   22.6986    4.8725   -6.4541 Cl  0  0  0  0  0  0  0  0  0  0  0  0
   18.8739    6.4447   -2.9418 Cl  0  0  0  0  0  0  0  0  0  0  0  0
   17.2292   -0.2312   -8.4443 C   0  0  0  0  0  0  0  0  0  0  0  0
   16.7908   -1.4553   -8.0116 C   0  0  0  0  0  0  0  0  0  0  0  0
   16.7788   -2.5413   -8.8792 C   0  0  0  0  0  0  0  0  0  0  0  0
   17.2175   -2.3711  -10.1914 C   0  0  0  0  0  0  0  0  0  0  0  0
   17.6616   -1.1410  -10.6350 C   0  0  0  0  0  0  0  0  0  0  0  0
   17.6672   -0.0772   -9.7656 C   0  0  0  0  0  0  0  0  0  0  0  0
   17.1958   -3.4580  -11.0350 C   0  0  0  0  0  0  0  0  0  0  0  0
   16.7554   -4.7179  -10.6357 C   0  0  0  0  0  0  0  0  0  0  0  0
   16.3312   -4.8375   -9.3287 C   0  0  0  0  0  0  0  0  0  0  0  0
   16.3382   -3.7772   -8.4590 C   0  0  0  0  0  0  0  0  0  0  0  0
   16.7476   -5.7949  -11.5176 O   0  0  0  0  0  0  0  0  0  0  0  0
   17.0051   -5.5950  -12.8815 C   0  0  0  0  0  0  0  0  0  0  0  0
  1  2  1  0
  2  3  1  0
  3  4  2  0
  4  5  1  0
  5  6  2  0
  6  7  1  0
  7  8  2  0
  6  9  1  0
  9 10  2  0
  9 11  1  0
 11 12  1  0
 12 13  1  0
 13 14  1  0
 14 15  2  0
 14 16  1  0
  2 17  1  0
 17 18  1  0
 18 19  2  0
 19 20  1  0
 20 21  2  0
 20 22  1  0
 22 23  2  0
 23 24  1  0
 24 25  2  0
 25 26  1  0
 26 27  2  0
 26 28  1  0
 24 29  1  0
 18 30  1  0
 30 31  2  0
 31 32  1  0
 32 33  2  0
 33 34  1  0
 34 35  2  0
 33 36  1  0
 36 37  2  0
 37 38  1  0
 38 39  2  0
 37 40  1  0
 40 41  1  0
  8  3  1  0
 21 17  1  0
 27 22  1  0
 35 30  1  0
 39 32  1  0
M  END
$$$$
