
     RDKit          3D

 41 45  0  0  0  0  0  0  0  0999 V2000
   19.4522    0.3033  -10.1166 C   0  0  0  0  0  0  0  0  0  0  0  0
   18.9696   -0.4224   -8.8537 C   0  0  0  0  0  0  0  0  0  0  0  0
   17.7080    0.1877   -8.4306 C   0  0  0  0  0  0  0  0  0  0  0  0
   16.5176   -0.3654   -8.8310 C   0  0  0  0  0  0  0  0  0  0  0  0
   15.2760    0.1782   -8.4570 C   0  0  0  0  0  0  0  0  0  0  0  0
   15.2388    1.2948   -7.6679 C   0  0  0  0  0  0  0  0  0  0  0  0
   16.4229    1.8621   -7.2574 C   0  0  0  0  0  0  0  0  0  0  0  0
   17.6145    1.3174   -7.6329 C   0  0  0  0  0  0  0  0  0  0  0  0
   13.9881    1.9235   -7.2448 C   0  0  0  0  0  0  0  0  0  0  0  0
   12.9033    1.6730   -7.8795 O   0  0  0  0  0  0  0  0  0  0  0  0
   13.8708    2.8130   -6.1571 N   0  0  0  0  0  0  0  0  0  0  0  0
   12.6383    3.2087   -5.5389 C   0  0  0  0  0  0  0  0  0  0  0  0
   12.0088    2.0543   -4.8361 C   0  0  0  0  0  0  0  0  0  0  0  0
   10.6397    1.7658   -5.3198 C   0  0  0  0  0  0  0  0  0  0  0  0
    9.7274    1.5674   -4.4896 O   0  0  0  0  0  0  0  0  0  0  0  0
   10.3447    1.7093   -6.6636 O   0  0  0  0  0  0  0  0  0  0  0  0
   18.9006   -1.8432   -9.0867 N   0  0  0  0  0  0  0  0  0  0  0  0
   18.9122   -2.7877   -8.1282 C   0  0  0  0  0  0  0  0  0  0  0  0
   18.8179   -4.0115   -8.7576 C   0  0  0  0  0  0  0  0  0  0  0  0
   18.7501   -3.7638  -10.1294 C   0  0  0  0  0  0  0  0  0  0  0  0
   18.8055   -2.4432  -10.2454 N   0  0  0  0  0  0  0  0  0  0  0  0
   18.6402   -4.7551  -11.1953 C   0  0  0  0  0  0  0  0  0  0  0  0
   18.9767   -6.0732  -10.9496 C   0  0  0  0  0  0  0  0  0  0  0  0
   18.8623   -6.9942  -11.9786 C   0  0  0  0  0  0  0  0  0  0  0  0
   18.4242   -6.6389  -13.2382 C   0  0  0  0  0  0  0  0  0  0  0  0
   18.0896   -5.3233  -13.4796 C   0  0  0  0  0  0  0  0  0  0  0  0
   18.2045   -4.4134  -12.4565 C   0  0  0  0  0  0  0  0  0  0  0  0
   17.5238   -4.7586  -15.0353 Cl  0  0  0  0  0  0  0  0  0  0  0  0
   19.2754   -8.6838  -11.7245 Cl  0  0  0  0  0  0  0  0  0  0  0  0
   18.9912   -2.6705   -6.6773 C   0  0  0  0  0  0  0  0  0  0  0  0
   20.0641   -2.0732   -6.0692 C   0  0  0  0  0  0  0  0  0  0  0  0
   20.1092   -1.9576   -4.6848 C   0  0  0  0  0  0  0  0  0  0  0  0
   19.0528   -2.4560   -3.9238 C   0  0  0  0  0  0  0  0  0  0  0  0
   17.9682   -3.0600   -4.5289 C   0  0  0  0  0  0  0  0  0  0  0  0
   17.9383   -3.1665   -5.8983 C   0  0  0  0  0  0  0  0  0  0  0  0
   19.1155   -2.3299   -2.5550 C   0  0  0  0  0  0  0  0  0  0  0  0
   20.1862   -1.7273   -1.8982 C   0  0  0  0  0  0  0  0  0  0  0  0
   21.2074   -1.2496   -2.6929 C   0  0  0  0  0  0  0  0  0  0  0  0
   21.1800   -1.3571   -4.0597 C   0  0  0  0  0  0  0  0  0  0  0  0
   20.2150   -1.6174   -0.5109 O   0  0  0  0  0  0  0  0  0  0  0  0
   19.0966   -1.9835    0.2517 C   0  0  0  0  0  0  0  0  0  0  0  0
  1  2  1  0
  2  3  1  0
  3  4  2  0
  4  5  1  0
  5  6  2  0
  6  7  1  0
  7  8  2  0
  6  9  1  0
  9 10  2  0
  9 11  1  0
 11 12  1  0
 12 13  1  0
 13 14  1  0
 14 15  2  0
 14 16  1  0
  2 17  1  0
 17 18  1  0
 18 19  2  0
 19 20  1  0
 20 21  2  0
 20 22  1  0
 22 23  2  0
 23 24  1  0
 24 25  2  0
 25 26  1  0
 26 27  2  0
 26 28  1  0
 24 29  1  0
 18 30  1  0
 30 31  2  0
 31 32  1  0
 32 33  2  0
 33 34  1  0
 34 35  2  0
 33 36  1  0
 36 37  2  0
 37 38  1  0
 38 39  2  0
 37 40  1  0
 40 41  1  0
  8  3  1  0
 21 17  1  0
 27 22  1  0
 35 30  1  0
 39 32  1  0
M  END
$$$$
