
     RDKit          3D

 41 45  0  0  0  0  0  0  0  0999 V2000
   17.4747    1.5156   -5.4584 C   0  0  0  0  0  0  0  0  0  0  0  0
   17.3167    0.8204   -6.8171 C   0  0  0  0  0  0  0  0  0  0  0  0
   15.9154    0.9300   -7.2257 C   0  0  0  0  0  0  0  0  0  0  0  0
   15.5276    1.9507   -8.0570 C   0  0  0  0  0  0  0  0  0  0  0  0
   14.1960    2.1067   -8.4806 C   0  0  0  0  0  0  0  0  0  0  0  0
   13.2454    1.2186   -8.0581 C   0  0  0  0  0  0  0  0  0  0  0  0
   13.6169    0.1892   -7.2245 C   0  0  0  0  0  0  0  0  0  0  0  0
   14.9140    0.0584   -6.8269 C   0  0  0  0  0  0  0  0  0  0  0  0
   11.8395    1.3192   -8.4476 C   0  0  0  0  0  0  0  0  0  0  0  0
   11.5093    2.0305   -9.4613 O   0  0  0  0  0  0  0  0  0  0  0  0
   10.7785    0.6750   -7.7787 N   0  0  0  0  0  0  0  0  0  0  0  0
    9.4334    0.5699   -8.2658 C   0  0  0  0  0  0  0  0  0  0  0  0
    8.9986    1.8526   -8.8890 C   0  0  0  0  0  0  0  0  0  0  0  0
    8.6430    1.7042  -10.3183 C   0  0  0  0  0  0  0  0  0  0  0  0
    8.2827    2.7098  -10.9661 O   0  0  0  0  0  0  0  0  0  0  0  0
    8.6980    0.4839  -10.9541 O   0  0  0  0  0  0  0  0  0  0  0  0
   18.2619    1.3526   -7.7662 N   0  0  0  0  0  0  0  0  0  0  0  0
   18.8629    0.6463   -8.7414 C   0  0  0  0  0  0  0  0  0  0  0  0
   19.6784    1.5165   -9.4346 C   0  0  0  0  0  0  0  0  0  0  0  0
   19.5434    2.7704   -8.8369 C   0  0  0  0  0  0  0  0  0  0  0  0
   18.6790    2.5900   -7.8465 N   0  0  0  0  0  0  0  0  0  0  0  0
   20.2142    4.0061   -9.2295 C   0  0  0  0  0  0  0  0  0  0  0  0
   21.0552    4.0166  -10.3265 C   0  0  0  0  0  0  0  0  0  0  0  0
   21.6787    5.2030  -10.6783 C   0  0  0  0  0  0  0  0  0  0  0  0
   21.4875    6.3722   -9.9702 C   0  0  0  0  0  0  0  0  0  0  0  0
   20.6481    6.3580   -8.8766 C   0  0  0  0  0  0  0  0  0  0  0  0
   20.0319    5.1795   -8.5313 C   0  0  0  0  0  0  0  0  0  0  0  0
   20.3315    7.7777   -7.9053 Cl  0  0  0  0  0  0  0  0  0  0  0  0
   22.7582    5.2764  -12.0636 Cl  0  0  0  0  0  0  0  0  0  0  0  0
   18.7494   -0.7605   -9.1062 C   0  0  0  0  0  0  0  0  0  0  0  0
   17.5398   -1.4042   -9.0897 C   0  0  0  0  0  0  0  0  0  0  0  0
   17.4535   -2.7417   -9.4582 C   0  0  0  0  0  0  0  0  0  0  0  0
   18.6094   -3.4192   -9.8433 C   0  0  0  0  0  0  0  0  0  0  0  0
   19.8323   -2.7779   -9.8619 C   0  0  0  0  0  0  0  0  0  0  0  0
   19.9013   -1.4556   -9.4952 C   0  0  0  0  0  0  0  0  0  0  0  0
   18.5025   -4.7421  -10.2064 C   0  0  0  0  0  0  0  0  0  0  0  0
   17.2922   -5.4321  -10.2060 C   0  0  0  0  0  0  0  0  0  0  0  0
   16.1765   -4.7204   -9.8175 C   0  0  0  0  0  0  0  0  0  0  0  0
   16.2439   -3.4011   -9.4490 C   0  0  0  0  0  0  0  0  0  0  0  0
   17.2224   -6.7711  -10.5800 O   0  0  0  0  0  0  0  0  0  0  0  0
   18.3731   -7.4465  -11.0116 C   0  0  0  0  0  0  0  0  0  0  0  0
  1  2  1  0
  2  3  1  0
  3  4  2  0
  4  5  1  0
  5  6  2  0
  6  7  1  0
  7  8  2  0
  6  9  1  0
  9 10  2  0
  9 11  1  0
 11 12  1  0
 12 13  1  0
 13 14  1  0
 14 15  2  0
 14 16  1  0
  2 17  1  0
 17 18  1  0
 18 19  2  0
 19 20  1  0
 20 21  2  0
 20 22  1  0
 22 23  2  0
 23 24  1  0
 24 25  2  0
 25 26  1  0
 26 27  2  0
 26 28  1  0
 24 29  1  0
 18 30  1  0
 30 31  2  0
 31 32  1  0
 32 33  2  0
 33 34  1  0
 34 35  2  0
 33 36  1  0
 36 37  2  0
 37 38  1  0
 38 39  2  0
 37 40  1  0
 40 41  1  0
  8  3  1  0
 21 17  1  0
 27 22  1  0
 35 30  1  0
 39 32  1  0
M  END
$$$$
