
     RDKit          3D

 41 45  0  0  0  0  0  0  0  0999 V2000
   15.2909    0.7394   -6.9385 C   0  0  0  0  0  0  0  0  0  0  0  0
   16.4168   -0.2858   -6.7500 C   0  0  0  0  0  0  0  0  0  0  0  0
   16.6432   -0.9560   -8.0316 C   0  0  0  0  0  0  0  0  0  0  0  0
   17.5929   -0.4696   -8.8945 C   0  0  0  0  0  0  0  0  0  0  0  0
   17.8522   -1.0708  -10.1388 C   0  0  0  0  0  0  0  0  0  0  0  0
   17.1420   -2.1778  -10.5141 C   0  0  0  0  0  0  0  0  0  0  0  0
   16.1862   -2.6788   -9.6609 C   0  0  0  0  0  0  0  0  0  0  0  0
   15.9522   -2.0788   -8.4597 C   0  0  0  0  0  0  0  0  0  0  0  0
   17.3475   -2.8534  -11.7947 C   0  0  0  0  0  0  0  0  0  0  0  0
   18.3063   -2.4858  -12.5615 O   0  0  0  0  0  0  0  0  0  0  0  0
   16.5517   -3.9144  -12.2734 N   0  0  0  0  0  0  0  0  0  0  0  0
   16.9175   -4.8143  -13.3289 C   0  0  0  0  0  0  0  0  0  0  0  0
   17.6632   -5.9855  -12.7857 C   0  0  0  0  0  0  0  0  0  0  0  0
   18.0693   -6.9447  -13.8377 C   0  0  0  0  0  0  0  0  0  0  0  0
   18.2401   -8.1452  -13.5371 O   0  0  0  0  0  0  0  0  0  0  0  0
   18.2652   -6.5476  -15.1416 O   0  0  0  0  0  0  0  0  0  0  0  0
   17.5840    0.3478   -6.1898 N   0  0  0  0  0  0  0  0  0  0  0  0
   18.5090   -0.2652   -5.4285 C   0  0  0  0  0  0  0  0  0  0  0  0
   19.4640    0.6766   -5.1061 C   0  0  0  0  0  0  0  0  0  0  0  0
   19.0752    1.8768   -5.7028 C   0  0  0  0  0  0  0  0  0  0  0  0
   17.9412    1.5982   -6.3328 N   0  0  0  0  0  0  0  0  0  0  0  0
   19.7769    3.1553   -5.6399 C   0  0  0  0  0  0  0  0  0  0  0  0
   19.2014    4.2865   -6.1878 C   0  0  0  0  0  0  0  0  0  0  0  0
   19.8883    5.4876   -6.1136 C   0  0  0  0  0  0  0  0  0  0  0  0
   21.1259    5.5910   -5.5116 C   0  0  0  0  0  0  0  0  0  0  0  0
   21.6970    4.4607   -4.9663 C   0  0  0  0  0  0  0  0  0  0  0  0
   21.0124    3.2718   -5.0420 C   0  0  0  0  0  0  0  0  0  0  0  0
   23.2592    4.4723   -4.1799 Cl  0  0  0  0  0  0  0  0  0  0  0  0
   19.2057    6.9584   -6.7923 Cl  0  0  0  0  0  0  0  0  0  0  0  0
   18.6049   -1.6473   -4.9750 C   0  0  0  0  0  0  0  0  0  0  0  0
   18.2392   -2.6891   -5.7866 C   0  0  0  0  0  0  0  0  0  0  0  0
   18.3557   -3.9998   -5.3386 C   0  0  0  0  0  0  0  0  0  0  0  0
   18.8471   -4.2414   -4.0566 C   0  0  0  0  0  0  0  0  0  0  0  0
   19.2170   -3.1970   -3.2322 C   0  0  0  0  0  0  0  0  0  0  0  0
   19.0963   -1.9071   -3.6896 C   0  0  0  0  0  0  0  0  0  0  0  0
   18.9566   -5.5458   -3.6327 C   0  0  0  0  0  0  0  0  0  0  0  0
   18.5988   -6.6330   -4.4270 C   0  0  0  0  0  0  0  0  0  0  0  0
   18.1178   -6.3443   -5.6871 C   0  0  0  0  0  0  0  0  0  0  0  0
   17.9946   -5.0573   -6.1443 C   0  0  0  0  0  0  0  0  0  0  0  0
   18.7236   -7.9398   -3.9641 O   0  0  0  0  0  0  0  0  0  0  0  0
   19.1480   -8.1882   -2.6509 C   0  0  0  0  0  0  0  0  0  0  0  0
  1  2  1  0
  2  3  1  0
  3  4  2  0
  4  5  1  0
  5  6  2  0
  6  7  1  0
  7  8  2  0
  6  9  1  0
  9 10  2  0
  9 11  1  0
 11 12  1  0
 12 13  1  0
 13 14  1  0
 14 15  2  0
 14 16  1  0
  2 17  1  0
 17 18  1  0
 18 19  2  0
 19 20  1  0
 20 21  2  0
 20 22  1  0
 22 23  2  0
 23 24  1  0
 24 25  2  0
 25 26  1  0
 26 27  2  0
 26 28  1  0
 24 29  1  0
 18 30  1  0
 30 31  2  0
 31 32  1  0
 32 33  2  0
 33 34  1  0
 34 35  2  0
 33 36  1  0
 36 37  2  0
 37 38  1  0
 38 39  2  0
 37 40  1  0
 40 41  1  0
  8  3  1  0
 21 17  1  0
 27 22  1  0
 35 30  1  0
 39 32  1  0
M  END
$$$$
