
     RDKit          3D

 41 45  0  0  0  0  0  0  0  0999 V2000
   15.1251    2.1987   -4.9955 C   0  0  0  0  0  0  0  0  0  0  0  0
   15.5850    1.5310   -6.2981 C   0  0  0  0  0  0  0  0  0  0  0  0
   14.6881    1.9601   -7.3724 C   0  0  0  0  0  0  0  0  0  0  0  0
   14.9307    3.1400   -8.0298 C   0  0  0  0  0  0  0  0  0  0  0  0
   14.1028    3.6029   -9.0676 C   0  0  0  0  0  0  0  0  0  0  0  0
   13.0164    2.8625   -9.4451 C   0  0  0  0  0  0  0  0  0  0  0  0
   12.7586    1.6770   -8.7966 C   0  0  0  0  0  0  0  0  0  0  0  0
   13.5754    1.2487   -7.7931 C   0  0  0  0  0  0  0  0  0  0  0  0
   12.1041    3.2812  -10.5085 C   0  0  0  0  0  0  0  0  0  0  0  0
   10.9380    2.7559  -10.5900 O   0  0  0  0  0  0  0  0  0  0  0  0
   12.4101    4.2501  -11.4861 N   0  0  0  0  0  0  0  0  0  0  0  0
   11.6345    4.5131  -12.6639 C   0  0  0  0  0  0  0  0  0  0  0  0
   11.5021    3.2803  -13.4918 C   0  0  0  0  0  0  0  0  0  0  0  0
   10.6796    3.4897  -14.7047 C   0  0  0  0  0  0  0  0  0  0  0  0
   10.2989    2.4988  -15.3635 O   0  0  0  0  0  0  0  0  0  0  0  0
   10.3230    4.7508  -15.1276 O   0  0  0  0  0  0  0  0  0  0  0  0
   16.9802    1.8036   -6.5364 N   0  0  0  0  0  0  0  0  0  0  0  0
   17.8058    1.0360   -7.2714 C   0  0  0  0  0  0  0  0  0  0  0  0
   19.0443    1.6433   -7.2649 C   0  0  0  0  0  0  0  0  0  0  0  0
   18.9290    2.8033   -6.4975 C   0  0  0  0  0  0  0  0  0  0  0  0
   17.6643    2.8286   -6.0971 N   0  0  0  0  0  0  0  0  0  0  0  0
   19.9821    3.7719   -6.2082 C   0  0  0  0  0  0  0  0  0  0  0  0
   19.6512    5.0487   -5.7946 C   0  0  0  0  0  0  0  0  0  0  0  0
   20.6702    5.9484   -5.5256 C   0  0  0  0  0  0  0  0  0  0  0  0
   22.0021    5.6116   -5.6570 C   0  0  0  0  0  0  0  0  0  0  0  0
   22.3285    4.3373   -6.0698 C   0  0  0  0  0  0  0  0  0  0  0  0
   21.3150    3.4484   -6.3354 C   0  0  0  0  0  0  0  0  0  0  0  0
   23.9806    3.7995   -6.2716 Cl  0  0  0  0  0  0  0  0  0  0  0  0
   20.3094    7.5853   -4.9961 Cl  0  0  0  0  0  0  0  0  0  0  0  0
   17.5597   -0.2062   -7.9935 C   0  0  0  0  0  0  0  0  0  0  0  0
   18.0134   -0.3864   -9.2739 C   0  0  0  0  0  0  0  0  0  0  0  0
   17.7814   -1.5862   -9.9364 C   0  0  0  0  0  0  0  0  0  0  0  0
   17.0829   -2.6014   -9.2846 C   0  0  0  0  0  0  0  0  0  0  0  0
   16.6217   -2.4275   -7.9946 C   0  0  0  0  0  0  0  0  0  0  0  0
   16.8591   -1.2360   -7.3531 C   0  0  0  0  0  0  0  0  0  0  0  0
   16.8655   -3.7822   -9.9568 C   0  0  0  0  0  0  0  0  0  0  0  0
   17.3121   -4.0067  -11.2573 C   0  0  0  0  0  0  0  0  0  0  0  0
   17.9980   -2.9735  -11.8609 C   0  0  0  0  0  0  0  0  0  0  0  0
   18.2339   -1.7827  -11.2227 C   0  0  0  0  0  0  0  0  0  0  0  0
   17.0735   -5.2150  -11.9060 O   0  0  0  0  0  0  0  0  0  0  0  0
   15.7827   -5.7626  -11.9304 C   0  0  0  0  0  0  0  0  0  0  0  0
  1  2  1  0
  2  3  1  0
  3  4  2  0
  4  5  1  0
  5  6  2  0
  6  7  1  0
  7  8  2  0
  6  9  1  0
  9 10  2  0
  9 11  1  0
 11 12  1  0
 12 13  1  0
 13 14  1  0
 14 15  2  0
 14 16  1  0
  2 17  1  0
 17 18  1  0
 18 19  2  0
 19 20  1  0
 20 21  2  0
 20 22  1  0
 22 23  2  0
 23 24  1  0
 24 25  2  0
 25 26  1  0
 26 27  2  0
 26 28  1  0
 24 29  1  0
 18 30  1  0
 30 31  2  0
 31 32  1  0
 32 33  2  0
 33 34  1  0
 34 35  2  0
 33 36  1  0
 36 37  2  0
 37 38  1  0
 38 39  2  0
 37 40  1  0
 40 41  1  0
  8  3  1  0
 21 17  1  0
 27 22  1  0
 35 30  1  0
 39 32  1  0
M  END
$$$$
