
     RDKit          3D

 41 45  0  0  0  0  0  0  0  0999 V2000
   16.3399    3.7105   -4.9622 C   0  0  0  0  0  0  0  0  0  0  0  0
   16.1283    2.2586   -5.4111 C   0  0  0  0  0  0  0  0  0  0  0  0
   15.1661    1.6350   -4.5011 C   0  0  0  0  0  0  0  0  0  0  0  0
   13.8486    1.5325   -4.8712 C   0  0  0  0  0  0  0  0  0  0  0  0
   12.8803    0.9452   -4.0378 C   0  0  0  0  0  0  0  0  0  0  0  0
   13.2499    0.4555   -2.8154 C   0  0  0  0  0  0  0  0  0  0  0  0
   14.5668    0.5500   -2.4287 C   0  0  0  0  0  0  0  0  0  0  0  0
   15.4877    1.1237   -3.2535 C   0  0  0  0  0  0  0  0  0  0  0  0
   12.3003   -0.1607   -1.8896 C   0  0  0  0  0  0  0  0  0  0  0  0
   12.5755   -0.2163   -0.6392 O   0  0  0  0  0  0  0  0  0  0  0  0
   11.0622   -0.7175   -2.2705 N   0  0  0  0  0  0  0  0  0  0  0  0
   10.0555   -1.1962   -1.3676 C   0  0  0  0  0  0  0  0  0  0  0  0
    9.3014   -0.0573   -0.7700 C   0  0  0  0  0  0  0  0  0  0  0  0
    8.7954   -0.3547    0.5890 C   0  0  0  0  0  0  0  0  0  0  0  0
    7.6840    0.0955    0.9395 O   0  0  0  0  0  0  0  0  0  0  0  0
    9.5196   -1.1153    1.4797 O   0  0  0  0  0  0  0  0  0  0  0  0
   15.7549    2.2128   -6.8026 N   0  0  0  0  0  0  0  0  0  0  0  0
   15.9767    1.1759   -7.6313 C   0  0  0  0  0  0  0  0  0  0  0  0
   15.4624    1.5195   -8.8642 C   0  0  0  0  0  0  0  0  0  0  0  0
   14.9251    2.8018   -8.7424 C   0  0  0  0  0  0  0  0  0  0  0  0
   15.1394    3.1479   -7.4796 N   0  0  0  0  0  0  0  0  0  0  0  0
   14.2695    3.5811   -9.7883 C   0  0  0  0  0  0  0  0  0  0  0  0
   14.0125    3.0065  -11.0190 C   0  0  0  0  0  0  0  0  0  0  0  0
   13.3881    3.7679  -11.9939 C   0  0  0  0  0  0  0  0  0  0  0  0
   13.0153    5.0788  -11.7763 C   0  0  0  0  0  0  0  0  0  0  0  0
   13.2732    5.6487  -10.5477 C   0  0  0  0  0  0  0  0  0  0  0  0
   13.8924    4.8901   -9.5839 C   0  0  0  0  0  0  0  0  0  0  0  0
   12.8464    7.2999  -10.1595 Cl  0  0  0  0  0  0  0  0  0  0  0  0
   13.0359    3.0903  -13.5771 Cl  0  0  0  0  0  0  0  0  0  0  0  0
   16.6112   -0.1146   -7.3926 C   0  0  0  0  0  0  0  0  0  0  0  0
   17.9336   -0.2036   -7.0446 C   0  0  0  0  0  0  0  0  0  0  0  0
   18.5125   -1.4444   -6.8052 C   0  0  0  0  0  0  0  0  0  0  0  0
   17.7339   -2.5947   -6.9235 C   0  0  0  0  0  0  0  0  0  0  0  0
   16.4007   -2.5137   -7.2745 C   0  0  0  0  0  0  0  0  0  0  0  0
   15.8430   -1.2800   -7.5077 C   0  0  0  0  0  0  0  0  0  0  0  0
   18.3251   -3.8132   -6.6803 C   0  0  0  0  0  0  0  0  0  0  0  0
   19.6647   -3.9469   -6.3217 C   0  0  0  0  0  0  0  0  0  0  0  0
   20.3946   -2.7812   -6.2173 C   0  0  0  0  0  0  0  0  0  0  0  0
   19.8400   -1.5491   -6.4519 C   0  0  0  0  0  0  0  0  0  0  0  0
   20.2288   -5.1969   -6.0832 O   0  0  0  0  0  0  0  0  0  0  0  0
   19.4616   -6.3607   -6.2363 C   0  0  0  0  0  0  0  0  0  0  0  0
  1  2  1  0
  2  3  1  0
  3  4  2  0
  4  5  1  0
  5  6  2  0
  6  7  1  0
  7  8  2  0
  6  9  1  0
  9 10  2  0
  9 11  1  0
 11 12  1  0
 12 13  1  0
 13 14  1  0
 14 15  2  0
 14 16  1  0
  2 17  1  0
 17 18  1  0
 18 19  2  0
 19 20  1  0
 20 21  2  0
 20 22  1  0
 22 23  2  0
 23 24  1  0
 24 25  2  0
 25 26  1  0
 26 27  2  0
 26 28  1  0
 24 29  1  0
 18 30  1  0
 30 31  2  0
 31 32  1  0
 32 33  2  0
 33 34  1  0
 34 35  2  0
 33 36  1  0
 36 37  2  0
 37 38  1  0
 38 39  2  0
 37 40  1  0
 40 41  1  0
  8  3  1  0
 21 17  1  0
 27 22  1  0
 35 30  1  0
 39 32  1  0
M  END
$$$$
