
     RDKit          3D

 41 45  0  0  0  0  0  0  0  0999 V2000
   -5.0709    5.5589   18.6812 C   0  0  0  0  0  0  0  0  0  0  0  0
   -5.1268    4.2085   19.4075 C   0  0  0  0  0  0  0  0  0  0  0  0
   -5.2201    3.1514   18.3992 C   0  0  0  0  0  0  0  0  0  0  0  0
   -5.0956    3.4674   17.0696 C   0  0  0  0  0  0  0  0  0  0  0  0
   -5.1782    2.4946   16.0578 C   0  0  0  0  0  0  0  0  0  0  0  0
   -5.3890    1.1861   16.3958 C   0  0  0  0  0  0  0  0  0  0  0  0
   -5.5160    0.8518   17.7242 C   0  0  0  0  0  0  0  0  0  0  0  0
   -5.4325    1.8123   18.6874 C   0  0  0  0  0  0  0  0  0  0  0  0
   -5.4955    0.1191   15.4014 C   0  0  0  0  0  0  0  0  0  0  0  0
   -6.0047   -1.0097   15.7313 O   0  0  0  0  0  0  0  0  0  0  0  0
   -5.0712    0.2325   14.0615 N   0  0  0  0  0  0  0  0  0  0  0  0
   -5.1312   -0.8134   13.0816 C   0  0  0  0  0  0  0  0  0  0  0  0
   -3.9301   -0.7760   12.1991 C   0  0  0  0  0  0  0  0  0  0  0  0
   -3.5767    0.5958   11.7693 C   0  0  0  0  0  0  0  0  0  0  0  0
   -4.2929    1.5532   12.1315 O   0  0  0  0  0  0  0  0  0  0  0  0
   -2.4775    0.8450   10.9782 O   0  0  0  0  0  0  0  0  0  0  0  0
   -4.0120    4.0784   20.3119 N   0  0  0  0  0  0  0  0  0  0  0  0
   -2.7578    3.7467   19.9542 C   0  0  0  0  0  0  0  0  0  0  0  0
   -1.9923    3.7415   21.1016 C   0  0  0  0  0  0  0  0  0  0  0  0
   -2.8359    4.0819   22.1600 C   0  0  0  0  0  0  0  0  0  0  0  0
   -4.0273    4.2679   21.6063 N   0  0  0  0  0  0  0  0  0  0  0  0
   -2.4709    4.2048   23.5680 C   0  0  0  0  0  0  0  0  0  0  0  0
   -3.4058    4.6415   24.4880 C   0  0  0  0  0  0  0  0  0  0  0  0
   -3.0336    4.7482   25.8185 C   0  0  0  0  0  0  0  0  0  0  0  0
   -1.7624    4.4334   26.2540 C   0  0  0  0  0  0  0  0  0  0  0  0
   -0.8325    3.9984   25.3337 C   0  0  0  0  0  0  0  0  0  0  0  0
   -1.2058    3.8939   24.0155 C   0  0  0  0  0  0  0  0  0  0  0  0
    0.8067    3.5722   25.7702 Cl  0  0  0  0  0  0  0  0  0  0  0  0
   -4.1799    5.2975   27.0326 Cl  0  0  0  0  0  0  0  0  0  0  0  0
   -2.1898    3.4428   18.6465 C   0  0  0  0  0  0  0  0  0  0  0  0
   -1.6730    2.2051   18.3658 C   0  0  0  0  0  0  0  0  0  0  0  0
   -1.1523    1.9333   17.1060 C   0  0  0  0  0  0  0  0  0  0  0  0
   -1.1613    2.9325   16.1339 C   0  0  0  0  0  0  0  0  0  0  0  0
   -1.6795    4.1826   16.4091 C   0  0  0  0  0  0  0  0  0  0  0  0
   -2.1908    4.4358   17.6589 C   0  0  0  0  0  0  0  0  0  0  0  0
   -0.6430    2.6428   14.8926 C   0  0  0  0  0  0  0  0  0  0  0  0
   -0.1111    1.3973   14.5658 C   0  0  0  0  0  0  0  0  0  0  0  0
   -0.1239    0.4411   15.5597 C   0  0  0  0  0  0  0  0  0  0  0  0
   -0.6319    0.6928   16.8084 C   0  0  0  0  0  0  0  0  0  0  0  0
    0.4046    1.1404   13.2986 O   0  0  0  0  0  0  0  0  0  0  0  0
    1.1795   -0.0055   13.0686 C   0  0  0  0  0  0  0  0  0  0  0  0
  1  2  1  0
  2  3  1  0
  3  4  2  0
  4  5  1  0
  5  6  2  0
  6  7  1  0
  7  8  2  0
  6  9  1  0
  9 10  2  0
  9 11  1  0
 11 12  1  0
 12 13  1  0
 13 14  1  0
 14 15  2  0
 14 16  1  0
  2 17  1  0
 17 18  1  0
 18 19  2  0
 19 20  1  0
 20 21  2  0
 20 22  1  0
 22 23  2  0
 23 24  1  0
 24 25  2  0
 25 26  1  0
 26 27  2  0
 26 28  1  0
 24 29  1  0
 18 30  1  0
 30 31  2  0
 31 32  1  0
 32 33  2  0
 33 34  1  0
 34 35  2  0
 33 36  1  0
 36 37  2  0
 37 38  1  0
 38 39  2  0
 37 40  1  0
 40 41  1  0
  8  3  1  0
 21 17  1  0
 27 22  1  0
 35 30  1  0
 39 32  1  0
M  END
$$$$
