
     RDKit          3D

 41 45  0  0  0  0  0  0  0  0999 V2000
   14.9303    2.1192   -4.8319 C   0  0  0  0  0  0  0  0  0  0  0  0
   15.4309    1.5119   -6.1491 C   0  0  0  0  0  0  0  0  0  0  0  0
   14.5839    2.0117   -7.2333 C   0  0  0  0  0  0  0  0  0  0  0  0
   14.9050    3.1904   -7.8584 C   0  0  0  0  0  0  0  0  0  0  0  0
   14.1278    3.7194   -8.9039 C   0  0  0  0  0  0  0  0  0  0  0  0
   13.0124    3.0472   -9.3220 C   0  0  0  0  0  0  0  0  0  0  0  0
   12.6760    1.8639   -8.7062 C   0  0  0  0  0  0  0  0  0  0  0  0
   13.4447    1.3707   -7.6946 C   0  0  0  0  0  0  0  0  0  0  0  0
   12.1491    3.5371  -10.3959 C   0  0  0  0  0  0  0  0  0  0  0  0
   12.5309    4.5236  -11.1193 O   0  0  0  0  0  0  0  0  0  0  0  0
   10.8872    2.9949  -10.7148 N   0  0  0  0  0  0  0  0  0  0  0  0
   10.2123    3.1487  -11.9712 C   0  0  0  0  0  0  0  0  0  0  0  0
   11.1347    2.8480  -13.1033 C   0  0  0  0  0  0  0  0  0  0  0  0
   10.4888    3.0036  -14.4262 C   0  0  0  0  0  0  0  0  0  0  0  0
   11.0550    3.6861  -15.3062 O   0  0  0  0  0  0  0  0  0  0  0  0
    9.2771    2.4156  -14.7127 O   0  0  0  0  0  0  0  0  0  0  0  0
   16.8385    1.7720   -6.3187 N   0  0  0  0  0  0  0  0  0  0  0  0
   17.6802    1.0300   -7.0617 C   0  0  0  0  0  0  0  0  0  0  0  0
   18.9268    1.6141   -6.9750 C   0  0  0  0  0  0  0  0  0  0  0  0
   18.7996    2.7336   -6.1514 C   0  0  0  0  0  0  0  0  0  0  0  0
   17.5207    2.7600   -5.7990 N   0  0  0  0  0  0  0  0  0  0  0  0
   19.8556    3.6666   -5.7702 C   0  0  0  0  0  0  0  0  0  0  0  0
   21.0380    3.7008   -6.4855 C   0  0  0  0  0  0  0  0  0  0  0  0
   22.0237    4.5965   -6.1033 C   0  0  0  0  0  0  0  0  0  0  0  0
   21.8635    5.4539   -5.0337 C   0  0  0  0  0  0  0  0  0  0  0  0
   20.6830    5.4170   -4.3224 C   0  0  0  0  0  0  0  0  0  0  0  0
   19.7082    4.5273   -4.7049 C   0  0  0  0  0  0  0  0  0  0  0  0
   20.3694    6.4552   -2.9502 Cl  0  0  0  0  0  0  0  0  0  0  0  0
   23.5473    4.6849   -6.9756 Cl  0  0  0  0  0  0  0  0  0  0  0  0
   17.4432   -0.1675   -7.8585 C   0  0  0  0  0  0  0  0  0  0  0  0
   18.0411   -1.3601   -7.5454 C   0  0  0  0  0  0  0  0  0  0  0  0
   17.7864   -2.4928   -8.3097 C   0  0  0  0  0  0  0  0  0  0  0  0
   16.9181   -2.4014   -9.3965 C   0  0  0  0  0  0  0  0  0  0  0  0
   16.3121   -1.2031   -9.7191 C   0  0  0  0  0  0  0  0  0  0  0  0
   16.5738   -0.0925   -8.9539 C   0  0  0  0  0  0  0  0  0  0  0  0
   16.6775   -3.5345  -10.1392 C   0  0  0  0  0  0  0  0  0  0  0  0
   17.2624   -4.7661   -9.8530 C   0  0  0  0  0  0  0  0  0  0  0  0
   18.1141   -4.8073   -8.7688 C   0  0  0  0  0  0  0  0  0  0  0  0
   18.3781   -3.6991   -8.0053 C   0  0  0  0  0  0  0  0  0  0  0  0
   16.9952   -5.8917  -10.6271 O   0  0  0  0  0  0  0  0  0  0  0  0
   16.4942   -5.7525  -11.9294 C   0  0  0  0  0  0  0  0  0  0  0  0
  1  2  1  0
  2  3  1  0
  3  4  2  0
  4  5  1  0
  5  6  2  0
  6  7  1  0
  7  8  2  0
  6  9  1  0
  9 10  2  0
  9 11  1  0
 11 12  1  0
 12 13  1  0
 13 14  1  0
 14 15  2  0
 14 16  1  0
  2 17  1  0
 17 18  1  0
 18 19  2  0
 19 20  1  0
 20 21  2  0
 20 22  1  0
 22 23  2  0
 23 24  1  0
 24 25  2  0
 25 26  1  0
 26 27  2  0
 26 28  1  0
 24 29  1  0
 18 30  1  0
 30 31  2  0
 31 32  1  0
 32 33  2  0
 33 34  1  0
 34 35  2  0
 33 36  1  0
 36 37  2  0
 37 38  1  0
 38 39  2  0
 37 40  1  0
 40 41  1  0
  8  3  1  0
 21 17  1  0
 27 22  1  0
 35 30  1  0
 39 32  1  0
M  END
$$$$
