
     RDKit          3D

 41 45  0  0  0  0  0  0  0  0999 V2000
   12.6152    1.6453   -5.3646 C   0  0  0  0  0  0  0  0  0  0  0  0
   13.7532    1.4373   -6.3726 C   0  0  0  0  0  0  0  0  0  0  0  0
   13.2593    1.8042   -7.7008 C   0  0  0  0  0  0  0  0  0  0  0  0
   12.8762    3.0982   -7.9499 C   0  0  0  0  0  0  0  0  0  0  0  0
   12.3926    3.5076   -9.2051 C   0  0  0  0  0  0  0  0  0  0  0  0
   12.2960    2.5963  -10.2206 C   0  0  0  0  0  0  0  0  0  0  0  0
   12.6759    1.2948   -9.9881 C   0  0  0  0  0  0  0  0  0  0  0  0
   13.1415    0.9213   -8.7628 C   0  0  0  0  0  0  0  0  0  0  0  0
   11.7949    2.9430  -11.5500 C   0  0  0  0  0  0  0  0  0  0  0  0
   11.7269    2.0424  -12.4593 O   0  0  0  0  0  0  0  0  0  0  0  0
   11.3632    4.2308  -11.9287 N   0  0  0  0  0  0  0  0  0  0  0  0
   10.0493    4.5590  -12.4016 C   0  0  0  0  0  0  0  0  0  0  0  0
    9.7257    3.7843  -13.6337 C   0  0  0  0  0  0  0  0  0  0  0  0
   10.1192    4.4895  -14.8743 C   0  0  0  0  0  0  0  0  0  0  0  0
    9.6222    5.6079  -15.1254 O   0  0  0  0  0  0  0  0  0  0  0  0
   11.0198    3.9438  -15.7616 O   0  0  0  0  0  0  0  0  0  0  0  0
   14.9326    2.1516   -5.9526 N   0  0  0  0  0  0  0  0  0  0  0  0
   16.1822    1.9102   -6.3898 C   0  0  0  0  0  0  0  0  0  0  0  0
   17.0173    2.8103   -5.7611 C   0  0  0  0  0  0  0  0  0  0  0  0
   16.2203    3.5990   -4.9302 C   0  0  0  0  0  0  0  0  0  0  0  0
   14.9860    3.1431   -5.1007 N   0  0  0  0  0  0  0  0  0  0  0  0
   16.6637    4.6891   -4.0664 C   0  0  0  0  0  0  0  0  0  0  0  0
   15.8338    5.1579   -3.0652 C   0  0  0  0  0  0  0  0  0  0  0  0
   16.2794    6.1928   -2.2587 C   0  0  0  0  0  0  0  0  0  0  0  0
   17.5226    6.7696   -2.4225 C   0  0  0  0  0  0  0  0  0  0  0  0
   18.3476    6.2996   -3.4221 C   0  0  0  0  0  0  0  0  0  0  0  0
   17.9018    5.2732   -4.2194 C   0  0  0  0  0  0  0  0  0  0  0  0
   19.9418    6.9536   -3.7222 Cl  0  0  0  0  0  0  0  0  0  0  0  0
   15.2679    6.8293   -0.9698 Cl  0  0  0  0  0  0  0  0  0  0  0  0
   16.6836    0.9310   -7.3462 C   0  0  0  0  0  0  0  0  0  0  0  0
   16.2684   -0.3744   -7.3115 C   0  0  0  0  0  0  0  0  0  0  0  0
   16.7473   -1.2864   -8.2447 C   0  0  0  0  0  0  0  0  0  0  0  0
   17.6534   -0.8586   -9.2139 C   0  0  0  0  0  0  0  0  0  0  0  0
   18.0774    0.4550   -9.2553 C   0  0  0  0  0  0  0  0  0  0  0  0
   17.5948    1.3445   -8.3261 C   0  0  0  0  0  0  0  0  0  0  0  0
   18.1140   -1.7763  -10.1299 C   0  0  0  0  0  0  0  0  0  0  0  0
   17.7150   -3.1112  -10.1309 C   0  0  0  0  0  0  0  0  0  0  0  0
   16.8177   -3.4875   -9.1533 C   0  0  0  0  0  0  0  0  0  0  0  0
   16.3367   -2.6014   -8.2237 C   0  0  0  0  0  0  0  0  0  0  0  0
   18.2024   -4.0115  -11.0740 O   0  0  0  0  0  0  0  0  0  0  0  0
   19.0119   -3.5639  -12.1280 C   0  0  0  0  0  0  0  0  0  0  0  0
  1  2  1  0
  2  3  1  0
  3  4  2  0
  4  5  1  0
  5  6  2  0
  6  7  1  0
  7  8  2  0
  6  9  1  0
  9 10  2  0
  9 11  1  0
 11 12  1  0
 12 13  1  0
 13 14  1  0
 14 15  2  0
 14 16  1  0
  2 17  1  0
 17 18  1  0
 18 19  2  0
 19 20  1  0
 20 21  2  0
 20 22  1  0
 22 23  2  0
 23 24  1  0
 24 25  2  0
 25 26  1  0
 26 27  2  0
 26 28  1  0
 24 29  1  0
 18 30  1  0
 30 31  2  0
 31 32  1  0
 32 33  2  0
 33 34  1  0
 34 35  2  0
 33 36  1  0
 36 37  2  0
 37 38  1  0
 38 39  2  0
 37 40  1  0
 40 41  1  0
  8  3  1  0
 21 17  1  0
 27 22  1  0
 35 30  1  0
 39 32  1  0
M  END
$$$$
