
     RDKit          3D

 41 45  0  0  0  0  0  0  0  0999 V2000
   15.6431    1.1984   -4.9527 C   0  0  0  0  0  0  0  0  0  0  0  0
   16.0242    0.6876   -6.3484 C   0  0  0  0  0  0  0  0  0  0  0  0
   15.1466    1.3330   -7.3261 C   0  0  0  0  0  0  0  0  0  0  0  0
   13.9220    0.7817   -7.6084 C   0  0  0  0  0  0  0  0  0  0  0  0
   13.0386    1.3565   -8.5392 C   0  0  0  0  0  0  0  0  0  0  0  0
   13.3988    2.5033   -9.1918 C   0  0  0  0  0  0  0  0  0  0  0  0
   14.6229    3.0694   -8.9206 C   0  0  0  0  0  0  0  0  0  0  0  0
   15.4627    2.4939   -8.0144 C   0  0  0  0  0  0  0  0  0  0  0  0
   12.5393    3.1554  -10.1790 C   0  0  0  0  0  0  0  0  0  0  0  0
   11.3231    2.7746  -10.3143 O   0  0  0  0  0  0  0  0  0  0  0  0
   12.9505    4.2066  -11.0239 N   0  0  0  0  0  0  0  0  0  0  0  0
   12.1375    4.8293  -12.0284 C   0  0  0  0  0  0  0  0  0  0  0  0
   11.4181    3.8012  -12.8336 C   0  0  0  0  0  0  0  0  0  0  0  0
   12.2428    3.2553  -13.9351 C   0  0  0  0  0  0  0  0  0  0  0  0
   11.8894    2.1965  -14.4962 O   0  0  0  0  0  0  0  0  0  0  0  0
   13.3923    3.8846  -14.3580 O   0  0  0  0  0  0  0  0  0  0  0  0
   17.4326    0.8813   -6.5865 N   0  0  0  0  0  0  0  0  0  0  0  0
   18.2166    0.0615   -7.3105 C   0  0  0  0  0  0  0  0  0  0  0  0
   19.4862    0.6008   -7.3080 C   0  0  0  0  0  0  0  0  0  0  0  0
   19.4327    1.7742   -6.5542 C   0  0  0  0  0  0  0  0  0  0  0  0
   18.1705    1.8727   -6.1573 N   0  0  0  0  0  0  0  0  0  0  0  0
   20.5364    2.6874   -6.2735 C   0  0  0  0  0  0  0  0  0  0  0  0
   21.8112    2.3861   -6.7149 C   0  0  0  0  0  0  0  0  0  0  0  0
   22.8407    3.2706   -6.4358 C   0  0  0  0  0  0  0  0  0  0  0  0
   22.6349    4.4402   -5.7327 C   0  0  0  0  0  0  0  0  0  0  0  0
   21.3621    4.7375   -5.2938 C   0  0  0  0  0  0  0  0  0  0  0  0
   20.3442    3.8578   -5.5729 C   0  0  0  0  0  0  0  0  0  0  0  0
   20.9837    6.1891   -4.3945 Cl  0  0  0  0  0  0  0  0  0  0  0  0
   24.4818    2.9401   -6.9720 Cl  0  0  0  0  0  0  0  0  0  0  0  0
   17.9047   -1.1737   -8.0190 C   0  0  0  0  0  0  0  0  0  0  0  0
   17.3962   -1.1550   -9.2914 C   0  0  0  0  0  0  0  0  0  0  0  0
   17.1227   -2.3462   -9.9535 C   0  0  0  0  0  0  0  0  0  0  0  0
   17.3706   -3.5573   -9.3092 C   0  0  0  0  0  0  0  0  0  0  0  0
   17.8822   -3.5848   -8.0268 C   0  0  0  0  0  0  0  0  0  0  0  0
   18.1476   -2.3990   -7.3857 C   0  0  0  0  0  0  0  0  0  0  0  0
   17.0950   -4.7253   -9.9825 C   0  0  0  0  0  0  0  0  0  0  0  0
   16.5804   -4.7500  -11.2769 C   0  0  0  0  0  0  0  0  0  0  0  0
   16.3516   -3.5274  -11.8732 C   0  0  0  0  0  0  0  0  0  0  0  0
   16.6139   -2.3429  -11.2337 C   0  0  0  0  0  0  0  0  0  0  0  0
   16.3140   -5.9516  -11.9271 O   0  0  0  0  0  0  0  0  0  0  0  0
   15.9517   -7.0893  -11.1916 C   0  0  0  0  0  0  0  0  0  0  0  0
  1  2  1  0
  2  3  1  0
  3  4  2  0
  4  5  1  0
  5  6  2  0
  6  7  1  0
  7  8  2  0
  6  9  1  0
  9 10  2  0
  9 11  1  0
 11 12  1  0
 12 13  1  0
 13 14  1  0
 14 15  2  0
 14 16  1  0
  2 17  1  0
 17 18  1  0
 18 19  2  0
 19 20  1  0
 20 21  2  0
 20 22  1  0
 22 23  2  0
 23 24  1  0
 24 25  2  0
 25 26  1  0
 26 27  2  0
 26 28  1  0
 24 29  1  0
 18 30  1  0
 30 31  2  0
 31 32  1  0
 32 33  2  0
 33 34  1  0
 34 35  2  0
 33 36  1  0
 36 37  2  0
 37 38  1  0
 38 39  2  0
 37 40  1  0
 40 41  1  0
  8  3  1  0
 21 17  1  0
 27 22  1  0
 35 30  1  0
 39 32  1  0
M  END
$$$$
