
     RDKit          3D

 41 45  0  0  0  0  0  0  0  0999 V2000
   13.7990    1.7887   -5.4330 C   0  0  0  0  0  0  0  0  0  0  0  0
   14.7407    1.3557   -6.5643 C   0  0  0  0  0  0  0  0  0  0  0  0
   14.1373    1.7526   -7.8376 C   0  0  0  0  0  0  0  0  0  0  0  0
   14.3153    3.0305   -8.3050 C   0  0  0  0  0  0  0  0  0  0  0  0
   13.7582    3.4679   -9.5196 C   0  0  0  0  0  0  0  0  0  0  0  0
   13.0125    2.6014  -10.2705 C   0  0  0  0  0  0  0  0  0  0  0  0
   12.8242    1.3164   -9.8167 C   0  0  0  0  0  0  0  0  0  0  0  0
   13.3739    0.9152   -8.6359 C   0  0  0  0  0  0  0  0  0  0  0  0
   12.3936    2.9839  -11.5390 C   0  0  0  0  0  0  0  0  0  0  0  0
   12.5774    4.1628  -12.0068 O   0  0  0  0  0  0  0  0  0  0  0  0
   11.5839    2.1337  -12.3197 N   0  0  0  0  0  0  0  0  0  0  0  0
   10.7443    2.5541  -13.4042 C   0  0  0  0  0  0  0  0  0  0  0  0
    9.5193    3.2298  -12.8888 C   0  0  0  0  0  0  0  0  0  0  0  0
    8.5212    3.4946  -13.9495 C   0  0  0  0  0  0  0  0  0  0  0  0
    7.3046    3.4037  -13.6803 O   0  0  0  0  0  0  0  0  0  0  0  0
    8.8991    3.8383  -15.2283 O   0  0  0  0  0  0  0  0  0  0  0  0
   16.0663    1.8757   -6.3406 N   0  0  0  0  0  0  0  0  0  0  0  0
   17.1905    1.4048   -6.9110 C   0  0  0  0  0  0  0  0  0  0  0  0
   18.2376    2.1759   -6.4507 C   0  0  0  0  0  0  0  0  0  0  0  0
   17.6976    3.1258   -5.5824 C   0  0  0  0  0  0  0  0  0  0  0  0
   16.3937    2.8806   -5.5695 N   0  0  0  0  0  0  0  0  0  0  0  0
   18.4240    4.1614   -4.8538 C   0  0  0  0  0  0  0  0  0  0  0  0
   17.7503    4.9886   -3.9747 C   0  0  0  0  0  0  0  0  0  0  0  0
   18.4638    5.9629   -3.2951 C   0  0  0  0  0  0  0  0  0  0  0  0
   19.8224    6.1338   -3.4673 C   0  0  0  0  0  0  0  0  0  0  0  0
   20.4911    5.3071   -4.3450 C   0  0  0  0  0  0  0  0  0  0  0  0
   19.7798    4.3423   -5.0167 C   0  0  0  0  0  0  0  0  0  0  0  0
   22.2100    5.4319   -4.6430 Cl  0  0  0  0  0  0  0  0  0  0  0  0
   17.6605    7.0430   -2.1647 Cl  0  0  0  0  0  0  0  0  0  0  0  0
   17.3937    0.3125   -7.8546 C   0  0  0  0  0  0  0  0  0  0  0  0
   16.7300   -0.8786   -7.7176 C   0  0  0  0  0  0  0  0  0  0  0  0
   16.9269   -1.8998   -8.6398 C   0  0  0  0  0  0  0  0  0  0  0  0
   17.8059   -1.6989   -9.7029 C   0  0  0  0  0  0  0  0  0  0  0  0
   18.4792   -0.5018   -9.8478 C   0  0  0  0  0  0  0  0  0  0  0  0
   18.2737    0.4980   -8.9282 C   0  0  0  0  0  0  0  0  0  0  0  0
   17.9854   -2.7214  -10.6061 C   0  0  0  0  0  0  0  0  0  0  0  0
   17.3284   -3.9457  -10.5045 C   0  0  0  0  0  0  0  0  0  0  0  0
   16.4691   -4.0978   -9.4363 C   0  0  0  0  0  0  0  0  0  0  0  0
   16.2646   -3.1015   -8.5163 C   0  0  0  0  0  0  0  0  0  0  0  0
   17.5349   -4.9576  -11.4378 O   0  0  0  0  0  0  0  0  0  0  0  0
   17.5332   -4.6666  -12.8095 C   0  0  0  0  0  0  0  0  0  0  0  0
  1  2  1  0
  2  3  1  0
  3  4  2  0
  4  5  1  0
  5  6  2  0
  6  7  1  0
  7  8  2  0
  6  9  1  0
  9 10  2  0
  9 11  1  0
 11 12  1  0
 12 13  1  0
 13 14  1  0
 14 15  2  0
 14 16  1  0
  2 17  1  0
 17 18  1  0
 18 19  2  0
 19 20  1  0
 20 21  2  0
 20 22  1  0
 22 23  2  0
 23 24  1  0
 24 25  2  0
 25 26  1  0
 26 27  2  0
 26 28  1  0
 24 29  1  0
 18 30  1  0
 30 31  2  0
 31 32  1  0
 32 33  2  0
 33 34  1  0
 34 35  2  0
 33 36  1  0
 36 37  2  0
 37 38  1  0
 38 39  2  0
 37 40  1  0
 40 41  1  0
  8  3  1  0
 21 17  1  0
 27 22  1  0
 35 30  1  0
 39 32  1  0
M  END
$$$$
