
     RDKit          3D

 41 45  0  0  0  0  0  0  0  0999 V2000
   14.3765    3.2020   -5.2463 C   0  0  0  0  0  0  0  0  0  0  0  0
   15.0109    2.3288   -6.3369 C   0  0  0  0  0  0  0  0  0  0  0  0
   14.3246    2.6056   -7.5999 C   0  0  0  0  0  0  0  0  0  0  0  0
   14.6362    3.7387   -8.3086 C   0  0  0  0  0  0  0  0  0  0  0  0
   14.0086    4.0567   -9.5260 C   0  0  0  0  0  0  0  0  0  0  0  0
   13.0545    3.2176  -10.0324 C   0  0  0  0  0  0  0  0  0  0  0  0
   12.7301    2.0772   -9.3348 C   0  0  0  0  0  0  0  0  0  0  0  0
   13.3518    1.7899   -8.1565 C   0  0  0  0  0  0  0  0  0  0  0  0
   12.3515    3.4839  -11.2868 C   0  0  0  0  0  0  0  0  0  0  0  0
   12.4691    4.6282  -11.8517 O   0  0  0  0  0  0  0  0  0  0  0  0
   11.5267    2.5535  -11.9517 N   0  0  0  0  0  0  0  0  0  0  0  0
   10.4128    2.8854  -12.7925 C   0  0  0  0  0  0  0  0  0  0  0  0
   10.8699    3.6313  -13.9998 C   0  0  0  0  0  0  0  0  0  0  0  0
    9.7477    4.0920  -14.8482 C   0  0  0  0  0  0  0  0  0  0  0  0
    9.6942    5.2918  -15.1923 O   0  0  0  0  0  0  0  0  0  0  0  0
    8.7583    3.2313  -15.2684 O   0  0  0  0  0  0  0  0  0  0  0  0
   16.4379    2.5287   -6.3731 N   0  0  0  0  0  0  0  0  0  0  0  0
   17.3190    1.7193   -6.9892 C   0  0  0  0  0  0  0  0  0  0  0  0
   18.5735    2.2617   -6.8028 C   0  0  0  0  0  0  0  0  0  0  0  0
   18.4101    3.4261   -6.0510 C   0  0  0  0  0  0  0  0  0  0  0  0
   17.1044    3.5169   -5.8337 N   0  0  0  0  0  0  0  0  0  0  0  0
   19.4598    4.3388   -5.6082 C   0  0  0  0  0  0  0  0  0  0  0  0
   19.1819    5.3000   -4.6545 C   0  0  0  0  0  0  0  0  0  0  0  0
   20.1966    6.1531   -4.2510 C   0  0  0  0  0  0  0  0  0  0  0  0
   21.4732    6.0742   -4.7696 C   0  0  0  0  0  0  0  0  0  0  0  0
   21.7468    5.1144   -5.7207 C   0  0  0  0  0  0  0  0  0  0  0  0
   20.7378    4.2705   -6.1178 C   0  0  0  0  0  0  0  0  0  0  0  0
   23.3261    4.9220   -6.4473 Cl  0  0  0  0  0  0  0  0  0  0  0  0
   19.9018    7.3942   -3.0416 Cl  0  0  0  0  0  0  0  0  0  0  0  0
   17.1144    0.4916   -7.7481 C   0  0  0  0  0  0  0  0  0  0  0  0
   17.5626    0.3692   -9.0372 C   0  0  0  0  0  0  0  0  0  0  0  0
   17.3712   -0.8175   -9.7352 C   0  0  0  0  0  0  0  0  0  0  0  0
   16.7188   -1.8791   -9.1100 C   0  0  0  0  0  0  0  0  0  0  0  0
   16.2634   -1.7635   -7.8114 C   0  0  0  0  0  0  0  0  0  0  0  0
   16.4604   -0.5842   -7.1346 C   0  0  0  0  0  0  0  0  0  0  0  0
   16.5410   -3.0459   -9.8173 C   0  0  0  0  0  0  0  0  0  0  0  0
   16.9836   -3.2122  -11.1278 C   0  0  0  0  0  0  0  0  0  0  0  0
   17.6232   -2.1346  -11.7042 C   0  0  0  0  0  0  0  0  0  0  0  0
   17.8187   -0.9560  -11.0308 C   0  0  0  0  0  0  0  0  0  0  0  0
   16.7860   -4.4081  -11.8123 O   0  0  0  0  0  0  0  0  0  0  0  0
   16.1358   -5.4821  -11.1877 C   0  0  0  0  0  0  0  0  0  0  0  0
  1  2  1  0
  2  3  1  0
  3  4  2  0
  4  5  1  0
  5  6  2  0
  6  7  1  0
  7  8  2  0
  6  9  1  0
  9 10  2  0
  9 11  1  0
 11 12  1  0
 12 13  1  0
 13 14  1  0
 14 15  2  0
 14 16  1  0
  2 17  1  0
 17 18  1  0
 18 19  2  0
 19 20  1  0
 20 21  2  0
 20 22  1  0
 22 23  2  0
 23 24  1  0
 24 25  2  0
 25 26  1  0
 26 27  2  0
 26 28  1  0
 24 29  1  0
 18 30  1  0
 30 31  2  0
 31 32  1  0
 32 33  2  0
 33 34  1  0
 34 35  2  0
 33 36  1  0
 36 37  2  0
 37 38  1  0
 38 39  2  0
 37 40  1  0
 40 41  1  0
  8  3  1  0
 21 17  1  0
 27 22  1  0
 35 30  1  0
 39 32  1  0
M  END
$$$$
