
     RDKit          3D

 41 45  0  0  0  0  0  0  0  0999 V2000
   14.7855    2.4188   -5.4290 C   0  0  0  0  0  0  0  0  0  0  0  0
   15.3439    1.8467   -6.7386 C   0  0  0  0  0  0  0  0  0  0  0  0
   14.4796    2.2878   -7.8346 C   0  0  0  0  0  0  0  0  0  0  0  0
   14.7882    3.4332   -8.5247 C   0  0  0  0  0  0  0  0  0  0  0  0
   13.9942    3.9058   -9.5845 C   0  0  0  0  0  0  0  0  0  0  0  0
   12.8747    3.2104   -9.9507 C   0  0  0  0  0  0  0  0  0  0  0  0
   12.5508    2.0599   -9.2696 C   0  0  0  0  0  0  0  0  0  0  0  0
   13.3357    1.6215   -8.2453 C   0  0  0  0  0  0  0  0  0  0  0  0
   11.9944    3.6422  -11.0357 C   0  0  0  0  0  0  0  0  0  0  0  0
   10.7453    3.3591  -10.9927 O   0  0  0  0  0  0  0  0  0  0  0  0
   12.4195    4.3715  -12.1652 N   0  0  0  0  0  0  0  0  0  0  0  0
   11.5700    4.8190  -13.2309 C   0  0  0  0  0  0  0  0  0  0  0  0
   11.1666    3.6744  -14.0970 C   0  0  0  0  0  0  0  0  0  0  0  0
    9.6976    3.5228  -14.1996 C   0  0  0  0  0  0  0  0  0  0  0  0
    9.1744    2.4268  -13.9067 O   0  0  0  0  0  0  0  0  0  0  0  0
    8.8907    4.5600  -14.6112 O   0  0  0  0  0  0  0  0  0  0  0  0
   16.7327    2.2016   -6.8896 N   0  0  0  0  0  0  0  0  0  0  0  0
   17.6271    1.5323   -7.6400 C   0  0  0  0  0  0  0  0  0  0  0  0
   18.8321    2.1944   -7.5295 C   0  0  0  0  0  0  0  0  0  0  0  0
   18.6254    3.2852   -6.6837 C   0  0  0  0  0  0  0  0  0  0  0  0
   17.3448    3.2205   -6.3429 N   0  0  0  0  0  0  0  0  0  0  0  0
   19.6151    4.2766   -6.2731 C   0  0  0  0  0  0  0  0  0  0  0  0
   20.8168    4.3737   -6.9494 C   0  0  0  0  0  0  0  0  0  0  0  0
   21.7383    5.3241   -6.5399 C   0  0  0  0  0  0  0  0  0  0  0  0
   21.4957    6.1751   -5.4808 C   0  0  0  0  0  0  0  0  0  0  0  0
   20.2961    6.0753   -4.8085 C   0  0  0  0  0  0  0  0  0  0  0  0
   19.3852    5.1317   -5.2179 C   0  0  0  0  0  0  0  0  0  0  0  0
   19.8804    7.0995   -3.4529 Cl  0  0  0  0  0  0  0  0  0  0  0  0
   23.2826    5.4936   -7.3622 Cl  0  0  0  0  0  0  0  0  0  0  0  0
   17.4752    0.3394   -8.4640 C   0  0  0  0  0  0  0  0  0  0  0  0
   16.9985   -0.8326   -7.9378 C   0  0  0  0  0  0  0  0  0  0  0  0
   16.8460   -1.9524   -8.7471 C   0  0  0  0  0  0  0  0  0  0  0  0
   17.1836   -1.8696  -10.0971 C   0  0  0  0  0  0  0  0  0  0  0  0
   17.6654   -0.6924  -10.6350 C   0  0  0  0  0  0  0  0  0  0  0  0
   17.8103    0.4058   -9.8222 C   0  0  0  0  0  0  0  0  0  0  0  0
   17.0235   -2.9885  -10.8817 C   0  0  0  0  0  0  0  0  0  0  0  0
   16.5397   -4.1977  -10.3869 C   0  0  0  0  0  0  0  0  0  0  0  0
   16.2194   -4.2313   -9.0457 C   0  0  0  0  0  0  0  0  0  0  0  0
   16.3654   -3.1366   -8.2326 C   0  0  0  0  0  0  0  0  0  0  0  0
   16.3908   -5.3094  -11.2112 O   0  0  0  0  0  0  0  0  0  0  0  0
   17.1009   -6.4888  -10.9443 C   0  0  0  0  0  0  0  0  0  0  0  0
  1  2  1  0
  2  3  1  0
  3  4  2  0
  4  5  1  0
  5  6  2  0
  6  7  1  0
  7  8  2  0
  6  9  1  0
  9 10  2  0
  9 11  1  0
 11 12  1  0
 12 13  1  0
 13 14  1  0
 14 15  2  0
 14 16  1  0
  2 17  1  0
 17 18  1  0
 18 19  2  0
 19 20  1  0
 20 21  2  0
 20 22  1  0
 22 23  2  0
 23 24  1  0
 24 25  2  0
 25 26  1  0
 26 27  2  0
 26 28  1  0
 24 29  1  0
 18 30  1  0
 30 31  2  0
 31 32  1  0
 32 33  2  0
 33 34  1  0
 34 35  2  0
 33 36  1  0
 36 37  2  0
 37 38  1  0
 38 39  2  0
 37 40  1  0
 40 41  1  0
  8  3  1  0
 21 17  1  0
 27 22  1  0
 35 30  1  0
 39 32  1  0
M  END
$$$$
