
     RDKit          3D

 41 45  0  0  0  0  0  0  0  0999 V2000
   16.1318    2.3902   -5.4109 C   0  0  0  0  0  0  0  0  0  0  0  0
   16.3537    1.5145   -6.6511 C   0  0  0  0  0  0  0  0  0  0  0  0
   15.2880    1.8049   -7.6117 C   0  0  0  0  0  0  0  0  0  0  0  0
   15.4485    2.8233   -8.5175 C   0  0  0  0  0  0  0  0  0  0  0  0
   14.4588    3.1485   -9.4617 C   0  0  0  0  0  0  0  0  0  0  0  0
   13.2927    2.4342   -9.4898 C   0  0  0  0  0  0  0  0  0  0  0  0
   13.1154    1.4098   -8.5888 C   0  0  0  0  0  0  0  0  0  0  0  0
   14.0890    1.1131   -7.6825 C   0  0  0  0  0  0  0  0  0  0  0  0
   12.2135    2.7175  -10.4352 C   0  0  0  0  0  0  0  0  0  0  0  0
   10.9942    2.5506  -10.0777 O   0  0  0  0  0  0  0  0  0  0  0  0
   12.4087    3.1770  -11.7538 N   0  0  0  0  0  0  0  0  0  0  0  0
   11.5555    4.1001  -12.4450 C   0  0  0  0  0  0  0  0  0  0  0  0
   10.3044    3.4245  -12.8932 C   0  0  0  0  0  0  0  0  0  0  0  0
    9.3988    4.3293  -13.6366 C   0  0  0  0  0  0  0  0  0  0  0  0
    8.8687    3.9292  -14.6948 O   0  0  0  0  0  0  0  0  0  0  0  0
    9.1253    5.6036  -13.1922 O   0  0  0  0  0  0  0  0  0  0  0  0
   17.6888    1.6976   -7.1625 N   0  0  0  0  0  0  0  0  0  0  0  0
   18.3550    0.8122   -7.9262 C   0  0  0  0  0  0  0  0  0  0  0  0
   19.5861    1.3639   -8.2140 C   0  0  0  0  0  0  0  0  0  0  0  0
   19.6320    2.6128   -7.5929 C   0  0  0  0  0  0  0  0  0  0  0  0
   18.4599    2.7394   -6.9841 N   0  0  0  0  0  0  0  0  0  0  0  0
   20.7382    3.5649   -7.6183 C   0  0  0  0  0  0  0  0  0  0  0  0
   21.7716    3.3987   -8.5212 C   0  0  0  0  0  0  0  0  0  0  0  0
   22.8090    4.3174   -8.5250 C   0  0  0  0  0  0  0  0  0  0  0  0
   22.8438    5.3907   -7.6582 C   0  0  0  0  0  0  0  0  0  0  0  0
   21.8115    5.5534   -6.7588 C   0  0  0  0  0  0  0  0  0  0  0  0
   20.7849    4.6402   -6.7586 C   0  0  0  0  0  0  0  0  0  0  0  0
   21.7500    6.8743   -5.6141 Cl  0  0  0  0  0  0  0  0  0  0  0  0
   24.1494    4.1570   -9.6509 Cl  0  0  0  0  0  0  0  0  0  0  0  0
   17.9601   -0.4976   -8.4295 C   0  0  0  0  0  0  0  0  0  0  0  0
   18.3765   -1.6503   -7.8166 C   0  0  0  0  0  0  0  0  0  0  0  0
   17.9729   -2.8878   -8.3044 C   0  0  0  0  0  0  0  0  0  0  0  0
   17.1418   -2.9423   -9.4223 C   0  0  0  0  0  0  0  0  0  0  0  0
   16.7183   -1.7853  -10.0463 C   0  0  0  0  0  0  0  0  0  0  0  0
   17.1257   -0.5699   -9.5520 C   0  0  0  0  0  0  0  0  0  0  0  0
   16.7518   -4.1768   -9.8884 C   0  0  0  0  0  0  0  0  0  0  0  0
   17.1503   -5.3717   -9.2931 C   0  0  0  0  0  0  0  0  0  0  0  0
   17.9721   -5.2673   -8.1902 C   0  0  0  0  0  0  0  0  0  0  0  0
   18.3814   -4.0549   -7.6970 C   0  0  0  0  0  0  0  0  0  0  0  0
   16.7354   -6.6029   -9.7927 O   0  0  0  0  0  0  0  0  0  0  0  0
   17.4156   -7.7766   -9.4373 C   0  0  0  0  0  0  0  0  0  0  0  0
  1  2  1  0
  2  3  1  0
  3  4  2  0
  4  5  1  0
  5  6  2  0
  6  7  1  0
  7  8  2  0
  6  9  1  0
  9 10  2  0
  9 11  1  0
 11 12  1  0
 12 13  1  0
 13 14  1  0
 14 15  2  0
 14 16  1  0
  2 17  1  0
 17 18  1  0
 18 19  2  0
 19 20  1  0
 20 21  2  0
 20 22  1  0
 22 23  2  0
 23 24  1  0
 24 25  2  0
 25 26  1  0
 26 27  2  0
 26 28  1  0
 24 29  1  0
 18 30  1  0
 30 31  2  0
 31 32  1  0
 32 33  2  0
 33 34  1  0
 34 35  2  0
 33 36  1  0
 36 37  2  0
 37 38  1  0
 38 39  2  0
 37 40  1  0
 40 41  1  0
  8  3  1  0
 21 17  1  0
 27 22  1  0
 35 30  1  0
 39 32  1  0
M  END
$$$$
