
     RDKit          3D

 41 45  0  0  0  0  0  0  0  0999 V2000
   14.7959    2.5175   -4.2308 C   0  0  0  0  0  0  0  0  0  0  0  0
   15.3646    2.0991   -5.5931 C   0  0  0  0  0  0  0  0  0  0  0  0
   14.4746    2.6114   -6.6362 C   0  0  0  0  0  0  0  0  0  0  0  0
   13.4062    1.8558   -7.0495 C   0  0  0  0  0  0  0  0  0  0  0  0
   12.5196    2.2957   -8.0481 C   0  0  0  0  0  0  0  0  0  0  0  0
   12.7163    3.5152   -8.6353 C   0  0  0  0  0  0  0  0  0  0  0  0
   13.7826    4.2857   -8.2328 C   0  0  0  0  0  0  0  0  0  0  0  0
   14.6289    3.8381   -7.2629 C   0  0  0  0  0  0  0  0  0  0  0  0
   11.8437    4.0377   -9.6860 C   0  0  0  0  0  0  0  0  0  0  0  0
   11.9917    5.2432  -10.0952 O   0  0  0  0  0  0  0  0  0  0  0  0
   10.8172    3.2998  -10.3103 N   0  0  0  0  0  0  0  0  0  0  0  0
   10.2724    3.5723  -11.6091 C   0  0  0  0  0  0  0  0  0  0  0  0
   11.2678    3.2562  -12.6732 C   0  0  0  0  0  0  0  0  0  0  0  0
   10.8304    3.6973  -14.0169 C   0  0  0  0  0  0  0  0  0  0  0  0
   11.6510    3.6928  -14.9588 O   0  0  0  0  0  0  0  0  0  0  0  0
    9.5400    4.1144  -14.2564 O   0  0  0  0  0  0  0  0  0  0  0  0
   16.7374    2.5214   -5.7149 N   0  0  0  0  0  0  0  0  0  0  0  0
   17.6984    1.8529   -6.3787 C   0  0  0  0  0  0  0  0  0  0  0  0
   18.8598    2.5892   -6.2697 C   0  0  0  0  0  0  0  0  0  0  0  0
   18.5578    3.7235   -5.5147 C   0  0  0  0  0  0  0  0  0  0  0  0
   17.2690    3.6099   -5.2206 N   0  0  0  0  0  0  0  0  0  0  0  0
   19.4734    4.7966   -5.1392 C   0  0  0  0  0  0  0  0  0  0  0  0
   19.0864    5.7391   -4.2050 C   0  0  0  0  0  0  0  0  0  0  0  0
   19.9751    6.7467   -3.8657 C   0  0  0  0  0  0  0  0  0  0  0  0
   21.2315    6.8395   -4.4292 C   0  0  0  0  0  0  0  0  0  0  0  0
   21.6141    5.8978   -5.3608 C   0  0  0  0  0  0  0  0  0  0  0  0
   20.7299    4.9004   -5.6942 C   0  0  0  0  0  0  0  0  0  0  0  0
   23.1799    5.9160   -6.1400 Cl  0  0  0  0  0  0  0  0  0  0  0  0
   19.5380    7.9723   -2.6839 Cl  0  0  0  0  0  0  0  0  0  0  0  0
   17.6474    0.5979   -7.1186 C   0  0  0  0  0  0  0  0  0  0  0  0
   16.6031    0.3087   -7.9574 C   0  0  0  0  0  0  0  0  0  0  0  0
   16.5847   -0.8872   -8.6658 C   0  0  0  0  0  0  0  0  0  0  0  0
   17.6385   -1.7870   -8.5128 C   0  0  0  0  0  0  0  0  0  0  0  0
   18.6942   -1.5033   -7.6689 C   0  0  0  0  0  0  0  0  0  0  0  0
   18.6980   -0.3171   -6.9758 C   0  0  0  0  0  0  0  0  0  0  0  0
   17.6025   -2.9641   -9.2243 C   0  0  0  0  0  0  0  0  0  0  0  0
   16.5615   -3.2950  -10.0890 C   0  0  0  0  0  0  0  0  0  0  0  0
   15.5417   -2.3738  -10.2075 C   0  0  0  0  0  0  0  0  0  0  0  0
   15.5429   -1.1903   -9.5147 C   0  0  0  0  0  0  0  0  0  0  0  0
   16.5592   -4.4959  -10.7930 O   0  0  0  0  0  0  0  0  0  0  0  0
   16.9622   -5.6842  -10.1669 C   0  0  0  0  0  0  0  0  0  0  0  0
  1  2  1  0
  2  3  1  0
  3  4  2  0
  4  5  1  0
  5  6  2  0
  6  7  1  0
  7  8  2  0
  6  9  1  0
  9 10  2  0
  9 11  1  0
 11 12  1  0
 12 13  1  0
 13 14  1  0
 14 15  2  0
 14 16  1  0
  2 17  1  0
 17 18  1  0
 18 19  2  0
 19 20  1  0
 20 21  2  0
 20 22  1  0
 22 23  2  0
 23 24  1  0
 24 25  2  0
 25 26  1  0
 26 27  2  0
 26 28  1  0
 24 29  1  0
 18 30  1  0
 30 31  2  0
 31 32  1  0
 32 33  2  0
 33 34  1  0
 34 35  2  0
 33 36  1  0
 36 37  2  0
 37 38  1  0
 38 39  2  0
 37 40  1  0
 40 41  1  0
  8  3  1  0
 21 17  1  0
 27 22  1  0
 35 30  1  0
 39 32  1  0
M  END
$$$$
