
     RDKit          3D

 41 45  0  0  0  0  0  0  0  0999 V2000
   20.3826   -0.2252   -9.0035 C   0  0  0  0  0  0  0  0  0  0  0  0
   19.2145   -0.7626   -8.1663 C   0  0  0  0  0  0  0  0  0  0  0  0
   18.0590    0.1099   -8.3816 C   0  0  0  0  0  0  0  0  0  0  0  0
   16.9157   -0.4021   -8.9420 C   0  0  0  0  0  0  0  0  0  0  0  0
   15.7765    0.3886   -9.1739 C   0  0  0  0  0  0  0  0  0  0  0  0
   15.7943    1.7134   -8.8341 C   0  0  0  0  0  0  0  0  0  0  0  0
   16.9324    2.2430   -8.2712 C   0  0  0  0  0  0  0  0  0  0  0  0
   18.0248    1.4568   -8.0562 C   0  0  0  0  0  0  0  0  0  0  0  0
   14.6533    2.6017   -9.0519 C   0  0  0  0  0  0  0  0  0  0  0  0
   14.4167    3.5489   -8.2218 O   0  0  0  0  0  0  0  0  0  0  0  0
   13.7603    2.5011  -10.1385 N   0  0  0  0  0  0  0  0  0  0  0  0
   12.5229    3.2158  -10.2635 C   0  0  0  0  0  0  0  0  0  0  0  0
   12.1396    3.8343   -8.9622 C   0  0  0  0  0  0  0  0  0  0  0  0
   10.9044    4.6450   -9.0543 C   0  0  0  0  0  0  0  0  0  0  0  0
   10.9942    5.8755   -9.2501 O   0  0  0  0  0  0  0  0  0  0  0  0
    9.6561    4.0774   -8.9285 O   0  0  0  0  0  0  0  0  0  0  0  0
   18.9804   -2.1531   -8.4656 N   0  0  0  0  0  0  0  0  0  0  0  0
   18.4589   -3.0530   -7.6116 C   0  0  0  0  0  0  0  0  0  0  0  0
   18.3866   -4.2577   -8.2796 C   0  0  0  0  0  0  0  0  0  0  0  0
   18.8853   -4.0451   -9.5656 C   0  0  0  0  0  0  0  0  0  0  0  0
   19.2197   -2.7615   -9.5988 N   0  0  0  0  0  0  0  0  0  0  0  0
   19.0051   -5.0322  -10.6343 C   0  0  0  0  0  0  0  0  0  0  0  0
   19.6675   -4.7073  -11.8033 C   0  0  0  0  0  0  0  0  0  0  0  0
   19.7678   -5.6631  -12.8015 C   0  0  0  0  0  0  0  0  0  0  0  0
   19.2287   -6.9264  -12.6667 C   0  0  0  0  0  0  0  0  0  0  0  0
   18.5686   -7.2470  -11.4995 C   0  0  0  0  0  0  0  0  0  0  0  0
   18.4715   -6.2963  -10.5123 C   0  0  0  0  0  0  0  0  0  0  0  0
   17.8463   -8.8149  -11.2182 Cl  0  0  0  0  0  0  0  0  0  0  0  0
   20.5989   -5.3067  -14.3089 Cl  0  0  0  0  0  0  0  0  0  0  0  0
   18.0072   -2.9069   -6.2334 C   0  0  0  0  0  0  0  0  0  0  0  0
   18.8398   -2.4207   -5.2597 C   0  0  0  0  0  0  0  0  0  0  0  0
   18.3813   -2.2741   -3.9557 C   0  0  0  0  0  0  0  0  0  0  0  0
   17.0677   -2.6272   -3.6506 C   0  0  0  0  0  0  0  0  0  0  0  0
   16.2225   -3.1186   -4.6260 C   0  0  0  0  0  0  0  0  0  0  0  0
   16.6904   -3.2575   -5.9102 C   0  0  0  0  0  0  0  0  0  0  0  0
   16.6325   -2.4726   -2.3545 C   0  0  0  0  0  0  0  0  0  0  0  0
   17.4456   -1.9796   -1.3363 C   0  0  0  0  0  0  0  0  0  0  0  0
   18.7369   -1.6439   -1.6860 C   0  0  0  0  0  0  0  0  0  0  0  0
   19.2061   -1.7841   -2.9670 C   0  0  0  0  0  0  0  0  0  0  0  0
   16.9704   -1.8367   -0.0357 O   0  0  0  0  0  0  0  0  0  0  0  0
   15.6156   -1.5593    0.1965 C   0  0  0  0  0  0  0  0  0  0  0  0
  1  2  1  0
  2  3  1  0
  3  4  2  0
  4  5  1  0
  5  6  2  0
  6  7  1  0
  7  8  2  0
  6  9  1  0
  9 10  2  0
  9 11  1  0
 11 12  1  0
 12 13  1  0
 13 14  1  0
 14 15  2  0
 14 16  1  0
  2 17  1  0
 17 18  1  0
 18 19  2  0
 19 20  1  0
 20 21  2  0
 20 22  1  0
 22 23  2  0
 23 24  1  0
 24 25  2  0
 25 26  1  0
 26 27  2  0
 26 28  1  0
 24 29  1  0
 18 30  1  0
 30 31  2  0
 31 32  1  0
 32 33  2  0
 33 34  1  0
 34 35  2  0
 33 36  1  0
 36 37  2  0
 37 38  1  0
 38 39  2  0
 37 40  1  0
 40 41  1  0
  8  3  1  0
 21 17  1  0
 27 22  1  0
 35 30  1  0
 39 32  1  0
M  END
$$$$
