
     RDKit          3D

 41 45  0  0  0  0  0  0  0  0999 V2000
   14.3346    2.1501   -4.9264 C   0  0  0  0  0  0  0  0  0  0  0  0
   14.8863    1.4985   -6.2013 C   0  0  0  0  0  0  0  0  0  0  0  0
   14.2342    2.1243   -7.3527 C   0  0  0  0  0  0  0  0  0  0  0  0
   14.8557    3.1583   -8.0068 C   0  0  0  0  0  0  0  0  0  0  0  0
   14.2765    3.7982   -9.1167 C   0  0  0  0  0  0  0  0  0  0  0  0
   13.0537    3.3863   -9.5705 C   0  0  0  0  0  0  0  0  0  0  0  0
   12.4167    2.3509   -8.9266 C   0  0  0  0  0  0  0  0  0  0  0  0
   12.9978    1.7460   -7.8523 C   0  0  0  0  0  0  0  0  0  0  0  0
   12.3831    4.0069  -10.7123 C   0  0  0  0  0  0  0  0  0  0  0  0
   13.0548    4.7326  -11.5275 O   0  0  0  0  0  0  0  0  0  0  0  0
   11.0104    3.8678  -11.0030 N   0  0  0  0  0  0  0  0  0  0  0  0
   10.3534    4.3846  -12.1687 C   0  0  0  0  0  0  0  0  0  0  0  0
   11.1665    4.1211  -13.3903 C   0  0  0  0  0  0  0  0  0  0  0  0
   10.7149    2.9223  -14.1322 C   0  0  0  0  0  0  0  0  0  0  0  0
   11.3627    2.5411  -15.1301 O   0  0  0  0  0  0  0  0  0  0  0  0
    9.5964    2.2151  -13.7512 O   0  0  0  0  0  0  0  0  0  0  0  0
   16.3260    1.5663   -6.2169 N   0  0  0  0  0  0  0  0  0  0  0  0
   17.1316    0.7776   -6.9518 C   0  0  0  0  0  0  0  0  0  0  0  0
   18.4301    1.1659   -6.6956 C   0  0  0  0  0  0  0  0  0  0  0  0
   18.3715    2.2166   -5.7788 C   0  0  0  0  0  0  0  0  0  0  0  0
   17.0785    2.3968   -5.5418 N   0  0  0  0  0  0  0  0  0  0  0  0
   19.4991    2.9509   -5.2129 C   0  0  0  0  0  0  0  0  0  0  0  0
   19.3348    3.6792   -4.0496 C   0  0  0  0  0  0  0  0  0  0  0  0
   20.4216    4.3662   -3.5331 C   0  0  0  0  0  0  0  0  0  0  0  0
   21.6603    4.3471   -4.1414 C   0  0  0  0  0  0  0  0  0  0  0  0
   21.8206    3.6197   -5.3016 C   0  0  0  0  0  0  0  0  0  0  0  0
   20.7403    2.9399   -5.8103 C   0  0  0  0  0  0  0  0  0  0  0  0
   23.3424    3.5235   -6.1583 Cl  0  0  0  0  0  0  0  0  0  0  0  0
   20.2721    5.3085   -2.0567 Cl  0  0  0  0  0  0  0  0  0  0  0  0
   16.8180   -0.2997   -7.8825 C   0  0  0  0  0  0  0  0  0  0  0  0
   17.3351   -0.3165   -9.1514 C   0  0  0  0  0  0  0  0  0  0  0  0
   17.0358   -1.3633  -10.0155 C   0  0  0  0  0  0  0  0  0  0  0  0
   16.2047   -2.3932   -9.5773 C   0  0  0  0  0  0  0  0  0  0  0  0
   15.6789   -2.3834   -8.3003 C   0  0  0  0  0  0  0  0  0  0  0  0
   15.9843   -1.3419   -7.4580 C   0  0  0  0  0  0  0  0  0  0  0  0
   15.9222   -3.4213  -10.4472 C   0  0  0  0  0  0  0  0  0  0  0  0
   16.4294   -3.4776  -11.7435 C   0  0  0  0  0  0  0  0  0  0  0  0
   17.2465   -2.4364  -12.1319 C   0  0  0  0  0  0  0  0  0  0  0  0
   17.5505   -1.3950  -11.2930 C   0  0  0  0  0  0  0  0  0  0  0  0
   16.1217   -4.5342  -12.5959 O   0  0  0  0  0  0  0  0  0  0  0  0
   14.8101   -5.0249  -12.6703 C   0  0  0  0  0  0  0  0  0  0  0  0
  1  2  1  0
  2  3  1  0
  3  4  2  0
  4  5  1  0
  5  6  2  0
  6  7  1  0
  7  8  2  0
  6  9  1  0
  9 10  2  0
  9 11  1  0
 11 12  1  0
 12 13  1  0
 13 14  1  0
 14 15  2  0
 14 16  1  0
  2 17  1  0
 17 18  1  0
 18 19  2  0
 19 20  1  0
 20 21  2  0
 20 22  1  0
 22 23  2  0
 23 24  1  0
 24 25  2  0
 25 26  1  0
 26 27  2  0
 26 28  1  0
 24 29  1  0
 18 30  1  0
 30 31  2  0
 31 32  1  0
 32 33  2  0
 33 34  1  0
 34 35  2  0
 33 36  1  0
 36 37  2  0
 37 38  1  0
 38 39  2  0
 37 40  1  0
 40 41  1  0
  8  3  1  0
 21 17  1  0
 27 22  1  0
 35 30  1  0
 39 32  1  0
M  END
$$$$
