
     RDKit          3D

 41 45  0  0  0  0  0  0  0  0999 V2000
   16.5044    4.1359   -4.1247 C   0  0  0  0  0  0  0  0  0  0  0  0
   16.6193    2.9313   -5.0681 C   0  0  0  0  0  0  0  0  0  0  0  0
   15.7751    3.1846   -6.2368 C   0  0  0  0  0  0  0  0  0  0  0  0
   16.1138    4.1820   -7.1164 C   0  0  0  0  0  0  0  0  0  0  0  0
   15.3401    4.4714   -8.2543 C   0  0  0  0  0  0  0  0  0  0  0  0
   14.2105    3.7423   -8.5052 C   0  0  0  0  0  0  0  0  0  0  0  0
   13.8565    2.7384   -7.6336 C   0  0  0  0  0  0  0  0  0  0  0  0
   14.6220    2.4764   -6.5369 C   0  0  0  0  0  0  0  0  0  0  0  0
   13.3500    3.9887   -9.6616 C   0  0  0  0  0  0  0  0  0  0  0  0
   13.1102    5.1920  -10.0316 O   0  0  0  0  0  0  0  0  0  0  0  0
   12.7412    2.9772  -10.4326 N   0  0  0  0  0  0  0  0  0  0  0  0
   11.5997    3.1564  -11.2826 C   0  0  0  0  0  0  0  0  0  0  0  0
   12.0184    3.6387  -12.6298 C   0  0  0  0  0  0  0  0  0  0  0  0
   12.6233    2.5715  -13.4584 C   0  0  0  0  0  0  0  0  0  0  0  0
   12.8954    2.8070  -14.6548 O   0  0  0  0  0  0  0  0  0  0  0  0
   12.8936    1.3229  -12.9446 O   0  0  0  0  0  0  0  0  0  0  0  0
   18.0022    2.6631   -5.3735 N   0  0  0  0  0  0  0  0  0  0  0  0
   18.4378    1.7386   -6.2492 C   0  0  0  0  0  0  0  0  0  0  0  0
   19.8156    1.8038   -6.2624 C   0  0  0  0  0  0  0  0  0  0  0  0
   20.1884    2.8019   -5.3609 C   0  0  0  0  0  0  0  0  0  0  0  0
   19.0472    3.2682   -4.8701 N   0  0  0  0  0  0  0  0  0  0  0  0
   21.5461    3.2307   -5.0391 C   0  0  0  0  0  0  0  0  0  0  0  0
   21.7820    3.9816   -3.9028 C   0  0  0  0  0  0  0  0  0  0  0  0
   23.0803    4.3748   -3.6200 C   0  0  0  0  0  0  0  0  0  0  0  0
   24.1434    4.0416   -4.4347 C   0  0  0  0  0  0  0  0  0  0  0  0
   23.9044    3.2927   -5.5673 C   0  0  0  0  0  0  0  0  0  0  0  0
   22.6156    2.9049   -5.8438 C   0  0  0  0  0  0  0  0  0  0  0  0
   25.1726    2.8126   -6.6721 Cl  0  0  0  0  0  0  0  0  0  0  0  0
   23.4401    5.3303   -2.1892 Cl  0  0  0  0  0  0  0  0  0  0  0  0
   17.7019    0.8018   -7.0893 C   0  0  0  0  0  0  0  0  0  0  0  0
   17.2785    1.1530   -8.3443 C   0  0  0  0  0  0  0  0  0  0  0  0
   16.5934    0.2369   -9.1339 C   0  0  0  0  0  0  0  0  0  0  0  0
   16.3419   -1.0402   -8.6349 C   0  0  0  0  0  0  0  0  0  0  0  0
   16.7645   -1.4018   -7.3708 C   0  0  0  0  0  0  0  0  0  0  0  0
   17.4407   -0.4852   -6.6026 C   0  0  0  0  0  0  0  0  0  0  0  0
   15.6640   -1.9330   -9.4329 C   0  0  0  0  0  0  0  0  0  0  0  0
   15.2192   -1.6169  -10.7147 C   0  0  0  0  0  0  0  0  0  0  0  0
   15.4911   -0.3418  -11.1650 C   0  0  0  0  0  0  0  0  0  0  0  0
   16.1641    0.5750  -10.3986 C   0  0  0  0  0  0  0  0  0  0  0  0
   14.5362   -2.5466  -11.4937 O   0  0  0  0  0  0  0  0  0  0  0  0
   13.9636   -3.6817  -10.9019 C   0  0  0  0  0  0  0  0  0  0  0  0
  1  2  1  0
  2  3  1  0
  3  4  2  0
  4  5  1  0
  5  6  2  0
  6  7  1  0
  7  8  2  0
  6  9  1  0
  9 10  2  0
  9 11  1  0
 11 12  1  0
 12 13  1  0
 13 14  1  0
 14 15  2  0
 14 16  1  0
  2 17  1  0
 17 18  1  0
 18 19  2  0
 19 20  1  0
 20 21  2  0
 20 22  1  0
 22 23  2  0
 23 24  1  0
 24 25  2  0
 25 26  1  0
 26 27  2  0
 26 28  1  0
 24 29  1  0
 18 30  1  0
 30 31  2  0
 31 32  1  0
 32 33  2  0
 33 34  1  0
 34 35  2  0
 33 36  1  0
 36 37  2  0
 37 38  1  0
 38 39  2  0
 37 40  1  0
 40 41  1  0
  8  3  1  0
 21 17  1  0
 27 22  1  0
 35 30  1  0
 39 32  1  0
M  END
$$$$
