
     RDKit          3D

 41 45  0  0  0  0  0  0  0  0999 V2000
   19.1511   -0.6027   -9.4329 C   0  0  0  0  0  0  0  0  0  0  0  0
   18.0849   -0.7081   -8.3345 C   0  0  0  0  0  0  0  0  0  0  0  0
   16.9516    0.1361   -8.7160 C   0  0  0  0  0  0  0  0  0  0  0  0
   16.9897    0.8314   -9.8986 C   0  0  0  0  0  0  0  0  0  0  0  0
   15.9318    1.6584  -10.3154 C   0  0  0  0  0  0  0  0  0  0  0  0
   14.8217    1.7830   -9.5261 C   0  0  0  0  0  0  0  0  0  0  0  0
   14.7669    1.0928   -8.3374 C   0  0  0  0  0  0  0  0  0  0  0  0
   15.8050    0.2972   -7.9540 C   0  0  0  0  0  0  0  0  0  0  0  0
   13.6854    2.6300   -9.8865 C   0  0  0  0  0  0  0  0  0  0  0  0
   12.7581    2.8493   -9.0295 O   0  0  0  0  0  0  0  0  0  0  0  0
   13.5188    3.2491  -11.1423 N   0  0  0  0  0  0  0  0  0  0  0  0
   12.6318    2.8006  -12.1766 C   0  0  0  0  0  0  0  0  0  0  0  0
   11.3408    2.3334  -11.5954 C   0  0  0  0  0  0  0  0  0  0  0  0
   10.2061    2.4683  -12.5365 C   0  0  0  0  0  0  0  0  0  0  0  0
    9.1194    1.9140  -12.2670 O   0  0  0  0  0  0  0  0  0  0  0  0
   10.3172    3.1894  -13.7044 O   0  0  0  0  0  0  0  0  0  0  0  0
   17.7497   -2.0886   -8.0911 N   0  0  0  0  0  0  0  0  0  0  0  0
   18.3177   -3.1441   -8.7031 C   0  0  0  0  0  0  0  0  0  0  0  0
   17.7327   -4.2812   -8.1859 C   0  0  0  0  0  0  0  0  0  0  0  0
   16.7924   -3.8665   -7.2417 C   0  0  0  0  0  0  0  0  0  0  0  0
   16.8624   -2.5415   -7.2431 N   0  0  0  0  0  0  0  0  0  0  0  0
   15.9268   -4.7193   -6.4327 C   0  0  0  0  0  0  0  0  0  0  0  0
   16.0749   -6.0930   -6.4765 C   0  0  0  0  0  0  0  0  0  0  0  0
   15.2409   -6.8794   -5.6980 C   0  0  0  0  0  0  0  0  0  0  0  0
   14.2691   -6.3366   -4.8820 C   0  0  0  0  0  0  0  0  0  0  0  0
   14.1241   -4.9662   -4.8409 C   0  0  0  0  0  0  0  0  0  0  0  0
   14.9532   -4.1901   -5.6144 C   0  0  0  0  0  0  0  0  0  0  0  0
   12.9279   -4.1682   -3.8452 Cl  0  0  0  0  0  0  0  0  0  0  0  0
   15.3834   -8.6313   -5.7127 Cl  0  0  0  0  0  0  0  0  0  0  0  0
   19.3626   -3.2073   -9.7175 C   0  0  0  0  0  0  0  0  0  0  0  0
   19.1106   -3.7077  -10.9681 C   0  0  0  0  0  0  0  0  0  0  0  0
   20.1186   -3.7419  -11.9246 C   0  0  0  0  0  0  0  0  0  0  0  0
   21.3862   -3.2630  -11.5973 C   0  0  0  0  0  0  0  0  0  0  0  0
   21.6486   -2.7579  -10.3390 C   0  0  0  0  0  0  0  0  0  0  0  0
   20.6418   -2.7306   -9.4046 C   0  0  0  0  0  0  0  0  0  0  0  0
   22.3697   -3.3038  -12.5588 C   0  0  0  0  0  0  0  0  0  0  0  0
   22.1542   -3.8016  -13.8420 C   0  0  0  0  0  0  0  0  0  0  0  0
   20.8846   -4.2642  -14.1190 C   0  0  0  0  0  0  0  0  0  0  0  0
   19.8792   -4.2396  -13.1868 C   0  0  0  0  0  0  0  0  0  0  0  0
   23.1739   -3.8269  -14.7892 O   0  0  0  0  0  0  0  0  0  0  0  0
   24.5068   -3.6313  -14.3998 C   0  0  0  0  0  0  0  0  0  0  0  0
  1  2  1  0
  2  3  1  0
  3  4  2  0
  4  5  1  0
  5  6  2  0
  6  7  1  0
  7  8  2  0
  6  9  1  0
  9 10  2  0
  9 11  1  0
 11 12  1  0
 12 13  1  0
 13 14  1  0
 14 15  2  0
 14 16  1  0
  2 17  1  0
 17 18  1  0
 18 19  2  0
 19 20  1  0
 20 21  2  0
 20 22  1  0
 22 23  2  0
 23 24  1  0
 24 25  2  0
 25 26  1  0
 26 27  2  0
 26 28  1  0
 24 29  1  0
 18 30  1  0
 30 31  2  0
 31 32  1  0
 32 33  2  0
 33 34  1  0
 34 35  2  0
 33 36  1  0
 36 37  2  0
 37 38  1  0
 38 39  2  0
 37 40  1  0
 40 41  1  0
  8  3  1  0
 21 17  1  0
 27 22  1  0
 35 30  1  0
 39 32  1  0
M  END
$$$$
