
     RDKit          3D

 41 45  0  0  0  0  0  0  0  0999 V2000
   15.4863    1.2082   -5.3183 C   0  0  0  0  0  0  0  0  0  0  0  0
   15.9237    0.7608   -6.7193 C   0  0  0  0  0  0  0  0  0  0  0  0
   15.1038    1.4712   -7.7021 C   0  0  0  0  0  0  0  0  0  0  0  0
   13.7919    1.1104   -7.8808 C   0  0  0  0  0  0  0  0  0  0  0  0
   12.9578    1.7555   -8.8109 C   0  0  0  0  0  0  0  0  0  0  0  0
   13.4575    2.7785   -9.5690 C   0  0  0  0  0  0  0  0  0  0  0  0
   14.7706    3.1532   -9.4025 C   0  0  0  0  0  0  0  0  0  0  0  0
   15.5601    2.5127   -8.4947 C   0  0  0  0  0  0  0  0  0  0  0  0
   12.6560    3.4918  -10.5626 C   0  0  0  0  0  0  0  0  0  0  0  0
   13.2164    4.3413  -11.3414 O   0  0  0  0  0  0  0  0  0  0  0  0
   11.2687    3.3160  -10.7434 N   0  0  0  0  0  0  0  0  0  0  0  0
   10.5165    3.7692  -11.8777 C   0  0  0  0  0  0  0  0  0  0  0  0
   10.7541    2.8837  -13.0534 C   0  0  0  0  0  0  0  0  0  0  0  0
   10.1868    3.4301  -14.3068 C   0  0  0  0  0  0  0  0  0  0  0  0
   10.4237    4.6165  -14.6186 O   0  0  0  0  0  0  0  0  0  0  0  0
    9.4023    2.6639  -15.1397 O   0  0  0  0  0  0  0  0  0  0  0  0
   17.3447    0.9389   -6.8823 N   0  0  0  0  0  0  0  0  0  0  0  0
   18.1301    0.2066   -7.6934 C   0  0  0  0  0  0  0  0  0  0  0  0
   19.4139    0.6963   -7.5724 C   0  0  0  0  0  0  0  0  0  0  0  0
   19.3675    1.7492   -6.6575 C   0  0  0  0  0  0  0  0  0  0  0  0
   18.0952    1.8320   -6.2901 N   0  0  0  0  0  0  0  0  0  0  0  0
   20.4864    2.5741   -6.2119 C   0  0  0  0  0  0  0  0  0  0  0  0
   20.3382    3.4060   -5.1180 C   0  0  0  0  0  0  0  0  0  0  0  0
   21.4164    4.1777   -4.7153 C   0  0  0  0  0  0  0  0  0  0  0  0
   22.6309    4.1428   -5.3699 C   0  0  0  0  0  0  0  0  0  0  0  0
   22.7751    3.3120   -6.4607 C   0  0  0  0  0  0  0  0  0  0  0  0
   21.7035    2.5484   -6.8565 C   0  0  0  0  0  0  0  0  0  0  0  0
   24.2659    3.1860   -7.3667 Cl  0  0  0  0  0  0  0  0  0  0  0  0
   21.2865    5.2534   -3.3312 Cl  0  0  0  0  0  0  0  0  0  0  0  0
   17.8081   -0.9016   -8.5840 C   0  0  0  0  0  0  0  0  0  0  0  0
   17.8256   -2.1983   -8.1412 C   0  0  0  0  0  0  0  0  0  0  0  0
   17.4980   -3.2373   -9.0045 C   0  0  0  0  0  0  0  0  0  0  0  0
   17.1529   -2.9455  -10.3232 C   0  0  0  0  0  0  0  0  0  0  0  0
   17.1336   -1.6415  -10.7776 C   0  0  0  0  0  0  0  0  0  0  0  0
   17.4596   -0.6255   -9.9121 C   0  0  0  0  0  0  0  0  0  0  0  0
   16.8300   -3.9880  -11.1613 C   0  0  0  0  0  0  0  0  0  0  0  0
   16.8328   -5.3191  -10.7502 C   0  0  0  0  0  0  0  0  0  0  0  0
   17.1808   -5.5584   -9.4371 C   0  0  0  0  0  0  0  0  0  0  0  0
   17.5086   -4.5455   -8.5726 C   0  0  0  0  0  0  0  0  0  0  0  0
   16.5000   -6.3480  -11.6267 O   0  0  0  0  0  0  0  0  0  0  0  0
   15.9353   -6.0580  -12.8771 C   0  0  0  0  0  0  0  0  0  0  0  0
  1  2  1  0
  2  3  1  0
  3  4  2  0
  4  5  1  0
  5  6  2  0
  6  7  1  0
  7  8  2  0
  6  9  1  0
  9 10  2  0
  9 11  1  0
 11 12  1  0
 12 13  1  0
 13 14  1  0
 14 15  2  0
 14 16  1  0
  2 17  1  0
 17 18  1  0
 18 19  2  0
 19 20  1  0
 20 21  2  0
 20 22  1  0
 22 23  2  0
 23 24  1  0
 24 25  2  0
 25 26  1  0
 26 27  2  0
 26 28  1  0
 24 29  1  0
 18 30  1  0
 30 31  2  0
 31 32  1  0
 32 33  2  0
 33 34  1  0
 34 35  2  0
 33 36  1  0
 36 37  2  0
 37 38  1  0
 38 39  2  0
 37 40  1  0
 40 41  1  0
  8  3  1  0
 21 17  1  0
 27 22  1  0
 35 30  1  0
 39 32  1  0
M  END
$$$$
