
     RDKit          3D

 41 45  0  0  0  0  0  0  0  0999 V2000
   15.5874    0.5850   -5.6182 C   0  0  0  0  0  0  0  0  0  0  0  0
   15.9234    0.2738   -7.0826 C   0  0  0  0  0  0  0  0  0  0  0  0
   14.9402    0.9501   -7.9302 C   0  0  0  0  0  0  0  0  0  0  0  0
   13.6918    0.4035   -8.0919 C   0  0  0  0  0  0  0  0  0  0  0  0
   12.7083    1.0075   -8.8949 C   0  0  0  0  0  0  0  0  0  0  0  0
   12.9914    2.1790   -9.5417 C   0  0  0  0  0  0  0  0  0  0  0  0
   14.2380    2.7408   -9.3904 C   0  0  0  0  0  0  0  0  0  0  0  0
   15.1755    2.1367   -8.6069 C   0  0  0  0  0  0  0  0  0  0  0  0
   12.0251    2.8624  -10.4006 C   0  0  0  0  0  0  0  0  0  0  0  0
   10.8488    2.3757  -10.5480 O   0  0  0  0  0  0  0  0  0  0  0  0
   12.2878    4.0557  -11.1043 N   0  0  0  0  0  0  0  0  0  0  0  0
   11.9929    4.2832  -12.4896 C   0  0  0  0  0  0  0  0  0  0  0  0
   10.6925    3.6549  -12.8600 C   0  0  0  0  0  0  0  0  0  0  0  0
   10.7136    3.0456  -14.2090 C   0  0  0  0  0  0  0  0  0  0  0  0
    9.6488    2.9573  -14.8563 O   0  0  0  0  0  0  0  0  0  0  0  0
   11.8784    2.5717  -14.7700 O   0  0  0  0  0  0  0  0  0  0  0  0
   17.2951    0.6140   -7.3660 N   0  0  0  0  0  0  0  0  0  0  0  0
   18.1256   -0.1002   -8.1479 C   0  0  0  0  0  0  0  0  0  0  0  0
   19.3352    0.5622   -8.1735 C   0  0  0  0  0  0  0  0  0  0  0  0
   19.1977    1.6997   -7.3767 C   0  0  0  0  0  0  0  0  0  0  0  0
   17.9492    1.6596   -6.9295 N   0  0  0  0  0  0  0  0  0  0  0  0
   20.2170    2.7087   -7.1049 C   0  0  0  0  0  0  0  0  0  0  0  0
   21.4456    2.6361   -7.7343 C   0  0  0  0  0  0  0  0  0  0  0  0
   22.3950    3.6071   -7.4592 C   0  0  0  0  0  0  0  0  0  0  0  0
   22.1542    4.6424   -6.5789 C   0  0  0  0  0  0  0  0  0  0  0  0
   20.9277    4.7118   -5.9528 C   0  0  0  0  0  0  0  0  0  0  0  0
   19.9892    3.7468   -6.2285 C   0  0  0  0  0  0  0  0  0  0  0  0
   20.5115    5.9770   -4.8193 Cl  0  0  0  0  0  0  0  0  0  0  0  0
   23.9743    3.5660   -8.2300 Cl  0  0  0  0  0  0  0  0  0  0  0  0
   17.9077   -1.3370   -8.8880 C   0  0  0  0  0  0  0  0  0  0  0  0
   17.9533   -2.5565   -8.2647 C   0  0  0  0  0  0  0  0  0  0  0  0
   17.7252   -3.7214   -8.9879 C   0  0  0  0  0  0  0  0  0  0  0  0
   17.4507   -3.6348  -10.3519 C   0  0  0  0  0  0  0  0  0  0  0  0
   17.4037   -2.4098  -10.9878 C   0  0  0  0  0  0  0  0  0  0  0  0
   17.6311   -1.2675  -10.2592 C   0  0  0  0  0  0  0  0  0  0  0  0
   17.2258   -4.7993  -11.0495 C   0  0  0  0  0  0  0  0  0  0  0  0
   17.2603   -6.0580  -10.4534 C   0  0  0  0  0  0  0  0  0  0  0  0
   17.5358   -6.0933   -9.1024 C   0  0  0  0  0  0  0  0  0  0  0  0
   17.7652   -4.9541   -8.3741 C   0  0  0  0  0  0  0  0  0  0  0  0
   17.0274   -7.2151  -11.1915 O   0  0  0  0  0  0  0  0  0  0  0  0
   17.7561   -7.4660  -12.3631 C   0  0  0  0  0  0  0  0  0  0  0  0
  1  2  1  0
  2  3  1  0
  3  4  2  0
  4  5  1  0
  5  6  2  0
  6  7  1  0
  7  8  2  0
  6  9  1  0
  9 10  2  0
  9 11  1  0
 11 12  1  0
 12 13  1  0
 13 14  1  0
 14 15  2  0
 14 16  1  0
  2 17  1  0
 17 18  1  0
 18 19  2  0
 19 20  1  0
 20 21  2  0
 20 22  1  0
 22 23  2  0
 23 24  1  0
 24 25  2  0
 25 26  1  0
 26 27  2  0
 26 28  1  0
 24 29  1  0
 18 30  1  0
 30 31  2  0
 31 32  1  0
 32 33  2  0
 33 34  1  0
 34 35  2  0
 33 36  1  0
 36 37  2  0
 37 38  1  0
 38 39  2  0
 37 40  1  0
 40 41  1  0
  8  3  1  0
 21 17  1  0
 27 22  1  0
 35 30  1  0
 39 32  1  0
M  END
$$$$
