
     RDKit          3D

 41 45  0  0  0  0  0  0  0  0999 V2000
   19.9458    0.0171  -10.1837 C   0  0  0  0  0  0  0  0  0  0  0  0
   19.3476   -0.3504   -8.8194 C   0  0  0  0  0  0  0  0  0  0  0  0
   18.1669    0.4861   -8.5984 C   0  0  0  0  0  0  0  0  0  0  0  0
   16.9317    0.0364   -8.9927 C   0  0  0  0  0  0  0  0  0  0  0  0
   15.7637    0.7970   -8.8077 C   0  0  0  0  0  0  0  0  0  0  0  0
   15.8467    2.0274   -8.2161 C   0  0  0  0  0  0  0  0  0  0  0  0
   17.0772    2.4936   -7.8146 C   0  0  0  0  0  0  0  0  0  0  0  0
   18.1957    1.7384   -8.0047 C   0  0  0  0  0  0  0  0  0  0  0  0
   14.6795    2.8807   -7.9973 C   0  0  0  0  0  0  0  0  0  0  0  0
   14.8233    4.0247   -7.4378 O   0  0  0  0  0  0  0  0  0  0  0  0
   13.3618    2.5391   -8.3648 N   0  0  0  0  0  0  0  0  0  0  0  0
   12.2525    3.4474   -8.4128 C   0  0  0  0  0  0  0  0  0  0  0  0
   11.1186    2.9357   -7.5910 C   0  0  0  0  0  0  0  0  0  0  0  0
   11.5681    2.1514   -6.4187 C   0  0  0  0  0  0  0  0  0  0  0  0
   11.8684    0.9478   -6.5674 O   0  0  0  0  0  0  0  0  0  0  0  0
   11.6632    2.7143   -5.1656 O   0  0  0  0  0  0  0  0  0  0  0  0
   19.1005   -1.7686   -8.7453 N   0  0  0  0  0  0  0  0  0  0  0  0
   19.0945   -2.4966   -7.6134 C   0  0  0  0  0  0  0  0  0  0  0  0
   18.8082   -3.7992   -7.9655 C   0  0  0  0  0  0  0  0  0  0  0  0
   18.6438   -3.8236   -9.3512 C   0  0  0  0  0  0  0  0  0  0  0  0
   18.8344   -2.5707   -9.7440 N   0  0  0  0  0  0  0  0  0  0  0  0
   18.3281   -4.9854  -10.1767 C   0  0  0  0  0  0  0  0  0  0  0  0
   18.4146   -6.2569   -9.6412 C   0  0  0  0  0  0  0  0  0  0  0  0
   18.1085   -7.3424  -10.4461 C   0  0  0  0  0  0  0  0  0  0  0  0
   17.7209   -7.1955  -11.7626 C   0  0  0  0  0  0  0  0  0  0  0  0
   17.6358   -5.9260  -12.2934 C   0  0  0  0  0  0  0  0  0  0  0  0
   17.9402   -4.8524  -11.4917 C   0  0  0  0  0  0  0  0  0  0  0  0
   17.1565   -5.6195  -13.9473 Cl  0  0  0  0  0  0  0  0  0  0  0  0
   18.2004   -8.9822   -9.8195 Cl  0  0  0  0  0  0  0  0  0  0  0  0
   19.3176   -2.1034   -6.2275 C   0  0  0  0  0  0  0  0  0  0  0  0
   18.4327   -2.4473   -5.2393 C   0  0  0  0  0  0  0  0  0  0  0  0
   18.6755   -2.0759   -3.9220 C   0  0  0  0  0  0  0  0  0  0  0  0
   19.8267   -1.3506   -3.6188 C   0  0  0  0  0  0  0  0  0  0  0  0
   20.7230   -0.9994   -4.6090 C   0  0  0  0  0  0  0  0  0  0  0  0
   20.4692   -1.3741   -5.9062 C   0  0  0  0  0  0  0  0  0  0  0  0
   20.0497   -0.9943   -2.3085 C   0  0  0  0  0  0  0  0  0  0  0  0
   19.1773   -1.3263   -1.2743 C   0  0  0  0  0  0  0  0  0  0  0  0
   18.0522   -2.0440   -1.6230 C   0  0  0  0  0  0  0  0  0  0  0  0
   17.7962   -2.4168   -2.9177 C   0  0  0  0  0  0  0  0  0  0  0  0
   19.4360   -0.9486    0.0402 O   0  0  0  0  0  0  0  0  0  0  0  0
   20.2679    0.1474    0.3112 C   0  0  0  0  0  0  0  0  0  0  0  0
  1  2  1  0
  2  3  1  0
  3  4  2  0
  4  5  1  0
  5  6  2  0
  6  7  1  0
  7  8  2  0
  6  9  1  0
  9 10  2  0
  9 11  1  0
 11 12  1  0
 12 13  1  0
 13 14  1  0
 14 15  2  0
 14 16  1  0
  2 17  1  0
 17 18  1  0
 18 19  2  0
 19 20  1  0
 20 21  2  0
 20 22  1  0
 22 23  2  0
 23 24  1  0
 24 25  2  0
 25 26  1  0
 26 27  2  0
 26 28  1  0
 24 29  1  0
 18 30  1  0
 30 31  2  0
 31 32  1  0
 32 33  2  0
 33 34  1  0
 34 35  2  0
 33 36  1  0
 36 37  2  0
 37 38  1  0
 38 39  2  0
 37 40  1  0
 40 41  1  0
  8  3  1  0
 21 17  1  0
 27 22  1  0
 35 30  1  0
 39 32  1  0
M  END
$$$$
