
     RDKit          3D

 41 45  0  0  0  0  0  0  0  0999 V2000
   14.7775    2.2860   -5.6082 C   0  0  0  0  0  0  0  0  0  0  0  0
   15.3954    1.7768   -6.9171 C   0  0  0  0  0  0  0  0  0  0  0  0
   14.5660    2.2483   -8.0272 C   0  0  0  0  0  0  0  0  0  0  0  0
   14.9370    3.3710   -8.7237 C   0  0  0  0  0  0  0  0  0  0  0  0
   14.1789    3.8709   -9.7972 C   0  0  0  0  0  0  0  0  0  0  0  0
   13.0316    3.2265  -10.1705 C   0  0  0  0  0  0  0  0  0  0  0  0
   12.6451    2.0993   -9.4831 C   0  0  0  0  0  0  0  0  0  0  0  0
   13.3962    1.6336   -8.4455 C   0  0  0  0  0  0  0  0  0  0  0  0
   12.1856    3.6896  -11.2698 C   0  0  0  0  0  0  0  0  0  0  0  0
   12.5766    4.6616  -12.0077 O   0  0  0  0  0  0  0  0  0  0  0  0
   10.9314    3.1357  -11.5988 N   0  0  0  0  0  0  0  0  0  0  0  0
   10.1620    3.4603  -12.7651 C   0  0  0  0  0  0  0  0  0  0  0  0
   10.5571    2.5946  -13.9128 C   0  0  0  0  0  0  0  0  0  0  0  0
    9.5760    2.6281  -15.0208 C   0  0  0  0  0  0  0  0  0  0  0  0
    9.2172    1.5558  -15.5521 O   0  0  0  0  0  0  0  0  0  0  0  0
    9.0477    3.8128  -15.4832 O   0  0  0  0  0  0  0  0  0  0  0  0
   16.7825    2.1597   -6.9996 N   0  0  0  0  0  0  0  0  0  0  0  0
   17.7352    1.4838   -7.6679 C   0  0  0  0  0  0  0  0  0  0  0  0
   18.9163    2.1794   -7.5129 C   0  0  0  0  0  0  0  0  0  0  0  0
   18.6347    3.2970   -6.7259 C   0  0  0  0  0  0  0  0  0  0  0  0
   17.3376    3.2141   -6.4593 N   0  0  0  0  0  0  0  0  0  0  0  0
   19.5754    4.3279   -6.2979 C   0  0  0  0  0  0  0  0  0  0  0  0
   20.8461    4.3713   -6.8404 C   0  0  0  0  0  0  0  0  0  0  0  0
   21.7191    5.3608   -6.4174 C   0  0  0  0  0  0  0  0  0  0  0  0
   21.3617    6.3024   -5.4738 C   0  0  0  0  0  0  0  0  0  0  0  0
   20.0936    6.2561   -4.9348 C   0  0  0  0  0  0  0  0  0  0  0  0
   19.2311    5.2734   -5.3571 C   0  0  0  0  0  0  0  0  0  0  0  0
   19.5315    7.3958   -3.7330 Cl  0  0  0  0  0  0  0  0  0  0  0  0
   23.3469    5.4653   -7.0724 Cl  0  0  0  0  0  0  0  0  0  0  0  0
   17.6600    0.2561   -8.4503 C   0  0  0  0  0  0  0  0  0  0  0  0
   17.2937   -0.9325   -7.8753 C   0  0  0  0  0  0  0  0  0  0  0  0
   17.2123   -2.0869   -8.6452 C   0  0  0  0  0  0  0  0  0  0  0  0
   17.5076   -2.0215  -10.0061 C   0  0  0  0  0  0  0  0  0  0  0  0
   17.8783   -0.8277  -10.5931 C   0  0  0  0  0  0  0  0  0  0  0  0
   17.9539    0.3047   -9.8187 C   0  0  0  0  0  0  0  0  0  0  0  0
   17.4191   -3.1749  -10.7512 C   0  0  0  0  0  0  0  0  0  0  0  0
   17.0480   -4.4021  -10.2062 C   0  0  0  0  0  0  0  0  0  0  0  0
   16.7657   -4.4174   -8.8562 C   0  0  0  0  0  0  0  0  0  0  0  0
   16.8428   -3.2884   -8.0815 C   0  0  0  0  0  0  0  0  0  0  0  0
   16.9691   -5.5487  -10.9916 O   0  0  0  0  0  0  0  0  0  0  0  0
   16.2758   -5.5257  -12.2103 C   0  0  0  0  0  0  0  0  0  0  0  0
  1  2  1  0
  2  3  1  0
  3  4  2  0
  4  5  1  0
  5  6  2  0
  6  7  1  0
  7  8  2  0
  6  9  1  0
  9 10  2  0
  9 11  1  0
 11 12  1  0
 12 13  1  0
 13 14  1  0
 14 15  2  0
 14 16  1  0
  2 17  1  0
 17 18  1  0
 18 19  2  0
 19 20  1  0
 20 21  2  0
 20 22  1  0
 22 23  2  0
 23 24  1  0
 24 25  2  0
 25 26  1  0
 26 27  2  0
 26 28  1  0
 24 29  1  0
 18 30  1  0
 30 31  2  0
 31 32  1  0
 32 33  2  0
 33 34  1  0
 34 35  2  0
 33 36  1  0
 36 37  2  0
 37 38  1  0
 38 39  2  0
 37 40  1  0
 40 41  1  0
  8  3  1  0
 21 17  1  0
 27 22  1  0
 35 30  1  0
 39 32  1  0
M  END
$$$$
