
     RDKit          3D

 41 45  0  0  0  0  0  0  0  0999 V2000
   -3.1705    4.4481   14.5174 C   0  0  0  0  0  0  0  0  0  0  0  0
   -3.5676    3.1425   15.2189 C   0  0  0  0  0  0  0  0  0  0  0  0
   -3.0529    2.0241   14.4271 C   0  0  0  0  0  0  0  0  0  0  0  0
   -3.8154    1.5020   13.4126 C   0  0  0  0  0  0  0  0  0  0  0  0
   -3.3736    0.4273   12.6207 C   0  0  0  0  0  0  0  0  0  0  0  0
   -2.1452   -0.1252   12.8583 C   0  0  0  0  0  0  0  0  0  0  0  0
   -1.3677    0.3862   13.8715 C   0  0  0  0  0  0  0  0  0  0  0  0
   -1.8173    1.4283   14.6261 C   0  0  0  0  0  0  0  0  0  0  0  0
   -1.6200   -1.2494   12.0844 C   0  0  0  0  0  0  0  0  0  0  0  0
   -0.4853   -1.7592   12.3924 O   0  0  0  0  0  0  0  0  0  0  0  0
   -2.2816   -1.8419   10.9893 N   0  0  0  0  0  0  0  0  0  0  0  0
   -1.8358   -3.0087   10.2838 C   0  0  0  0  0  0  0  0  0  0  0  0
   -1.7719   -4.1837   11.1994 C   0  0  0  0  0  0  0  0  0  0  0  0
   -1.1476   -5.3687   10.5688 C   0  0  0  0  0  0  0  0  0  0  0  0
   -0.0650   -5.8009   11.0182 O   0  0  0  0  0  0  0  0  0  0  0  0
   -1.7295   -6.0080    9.4970 O   0  0  0  0  0  0  0  0  0  0  0  0
   -3.1296    3.1573   16.5921 N   0  0  0  0  0  0  0  0  0  0  0  0
   -3.8489    2.7156   17.6402 C   0  0  0  0  0  0  0  0  0  0  0  0
   -3.0769    2.8907   18.7699 C   0  0  0  0  0  0  0  0  0  0  0  0
   -1.8685    3.4547   18.3584 C   0  0  0  0  0  0  0  0  0  0  0  0
   -1.9775    3.5833   17.0423 N   0  0  0  0  0  0  0  0  0  0  0  0
   -0.7364    3.8177   19.2055 C   0  0  0  0  0  0  0  0  0  0  0  0
    0.3817    4.4088   18.6476 C   0  0  0  0  0  0  0  0  0  0  0  0
    1.4420    4.7444   19.4743 C   0  0  0  0  0  0  0  0  0  0  0  0
    1.4178    4.5080   20.8338 C   0  0  0  0  0  0  0  0  0  0  0  0
    0.3011    3.9181   21.3868 C   0  0  0  0  0  0  0  0  0  0  0  0
   -0.7480    3.5871   20.5635 C   0  0  0  0  0  0  0  0  0  0  0  0
    0.1593    3.5708   23.0951 Cl  0  0  0  0  0  0  0  0  0  0  0  0
    2.8892    5.4985   18.8210 Cl  0  0  0  0  0  0  0  0  0  0  0  0
   -5.1839    2.1333   17.7010 C   0  0  0  0  0  0  0  0  0  0  0  0
   -6.2257    2.8025   18.2879 C   0  0  0  0  0  0  0  0  0  0  0  0
   -7.4940    2.2345   18.3186 C   0  0  0  0  0  0  0  0  0  0  0  0
   -7.6931    0.9787   17.7471 C   0  0  0  0  0  0  0  0  0  0  0  0
   -6.6482    0.2974   17.1543 C   0  0  0  0  0  0  0  0  0  0  0  0
   -5.4006    0.8722   17.1318 C   0  0  0  0  0  0  0  0  0  0  0  0
   -8.9564    0.4346   17.7860 C   0  0  0  0  0  0  0  0  0  0  0  0
  -10.0425    1.0827   18.3701 C   0  0  0  0  0  0  0  0  0  0  0  0
   -9.7968    2.3225   18.9225 C   0  0  0  0  0  0  0  0  0  0  0  0
   -8.5515    2.8967   18.9028 C   0  0  0  0  0  0  0  0  0  0  0  0
  -11.3070    0.5011   18.3906 O   0  0  0  0  0  0  0  0  0  0  0  0
  -11.4571   -0.8554   18.7129 C   0  0  0  0  0  0  0  0  0  0  0  0
  1  2  1  0
  2  3  1  0
  3  4  2  0
  4  5  1  0
  5  6  2  0
  6  7  1  0
  7  8  2  0
  6  9  1  0
  9 10  2  0
  9 11  1  0
 11 12  1  0
 12 13  1  0
 13 14  1  0
 14 15  2  0
 14 16  1  0
  2 17  1  0
 17 18  1  0
 18 19  2  0
 19 20  1  0
 20 21  2  0
 20 22  1  0
 22 23  2  0
 23 24  1  0
 24 25  2  0
 25 26  1  0
 26 27  2  0
 26 28  1  0
 24 29  1  0
 18 30  1  0
 30 31  2  0
 31 32  1  0
 32 33  2  0
 33 34  1  0
 34 35  2  0
 33 36  1  0
 36 37  2  0
 37 38  1  0
 38 39  2  0
 37 40  1  0
 40 41  1  0
  8  3  1  0
 21 17  1  0
 27 22  1  0
 35 30  1  0
 39 32  1  0
M  END
$$$$
