
     RDKit          3D

 41 45  0  0  0  0  0  0  0  0999 V2000
   14.6710   -0.2507   -6.4086 C   0  0  0  0  0  0  0  0  0  0  0  0
   15.4916   -0.2287   -7.7050 C   0  0  0  0  0  0  0  0  0  0  0  0
   14.7764    0.5915   -8.6840 C   0  0  0  0  0  0  0  0  0  0  0  0
   13.9256   -0.0064   -9.5796 C   0  0  0  0  0  0  0  0  0  0  0  0
   13.2141    0.7303  -10.5429 C   0  0  0  0  0  0  0  0  0  0  0  0
   13.3651    2.0885  -10.6003 C   0  0  0  0  0  0  0  0  0  0  0  0
   14.2140    2.7041   -9.7098 C   0  0  0  0  0  0  0  0  0  0  0  0
   14.8934    1.9690   -8.7849 C   0  0  0  0  0  0  0  0  0  0  0  0
   12.6670    2.9218  -11.5785 C   0  0  0  0  0  0  0  0  0  0  0  0
   12.5400    2.5139  -12.7867 O   0  0  0  0  0  0  0  0  0  0  0  0
   12.1001    4.1810  -11.2934 N   0  0  0  0  0  0  0  0  0  0  0  0
   11.4030    5.0087  -12.2350 C   0  0  0  0  0  0  0  0  0  0  0  0
    9.9339    4.9670  -11.9844 C   0  0  0  0  0  0  0  0  0  0  0  0
    9.1660    4.4846  -13.1545 C   0  0  0  0  0  0  0  0  0  0  0  0
    8.1334    5.0959  -13.5020 O   0  0  0  0  0  0  0  0  0  0  0  0
    9.5602    3.3768  -13.8712 O   0  0  0  0  0  0  0  0  0  0  0  0
   16.8421    0.1979   -7.4370 N   0  0  0  0  0  0  0  0  0  0  0  0
   17.9449   -0.5464   -7.6387 C   0  0  0  0  0  0  0  0  0  0  0  0
   19.0305    0.2221   -7.2731 C   0  0  0  0  0  0  0  0  0  0  0  0
   18.5357    1.4545   -6.8441 C   0  0  0  0  0  0  0  0  0  0  0  0
   17.2183    1.3616   -6.9722 N   0  0  0  0  0  0  0  0  0  0  0  0
   19.3131    2.5923   -6.3626 C   0  0  0  0  0  0  0  0  0  0  0  0
   20.6943    2.5363   -6.3671 C   0  0  0  0  0  0  0  0  0  0  0  0
   21.4083    3.6305   -5.9056 C   0  0  0  0  0  0  0  0  0  0  0  0
   20.7863    4.7722   -5.4425 C   0  0  0  0  0  0  0  0  0  0  0  0
   19.4086    4.8246   -5.4394 C   0  0  0  0  0  0  0  0  0  0  0  0
   18.7045    3.7374   -5.8980 C   0  0  0  0  0  0  0  0  0  0  0  0
   18.5135    6.2176   -4.8758 Cl  0  0  0  0  0  0  0  0  0  0  0  0
   23.1659    3.6163   -5.8881 Cl  0  0  0  0  0  0  0  0  0  0  0  0
   18.0973   -1.9031   -8.1499 C   0  0  0  0  0  0  0  0  0  0  0  0
   17.5209   -2.2866   -9.3324 C   0  0  0  0  0  0  0  0  0  0  0  0
   17.6945   -3.5809   -9.8085 C   0  0  0  0  0  0  0  0  0  0  0  0
   18.4596   -4.4825   -9.0701 C   0  0  0  0  0  0  0  0  0  0  0  0
   19.0433   -4.1041   -7.8770 C   0  0  0  0  0  0  0  0  0  0  0  0
   18.8626   -2.8211   -7.4199 C   0  0  0  0  0  0  0  0  0  0  0  0
   18.6211   -5.7583   -9.5595 C   0  0  0  0  0  0  0  0  0  0  0  0
   18.0548   -6.1872  -10.7579 C   0  0  0  0  0  0  0  0  0  0  0  0
   17.3064   -5.2602  -11.4530 C   0  0  0  0  0  0  0  0  0  0  0  0
   17.1233   -3.9799  -10.9970 C   0  0  0  0  0  0  0  0  0  0  0  0
   18.2400   -7.4864  -11.2219 O   0  0  0  0  0  0  0  0  0  0  0  0
   18.5969   -8.5112  -10.3337 C   0  0  0  0  0  0  0  0  0  0  0  0
  1  2  1  0
  2  3  1  0
  3  4  2  0
  4  5  1  0
  5  6  2  0
  6  7  1  0
  7  8  2  0
  6  9  1  0
  9 10  2  0
  9 11  1  0
 11 12  1  0
 12 13  1  0
 13 14  1  0
 14 15  2  0
 14 16  1  0
  2 17  1  0
 17 18  1  0
 18 19  2  0
 19 20  1  0
 20 21  2  0
 20 22  1  0
 22 23  2  0
 23 24  1  0
 24 25  2  0
 25 26  1  0
 26 27  2  0
 26 28  1  0
 24 29  1  0
 18 30  1  0
 30 31  2  0
 31 32  1  0
 32 33  2  0
 33 34  1  0
 34 35  2  0
 33 36  1  0
 36 37  2  0
 37 38  1  0
 38 39  2  0
 37 40  1  0
 40 41  1  0
  8  3  1  0
 21 17  1  0
 27 22  1  0
 35 30  1  0
 39 32  1  0
M  END
$$$$
