
     RDKit          3D

 41 45  0  0  0  0  0  0  0  0999 V2000
   18.4665    3.4164   -4.6574 C   0  0  0  0  0  0  0  0  0  0  0  0
   17.6138    2.1580   -4.8660 C   0  0  0  0  0  0  0  0  0  0  0  0
   16.7810    2.3623   -6.0523 C   0  0  0  0  0  0  0  0  0  0  0  0
   15.4795    1.9270   -6.0523 C   0  0  0  0  0  0  0  0  0  0  0  0
   14.6340    2.0943   -7.1631 C   0  0  0  0  0  0  0  0  0  0  0  0
   15.1112    2.7098   -8.2875 C   0  0  0  0  0  0  0  0  0  0  0  0
   16.4137    3.1524   -8.3045 C   0  0  0  0  0  0  0  0  0  0  0  0
   17.2147    2.9789   -7.2155 C   0  0  0  0  0  0  0  0  0  0  0  0
   14.2968    2.9125   -9.4850 C   0  0  0  0  0  0  0  0  0  0  0  0
   14.4839    3.9500  -10.2138 O   0  0  0  0  0  0  0  0  0  0  0  0
   13.2876    2.0300   -9.9218 N   0  0  0  0  0  0  0  0  0  0  0  0
   12.0669    2.4203  -10.5662 C   0  0  0  0  0  0  0  0  0  0  0  0
   12.3298    2.8639  -11.9651 C   0  0  0  0  0  0  0  0  0  0  0  0
   11.3788    2.2824  -12.9393 C   0  0  0  0  0  0  0  0  0  0  0  0
   10.2233    2.7504  -13.0194 O   0  0  0  0  0  0  0  0  0  0  0  0
   11.7347    1.2361  -13.7608 O   0  0  0  0  0  0  0  0  0  0  0  0
   18.4520    0.9864   -4.9157 N   0  0  0  0  0  0  0  0  0  0  0  0
   18.6121    0.1925   -5.9905 C   0  0  0  0  0  0  0  0  0  0  0  0
   19.4973   -0.8042   -5.6356 C   0  0  0  0  0  0  0  0  0  0  0  0
   19.8604   -0.5773   -4.3072 C   0  0  0  0  0  0  0  0  0  0  0  0
   19.1932    0.5118   -3.9477 N   0  0  0  0  0  0  0  0  0  0  0  0
   20.7795   -1.3745   -3.5007 C   0  0  0  0  0  0  0  0  0  0  0  0
   21.5645   -2.3410   -4.1012 C   0  0  0  0  0  0  0  0  0  0  0  0
   22.4293   -3.0831   -3.3128 C   0  0  0  0  0  0  0  0  0  0  0  0
   22.5320   -2.8889   -1.9503 C   0  0  0  0  0  0  0  0  0  0  0  0
   21.7475   -1.9241   -1.3547 C   0  0  0  0  0  0  0  0  0  0  0  0
   20.8915   -1.1906   -2.1402 C   0  0  0  0  0  0  0  0  0  0  0  0
   21.7930   -1.5911    0.3617 Cl  0  0  0  0  0  0  0  0  0  0  0  0
   23.4518   -4.3251   -4.0212 Cl  0  0  0  0  0  0  0  0  0  0  0  0
   18.0330    0.2701   -7.3260 C   0  0  0  0  0  0  0  0  0  0  0  0
   16.7686   -0.1926   -7.5811 C   0  0  0  0  0  0  0  0  0  0  0  0
   16.2310   -0.0922   -8.8589 C   0  0  0  0  0  0  0  0  0  0  0  0
   16.9916    0.4828   -9.8759 C   0  0  0  0  0  0  0  0  0  0  0  0
   18.2669    0.9509   -9.6273 C   0  0  0  0  0  0  0  0  0  0  0  0
   18.7842    0.8447   -8.3589 C   0  0  0  0  0  0  0  0  0  0  0  0
   16.4405    0.5748  -11.1333 C   0  0  0  0  0  0  0  0  0  0  0  0
   15.1585    0.1194  -11.4336 C   0  0  0  0  0  0  0  0  0  0  0  0
   14.4445   -0.4418  -10.3955 C   0  0  0  0  0  0  0  0  0  0  0  0
   14.9603   -0.5505   -9.1295 C   0  0  0  0  0  0  0  0  0  0  0  0
   14.6338    0.2294  -12.7182 O   0  0  0  0  0  0  0  0  0  0  0  0
   15.4870    0.2686  -13.8305 C   0  0  0  0  0  0  0  0  0  0  0  0
  1  2  1  0
  2  3  1  0
  3  4  2  0
  4  5  1  0
  5  6  2  0
  6  7  1  0
  7  8  2  0
  6  9  1  0
  9 10  2  0
  9 11  1  0
 11 12  1  0
 12 13  1  0
 13 14  1  0
 14 15  2  0
 14 16  1  0
  2 17  1  0
 17 18  1  0
 18 19  2  0
 19 20  1  0
 20 21  2  0
 20 22  1  0
 22 23  2  0
 23 24  1  0
 24 25  2  0
 25 26  1  0
 26 27  2  0
 26 28  1  0
 24 29  1  0
 18 30  1  0
 30 31  2  0
 31 32  1  0
 32 33  2  0
 33 34  1  0
 34 35  2  0
 33 36  1  0
 36 37  2  0
 37 38  1  0
 38 39  2  0
 37 40  1  0
 40 41  1  0
  8  3  1  0
 21 17  1  0
 27 22  1  0
 35 30  1  0
 39 32  1  0
M  END
$$$$
