
     RDKit          3D

 41 45  0  0  0  0  0  0  0  0999 V2000
   16.2111    2.7286   -5.2479 C   0  0  0  0  0  0  0  0  0  0  0  0
   16.4444    1.8126   -6.4565 C   0  0  0  0  0  0  0  0  0  0  0  0
   15.3428    2.0117   -7.3996 C   0  0  0  0  0  0  0  0  0  0  0  0
   15.3532    3.0987   -8.2372 C   0  0  0  0  0  0  0  0  0  0  0  0
   14.3218    3.3417   -9.1615 C   0  0  0  0  0  0  0  0  0  0  0  0
   13.2675    2.4738   -9.2393 C   0  0  0  0  0  0  0  0  0  0  0  0
   13.2413    1.3788   -8.4070 C   0  0  0  0  0  0  0  0  0  0  0  0
   14.2524    1.1641   -7.5187 C   0  0  0  0  0  0  0  0  0  0  0  0
   12.1536    2.6630  -10.1677 C   0  0  0  0  0  0  0  0  0  0  0  0
   11.4905    1.6474  -10.5815 O   0  0  0  0  0  0  0  0  0  0  0  0
   11.7315    3.9141  -10.6625 N   0  0  0  0  0  0  0  0  0  0  0  0
   11.7066    4.2930  -12.0458 C   0  0  0  0  0  0  0  0  0  0  0  0
   11.5669    3.0913  -12.9172 C   0  0  0  0  0  0  0  0  0  0  0  0
   10.2785    3.0577  -13.6454 C   0  0  0  0  0  0  0  0  0  0  0  0
   10.1981    3.5953  -14.7702 O   0  0  0  0  0  0  0  0  0  0  0  0
    9.1634    2.4490  -13.1141 O   0  0  0  0  0  0  0  0  0  0  0  0
   17.7563    2.0366   -7.0102 N   0  0  0  0  0  0  0  0  0  0  0  0
   18.4848    1.1199   -7.6736 C   0  0  0  0  0  0  0  0  0  0  0  0
   19.6653    1.7275   -8.0479 C   0  0  0  0  0  0  0  0  0  0  0  0
   19.6161    3.0425   -7.5828 C   0  0  0  0  0  0  0  0  0  0  0  0
   18.4427    3.1496   -6.9727 N   0  0  0  0  0  0  0  0  0  0  0  0
   20.6422    4.0684   -7.7428 C   0  0  0  0  0  0  0  0  0  0  0  0
   20.4915    5.2973   -7.1280 C   0  0  0  0  0  0  0  0  0  0  0  0
   21.4808    6.2531   -7.2952 C   0  0  0  0  0  0  0  0  0  0  0  0
   22.6093    6.0182   -8.0542 C   0  0  0  0  0  0  0  0  0  0  0  0
   22.7562    4.7915   -8.6660 C   0  0  0  0  0  0  0  0  0  0  0  0
   21.7730    3.8466   -8.4975 C   0  0  0  0  0  0  0  0  0  0  0  0
   24.1427    4.3825   -9.6507 Cl  0  0  0  0  0  0  0  0  0  0  0  0
   21.3433    7.8331   -6.5372 Cl  0  0  0  0  0  0  0  0  0  0  0  0
   18.1920   -0.2683   -8.0081 C   0  0  0  0  0  0  0  0  0  0  0  0
   17.4760   -0.5938   -9.1302 C   0  0  0  0  0  0  0  0  0  0  0  0
   17.2238   -1.9257   -9.4379 C   0  0  0  0  0  0  0  0  0  0  0  0
   17.7063   -2.9242   -8.5931 C   0  0  0  0  0  0  0  0  0  0  0  0
   18.4281   -2.6045   -7.4599 C   0  0  0  0  0  0  0  0  0  0  0  0
   18.6692   -1.2835   -7.1695 C   0  0  0  0  0  0  0  0  0  0  0  0
   17.4478   -4.2364   -8.9163 C   0  0  0  0  0  0  0  0  0  0  0  0
   16.7267   -4.6097  -10.0484 C   0  0  0  0  0  0  0  0  0  0  0  0
   16.2698   -3.5873  -10.8535 C   0  0  0  0  0  0  0  0  0  0  0  0
   16.5078   -2.2681  -10.5639 C   0  0  0  0  0  0  0  0  0  0  0  0
   16.4847   -5.9484  -10.3435 O   0  0  0  0  0  0  0  0  0  0  0  0
   17.1998   -6.5883  -11.3661 C   0  0  0  0  0  0  0  0  0  0  0  0
  1  2  1  0
  2  3  1  0
  3  4  2  0
  4  5  1  0
  5  6  2  0
  6  7  1  0
  7  8  2  0
  6  9  1  0
  9 10  2  0
  9 11  1  0
 11 12  1  0
 12 13  1  0
 13 14  1  0
 14 15  2  0
 14 16  1  0
  2 17  1  0
 17 18  1  0
 18 19  2  0
 19 20  1  0
 20 21  2  0
 20 22  1  0
 22 23  2  0
 23 24  1  0
 24 25  2  0
 25 26  1  0
 26 27  2  0
 26 28  1  0
 24 29  1  0
 18 30  1  0
 30 31  2  0
 31 32  1  0
 32 33  2  0
 33 34  1  0
 34 35  2  0
 33 36  1  0
 36 37  2  0
 37 38  1  0
 38 39  2  0
 37 40  1  0
 40 41  1  0
  8  3  1  0
 21 17  1  0
 27 22  1  0
 35 30  1  0
 39 32  1  0
M  END
$$$$
