
     RDKit          3D

 41 45  0  0  0  0  0  0  0  0999 V2000
   14.3665    1.6252   -5.5473 C   0  0  0  0  0  0  0  0  0  0  0  0
   15.2254    1.1646   -6.7324 C   0  0  0  0  0  0  0  0  0  0  0  0
   14.5845    1.6231   -7.9660 C   0  0  0  0  0  0  0  0  0  0  0  0
   13.5542    0.8961   -8.5075 C   0  0  0  0  0  0  0  0  0  0  0  0
   12.9029    1.2869   -9.6907 C   0  0  0  0  0  0  0  0  0  0  0  0
   13.2988    2.4276  -10.3334 C   0  0  0  0  0  0  0  0  0  0  0  0
   14.3301    3.1685   -9.8041 C   0  0  0  0  0  0  0  0  0  0  0  0
   14.9466    2.7695   -8.6560 C   0  0  0  0  0  0  0  0  0  0  0  0
   12.6772    2.8945  -11.5720 C   0  0  0  0  0  0  0  0  0  0  0  0
   12.7095    4.1405  -11.8699 O   0  0  0  0  0  0  0  0  0  0  0  0
   12.0231    2.0587  -12.5003 N   0  0  0  0  0  0  0  0  0  0  0  0
   10.6952    2.2594  -13.0045 C   0  0  0  0  0  0  0  0  0  0  0  0
   10.4125    3.7132  -13.1760 C   0  0  0  0  0  0  0  0  0  0  0  0
    9.7154    4.0159  -14.4464 C   0  0  0  0  0  0  0  0  0  0  0  0
    9.7016    5.1907  -14.8710 O   0  0  0  0  0  0  0  0  0  0  0  0
    9.0793    3.0346  -15.1736 O   0  0  0  0  0  0  0  0  0  0  0  0
   16.5881    1.6034   -6.5652 N   0  0  0  0  0  0  0  0  0  0  0  0
   17.6569    1.0664   -7.1819 C   0  0  0  0  0  0  0  0  0  0  0  0
   18.7670    1.7722   -6.7668 C   0  0  0  0  0  0  0  0  0  0  0  0
   18.3223    2.7517   -5.8777 C   0  0  0  0  0  0  0  0  0  0  0  0
   17.0077    2.5856   -5.8096 N   0  0  0  0  0  0  0  0  0  0  0  0
   19.1398    3.7406   -5.1815 C   0  0  0  0  0  0  0  0  0  0  0  0
   20.4750    3.8863   -5.5085 C   0  0  0  0  0  0  0  0  0  0  0  0
   21.2282    4.8331   -4.8330 C   0  0  0  0  0  0  0  0  0  0  0  0
   20.6896    5.6337   -3.8462 C   0  0  0  0  0  0  0  0  0  0  0  0
   19.3576    5.4856   -3.5225 C   0  0  0  0  0  0  0  0  0  0  0  0
   18.6144    4.5457   -4.1949 C   0  0  0  0  0  0  0  0  0  0  0  0
   18.5687    6.4436   -2.2901 Cl  0  0  0  0  0  0  0  0  0  0  0  0
   22.9304    5.0630   -5.2065 Cl  0  0  0  0  0  0  0  0  0  0  0  0
   17.7540   -0.0349   -8.1320 C   0  0  0  0  0  0  0  0  0  0  0  0
   17.1343   -1.2342   -7.8965 C   0  0  0  0  0  0  0  0  0  0  0  0
   17.2267   -2.2642   -8.8253 C   0  0  0  0  0  0  0  0  0  0  0  0
   17.9561   -2.0635   -9.9962 C   0  0  0  0  0  0  0  0  0  0  0  0
   18.5841   -0.8582  -10.2408 C   0  0  0  0  0  0  0  0  0  0  0  0
   18.4833    0.1503   -9.3132 C   0  0  0  0  0  0  0  0  0  0  0  0
   18.0337   -3.0948  -10.9039 C   0  0  0  0  0  0  0  0  0  0  0  0
   17.4166   -4.3277  -10.7040 C   0  0  0  0  0  0  0  0  0  0  0  0
   16.7066   -4.4792   -9.5312 C   0  0  0  0  0  0  0  0  0  0  0  0
   16.6068   -3.4744   -8.6033 C   0  0  0  0  0  0  0  0  0  0  0  0
   17.5170   -5.3484  -11.6452 O   0  0  0  0  0  0  0  0  0  0  0  0
   17.8216   -6.6563  -11.2413 C   0  0  0  0  0  0  0  0  0  0  0  0
  1  2  1  0
  2  3  1  0
  3  4  2  0
  4  5  1  0
  5  6  2  0
  6  7  1  0
  7  8  2  0
  6  9  1  0
  9 10  2  0
  9 11  1  0
 11 12  1  0
 12 13  1  0
 13 14  1  0
 14 15  2  0
 14 16  1  0
  2 17  1  0
 17 18  1  0
 18 19  2  0
 19 20  1  0
 20 21  2  0
 20 22  1  0
 22 23  2  0
 23 24  1  0
 24 25  2  0
 25 26  1  0
 26 27  2  0
 26 28  1  0
 24 29  1  0
 18 30  1  0
 30 31  2  0
 31 32  1  0
 32 33  2  0
 33 34  1  0
 34 35  2  0
 33 36  1  0
 36 37  2  0
 37 38  1  0
 38 39  2  0
 37 40  1  0
 40 41  1  0
  8  3  1  0
 21 17  1  0
 27 22  1  0
 35 30  1  0
 39 32  1  0
M  END
$$$$
