
     RDKit          3D

 23 24  0  0  0  0  0  0  0  0999 V2000
   -0.2438    3.6102    5.7934 C   0  0  0  0  0  0  0  0  0  0  0  0
   -0.0526    2.8631    7.0647 C   0  0  0  0  0  0  0  0  0  0  0  0
   -0.2944    3.5931    8.2732 N   0  0  2  0  0  4  0  0  0  0  0  0
    0.7246    4.6324    8.4922 C   0  0  0  0  0  0  0  0  0  0  0  0
    1.0637    4.6292    9.9527 C   0  0  0  0  0  0  0  0  0  0  0  0
   -0.0443    3.7984   10.5644 C   0  0  0  0  0  0  0  0  0  0  0  0
   -0.2180    2.7703    9.4036 C   0  0  1  0  0  0  0  0  0  0  0  0
   -1.1303    1.7272    9.7757 C   0  0  0  0  0  0  0  0  0  0  0  0
   -1.2752    0.5007    9.0903 N   0  0  0  0  0  0  0  0  0  0  0  0
   -2.4745   -0.1957    8.8539 C   0  0  0  0  0  0  0  0  0  0  0  0
   -3.5088    0.3081    9.4256 O   0  0  0  0  0  0  0  0  0  0  0  0
   -2.6729   -1.3897    8.0558 C   0  0  0  0  0  0  0  0  0  0  0  0
   -2.7174   -1.4944    6.6997 C   0  0  0  0  0  0  0  0  0  0  0  0
   -2.5487   -0.3607    5.9242 O   0  0  0  0  0  0  0  0  0  0  0  0
   -2.9216   -2.6663    5.9912 C   0  0  0  0  0  0  0  0  0  0  0  0
   -2.9555   -2.6716    4.4919 C   0  0  0  0  0  0  0  0  0  0  0  0
   -2.9287   -4.0902    3.9713 C   0  0  0  0  0  0  0  0  0  0  0  0
   -3.0947   -3.8272    6.7071 C   0  0  0  0  0  0  0  0  0  0  0  0
   -3.0603   -3.7892    8.0829 C   0  0  0  0  0  0  0  0  0  0  0  0
   -2.8528   -2.5922    8.7517 C   0  0  0  0  0  0  0  0  0  0  0  0
   -2.8343   -2.6566   10.1391 O   0  0  0  0  0  0  0  0  0  0  0  0
   -1.6335   -2.6469   10.8537 C   0  0  0  0  0  0  0  0  0  0  0  0
   -3.2852   -5.2825    8.9751 Cl  0  0  0  0  0  0  0  0  0  0  0  0
  1  2  1  0
  3  2  1  6
  3  4  1  0
  4  5  1  0
  5  6  1  0
  6  7  1  0
  7  8  1  1
  8  9  1  0
  9 10  1  0
 10 11  2  0
 10 12  1  0
 12 13  2  0
 13 14  1  0
 13 15  1  0
 15 16  1  0
 16 17  1  0
 15 18  2  0
 18 19  1  0
 19 20  2  0
 20 21  1  0
 21 22  1  0
 19 23  1  0
  7  3  1  0
 20 12  1  0
M  CHG  1   3   1
M  END
$$$$
