
     RDKit          3D

 23 24  0  0  0  0  0  0  0  0999 V2000
   -0.6307    2.8778   14.9502 C   0  0  0  0  0  0  0  0  0  0  0  0
   -1.3038    3.3274   13.7030 C   0  0  0  0  0  0  0  0  0  0  0  0
   -0.4787    3.4281   12.5364 N   0  0  2  0  0  4  0  0  0  0  0  0
   -0.0188    4.8087   12.3148 C   0  0  0  0  0  0  0  0  0  0  0  0
   -0.0971    5.0780   10.8420 C   0  0  0  0  0  0  0  0  0  0  0  0
   -0.2850    3.6987   10.2465 C   0  0  0  0  0  0  0  0  0  0  0  0
   -1.1789    3.0907   11.3717 C   0  0  1  0  0  0  0  0  0  0  0  0
   -1.6585    1.7910   10.9984 C   0  0  0  0  0  0  0  0  0  0  0  0
   -1.4747    1.1978    9.7298 N   0  0  0  0  0  0  0  0  0  0  0  0
   -1.3559   -0.1762    9.4514 C   0  0  0  0  0  0  0  0  0  0  0  0
   -0.7228   -0.8511   10.3426 O   0  0  0  0  0  0  0  0  0  0  0  0
   -1.8557   -0.9018    8.3000 C   0  0  0  0  0  0  0  0  0  0  0  0
   -2.3061   -2.1849    8.2480 C   0  0  0  0  0  0  0  0  0  0  0  0
   -2.3275   -2.9455    9.4039 O   0  0  0  0  0  0  0  0  0  0  0  0
   -2.7632   -2.8298    7.1113 C   0  0  0  0  0  0  0  0  0  0  0  0
   -3.2370   -4.2518    7.1626 C   0  0  0  0  0  0  0  0  0  0  0  0
   -4.7219   -4.3005    7.4402 C   0  0  0  0  0  0  0  0  0  0  0  0
   -2.7672   -2.1247    5.9311 C   0  0  0  0  0  0  0  0  0  0  0  0
   -2.3241   -0.8212    5.9162 C   0  0  0  0  0  0  0  0  0  0  0  0
   -1.8746   -0.2146    7.0794 C   0  0  0  0  0  0  0  0  0  0  0  0
   -1.4484    1.1023    6.9626 O   0  0  0  0  0  0  0  0  0  0  0  0
   -0.1183    1.4151    6.6696 C   0  0  0  0  0  0  0  0  0  0  0  0
   -2.3369    0.0581    4.3987 Cl  0  0  0  0  0  0  0  0  0  0  0  0
  1  2  1  0
  3  2  1  1
  3  4  1  0
  4  5  1  0
  5  6  1  0
  6  7  1  0
  7  8  1  6
  8  9  1  0
  9 10  1  0
 10 11  2  0
 10 12  1  0
 12 13  2  0
 13 14  1  0
 13 15  1  0
 15 16  1  0
 16 17  1  0
 15 18  2  0
 18 19  1  0
 19 20  2  0
 20 21  1  0
 21 22  1  0
 19 23  1  0
  7  3  1  0
 20 12  1  0
M  CHG  1   3   1
M  END
$$$$
