
     RDKit          3D

 23 24  0  0  0  0  0  0  0  0999 V2000
    0.8817    4.9722    7.7960 C   0  0  0  0  0  0  0  0  0  0  0  0
    0.2933    3.6069    7.8180 C   0  0  0  0  0  0  0  0  0  0  0  0
   -0.8331    3.4144    8.6818 N   0  0  2  0  0  4  0  0  0  0  0  0
   -1.3095    4.6884    9.2441 C   0  0  0  0  0  0  0  0  0  0  0  0
   -1.6572    4.4436   10.6818 C   0  0  0  0  0  0  0  0  0  0  0  0
   -1.6785    2.9330   10.7813 C   0  0  0  0  0  0  0  0  0  0  0  0
   -0.5086    2.6288    9.7946 C   0  0  1  0  0  0  0  0  0  0  0  0
   -0.1845    1.2311    9.8000 C   0  0  0  0  0  0  0  0  0  0  0  0
   -0.7212    0.2758    8.9088 N   0  0  0  0  0  0  0  0  0  0  0  0
   -1.6598   -0.7270    9.2135 C   0  0  0  0  0  0  0  0  0  0  0  0
   -2.1213   -0.6832   10.4117 O   0  0  0  0  0  0  0  0  0  0  0  0
   -2.1556   -1.7802    8.3492 C   0  0  0  0  0  0  0  0  0  0  0  0
   -2.2230   -3.1147    8.6070 C   0  0  0  0  0  0  0  0  0  0  0  0
   -1.7917   -3.5933    9.8317 O   0  0  0  0  0  0  0  0  0  0  0  0
   -2.6990   -4.0780    7.7337 C   0  0  0  0  0  0  0  0  0  0  0  0
   -2.7278   -5.5275    8.1172 C   0  0  0  0  0  0  0  0  0  0  0  0
   -3.9814   -5.8378    8.9025 C   0  0  0  0  0  0  0  0  0  0  0  0
   -3.1432   -3.6631    6.5007 C   0  0  0  0  0  0  0  0  0  0  0  0
   -3.1020   -2.3253    6.1777 C   0  0  0  0  0  0  0  0  0  0  0  0
   -2.6170   -1.3944    7.0839 C   0  0  0  0  0  0  0  0  0  0  0  0
   -2.6162   -0.0698    6.6658 O   0  0  0  0  0  0  0  0  0  0  0  0
   -1.6553    0.4126    5.7732 C   0  0  0  0  0  0  0  0  0  0  0  0
   -3.6727   -1.8197    4.5982 Cl  0  0  0  0  0  0  0  0  0  0  0  0
  1  2  1  0
  3  2  1  6
  3  4  1  0
  4  5  1  0
  5  6  1  0
  6  7  1  0
  7  8  1  6
  8  9  1  0
  9 10  1  0
 10 11  2  0
 10 12  1  0
 12 13  2  0
 13 14  1  0
 13 15  1  0
 15 16  1  0
 16 17  1  0
 15 18  2  0
 18 19  1  0
 19 20  2  0
 20 21  1  0
 21 22  1  0
 19 23  1  0
  7  3  1  0
 20 12  1  0
M  CHG  1   3   1
M  END
$$$$
