
     RDKit          3D

 23 24  0  0  0  0  0  0  0  0999 V2000
   -0.7789    4.4975    8.2600 C   0  0  0  0  0  0  0  0  0  0  0  0
   -0.3753    3.3740    9.1463 C   0  0  0  0  0  0  0  0  0  0  0  0
   -0.7693    3.4751   10.5197 N   0  0  2  0  0  4  0  0  0  0  0  0
   -0.1087    4.6057   11.1918 C   0  0  0  0  0  0  0  0  0  0  0  0
    0.2868    4.1454   12.5628 C   0  0  0  0  0  0  0  0  0  0  0  0
   -0.4815    2.8515   12.7294 C   0  0  0  0  0  0  0  0  0  0  0  0
   -0.3885    2.3465   11.2559 C   0  0  1  0  0  0  0  0  0  0  0  0
   -0.9174    1.0182   11.1356 C   0  0  0  0  0  0  0  0  0  0  0  0
   -1.3211    0.4181    9.9223 N   0  0  0  0  0  0  0  0  0  0  0  0
   -1.9436   -0.8341    9.7678 C   0  0  0  0  0  0  0  0  0  0  0  0
   -2.2160   -1.4370   10.8691 O   0  0  0  0  0  0  0  0  0  0  0  0
   -2.3058   -1.5067    8.5356 C   0  0  0  0  0  0  0  0  0  0  0  0
   -2.6001   -2.8228    8.3536 C   0  0  0  0  0  0  0  0  0  0  0  0
   -2.5810   -3.6804    9.4395 O   0  0  0  0  0  0  0  0  0  0  0  0
   -2.9301   -3.4120    7.1449 C   0  0  0  0  0  0  0  0  0  0  0  0
   -3.2357   -4.8773    7.0530 C   0  0  0  0  0  0  0  0  0  0  0  0
   -4.6910   -5.1310    7.3726 C   0  0  0  0  0  0  0  0  0  0  0  0
   -2.9668   -2.6100    6.0289 C   0  0  0  0  0  0  0  0  0  0  0  0
   -2.6793   -1.2686    6.1456 C   0  0  0  0  0  0  0  0  0  0  0  0
   -2.3535   -0.7205    7.3770 C   0  0  0  0  0  0  0  0  0  0  0  0
   -2.0801    0.6413    7.3925 O   0  0  0  0  0  0  0  0  0  0  0  0
   -0.8234    1.1369    7.0350 C   0  0  0  0  0  0  0  0  0  0  0  0
   -2.7309   -0.2654    4.7078 Cl  0  0  0  0  0  0  0  0  0  0  0  0
  1  2  1  0
  3  2  1  6
  3  4  1  0
  4  5  1  0
  5  6  1  0
  6  7  1  0
  7  8  1  1
  8  9  1  0
  9 10  1  0
 10 11  2  0
 10 12  1  0
 12 13  2  0
 13 14  1  0
 13 15  1  0
 15 16  1  0
 16 17  1  0
 15 18  2  0
 18 19  1  0
 19 20  2  0
 20 21  1  0
 21 22  1  0
 19 23  1  0
  7  3  1  0
 20 12  1  0
M  CHG  1   3   1
M  END
$$$$
