
     RDKit          3D

 23 24  0  0  0  0  0  0  0  0999 V2000
    0.3344    4.5298    8.1790 C   0  0  0  0  0  0  0  0  0  0  0  0
    0.4389    4.3371    9.6496 C   0  0  0  0  0  0  0  0  0  0  0  0
   -0.7120    3.7875   10.3018 N   0  0  2  0  0  4  0  0  0  0  0  0
   -1.2588    4.7125   11.3077 C   0  0  0  0  0  0  0  0  0  0  0  0
   -1.6526    3.8965   12.5023 C   0  0  0  0  0  0  0  0  0  0  0  0
   -1.6193    2.4763   11.9786 C   0  0  0  0  0  0  0  0  0  0  0  0
   -0.4010    2.6233   11.0149 C   0  0  1  0  0  0  0  0  0  0  0  0
   -0.0236    1.3511   10.4690 C   0  0  0  0  0  0  0  0  0  0  0  0
   -0.6919    0.6984    9.4096 N   0  0  0  0  0  0  0  0  0  0  0  0
   -1.2937   -0.5728    9.4491 C   0  0  0  0  0  0  0  0  0  0  0  0
   -1.1134   -1.2175   10.5456 O   0  0  0  0  0  0  0  0  0  0  0  0
   -2.0774   -1.2236    8.4175 C   0  0  0  0  0  0  0  0  0  0  0  0
   -2.7687   -2.3927    8.5015 C   0  0  0  0  0  0  0  0  0  0  0  0
   -2.7765   -3.0940    9.6944 O   0  0  0  0  0  0  0  0  0  0  0  0
   -3.4935   -2.9724    7.4739 C   0  0  0  0  0  0  0  0  0  0  0  0
   -4.2201   -4.2693    7.6717 C   0  0  0  0  0  0  0  0  0  0  0  0
   -3.3553   -5.4279    7.2311 C   0  0  0  0  0  0  0  0  0  0  0  0
   -3.5244   -2.3212    6.2636 C   0  0  0  0  0  0  0  0  0  0  0  0
   -2.8454   -1.1330    6.1131 C   0  0  0  0  0  0  0  0  0  0  0  0
   -2.1318   -0.5884    7.1700 C   0  0  0  0  0  0  0  0  0  0  0  0
   -1.4807    0.6129    6.9200 O   0  0  0  0  0  0  0  0  0  0  0  0
   -2.1466    1.8375    7.0179 C   0  0  0  0  0  0  0  0  0  0  0  0
   -2.8978   -0.3210    4.5593 Cl  0  0  0  0  0  0  0  0  0  0  0  0
  1  2  1  0
  3  2  1  1
  3  4  1  0
  4  5  1  0
  5  6  1  0
  6  7  1  0
  7  8  1  6
  8  9  1  0
  9 10  1  0
 10 11  2  0
 10 12  1  0
 12 13  2  0
 13 14  1  0
 13 15  1  0
 15 16  1  0
 16 17  1  0
 15 18  2  0
 18 19  1  0
 19 20  2  0
 20 21  1  0
 21 22  1  0
 19 23  1  0
  7  3  1  0
 20 12  1  0
M  CHG  1   3   1
M  END
$$$$
