
     RDKit          3D

 23 24  0  0  0  0  0  0  0  0999 V2000
    0.7223    2.4935    5.3309 C   0  0  0  0  0  0  0  0  0  0  0  0
    0.6499    2.3542    6.8095 C   0  0  0  0  0  0  0  0  0  0  0  0
   -0.1431    3.3261    7.5011 N   0  0  2  0  0  4  0  0  0  0  0  0
    0.3327    4.6954    7.2458 C   0  0  0  0  0  0  0  0  0  0  0  0
    0.2630    5.4450    8.5424 C   0  0  0  0  0  0  0  0  0  0  0  0
   -0.5815    4.5445    9.4189 C   0  0  0  0  0  0  0  0  0  0  0  0
   -0.0635    3.1707    8.8905 C   0  0  1  0  0  0  0  0  0  0  0  0
   -0.5939    2.0893    9.6703 C   0  0  0  0  0  0  0  0  0  0  0  0
   -0.8055    0.7778    9.1906 N   0  0  0  0  0  0  0  0  0  0  0  0
   -1.9710    0.0040    9.3397 C   0  0  0  0  0  0  0  0  0  0  0  0
   -2.7584    0.3955   10.2763 O   0  0  0  0  0  0  0  0  0  0  0  0
   -2.3768   -1.1582    8.5738 C   0  0  0  0  0  0  0  0  0  0  0  0
   -2.7215   -1.2176    7.2587 C   0  0  0  0  0  0  0  0  0  0  0  0
   -2.6923   -0.0638    6.4953 O   0  0  0  0  0  0  0  0  0  0  0  0
   -3.1127   -2.3606    6.5821 C   0  0  0  0  0  0  0  0  0  0  0  0
   -3.4753   -2.3162    5.1276 C   0  0  0  0  0  0  0  0  0  0  0  0
   -3.0706   -3.6032    4.4463 C   0  0  0  0  0  0  0  0  0  0  0  0
   -3.1601   -3.5395    7.2878 C   0  0  0  0  0  0  0  0  0  0  0  0
   -2.8230   -3.5472    8.6226 C   0  0  0  0  0  0  0  0  0  0  0  0
   -2.4366   -2.3780    9.2604 C   0  0  0  0  0  0  0  0  0  0  0  0
   -2.1157   -2.4878   10.6074 O   0  0  0  0  0  0  0  0  0  0  0  0
   -0.7893   -2.4549   11.0461 C   0  0  0  0  0  0  0  0  0  0  0  0
   -2.8925   -5.0627    9.5027 Cl  0  0  0  0  0  0  0  0  0  0  0  0
  1  2  1  0
  3  2  1  6
  3  4  1  0
  4  5  1  0
  5  6  1  0
  6  7  1  0
  7  8  1  1
  8  9  1  0
  9 10  1  0
 10 11  2  0
 10 12  1  0
 12 13  2  0
 13 14  1  0
 13 15  1  0
 15 16  1  0
 16 17  1  0
 15 18  2  0
 18 19  1  0
 19 20  2  0
 20 21  1  0
 21 22  1  0
 19 23  1  0
  7  3  1  0
 20 12  1  0
M  CHG  1   3   1
M  END
$$$$
