
     RDKit          3D

 23 24  0  0  0  0  0  0  0  0999 V2000
    0.6321    5.4581   11.1773 C   0  0  0  0  0  0  0  0  0  0  0  0
    0.6989    4.0389   11.6158 C   0  0  0  0  0  0  0  0  0  0  0  0
   -0.3546    3.5894   12.4759 N   0  0  2  0  0  4  0  0  0  0  0  0
   -0.3658    4.3256   13.7503 C   0  0  0  0  0  0  0  0  0  0  0  0
   -0.6491    3.3351   14.8397 C   0  0  0  0  0  0  0  0  0  0  0  0
   -1.1263    2.1139   14.0827 C   0  0  0  0  0  0  0  0  0  0  0  0
   -0.1950    2.2461   12.8377 C   0  0  1  0  0  0  0  0  0  0  0  0
   -0.3183    1.1008   11.9822 C   0  0  0  0  0  0  0  0  0  0  0  0
   -1.1727    1.0210   10.8604 N   0  0  0  0  0  0  0  0  0  0  0  0
   -0.8182    0.6250    9.5577 C   0  0  0  0  0  0  0  0  0  0  0  0
    0.2174    1.2170    9.0805 O   0  0  0  0  0  0  0  0  0  0  0  0
   -1.4725   -0.3534    8.7112 C   0  0  0  0  0  0  0  0  0  0  0  0
   -1.8645   -1.6154    9.0363 C   0  0  0  0  0  0  0  0  0  0  0  0
   -1.6530   -2.0834   10.3213 O   0  0  0  0  0  0  0  0  0  0  0  0
   -2.4781   -2.5117    8.1777 C   0  0  0  0  0  0  0  0  0  0  0  0
   -2.8691   -3.8844    8.6378 C   0  0  0  0  0  0  0  0  0  0  0  0
   -3.6331   -4.6046    7.5506 C   0  0  0  0  0  0  0  0  0  0  0  0
   -2.7161   -2.1034    6.8867 C   0  0  0  0  0  0  0  0  0  0  0  0
   -2.3435   -0.8374    6.4942 C   0  0  0  0  0  0  0  0  0  0  0  0
   -1.7312    0.0279    7.3882 C   0  0  0  0  0  0  0  0  0  0  0  0
   -1.3933    1.2828    6.8981 O   0  0  0  0  0  0  0  0  0  0  0  0
   -1.8624    2.4523    7.5023 C   0  0  0  0  0  0  0  0  0  0  0  0
   -2.6559   -0.3392    4.8418 Cl  0  0  0  0  0  0  0  0  0  0  0  0
  1  2  1  0
  3  2  1  6
  3  4  1  0
  4  5  1  0
  5  6  1  0
  6  7  1  0
  7  8  1  6
  8  9  1  0
  9 10  1  0
 10 11  2  0
 10 12  1  0
 12 13  2  0
 13 14  1  0
 13 15  1  0
 15 16  1  0
 16 17  1  0
 15 18  2  0
 18 19  1  0
 19 20  2  0
 20 21  1  0
 21 22  1  0
 19 23  1  0
  7  3  1  0
 20 12  1  0
M  CHG  1   3   1
M  END
$$$$
