
     RDKit          3D

 23 24  0  0  0  0  0  0  0  0999 V2000
    1.1615    3.5883    3.8989 C   0  0  0  0  0  0  0  0  0  0  0  0
    1.3532    3.2394    5.3315 C   0  0  0  0  0  0  0  0  0  0  0  0
    0.5739    3.9823    6.2762 N   0  0  2  0  0  4  0  0  0  0  0  0
    1.4119    4.8899    7.0764 C   0  0  0  0  0  0  0  0  0  0  0  0
    0.9143    4.8331    8.4896 C   0  0  0  0  0  0  0  0  0  0  0  0
   -0.4231    4.1357    8.3587 C   0  0  0  0  0  0  0  0  0  0  0  0
   -0.0466    3.1462    7.2125 C   0  0  1  0  0  0  0  0  0  0  0  0
   -1.1120    2.2167    6.9680 C   0  0  0  0  0  0  0  0  0  0  0  0
   -1.1928    0.9196    7.5210 N   0  0  0  0  0  0  0  0  0  0  0  0
   -2.3615    0.2438    7.9172 C   0  0  0  0  0  0  0  0  0  0  0  0
   -3.4467    0.9141    7.7634 O   0  0  0  0  0  0  0  0  0  0  0  0
   -2.4790   -1.0930    8.4660 C   0  0  0  0  0  0  0  0  0  0  0  0
   -2.8801   -2.2279    7.8313 C   0  0  0  0  0  0  0  0  0  0  0  0
   -3.2223   -2.1732    6.4916 O   0  0  0  0  0  0  0  0  0  0  0  0
   -2.9830   -3.4798    8.4137 C   0  0  0  0  0  0  0  0  0  0  0  0
   -3.4392   -4.6693    7.6225 C   0  0  0  0  0  0  0  0  0  0  0  0
   -2.2676   -5.5704    7.3067 C   0  0  0  0  0  0  0  0  0  0  0  0
   -2.6550   -3.5979    9.7436 C   0  0  0  0  0  0  0  0  0  0  0  0
   -2.2414   -2.4866   10.4432 C   0  0  0  0  0  0  0  0  0  0  0  0
   -2.1528   -1.2514    9.8192 C   0  0  0  0  0  0  0  0  0  0  0  0
   -1.7256   -0.1914   10.6085 O   0  0  0  0  0  0  0  0  0  0  0  0
   -2.6345    0.6890   11.2016 C   0  0  0  0  0  0  0  0  0  0  0  0
   -1.8297   -2.6611   12.1392 Cl  0  0  0  0  0  0  0  0  0  0  0  0
  1  2  1  0
  3  2  1  6
  3  4  1  0
  4  5  1  0
  5  6  1  0
  6  7  1  0
  7  8  1  6
  8  9  1  0
  9 10  1  0
 10 11  2  0
 10 12  1  0
 12 13  2  0
 13 14  1  0
 13 15  1  0
 15 16  1  0
 16 17  1  0
 15 18  2  0
 18 19  1  0
 19 20  2  0
 20 21  1  0
 21 22  1  0
 19 23  1  0
  7  3  1  0
 20 12  1  0
M  CHG  1   3   1
M  END
$$$$
