
     RDKit          3D

 23 24  0  0  0  0  0  0  0  0999 V2000
   -1.0935    4.9082   11.8934 C   0  0  0  0  0  0  0  0  0  0  0  0
   -1.2554    4.8079   10.4188 C   0  0  0  0  0  0  0  0  0  0  0  0
   -0.2342    4.0913    9.7148 N   0  0  2  0  0  4  0  0  0  0  0  0
    0.5130    4.9701    8.8005 C   0  0  0  0  0  0  0  0  0  0  0  0
    0.7479    4.2050    7.5327 C   0  0  0  0  0  0  0  0  0  0  0  0
    0.4072    2.7811    7.9185 C   0  0  0  0  0  0  0  0  0  0  0  0
   -0.7702    3.0910    8.8945 C   0  0  1  0  0  0  0  0  0  0  0  0
   -1.4165    1.8818    9.3173 C   0  0  0  0  0  0  0  0  0  0  0  0
   -1.5704    0.7280    8.5174 N   0  0  0  0  0  0  0  0  0  0  0  0
   -1.8413   -0.5779    8.9653 C   0  0  0  0  0  0  0  0  0  0  0  0
   -1.5394   -0.7965   10.1948 O   0  0  0  0  0  0  0  0  0  0  0  0
   -2.4104   -1.6806    8.2155 C   0  0  0  0  0  0  0  0  0  0  0  0
   -2.6331   -2.9552    8.6370 C   0  0  0  0  0  0  0  0  0  0  0  0
   -2.3096   -3.3084    9.9353 O   0  0  0  0  0  0  0  0  0  0  0  0
   -3.1723   -3.9724    7.8679 C   0  0  0  0  0  0  0  0  0  0  0  0
   -3.3745   -5.3477    8.4307 C   0  0  0  0  0  0  0  0  0  0  0  0
   -4.8380   -5.5844    8.7250 C   0  0  0  0  0  0  0  0  0  0  0  0
   -3.5151   -3.6819    6.5686 C   0  0  0  0  0  0  0  0  0  0  0  0
   -3.3153   -2.4101    6.0807 C   0  0  0  0  0  0  0  0  0  0  0  0
   -2.7721   -1.4214    6.8871 C   0  0  0  0  0  0  0  0  0  0  0  0
   -2.6096   -0.1710    6.3043 O   0  0  0  0  0  0  0  0  0  0  0  0
   -1.3987    0.2094    5.7197 C   0  0  0  0  0  0  0  0  0  0  0  0
   -3.7589   -2.0633    4.4196 Cl  0  0  0  0  0  0  0  0  0  0  0  0
  1  2  1  0
  3  2  1  6
  3  4  1  0
  4  5  1  0
  5  6  1  0
  6  7  1  0
  7  8  1  1
  8  9  1  0
  9 10  1  0
 10 11  2  0
 10 12  1  0
 12 13  2  0
 13 14  1  0
 13 15  1  0
 15 16  1  0
 16 17  1  0
 15 18  2  0
 18 19  1  0
 19 20  2  0
 20 21  1  0
 21 22  1  0
 19 23  1  0
  7  3  1  0
 20 12  1  0
M  CHG  1   3   1
M  END
$$$$
