
     RDKit          3D

 23 24  0  0  0  0  0  0  0  0999 V2000
    0.5112    3.6030    6.5681 C   0  0  0  0  0  0  0  0  0  0  0  0
    0.3280    3.1646    7.9771 C   0  0  0  0  0  0  0  0  0  0  0  0
   -0.8241    3.6766    8.6571 N   0  0  2  0  0  4  0  0  0  0  0  0
   -0.6259    5.0706    9.0859 C   0  0  0  0  0  0  0  0  0  0  0  0
   -1.2139    5.2071   10.4583 C   0  0  0  0  0  0  0  0  0  0  0  0
   -2.0327    3.9429   10.6123 C   0  0  0  0  0  0  0  0  0  0  0  0
   -1.0891    2.9713    9.8374 C   0  0  1  0  0  0  0  0  0  0  0  0
   -1.5464    1.6158    9.9492 C   0  0  0  0  0  0  0  0  0  0  0  0
   -1.9253    0.8006    8.8599 N   0  0  0  0  0  0  0  0  0  0  0  0
   -1.5077   -0.5195    8.6101 C   0  0  0  0  0  0  0  0  0  0  0  0
   -0.3561   -0.8184    9.0949 O   0  0  0  0  0  0  0  0  0  0  0  0
   -2.2128   -1.5585    7.8853 C   0  0  0  0  0  0  0  0  0  0  0  0
   -2.6726   -2.7481    8.3601 C   0  0  0  0  0  0  0  0  0  0  0  0
   -2.4878   -3.0649    9.6945 O   0  0  0  0  0  0  0  0  0  0  0  0
   -3.3326   -3.7094    7.6135 C   0  0  0  0  0  0  0  0  0  0  0  0
   -3.7974   -4.9922    8.2359 C   0  0  0  0  0  0  0  0  0  0  0  0
   -5.2798   -4.9289    8.5238 C   0  0  0  0  0  0  0  0  0  0  0  0
   -3.5470   -3.4511    6.2804 C   0  0  0  0  0  0  0  0  0  0  0  0
   -3.1064   -2.2648    5.7380 C   0  0  0  0  0  0  0  0  0  0  0  0
   -2.4493   -1.3299    6.5236 C   0  0  0  0  0  0  0  0  0  0  0  0
   -2.0438   -0.1646    5.8854 O   0  0  0  0  0  0  0  0  0  0  0  0
   -0.7201    0.0208    5.4776 C   0  0  0  0  0  0  0  0  0  0  0  0
   -3.3898   -1.9580    4.0346 Cl  0  0  0  0  0  0  0  0  0  0  0  0
  1  2  1  0
  3  2  1  1
  3  4  1  0
  4  5  1  0
  5  6  1  0
  6  7  1  0
  7  8  1  6
  8  9  1  0
  9 10  1  0
 10 11  2  0
 10 12  1  0
 12 13  2  0
 13 14  1  0
 13 15  1  0
 15 16  1  0
 16 17  1  0
 15 18  2  0
 18 19  1  0
 19 20  2  0
 20 21  1  0
 21 22  1  0
 19 23  1  0
  7  3  1  0
 20 12  1  0
M  CHG  1   3   1
M  END
$$$$
