
     RDKit          3D

 23 24  0  0  0  0  0  0  0  0999 V2000
   -1.0971    4.2200   11.1549 C   0  0  0  0  0  0  0  0  0  0  0  0
   -1.0819    4.5425    9.7035 C   0  0  0  0  0  0  0  0  0  0  0  0
    0.1107    4.1983    8.9886 N   0  0  2  0  0  4  0  0  0  0  0  0
    0.4977    5.2542    8.0390 C   0  0  0  0  0  0  0  0  0  0  0  0
    0.9586    4.5810    6.7810 C   0  0  0  0  0  0  0  0  0  0  0  0
    1.1310    3.1373    7.2032 C   0  0  0  0  0  0  0  0  0  0  0  0
   -0.0651    3.0534    8.2018 C   0  0  1  0  0  0  0  0  0  0  0  0
   -0.2525    1.7082    8.6643 C   0  0  0  0  0  0  0  0  0  0  0  0
   -0.9810    0.7132    7.9756 N   0  0  0  0  0  0  0  0  0  0  0  0
   -1.8113   -0.2693    8.5453 C   0  0  0  0  0  0  0  0  0  0  0  0
   -2.0988   -0.0767    9.7826 O   0  0  0  0  0  0  0  0  0  0  0  0
   -2.3683   -1.4475    7.9100 C   0  0  0  0  0  0  0  0  0  0  0  0
   -2.4509   -1.7235    6.5801 C   0  0  0  0  0  0  0  0  0  0  0  0
   -1.9500   -0.8147    5.6645 O   0  0  0  0  0  0  0  0  0  0  0  0
   -3.0062   -2.8665    6.0303 C   0  0  0  0  0  0  0  0  0  0  0  0
   -3.0491   -3.0722    4.5454 C   0  0  0  0  0  0  0  0  0  0  0  0
   -4.2533   -3.9028    4.1652 C   0  0  0  0  0  0  0  0  0  0  0  0
   -3.5198   -3.8081    6.8904 C   0  0  0  0  0  0  0  0  0  0  0  0
   -3.4670   -3.5891    8.2486 C   0  0  0  0  0  0  0  0  0  0  0  0
   -2.9012   -2.4291    8.7557 C   0  0  0  0  0  0  0  0  0  0  0  0
   -2.8947   -2.3001   10.1387 O   0  0  0  0  0  0  0  0  0  0  0  0
   -1.8214   -2.7562   10.9087 C   0  0  0  0  0  0  0  0  0  0  0  0
   -4.1300   -4.8036    9.3264 Cl  0  0  0  0  0  0  0  0  0  0  0  0
  1  2  1  0
  3  2  1  6
  3  4  1  0
  4  5  1  0
  5  6  1  0
  6  7  1  0
  7  8  1  1
  8  9  1  0
  9 10  1  0
 10 11  2  0
 10 12  1  0
 12 13  2  0
 13 14  1  0
 13 15  1  0
 15 16  1  0
 16 17  1  0
 15 18  2  0
 18 19  1  0
 19 20  2  0
 20 21  1  0
 21 22  1  0
 19 23  1  0
  7  3  1  0
 20 12  1  0
M  CHG  1   3   1
M  END
$$$$
