
     RDKit          3D

 23 24  0  0  0  0  0  0  0  0999 V2000
   -0.5229    3.1172   12.2017 C   0  0  0  0  0  0  0  0  0  0  0  0
   -0.8513    3.1258   10.7515 C   0  0  0  0  0  0  0  0  0  0  0  0
    0.0663    3.8177    9.8964 N   0  0  2  0  0  4  0  0  0  0  0  0
   -0.1309    5.2751    9.9555 C   0  0  0  0  0  0  0  0  0  0  0  0
    0.0003    5.8037    8.5586 C   0  0  0  0  0  0  0  0  0  0  0  0
    0.6097    4.6415    7.8035 C   0  0  0  0  0  0  0  0  0  0  0  0
   -0.1224    3.4832    8.5499 C   0  0  1  0  0  0  0  0  0  0  0  0
    0.1509    2.2197    7.9274 C   0  0  0  0  0  0  0  0  0  0  0  0
   -0.8311    1.2746    7.5566 N   0  0  0  0  0  0  0  0  0  0  0  0
   -1.1544    0.0851    8.2348 C   0  0  0  0  0  0  0  0  0  0  0  0
   -0.5456   -0.0761    9.3545 O   0  0  0  0  0  0  0  0  0  0  0  0
   -2.0762   -0.9560    7.8245 C   0  0  0  0  0  0  0  0  0  0  0  0
   -2.1142   -1.6232    6.6391 C   0  0  0  0  0  0  0  0  0  0  0  0
   -1.1787   -1.3289    5.6627 O   0  0  0  0  0  0  0  0  0  0  0  0
   -3.0296   -2.6050    6.2995 C   0  0  0  0  0  0  0  0  0  0  0  0
   -2.9849   -3.2786    4.9603 C   0  0  0  0  0  0  0  0  0  0  0  0
   -4.0576   -4.3395    4.8704 C   0  0  0  0  0  0  0  0  0  0  0  0
   -3.9839   -2.9421    7.2298 C   0  0  0  0  0  0  0  0  0  0  0  0
   -3.9998   -2.3041    8.4497 C   0  0  0  0  0  0  0  0  0  0  0  0
   -3.0630   -1.3259    8.7475 C   0  0  0  0  0  0  0  0  0  0  0  0
   -3.1610   -0.7408   10.0035 O   0  0  0  0  0  0  0  0  0  0  0  0
   -3.7987    0.4889   10.1875 C   0  0  0  0  0  0  0  0  0  0  0  0
   -5.2276   -2.7497    9.6202 Cl  0  0  0  0  0  0  0  0  0  0  0  0
  1  2  1  0
  3  2  1  1
  3  4  1  0
  4  5  1  0
  5  6  1  0
  6  7  1  0
  7  8  1  1
  8  9  1  0
  9 10  1  0
 10 11  2  0
 10 12  1  0
 12 13  2  0
 13 14  1  0
 13 15  1  0
 15 16  1  0
 16 17  1  0
 15 18  2  0
 18 19  1  0
 19 20  2  0
 20 21  1  0
 21 22  1  0
 19 23  1  0
  7  3  1  0
 20 12  1  0
M  CHG  1   3   1
M  END
$$$$
