
     RDKit          3D

 23 24  0  0  0  0  0  0  0  0999 V2000
    0.6313    4.9846   11.4915 C   0  0  0  0  0  0  0  0  0  0  0  0
   -0.7866    5.0722   11.0523 C   0  0  0  0  0  0  0  0  0  0  0  0
   -1.6387    3.9866   11.4360 N   0  0  2  0  0  4  0  0  0  0  0  0
   -1.9121    3.9967   12.8823 C   0  0  0  0  0  0  0  0  0  0  0  0
   -1.8600    2.5764   13.3598 C   0  0  0  0  0  0  0  0  0  0  0  0
   -1.8904    1.7768   12.0745 C   0  0  0  0  0  0  0  0  0  0  0  0
   -1.0422    2.7437   11.1911 C   0  0  1  0  0  0  0  0  0  0  0  0
   -0.7634    2.1567    9.9119 C   0  0  0  0  0  0  0  0  0  0  0  0
   -1.5910    1.2167    9.2589 N   0  0  0  0  0  0  0  0  0  0  0  0
   -1.1718    0.1072    8.5021 C   0  0  0  0  0  0  0  0  0  0  0  0
    0.1005    0.0103    8.3522 O   0  0  0  0  0  0  0  0  0  0  0  0
   -1.9926   -0.9171    7.8865 C   0  0  0  0  0  0  0  0  0  0  0  0
   -2.6030   -1.9754    8.4860 C   0  0  0  0  0  0  0  0  0  0  0  0
   -2.4750   -2.1495    9.8528 O   0  0  0  0  0  0  0  0  0  0  0  0
   -3.3692   -2.9313    7.8407 C   0  0  0  0  0  0  0  0  0  0  0  0
   -3.9980   -4.0631    8.5976 C   0  0  0  0  0  0  0  0  0  0  0  0
   -5.4884   -4.0966    8.3491 C   0  0  0  0  0  0  0  0  0  0  0  0
   -3.5340   -2.8111    6.4812 C   0  0  0  0  0  0  0  0  0  0  0  0
   -2.9423   -1.7618    5.8146 C   0  0  0  0  0  0  0  0  0  0  0  0
   -2.1828   -0.8268    6.5015 C   0  0  0  0  0  0  0  0  0  0  0  0
   -1.6274    0.1945    5.7413 O   0  0  0  0  0  0  0  0  0  0  0  0
   -2.0628    1.5165    5.8666 C   0  0  0  0  0  0  0  0  0  0  0  0
   -3.1651   -1.6298    4.0799 Cl  0  0  0  0  0  0  0  0  0  0  0  0
  1  2  1  0
  3  2  1  1
  3  4  1  0
  4  5  1  0
  5  6  1  0
  6  7  1  0
  7  8  1  6
  8  9  1  0
  9 10  1  0
 10 11  2  0
 10 12  1  0
 12 13  2  0
 13 14  1  0
 13 15  1  0
 15 16  1  0
 16 17  1  0
 15 18  2  0
 18 19  1  0
 19 20  2  0
 20 21  1  0
 21 22  1  0
 19 23  1  0
  7  3  1  0
 20 12  1  0
M  CHG  1   3   1
M  END
$$$$
