
     RDKit          3D

 23 24  0  0  0  0  0  0  0  0999 V2000
   -0.6879    5.6374   11.1971 C   0  0  0  0  0  0  0  0  0  0  0  0
    0.4388    4.8914   11.8175 C   0  0  0  0  0  0  0  0  0  0  0  0
    0.0904    3.7188   12.5628 N   0  0  2  0  0  4  0  0  0  0  0  0
    1.1026    3.4046   13.5841 C   0  0  0  0  0  0  0  0  0  0  0  0
    1.2918    1.9172   13.5874 C   0  0  0  0  0  0  0  0  0  0  0  0
    0.1110    1.4154   12.7835 C   0  0  0  0  0  0  0  0  0  0  0  0
    0.0353    2.5808   11.7486 C   0  0  1  0  0  0  0  0  0  0  0  0
   -0.9307    2.2961   10.7267 C   0  0  0  0  0  0  0  0  0  0  0  0
   -0.9274    1.1411    9.9137 N   0  0  0  0  0  0  0  0  0  0  0  0
   -1.9956    0.2473    9.7153 C   0  0  0  0  0  0  0  0  0  0  0  0
   -2.9174    0.3068   10.6082 O   0  0  0  0  0  0  0  0  0  0  0  0
   -2.1720   -0.7113    8.6420 C   0  0  0  0  0  0  0  0  0  0  0  0
   -2.2208   -2.0684    8.7291 C   0  0  0  0  0  0  0  0  0  0  0  0
   -2.1054   -2.6750    9.9675 O   0  0  0  0  0  0  0  0  0  0  0  0
   -2.3813   -2.9361    7.6620 C   0  0  0  0  0  0  0  0  0  0  0  0
   -2.4196   -4.4211    7.8676 C   0  0  0  0  0  0  0  0  0  0  0  0
   -3.8495   -4.9012    7.9626 C   0  0  0  0  0  0  0  0  0  0  0  0
   -2.5028   -2.3922    6.4053 C   0  0  0  0  0  0  0  0  0  0  0  0
   -2.4618   -1.0250    6.2491 C   0  0  0  0  0  0  0  0  0  0  0  0
   -2.2994   -0.1931    7.3466 C   0  0  0  0  0  0  0  0  0  0  0  0
   -2.2708    1.1712    7.0870 O   0  0  0  0  0  0  0  0  0  0  0  0
   -1.0650    1.8541    6.9065 C   0  0  0  0  0  0  0  0  0  0  0  0
   -2.6173   -0.3540    4.6361 Cl  0  0  0  0  0  0  0  0  0  0  0  0
  1  2  1  0
  3  2  1  6
  3  4  1  0
  4  5  1  0
  5  6  1  0
  6  7  1  0
  7  8  1  1
  8  9  1  0
  9 10  1  0
 10 11  2  0
 10 12  1  0
 12 13  2  0
 13 14  1  0
 13 15  1  0
 15 16  1  0
 16 17  1  0
 15 18  2  0
 18 19  1  0
 19 20  2  0
 20 21  1  0
 21 22  1  0
 19 23  1  0
  7  3  1  0
 20 12  1  0
M  CHG  1   3   1
M  END
$$$$
