
     RDKit          3D

 23 24  0  0  0  0  0  0  0  0999 V2000
   -1.0240    3.3610   12.7584 C   0  0  0  0  0  0  0  0  0  0  0  0
   -1.3313    3.2436   11.3084 C   0  0  0  0  0  0  0  0  0  0  0  0
   -0.2482    3.4993   10.4066 N   0  0  2  0  0  4  0  0  0  0  0  0
   -0.0464    4.9420   10.1963 C   0  0  0  0  0  0  0  0  0  0  0  0
    0.2440    5.1482    8.7399 C   0  0  0  0  0  0  0  0  0  0  0  0
    0.5295    3.7474    8.2414 C   0  0  0  0  0  0  0  0  0  0  0  0
   -0.4991    2.9812    9.1301 C   0  0  1  0  0  0  0  0  0  0  0  0
   -0.5666    1.5972    8.7578 C   0  0  0  0  0  0  0  0  0  0  0  0
   -1.7482    0.8235    8.7419 N   0  0  0  0  0  0  0  0  0  0  0  0
   -1.8887   -0.5089    9.1714 C   0  0  0  0  0  0  0  0  0  0  0  0
   -1.6517   -0.6976   10.4199 O   0  0  0  0  0  0  0  0  0  0  0  0
   -2.2631   -1.6674    8.3844 C   0  0  0  0  0  0  0  0  0  0  0  0
   -2.0358   -2.9799    8.6631 C   0  0  0  0  0  0  0  0  0  0  0  0
   -1.3805   -3.3231    9.8326 O   0  0  0  0  0  0  0  0  0  0  0  0
   -2.4095   -4.0468    7.8637 C   0  0  0  0  0  0  0  0  0  0  0  0
   -2.1075   -5.4602    8.2638 C   0  0  0  0  0  0  0  0  0  0  0  0
   -3.3852   -6.1959    8.5964 C   0  0  0  0  0  0  0  0  0  0  0  0
   -3.0657   -3.7689    6.6880 C   0  0  0  0  0  0  0  0  0  0  0  0
   -3.3267   -2.4606    6.3477 C   0  0  0  0  0  0  0  0  0  0  0  0
   -2.9339   -1.4226    7.1791 C   0  0  0  0  0  0  0  0  0  0  0  0
   -3.2425   -0.1383    6.7493 O   0  0  0  0  0  0  0  0  0  0  0  0
   -4.4441    0.4805    7.1042 C   0  0  0  0  0  0  0  0  0  0  0  0
   -4.1637   -2.1302    4.8422 Cl  0  0  0  0  0  0  0  0  0  0  0  0
  1  2  1  0
  3  2  1  1
  3  4  1  0
  4  5  1  0
  5  6  1  0
  6  7  1  0
  7  8  1  1
  8  9  1  0
  9 10  1  0
 10 11  2  0
 10 12  1  0
 12 13  2  0
 13 14  1  0
 13 15  1  0
 15 16  1  0
 16 17  1  0
 15 18  2  0
 18 19  1  0
 19 20  2  0
 20 21  1  0
 21 22  1  0
 19 23  1  0
  7  3  1  0
 20 12  1  0
M  CHG  1   3   1
M  END
$$$$
