
     RDKit          3D

 23 24  0  0  0  0  0  0  0  0999 V2000
   -1.0064    5.9158   11.3887 C   0  0  0  0  0  0  0  0  0  0  0  0
   -1.3486    4.8506   10.4093 C   0  0  0  0  0  0  0  0  0  0  0  0
   -0.3202    4.4869    9.4809 N   0  0  2  0  0  4  0  0  0  0  0  0
   -0.0209    5.5837    8.5460 C   0  0  0  0  0  0  0  0  0  0  0  0
    0.1735    4.9773    7.1886 C   0  0  0  0  0  0  0  0  0  0  0  0
    0.3079    3.4987    7.4851 C   0  0  0  0  0  0  0  0  0  0  0  0
   -0.7078    3.4157    8.6667 C   0  0  1  0  0  0  0  0  0  0  0  0
   -0.9133    2.0543    9.0705 C   0  0  0  0  0  0  0  0  0  0  0  0
   -1.6041    1.0839    8.3115 N   0  0  0  0  0  0  0  0  0  0  0  0
   -1.8140   -0.2636    8.6573 C   0  0  0  0  0  0  0  0  0  0  0  0
   -1.3703   -0.5950    9.8166 O   0  0  0  0  0  0  0  0  0  0  0  0
   -2.4601   -1.2979    7.8733 C   0  0  0  0  0  0  0  0  0  0  0  0
   -2.5063   -1.4178    6.5185 C   0  0  0  0  0  0  0  0  0  0  0  0
   -1.8686   -0.4759    5.7303 O   0  0  0  0  0  0  0  0  0  0  0  0
   -3.1513   -2.4267    5.8234 C   0  0  0  0  0  0  0  0  0  0  0  0
   -3.1432   -2.4648    4.3242 C   0  0  0  0  0  0  0  0  0  0  0  0
   -3.9060   -3.6706    3.8257 C   0  0  0  0  0  0  0  0  0  0  0  0
   -3.8024   -3.3935    6.5524 C   0  0  0  0  0  0  0  0  0  0  0  0
   -3.7932   -3.3297    7.9277 C   0  0  0  0  0  0  0  0  0  0  0  0
   -3.1339   -2.3005    8.5828 C   0  0  0  0  0  0  0  0  0  0  0  0
   -3.1813   -2.3232    9.9708 O   0  0  0  0  0  0  0  0  0  0  0  0
   -4.1961   -1.6715   10.6766 C   0  0  0  0  0  0  0  0  0  0  0  0
   -4.6319   -4.5733    8.8366 Cl  0  0  0  0  0  0  0  0  0  0  0  0
  1  2  1  0
  3  2  1  1
  3  4  1  0
  4  5  1  0
  5  6  1  0
  6  7  1  0
  7  8  1  1
  8  9  1  0
  9 10  1  0
 10 11  2  0
 10 12  1  0
 12 13  2  0
 13 14  1  0
 13 15  1  0
 15 16  1  0
 16 17  1  0
 15 18  2  0
 18 19  1  0
 19 20  2  0
 20 21  1  0
 21 22  1  0
 19 23  1  0
  7  3  1  0
 20 12  1  0
M  CHG  1   3   1
M  END
$$$$
