
     RDKit          3D

 23 24  0  0  0  0  0  0  0  0999 V2000
   -1.3177    1.6205   12.9735 C   0  0  0  0  0  0  0  0  0  0  0  0
   -1.6258    2.0703   11.5902 C   0  0  0  0  0  0  0  0  0  0  0  0
   -0.7115    3.0069   11.0082 N   0  0  2  0  0  4  0  0  0  0  0  0
   -0.7722    4.3142   11.6817 C   0  0  0  0  0  0  0  0  0  0  0  0
   -0.6916    5.3709   10.6211 C   0  0  0  0  0  0  0  0  0  0  0  0
   -0.2433    4.6006    9.3972 C   0  0  0  0  0  0  0  0  0  0  0  0
   -1.0230    3.2768    9.6699 C   0  0  1  0  0  0  0  0  0  0  0  0
   -0.9085    2.3769    8.5583 C   0  0  0  0  0  0  0  0  0  0  0  0
   -1.7815    1.2964    8.3026 N   0  0  0  0  0  0  0  0  0  0  0  0
   -1.4169   -0.0197    7.9643 C   0  0  0  0  0  0  0  0  0  0  0  0
   -0.1515   -0.2154    7.8597 O   0  0  0  0  0  0  0  0  0  0  0  0
   -2.2861   -1.1554    7.7265 C   0  0  0  0  0  0  0  0  0  0  0  0
   -2.8708   -1.9711    8.6456 C   0  0  0  0  0  0  0  0  0  0  0  0
   -2.6607   -1.7377    9.9933 O   0  0  0  0  0  0  0  0  0  0  0  0
   -3.6864   -3.0518    8.3562 C   0  0  0  0  0  0  0  0  0  0  0  0
   -4.2806   -3.8907    9.4481 C   0  0  0  0  0  0  0  0  0  0  0  0
   -5.7410   -4.1602    9.1672 C   0  0  0  0  0  0  0  0  0  0  0  0
   -3.9333   -3.3335    7.0334 C   0  0  0  0  0  0  0  0  0  0  0  0
   -3.3716   -2.5456    6.0540 C   0  0  0  0  0  0  0  0  0  0  0  0
   -2.5602   -1.4723    6.3897 C   0  0  0  0  0  0  0  0  0  0  0  0
   -2.0408   -0.7377    5.3314 O   0  0  0  0  0  0  0  0  0  0  0  0
   -2.6109    0.4756    4.9366 C   0  0  0  0  0  0  0  0  0  0  0  0
   -3.6994   -2.9250    4.3733 Cl  0  0  0  0  0  0  0  0  0  0  0  0
  1  2  1  0
  3  2  1  1
  3  4  1  0
  4  5  1  0
  5  6  1  0
  6  7  1  0
  7  8  1  6
  8  9  1  0
  9 10  1  0
 10 11  2  0
 10 12  1  0
 12 13  2  0
 13 14  1  0
 13 15  1  0
 15 16  1  0
 16 17  1  0
 15 18  2  0
 18 19  1  0
 19 20  2  0
 20 21  1  0
 21 22  1  0
 19 23  1  0
  7  3  1  0
 20 12  1  0
M  CHG  1   3   1
M  END
$$$$
