
     RDKit          3D

 23 24  0  0  0  0  0  0  0  0999 V2000
    1.4691    2.5814   15.5331 C   0  0  0  0  0  0  0  0  0  0  0  0
    0.3829    2.8675   14.5590 C   0  0  0  0  0  0  0  0  0  0  0  0
    0.7906    3.1252   13.2102 N   0  0  2  0  0  4  0  0  0  0  0  0
    0.9040    4.5684   12.9442 C   0  0  0  0  0  0  0  0  0  0  0  0
    0.3432    4.8192   11.5765 C   0  0  0  0  0  0  0  0  0  0  0  0
    0.2413    3.4300   10.9832 C   0  0  0  0  0  0  0  0  0  0  0  0
   -0.1508    2.6613   12.2832 C   0  0  1  0  0  0  0  0  0  0  0  0
   -0.4745    1.2941   11.9917 C   0  0  0  0  0  0  0  0  0  0  0  0
   -0.9430    0.8251   10.7445 N   0  0  0  0  0  0  0  0  0  0  0  0
   -1.6583   -0.3626   10.5057 C   0  0  0  0  0  0  0  0  0  0  0  0
   -2.0115   -0.9981   11.5650 O   0  0  0  0  0  0  0  0  0  0  0  0
   -2.0352   -0.9384    9.2296 C   0  0  0  0  0  0  0  0  0  0  0  0
   -2.3152   -2.2397    8.9465 C   0  0  0  0  0  0  0  0  0  0  0  0
   -2.2638   -3.1821    9.9585 O   0  0  0  0  0  0  0  0  0  0  0  0
   -2.6605   -2.7337    7.7000 C   0  0  0  0  0  0  0  0  0  0  0  0
   -2.9482   -4.1911    7.4947 C   0  0  0  0  0  0  0  0  0  0  0  0
   -4.3186   -4.3747    6.8842 C   0  0  0  0  0  0  0  0  0  0  0  0
   -2.7295   -1.8445    6.6538 C   0  0  0  0  0  0  0  0  0  0  0  0
   -2.4577   -0.5128    6.8741 C   0  0  0  0  0  0  0  0  0  0  0  0
   -2.1157   -0.0616    8.1399 C   0  0  0  0  0  0  0  0  0  0  0  0
   -1.8603    1.2983    8.2613 O   0  0  0  0  0  0  0  0  0  0  0  0
   -2.8716    2.2035    8.5941 C   0  0  0  0  0  0  0  0  0  0  0  0
   -2.5505    0.6028    5.5239 Cl  0  0  0  0  0  0  0  0  0  0  0  0
  1  2  1  0
  3  2  1  1
  3  4  1  0
  4  5  1  0
  5  6  1  0
  6  7  1  0
  7  8  1  6
  8  9  1  0
  9 10  1  0
 10 11  2  0
 10 12  1  0
 12 13  2  0
 13 14  1  0
 13 15  1  0
 15 16  1  0
 16 17  1  0
 15 18  2  0
 18 19  1  0
 19 20  2  0
 20 21  1  0
 21 22  1  0
 19 23  1  0
  7  3  1  0
 20 12  1  0
M  CHG  1   3   1
M  END
$$$$
