
     RDKit          3D

 23 24  0  0  0  0  0  0  0  0999 V2000
   -0.4922    5.5579   11.1194 C   0  0  0  0  0  0  0  0  0  0  0  0
   -0.8723    4.3398   10.3561 C   0  0  0  0  0  0  0  0  0  0  0  0
    0.1116    3.8237    9.4521 N   0  0  2  0  0  4  0  0  0  0  0  0
    0.3831    4.7630    8.3519 C   0  0  0  0  0  0  0  0  0  0  0  0
    0.5129    3.9573    7.0941 C   0  0  0  0  0  0  0  0  0  0  0  0
    0.6434    2.5375    7.6035 C   0  0  0  0  0  0  0  0  0  0  0  0
   -0.3221    2.6497    8.8241 C   0  0  1  0  0  0  0  0  0  0  0  0
   -0.5253    1.3677    9.4357 C   0  0  0  0  0  0  0  0  0  0  0  0
   -1.6666    0.5570    9.2481 N   0  0  0  0  0  0  0  0  0  0  0  0
   -1.7233   -0.8471    9.3173 C   0  0  0  0  0  0  0  0  0  0  0  0
   -1.2578   -1.3496   10.4042 O   0  0  0  0  0  0  0  0  0  0  0  0
   -2.2365   -1.7713    8.3252 C   0  0  0  0  0  0  0  0  0  0  0  0
   -1.7046   -2.9607    7.9324 C   0  0  0  0  0  0  0  0  0  0  0  0
   -0.5351   -3.4099    8.5201 O   0  0  0  0  0  0  0  0  0  0  0  0
   -2.2373   -3.7988    6.9674 C   0  0  0  0  0  0  0  0  0  0  0  0
   -1.5680   -5.0913    6.6063 C   0  0  0  0  0  0  0  0  0  0  0  0
   -2.4200   -5.8684    5.6292 C   0  0  0  0  0  0  0  0  0  0  0  0
   -3.4003   -3.4067    6.3481 C   0  0  0  0  0  0  0  0  0  0  0  0
   -3.9896   -2.2134    6.7005 C   0  0  0  0  0  0  0  0  0  0  0  0
   -3.4210   -1.4048    7.6730 C   0  0  0  0  0  0  0  0  0  0  0  0
   -4.0898   -0.2214    7.9588 O   0  0  0  0  0  0  0  0  0  0  0  0
   -4.9814   -0.1281    9.0308 C   0  0  0  0  0  0  0  0  0  0  0  0
   -5.4721   -1.7332    5.8956 Cl  0  0  0  0  0  0  0  0  0  0  0  0
  1  2  1  0
  3  2  1  1
  3  4  1  0
  4  5  1  0
  5  6  1  0
  6  7  1  0
  7  8  1  1
  8  9  1  0
  9 10  1  0
 10 11  2  0
 10 12  1  0
 12 13  2  0
 13 14  1  0
 13 15  1  0
 15 16  1  0
 16 17  1  0
 15 18  2  0
 18 19  1  0
 19 20  2  0
 20 21  1  0
 21 22  1  0
 19 23  1  0
  7  3  1  0
 20 12  1  0
M  CHG  1   3   1
M  END
$$$$
