
     RDKit          3D

 23 24  0  0  0  0  0  0  0  0999 V2000
    0.8211    4.0235    6.5678 C   0  0  0  0  0  0  0  0  0  0  0  0
   -0.6631    3.9437    6.6071 C   0  0  0  0  0  0  0  0  0  0  0  0
   -1.2577    3.8023    7.9025 N   0  0  2  0  0  4  0  0  0  0  0  0
   -1.3977    5.1015    8.5800 C   0  0  0  0  0  0  0  0  0  0  0  0
   -1.0365    4.8988   10.0209 C   0  0  0  0  0  0  0  0  0  0  0  0
   -1.0305    3.3920   10.1685 C   0  0  0  0  0  0  0  0  0  0  0  0
   -0.4620    3.0330    8.7604 C   0  0  1  0  0  0  0  0  0  0  0  0
   -0.1931    1.6272    8.6599 C   0  0  0  0  0  0  0  0  0  0  0  0
   -0.9696    0.7090    7.9190 N   0  0  0  0  0  0  0  0  0  0  0  0
   -1.5754   -0.4651    8.4027 C   0  0  0  0  0  0  0  0  0  0  0  0
   -1.4227   -0.6675    9.6622 O   0  0  0  0  0  0  0  0  0  0  0  0
   -2.3362   -1.4504    7.6595 C   0  0  0  0  0  0  0  0  0  0  0  0
   -2.4537   -1.5755    6.3096 C   0  0  0  0  0  0  0  0  0  0  0  0
   -1.7807   -0.6925    5.4836 O   0  0  0  0  0  0  0  0  0  0  0  0
   -3.2072   -2.5351    5.6549 C   0  0  0  0  0  0  0  0  0  0  0  0
   -3.2710   -2.5839    4.1573 C   0  0  0  0  0  0  0  0  0  0  0  0
   -2.9464   -3.9749    3.6633 C   0  0  0  0  0  0  0  0  0  0  0  0
   -3.8983   -3.4423    6.4226 C   0  0  0  0  0  0  0  0  0  0  0  0
   -3.8210   -3.3701    7.7953 C   0  0  0  0  0  0  0  0  0  0  0  0
   -3.0535   -2.3917    8.4092 C   0  0  0  0  0  0  0  0  0  0  0  0
   -3.0388   -2.4012    9.7981 O   0  0  0  0  0  0  0  0  0  0  0  0
   -3.9955   -1.7056   10.5423 C   0  0  0  0  0  0  0  0  0  0  0  0
   -4.7124   -4.5372    8.7542 Cl  0  0  0  0  0  0  0  0  0  0  0  0
  1  2  1  0
  3  2  1  6
  3  4  1  0
  4  5  1  0
  5  6  1  0
  6  7  1  0
  7  8  1  6
  8  9  1  0
  9 10  1  0
 10 11  2  0
 10 12  1  0
 12 13  2  0
 13 14  1  0
 13 15  1  0
 15 16  1  0
 16 17  1  0
 15 18  2  0
 18 19  1  0
 19 20  2  0
 20 21  1  0
 21 22  1  0
 19 23  1  0
  7  3  1  0
 20 12  1  0
M  CHG  1   3   1
M  END
$$$$
