
     RDKit          3D

 23 24  0  0  0  0  0  0  0  0999 V2000
    2.1014    4.4071   13.6643 C   0  0  0  0  0  0  0  0  0  0  0  0
    1.4538    3.4740   12.7048 C   0  0  0  0  0  0  0  0  0  0  0  0
    0.0329    3.5907   12.5656 N   0  0  2  0  0  4  0  0  0  0  0  0
   -0.6352    3.6747   13.8745 C   0  0  0  0  0  0  0  0  0  0  0  0
   -1.8791    2.8411   13.7989 C   0  0  0  0  0  0  0  0  0  0  0  0
   -2.0367    2.5866   12.3147 C   0  0  0  0  0  0  0  0  0  0  0  0
   -0.5248    2.4644   11.9485 C   0  0  1  0  0  0  0  0  0  0  0  0
   -0.3603    2.0579   10.5823 C   0  0  0  0  0  0  0  0  0  0  0  0
   -1.2339    1.1918    9.8882 N   0  0  0  0  0  0  0  0  0  0  0  0
   -0.8806    0.2483    8.9062 C   0  0  0  0  0  0  0  0  0  0  0  0
    0.3697    0.2233    8.6119 O   0  0  0  0  0  0  0  0  0  0  0  0
   -1.7464   -0.6790    8.2045 C   0  0  0  0  0  0  0  0  0  0  0  0
   -2.4673   -1.7100    8.7234 C   0  0  0  0  0  0  0  0  0  0  0  0
   -2.4232   -1.9531   10.0850 O   0  0  0  0  0  0  0  0  0  0  0  0
   -3.2718   -2.5723    7.9979 C   0  0  0  0  0  0  0  0  0  0  0  0
   -4.0248   -3.6818    8.6696 C   0  0  0  0  0  0  0  0  0  0  0  0
   -4.0309   -4.9155    7.7966 C   0  0  0  0  0  0  0  0  0  0  0  0
   -3.3570   -2.3802    6.6393 C   0  0  0  0  0  0  0  0  0  0  0  0
   -2.6520   -1.3538    6.0520 C   0  0  0  0  0  0  0  0  0  0  0  0
   -1.8579   -0.5135    6.8178 C   0  0  0  0  0  0  0  0  0  0  0  0
   -1.1864    0.4920    6.1341 O   0  0  0  0  0  0  0  0  0  0  0  0
   -1.6387    1.8141    6.1526 C   0  0  0  0  0  0  0  0  0  0  0  0
   -2.7749   -1.1290    4.3169 Cl  0  0  0  0  0  0  0  0  0  0  0  0
  1  2  1  0
  3  2  1  1
  3  4  1  0
  4  5  1  0
  5  6  1  0
  6  7  1  0
  7  8  1  6
  8  9  1  0
  9 10  1  0
 10 11  2  0
 10 12  1  0
 12 13  2  0
 13 14  1  0
 13 15  1  0
 15 16  1  0
 16 17  1  0
 15 18  2  0
 18 19  1  0
 19 20  2  0
 20 21  1  0
 21 22  1  0
 19 23  1  0
  7  3  1  0
 20 12  1  0
M  CHG  1   3   1
M  END
$$$$
