
     RDKit          3D

 23 24  0  0  0  0  0  0  0  0999 V2000
   -0.6978    2.5917   14.5083 C   0  0  0  0  0  0  0  0  0  0  0  0
   -1.0608    3.4061   13.3185 C   0  0  0  0  0  0  0  0  0  0  0  0
   -0.0973    3.4482   12.2594 N   0  0  2  0  0  4  0  0  0  0  0  0
   -0.0112    4.7885   11.6573 C   0  0  0  0  0  0  0  0  0  0  0  0
    0.1102    4.6084   10.1738 C   0  0  0  0  0  0  0  0  0  0  0  0
    0.4303    3.1358   10.0281 C   0  0  0  0  0  0  0  0  0  0  0  0
   -0.4479    2.6003   11.2015 C   0  0  1  0  0  0  0  0  0  0  0  0
   -0.4659    1.1657   11.2143 C   0  0  0  0  0  0  0  0  0  0  0  0
   -0.7374    0.3530   10.0914 N   0  0  0  0  0  0  0  0  0  0  0  0
   -1.9880   -0.1664    9.7098 C   0  0  0  0  0  0  0  0  0  0  0  0
   -2.9678    0.1885   10.4612 O   0  0  0  0  0  0  0  0  0  0  0  0
   -2.2912   -1.0360    8.5901 C   0  0  0  0  0  0  0  0  0  0  0  0
   -2.3255   -2.3962    8.5697 C   0  0  0  0  0  0  0  0  0  0  0  0
   -2.0586   -3.1007    9.7305 O   0  0  0  0  0  0  0  0  0  0  0  0
   -2.6125   -3.1755    7.4618 C   0  0  0  0  0  0  0  0  0  0  0  0
   -2.6215   -4.6728    7.5468 C   0  0  0  0  0  0  0  0  0  0  0  0
   -4.0222   -5.2018    7.3409 C   0  0  0  0  0  0  0  0  0  0  0  0
   -2.8875   -2.5322    6.2784 C   0  0  0  0  0  0  0  0  0  0  0  0
   -2.8694   -1.1563    6.2322 C   0  0  0  0  0  0  0  0  0  0  0  0
   -2.5767   -0.4151    7.3671 C   0  0  0  0  0  0  0  0  0  0  0  0
   -2.5835    0.9661    7.2198 O   0  0  0  0  0  0  0  0  0  0  0  0
   -1.4011    1.6844    7.0231 C   0  0  0  0  0  0  0  0  0  0  0  0
   -3.2219   -0.3575    4.7110 Cl  0  0  0  0  0  0  0  0  0  0  0  0
  1  2  1  0
  3  2  1  1
  3  4  1  0
  4  5  1  0
  5  6  1  0
  6  7  1  0
  7  8  1  1
  8  9  1  0
  9 10  1  0
 10 11  2  0
 10 12  1  0
 12 13  2  0
 13 14  1  0
 13 15  1  0
 15 16  1  0
 16 17  1  0
 15 18  2  0
 18 19  1  0
 19 20  2  0
 20 21  1  0
 21 22  1  0
 19 23  1  0
  7  3  1  0
 20 12  1  0
M  CHG  1   3   1
M  END
$$$$
