
     RDKit          3D

 23 24  0  0  0  0  0  0  0  0999 V2000
   -3.4768    4.6330   11.2467 C   0  0  0  0  0  0  0  0  0  0  0  0
   -2.3710    3.7156   10.8642 C   0  0  0  0  0  0  0  0  0  0  0  0
   -1.4023    3.4300   11.8800 N   0  0  2  0  0  4  0  0  0  0  0  0
   -0.5080    4.5754   12.1141 C   0  0  0  0  0  0  0  0  0  0  0  0
    0.8786    4.0342   12.2941 C   0  0  0  0  0  0  0  0  0  0  0  0
    0.6493    2.5506   12.4901 C   0  0  0  0  0  0  0  0  0  0  0  0
   -0.5529    2.3801   11.5100 C   0  0  1  0  0  0  0  0  0  0  0  0
   -0.9030    0.9962   11.3651 C   0  0  0  0  0  0  0  0  0  0  0  0
   -1.7211    0.4750   10.3385 N   0  0  0  0  0  0  0  0  0  0  0  0
   -1.2923   -0.1908    9.1756 C   0  0  0  0  0  0  0  0  0  0  0  0
   -0.0922    0.0868    8.8105 O   0  0  0  0  0  0  0  0  0  0  0  0
   -2.0327   -1.1339    8.3606 C   0  0  0  0  0  0  0  0  0  0  0  0
   -2.6829   -2.2599    8.7622 C   0  0  0  0  0  0  0  0  0  0  0  0
   -2.6876   -2.6007   10.1034 O   0  0  0  0  0  0  0  0  0  0  0  0
   -3.3671   -3.1313    7.9318 C   0  0  0  0  0  0  0  0  0  0  0  0
   -4.0500   -4.3496    8.4780 C   0  0  0  0  0  0  0  0  0  0  0  0
   -4.1617   -5.4124    7.4091 C   0  0  0  0  0  0  0  0  0  0  0  0
   -3.3988   -2.8450    6.5875 C   0  0  0  0  0  0  0  0  0  0  0  0
   -2.7604   -1.7198    6.1166 C   0  0  0  0  0  0  0  0  0  0  0  0
   -2.0867   -0.8742    6.9850 C   0  0  0  0  0  0  0  0  0  0  0  0
   -1.4748    0.2347    6.4147 O   0  0  0  0  0  0  0  0  0  0  0  0
   -1.9881    1.5224    6.5913 C   0  0  0  0  0  0  0  0  0  0  0  0
   -2.8132   -1.3757    4.3976 Cl  0  0  0  0  0  0  0  0  0  0  0  0
  1  2  1  0
  3  2  1  6
  3  4  1  0
  4  5  1  0
  5  6  1  0
  6  7  1  0
  7  8  1  1
  8  9  1  0
  9 10  1  0
 10 11  2  0
 10 12  1  0
 12 13  2  0
 13 14  1  0
 13 15  1  0
 15 16  1  0
 16 17  1  0
 15 18  2  0
 18 19  1  0
 19 20  2  0
 20 21  1  0
 21 22  1  0
 19 23  1  0
  7  3  1  0
 20 12  1  0
M  CHG  1   3   1
M  END
$$$$
