
     RDKit          3D

 23 24  0  0  0  0  0  0  0  0999 V2000
    1.0466    5.2743    8.4392 C   0  0  0  0  0  0  0  0  0  0  0  0
    0.6065    3.9721    9.0060 C   0  0  0  0  0  0  0  0  0  0  0  0
   -0.3607    4.0327   10.0609 N   0  0  2  0  0  4  0  0  0  0  0  0
    0.2022    4.6378   11.2789 C   0  0  0  0  0  0  0  0  0  0  0  0
   -0.3085    3.8517   12.4491 C   0  0  0  0  0  0  0  0  0  0  0  0
   -1.4273    3.0257   11.8505 C   0  0  0  0  0  0  0  0  0  0  0  0
   -0.7832    2.7572   10.4549 C   0  0  1  0  0  0  0  0  0  0  0  0
   -1.5777    1.8369    9.6929 C   0  0  0  0  0  0  0  0  0  0  0  0
   -1.0686    0.7224    8.9903 N   0  0  0  0  0  0  0  0  0  0  0  0
   -1.3947   -0.6293    9.2044 C   0  0  0  0  0  0  0  0  0  0  0  0
   -1.0398   -1.0918   10.3492 O   0  0  0  0  0  0  0  0  0  0  0  0
   -2.0714   -1.5398    8.3015 C   0  0  0  0  0  0  0  0  0  0  0  0
   -2.8022   -2.6439    8.6158 C   0  0  0  0  0  0  0  0  0  0  0  0
   -2.9702   -2.9928    9.9443 O   0  0  0  0  0  0  0  0  0  0  0  0
   -3.4187   -3.4847    7.7046 C   0  0  0  0  0  0  0  0  0  0  0  0
   -4.2016   -4.6808    8.1579 C   0  0  0  0  0  0  0  0  0  0  0  0
   -3.9057   -5.8685    7.2712 C   0  0  0  0  0  0  0  0  0  0  0  0
   -3.2885   -3.1889    6.3684 C   0  0  0  0  0  0  0  0  0  0  0  0
   -2.5616   -2.0846    5.9839 C   0  0  0  0  0  0  0  0  0  0  0  0
   -1.9607   -1.2696    6.9313 C   0  0  0  0  0  0  0  0  0  0  0  0
   -1.2495   -0.1801    6.4450 O   0  0  0  0  0  0  0  0  0  0  0  0
   -1.8871    1.0190    6.1158 C   0  0  0  0  0  0  0  0  0  0  0  0
   -2.4079   -1.7280    4.2735 Cl  0  0  0  0  0  0  0  0  0  0  0  0
  1  2  1  0
  3  2  1  6
  3  4  1  0
  4  5  1  0
  5  6  1  0
  6  7  1  0
  7  8  1  6
  8  9  1  0
  9 10  1  0
 10 11  2  0
 10 12  1  0
 12 13  2  0
 13 14  1  0
 13 15  1  0
 15 16  1  0
 16 17  1  0
 15 18  2  0
 18 19  1  0
 19 20  2  0
 20 21  1  0
 21 22  1  0
 19 23  1  0
  7  3  1  0
 20 12  1  0
M  CHG  1   3   1
M  END
$$$$
