
     RDKit          3D

 23 24  0  0  0  0  0  0  0  0999 V2000
   -1.0524    5.3040   12.5930 C   0  0  0  0  0  0  0  0  0  0  0  0
   -1.6073    4.4985   11.4731 C   0  0  0  0  0  0  0  0  0  0  0  0
   -0.6603    3.9893   10.5266 N   0  0  2  0  0  4  0  0  0  0  0  0
   -0.0648    5.0678    9.7212 C   0  0  0  0  0  0  0  0  0  0  0  0
    0.0328    4.5734    8.3091 C   0  0  0  0  0  0  0  0  0  0  0  0
   -0.2085    3.0850    8.4451 C   0  0  0  0  0  0  0  0  0  0  0  0
   -1.2623    3.1348    9.5949 C   0  0  1  0  0  0  0  0  0  0  0  0
   -1.8090    1.8320    9.8451 C   0  0  0  0  0  0  0  0  0  0  0  0
   -2.2150    0.9223    8.8438 N   0  0  0  0  0  0  0  0  0  0  0  0
   -1.8767   -0.4405    8.7562 C   0  0  0  0  0  0  0  0  0  0  0  0
   -1.0102   -0.8344    9.6191 O   0  0  0  0  0  0  0  0  0  0  0  0
   -2.3835   -1.4297    7.8253 C   0  0  0  0  0  0  0  0  0  0  0  0
   -2.6275   -1.2818    6.4947 C   0  0  0  0  0  0  0  0  0  0  0  0
   -2.3716   -0.0648    5.8875 O   0  0  0  0  0  0  0  0  0  0  0  0
   -3.1241   -2.2647    5.6554 C   0  0  0  0  0  0  0  0  0  0  0  0
   -3.3597   -1.9960    4.1989 C   0  0  0  0  0  0  0  0  0  0  0  0
   -2.5888   -2.9822    3.3519 C   0  0  0  0  0  0  0  0  0  0  0  0
   -3.3969   -3.4967    6.2010 C   0  0  0  0  0  0  0  0  0  0  0  0
   -3.1716   -3.7116    7.5422 C   0  0  0  0  0  0  0  0  0  0  0  0
   -2.6729   -2.6977    8.3460 C   0  0  0  0  0  0  0  0  0  0  0  0
   -2.4793   -3.0117    9.6852 O   0  0  0  0  0  0  0  0  0  0  0  0
   -3.5083   -2.8797   10.6213 C   0  0  0  0  0  0  0  0  0  0  0  0
   -3.5286   -5.2909    8.2163 Cl  0  0  0  0  0  0  0  0  0  0  0  0
  1  2  1  0
  3  2  1  1
  3  4  1  0
  4  5  1  0
  5  6  1  0
  6  7  1  0
  7  8  1  1
  8  9  1  0
  9 10  1  0
 10 11  2  0
 10 12  1  0
 12 13  2  0
 13 14  1  0
 13 15  1  0
 15 16  1  0
 16 17  1  0
 15 18  2  0
 18 19  1  0
 19 20  2  0
 20 21  1  0
 21 22  1  0
 19 23  1  0
  7  3  1  0
 20 12  1  0
M  CHG  1   3   1
M  END
$$$$
