
     RDKit          3D

 23 24  0  0  0  0  0  0  0  0999 V2000
   -1.1622    2.9489   11.8433 C   0  0  0  0  0  0  0  0  0  0  0  0
   -0.5850    3.9862   10.9480 C   0  0  0  0  0  0  0  0  0  0  0  0
    0.2800    3.5172    9.9071 N   0  0  2  0  0  4  0  0  0  0  0  0
    1.2003    4.5712    9.4504 C   0  0  0  0  0  0  0  0  0  0  0  0
    1.2926    4.4720    7.9572 C   0  0  0  0  0  0  0  0  0  0  0  0
    0.6675    3.1256    7.6596 C   0  0  0  0  0  0  0  0  0  0  0  0
   -0.4358    3.1440    8.7629 C   0  0  1  0  0  0  0  0  0  0  0  0
   -1.3174    2.0205    8.6240 C   0  0  0  0  0  0  0  0  0  0  0  0
   -0.8976    0.6817    8.4624 N   0  0  0  0  0  0  0  0  0  0  0  0
   -1.5548   -0.4700    8.9326 C   0  0  0  0  0  0  0  0  0  0  0  0
   -1.6130   -0.5694   10.2122 O   0  0  0  0  0  0  0  0  0  0  0  0
   -2.1613   -1.5335    8.1560 C   0  0  0  0  0  0  0  0  0  0  0  0
   -1.8513   -2.8585    8.1625 C   0  0  0  0  0  0  0  0  0  0  0  0
   -0.8497   -3.3185    8.9992 O   0  0  0  0  0  0  0  0  0  0  0  0
   -2.4615   -3.8296    7.3868 C   0  0  0  0  0  0  0  0  0  0  0  0
   -2.0410   -5.2668    7.4689 C   0  0  0  0  0  0  0  0  0  0  0  0
   -3.0223   -6.0537    8.3068 C   0  0  0  0  0  0  0  0  0  0  0  0
   -3.4659   -3.4336    6.5356 C   0  0  0  0  0  0  0  0  0  0  0  0
   -3.8277   -2.1063    6.4817 C   0  0  0  0  0  0  0  0  0  0  0  0
   -3.1890   -1.1671    7.2772 C   0  0  0  0  0  0  0  0  0  0  0  0
   -3.6250    0.1458    7.1516 O   0  0  0  0  0  0  0  0  0  0  0  0
   -4.5323    0.7027    8.0569 C   0  0  0  0  0  0  0  0  0  0  0  0
   -5.1106   -1.6243    5.3872 Cl  0  0  0  0  0  0  0  0  0  0  0  0
  1  2  1  0
  3  2  1  1
  3  4  1  0
  4  5  1  0
  5  6  1  0
  6  7  1  0
  7  8  1  1
  8  9  1  0
  9 10  1  0
 10 11  2  0
 10 12  1  0
 12 13  2  0
 13 14  1  0
 13 15  1  0
 15 16  1  0
 16 17  1  0
 15 18  2  0
 18 19  1  0
 19 20  2  0
 20 21  1  0
 21 22  1  0
 19 23  1  0
  7  3  1  0
 20 12  1  0
M  CHG  1   3   1
M  END
$$$$
