
     RDKit          3D

 23 24  0  0  0  0  0  0  0  0999 V2000
    0.0226    3.2497   12.1281 C   0  0  0  0  0  0  0  0  0  0  0  0
   -0.8021    2.9372   10.9310 C   0  0  0  0  0  0  0  0  0  0  0  0
   -0.1476    3.0488    9.6618 N   0  0  2  0  0  4  0  0  0  0  0  0
    0.1290    4.4525    9.3157 C   0  0  0  0  0  0  0  0  0  0  0  0
   -0.1644    4.6219    7.8551 C   0  0  0  0  0  0  0  0  0  0  0  0
   -0.2768    3.1969    7.3562 C   0  0  0  0  0  0  0  0  0  0  0  0
   -0.9497    2.5721    8.6177 C   0  0  1  0  0  0  0  0  0  0  0  0
   -1.3300    1.2103    8.3736 C   0  0  0  0  0  0  0  0  0  0  0  0
   -1.4483    0.2156    9.3693 N   0  0  0  0  0  0  0  0  0  0  0  0
   -2.2384   -0.9470    9.3093 C   0  0  0  0  0  0  0  0  0  0  0  0
   -2.7572   -1.3012   10.4301 O   0  0  0  0  0  0  0  0  0  0  0  0
   -2.5288   -1.7722    8.1532 C   0  0  0  0  0  0  0  0  0  0  0  0
   -2.5173   -1.4116    6.8411 C   0  0  0  0  0  0  0  0  0  0  0  0
   -2.1848   -0.1136    6.4955 O   0  0  0  0  0  0  0  0  0  0  0  0
   -2.8155   -2.2455    5.7767 C   0  0  0  0  0  0  0  0  0  0  0  0
   -2.7752   -1.7454    4.3634 C   0  0  0  0  0  0  0  0  0  0  0  0
   -1.3684   -1.8285    3.8172 C   0  0  0  0  0  0  0  0  0  0  0  0
   -3.1524   -3.5485    6.0571 C   0  0  0  0  0  0  0  0  0  0  0  0
   -3.1823   -3.9768    7.3652 C   0  0  0  0  0  0  0  0  0  0  0  0
   -2.8761   -3.1067    8.4006 C   0  0  0  0  0  0  0  0  0  0  0  0
   -2.9339   -3.6325    9.6850 O   0  0  0  0  0  0  0  0  0  0  0  0
   -1.7734   -3.9386   10.4007 C   0  0  0  0  0  0  0  0  0  0  0  0
   -3.6164   -5.6431    7.6988 Cl  0  0  0  0  0  0  0  0  0  0  0  0
  1  2  1  0
  3  2  1  1
  3  4  1  0
  4  5  1  0
  5  6  1  0
  6  7  1  0
  7  8  1  6
  8  9  1  0
  9 10  1  0
 10 11  2  0
 10 12  1  0
 12 13  2  0
 13 14  1  0
 13 15  1  0
 15 16  1  0
 16 17  1  0
 15 18  2  0
 18 19  1  0
 19 20  2  0
 20 21  1  0
 21 22  1  0
 19 23  1  0
  7  3  1  0
 20 12  1  0
M  CHG  1   3   1
M  END
$$$$
