
     RDKit          3D

 23 24  0  0  0  0  0  0  0  0999 V2000
    1.0116    3.5159    6.5798 C   0  0  0  0  0  0  0  0  0  0  0  0
    1.0871    2.9753    7.9629 C   0  0  0  0  0  0  0  0  0  0  0  0
    0.0252    3.3474    8.8493 N   0  0  2  0  0  4  0  0  0  0  0  0
   -0.0459    4.8067    9.0281 C   0  0  0  0  0  0  0  0  0  0  0  0
   -0.3268    5.0693   10.4773 C   0  0  0  0  0  0  0  0  0  0  0  0
   -0.7422    3.7111   11.0018 C   0  0  0  0  0  0  0  0  0  0  0  0
    0.2187    2.8360   10.1384 C   0  0  1  0  0  0  0  0  0  0  0  0
    0.1572    1.4598   10.5396 C   0  0  0  0  0  0  0  0  0  0  0  0
   -0.3647    0.4122    9.7490 N   0  0  0  0  0  0  0  0  0  0  0  0
   -1.6992   -0.0319    9.7132 C   0  0  0  0  0  0  0  0  0  0  0  0
   -2.4720    0.5218   10.5774 O   0  0  0  0  0  0  0  0  0  0  0  0
   -2.2895   -1.0201    8.8317 C   0  0  0  0  0  0  0  0  0  0  0  0
   -1.8896   -2.3041    8.6238 C   0  0  0  0  0  0  0  0  0  0  0  0
   -0.7971   -2.7966    9.3157 O   0  0  0  0  0  0  0  0  0  0  0  0
   -2.4899   -3.2015    7.7569 C   0  0  0  0  0  0  0  0  0  0  0  0
   -1.9666   -4.5981    7.5999 C   0  0  0  0  0  0  0  0  0  0  0  0
   -3.0433   -5.5029    7.0464 C   0  0  0  0  0  0  0  0  0  0  0  0
   -3.5818   -2.7703    7.0416 C   0  0  0  0  0  0  0  0  0  0  0  0
   -4.0371   -1.4815    7.2065 C   0  0  0  0  0  0  0  0  0  0  0  0
   -3.4048   -0.6160    8.0863 C   0  0  0  0  0  0  0  0  0  0  0  0
   -3.9384    0.6628    8.1832 O   0  0  0  0  0  0  0  0  0  0  0  0
   -4.9776    0.9541    9.0709 C   0  0  0  0  0  0  0  0  0  0  0  0
   -5.4309   -0.9532    6.2820 Cl  0  0  0  0  0  0  0  0  0  0  0  0
  1  2  1  0
  3  2  1  6
  3  4  1  0
  4  5  1  0
  5  6  1  0
  6  7  1  0
  7  8  1  6
  8  9  1  0
  9 10  1  0
 10 11  2  0
 10 12  1  0
 12 13  2  0
 13 14  1  0
 13 15  1  0
 15 16  1  0
 16 17  1  0
 15 18  2  0
 18 19  1  0
 19 20  2  0
 20 21  1  0
 21 22  1  0
 19 23  1  0
  7  3  1  0
 20 12  1  0
M  CHG  1   3   1
M  END
$$$$
