
     RDKit          3D

 23 24  0  0  0  0  0  0  0  0999 V2000
    0.8688    2.2879   13.6008 C   0  0  0  0  0  0  0  0  0  0  0  0
    0.5925    2.1997   12.1425 C   0  0  0  0  0  0  0  0  0  0  0  0
   -0.2842    3.1945   11.6006 N   0  0  2  0  0  4  0  0  0  0  0  0
   -0.2880    4.4179   12.4189 C   0  0  0  0  0  0  0  0  0  0  0  0
   -1.7049    4.9018   12.4980 C   0  0  0  0  0  0  0  0  0  0  0  0
   -2.4059    4.1005   11.4216 C   0  0  0  0  0  0  0  0  0  0  0  0
   -1.6169    2.7648   11.5895 C   0  0  1  0  0  0  0  0  0  0  0  0
   -2.1836    1.7294   10.7737 C   0  0  0  0  0  0  0  0  0  0  0  0
   -1.4898    0.5814   10.3311 N   0  0  0  0  0  0  0  0  0  0  0  0
   -1.2366    0.2120    8.9974 C   0  0  0  0  0  0  0  0  0  0  0  0
   -0.2971    0.8765    8.4261 O   0  0  0  0  0  0  0  0  0  0  0  0
   -1.8988   -0.8107    8.2116 C   0  0  0  0  0  0  0  0  0  0  0  0
   -2.4415   -1.9811    8.6447 C   0  0  0  0  0  0  0  0  0  0  0  0
   -2.4010   -2.2919    9.9925 O   0  0  0  0  0  0  0  0  0  0  0  0
   -3.0542   -2.9277    7.8412 C   0  0  0  0  0  0  0  0  0  0  0  0
   -3.6197   -4.1899    8.4211 C   0  0  0  0  0  0  0  0  0  0  0  0
   -2.7794   -5.3778    8.0122 C   0  0  0  0  0  0  0  0  0  0  0  0
   -3.1263   -2.6745    6.4919 C   0  0  0  0  0  0  0  0  0  0  0  0
   -2.5960   -1.5073    5.9897 C   0  0  0  0  0  0  0  0  0  0  0  0
   -1.9909   -0.5866    6.8318 C   0  0  0  0  0  0  0  0  0  0  0  0
   -1.4867    0.5597    6.2310 O   0  0  0  0  0  0  0  0  0  0  0  0
   -0.1849    0.6057    5.7251 C   0  0  0  0  0  0  0  0  0  0  0  0
   -2.6982   -1.2066    4.2648 Cl  0  0  0  0  0  0  0  0  0  0  0  0
  1  2  1  0
  3  2  1  1
  3  4  1  0
  4  5  1  0
  5  6  1  0
  6  7  1  0
  7  8  1  6
  8  9  1  0
  9 10  1  0
 10 11  2  0
 10 12  1  0
 12 13  2  0
 13 14  1  0
 13 15  1  0
 15 16  1  0
 16 17  1  0
 15 18  2  0
 18 19  1  0
 19 20  2  0
 20 21  1  0
 21 22  1  0
 19 23  1  0
  7  3  1  0
 20 12  1  0
M  CHG  1   3   1
M  END
$$$$
