
     RDKit          3D

 23 24  0  0  0  0  0  0  0  0999 V2000
    0.8772    3.2931    6.3037 C   0  0  0  0  0  0  0  0  0  0  0  0
    0.7193    2.7684    7.6859 C   0  0  0  0  0  0  0  0  0  0  0  0
   -0.2624    3.4165    8.5032 N   0  0  2  0  0  4  0  0  0  0  0  0
    0.1065    4.8121    8.7905 C   0  0  0  0  0  0  0  0  0  0  0  0
   -0.2329    5.0808   10.2260 C   0  0  0  0  0  0  0  0  0  0  0  0
   -1.1054    3.9022   10.6028 C   0  0  0  0  0  0  0  0  0  0  0  0
   -0.3783    2.8090    9.7595 C   0  0  1  0  0  0  0  0  0  0  0  0
   -0.9091    1.5065   10.0432 C   0  0  0  0  0  0  0  0  0  0  0  0
   -1.3621    0.5907    9.0679 N   0  0  0  0  0  0  0  0  0  0  0  0
   -2.1847   -0.5303    9.2823 C   0  0  0  0  0  0  0  0  0  0  0  0
   -2.8070   -0.5316   10.4063 O   0  0  0  0  0  0  0  0  0  0  0  0
   -2.4064   -1.6588    8.3995 C   0  0  0  0  0  0  0  0  0  0  0  0
   -2.2788   -2.9835    8.6833 C   0  0  0  0  0  0  0  0  0  0  0  0
   -1.9047   -3.3731    9.9574 O   0  0  0  0  0  0  0  0  0  0  0  0
   -2.4949   -4.0201    7.7912 C   0  0  0  0  0  0  0  0  0  0  0  0
   -2.3236   -5.4509    8.2068 C   0  0  0  0  0  0  0  0  0  0  0  0
   -3.6361   -6.1915    8.0917 C   0  0  0  0  0  0  0  0  0  0  0  0
   -2.8703   -3.6957    6.5091 C   0  0  0  0  0  0  0  0  0  0  0  0
   -3.0173   -2.3726    6.1577 C   0  0  0  0  0  0  0  0  0  0  0  0
   -2.7903   -1.3662    7.0843 C   0  0  0  0  0  0  0  0  0  0  0  0
   -2.9648   -0.0636    6.6346 O   0  0  0  0  0  0  0  0  0  0  0  0
   -1.9038    0.6714    6.0992 C   0  0  0  0  0  0  0  0  0  0  0  0
   -3.4954   -1.9827    4.5158 Cl  0  0  0  0  0  0  0  0  0  0  0  0
  1  2  1  0
  3  2  1  6
  3  4  1  0
  4  5  1  0
  5  6  1  0
  6  7  1  0
  7  8  1  6
  8  9  1  0
  9 10  1  0
 10 11  2  0
 10 12  1  0
 12 13  2  0
 13 14  1  0
 13 15  1  0
 15 16  1  0
 16 17  1  0
 15 18  2  0
 18 19  1  0
 19 20  2  0
 20 21  1  0
 21 22  1  0
 19 23  1  0
  7  3  1  0
 20 12  1  0
M  CHG  1   3   1
M  END
$$$$
