
     RDKit          3D

 23 24  0  0  0  0  0  0  0  0999 V2000
    1.5080    5.4827    7.6459 C   0  0  0  0  0  0  0  0  0  0  0  0
    0.9951    4.1243    7.9658 C   0  0  0  0  0  0  0  0  0  0  0  0
   -0.0474    4.0533    8.9457 N   0  0  2  0  0  4  0  0  0  0  0  0
    0.4760    4.2386   10.3089 C   0  0  0  0  0  0  0  0  0  0  0  0
   -0.2327    3.2626   11.1994 C   0  0  0  0  0  0  0  0  0  0  0  0
   -1.3886    2.7885   10.3443 C   0  0  0  0  0  0  0  0  0  0  0  0
   -0.6611    2.7948    8.9639 C   0  0  1  0  0  0  0  0  0  0  0  0
   -1.4938    2.2253    7.9436 C   0  0  0  0  0  0  0  0  0  0  0  0
   -1.2988    0.9536    7.3607 N   0  0  0  0  0  0  0  0  0  0  0  0
   -1.5857   -0.2939    7.9446 C   0  0  0  0  0  0  0  0  0  0  0  0
   -1.4002   -0.3467    9.2148 O   0  0  0  0  0  0  0  0  0  0  0  0
   -2.0573   -1.4995    7.2920 C   0  0  0  0  0  0  0  0  0  0  0  0
   -1.8174   -1.9121    6.0176 C   0  0  0  0  0  0  0  0  0  0  0  0
   -1.0230   -1.1378    5.1903 O   0  0  0  0  0  0  0  0  0  0  0  0
   -2.3064   -3.0737    5.4443 C   0  0  0  0  0  0  0  0  0  0  0  0
   -1.9826   -3.4355    4.0254 C   0  0  0  0  0  0  0  0  0  0  0  0
   -3.2412   -3.4566    3.1888 C   0  0  0  0  0  0  0  0  0  0  0  0
   -3.1016   -3.8857    6.2179 C   0  0  0  0  0  0  0  0  0  0  0  0
   -3.3823   -3.5249    7.5166 C   0  0  0  0  0  0  0  0  0  0  0  0
   -2.8707   -2.3517    8.0502 C   0  0  0  0  0  0  0  0  0  0  0  0
   -3.2099   -2.0749    9.3684 O   0  0  0  0  0  0  0  0  0  0  0  0
   -4.2461   -1.1924    9.6850 C   0  0  0  0  0  0  0  0  0  0  0  0
   -4.4002   -4.5757    8.4840 Cl  0  0  0  0  0  0  0  0  0  0  0  0
  1  2  1  0
  3  2  1  6
  3  4  1  0
  4  5  1  0
  5  6  1  0
  6  7  1  0
  7  8  1  6
  8  9  1  0
  9 10  1  0
 10 11  2  0
 10 12  1  0
 12 13  2  0
 13 14  1  0
 13 15  1  0
 15 16  1  0
 16 17  1  0
 15 18  2  0
 18 19  1  0
 19 20  2  0
 20 21  1  0
 21 22  1  0
 19 23  1  0
  7  3  1  0
 20 12  1  0
M  CHG  1   3   1
M  END
$$$$
