
     RDKit          3D

 23 24  0  0  0  0  0  0  0  0999 V2000
    1.8562    3.6917    6.0151 C   0  0  0  0  0  0  0  0  0  0  0  0
    1.3222    3.1057    7.2730 C   0  0  0  0  0  0  0  0  0  0  0  0
    0.1138    3.6837    7.7803 N   0  0  2  0  0  4  0  0  0  0  0  0
    0.3902    4.8048    8.6930 C   0  0  0  0  0  0  0  0  0  0  0  0
   -0.5700    4.6986    9.8397 C   0  0  0  0  0  0  0  0  0  0  0  0
   -1.5893    3.6934    9.3469 C   0  0  0  0  0  0  0  0  0  0  0  0
   -0.6205    2.7693    8.5455 C   0  0  1  0  0  0  0  0  0  0  0  0
   -1.3032    1.5992    8.0725 C   0  0  0  0  0  0  0  0  0  0  0  0
   -1.3673    0.3690    8.7633 N   0  0  0  0  0  0  0  0  0  0  0  0
   -1.1342   -0.9111    8.2281 C   0  0  0  0  0  0  0  0  0  0  0  0
    0.1017   -1.2602    8.1919 O   0  0  0  0  0  0  0  0  0  0  0  0
   -2.1071   -1.8608    7.7248 C   0  0  0  0  0  0  0  0  0  0  0  0
   -2.5127   -2.0443    6.4389 C   0  0  0  0  0  0  0  0  0  0  0  0
   -1.9602   -1.2693    5.4343 O   0  0  0  0  0  0  0  0  0  0  0  0
   -3.4582   -2.9645    6.0188 C   0  0  0  0  0  0  0  0  0  0  0  0
   -3.8361   -3.0846    4.5725 C   0  0  0  0  0  0  0  0  0  0  0  0
   -2.8264   -3.9336    3.8349 C   0  0  0  0  0  0  0  0  0  0  0  0
   -4.0423   -3.7650    6.9717 C   0  0  0  0  0  0  0  0  0  0  0  0
   -3.6754   -3.6293    8.2918 C   0  0  0  0  0  0  0  0  0  0  0  0
   -2.7233   -2.6938    8.6678 C   0  0  0  0  0  0  0  0  0  0  0  0
   -2.4204   -2.6328   10.0220 O   0  0  0  0  0  0  0  0  0  0  0  0
   -3.1944   -1.8802   10.9093 C   0  0  0  0  0  0  0  0  0  0  0  0
   -4.4353   -4.6603    9.4900 Cl  0  0  0  0  0  0  0  0  0  0  0  0
  1  2  1  0
  3  2  1  1
  3  4  1  0
  4  5  1  0
  5  6  1  0
  6  7  1  0
  7  8  1  6
  8  9  1  0
  9 10  1  0
 10 11  2  0
 10 12  1  0
 12 13  2  0
 13 14  1  0
 13 15  1  0
 15 16  1  0
 16 17  1  0
 15 18  2  0
 18 19  1  0
 19 20  2  0
 20 21  1  0
 21 22  1  0
 19 23  1  0
  7  3  1  0
 20 12  1  0
M  CHG  1   3   1
M  END
$$$$
