
     RDKit          3D

 23 24  0  0  0  0  0  0  0  0999 V2000
   -1.9346    4.9752    8.9857 C   0  0  0  0  0  0  0  0  0  0  0  0
   -0.9513    4.0595    9.6225 C   0  0  0  0  0  0  0  0  0  0  0  0
   -1.0445    3.9169   11.0448 N   0  0  2  0  0  4  0  0  0  0  0  0
   -0.4313    5.0567   11.7456 C   0  0  0  0  0  0  0  0  0  0  0  0
    0.3209    4.5099   12.9217 C   0  0  0  0  0  0  0  0  0  0  0  0
   -0.1869    3.0875   13.0275 C   0  0  0  0  0  0  0  0  0  0  0  0
   -0.3448    2.7939   11.5031 C   0  0  1  0  0  0  0  0  0  0  0  0
   -0.6797    1.4169   11.2790 C   0  0  0  0  0  0  0  0  0  0  0  0
   -1.1903    0.8983   10.0684 N   0  0  0  0  0  0  0  0  0  0  0  0
   -1.4626   -0.4512    9.7782 C   0  0  0  0  0  0  0  0  0  0  0  0
   -1.1978   -1.2689   10.7331 O   0  0  0  0  0  0  0  0  0  0  0  0
   -1.9968   -1.0122    8.5528 C   0  0  0  0  0  0  0  0  0  0  0  0
   -2.5775   -2.2294    8.3709 C   0  0  0  0  0  0  0  0  0  0  0  0
   -2.7175   -3.0842    9.4501 O   0  0  0  0  0  0  0  0  0  0  0  0
   -3.0614   -2.7164    7.1684 C   0  0  0  0  0  0  0  0  0  0  0  0
   -3.6833   -4.0779    7.0759 C   0  0  0  0  0  0  0  0  0  0  0  0
   -2.6407   -5.1071    6.7044 C   0  0  0  0  0  0  0  0  0  0  0  0
   -2.9516   -1.9116    6.0593 C   0  0  0  0  0  0  0  0  0  0  0  0
   -2.3738   -0.6674    6.1764 C   0  0  0  0  0  0  0  0  0  0  0  0
   -1.9024   -0.2198    7.4013 C   0  0  0  0  0  0  0  0  0  0  0  0
   -1.3366    1.0486    7.4178 O   0  0  0  0  0  0  0  0  0  0  0  0
   -0.0054    1.2583    7.0479 C   0  0  0  0  0  0  0  0  0  0  0  0
   -2.2431    0.3411    4.7474 Cl  0  0  0  0  0  0  0  0  0  0  0  0
  1  2  1  0
  3  2  1  6
  3  4  1  0
  4  5  1  0
  5  6  1  0
  6  7  1  0
  7  8  1  1
  8  9  1  0
  9 10  1  0
 10 11  2  0
 10 12  1  0
 12 13  2  0
 13 14  1  0
 13 15  1  0
 15 16  1  0
 16 17  1  0
 15 18  2  0
 18 19  1  0
 19 20  2  0
 20 21  1  0
 21 22  1  0
 19 23  1  0
  7  3  1  0
 20 12  1  0
M  CHG  1   3   1
M  END
$$$$
