
     RDKit          3D

 23 24  0  0  0  0  0  0  0  0999 V2000
    1.0763    4.2588    7.5437 C   0  0  0  0  0  0  0  0  0  0  0  0
    1.5185    3.8409    8.9004 C   0  0  0  0  0  0  0  0  0  0  0  0
    0.4942    3.7256    9.8951 N   0  0  2  0  0  4  0  0  0  0  0  0
    0.9352    4.2626   11.1926 C   0  0  0  0  0  0  0  0  0  0  0  0
    0.4331    3.3344   12.2577 C   0  0  0  0  0  0  0  0  0  0  0  0
   -0.5748    2.4761   11.5231 C   0  0  0  0  0  0  0  0  0  0  0  0
    0.1648    2.3891   10.1519 C   0  0  1  0  0  0  0  0  0  0  0  0
   -0.5034    1.4789    9.2666 C   0  0  0  0  0  0  0  0  0  0  0  0
   -1.6634    0.7423    9.5932 N   0  0  0  0  0  0  0  0  0  0  0  0
   -1.7932   -0.6585    9.6169 C   0  0  0  0  0  0  0  0  0  0  0  0
   -1.3146   -1.2236   10.6667 O   0  0  0  0  0  0  0  0  0  0  0  0
   -2.3927   -1.5181    8.6151 C   0  0  0  0  0  0  0  0  0  0  0  0
   -2.6631   -2.8488    8.7049 C   0  0  0  0  0  0  0  0  0  0  0  0
   -2.3644   -3.5260    9.8741 O   0  0  0  0  0  0  0  0  0  0  0  0
   -3.2296   -3.6221    7.7058 C   0  0  0  0  0  0  0  0  0  0  0  0
   -3.4845   -5.0862    7.9073 C   0  0  0  0  0  0  0  0  0  0  0  0
   -3.4181   -5.8171    6.5861 C   0  0  0  0  0  0  0  0  0  0  0  0
   -3.5498   -3.0046    6.5200 C   0  0  0  0  0  0  0  0  0  0  0  0
   -3.3017   -1.6592    6.3652 C   0  0  0  0  0  0  0  0  0  0  0  0
   -2.7324   -0.9229    7.3932 C   0  0  0  0  0  0  0  0  0  0  0  0
   -2.5215    0.4267    7.1412 O   0  0  0  0  0  0  0  0  0  0  0  0
   -3.5247    1.3748    7.3591 C   0  0  0  0  0  0  0  0  0  0  0  0
   -3.7171   -0.8933    4.8430 Cl  0  0  0  0  0  0  0  0  0  0  0  0
  1  2  1  0
  3  2  1  6
  3  4  1  0
  4  5  1  0
  5  6  1  0
  6  7  1  0
  7  8  1  6
  8  9  1  0
  9 10  1  0
 10 11  2  0
 10 12  1  0
 12 13  2  0
 13 14  1  0
 13 15  1  0
 15 16  1  0
 16 17  1  0
 15 18  2  0
 18 19  1  0
 19 20  2  0
 20 21  1  0
 21 22  1  0
 19 23  1  0
  7  3  1  0
 20 12  1  0
M  CHG  1   3   1
M  END
$$$$
