
     RDKit          3D

 23 24  0  0  0  0  0  0  0  0999 V2000
   -0.2518    4.3520    7.7804 C   0  0  0  0  0  0  0  0  0  0  0  0
   -0.0857    3.2018    8.7079 C   0  0  0  0  0  0  0  0  0  0  0  0
   -0.2512    3.4815   10.1030 N   0  0  2  0  0  4  0  0  0  0  0  0
    0.7431    4.4550   10.5827 C   0  0  0  0  0  0  0  0  0  0  0  0
    1.2048    3.9977   11.9339 C   0  0  0  0  0  0  0  0  0  0  0  0
    0.1846    2.9446   12.3112 C   0  0  0  0  0  0  0  0  0  0  0  0
   -0.0483    2.3419   10.8909 C   0  0  1  0  0  0  0  0  0  0  0  0
   -0.8860    1.1790   10.9593 C   0  0  0  0  0  0  0  0  0  0  0  0
   -1.1720    0.3264    9.8702 N   0  0  0  0  0  0  0  0  0  0  0  0
   -2.3736   -0.3668    9.6356 C   0  0  0  0  0  0  0  0  0  0  0  0
   -3.3724    0.0401   10.3337 O   0  0  0  0  0  0  0  0  0  0  0  0
   -2.6090   -1.4626    8.7159 C   0  0  0  0  0  0  0  0  0  0  0  0
   -2.8482   -2.7692    9.0117 C   0  0  0  0  0  0  0  0  0  0  0  0
   -2.8975   -3.1688   10.3356 O   0  0  0  0  0  0  0  0  0  0  0  0
   -3.0559   -3.7770    8.0852 C   0  0  0  0  0  0  0  0  0  0  0  0
   -3.3098   -5.1900    8.5187 C   0  0  0  0  0  0  0  0  0  0  0  0
   -2.0074   -5.9502    8.6195 C   0  0  0  0  0  0  0  0  0  0  0  0
   -3.0200   -3.4411    6.7526 C   0  0  0  0  0  0  0  0  0  0  0  0
   -2.7827   -2.1352    6.3866 C   0  0  0  0  0  0  0  0  0  0  0  0
   -2.5799   -1.1575    7.3489 C   0  0  0  0  0  0  0  0  0  0  0  0
   -2.3485    0.1295    6.8806 O   0  0  0  0  0  0  0  0  0  0  0  0
   -3.3728    1.0780    6.8179 C   0  0  0  0  0  0  0  0  0  0  0  0
   -2.7398   -1.7306    4.6805 Cl  0  0  0  0  0  0  0  0  0  0  0  0
  1  2  1  0
  3  2  1  6
  3  4  1  0
  4  5  1  0
  5  6  1  0
  6  7  1  0
  7  8  1  1
  8  9  1  0
  9 10  1  0
 10 11  2  0
 10 12  1  0
 12 13  2  0
 13 14  1  0
 13 15  1  0
 15 16  1  0
 16 17  1  0
 15 18  2  0
 18 19  1  0
 19 20  2  0
 20 21  1  0
 21 22  1  0
 19 23  1  0
  7  3  1  0
 20 12  1  0
M  CHG  1   3   1
M  END
$$$$
