
     RDKit          3D

 22 24  0  0  0  0  0  0  0  0999 V2000
    0.5031    0.8249    6.7932 O   0  0  0  0  0  0  0  0  0  0  0  0
   -0.4431    1.7343    7.1425 C   0  0  2  0  0  0  0  0  0  0  0  0
   -0.3870    3.0783    6.5001 C   0  0  0  0  0  0  0  0  0  0  0  0
   -1.5104    3.8121    6.3692 O   0  0  0  0  0  0  0  0  0  0  0  0
   -1.9969    4.8685    5.7159 C   0  0  0  0  0  0  0  0  0  0  0  0
   -1.7045    5.2419    4.4289 C   0  0  0  0  0  0  0  0  0  0  0  0
   -2.2647    6.3527    3.8465 C   0  0  0  0  0  0  0  0  0  0  0  0
   -3.1492    7.1381    4.5411 C   0  0  0  0  0  0  0  0  0  0  0  0
   -3.4712    6.8019    5.8311 C   0  0  0  0  0  0  0  0  0  0  0  0
   -2.9047    5.6946    6.3943 C   0  0  0  0  0  0  0  0  0  0  0  0
   -3.4042    5.5984    7.6859 C   0  0  0  0  0  0  0  0  0  0  0  0
   -3.1950    4.6972    8.7148 C   0  0  0  0  0  0  0  0  0  0  0  0
   -3.8659    4.9002    9.8956 C   0  0  0  0  0  0  0  0  0  0  0  0
   -4.7219    5.9662   10.0567 C   0  0  0  0  0  0  0  0  0  0  0  0
   -4.9356    6.8679    9.0375 C   0  0  0  0  0  0  0  0  0  0  0  0
   -4.2588    6.6655    7.8422 C   0  0  0  0  0  0  0  0  0  0  0  0
   -4.2988    7.3952    6.7158 N   0  0  0  0  0  0  0  0  0  0  0  0
   -0.4317    1.8529    8.6786 C   0  0  0  0  0  0  0  0  0  0  0  0
    0.2401    0.6677    9.1647 N   0  0  0  0  0  4  0  0  0  0  0  0
    0.5315    0.7037   10.5602 C   0  0  0  0  0  0  0  0  0  0  0  0
   -0.6213   -0.0162   11.2731 C   0  0  0  0  0  0  0  0  0  0  0  0
    1.8120   -0.0602   10.8233 C   0  0  0  0  0  0  0  0  0  0  0  0
  2  1  1  6
  2  3  1  0
  3  4  1  0
  4  5  1  0
  5  6  2  0
  6  7  1  0
  7  8  2  0
  8  9  1  0
  9 10  2  0
 10 11  1  0
 11 12  2  0
 12 13  1  0
 13 14  2  0
 14 15  1  0
 15 16  2  0
 16 17  1  0
  2 18  1  0
 18 19  1  0
 19 20  1  0
 20 21  1  0
 20 22  1  0
 10  5  1  0
 16 11  1  0
 17  9  1  0
M  CHG  1  19   1
M  END
$$$$
