
     RDKit          3D

 22 24  0  0  0  0  0  0  0  0999 V2000
    0.2193    0.3695    6.2248 O   0  0  0  0  0  0  0  0  0  0  0  0
   -0.6119    1.3700    6.6154 C   0  0  2  0  0  0  0  0  0  0  0  0
   -0.9443    2.4273    5.6186 C   0  0  0  0  0  0  0  0  0  0  0  0
   -1.6812    3.4948    5.9861 O   0  0  0  0  0  0  0  0  0  0  0  0
   -2.1694    4.6405    5.5081 C   0  0  0  0  0  0  0  0  0  0  0  0
   -1.9163    5.1886    4.2766 C   0  0  0  0  0  0  0  0  0  0  0  0
   -2.4746    6.3791    3.8793 C   0  0  0  0  0  0  0  0  0  0  0  0
   -3.3172    7.0710    4.7118 C   0  0  0  0  0  0  0  0  0  0  0  0
   -3.5991    6.5597    5.9527 C   0  0  0  0  0  0  0  0  0  0  0  0
   -3.0351    5.3753    6.3312 C   0  0  0  0  0  0  0  0  0  0  0  0
   -3.4894    5.1040    7.6146 C   0  0  0  0  0  0  0  0  0  0  0  0
   -3.2614    4.0626    8.4967 C   0  0  0  0  0  0  0  0  0  0  0  0
   -3.8848    4.1057    9.7195 C   0  0  0  0  0  0  0  0  0  0  0  0
   -4.7125    5.1507   10.0628 C   0  0  0  0  0  0  0  0  0  0  0  0
   -4.9447    6.1912    9.1904 C   0  0  0  0  0  0  0  0  0  0  0  0
   -4.3159    6.1506    7.9533 C   0  0  0  0  0  0  0  0  0  0  0  0
   -4.3818    7.0336    6.9439 N   0  0  0  0  0  0  0  0  0  0  0  0
   -0.0295    1.9847    7.9026 C   0  0  0  0  0  0  0  0  0  0  0  0
    0.4431    0.8720    8.6969 N   0  0  0  0  0  4  0  0  0  0  0  0
    0.9048    1.2463    9.9932 C   0  0  0  0  0  0  0  0  0  0  0  0
    0.3734    0.1932   10.9750 C   0  0  0  0  0  0  0  0  0  0  0  0
    2.4183    1.2053   10.0158 C   0  0  0  0  0  0  0  0  0  0  0  0
  2  1  1  6
  2  3  1  0
  3  4  1  0
  4  5  1  0
  5  6  2  0
  6  7  1  0
  7  8  2  0
  8  9  1  0
  9 10  2  0
 10 11  1  0
 11 12  2  0
 12 13  1  0
 13 14  2  0
 14 15  1  0
 15 16  2  0
 16 17  1  0
  2 18  1  0
 18 19  1  0
 19 20  1  0
 20 21  1  0
 20 22  1  0
 10  5  1  0
 16 11  1  0
 17  9  1  0
M  CHG  1  19   1
M  END
$$$$
