
     RDKit          3D

 22 24  0  0  0  0  0  0  0  0999 V2000
    1.0233    1.2158    6.1515 O   0  0  0  0  0  0  0  0  0  0  0  0
   -0.2207    1.2151    6.6963 C   0  0  2  0  0  0  0  0  0  0  0  0
   -1.2772    2.0196    6.0191 C   0  0  0  0  0  0  0  0  0  0  0  0
   -1.3525    3.3492    6.2288 O   0  0  0  0  0  0  0  0  0  0  0  0
   -1.7956    4.4720    5.6609 C   0  0  0  0  0  0  0  0  0  0  0  0
   -1.5087    4.9192    4.3965 C   0  0  0  0  0  0  0  0  0  0  0  0
   -2.0212    6.0950    3.9047 C   0  0  0  0  0  0  0  0  0  0  0  0
   -2.8501    6.8737    4.6716 C   0  0  0  0  0  0  0  0  0  0  0  0
   -3.1647    6.4649    5.9423 C   0  0  0  0  0  0  0  0  0  0  0  0
   -2.6460    5.2937    6.4150 C   0  0  0  0  0  0  0  0  0  0  0  0
   -3.1252    5.1329    7.7079 C   0  0  0  0  0  0  0  0  0  0  0  0
   -2.9438    4.1524    8.6672 C   0  0  0  0  0  0  0  0  0  0  0  0
   -3.5805    4.3062    9.8741 C   0  0  0  0  0  0  0  0  0  0  0  0
   -4.3766    5.4003   10.1275 C   0  0  0  0  0  0  0  0  0  0  0  0
   -4.5624    6.3807    9.1778 C   0  0  0  0  0  0  0  0  0  0  0  0
   -3.9199    6.2283    7.9565 C   0  0  0  0  0  0  0  0  0  0  0  0
   -3.9432    7.0362    6.8842 N   0  0  0  0  0  0  0  0  0  0  0  0
   -0.0818    1.6165    8.1773 C   0  0  0  0  0  0  0  0  0  0  0  0
    0.5032    0.4752    8.8463 N   0  0  0  0  0  4  0  0  0  0  0  0
    0.5820    0.6175   10.2630 C   0  0  0  0  0  0  0  0  0  0  0  0
    0.7155   -0.7965   10.8444 C   0  0  0  0  0  0  0  0  0  0  0  0
    1.8266    1.4034   10.6179 C   0  0  0  0  0  0  0  0  0  0  0  0
  2  1  1  6
  2  3  1  0
  3  4  1  0
  4  5  1  0
  5  6  2  0
  6  7  1  0
  7  8  2  0
  8  9  1  0
  9 10  2  0
 10 11  1  0
 11 12  2  0
 12 13  1  0
 13 14  2  0
 14 15  1  0
 15 16  2  0
 16 17  1  0
  2 18  1  0
 18 19  1  0
 19 20  1  0
 20 21  1  0
 20 22  1  0
 10  5  1  0
 16 11  1  0
 17  9  1  0
M  CHG  1  19   1
M  END
$$$$
