
     RDKit          3D

 22 24  0  0  0  0  0  0  0  0999 V2000
   -1.4790    1.4196    9.0295 O   0  0  0  0  0  0  0  0  0  0  0  0
   -0.2409    1.9453    8.8419 C   0  0  2  0  0  0  0  0  0  0  0  0
   -0.1482    3.3312    8.3009 C   0  0  0  0  0  0  0  0  0  0  0  0
   -1.2382    3.9260    7.7759 O   0  0  0  0  0  0  0  0  0  0  0  0
   -1.6100    4.7306    6.7790 C   0  0  0  0  0  0  0  0  0  0  0  0
   -1.1079    4.7397    5.5026 C   0  0  0  0  0  0  0  0  0  0  0  0
   -1.5641    5.6128    4.5454 C   0  0  0  0  0  0  0  0  0  0  0  0
   -2.5524    6.5186    4.8363 C   0  0  0  0  0  0  0  0  0  0  0  0
   -3.0843    6.5446    6.1001 C   0  0  0  0  0  0  0  0  0  0  0  0
   -2.6186    5.6697    7.0392 C   0  0  0  0  0  0  0  0  0  0  0  0
   -3.3259    5.9176    8.2076 C   0  0  0  0  0  0  0  0  0  0  0  0
   -3.2901    5.3542    9.4709 C   0  0  0  0  0  0  0  0  0  0  0  0
   -4.1482    5.8493   10.4218 C   0  0  0  0  0  0  0  0  0  0  0  0
   -5.0197    6.8749   10.1329 C   0  0  0  0  0  0  0  0  0  0  0  0
   -5.0616    7.4412    8.8778 C   0  0  0  0  0  0  0  0  0  0  0  0
   -4.1953    6.9429    7.9141 C   0  0  0  0  0  0  0  0  0  0  0  0
   -4.0479    7.3227    6.6346 N   0  0  0  0  0  0  0  0  0  0  0  0
    0.5593    0.9560    7.9731 C   0  0  0  0  0  0  0  0  0  0  0  0
    1.3406    0.1593    8.8934 N   0  0  0  0  0  4  0  0  0  0  0  0
    2.2647   -0.7179    8.2530 C   0  0  0  0  0  0  0  0  0  0  0  0
    3.3510   -1.0490    9.2853 C   0  0  0  0  0  0  0  0  0  0  0  0
    1.5552   -2.0003    7.8727 C   0  0  0  0  0  0  0  0  0  0  0  0
  2  1  1  6
  2  3  1  0
  3  4  1  0
  4  5  1  0
  5  6  2  0
  6  7  1  0
  7  8  2  0
  8  9  1  0
  9 10  2  0
 10 11  1  0
 11 12  2  0
 12 13  1  0
 13 14  2  0
 14 15  1  0
 15 16  2  0
 16 17  1  0
  2 18  1  0
 18 19  1  0
 19 20  1  0
 20 21  1  0
 20 22  1  0
 10  5  1  0
 16 11  1  0
 17  9  1  0
M  CHG  1  19   1
M  END
$$$$
