
     RDKit          3D

 22 24  0  0  0  0  0  0  0  0999 V2000
    0.5817    0.7495    6.3127 O   0  0  0  0  0  0  0  0  0  0  0  0
   -0.3020    1.6968    6.7202 C   0  0  2  0  0  0  0  0  0  0  0  0
   -0.3398    2.9828    5.9673 C   0  0  0  0  0  0  0  0  0  0  0  0
   -1.4415    3.7586    6.0098 O   0  0  0  0  0  0  0  0  0  0  0  0
   -1.9503    4.8782    5.4930 C   0  0  0  0  0  0  0  0  0  0  0  0
   -1.7297    5.3732    4.2331 C   0  0  0  0  0  0  0  0  0  0  0  0
   -2.3069    6.5406    3.7965 C   0  0  0  0  0  0  0  0  0  0  0  0
   -3.1366    7.2622    4.6167 C   0  0  0  0  0  0  0  0  0  0  0  0
   -3.3861    6.8043    5.8851 C   0  0  0  0  0  0  0  0  0  0  0  0
   -2.8036    5.6421    6.3025 C   0  0  0  0  0  0  0  0  0  0  0  0
   -3.2265    5.4244    7.6066 C   0  0  0  0  0  0  0  0  0  0  0  0
   -2.9698    4.4250    8.5284 C   0  0  0  0  0  0  0  0  0  0  0  0
   -3.5659    4.5174    9.7619 C   0  0  0  0  0  0  0  0  0  0  0  0
   -4.3948    5.5702   10.0777 C   0  0  0  0  0  0  0  0  0  0  0  0
   -4.6555    6.5693    9.1657 C   0  0  0  0  0  0  0  0  0  0  0  0
   -4.0543    6.4787    7.9176 C   0  0  0  0  0  0  0  0  0  0  0  0
   -4.1505    7.3156    6.8719 N   0  0  0  0  0  0  0  0  0  0  0  0
   -0.0646    1.9407    8.2229 C   0  0  0  0  0  0  0  0  0  0  0  0
    0.7173    0.8171    8.6902 N   0  0  0  0  0  4  0  0  0  0  0  0
    0.8361    0.7501   10.1097 C   0  0  0  0  0  0  0  0  0  0  0  0
    1.3644   -0.6511   10.4454 C   0  0  0  0  0  0  0  0  0  0  0  0
    1.8522    1.7718   10.5750 C   0  0  0  0  0  0  0  0  0  0  0  0
  2  1  1  6
  2  3  1  0
  3  4  1  0
  4  5  1  0
  5  6  2  0
  6  7  1  0
  7  8  2  0
  8  9  1  0
  9 10  2  0
 10 11  1  0
 11 12  2  0
 12 13  1  0
 13 14  2  0
 14 15  1  0
 15 16  2  0
 16 17  1  0
  2 18  1  0
 18 19  1  0
 19 20  1  0
 20 21  1  0
 20 22  1  0
 10  5  1  0
 16 11  1  0
 17  9  1  0
M  CHG  1  19   1
M  END
$$$$
