
     RDKit          3D

 22 24  0  0  0  0  0  0  0  0999 V2000
    0.9494    3.2135    8.8370 O   0  0  0  0  0  0  0  0  0  0  0  0
    0.4986    2.2055    8.0463 C   0  0  2  0  0  0  0  0  0  0  0  0
   -0.2262    2.5728    6.7965 C   0  0  0  0  0  0  0  0  0  0  0  0
   -1.2035    3.5009    6.8300 O   0  0  0  0  0  0  0  0  0  0  0  0
   -1.7459    4.4725    6.0944 C   0  0  0  0  0  0  0  0  0  0  0  0
   -1.5007    4.7316    4.7700 C   0  0  0  0  0  0  0  0  0  0  0  0
   -2.1170    5.7615    4.1019 C   0  0  0  0  0  0  0  0  0  0  0  0
   -3.0125    6.5779    4.7446 C   0  0  0  0  0  0  0  0  0  0  0  0
   -3.2887    6.3551    6.0693 C   0  0  0  0  0  0  0  0  0  0  0  0
   -2.6667    5.3271    6.7178 C   0  0  0  0  0  0  0  0  0  0  0  0
   -3.1292    5.3370    8.0266 C   0  0  0  0  0  0  0  0  0  0  0  0
   -2.8600    4.5458    9.1294 C   0  0  0  0  0  0  0  0  0  0  0  0
   -3.5078    4.8367   10.3047 C   0  0  0  0  0  0  0  0  0  0  0  0
   -4.3990    5.8825   10.3893 C   0  0  0  0  0  0  0  0  0  0  0  0
   -4.6725    6.6749    9.2961 C   0  0  0  0  0  0  0  0  0  0  0  0
   -4.0192    6.3834    8.1062 C   0  0  0  0  0  0  0  0  0  0  0  0
   -4.1153    7.0006    6.9177 N   0  0  0  0  0  0  0  0  0  0  0  0
   -0.3511    1.2676    8.9250 C   0  0  0  0  0  0  0  0  0  0  0  0
    0.5885    0.4343    9.6426 N   0  0  0  0  0  4  0  0  0  0  0  0
   -0.0303   -0.5444   10.4750 C   0  0  0  0  0  0  0  0  0  0  0  0
    0.0678   -1.8842    9.7331 C   0  0  0  0  0  0  0  0  0  0  0  0
    0.7404   -0.6557   11.7735 C   0  0  0  0  0  0  0  0  0  0  0  0
  2  1  1  1
  2  3  1  0
  3  4  1  0
  4  5  1  0
  5  6  2  0
  6  7  1  0
  7  8  2  0
  8  9  1  0
  9 10  2  0
 10 11  1  0
 11 12  2  0
 12 13  1  0
 13 14  2  0
 14 15  1  0
 15 16  2  0
 16 17  1  0
  2 18  1  0
 18 19  1  0
 19 20  1  0
 20 21  1  0
 20 22  1  0
 10  5  1  0
 16 11  1  0
 17  9  1  0
M  CHG  1  19   1
M  END
$$$$
