
     RDKit          3D

 22 24  0  0  0  0  0  0  0  0999 V2000
    0.9188    0.6698    6.7208 O   0  0  0  0  0  0  0  0  0  0  0  0
   -0.0501    1.5708    7.0271 C   0  0  2  0  0  0  0  0  0  0  0  0
   -0.1180    2.8212    6.2184 C   0  0  0  0  0  0  0  0  0  0  0  0
   -1.1935    3.6288    6.3119 O   0  0  0  0  0  0  0  0  0  0  0  0
   -1.7405    4.7079    5.7498 C   0  0  0  0  0  0  0  0  0  0  0  0
   -1.5119    5.1758    4.4810 C   0  0  0  0  0  0  0  0  0  0  0  0
   -2.1315    6.3017    3.9960 C   0  0  0  0  0  0  0  0  0  0  0  0
   -3.0137    7.0071    4.7744 C   0  0  0  0  0  0  0  0  0  0  0  0
   -3.2731    6.5750    6.0499 C   0  0  0  0  0  0  0  0  0  0  0  0
   -2.6480    5.4541    6.5157 C   0  0  0  0  0  0  0  0  0  0  0  0
   -3.0926    5.2548    7.8155 C   0  0  0  0  0  0  0  0  0  0  0  0
   -2.8128    4.2956    8.7728 C   0  0  0  0  0  0  0  0  0  0  0  0
   -3.4430    4.3958    9.9887 C   0  0  0  0  0  0  0  0  0  0  0  0
   -4.3272    5.4172   10.2531 C   0  0  0  0  0  0  0  0  0  0  0  0
   -4.6111    6.3760    9.3056 C   0  0  0  0  0  0  0  0  0  0  0  0
   -3.9757    6.2776    8.0751 C   0  0  0  0  0  0  0  0  0  0  0  0
   -4.0845    7.0783    7.0027 N   0  0  0  0  0  0  0  0  0  0  0  0
    0.0662    1.8882    8.5303 C   0  0  0  0  0  0  0  0  0  0  0  0
    0.8873    0.8404    9.0963 N   0  0  0  0  0  4  0  0  0  0  0  0
    1.0531    0.9400   10.5091 C   0  0  0  0  0  0  0  0  0  0  0  0
    1.1036   -0.4945   11.0524 C   0  0  0  0  0  0  0  0  0  0  0  0
    2.3740    1.6158   10.8110 C   0  0  0  0  0  0  0  0  0  0  0  0
  2  1  1  6
  2  3  1  0
  3  4  1  0
  4  5  1  0
  5  6  2  0
  6  7  1  0
  7  8  2  0
  8  9  1  0
  9 10  2  0
 10 11  1  0
 11 12  2  0
 12 13  1  0
 13 14  2  0
 14 15  1  0
 15 16  2  0
 16 17  1  0
  2 18  1  0
 18 19  1  0
 19 20  1  0
 20 21  1  0
 20 22  1  0
 10  5  1  0
 16 11  1  0
 17  9  1  0
M  CHG  1  19   1
M  END
$$$$
