
     RDKit          3D

 22 24  0  0  0  0  0  0  0  0999 V2000
    0.3594    0.4388    6.2247 O   0  0  0  0  0  0  0  0  0  0  0  0
   -0.3992    1.4792    6.6566 C   0  0  2  0  0  0  0  0  0  0  0  0
   -0.5872    2.6338    5.7327 C   0  0  0  0  0  0  0  0  0  0  0  0
   -1.5165    3.5720    6.0040 O   0  0  0  0  0  0  0  0  0  0  0  0
   -2.0512    4.6870    5.5035 C   0  0  0  0  0  0  0  0  0  0  0  0
   -1.8460    5.2027    4.2493 C   0  0  0  0  0  0  0  0  0  0  0  0
   -2.4499    6.3630    3.8298 C   0  0  0  0  0  0  0  0  0  0  0  0
   -3.2918    7.0559    4.6621 C   0  0  0  0  0  0  0  0  0  0  0  0
   -3.5267    6.5764    5.9253 C   0  0  0  0  0  0  0  0  0  0  0  0
   -2.9177    5.4219    6.3257 C   0  0  0  0  0  0  0  0  0  0  0  0
   -3.3310    5.1784    7.6284 C   0  0  0  0  0  0  0  0  0  0  0  0
   -3.0494    4.1729    8.5363 C   0  0  0  0  0  0  0  0  0  0  0  0
   -3.6428    4.2367    9.7730 C   0  0  0  0  0  0  0  0  0  0  0  0
   -4.4929    5.2672   10.1051 C   0  0  0  0  0  0  0  0  0  0  0  0
   -4.7785    6.2720    9.2071 C   0  0  0  0  0  0  0  0  0  0  0  0
   -4.1801    6.2105    7.9558 C   0  0  0  0  0  0  0  0  0  0  0  0
   -4.2982    7.0585    6.9214 N   0  0  0  0  0  0  0  0  0  0  0  0
    0.1697    1.9405    8.0122 C   0  0  0  0  0  0  0  0  0  0  0  0
    0.5828    0.7374    8.7009 N   0  0  0  0  0  4  0  0  0  0  0  0
    0.9964    0.9593   10.0475 C   0  0  0  0  0  0  0  0  0  0  0  0
    0.4302   -0.1975   10.8821 C   0  0  0  0  0  0  0  0  0  0  0  0
    2.5080    0.9107   10.1205 C   0  0  0  0  0  0  0  0  0  0  0  0
  2  1  1  6
  2  3  1  0
  3  4  1  0
  4  5  1  0
  5  6  2  0
  6  7  1  0
  7  8  2  0
  8  9  1  0
  9 10  2  0
 10 11  1  0
 11 12  2  0
 12 13  1  0
 13 14  2  0
 14 15  1  0
 15 16  2  0
 16 17  1  0
  2 18  1  0
 18 19  1  0
 19 20  1  0
 20 21  1  0
 20 22  1  0
 10  5  1  0
 16 11  1  0
 17  9  1  0
M  CHG  1  19   1
M  END
$$$$
