
     RDKit          3D

 22 24  0  0  0  0  0  0  0  0999 V2000
   -0.0793    0.9517    7.3756 O   0  0  0  0  0  0  0  0  0  0  0  0
   -0.7130    0.9445    8.5768 C   0  0  2  0  0  0  0  0  0  0  0  0
   -1.5805    2.1092    8.9127 C   0  0  0  0  0  0  0  0  0  0  0  0
   -1.2941    3.3301    8.4179 O   0  0  0  0  0  0  0  0  0  0  0  0
   -1.3729    4.6258    8.7254 C   0  0  0  0  0  0  0  0  0  0  0  0
   -1.0653    5.2019    9.9314 C   0  0  0  0  0  0  0  0  0  0  0  0
   -1.1799    6.5541   10.1444 C   0  0  0  0  0  0  0  0  0  0  0  0
   -1.6115    7.3875    9.1439 C   0  0  0  0  0  0  0  0  0  0  0  0
   -1.9297    6.8546    7.9209 C   0  0  0  0  0  0  0  0  0  0  0  0
   -1.8101    5.5085    7.7270 C   0  0  0  0  0  0  0  0  0  0  0  0
   -2.1934    5.2538    6.4174 C   0  0  0  0  0  0  0  0  0  0  0  0
   -2.2768    4.0948    5.6660 C   0  0  0  0  0  0  0  0  0  0  0  0
   -2.7054    4.1993    4.3657 C   0  0  0  0  0  0  0  0  0  0  0  0
   -3.0433    5.4174    3.8206 C   0  0  0  0  0  0  0  0  0  0  0  0
   -2.9631    6.5758    4.5618 C   0  0  0  0  0  0  0  0  0  0  0  0
   -2.5300    6.4736    5.8770 C   0  0  0  0  0  0  0  0  0  0  0  0
   -2.3696    7.4446    6.7904 N   0  0  0  0  0  0  0  0  0  0  0  0
    0.3531    0.7148    9.6653 C   0  0  0  0  0  0  0  0  0  0  0  0
    0.7849   -0.6577    9.5166 N   0  0  0  0  0  4  0  0  0  0  0  0
    1.6352   -1.1099   10.5683 C   0  0  0  0  0  0  0  0  0  0  0  0
    0.7731   -1.9799   11.4931 C   0  0  0  0  0  0  0  0  0  0  0  0
    2.7361   -1.9709    9.9858 C   0  0  0  0  0  0  0  0  0  0  0  0
  2  1  1  6
  2  3  1  0
  3  4  1  0
  4  5  1  0
  5  6  2  0
  6  7  1  0
  7  8  2  0
  8  9  1  0
  9 10  2  0
 10 11  1  0
 11 12  2  0
 12 13  1  0
 13 14  2  0
 14 15  1  0
 15 16  2  0
 16 17  1  0
  2 18  1  0
 18 19  1  0
 19 20  1  0
 20 21  1  0
 20 22  1  0
 10  5  1  0
 16 11  1  0
 17  9  1  0
M  CHG  1  19   1
M  END
$$$$
