
     RDKit          3D

 22 24  0  0  0  0  0  0  0  0999 V2000
   -5.4438    5.4193   11.2526 O   0  0  0  0  0  0  0  0  0  0  0  0
   -4.4062    5.1453   10.4204 C   0  0  2  0  0  0  0  0  0  0  0  0
   -4.4828    5.6551    9.0217 C   0  0  0  0  0  0  0  0  0  0  0  0
   -3.4616    5.4417    8.1678 O   0  0  0  0  0  0  0  0  0  0  0  0
   -3.0965    5.6563    6.9028 C   0  0  0  0  0  0  0  0  0  0  0  0
   -3.5014    6.6899    6.0972 C   0  0  0  0  0  0  0  0  0  0  0  0
   -3.0621    6.8208    4.8024 C   0  0  0  0  0  0  0  0  0  0  0  0
   -2.1900    5.9100    4.2622 C   0  0  0  0  0  0  0  0  0  0  0  0
   -1.7580    4.8605    5.0320 C   0  0  0  0  0  0  0  0  0  0  0  0
   -2.2053    4.7457    6.3169 C   0  0  0  0  0  0  0  0  0  0  0  0
   -1.6135    3.6088    6.8501 C   0  0  0  0  0  0  0  0  0  0  0  0
   -1.6880    2.9981    8.0895 C   0  0  0  0  0  0  0  0  0  0  0  0
   -0.9544    1.8547    8.2896 C   0  0  0  0  0  0  0  0  0  0  0  0
   -0.1669    1.3274    7.2912 C   0  0  0  0  0  0  0  0  0  0  0  0
   -0.0872    1.9292    6.0546 C   0  0  0  0  0  0  0  0  0  0  0  0
   -0.8278    3.0855    5.8491 C   0  0  0  0  0  0  0  0  0  0  0  0
   -0.9162    3.8460    4.7460 N   0  0  0  0  0  0  0  0  0  0  0  0
   -4.1792    3.6215   10.4438 C   0  0  0  0  0  0  0  0  0  0  0  0
   -3.4214    3.3500   11.6455 N   0  0  0  0  0  4  0  0  0  0  0  0
   -3.6070    2.0318   12.1566 C   0  0  0  0  0  0  0  0  0  0  0  0
   -2.8679    1.0793   11.2069 C   0  0  0  0  0  0  0  0  0  0  0  0
   -2.9720    1.9331   13.5276 C   0  0  0  0  0  0  0  0  0  0  0  0
  2  1  1  1
  2  3  1  0
  3  4  1  0
  4  5  1  0
  5  6  2  0
  6  7  1  0
  7  8  2  0
  8  9  1  0
  9 10  2  0
 10 11  1  0
 11 12  2  0
 12 13  1  0
 13 14  2  0
 14 15  1  0
 15 16  2  0
 16 17  1  0
  2 18  1  0
 18 19  1  0
 19 20  1  0
 20 21  1  0
 20 22  1  0
 10  5  1  0
 16 11  1  0
 17  9  1  0
M  CHG  1  19   1
M  END
$$$$
