
     RDKit          3D

 22 24  0  0  0  0  0  0  0  0999 V2000
    0.2071    0.5592    6.6844 O   0  0  0  0  0  0  0  0  0  0  0  0
   -0.4843    1.5515    7.3024 C   0  0  2  0  0  0  0  0  0  0  0  0
   -0.4576    2.9075    6.6838 C   0  0  0  0  0  0  0  0  0  0  0  0
   -1.5947    3.6238    6.5766 O   0  0  0  0  0  0  0  0  0  0  0  0
   -2.1298    4.6365    5.8929 C   0  0  0  0  0  0  0  0  0  0  0  0
   -1.8835    4.9619    4.5834 C   0  0  0  0  0  0  0  0  0  0  0  0
   -2.4920    6.0299    3.9702 C   0  0  0  0  0  0  0  0  0  0  0  0
   -3.3804    6.8192    4.6554 C   0  0  0  0  0  0  0  0  0  0  0  0
   -3.6573    6.5302    5.9672 C   0  0  0  0  0  0  0  0  0  0  0  0
   -3.0432    5.4651    6.5608 C   0  0  0  0  0  0  0  0  0  0  0  0
   -3.5045    5.4109    7.8690 C   0  0  0  0  0  0  0  0  0  0  0  0
   -3.2409    4.5615    8.9290 C   0  0  0  0  0  0  0  0  0  0  0  0
   -3.8854    4.7964   10.1185 C   0  0  0  0  0  0  0  0  0  0  0  0
   -4.7681    5.8435   10.2582 C   0  0  0  0  0  0  0  0  0  0  0  0
   -5.0360    6.6936    9.2079 C   0  0  0  0  0  0  0  0  0  0  0  0
   -4.3860    6.4589    8.0037 C   0  0  0  0  0  0  0  0  0  0  0  0
   -4.4780    7.1376    6.8488 N   0  0  0  0  0  0  0  0  0  0  0  0
   -0.0170    1.6019    8.7697 C   0  0  0  0  0  0  0  0  0  0  0  0
    0.1178    0.2252    9.1924 N   0  0  0  0  0  4  0  0  0  0  0  0
    0.9208    0.0581   10.3589 C   0  0  0  0  0  0  0  0  0  0  0  0
    0.0492    0.4543   11.5584 C   0  0  0  0  0  0  0  0  0  0  0  0
    1.2996   -1.4011   10.5002 C   0  0  0  0  0  0  0  0  0  0  0  0
  2  1  1  6
  2  3  1  0
  3  4  1  0
  4  5  1  0
  5  6  2  0
  6  7  1  0
  7  8  2  0
  8  9  1  0
  9 10  2  0
 10 11  1  0
 11 12  2  0
 12 13  1  0
 13 14  2  0
 14 15  1  0
 15 16  2  0
 16 17  1  0
  2 18  1  0
 18 19  1  0
 19 20  1  0
 20 21  1  0
 20 22  1  0
 10  5  1  0
 16 11  1  0
 17  9  1  0
M  CHG  1  19   1
M  END
$$$$
