
     RDKit          3D

 22 24  0  0  0  0  0  0  0  0999 V2000
    0.7931    0.6559    6.2451 O   0  0  0  0  0  0  0  0  0  0  0  0
   -0.1395    1.5498    6.6643 C   0  0  2  0  0  0  0  0  0  0  0  0
   -0.1556    2.8929    6.0180 C   0  0  0  0  0  0  0  0  0  0  0  0
   -1.2088    3.7156    6.1954 O   0  0  0  0  0  0  0  0  0  0  0  0
   -1.8159    4.7678    5.6441 C   0  0  0  0  0  0  0  0  0  0  0  0
   -1.6648    5.2201    4.3581 C   0  0  0  0  0  0  0  0  0  0  0  0
   -2.3420    6.3183    3.8867 C   0  0  0  0  0  0  0  0  0  0  0  0
   -3.2058    7.0105    4.6969 C   0  0  0  0  0  0  0  0  0  0  0  0
   -3.3884    6.5933    5.9904 C   0  0  0  0  0  0  0  0  0  0  0  0
   -2.7069    5.4999    6.4423 C   0  0  0  0  0  0  0  0  0  0  0  0
   -3.0803    5.3102    7.7658 C   0  0  0  0  0  0  0  0  0  0  0  0
   -2.7241    4.3768    8.7232 C   0  0  0  0  0  0  0  0  0  0  0  0
   -3.2961    4.4794    9.9673 C   0  0  0  0  0  0  0  0  0  0  0  0
   -4.1971    5.4785   10.2591 C   0  0  0  0  0  0  0  0  0  0  0  0
   -4.5569    6.4116    9.3117 C   0  0  0  0  0  0  0  0  0  0  0  0
   -3.9804    6.3106    8.0527 C   0  0  0  0  0  0  0  0  0  0  0  0
   -4.1667    7.0888    6.9745 N   0  0  0  0  0  0  0  0  0  0  0  0
   -0.0136    1.6723    8.1950 C   0  0  0  0  0  0  0  0  0  0  0  0
    1.1474    0.8919    8.5629 N   0  0  0  0  0  4  0  0  0  0  0  0
    1.2670    0.6660    9.9658 C   0  0  0  0  0  0  0  0  0  0  0  0
    2.3886   -0.3642   10.1555 C   0  0  0  0  0  0  0  0  0  0  0  0
    1.6770    1.9548   10.6466 C   0  0  0  0  0  0  0  0  0  0  0  0
  2  1  1  6
  2  3  1  0
  3  4  1  0
  4  5  1  0
  5  6  2  0
  6  7  1  0
  7  8  2  0
  8  9  1  0
  9 10  2  0
 10 11  1  0
 11 12  2  0
 12 13  1  0
 13 14  2  0
 14 15  1  0
 15 16  2  0
 16 17  1  0
  2 18  1  0
 18 19  1  0
 19 20  1  0
 20 21  1  0
 20 22  1  0
 10  5  1  0
 16 11  1  0
 17  9  1  0
M  CHG  1  19   1
M  END
$$$$
