
     RDKit          3D

 22 24  0  0  0  0  0  0  0  0999 V2000
    0.9080    3.1459    8.4769 O   0  0  0  0  0  0  0  0  0  0  0  0
    0.3333    2.1739    7.7225 C   0  0  2  0  0  0  0  0  0  0  0  0
   -0.5495    2.5964    6.5981 C   0  0  0  0  0  0  0  0  0  0  0  0
   -1.3262    3.6912    6.7235 O   0  0  0  0  0  0  0  0  0  0  0  0
   -1.7997    4.7212    6.0203 C   0  0  0  0  0  0  0  0  0  0  0  0
   -1.4779    5.0479    4.7277 C   0  0  0  0  0  0  0  0  0  0  0  0
   -2.0269    6.1345    4.0916 C   0  0  0  0  0  0  0  0  0  0  0  0
   -2.9296    6.9420    4.7357 C   0  0  0  0  0  0  0  0  0  0  0  0
   -3.2812    6.6525    6.0293 C   0  0  0  0  0  0  0  0  0  0  0  0
   -2.7254    5.5687    6.6462 C   0  0  0  0  0  0  0  0  0  0  0  0
   -3.2551    5.5185    7.9284 C   0  0  0  0  0  0  0  0  0  0  0  0
   -3.0680    4.6565    8.9945 C   0  0  0  0  0  0  0  0  0  0  0  0
   -3.7672    4.9007   10.1508 C   0  0  0  0  0  0  0  0  0  0  0  0
   -4.6294    5.9690   10.2522 C   0  0  0  0  0  0  0  0  0  0  0  0
   -4.8213    6.8317    9.1956 C   0  0  0  0  0  0  0  0  0  0  0  0
   -4.1159    6.5877    8.0249 C   0  0  0  0  0  0  0  0  0  0  0  0
   -4.1310    7.2753    6.8717 N   0  0  0  0  0  0  0  0  0  0  0  0
   -0.4052    1.2170    8.6780 C   0  0  0  0  0  0  0  0  0  0  0  0
    0.6241    0.5099    9.4078 N   0  0  0  0  0  4  0  0  0  0  0  0
    0.1191   -0.4885   10.2919 C   0  0  0  0  0  0  0  0  0  0  0  0
   -0.1551   -1.7366    9.4420 C   0  0  0  0  0  0  0  0  0  0  0  0
    1.1783   -0.8288   11.3190 C   0  0  0  0  0  0  0  0  0  0  0  0
  2  1  1  1
  2  3  1  0
  3  4  1  0
  4  5  1  0
  5  6  2  0
  6  7  1  0
  7  8  2  0
  8  9  1  0
  9 10  2  0
 10 11  1  0
 11 12  2  0
 12 13  1  0
 13 14  2  0
 14 15  1  0
 15 16  2  0
 16 17  1  0
  2 18  1  0
 18 19  1  0
 19 20  1  0
 20 21  1  0
 20 22  1  0
 10  5  1  0
 16 11  1  0
 17  9  1  0
M  CHG  1  19   1
M  END
$$$$
