
     RDKit          3D

 22 24  0  0  0  0  0  0  0  0999 V2000
   -1.0638    2.1399    9.5055 O   0  0  0  0  0  0  0  0  0  0  0  0
    0.0731    2.3066    8.7815 C   0  0  2  0  0  0  0  0  0  0  0  0
    0.0725    3.3485    7.7155 C   0  0  0  0  0  0  0  0  0  0  0  0
   -1.0889    3.9013    7.3116 O   0  0  0  0  0  0  0  0  0  0  0  0
   -1.5868    4.7281    6.3907 C   0  0  0  0  0  0  0  0  0  0  0  0
   -1.1465    4.8781    5.1004 C   0  0  0  0  0  0  0  0  0  0  0  0
   -1.7336    5.7612    4.2273 C   0  0  0  0  0  0  0  0  0  0  0  0
   -2.7963    6.5343    4.6205 C   0  0  0  0  0  0  0  0  0  0  0  0
   -3.2704    6.4168    5.9020 C   0  0  0  0  0  0  0  0  0  0  0  0
   -2.6745    5.5343    6.7566 C   0  0  0  0  0  0  0  0  0  0  0  0
   -3.3502    5.6247    7.9658 C   0  0  0  0  0  0  0  0  0  0  0  0
   -3.1991    4.9831    9.1824 C   0  0  0  0  0  0  0  0  0  0  0  0
   -4.0601    5.3175   10.1985 C   0  0  0  0  0  0  0  0  0  0  0  0
   -5.0455    6.2617   10.0182 C   0  0  0  0  0  0  0  0  0  0  0  0
   -5.2025    6.9050    8.8103 C   0  0  0  0  0  0  0  0  0  0  0  0
   -4.3336    6.5691    7.7808 C   0  0  0  0  0  0  0  0  0  0  0  0
   -4.2843    7.0493    6.5278 N   0  0  0  0  0  0  0  0  0  0  0  0
    0.4698    0.9309    8.2124 C   0  0  0  0  0  0  0  0  0  0  0  0
    1.2494    0.2827    9.2440 N   0  0  0  0  0  4  0  0  0  0  0  0
    1.4897   -1.1013    8.9987 C   0  0  0  0  0  0  0  0  0  0  0  0
    2.8534   -1.1985    8.3014 C   0  0  0  0  0  0  0  0  0  0  0  0
    1.5714   -1.8363   10.3200 C   0  0  0  0  0  0  0  0  0  0  0  0
  2  1  1  6
  2  3  1  0
  3  4  1  0
  4  5  1  0
  5  6  2  0
  6  7  1  0
  7  8  2  0
  8  9  1  0
  9 10  2  0
 10 11  1  0
 11 12  2  0
 12 13  1  0
 13 14  2  0
 14 15  1  0
 15 16  2  0
 16 17  1  0
  2 18  1  0
 18 19  1  0
 19 20  1  0
 20 21  1  0
 20 22  1  0
 10  5  1  0
 16 11  1  0
 17  9  1  0
M  CHG  1  19   1
M  END
$$$$
