
     RDKit          3D

 22 24  0  0  0  0  0  0  0  0999 V2000
   -0.8747    0.7854    6.3176 O   0  0  0  0  0  0  0  0  0  0  0  0
   -0.2675    1.5054    7.2961 C   0  0  2  0  0  0  0  0  0  0  0  0
   -0.2099    2.9863    7.1362 C   0  0  0  0  0  0  0  0  0  0  0  0
   -1.3373    3.6839    6.8915 O   0  0  0  0  0  0  0  0  0  0  0  0
   -1.7988    4.6981    6.1581 C   0  0  0  0  0  0  0  0  0  0  0  0
   -1.4101    5.0328    4.8860 C   0  0  0  0  0  0  0  0  0  0  0  0
   -1.9526    6.1015    4.2149 C   0  0  0  0  0  0  0  0  0  0  0  0
   -2.9162    6.8820    4.8013 C   0  0  0  0  0  0  0  0  0  0  0  0
   -3.3359    6.5836    6.0724 C   0  0  0  0  0  0  0  0  0  0  0  0
   -2.7855    5.5180    6.7248 C   0  0  0  0  0  0  0  0  0  0  0  0
   -3.3894    5.4533    7.9731 C   0  0  0  0  0  0  0  0  0  0  0  0
   -3.2406    4.5988    9.0511 C   0  0  0  0  0  0  0  0  0  0  0  0
   -4.0148    4.8230   10.1628 C   0  0  0  0  0  0  0  0  0  0  0  0
   -4.9135    5.8648   10.2091 C   0  0  0  0  0  0  0  0  0  0  0  0
   -5.0677    6.7200    9.1402 C   0  0  0  0  0  0  0  0  0  0  0  0
   -4.2863    6.4960    8.0146 C   0  0  0  0  0  0  0  0  0  0  0  0
   -4.2530    7.1814    6.8605 N   0  0  0  0  0  0  0  0  0  0  0  0
    1.1402    0.9149    7.5046 C   0  0  0  0  0  0  0  0  0  0  0  0
    1.1422    0.3504    8.8364 N   0  0  0  0  0  4  0  0  0  0  0  0
    2.4317   -0.0624    9.2838 C   0  0  0  0  0  0  0  0  0  0  0  0
    2.6064    0.4904   10.7048 C   0  0  0  0  0  0  0  0  0  0  0  0
    2.4788   -1.5745    9.3464 C   0  0  0  0  0  0  0  0  0  0  0  0
  2  1  1  6
  2  3  1  0
  3  4  1  0
  4  5  1  0
  5  6  2  0
  6  7  1  0
  7  8  2  0
  8  9  1  0
  9 10  2  0
 10 11  1  0
 11 12  2  0
 12 13  1  0
 13 14  2  0
 14 15  1  0
 15 16  2  0
 16 17  1  0
  2 18  1  0
 18 19  1  0
 19 20  1  0
 20 21  1  0
 20 22  1  0
 10  5  1  0
 16 11  1  0
 17  9  1  0
M  CHG  1  19   1
M  END
$$$$
