
     RDKit          3D

 22 24  0  0  0  0  0  0  0  0999 V2000
    1.0699    3.1129    8.0955 O   0  0  0  0  0  0  0  0  0  0  0  0
    0.2289    2.0636    7.9052 C   0  0  2  0  0  0  0  0  0  0  0  0
   -0.8331    2.2024    6.8685 C   0  0  0  0  0  0  0  0  0  0  0  0
   -1.6706    3.2585    6.8961 O   0  0  0  0  0  0  0  0  0  0  0  0
   -2.0909    4.2773    6.1446 C   0  0  0  0  0  0  0  0  0  0  0  0
   -1.8056    4.4908    4.8201 C   0  0  0  0  0  0  0  0  0  0  0  0
   -2.2932    5.5767    4.1347 C   0  0  0  0  0  0  0  0  0  0  0  0
   -3.0944    6.4984    4.7594 C   0  0  0  0  0  0  0  0  0  0  0  0
   -3.4062    6.3245    6.0835 C   0  0  0  0  0  0  0  0  0  0  0  0
   -2.9126    5.2396    6.7494 C   0  0  0  0  0  0  0  0  0  0  0  0
   -3.3825    5.3180    8.0532 C   0  0  0  0  0  0  0  0  0  0  0  0
   -3.2162    4.5142    9.1671 C   0  0  0  0  0  0  0  0  0  0  0  0
   -3.8366    4.8917   10.3325 C   0  0  0  0  0  0  0  0  0  0  0  0
   -4.6021    6.0340   10.3967 C   0  0  0  0  0  0  0  0  0  0  0  0
   -4.7727    6.8396    9.2924 C   0  0  0  0  0  0  0  0  0  0  0  0
   -4.1467    6.4608    8.1125 C   0  0  0  0  0  0  0  0  0  0  0  0
   -4.1605    7.0709    6.9164 N   0  0  0  0  0  0  0  0  0  0  0  0
   -0.3764    1.6967    9.2737 C   0  0  0  0  0  0  0  0  0  0  0  0
    0.3571    0.5391    9.7363 N   0  0  0  0  0  4  0  0  0  0  0  0
   -0.0312    0.0934   11.0340 C   0  0  0  0  0  0  0  0  0  0  0  0
   -1.2936   -0.7600   10.8510 C   0  0  0  0  0  0  0  0  0  0  0  0
    1.0620   -0.7818   11.6099 C   0  0  0  0  0  0  0  0  0  0  0  0
  2  1  1  1
  2  3  1  0
  3  4  1  0
  4  5  1  0
  5  6  2  0
  6  7  1  0
  7  8  2  0
  8  9  1  0
  9 10  2  0
 10 11  1  0
 11 12  2  0
 12 13  1  0
 13 14  2  0
 14 15  1  0
 15 16  2  0
 16 17  1  0
  2 18  1  0
 18 19  1  0
 19 20  1  0
 20 21  1  0
 20 22  1  0
 10  5  1  0
 16 11  1  0
 17  9  1  0
M  CHG  1  19   1
M  END
$$$$
