
     RDKit          3D

 22 24  0  0  0  0  0  0  0  0999 V2000
    0.6926    1.7407    6.2654 O   0  0  0  0  0  0  0  0  0  0  0  0
   -0.4917    1.5722    6.9084 C   0  0  2  0  0  0  0  0  0  0  0  0
   -1.6971    2.2315    6.3302 C   0  0  0  0  0  0  0  0  0  0  0  0
   -1.9044    3.5496    6.5232 O   0  0  0  0  0  0  0  0  0  0  0  0
   -2.2722    4.6547    5.8727 C   0  0  0  0  0  0  0  0  0  0  0  0
   -1.9491    4.9922    4.5832 C   0  0  0  0  0  0  0  0  0  0  0  0
   -2.3834    6.1596    4.0041 C   0  0  0  0  0  0  0  0  0  0  0  0
   -3.1670    7.0409    4.7048 C   0  0  0  0  0  0  0  0  0  0  0  0
   -3.5153    6.7437    5.9975 C   0  0  0  0  0  0  0  0  0  0  0  0
   -3.0745    5.5790    6.5574 C   0  0  0  0  0  0  0  0  0  0  0  0
   -3.5716    5.5405    7.8529 C   0  0  0  0  0  0  0  0  0  0  0  0
   -3.4587    4.6213    8.8809 C   0  0  0  0  0  0  0  0  0  0  0  0
   -4.0928    4.8996   10.0667 C   0  0  0  0  0  0  0  0  0  0  0  0
   -4.8202    6.0564   10.2334 C   0  0  0  0  0  0  0  0  0  0  0  0
   -4.9376    6.9765    9.2150 C   0  0  0  0  0  0  0  0  0  0  0  0
   -4.2976    6.6981    8.0148 C   0  0  0  0  0  0  0  0  0  0  0  0
   -4.2628    7.4277    6.8880 N   0  0  0  0  0  0  0  0  0  0  0  0
   -0.2867    1.9828    8.3792 C   0  0  0  0  0  0  0  0  0  0  0  0
    0.5559    0.9628    8.9638 N   0  0  0  0  0  4  0  0  0  0  0  0
    0.8702    1.1935   10.3355 C   0  0  0  0  0  0  0  0  0  0  0  0
   -0.1841    0.4471   11.1641 C   0  0  0  0  0  0  0  0  0  0  0  0
    2.2303    0.6032   10.6428 C   0  0  0  0  0  0  0  0  0  0  0  0
  2  1  1  6
  2  3  1  0
  3  4  1  0
  4  5  1  0
  5  6  2  0
  6  7  1  0
  7  8  2  0
  8  9  1  0
  9 10  2  0
 10 11  1  0
 11 12  2  0
 12 13  1  0
 13 14  2  0
 14 15  1  0
 15 16  2  0
 16 17  1  0
  2 18  1  0
 18 19  1  0
 19 20  1  0
 20 21  1  0
 20 22  1  0
 10  5  1  0
 16 11  1  0
 17  9  1  0
M  CHG  1  19   1
M  END
$$$$
