
     RDKit          3D

 22 24  0  0  0  0  0  0  0  0999 V2000
    1.0244    1.8528    6.4703 O   0  0  0  0  0  0  0  0  0  0  0  0
   -0.3066    1.6731    6.6717 C   0  0  2  0  0  0  0  0  0  0  0  0
   -1.2494    2.3496    5.7360 C   0  0  0  0  0  0  0  0  0  0  0  0
   -1.8247    3.5181    6.0840 O   0  0  0  0  0  0  0  0  0  0  0  0
   -2.2152    4.6841    5.5669 C   0  0  0  0  0  0  0  0  0  0  0  0
   -1.9240    5.1640    4.3155 C   0  0  0  0  0  0  0  0  0  0  0  0
   -2.3799    6.3835    3.8775 C   0  0  0  0  0  0  0  0  0  0  0  0
   -3.1539    7.1750    4.6876 C   0  0  0  0  0  0  0  0  0  0  0  0
   -3.4705    6.7346    5.9472 C   0  0  0  0  0  0  0  0  0  0  0  0
   -3.0086    5.5200    6.3661 C   0  0  0  0  0  0  0  0  0  0  0  0
   -3.4759    5.3349    7.6601 C   0  0  0  0  0  0  0  0  0  0  0  0
   -3.3328    4.3098    8.5784 C   0  0  0  0  0  0  0  0  0  0  0  0
   -3.9419    4.4503    9.8010 C   0  0  0  0  0  0  0  0  0  0  0  0
   -4.6738    5.5746   10.1095 C   0  0  0  0  0  0  0  0  0  0  0  0
   -4.8211    6.5996    9.2010 C   0  0  0  0  0  0  0  0  0  0  0  0
   -4.2065    6.4607    7.9638 C   0  0  0  0  0  0  0  0  0  0  0  0
   -4.2026    7.3096    6.9235 N   0  0  0  0  0  0  0  0  0  0  0  0
   -0.6120    2.0485    8.1345 C   0  0  0  0  0  0  0  0  0  0  0  0
    0.0193    1.0317    8.9468 N   0  0  0  0  0  4  0  0  0  0  0  0
    0.0820    1.3604   10.3330 C   0  0  0  0  0  0  0  0  0  0  0  0
   -0.2682    0.0831   11.1084 C   0  0  0  0  0  0  0  0  0  0  0  0
    1.4973    1.7656   10.6871 C   0  0  0  0  0  0  0  0  0  0  0  0
  2  1  1  6
  2  3  1  0
  3  4  1  0
  4  5  1  0
  5  6  2  0
  6  7  1  0
  7  8  2  0
  8  9  1  0
  9 10  2  0
 10 11  1  0
 11 12  2  0
 12 13  1  0
 13 14  2  0
 14 15  1  0
 15 16  2  0
 16 17  1  0
  2 18  1  0
 18 19  1  0
 19 20  1  0
 20 21  1  0
 20 22  1  0
 10  5  1  0
 16 11  1  0
 17  9  1  0
M  CHG  1  19   1
M  END
$$$$
