
     RDKit          3D

 22 24  0  0  0  0  0  0  0  0999 V2000
    0.8373    1.4659    6.2250 O   0  0  0  0  0  0  0  0  0  0  0  0
   -0.1935    1.2191    7.0741 C   0  0  2  0  0  0  0  0  0  0  0  0
   -1.4928    1.8992    6.8071 C   0  0  0  0  0  0  0  0  0  0  0  0
   -1.5617    3.2456    6.7987 O   0  0  0  0  0  0  0  0  0  0  0  0
   -1.9496    4.2661    6.0322 C   0  0  0  0  0  0  0  0  0  0  0  0
   -1.5847    4.4982    4.7306 C   0  0  0  0  0  0  0  0  0  0  0  0
   -2.0449    5.5842    4.0265 C   0  0  0  0  0  0  0  0  0  0  0  0
   -2.8981    6.4870    4.6085 C   0  0  0  0  0  0  0  0  0  0  0  0
   -3.2901    6.2941    5.9085 C   0  0  0  0  0  0  0  0  0  0  0  0
   -2.8226    5.2094    6.5934 C   0  0  0  0  0  0  0  0  0  0  0  0
   -3.3749    5.2667    7.8657 C   0  0  0  0  0  0  0  0  0  0  0  0
   -3.2666    4.4534    8.9798 C   0  0  0  0  0  0  0  0  0  0  0  0
   -3.9651    4.8089   10.1074 C   0  0  0  0  0  0  0  0  0  0  0  0
   -4.7507    5.9389   10.1345 C   0  0  0  0  0  0  0  0  0  0  0  0
   -4.8639    6.7538    9.0296 C   0  0  0  0  0  0  0  0  0  0  0  0
   -4.1590    6.3972    7.8879 C   0  0  0  0  0  0  0  0  0  0  0  0
   -4.1068    7.0201    6.6995 N   0  0  0  0  0  0  0  0  0  0  0  0
    0.3006    1.5090    8.5044 C   0  0  0  0  0  0  0  0  0  0  0  0
    0.8618    0.2679    8.9912 N   0  0  0  0  0  4  0  0  0  0  0  0
    1.3960    0.3570   10.3104 C   0  0  0  0  0  0  0  0  0  0  0  0
    0.2472    0.0387   11.2769 C   0  0  0  0  0  0  0  0  0  0  0  0
    2.4755   -0.6904   10.4843 C   0  0  0  0  0  0  0  0  0  0  0  0
  2  1  1  6
  2  3  1  0
  3  4  1  0
  4  5  1  0
  5  6  2  0
  6  7  1  0
  7  8  2  0
  8  9  1  0
  9 10  2  0
 10 11  1  0
 11 12  2  0
 12 13  1  0
 13 14  2  0
 14 15  1  0
 15 16  2  0
 16 17  1  0
  2 18  1  0
 18 19  1  0
 19 20  1  0
 20 21  1  0
 20 22  1  0
 10  5  1  0
 16 11  1  0
 17  9  1  0
M  CHG  1  19   1
M  END
$$$$
