
     RDKit          3D

 22 24  0  0  0  0  0  0  0  0999 V2000
   -2.2400    0.7512    9.1121 O   0  0  0  0  0  0  0  0  0  0  0  0
   -1.6780    1.7371    9.8583 C   0  0  2  0  0  0  0  0  0  0  0  0
   -2.5033    2.9429   10.1530 C   0  0  0  0  0  0  0  0  0  0  0  0
   -2.8094    3.8097    9.1668 O   0  0  0  0  0  0  0  0  0  0  0  0
   -3.4773    4.9425    8.9428 C   0  0  0  0  0  0  0  0  0  0  0  0
   -4.3556    5.5585    9.7975 C   0  0  0  0  0  0  0  0  0  0  0  0
   -4.9926    6.7303    9.4690 C   0  0  0  0  0  0  0  0  0  0  0  0
   -4.7691    7.3344    8.2578 C   0  0  0  0  0  0  0  0  0  0  0  0
   -3.8979    6.7537    7.3720 C   0  0  0  0  0  0  0  0  0  0  0  0
   -3.2737    5.5889    7.7150 C   0  0  0  0  0  0  0  0  0  0  0  0
   -2.4624    5.2357    6.6454 C   0  0  0  0  0  0  0  0  0  0  0  0
   -1.6068    4.1719    6.4198 C   0  0  0  0  0  0  0  0  0  0  0  0
   -0.9389    4.1251    5.2209 C   0  0  0  0  0  0  0  0  0  0  0  0
   -1.1113    5.1040    4.2685 C   0  0  0  0  0  0  0  0  0  0  0  0
   -1.9612    6.1663    4.4852 C   0  0  0  0  0  0  0  0  0  0  0  0
   -2.6380    6.2165    5.6964 C   0  0  0  0  0  0  0  0  0  0  0  0
   -3.5095    7.1374    6.1385 N   0  0  0  0  0  0  0  0  0  0  0  0
   -0.3457    2.1266    9.1894 C   0  0  0  0  0  0  0  0  0  0  0  0
    0.5244    0.9807    9.3376 N   0  0  0  0  0  4  0  0  0  0  0  0
    1.8826    1.2415    8.9898 C   0  0  0  0  0  0  0  0  0  0  0  0
    2.7422    0.2444    9.7786 C   0  0  0  0  0  0  0  0  0  0  0  0
    2.0787    0.9816    7.5111 C   0  0  0  0  0  0  0  0  0  0  0  0
  2  1  1  6
  2  3  1  0
  3  4  1  0
  4  5  1  0
  5  6  2  0
  6  7  1  0
  7  8  2  0
  8  9  1  0
  9 10  2  0
 10 11  1  0
 11 12  2  0
 12 13  1  0
 13 14  2  0
 14 15  1  0
 15 16  2  0
 16 17  1  0
  2 18  1  0
 18 19  1  0
 19 20  1  0
 20 21  1  0
 20 22  1  0
 10  5  1  0
 16 11  1  0
 17  9  1  0
M  CHG  1  19   1
M  END
$$$$
