
     RDKit          3D

 22 24  0  0  0  0  0  0  0  0999 V2000
   -0.0328    1.9617    9.8377 O   0  0  0  0  0  0  0  0  0  0  0  0
    0.5380    2.3419    8.6655 C   0  0  2  0  0  0  0  0  0  0  0  0
    0.2193    3.7021    8.1455 C   0  0  0  0  0  0  0  0  0  0  0  0
   -0.9358    3.9196    7.4852 O   0  0  0  0  0  0  0  0  0  0  0  0
   -1.4753    4.7144    6.5597 C   0  0  0  0  0  0  0  0  0  0  0  0
   -1.0783    4.8369    5.2525 C   0  0  0  0  0  0  0  0  0  0  0  0
   -1.7064    5.6878    4.3760 C   0  0  0  0  0  0  0  0  0  0  0  0
   -2.7682    6.4552    4.7829 C   0  0  0  0  0  0  0  0  0  0  0  0
   -3.1997    6.3644    6.0815 C   0  0  0  0  0  0  0  0  0  0  0  0
   -2.5635    5.5137    6.9391 C   0  0  0  0  0  0  0  0  0  0  0  0
   -3.2020    5.6259    8.1666 C   0  0  0  0  0  0  0  0  0  0  0  0
   -3.0027    5.0188    9.3939 C   0  0  0  0  0  0  0  0  0  0  0  0
   -3.8363    5.3671   10.4280 C   0  0  0  0  0  0  0  0  0  0  0  0
   -4.8415    6.2915   10.2549 C   0  0  0  0  0  0  0  0  0  0  0  0
   -5.0466    6.9004    9.0363 C   0  0  0  0  0  0  0  0  0  0  0  0
   -4.2055    6.5504    7.9886 C   0  0  0  0  0  0  0  0  0  0  0  0
   -4.2032    6.9981    6.7227 N   0  0  0  0  0  0  0  0  0  0  0  0
    0.2180    1.2585    7.6178 C   0  0  0  0  0  0  0  0  0  0  0  0
    0.9851    0.0939    8.0020 N   0  0  0  0  0  4  0  0  0  0  0  0
    0.2207   -1.1092    8.0452 C   0  0  0  0  0  0  0  0  0  0  0  0
    0.4045   -1.8010    6.6877 C   0  0  0  0  0  0  0  0  0  0  0  0
    0.7739   -2.0144    9.1256 C   0  0  0  0  0  0  0  0  0  0  0  0
  2  1  1  1
  2  3  1  0
  3  4  1  0
  4  5  1  0
  5  6  2  0
  6  7  1  0
  7  8  2  0
  8  9  1  0
  9 10  2  0
 10 11  1  0
 11 12  2  0
 12 13  1  0
 13 14  2  0
 14 15  1  0
 15 16  2  0
 16 17  1  0
  2 18  1  0
 18 19  1  0
 19 20  1  0
 20 21  1  0
 20 22  1  0
 10  5  1  0
 16 11  1  0
 17  9  1  0
M  CHG  1  19   1
M  END
$$$$
