
     RDKit          3D

 22 24  0  0  0  0  0  0  0  0999 V2000
    0.7845    1.6995    6.2114 O   0  0  0  0  0  0  0  0  0  0  0  0
   -0.4027    1.4986    6.8394 C   0  0  2  0  0  0  0  0  0  0  0  0
   -1.6076    2.1774    6.2831 C   0  0  0  0  0  0  0  0  0  0  0  0
   -1.7907    3.4983    6.4808 O   0  0  0  0  0  0  0  0  0  0  0  0
   -2.1396    4.6120    5.8345 C   0  0  0  0  0  0  0  0  0  0  0  0
   -1.7782    4.9670    4.5600 C   0  0  0  0  0  0  0  0  0  0  0  0
   -2.1956    6.1421    3.9839 C   0  0  0  0  0  0  0  0  0  0  0  0
   -3.0005    7.0136    4.6726 C   0  0  0  0  0  0  0  0  0  0  0  0
   -3.3873    6.6988    5.9502 C   0  0  0  0  0  0  0  0  0  0  0  0
   -2.9627    5.5268    6.5072 C   0  0  0  0  0  0  0  0  0  0  0  0
   -3.4985    5.4706    7.7866 C   0  0  0  0  0  0  0  0  0  0  0  0
   -3.4158    4.5376    8.8050 C   0  0  0  0  0  0  0  0  0  0  0  0
   -4.0854    4.7997    9.9749 C   0  0  0  0  0  0  0  0  0  0  0  0
   -4.8183    5.9539   10.1353 C   0  0  0  0  0  0  0  0  0  0  0  0
   -4.9057    6.8877    9.1264 C   0  0  0  0  0  0  0  0  0  0  0  0
   -4.2298    6.6257    7.9422 C   0  0  0  0  0  0  0  0  0  0  0  0
   -4.1616    7.3705    6.8270 N   0  0  0  0  0  0  0  0  0  0  0  0
   -0.2080    1.8462    8.3278 C   0  0  0  0  0  0  0  0  0  0  0  0
    0.6833    0.8383    8.8589 N   0  0  0  0  0  4  0  0  0  0  0  0
    0.9316    0.9697   10.2570 C   0  0  0  0  0  0  0  0  0  0  0  0
    0.4450   -0.3271   10.9181 C   0  0  0  0  0  0  0  0  0  0  0  0
    2.4221    1.0988   10.4900 C   0  0  0  0  0  0  0  0  0  0  0  0
  2  1  1  6
  2  3  1  0
  3  4  1  0
  4  5  1  0
  5  6  2  0
  6  7  1  0
  7  8  2  0
  8  9  1  0
  9 10  2  0
 10 11  1  0
 11 12  2  0
 12 13  1  0
 13 14  2  0
 14 15  1  0
 15 16  2  0
 16 17  1  0
  2 18  1  0
 18 19  1  0
 19 20  1  0
 20 21  1  0
 20 22  1  0
 10  5  1  0
 16 11  1  0
 17  9  1  0
M  CHG  1  19   1
M  END
$$$$
