
     RDKit          3D

 22 24  0  0  0  0  0  0  0  0999 V2000
    0.0059    0.6276    6.4683 O   0  0  0  0  0  0  0  0  0  0  0  0
   -0.8490    1.6100    6.8535 C   0  0  2  0  0  0  0  0  0  0  0  0
   -0.8011    2.9034    6.1139 C   0  0  0  0  0  0  0  0  0  0  0  0
   -1.7045    3.8680    6.3802 O   0  0  0  0  0  0  0  0  0  0  0  0
   -2.2730    4.9448    5.8354 C   0  0  0  0  0  0  0  0  0  0  0  0
   -2.0362    5.4511    4.5829 C   0  0  0  0  0  0  0  0  0  0  0  0
   -2.6800    6.5707    4.1149 C   0  0  0  0  0  0  0  0  0  0  0  0
   -3.5957    7.2305    4.8946 C   0  0  0  0  0  0  0  0  0  0  0  0
   -3.8644    6.7588    6.1541 C   0  0  0  0  0  0  0  0  0  0  0  0
   -3.2150    5.6449    6.6031 C   0  0  0  0  0  0  0  0  0  0  0  0
   -3.6759    5.4000    7.8894 C   0  0  0  0  0  0  0  0  0  0  0  0
   -3.3848    4.4254    8.8274 C   0  0  0  0  0  0  0  0  0  0  0  0
   -4.0385    4.4766   10.0339 C   0  0  0  0  0  0  0  0  0  0  0  0
   -4.9566    5.4651   10.3076 C   0  0  0  0  0  0  0  0  0  0  0  0
   -5.2520    6.4391    9.3792 C   0  0  0  0  0  0  0  0  0  0  0  0
   -4.5928    6.3902    8.1583 C   0  0  0  0  0  0  0  0  0  0  0  0
   -4.7064    7.2144    7.1044 N   0  0  0  0  0  0  0  0  0  0  0  0
   -0.6570    1.8289    8.3665 C   0  0  0  0  0  0  0  0  0  0  0  0
    0.3453    0.8729    8.7833 N   0  0  0  0  0  4  0  0  0  0  0  0
    0.7990    1.0624   10.1218 C   0  0  0  0  0  0  0  0  0  0  0  0
    0.1440   -0.0346   10.9721 C   0  0  0  0  0  0  0  0  0  0  0  0
    2.3010    0.8774   10.1715 C   0  0  0  0  0  0  0  0  0  0  0  0
  2  1  1  6
  2  3  1  0
  3  4  1  0
  4  5  1  0
  5  6  2  0
  6  7  1  0
  7  8  2  0
  8  9  1  0
  9 10  2  0
 10 11  1  0
 11 12  2  0
 12 13  1  0
 13 14  2  0
 14 15  1  0
 15 16  2  0
 16 17  1  0
  2 18  1  0
 18 19  1  0
 19 20  1  0
 20 21  1  0
 20 22  1  0
 10  5  1  0
 16 11  1  0
 17  9  1  0
M  CHG  1  19   1
M  END
$$$$
