
     RDKit          3D

 22 24  0  0  0  0  0  0  0  0999 V2000
   -1.1931    1.3166    7.1879 O   0  0  0  0  0  0  0  0  0  0  0  0
   -0.9701    1.5138    8.5130 C   0  0  2  0  0  0  0  0  0  0  0  0
   -1.8046    2.5298    9.2152 C   0  0  0  0  0  0  0  0  0  0  0  0
   -2.3590    3.5447    8.5223 O   0  0  0  0  0  0  0  0  0  0  0  0
   -3.3177    4.4681    8.6110 C   0  0  0  0  0  0  0  0  0  0  0  0
   -4.2236    4.6135    9.6305 C   0  0  0  0  0  0  0  0  0  0  0  0
   -5.1744    5.6048    9.6257 C   0  0  0  0  0  0  0  0  0  0  0  0
   -5.2519    6.4972    8.5868 C   0  0  0  0  0  0  0  0  0  0  0  0
   -4.3654    6.3898    7.5460 C   0  0  0  0  0  0  0  0  0  0  0  0
   -3.4271    5.3982    7.5670 C   0  0  0  0  0  0  0  0  0  0  0  0
   -2.6775    5.5273    6.4058 C   0  0  0  0  0  0  0  0  0  0  0  0
   -1.6070    4.8190    5.8891 C   0  0  0  0  0  0  0  0  0  0  0  0
   -1.0887    5.2232    4.6835 C   0  0  0  0  0  0  0  0  0  0  0  0
   -1.6139    6.2996    4.0049 C   0  0  0  0  0  0  0  0  0  0  0  0
   -2.6794    7.0100    4.5124 C   0  0  0  0  0  0  0  0  0  0  0  0
   -3.2059    6.6039    5.7313 C   0  0  0  0  0  0  0  0  0  0  0  0
   -4.2303    7.1267    6.4242 N   0  0  0  0  0  0  0  0  0  0  0  0
    0.5314    1.8076    8.6948 C   0  0  0  0  0  0  0  0  0  0  0  0
    1.1831    0.5185    8.7718 N   0  0  0  0  0  4  0  0  0  0  0  0
    2.3163    0.4982    9.6372 C   0  0  0  0  0  0  0  0  0  0  0  0
    2.3771   -0.9049   10.2562 C   0  0  0  0  0  0  0  0  0  0  0  0
    3.5725    0.7190    8.8212 C   0  0  0  0  0  0  0  0  0  0  0  0
  2  1  1  6
  2  3  1  0
  3  4  1  0
  4  5  1  0
  5  6  2  0
  6  7  1  0
  7  8  2  0
  8  9  1  0
  9 10  2  0
 10 11  1  0
 11 12  2  0
 12 13  1  0
 13 14  2  0
 14 15  1  0
 15 16  2  0
 16 17  1  0
  2 18  1  0
 18 19  1  0
 19 20  1  0
 20 21  1  0
 20 22  1  0
 10  5  1  0
 16 11  1  0
 17  9  1  0
M  CHG  1  19   1
M  END
$$$$
