
     RDKit          3D

 22 24  0  0  0  0  0  0  0  0999 V2000
    0.9368    1.6272    6.1165 O   0  0  0  0  0  0  0  0  0  0  0  0
   -0.2257    1.6796    6.8167 C   0  0  2  0  0  0  0  0  0  0  0  0
   -1.3373    2.5015    6.2590 C   0  0  0  0  0  0  0  0  0  0  0  0
   -1.3544    3.8355    6.4528 O   0  0  0  0  0  0  0  0  0  0  0  0
   -1.7510    4.9695    5.8728 C   0  0  0  0  0  0  0  0  0  0  0  0
   -1.3868    5.4261    4.6318 C   0  0  0  0  0  0  0  0  0  0  0  0
   -1.8565    6.6131    4.1245 C   0  0  0  0  0  0  0  0  0  0  0  0
   -2.7189    7.3940    4.8512 C   0  0  0  0  0  0  0  0  0  0  0  0
   -3.1106    6.9760    6.0972 C   0  0  0  0  0  0  0  0  0  0  0  0
   -2.6336    5.7937    6.5859 C   0  0  0  0  0  0  0  0  0  0  0  0
   -3.1880    5.6255    7.8474 C   0  0  0  0  0  0  0  0  0  0  0  0
   -3.0734    4.6330    8.8048 C   0  0  0  0  0  0  0  0  0  0  0  0
   -3.7765    4.7821    9.9748 C   0  0  0  0  0  0  0  0  0  0  0  0
   -4.5729    5.8833   10.1943 C   0  0  0  0  0  0  0  0  0  0  0  0
   -4.6925    6.8756    9.2463 C   0  0  0  0  0  0  0  0  0  0  0  0
   -3.9829    6.7280    8.0622 C   0  0  0  0  0  0  0  0  0  0  0  0
   -3.9351    7.5470    6.9993 N   0  0  0  0  0  0  0  0  0  0  0  0
    0.1155    2.1116    8.2558 C   0  0  0  0  0  0  0  0  0  0  0  0
    0.7959    0.9866    8.8587 N   0  0  0  0  0  4  0  0  0  0  0  0
    1.2072    1.2176   10.2045 C   0  0  0  0  0  0  0  0  0  0  0  0
    0.1269    0.6098   11.1094 C   0  0  0  0  0  0  0  0  0  0  0  0
    2.5122    0.4933   10.4596 C   0  0  0  0  0  0  0  0  0  0  0  0
  2  1  1  6
  2  3  1  0
  3  4  1  0
  4  5  1  0
  5  6  2  0
  6  7  1  0
  7  8  2  0
  8  9  1  0
  9 10  2  0
 10 11  1  0
 11 12  2  0
 12 13  1  0
 13 14  2  0
 14 15  1  0
 15 16  2  0
 16 17  1  0
  2 18  1  0
 18 19  1  0
 19 20  1  0
 20 21  1  0
 20 22  1  0
 10  5  1  0
 16 11  1  0
 17  9  1  0
M  CHG  1  19   1
M  END
$$$$
