
     RDKit          3D

 22 24  0  0  0  0  0  0  0  0999 V2000
    0.4368    0.8469    6.2799 O   0  0  0  0  0  0  0  0  0  0  0  0
   -0.4092    1.8368    6.6657 C   0  0  2  0  0  0  0  0  0  0  0  0
   -0.4548    3.0752    5.8373 C   0  0  0  0  0  0  0  0  0  0  0  0
   -1.3805    4.0226    6.0884 O   0  0  0  0  0  0  0  0  0  0  0  0
   -1.9147    5.1256    5.5617 C   0  0  0  0  0  0  0  0  0  0  0  0
   -1.6356    5.6643    4.3316 C   0  0  0  0  0  0  0  0  0  0  0  0
   -2.2463    6.8092    3.8810 C   0  0  0  0  0  0  0  0  0  0  0  0
   -3.1703    7.4628    4.6561 C   0  0  0  0  0  0  0  0  0  0  0  0
   -3.4808    6.9592    5.8934 C   0  0  0  0  0  0  0  0  0  0  0  0
   -2.8639    5.8204    6.3254 C   0  0  0  0  0  0  0  0  0  0  0  0
   -3.3632    5.5463    7.5913 C   0  0  0  0  0  0  0  0  0  0  0  0
   -3.1149    4.5389    8.5068 C   0  0  0  0  0  0  0  0  0  0  0  0
   -3.7994    4.5667    9.6968 C   0  0  0  0  0  0  0  0  0  0  0  0
   -4.7063    5.5639    9.9762 C   0  0  0  0  0  0  0  0  0  0  0  0
   -4.9593    6.5703    9.0703 C   0  0  0  0  0  0  0  0  0  0  0  0
   -4.2688    6.5452    7.8660 C   0  0  0  0  0  0  0  0  0  0  0  0
   -4.3394    7.4022    6.8348 N   0  0  0  0  0  0  0  0  0  0  0  0
   -0.1011    2.1661    8.1390 C   0  0  0  0  0  0  0  0  0  0  0  0
    0.8723    1.1872    8.5708 N   0  0  0  0  0  4  0  0  0  0  0  0
    1.0117    1.1014    9.9874 C   0  0  0  0  0  0  0  0  0  0  0  0
    1.6860   -0.2444   10.2865 C   0  0  0  0  0  0  0  0  0  0  0  0
    1.9209    2.2126   10.4684 C   0  0  0  0  0  0  0  0  0  0  0  0
  2  1  1  6
  2  3  1  0
  3  4  1  0
  4  5  1  0
  5  6  2  0
  6  7  1  0
  7  8  2  0
  8  9  1  0
  9 10  2  0
 10 11  1  0
 11 12  2  0
 12 13  1  0
 13 14  2  0
 14 15  1  0
 15 16  2  0
 16 17  1  0
  2 18  1  0
 18 19  1  0
 19 20  1  0
 20 21  1  0
 20 22  1  0
 10  5  1  0
 16 11  1  0
 17  9  1  0
M  CHG  1  19   1
M  END
$$$$
