
     RDKit          3D

 22 24  0  0  0  0  0  0  0  0999 V2000
    0.1715    0.5236    6.7406 O   0  0  0  0  0  0  0  0  0  0  0  0
   -0.5511    1.6063    7.1279 C   0  0  2  0  0  0  0  0  0  0  0  0
   -0.4714    2.8335    6.2855 C   0  0  0  0  0  0  0  0  0  0  0  0
   -1.3471    3.8410    6.4745 O   0  0  0  0  0  0  0  0  0  0  0  0
   -1.8897    4.8844    5.8448 C   0  0  0  0  0  0  0  0  0  0  0  0
   -1.6757    5.2571    4.5424 C   0  0  0  0  0  0  0  0  0  0  0  0
   -2.2890    6.3537    3.9873 C   0  0  0  0  0  0  0  0  0  0  0  0
   -3.1497    7.1249    4.7263 C   0  0  0  0  0  0  0  0  0  0  0  0
   -3.3938    6.7888    6.0333 C   0  0  0  0  0  0  0  0  0  0  0  0
   -2.7753    5.6957    6.5688 C   0  0  0  0  0  0  0  0  0  0  0  0
   -3.2014    5.5960    7.8862 C   0  0  0  0  0  0  0  0  0  0  0  0
   -2.9182    4.7042    8.9055 C   0  0  0  0  0  0  0  0  0  0  0  0
   -3.5273    4.8997   10.1206 C   0  0  0  0  0  0  0  0  0  0  0  0
   -4.3944    5.9494   10.3243 C   0  0  0  0  0  0  0  0  0  0  0  0
   -4.6816    6.8416    9.3148 C   0  0  0  0  0  0  0  0  0  0  0  0
   -4.0673    6.6467    8.0850 C   0  0  0  0  0  0  0  0  0  0  0  0
   -4.1834    7.3700    6.9598 N   0  0  0  0  0  0  0  0  0  0  0  0
   -0.1825    1.9138    8.5920 C   0  0  0  0  0  0  0  0  0  0  0  0
   -0.0818    0.6322    9.2550 N   0  0  0  0  0  4  0  0  0  0  0  0
    0.2159    0.7267   10.6464 C   0  0  0  0  0  0  0  0  0  0  0  0
   -0.2473   -0.5875   11.2898 C   0  0  0  0  0  0  0  0  0  0  0  0
    1.7137    0.8506   10.8299 C   0  0  0  0  0  0  0  0  0  0  0  0
  2  1  1  6
  2  3  1  0
  3  4  1  0
  4  5  1  0
  5  6  2  0
  6  7  1  0
  7  8  2  0
  8  9  1  0
  9 10  2  0
 10 11  1  0
 11 12  2  0
 12 13  1  0
 13 14  2  0
 14 15  1  0
 15 16  2  0
 16 17  1  0
  2 18  1  0
 18 19  1  0
 19 20  1  0
 20 21  1  0
 20 22  1  0
 10  5  1  0
 16 11  1  0
 17  9  1  0
M  CHG  1  19   1
M  END
$$$$
