
     RDKit          3D

 22 24  0  0  0  0  0  0  0  0999 V2000
    1.4514    2.3887    8.2235 O   0  0  0  0  0  0  0  0  0  0  0  0
    0.3542    1.6414    7.9366 C   0  0  2  0  0  0  0  0  0  0  0  0
   -0.5723    2.1424    6.8818 C   0  0  0  0  0  0  0  0  0  0  0  0
   -1.1446    3.3567    7.0064 O   0  0  0  0  0  0  0  0  0  0  0  0
   -1.6015    4.3751    6.2759 C   0  0  0  0  0  0  0  0  0  0  0  0
   -1.3386    4.6165    4.9516 C   0  0  0  0  0  0  0  0  0  0  0  0
   -1.8637    5.6992    4.2891 C   0  0  0  0  0  0  0  0  0  0  0  0
   -2.6817    6.5891    4.9378 C   0  0  0  0  0  0  0  0  0  0  0  0
   -2.9723    6.3865    6.2627 C   0  0  0  0  0  0  0  0  0  0  0  0
   -2.4414    5.3053    6.9055 C   0  0  0  0  0  0  0  0  0  0  0  0
   -2.8970    5.3510    8.2159 C   0  0  0  0  0  0  0  0  0  0  0  0
   -2.6952    4.5351    9.3150 C   0  0  0  0  0  0  0  0  0  0  0  0
   -3.3111    4.8776   10.4936 C   0  0  0  0  0  0  0  0  0  0  0  0
   -4.1063    5.9976   10.5848 C   0  0  0  0  0  0  0  0  0  0  0  0
   -4.3123    6.8151    9.4953 C   0  0  0  0  0  0  0  0  0  0  0  0
   -3.6910    6.4715    8.3022 C   0  0  0  0  0  0  0  0  0  0  0  0
   -3.7360    7.0993    7.1161 N   0  0  0  0  0  0  0  0  0  0  0  0
   -0.3956    1.3869    9.2583 C   0  0  0  0  0  0  0  0  0  0  0  0
    0.4134    0.4449   10.0002 N   0  0  0  0  0  4  0  0  0  0  0  0
   -0.1219    0.1095   11.2787 C   0  0  0  0  0  0  0  0  0  0  0  0
   -0.7150   -1.3007   11.1556 C   0  0  0  0  0  0  0  0  0  0  0  0
    0.9989    0.0731   12.2960 C   0  0  0  0  0  0  0  0  0  0  0  0
  2  1  1  1
  2  3  1  0
  3  4  1  0
  4  5  1  0
  5  6  2  0
  6  7  1  0
  7  8  2  0
  8  9  1  0
  9 10  2  0
 10 11  1  0
 11 12  2  0
 12 13  1  0
 13 14  2  0
 14 15  1  0
 15 16  2  0
 16 17  1  0
  2 18  1  0
 18 19  1  0
 19 20  1  0
 20 21  1  0
 20 22  1  0
 10  5  1  0
 16 11  1  0
 17  9  1  0
M  CHG  1  19   1
M  END
$$$$
