
     RDKit          3D

 22 24  0  0  0  0  0  0  0  0999 V2000
    1.2586    2.0792    6.8630 O   0  0  0  0  0  0  0  0  0  0  0  0
    0.0740    1.6141    7.3372 C   0  0  2  0  0  0  0  0  0  0  0  0
   -1.1761    2.1147    6.6979 C   0  0  0  0  0  0  0  0  0  0  0  0
   -1.5163    3.4148    6.8057 O   0  0  0  0  0  0  0  0  0  0  0  0
   -1.8499    4.4715    6.0630 C   0  0  0  0  0  0  0  0  0  0  0  0
   -1.4479    4.7290    4.7772 C   0  0  0  0  0  0  0  0  0  0  0  0
   -1.8528    5.8518    4.0973 C   0  0  0  0  0  0  0  0  0  0  0  0
   -2.6856    6.7675    4.6886 C   0  0  0  0  0  0  0  0  0  0  0  0
   -3.1132    6.5501    5.9734 C   0  0  0  0  0  0  0  0  0  0  0  0
   -2.7006    5.4289    6.6343 C   0  0  0  0  0  0  0  0  0  0  0  0
   -3.2789    5.4683    7.8957 C   0  0  0  0  0  0  0  0  0  0  0  0
   -3.2249    4.6184    8.9863 C   0  0  0  0  0  0  0  0  0  0  0  0
   -3.9351    4.9653   10.1092 C   0  0  0  0  0  0  0  0  0  0  0  0
   -4.6799    6.1221   10.1544 C   0  0  0  0  0  0  0  0  0  0  0  0
   -4.7388    6.9735    9.0730 C   0  0  0  0  0  0  0  0  0  0  0  0
   -4.0219    6.6257    7.9361 C   0  0  0  0  0  0  0  0  0  0  0  0
   -3.9207    7.2816    6.7688 N   0  0  0  0  0  0  0  0  0  0  0  0
    0.0537    1.8549    8.8589 C   0  0  0  0  0  0  0  0  0  0  0  0
    0.5404    0.6336    9.4620 N   0  0  0  0  0  4  0  0  0  0  0  0
    0.6054    0.6819   10.8857 C   0  0  0  0  0  0  0  0  0  0  0  0
   -0.8386    0.6010   11.3991 C   0  0  0  0  0  0  0  0  0  0  0  0
    1.3649   -0.5259   11.3927 C   0  0  0  0  0  0  0  0  0  0  0  0
  2  1  1  6
  2  3  1  0
  3  4  1  0
  4  5  1  0
  5  6  2  0
  6  7  1  0
  7  8  2  0
  8  9  1  0
  9 10  2  0
 10 11  1  0
 11 12  2  0
 12 13  1  0
 13 14  2  0
 14 15  1  0
 15 16  2  0
 16 17  1  0
  2 18  1  0
 18 19  1  0
 19 20  1  0
 20 21  1  0
 20 22  1  0
 10  5  1  0
 16 11  1  0
 17  9  1  0
M  CHG  1  19   1
M  END
$$$$
