
     RDKit          3D

 22 24  0  0  0  0  0  0  0  0999 V2000
    0.8247    0.9789    6.3627 O   0  0  0  0  0  0  0  0  0  0  0  0
   -0.2099    1.8059    6.6628 C   0  0  2  0  0  0  0  0  0  0  0  0
   -0.5753    2.8527    5.6665 C   0  0  0  0  0  0  0  0  0  0  0  0
   -1.4030    3.8581    6.0153 O   0  0  0  0  0  0  0  0  0  0  0  0
   -1.9643    4.9652    5.5267 C   0  0  0  0  0  0  0  0  0  0  0  0
   -1.7711    5.4995    4.2784 C   0  0  0  0  0  0  0  0  0  0  0  0
   -2.4028    6.6493    3.8712 C   0  0  0  0  0  0  0  0  0  0  0  0
   -3.2617    7.3124    4.7104 C   0  0  0  0  0  0  0  0  0  0  0  0
   -3.4854    6.8135    5.9681 C   0  0  0  0  0  0  0  0  0  0  0  0
   -2.8488    5.6697    6.3563 C   0  0  0  0  0  0  0  0  0  0  0  0
   -3.2567    5.4020    7.6559 C   0  0  0  0  0  0  0  0  0  0  0  0
   -2.9512    4.3938    8.5529 C   0  0  0  0  0  0  0  0  0  0  0  0
   -3.5466    4.4295    9.7898 C   0  0  0  0  0  0  0  0  0  0  0  0
   -4.4216    5.4354   10.1326 C   0  0  0  0  0  0  0  0  0  0  0  0
   -4.7311    6.4427    9.2454 C   0  0  0  0  0  0  0  0  0  0  0  0
   -4.1308    6.4095    7.9939 C   0  0  0  0  0  0  0  0  0  0  0  0
   -4.2689    7.2657    6.9688 N   0  0  0  0  0  0  0  0  0  0  0  0
    0.0760    2.4291    8.0426 C   0  0  0  0  0  0  0  0  0  0  0  0
    0.5417    1.3458    8.8803 N   0  0  0  0  0  4  0  0  0  0  0  0
    0.7741    1.7257   10.2349 C   0  0  0  0  0  0  0  0  0  0  0  0
    0.5624    0.4696   11.0909 C   0  0  0  0  0  0  0  0  0  0  0  0
    2.2116    2.1760   10.3883 C   0  0  0  0  0  0  0  0  0  0  0  0
  2  1  1  6
  2  3  1  0
  3  4  1  0
  4  5  1  0
  5  6  2  0
  6  7  1  0
  7  8  2  0
  8  9  1  0
  9 10  2  0
 10 11  1  0
 11 12  2  0
 12 13  1  0
 13 14  2  0
 14 15  1  0
 15 16  2  0
 16 17  1  0
  2 18  1  0
 18 19  1  0
 19 20  1  0
 20 21  1  0
 20 22  1  0
 10  5  1  0
 16 11  1  0
 17  9  1  0
M  CHG  1  19   1
M  END
$$$$
