
     RDKit          3D

 22 24  0  0  0  0  0  0  0  0999 V2000
    0.9953    2.9416    9.1910 O   0  0  0  0  0  0  0  0  0  0  0  0
    0.4735    2.0538    8.3056 C   0  0  2  0  0  0  0  0  0  0  0  0
   -0.1232    2.5923    7.0502 C   0  0  0  0  0  0  0  0  0  0  0  0
   -1.0262    3.5918    7.1058 O   0  0  0  0  0  0  0  0  0  0  0  0
   -1.6699    4.4616    6.3256 C   0  0  0  0  0  0  0  0  0  0  0  0
   -1.5104    4.6229    4.9729 C   0  0  0  0  0  0  0  0  0  0  0  0
   -2.2282    5.5516    4.2594 C   0  0  0  0  0  0  0  0  0  0  0  0
   -3.1432    6.3611    4.8833 C   0  0  0  0  0  0  0  0  0  0  0  0
   -3.3360    6.2338    6.2352 C   0  0  0  0  0  0  0  0  0  0  0  0
   -2.6136    5.3058    6.9287 C   0  0  0  0  0  0  0  0  0  0  0  0
   -3.0086    5.3968    8.2564 C   0  0  0  0  0  0  0  0  0  0  0  0
   -2.6308    4.7201    9.4026 C   0  0  0  0  0  0  0  0  0  0  0  0
   -3.2362    5.0676   10.5851 C   0  0  0  0  0  0  0  0  0  0  0  0
   -4.1908    6.0583   10.6348 C   0  0  0  0  0  0  0  0  0  0  0  0
   -4.5725    6.7367    9.4982 C   0  0  0  0  0  0  0  0  0  0  0  0
   -3.9622    6.3877    8.3010 C   0  0  0  0  0  0  0  0  0  0  0  0
   -4.1602    6.8951    7.0737 N   0  0  0  0  0  0  0  0  0  0  0  0
   -0.5368    1.1743    9.0671 C   0  0  0  0  0  0  0  0  0  0  0  0
    0.2518    0.2447    9.8457 N   0  0  0  0  0  4  0  0  0  0  0  0
   -0.5222   -0.7590   10.4991 C   0  0  0  0  0  0  0  0  0  0  0  0
    0.4146   -1.9481   10.7511 C   0  0  0  0  0  0  0  0  0  0  0  0
   -0.9999   -0.2309   11.8353 C   0  0  0  0  0  0  0  0  0  0  0  0
  2  1  1  1
  2  3  1  0
  3  4  1  0
  4  5  1  0
  5  6  2  0
  6  7  1  0
  7  8  2  0
  8  9  1  0
  9 10  2  0
 10 11  1  0
 11 12  2  0
 12 13  1  0
 13 14  2  0
 14 15  1  0
 15 16  2  0
 16 17  1  0
  2 18  1  0
 18 19  1  0
 19 20  1  0
 20 21  1  0
 20 22  1  0
 10  5  1  0
 16 11  1  0
 17  9  1  0
M  CHG  1  19   1
M  END
$$$$
