
     RDKit          3D

 22 24  0  0  0  0  0  0  0  0999 V2000
   -0.4330    1.9682    6.5515 O   0  0  0  0  0  0  0  0  0  0  0  0
   -0.6785    1.6266    7.8428 C   0  0  2  0  0  0  0  0  0  0  0  0
   -1.9502    2.1016    8.4584 C   0  0  0  0  0  0  0  0  0  0  0  0
   -2.4738    3.2899    8.0960 O   0  0  0  0  0  0  0  0  0  0  0  0
   -3.3249    4.2273    8.5162 C   0  0  0  0  0  0  0  0  0  0  0  0
   -4.0143    4.2360    9.7018 C   0  0  0  0  0  0  0  0  0  0  0  0
   -4.8695    5.2559   10.0410 C   0  0  0  0  0  0  0  0  0  0  0  0
   -5.0663    6.3170    9.1941 C   0  0  0  0  0  0  0  0  0  0  0  0
   -4.3968    6.3503    7.9977 C   0  0  0  0  0  0  0  0  0  0  0  0
   -3.5509    5.3278    7.6766 C   0  0  0  0  0  0  0  0  0  0  0  0
   -3.0191    5.6208    6.4283 C   0  0  0  0  0  0  0  0  0  0  0  0
   -2.1202    4.9638    5.6068 C   0  0  0  0  0  0  0  0  0  0  0  0
   -1.8018    5.5458    4.4045 C   0  0  0  0  0  0  0  0  0  0  0  0
   -2.3569    6.7463    4.0227 C   0  0  0  0  0  0  0  0  0  0  0  0
   -3.2525    7.4067    4.8348 C   0  0  0  0  0  0  0  0  0  0  0  0
   -3.5766    6.8209    6.0511 C   0  0  0  0  0  0  0  0  0  0  0  0
   -4.4126    7.2628    7.0044 N   0  0  0  0  0  0  0  0  0  0  0  0
    0.5395    2.0617    8.6801 C   0  0  0  0  0  0  0  0  0  0  0  0
    1.3829    0.8921    8.7941 N   0  0  0  0  0  4  0  0  0  0  0  0
    2.1159    0.8289   10.0156 C   0  0  0  0  0  0  0  0  0  0  0  0
    2.8304   -0.5293   10.0348 C   0  0  0  0  0  0  0  0  0  0  0  0
    3.1622    1.9233   10.0281 C   0  0  0  0  0  0  0  0  0  0  0  0
  2  1  1  6
  2  3  1  0
  3  4  1  0
  4  5  1  0
  5  6  2  0
  6  7  1  0
  7  8  2  0
  8  9  1  0
  9 10  2  0
 10 11  1  0
 11 12  2  0
 12 13  1  0
 13 14  2  0
 14 15  1  0
 15 16  2  0
 16 17  1  0
  2 18  1  0
 18 19  1  0
 19 20  1  0
 20 21  1  0
 20 22  1  0
 10  5  1  0
 16 11  1  0
 17  9  1  0
M  CHG  1  19   1
M  END
$$$$
