
     RDKit          3D

 22 24  0  0  0  0  0  0  0  0999 V2000
   -0.2497    1.8270    6.5001 O   0  0  0  0  0  0  0  0  0  0  0  0
   -0.6444    1.5405    7.7676 C   0  0  2  0  0  0  0  0  0  0  0  0
   -2.0138    1.9594    8.1813 C   0  0  0  0  0  0  0  0  0  0  0  0
   -2.4458    3.2095    7.9203 O   0  0  0  0  0  0  0  0  0  0  0  0
   -3.2839    4.1411    8.3777 C   0  0  0  0  0  0  0  0  0  0  0  0
   -3.9570    4.1221    9.5726 C   0  0  0  0  0  0  0  0  0  0  0  0
   -4.7998    5.1385    9.9514 C   0  0  0  0  0  0  0  0  0  0  0  0
   -5.0002    6.2237    9.1367 C   0  0  0  0  0  0  0  0  0  0  0  0
   -4.3468    6.2851    7.9324 C   0  0  0  0  0  0  0  0  0  0  0  0
   -3.5131    5.2658    7.5718 C   0  0  0  0  0  0  0  0  0  0  0  0
   -2.9963    5.5891    6.3247 C   0  0  0  0  0  0  0  0  0  0  0  0
   -2.1136    4.9486    5.4731 C   0  0  0  0  0  0  0  0  0  0  0  0
   -1.8073    5.5611    4.2829 C   0  0  0  0  0  0  0  0  0  0  0  0
   -2.3584    6.7756    3.9419 C   0  0  0  0  0  0  0  0  0  0  0  0
   -3.2379    7.4198    4.7841 C   0  0  0  0  0  0  0  0  0  0  0  0
   -3.5497    6.8032    5.9883 C   0  0  0  0  0  0  0  0  0  0  0  0
   -4.3693    7.2247    6.9648 N   0  0  0  0  0  0  0  0  0  0  0  0
    0.4216    2.1041    8.7269 C   0  0  0  0  0  0  0  0  0  0  0  0
    1.3747    1.0362    8.9349 N   0  0  0  0  0  4  0  0  0  0  0  0
    2.0016    1.0667   10.2154 C   0  0  0  0  0  0  0  0  0  0  0  0
    2.4132   -0.3751   10.5427 C   0  0  0  0  0  0  0  0  0  0  0  0
    3.2512    1.9186   10.1400 C   0  0  0  0  0  0  0  0  0  0  0  0
  2  1  1  6
  2  3  1  0
  3  4  1  0
  4  5  1  0
  5  6  2  0
  6  7  1  0
  7  8  2  0
  8  9  1  0
  9 10  2  0
 10 11  1  0
 11 12  2  0
 12 13  1  0
 13 14  2  0
 14 15  1  0
 15 16  2  0
 16 17  1  0
  2 18  1  0
 18 19  1  0
 19 20  1  0
 20 21  1  0
 20 22  1  0
 10  5  1  0
 16 11  1  0
 17  9  1  0
M  CHG  1  19   1
M  END
$$$$
