
     RDKit          3D

 22 24  0  0  0  0  0  0  0  0999 V2000
    0.8075    1.3929    6.3146 O   0  0  0  0  0  0  0  0  0  0  0  0
   -0.4557    1.3803    6.8133 C   0  0  2  0  0  0  0  0  0  0  0  0
   -1.5005    2.1511    6.0809 C   0  0  0  0  0  0  0  0  0  0  0  0
   -1.6090    3.4827    6.2617 O   0  0  0  0  0  0  0  0  0  0  0  0
   -2.0782    4.5818    5.6690 C   0  0  0  0  0  0  0  0  0  0  0  0
   -1.8031    5.0061    4.3940 C   0  0  0  0  0  0  0  0  0  0  0  0
   -2.3428    6.1582    3.8762 C   0  0  0  0  0  0  0  0  0  0  0  0
   -3.1883    6.9355    4.6264 C   0  0  0  0  0  0  0  0  0  0  0  0
   -3.4918    6.5490    5.9068 C   0  0  0  0  0  0  0  0  0  0  0  0
   -2.9461    5.4011    6.4054 C   0  0  0  0  0  0  0  0  0  0  0  0
   -3.4198    5.2593    7.7025 C   0  0  0  0  0  0  0  0  0  0  0  0
   -3.2149    4.3056    8.6839 C   0  0  0  0  0  0  0  0  0  0  0  0
   -3.8535    4.4726    9.8880 C   0  0  0  0  0  0  0  0  0  0  0  0
   -4.6739    5.5540   10.1176 C   0  0  0  0  0  0  0  0  0  0  0  0
   -4.8831    6.5078    9.1459 C   0  0  0  0  0  0  0  0  0  0  0  0
   -4.2389    6.3419    7.9273 C   0  0  0  0  0  0  0  0  0  0  0  0
   -4.2819    7.1240    6.8367 N   0  0  0  0  0  0  0  0  0  0  0  0
   -0.3789    1.8145    8.2896 C   0  0  0  0  0  0  0  0  0  0  0  0
    0.2426    0.7160    8.9961 N   0  0  0  0  0  4  0  0  0  0  0  0
    0.4327    0.9618   10.3878 C   0  0  0  0  0  0  0  0  0  0  0  0
   -0.7363    0.2901   11.1210 C   0  0  0  0  0  0  0  0  0  0  0  0
    1.7225    0.3094   10.8390 C   0  0  0  0  0  0  0  0  0  0  0  0
  2  1  1  6
  2  3  1  0
  3  4  1  0
  4  5  1  0
  5  6  2  0
  6  7  1  0
  7  8  2  0
  8  9  1  0
  9 10  2  0
 10 11  1  0
 11 12  2  0
 12 13  1  0
 13 14  2  0
 14 15  1  0
 15 16  2  0
 16 17  1  0
  2 18  1  0
 18 19  1  0
 19 20  1  0
 20 21  1  0
 20 22  1  0
 10  5  1  0
 16 11  1  0
 17  9  1  0
M  CHG  1  19   1
M  END
$$$$
