
     RDKit          3D

 21 23  0  0  0  0  0  0  0  0999 V2000
    0.7414   -1.7458    6.3969 C   0  0  0  0  0  0  0  0  0  0  0  0
    0.1545   -0.9050    7.4106 N   0  0  0  0  0  4  0  0  0  0  0  0
   -0.5630    0.2361    6.8895 C   0  0  0  0  0  0  0  0  0  0  0  0
   -1.4993    0.7997    7.8936 C   0  0  0  0  0  0  0  0  0  0  0  0
   -2.6312    1.6017    7.4489 C   0  0  0  0  0  0  0  0  0  0  0  0
   -2.7793    2.8738    7.7191 C   0  0  0  0  0  0  0  0  0  0  0  0
   -2.7308    3.8704    6.6225 C   0  0  0  0  0  0  0  0  0  0  0  0
   -1.8396    3.4320    5.6877 C   0  0  0  0  0  0  0  0  0  0  0  0
   -1.7031    4.2422    4.5760 C   0  0  0  0  0  0  0  0  0  0  0  0
   -2.4481    5.4233    4.4604 C   0  0  0  0  0  0  0  0  0  0  0  0
   -3.3379    5.7991    5.4646 C   0  0  0  0  0  0  0  0  0  0  0  0
   -3.4930    5.0199    6.5708 C   0  0  0  0  0  0  0  0  0  0  0  0
   -4.3993    5.4630    7.5293 O   0  0  0  0  0  0  0  0  0  0  0  0
   -4.9183    4.9679    8.7302 C   0  0  0  0  0  0  0  0  0  0  0  0
   -4.0186    4.0993    9.5209 C   0  0  0  0  0  0  0  0  0  0  0  0
   -3.0348    3.2005    9.1259 C   0  0  0  0  0  0  0  0  0  0  0  0
   -2.2186    2.4775    9.9226 C   0  0  0  0  0  0  0  0  0  0  0  0
   -2.3944    2.6527   11.2813 C   0  0  0  0  0  0  0  0  0  0  0  0
   -3.3682    3.5391   11.7716 C   0  0  0  0  0  0  0  0  0  0  0  0
   -4.1734    4.2573   10.8749 C   0  0  0  0  0  0  0  0  0  0  0  0
    1.1276   -0.5238    8.4178 C   0  0  0  0  0  0  0  0  0  0  0  0
  1  2  1  0
  2  3  1  0
  3  4  1  0
  4  5  1  0
  5  6  2  0
  6  7  1  0
  7  8  2  0
  8  9  1  0
  9 10  2  0
 10 11  1  0
 11 12  2  0
 12 13  1  0
 13 14  1  0
 14 15  1  0
 15 16  2  0
 16 17  1  0
 17 18  2  0
 18 19  1  0
 19 20  2  0
  2 21  1  0
 16  6  1  0
 12  7  1  0
 20 15  1  0
M  CHG  1   2   1
M  END
$$$$
