
     RDKit          3D

 21 23  0  0  0  0  0  0  0  0999 V2000
    0.8847   -0.8313    7.8553 C   0  0  0  0  0  0  0  0  0  0  0  0
    0.1677   -1.0068    6.6167 N   0  0  0  0  0  4  0  0  0  0  0  0
   -1.1720   -0.4650    6.6272 C   0  0  0  0  0  0  0  0  0  0  0  0
   -1.1716    1.0016    6.4002 C   0  0  0  0  0  0  0  0  0  0  0  0
   -2.3992    1.7595    6.6018 C   0  0  0  0  0  0  0  0  0  0  0  0
   -2.4446    2.9515    7.1405 C   0  0  0  0  0  0  0  0  0  0  0  0
   -2.4305    4.1534    6.2726 C   0  0  0  0  0  0  0  0  0  0  0  0
   -1.6529    3.8842    5.1849 C   0  0  0  0  0  0  0  0  0  0  0  0
   -1.5641    4.9034    4.2553 C   0  0  0  0  0  0  0  0  0  0  0  0
   -2.2422    6.1128    4.4583 C   0  0  0  0  0  0  0  0  0  0  0  0
   -3.0162    6.3062    5.6006 C   0  0  0  0  0  0  0  0  0  0  0  0
   -3.1220    5.3191    6.5331 C   0  0  0  0  0  0  0  0  0  0  0  0
   -3.9123    5.5887    7.6463 O   0  0  0  0  0  0  0  0  0  0  0  0
   -4.3542    4.8745    8.7650 C   0  0  0  0  0  0  0  0  0  0  0  0
   -3.4443    3.8220    9.2683 C   0  0  0  0  0  0  0  0  0  0  0  0
   -2.5559    2.9857    8.6027 C   0  0  0  0  0  0  0  0  0  0  0  0
   -1.7194    2.0777    9.1499 C   0  0  0  0  0  0  0  0  0  0  0  0
   -1.7650    1.9706   10.5262 C   0  0  0  0  0  0  0  0  0  0  0  0
   -2.6359    2.7743   11.2811 C   0  0  0  0  0  0  0  0  0  0  0  0
   -3.4704    3.6982   10.6344 C   0  0  0  0  0  0  0  0  0  0  0  0
    0.1933   -2.3894    6.1759 C   0  0  0  0  0  0  0  0  0  0  0  0
  1  2  1  0
  2  3  1  0
  3  4  1  0
  4  5  1  0
  5  6  2  0
  6  7  1  0
  7  8  2  0
  8  9  1  0
  9 10  2  0
 10 11  1  0
 11 12  2  0
 12 13  1  0
 13 14  1  0
 14 15  1  0
 15 16  2  0
 16 17  1  0
 17 18  2  0
 18 19  1  0
 19 20  2  0
  2 21  1  0
 16  6  1  0
 12  7  1  0
 20 15  1  0
M  CHG  1   2   1
M  END
$$$$
