
     RDKit          3D

 21 23  0  0  0  0  0  0  0  0999 V2000
    0.0484   -1.8999    7.3146 C   0  0  0  0  0  0  0  0  0  0  0  0
    0.3506   -0.6105    7.8846 N   0  0  0  0  0  4  0  0  0  0  0  0
   -0.0259    0.5077    7.0502 C   0  0  0  0  0  0  0  0  0  0  0  0
   -0.6476    1.5977    7.8425 C   0  0  0  0  0  0  0  0  0  0  0  0
   -1.9994    2.0365    7.5227 C   0  0  0  0  0  0  0  0  0  0  0  0
   -2.5669    3.0974    8.0382 C   0  0  0  0  0  0  0  0  0  0  0  0
   -2.8925    4.2541    7.1698 C   0  0  0  0  0  0  0  0  0  0  0  0
   -1.9309    4.3480    6.2072 C   0  0  0  0  0  0  0  0  0  0  0  0
   -2.1105    5.3668    5.2903 C   0  0  0  0  0  0  0  0  0  0  0  0
   -3.2179    6.2205    5.3827 C   0  0  0  0  0  0  0  0  0  0  0  0
   -4.1548    6.0553    6.4007 C   0  0  0  0  0  0  0  0  0  0  0  0
   -4.0034    5.0597    7.3177 C   0  0  0  0  0  0  0  0  0  0  0  0
   -4.9802    4.9601    8.3038 O   0  0  0  0  0  0  0  0  0  0  0  0
   -5.2653    4.0817    9.3545 C   0  0  0  0  0  0  0  0  0  0  0  0
   -4.1013    3.4283    9.9927 C   0  0  0  0  0  0  0  0  0  0  0  0
   -2.8804    3.0202    9.4690 C   0  0  0  0  0  0  0  0  0  0  0  0
   -1.8444    2.4708   10.1388 C   0  0  0  0  0  0  0  0  0  0  0  0
   -2.0326    2.2916   11.4953 C   0  0  0  0  0  0  0  0  0  0  0  0
   -3.2373    2.6721   12.1103 C   0  0  0  0  0  0  0  0  0  0  0  0
   -4.2639    3.2415   11.3421 C   0  0  0  0  0  0  0  0  0  0  0  0
    1.7341   -0.5278    8.3155 C   0  0  0  0  0  0  0  0  0  0  0  0
  1  2  1  0
  2  3  1  0
  3  4  1  0
  4  5  1  0
  5  6  2  0
  6  7  1  0
  7  8  2  0
  8  9  1  0
  9 10  2  0
 10 11  1  0
 11 12  2  0
 12 13  1  0
 13 14  1  0
 14 15  1  0
 15 16  2  0
 16 17  1  0
 17 18  2  0
 18 19  1  0
 19 20  2  0
  2 21  1  0
 16  6  1  0
 12  7  1  0
 20 15  1  0
M  CHG  1   2   1
M  END
$$$$
