
     RDKit          3D

 21 23  0  0  0  0  0  0  0  0999 V2000
    0.4707    1.8740   10.9719 C   0  0  0  0  0  0  0  0  0  0  0  0
    1.1252    1.3627    9.7933 N   0  0  0  0  0  4  0  0  0  0  0  0
    0.2311    1.0941    8.6902 C   0  0  0  0  0  0  0  0  0  0  0  0
   -0.4805    2.3200    8.2507 C   0  0  0  0  0  0  0  0  0  0  0  0
   -0.7253    2.5382    6.8314 C   0  0  0  0  0  0  0  0  0  0  0  0
   -1.8696    2.3047    6.2405 C   0  0  0  0  0  0  0  0  0  0  0  0
   -2.8952    3.3731    6.1725 C   0  0  0  0  0  0  0  0  0  0  0  0
   -2.8125    4.1161    7.3133 C   0  0  0  0  0  0  0  0  0  0  0  0
   -3.6896    5.1819    7.3890 C   0  0  0  0  0  0  0  0  0  0  0  0
   -4.5849    5.4425    6.3431 C   0  0  0  0  0  0  0  0  0  0  0  0
   -4.6045    4.6309    5.2106 C   0  0  0  0  0  0  0  0  0  0  0  0
   -3.7514    3.5742    5.1087 C   0  0  0  0  0  0  0  0  0  0  0  0
   -3.8325    2.8109    3.9481 O   0  0  0  0  0  0  0  0  0  0  0  0
   -3.1298    1.7326    3.4001 C   0  0  0  0  0  0  0  0  0  0  0  0
   -2.5389    0.7804    4.3662 C   0  0  0  0  0  0  0  0  0  0  0  0
   -2.0162    0.9749    5.6392 C   0  0  0  0  0  0  0  0  0  0  0  0
   -1.5370    0.0334    6.4804 C   0  0  0  0  0  0  0  0  0  0  0  0
   -1.5675   -1.2649    6.0102 C   0  0  0  0  0  0  0  0  0  0  0  0
   -2.0759   -1.5549    4.7328 C   0  0  0  0  0  0  0  0  0  0  0  0
   -2.5599   -0.5174    3.9219 C   0  0  0  0  0  0  0  0  0  0  0  0
    1.9678    0.2220   10.1024 C   0  0  0  0  0  0  0  0  0  0  0  0
  1  2  1  0
  2  3  1  0
  3  4  1  0
  4  5  1  0
  5  6  2  0
  6  7  1  0
  7  8  2  0
  8  9  1  0
  9 10  2  0
 10 11  1  0
 11 12  2  0
 12 13  1  0
 13 14  1  0
 14 15  1  0
 15 16  2  0
 16 17  1  0
 17 18  2  0
 18 19  1  0
 19 20  2  0
  2 21  1  0
 16  6  1  0
 12  7  1  0
 20 15  1  0
M  CHG  1   2   1
M  END
$$$$
