
     RDKit          3D

 21 23  0  0  0  0  0  0  0  0999 V2000
   -0.9699   -1.7766    7.7347 C   0  0  0  0  0  0  0  0  0  0  0  0
   -0.2867   -1.2897    6.5620 N   0  0  0  0  0  4  0  0  0  0  0  0
   -0.6669    0.0480    6.1691 C   0  0  0  0  0  0  0  0  0  0  0  0
   -0.3468    1.0409    7.2247 C   0  0  0  0  0  0  0  0  0  0  0  0
   -0.5683    2.4577    6.9685 C   0  0  0  0  0  0  0  0  0  0  0  0
   -1.6488    3.1063    7.3221 C   0  0  0  0  0  0  0  0  0  0  0  0
   -2.2815    2.8245    8.6329 C   0  0  0  0  0  0  0  0  0  0  0  0
   -2.1139    1.4998    8.9108 C   0  0  0  0  0  0  0  0  0  0  0  0
   -2.6246    1.0817   10.1254 C   0  0  0  0  0  0  0  0  0  0  0  0
   -3.2634    1.9905   10.9795 C   0  0  0  0  0  0  0  0  0  0  0  0
   -3.3936    3.3296   10.6172 C   0  0  0  0  0  0  0  0  0  0  0  0
   -2.8995    3.7696    9.4268 C   0  0  0  0  0  0  0  0  0  0  0  0
   -3.0694    5.1198    9.1365 O   0  0  0  0  0  0  0  0  0  0  0  0
   -2.6701    5.9891    8.1158 C   0  0  0  0  0  0  0  0  0  0  0  0
   -2.5208    5.3910    6.7708 C   0  0  0  0  0  0  0  0  0  0  0  0
   -2.1218    4.1203    6.3737 C   0  0  0  0  0  0  0  0  0  0  0  0
   -2.0598    3.6377    5.1140 C   0  0  0  0  0  0  0  0  0  0  0  0
   -2.4295    4.5163    4.1145 C   0  0  0  0  0  0  0  0  0  0  0  0
   -2.8437    5.8230    4.4231 C   0  0  0  0  0  0  0  0  0  0  0  0
   -2.8846    6.2449    5.7605 C   0  0  0  0  0  0  0  0  0  0  0  0
   -0.3813   -2.2294    5.4599 C   0  0  0  0  0  0  0  0  0  0  0  0
  1  2  1  0
  2  3  1  0
  3  4  1  0
  4  5  1  0
  5  6  2  0
  6  7  1  0
  7  8  2  0
  8  9  1  0
  9 10  2  0
 10 11  1  0
 11 12  2  0
 12 13  1  0
 13 14  1  0
 14 15  1  0
 15 16  2  0
 16 17  1  0
 17 18  2  0
 18 19  1  0
 19 20  2  0
  2 21  1  0
 16  6  1  0
 12  7  1  0
 20 15  1  0
M  CHG  1   2   1
M  END
$$$$
