
     RDKit          3D

 21 23  0  0  0  0  0  0  0  0999 V2000
   -0.9279   -2.1649    6.1916 C   0  0  0  0  0  0  0  0  0  0  0  0
   -0.5536   -1.1729    7.1688 N   0  0  0  0  0  4  0  0  0  0  0  0
   -0.7453    0.1907    6.7303 C   0  0  0  0  0  0  0  0  0  0  0  0
   -0.3390    1.1642    7.7742 C   0  0  0  0  0  0  0  0  0  0  0  0
   -0.5104    2.5903    7.5315 C   0  0  0  0  0  0  0  0  0  0  0  0
   -1.6512    3.2215    7.6469 C   0  0  0  0  0  0  0  0  0  0  0  0
   -2.4602    3.0619    8.8790 C   0  0  0  0  0  0  0  0  0  0  0  0
   -2.2931    1.7878    9.3361 C   0  0  0  0  0  0  0  0  0  0  0  0
   -2.9630    1.4879   10.5075 C   0  0  0  0  0  0  0  0  0  0  0  0
   -3.7489    2.4566   11.1459 C   0  0  0  0  0  0  0  0  0  0  0  0
   -3.8670    3.7370   10.6093 C   0  0  0  0  0  0  0  0  0  0  0  0
   -3.2178    4.0606    9.4567 C   0  0  0  0  0  0  0  0  0  0  0  0
   -3.3862    5.3585    8.9838 O   0  0  0  0  0  0  0  0  0  0  0  0
   -2.8693    6.1229    7.9325 C   0  0  0  0  0  0  0  0  0  0  0  0
   -2.5052    5.3819    6.7047 C   0  0  0  0  0  0  0  0  0  0  0  0
   -2.0119    4.0951    6.5252 C   0  0  0  0  0  0  0  0  0  0  0  0
   -1.7503    3.4742    5.3548 C   0  0  0  0  0  0  0  0  0  0  0  0
   -1.9970    4.2125    4.2140 C   0  0  0  0  0  0  0  0  0  0  0  0
   -2.4935    5.5242    4.3001 C   0  0  0  0  0  0  0  0  0  0  0  0
   -2.7437    6.0949    5.5571 C   0  0  0  0  0  0  0  0  0  0  0  0
    0.7881   -1.3999    7.6737 C   0  0  0  0  0  0  0  0  0  0  0  0
  1  2  1  0
  2  3  1  0
  3  4  1  0
  4  5  1  0
  5  6  2  0
  6  7  1  0
  7  8  2  0
  8  9  1  0
  9 10  2  0
 10 11  1  0
 11 12  2  0
 12 13  1  0
 13 14  1  0
 14 15  1  0
 15 16  2  0
 16 17  1  0
 17 18  2  0
 18 19  1  0
 19 20  2  0
  2 21  1  0
 16  6  1  0
 12  7  1  0
 20 15  1  0
M  CHG  1   2   1
M  END
$$$$
