
     RDKit          3D

 21 23  0  0  0  0  0  0  0  0999 V2000
    1.7594    1.7446    9.5924 C   0  0  0  0  0  0  0  0  0  0  0  0
    0.5710    1.4457   10.3521 N   0  0  0  0  0  4  0  0  0  0  0  0
   -0.6243    2.0905    9.8580 C   0  0  0  0  0  0  0  0  0  0  0  0
   -0.8465    1.8037    8.4190 C   0  0  0  0  0  0  0  0  0  0  0  0
   -2.1683    2.0086    7.8420 C   0  0  0  0  0  0  0  0  0  0  0  0
   -2.4052    2.0714    6.5563 C   0  0  0  0  0  0  0  0  0  0  0  0
   -2.5560    3.3914    5.8985 C   0  0  0  0  0  0  0  0  0  0  0  0
   -3.1516    4.2423    6.7825 C   0  0  0  0  0  0  0  0  0  0  0  0
   -3.3344    5.5345    6.3270 C   0  0  0  0  0  0  0  0  0  0  0  0
   -2.9220    5.9000    5.0386 C   0  0  0  0  0  0  0  0  0  0  0  0
   -2.3213    4.9660    4.1971 C   0  0  0  0  0  0  0  0  0  0  0  0
   -2.1282    3.6858    4.6197 C   0  0  0  0  0  0  0  0  0  0  0  0
   -1.5230    2.8122    3.7213 O   0  0  0  0  0  0  0  0  0  0  0  0
   -1.0726    1.4882    3.7514 C   0  0  0  0  0  0  0  0  0  0  0  0
   -1.8144    0.5668    4.6402 C   0  0  0  0  0  0  0  0  0  0  0  0
   -2.4548    0.7844    5.8543 C   0  0  0  0  0  0  0  0  0  0  0  0
   -3.1568   -0.1108    6.5821 C   0  0  0  0  0  0  0  0  0  0  0  0
   -3.2348   -1.3851    6.0552 C   0  0  0  0  0  0  0  0  0  0  0  0
   -2.6147   -1.6970    4.8335 C   0  0  0  0  0  0  0  0  0  0  0  0
   -1.9073   -0.7060    4.1365 C   0  0  0  0  0  0  0  0  0  0  0  0
    0.7705    1.6802   11.7705 C   0  0  0  0  0  0  0  0  0  0  0  0
  1  2  1  0
  2  3  1  0
  3  4  1  0
  4  5  1  0
  5  6  2  0
  6  7  1  0
  7  8  2  0
  8  9  1  0
  9 10  2  0
 10 11  1  0
 11 12  2  0
 12 13  1  0
 13 14  1  0
 14 15  1  0
 15 16  2  0
 16 17  1  0
 17 18  2  0
 18 19  1  0
 19 20  2  0
  2 21  1  0
 16  6  1  0
 12  7  1  0
 20 15  1  0
M  CHG  1   2   1
M  END
$$$$
