
     RDKit          3D

 21 23  0  0  0  0  0  0  0  0999 V2000
    1.2422   -1.6356    8.2596 C   0  0  0  0  0  0  0  0  0  0  0  0
    0.8734   -0.2617    8.4946 N   0  0  0  0  0  4  0  0  0  0  0  0
   -0.0833    0.2639    7.5477 C   0  0  0  0  0  0  0  0  0  0  0  0
   -0.7864    1.4560    8.0835 C   0  0  0  0  0  0  0  0  0  0  0  0
   -2.0133    1.9131    7.4449 C   0  0  0  0  0  0  0  0  0  0  0  0
   -2.4616    3.1409    7.5131 C   0  0  0  0  0  0  0  0  0  0  0  0
   -2.3744    4.0241    6.3255 C   0  0  0  0  0  0  0  0  0  0  0  0
   -1.2351    3.7106    5.6443 C   0  0  0  0  0  0  0  0  0  0  0  0
   -1.0241    4.4305    4.4832 C   0  0  0  0  0  0  0  0  0  0  0  0
   -1.9429    5.4059    4.0736 C   0  0  0  0  0  0  0  0  0  0  0  0
   -3.0835    5.6650    4.8309 C   0  0  0  0  0  0  0  0  0  0  0  0
   -3.3173    4.9707    5.9790 C   0  0  0  0  0  0  0  0  0  0  0  0
   -4.4769    5.2876    6.6798 O   0  0  0  0  0  0  0  0  0  0  0  0
   -5.1348    4.7983    7.8132 C   0  0  0  0  0  0  0  0  0  0  0  0
   -4.2740    4.2195    8.8682 C   0  0  0  0  0  0  0  0  0  0  0  0
   -3.0721    3.5259    8.7899 C   0  0  0  0  0  0  0  0  0  0  0  0
   -2.3208    3.0709    9.8158 C   0  0  0  0  0  0  0  0  0  0  0  0
   -2.8152    3.3218   11.0808 C   0  0  0  0  0  0  0  0  0  0  0  0
   -4.0255    4.0139   11.2553 C   0  0  0  0  0  0  0  0  0  0  0  0
   -4.7438    4.4579   10.1349 C   0  0  0  0  0  0  0  0  0  0  0  0
    2.0413    0.5910    8.6202 C   0  0  0  0  0  0  0  0  0  0  0  0
  1  2  1  0
  2  3  1  0
  3  4  1  0
  4  5  1  0
  5  6  2  0
  6  7  1  0
  7  8  2  0
  8  9  1  0
  9 10  2  0
 10 11  1  0
 11 12  2  0
 12 13  1  0
 13 14  1  0
 14 15  1  0
 15 16  2  0
 16 17  1  0
 17 18  2  0
 18 19  1  0
 19 20  2  0
  2 21  1  0
 16  6  1  0
 12  7  1  0
 20 15  1  0
M  CHG  1   2   1
M  END
$$$$
