
     RDKit          3D

 21 23  0  0  0  0  0  0  0  0999 V2000
   -0.9301   -1.9966    6.8587 C   0  0  0  0  0  0  0  0  0  0  0  0
   -0.5575   -0.7288    6.2816 N   0  0  0  0  0  4  0  0  0  0  0  0
   -1.6663    0.1741    6.0722 C   0  0  0  0  0  0  0  0  0  0  0  0
   -1.2252    1.5911    6.0653 C   0  0  0  0  0  0  0  0  0  0  0  0
   -0.9596    2.2664    7.3284 C   0  0  0  0  0  0  0  0  0  0  0  0
   -1.7854    3.1071    7.8979 C   0  0  0  0  0  0  0  0  0  0  0  0
   -2.4633    4.1419    7.0807 C   0  0  0  0  0  0  0  0  0  0  0  0
   -1.6085    4.5308    6.0915 C   0  0  0  0  0  0  0  0  0  0  0  0
   -2.1091    5.4765    5.2164 C   0  0  0  0  0  0  0  0  0  0  0  0
   -3.4096    5.9739    5.3736 C   0  0  0  0  0  0  0  0  0  0  0  0
   -4.2181    5.5225    6.4148 C   0  0  0  0  0  0  0  0  0  0  0  0
   -3.7512    4.5909    7.2917 C   0  0  0  0  0  0  0  0  0  0  0  0
   -4.6178    4.1917    8.3046 O   0  0  0  0  0  0  0  0  0  0  0  0
   -4.5970    3.2437    9.3331 C   0  0  0  0  0  0  0  0  0  0  0  0
   -3.2699    2.9371    9.9108 C   0  0  0  0  0  0  0  0  0  0  0  0
   -2.0055    2.9093    9.3345 C   0  0  0  0  0  0  0  0  0  0  0  0
   -0.8294    2.6646    9.9515 C   0  0  0  0  0  0  0  0  0  0  0  0
   -0.9032    2.4070   11.3064 C   0  0  0  0  0  0  0  0  0  0  0  0
   -2.1405    2.4108   11.9725 C   0  0  0  0  0  0  0  0  0  0  0  0
   -3.3174    2.6796   11.2576 C   0  0  0  0  0  0  0  0  0  0  0  0
    0.2390   -0.9019    5.0807 C   0  0  0  0  0  0  0  0  0  0  0  0
  1  2  1  0
  2  3  1  0
  3  4  1  0
  4  5  1  0
  5  6  2  0
  6  7  1  0
  7  8  2  0
  8  9  1  0
  9 10  2  0
 10 11  1  0
 11 12  2  0
 12 13  1  0
 13 14  1  0
 14 15  1  0
 15 16  2  0
 16 17  1  0
 17 18  2  0
 18 19  1  0
 19 20  2  0
  2 21  1  0
 16  6  1  0
 12  7  1  0
 20 15  1  0
M  CHG  1   2   1
M  END
$$$$
