
     RDKit          3D

 21 23  0  0  0  0  0  0  0  0999 V2000
    0.4390   -1.5286    5.5129 C   0  0  0  0  0  0  0  0  0  0  0  0
   -0.0987   -1.1189    6.7865 N   0  0  0  0  0  4  0  0  0  0  0  0
    0.0297    0.2953    7.0550 C   0  0  0  0  0  0  0  0  0  0  0  0
   -1.1997    0.8490    7.6750 C   0  0  0  0  0  0  0  0  0  0  0  0
   -1.8815    1.9692    7.0407 C   0  0  0  0  0  0  0  0  0  0  0  0
   -2.3329    3.0139    7.6874 C   0  0  0  0  0  0  0  0  0  0  0  0
   -2.7347    4.2278    6.9371 C   0  0  0  0  0  0  0  0  0  0  0  0
   -1.9142    4.3505    5.8546 C   0  0  0  0  0  0  0  0  0  0  0  0
   -2.1832    5.4256    5.0282 C   0  0  0  0  0  0  0  0  0  0  0  0
   -3.2354    6.3032    5.3220 C   0  0  0  0  0  0  0  0  0  0  0  0
   -4.0263    6.1055    6.4519 C   0  0  0  0  0  0  0  0  0  0  0  0
   -3.7844    5.0544    7.2836 C   0  0  0  0  0  0  0  0  0  0  0  0
   -4.6168    4.9251    8.3912 O   0  0  0  0  0  0  0  0  0  0  0  0
   -4.7839    3.9954    9.4230 C   0  0  0  0  0  0  0  0  0  0  0  0
   -3.5665    3.2736    9.8542 C   0  0  0  0  0  0  0  0  0  0  0  0
   -2.4461    2.8625    9.1419 C   0  0  0  0  0  0  0  0  0  0  0  0
   -1.3473    2.2461    9.6280 C   0  0  0  0  0  0  0  0  0  0  0  0
   -1.3505    1.9937   10.9859 C   0  0  0  0  0  0  0  0  0  0  0  0
   -2.4430    2.3715   11.7847 C   0  0  0  0  0  0  0  0  0  0  0  0
   -3.5457    3.0133   11.2011 C   0  0  0  0  0  0  0  0  0  0  0  0
    0.4219   -1.9296    7.8720 C   0  0  0  0  0  0  0  0  0  0  0  0
  1  2  1  0
  2  3  1  0
  3  4  1  0
  4  5  1  0
  5  6  2  0
  6  7  1  0
  7  8  2  0
  8  9  1  0
  9 10  2  0
 10 11  1  0
 11 12  2  0
 12 13  1  0
 13 14  1  0
 14 15  1  0
 15 16  2  0
 16 17  1  0
 17 18  2  0
 18 19  1  0
 19 20  2  0
  2 21  1  0
 16  6  1  0
 12  7  1  0
 20 15  1  0
M  CHG  1   2   1
M  END
$$$$
