
     RDKit          3D

 21 23  0  0  0  0  0  0  0  0999 V2000
   -1.2830   -1.8808    7.4236 C   0  0  0  0  0  0  0  0  0  0  0  0
   -0.6865   -1.4134    6.1969 N   0  0  0  0  0  4  0  0  0  0  0  0
   -1.1013   -0.0853    5.8064 C   0  0  0  0  0  0  0  0  0  0  0  0
   -0.4693    0.9571    6.6530 C   0  0  0  0  0  0  0  0  0  0  0  0
   -0.6451    2.3624    6.3121 C   0  0  0  0  0  0  0  0  0  0  0  0
   -1.2728    3.2270    7.0681 C   0  0  0  0  0  0  0  0  0  0  0  0
   -2.0705    4.3094    6.4435 C   0  0  0  0  0  0  0  0  0  0  0  0
   -1.4518    4.6808    5.2861 C   0  0  0  0  0  0  0  0  0  0  0  0
   -2.0952    5.6675    4.5627 C   0  0  0  0  0  0  0  0  0  0  0  0
   -3.2971    6.2200    5.0252 C   0  0  0  0  0  0  0  0  0  0  0  0
   -3.8618    5.7829    6.2216 C   0  0  0  0  0  0  0  0  0  0  0  0
   -3.2500    4.8118    6.9548 C   0  0  0  0  0  0  0  0  0  0  0  0
   -3.8753    4.4301    8.1379 O   0  0  0  0  0  0  0  0  0  0  0  0
   -3.6621    3.4596    9.1226 C   0  0  0  0  0  0  0  0  0  0  0  0
   -2.2536    3.0802    9.3705 C   0  0  0  0  0  0  0  0  0  0  0  0
   -1.1614    3.0077    8.5141 C   0  0  0  0  0  0  0  0  0  0  0  0
    0.1126    2.6961    8.8362 C   0  0  0  0  0  0  0  0  0  0  0  0
    0.3440    2.4121   10.1679 C   0  0  0  0  0  0  0  0  0  0  0  0
   -0.7022    2.4575   11.1048 C   0  0  0  0  0  0  0  0  0  0  0  0
   -1.9985    2.7954   10.6881 C   0  0  0  0  0  0  0  0  0  0  0  0
   -0.8524   -2.3746    5.1221 C   0  0  0  0  0  0  0  0  0  0  0  0
  1  2  1  0
  2  3  1  0
  3  4  1  0
  4  5  1  0
  5  6  2  0
  6  7  1  0
  7  8  2  0
  8  9  1  0
  9 10  2  0
 10 11  1  0
 11 12  2  0
 12 13  1  0
 13 14  1  0
 14 15  1  0
 15 16  2  0
 16 17  1  0
 17 18  2  0
 18 19  1  0
 19 20  2  0
  2 21  1  0
 16  6  1  0
 12  7  1  0
 20 15  1  0
M  CHG  1   2   1
M  END
$$$$
