
     RDKit          3D

 21 23  0  0  0  0  0  0  0  0999 V2000
    0.0843   -0.5734   10.1614 C   0  0  0  0  0  0  0  0  0  0  0  0
    0.4759    0.7678   10.5175 N   0  0  0  0  0  4  0  0  0  0  0  0
    0.6387    1.6555    9.3888 C   0  0  0  0  0  0  0  0  0  0  0  0
   -0.5417    1.6211    8.4900 C   0  0  0  0  0  0  0  0  0  0  0  0
   -0.6050    2.5298    7.3531 C   0  0  0  0  0  0  0  0  0  0  0  0
   -1.6848    3.1733    6.9883 C   0  0  0  0  0  0  0  0  0  0  0  0
   -2.4556    3.9469    7.9910 C   0  0  0  0  0  0  0  0  0  0  0  0
   -2.3758    3.2941    9.1858 C   0  0  0  0  0  0  0  0  0  0  0  0
   -3.0219    3.9113   10.2405 C   0  0  0  0  0  0  0  0  0  0  0  0
   -3.7003    5.1224   10.0490 C   0  0  0  0  0  0  0  0  0  0  0  0
   -3.7338    5.7227    8.7920 C   0  0  0  0  0  0  0  0  0  0  0  0
   -3.1056    5.1373    7.7349 C   0  0  0  0  0  0  0  0  0  0  0  0
   -3.1853    5.7975    6.5125 O   0  0  0  0  0  0  0  0  0  0  0  0
   -2.6487    5.6175    5.2333 C   0  0  0  0  0  0  0  0  0  0  0  0
   -2.3947    4.2187    4.8233 C   0  0  0  0  0  0  0  0  0  0  0  0
   -2.0161    3.1035    5.5611 C   0  0  0  0  0  0  0  0  0  0  0  0
   -1.8520    1.8408    5.1111 C   0  0  0  0  0  0  0  0  0  0  0  0
   -2.0816    1.6483    3.7629 C   0  0  0  0  0  0  0  0  0  0  0  0
   -2.4651    2.7199    2.9388 C   0  0  0  0  0  0  0  0  0  0  0  0
   -2.6185    4.0021    3.4871 C   0  0  0  0  0  0  0  0  0  0  0  0
    1.6382    0.7720   11.3867 C   0  0  0  0  0  0  0  0  0  0  0  0
  1  2  1  0
  2  3  1  0
  3  4  1  0
  4  5  1  0
  5  6  2  0
  6  7  1  0
  7  8  2  0
  8  9  1  0
  9 10  2  0
 10 11  1  0
 11 12  2  0
 12 13  1  0
 13 14  1  0
 14 15  1  0
 15 16  2  0
 16 17  1  0
 17 18  2  0
 18 19  1  0
 19 20  2  0
  2 21  1  0
 16  6  1  0
 12  7  1  0
 20 15  1  0
M  CHG  1   2   1
M  END
$$$$
