
     RDKit          3D

 21 23  0  0  0  0  0  0  0  0999 V2000
    1.3491   -0.9193    8.2957 C   0  0  0  0  0  0  0  0  0  0  0  0
    0.3596   -0.7850    7.2555 N   0  0  0  0  0  4  0  0  0  0  0  0
   -0.8988   -0.2340    7.7043 C   0  0  0  0  0  0  0  0  0  0  0  0
   -1.2493    1.0043    6.9653 C   0  0  0  0  0  0  0  0  0  0  0  0
   -2.5453    1.6309    7.1885 C   0  0  0  0  0  0  0  0  0  0  0  0
   -2.7023    2.8581    7.6156 C   0  0  0  0  0  0  0  0  0  0  0  0
   -2.6098    3.9882    6.6604 C   0  0  0  0  0  0  0  0  0  0  0  0
   -1.6834    3.6692    5.7116 C   0  0  0  0  0  0  0  0  0  0  0  0
   -1.5026    4.6158    4.7206 C   0  0  0  0  0  0  0  0  0  0  0  0
   -2.2411    5.8067    4.7307 C   0  0  0  0  0  0  0  0  0  0  0  0
   -3.1689    6.0546    5.7403 C   0  0  0  0  0  0  0  0  0  0  0  0
   -3.3680    5.1395    6.7291 C   0  0  0  0  0  0  0  0  0  0  0  0
   -4.3104    5.4603    7.7015 O   0  0  0  0  0  0  0  0  0  0  0  0
   -4.8765    4.8168    8.8071 C   0  0  0  0  0  0  0  0  0  0  0  0
   -4.0094    3.8473    9.5122 C   0  0  0  0  0  0  0  0  0  0  0  0
   -3.0120    3.0012    9.0421 C   0  0  0  0  0  0  0  0  0  0  0  0
   -2.2283    2.1759    9.7690 C   0  0  0  0  0  0  0  0  0  0  0  0
   -2.4568    2.1745   11.1311 C   0  0  0  0  0  0  0  0  0  0  0  0
   -3.4479    2.9959   11.6945 C   0  0  0  0  0  0  0  0  0  0  0  0
   -4.2166    3.8294   10.8683 C   0  0  0  0  0  0  0  0  0  0  0  0
    0.1817   -2.0259    6.5240 C   0  0  0  0  0  0  0  0  0  0  0  0
  1  2  1  0
  2  3  1  0
  3  4  1  0
  4  5  1  0
  5  6  2  0
  6  7  1  0
  7  8  2  0
  8  9  1  0
  9 10  2  0
 10 11  1  0
 11 12  2  0
 12 13  1  0
 13 14  1  0
 14 15  1  0
 15 16  2  0
 16 17  1  0
 17 18  2  0
 18 19  1  0
 19 20  2  0
  2 21  1  0
 16  6  1  0
 12  7  1  0
 20 15  1  0
M  CHG  1   2   1
M  END
$$$$
