
     RDKit          3D

 21 23  0  0  0  0  0  0  0  0999 V2000
   -0.5804    1.2291   11.5229 C   0  0  0  0  0  0  0  0  0  0  0  0
    0.4993    2.0592   11.0496 N   0  0  0  0  0  4  0  0  0  0  0  0
    0.2201    2.7400    9.8058 C   0  0  0  0  0  0  0  0  0  0  0  0
   -1.0857    2.3252    9.2354 C   0  0  0  0  0  0  0  0  0  0  0  0
   -1.1927    2.0579    7.8074 C   0  0  0  0  0  0  0  0  0  0  0  0
   -2.1713    2.4885    7.0524 C   0  0  0  0  0  0  0  0  0  0  0  0
   -2.1525    2.2160    5.5952 C   0  0  0  0  0  0  0  0  0  0  0  0
   -0.8553    2.2383    5.1745 C   0  0  0  0  0  0  0  0  0  0  0  0
   -0.6647    1.9673    3.8324 C   0  0  0  0  0  0  0  0  0  0  0  0
   -1.7579    1.6950    2.9992 C   0  0  0  0  0  0  0  0  0  0  0  0
   -3.0538    1.6935    3.5110 C   0  0  0  0  0  0  0  0  0  0  0  0
   -3.2712    1.9568    4.8295 C   0  0  0  0  0  0  0  0  0  0  0  0
   -4.5929    1.9377    5.2644 O   0  0  0  0  0  0  0  0  0  0  0  0
   -5.2516    2.0627    6.4921 C   0  0  0  0  0  0  0  0  0  0  0  0
   -4.5986    2.9298    7.4975 C   0  0  0  0  0  0  0  0  0  0  0  0
   -3.2563    3.1850    7.7518 C   0  0  0  0  0  0  0  0  0  0  0  0
   -2.7434    4.0364    8.6661 C   0  0  0  0  0  0  0  0  0  0  0  0
   -3.6650    4.7201    9.4347 C   0  0  0  0  0  0  0  0  0  0  0  0
   -5.0437    4.5224    9.2491 C   0  0  0  0  0  0  0  0  0  0  0  0
   -5.4946    3.6217    8.2725 C   0  0  0  0  0  0  0  0  0  0  0  0
    1.7531    1.3295   11.0023 C   0  0  0  0  0  0  0  0  0  0  0  0
  1  2  1  0
  2  3  1  0
  3  4  1  0
  4  5  1  0
  5  6  2  0
  6  7  1  0
  7  8  2  0
  8  9  1  0
  9 10  2  0
 10 11  1  0
 11 12  2  0
 12 13  1  0
 13 14  1  0
 14 15  1  0
 15 16  2  0
 16 17  1  0
 17 18  2  0
 18 19  1  0
 19 20  2  0
  2 21  1  0
 16  6  1  0
 12  7  1  0
 20 15  1  0
M  CHG  1   2   1
M  END
$$$$
