
     RDKit          3D

 21 23  0  0  0  0  0  0  0  0999 V2000
   -0.0142   -1.2061    9.8384 C   0  0  0  0  0  0  0  0  0  0  0  0
    0.9323   -0.1374    9.6357 N   0  0  0  0  0  4  0  0  0  0  0  0
    0.6275    0.7167    8.5105 C   0  0  0  0  0  0  0  0  0  0  0  0
   -0.2337    1.8585    8.9068 C   0  0  0  0  0  0  0  0  0  0  0  0
   -0.5707    2.8787    7.9231 C   0  0  0  0  0  0  0  0  0  0  0  0
   -1.7809    3.3376    7.7281 C   0  0  0  0  0  0  0  0  0  0  0  0
   -2.1909    3.7825    6.3746 C   0  0  0  0  0  0  0  0  0  0  0  0
   -1.1048    4.3324    5.7598 C   0  0  0  0  0  0  0  0  0  0  0  0
   -1.3171    4.7702    4.4659 C   0  0  0  0  0  0  0  0  0  0  0  0
   -2.5775    4.6388    3.8679 C   0  0  0  0  0  0  0  0  0  0  0  0
   -3.6361    4.0649    4.5689 C   0  0  0  0  0  0  0  0  0  0  0  0
   -3.4557    3.6245    5.8449 C   0  0  0  0  0  0  0  0  0  0  0  0
   -4.5608    3.0644    6.4784 O   0  0  0  0  0  0  0  0  0  0  0  0
   -4.8083    2.4337    7.7022 C   0  0  0  0  0  0  0  0  0  0  0  0
   -3.9777    2.8761    8.8439 C   0  0  0  0  0  0  0  0  0  0  0  0
   -2.6634    3.3244    8.8996 C   0  0  0  0  0  0  0  0  0  0  0  0
   -1.9917    3.7591    9.9875 C   0  0  0  0  0  0  0  0  0  0  0  0
   -2.6971    3.7457   11.1749 C   0  0  0  0  0  0  0  0  0  0  0  0
   -4.0308    3.3051   11.2137 C   0  0  0  0  0  0  0  0  0  0  0  0
   -4.6580    2.8734   10.0353 C   0  0  0  0  0  0  0  0  0  0  0  0
    2.2958   -0.6327    9.5908 C   0  0  0  0  0  0  0  0  0  0  0  0
  1  2  1  0
  2  3  1  0
  3  4  1  0
  4  5  1  0
  5  6  2  0
  6  7  1  0
  7  8  2  0
  8  9  1  0
  9 10  2  0
 10 11  1  0
 11 12  2  0
 12 13  1  0
 13 14  1  0
 14 15  1  0
 15 16  2  0
 16 17  1  0
 17 18  2  0
 18 19  1  0
 19 20  2  0
  2 21  1  0
 16  6  1  0
 12  7  1  0
 20 15  1  0
M  CHG  1   2   1
M  END
$$$$
