
     RDKit          3D

 21 23  0  0  0  0  0  0  0  0999 V2000
   -0.2198    0.7805   11.7801 C   0  0  0  0  0  0  0  0  0  0  0  0
   -0.9964    1.9919   11.6889 N   0  0  0  0  0  4  0  0  0  0  0  0
   -0.7288    2.7781   10.5062 C   0  0  0  0  0  0  0  0  0  0  0  0
   -0.7034    1.9374    9.2836 C   0  0  0  0  0  0  0  0  0  0  0  0
   -0.4874    2.5636    7.9862 C   0  0  0  0  0  0  0  0  0  0  0  0
   -1.3845    2.6054    7.0340 C   0  0  0  0  0  0  0  0  0  0  0  0
   -2.2570    3.7961    6.8955 C   0  0  0  0  0  0  0  0  0  0  0  0
   -2.5076    4.2879    8.1427 C   0  0  0  0  0  0  0  0  0  0  0  0
   -3.2879    5.4282    8.1823 C   0  0  0  0  0  0  0  0  0  0  0  0
   -3.7674    6.0039    6.9982 C   0  0  0  0  0  0  0  0  0  0  0  0
   -3.4647    5.4353    5.7626 C   0  0  0  0  0  0  0  0  0  0  0  0
   -2.6976    4.3121    5.6936 C   0  0  0  0  0  0  0  0  0  0  0  0
   -2.4403    3.8042    4.4238 O   0  0  0  0  0  0  0  0  0  0  0  0
   -1.6687    2.7660    3.8913 C   0  0  0  0  0  0  0  0  0  0  0  0
   -1.4949    1.5748    4.7515 C   0  0  0  0  0  0  0  0  0  0  0  0
   -1.4113    1.4483    6.1330 C   0  0  0  0  0  0  0  0  0  0  0  0
   -1.3008    0.3066    6.8457 C   0  0  0  0  0  0  0  0  0  0  0  0
   -1.2596   -0.8608    6.1087 C   0  0  0  0  0  0  0  0  0  0  0  0
   -1.3346   -0.8283    4.7060 C   0  0  0  0  0  0  0  0  0  0  0  0
   -1.4534    0.4016    4.0415 C   0  0  0  0  0  0  0  0  0  0  0  0
   -0.8987    2.7818   12.9025 C   0  0  0  0  0  0  0  0  0  0  0  0
  1  2  1  0
  2  3  1  0
  3  4  1  0
  4  5  1  0
  5  6  2  0
  6  7  1  0
  7  8  2  0
  8  9  1  0
  9 10  2  0
 10 11  1  0
 11 12  2  0
 12 13  1  0
 13 14  1  0
 14 15  1  0
 15 16  2  0
 16 17  1  0
 17 18  2  0
 18 19  1  0
 19 20  2  0
  2 21  1  0
 16  6  1  0
 12  7  1  0
 20 15  1  0
M  CHG  1   2   1
M  END
$$$$
