
     RDKit          3D

 21 23  0  0  0  0  0  0  0  0999 V2000
    1.3904   -0.9348    9.5389 C   0  0  0  0  0  0  0  0  0  0  0  0
    0.0376   -0.4546    9.6752 N   0  0  0  0  0  4  0  0  0  0  0  0
   -0.0856    0.9847    9.6355 C   0  0  0  0  0  0  0  0  0  0  0  0
   -0.4286    1.4678    8.2748 C   0  0  0  0  0  0  0  0  0  0  0  0
   -0.6346    2.8922    8.0497 C   0  0  0  0  0  0  0  0  0  0  0  0
   -1.7786    3.4204    7.6956 C   0  0  0  0  0  0  0  0  0  0  0  0
   -2.7129    3.9183    8.7335 C   0  0  0  0  0  0  0  0  0  0  0  0
   -2.5997    3.1143    9.8294 C   0  0  0  0  0  0  0  0  0  0  0  0
   -3.3899    3.4693   10.9066 C   0  0  0  0  0  0  0  0  0  0  0  0
   -4.2345    4.5849   10.8327 C   0  0  0  0  0  0  0  0  0  0  0  0
   -4.2906    5.3534    9.6718 C   0  0  0  0  0  0  0  0  0  0  0  0
   -3.5229    5.0273    8.5952 C   0  0  0  0  0  0  0  0  0  0  0  0
   -3.6356    5.8425    7.4731 O   0  0  0  0  0  0  0  0  0  0  0  0
   -3.0083    5.9327    6.2261 C   0  0  0  0  0  0  0  0  0  0  0  0
   -2.5205    4.6613    5.6476 C   0  0  0  0  0  0  0  0  0  0  0  0
   -2.0164    3.5154    6.2513 C   0  0  0  0  0  0  0  0  0  0  0  0
   -1.6360    2.3701    5.6453 C   0  0  0  0  0  0  0  0  0  0  0  0
   -1.7588    2.3480    4.2698 C   0  0  0  0  0  0  0  0  0  0  0  0
   -2.2563    3.4631    3.5746 C   0  0  0  0  0  0  0  0  0  0  0  0
   -2.6346    4.6147    4.2812 C   0  0  0  0  0  0  0  0  0  0  0  0
   -0.6176   -1.0262   10.8373 C   0  0  0  0  0  0  0  0  0  0  0  0
  1  2  1  0
  2  3  1  0
  3  4  1  0
  4  5  1  0
  5  6  2  0
  6  7  1  0
  7  8  2  0
  8  9  1  0
  9 10  2  0
 10 11  1  0
 11 12  2  0
 12 13  1  0
 13 14  1  0
 14 15  1  0
 15 16  2  0
 16 17  1  0
 17 18  2  0
 18 19  1  0
 19 20  2  0
  2 21  1  0
 16  6  1  0
 12  7  1  0
 20 15  1  0
M  CHG  1   2   1
M  END
$$$$
