
     RDKit          3D

 21 23  0  0  0  0  0  0  0  0999 V2000
    0.6381    2.7847   11.6991 C   0  0  0  0  0  0  0  0  0  0  0  0
    0.7805    2.6060   10.2754 N   0  0  0  0  0  4  0  0  0  0  0  0
   -0.4490    2.2663    9.5963 C   0  0  0  0  0  0  0  0  0  0  0  0
   -0.5599    2.9552    8.2865 C   0  0  0  0  0  0  0  0  0  0  0  0
   -0.7676    2.1695    7.0775 C   0  0  0  0  0  0  0  0  0  0  0  0
   -1.8760    2.1746    6.3814 C   0  0  0  0  0  0  0  0  0  0  0  0
   -2.7190    3.3938    6.3473 C   0  0  0  0  0  0  0  0  0  0  0  0
   -2.6287    4.0081    7.5616 C   0  0  0  0  0  0  0  0  0  0  0  0
   -3.3388    5.1882    7.6809 C   0  0  0  0  0  0  0  0  0  0  0  0
   -4.0867    5.6807    6.6031 C   0  0  0  0  0  0  0  0  0  0  0  0
   -4.1259    4.9882    5.3947 C   0  0  0  0  0  0  0  0  0  0  0  0
   -3.4356    3.8233    5.2487 C   0  0  0  0  0  0  0  0  0  0  0  0
   -3.5256    3.1904    4.0126 O   0  0  0  0  0  0  0  0  0  0  0  0
   -2.9465    2.0684    3.4106 C   0  0  0  0  0  0  0  0  0  0  0  0
   -2.5950    0.9513    4.3149 C   0  0  0  0  0  0  0  0  0  0  0  0
   -2.1660    0.9447    5.6368 C   0  0  0  0  0  0  0  0  0  0  0  0
   -1.9117   -0.1330    6.4100 C   0  0  0  0  0  0  0  0  0  0  0  0
   -2.0946   -1.3622    5.8073 C   0  0  0  0  0  0  0  0  0  0  0  0
   -2.5235   -1.4514    4.4722 C   0  0  0  0  0  0  0  0  0  0  0  0
   -2.7709   -0.2813    3.7386 C   0  0  0  0  0  0  0  0  0  0  0  0
    1.8526    1.6807    9.9577 C   0  0  0  0  0  0  0  0  0  0  0  0
  1  2  1  0
  2  3  1  0
  3  4  1  0
  4  5  1  0
  5  6  2  0
  6  7  1  0
  7  8  2  0
  8  9  1  0
  9 10  2  0
 10 11  1  0
 11 12  2  0
 12 13  1  0
 13 14  1  0
 14 15  1  0
 15 16  2  0
 16 17  1  0
 17 18  2  0
 18 19  1  0
 19 20  2  0
  2 21  1  0
 16  6  1  0
 12  7  1  0
 20 15  1  0
M  CHG  1   2   1
M  END
$$$$
