
     RDKit          3D

 21 23  0  0  0  0  0  0  0  0999 V2000
   -1.0659   -2.3517    6.2510 C   0  0  0  0  0  0  0  0  0  0  0  0
   -0.2932   -1.1614    5.9956 N   0  0  0  0  0  4  0  0  0  0  0  0
   -1.0898    0.0175    5.7424 C   0  0  0  0  0  0  0  0  0  0  0  0
   -1.1256    0.9182    6.9214 C   0  0  0  0  0  0  0  0  0  0  0  0
   -2.3888    1.5195    7.3272 C   0  0  0  0  0  0  0  0  0  0  0  0
   -2.5009    2.7263    7.8213 C   0  0  0  0  0  0  0  0  0  0  0  0
   -2.7946    3.8668    6.9208 C   0  0  0  0  0  0  0  0  0  0  0  0
   -2.1836    3.6329    5.7241 C   0  0  0  0  0  0  0  0  0  0  0  0
   -2.3905    4.5982    4.7565 C   0  0  0  0  0  0  0  0  0  0  0  0
   -3.1795    5.7232    5.0309 C   0  0  0  0  0  0  0  0  0  0  0  0
   -3.7675    5.8858    6.2836 C   0  0  0  0  0  0  0  0  0  0  0  0
   -3.5812    4.9504    7.2557 C   0  0  0  0  0  0  0  0  0  0  0  0
   -4.2001    5.1846    8.4799 O   0  0  0  0  0  0  0  0  0  0  0  0
   -4.3468    4.4884    9.6843 C   0  0  0  0  0  0  0  0  0  0  0  0
   -3.2326    3.5897   10.0582 C   0  0  0  0  0  0  0  0  0  0  0  0
   -2.3663    2.8330    9.2780 C   0  0  0  0  0  0  0  0  0  0  0  0
   -1.3356    2.0707    9.7027 C   0  0  0  0  0  0  0  0  0  0  0  0
   -1.1327    2.0407   11.0686 C   0  0  0  0  0  0  0  0  0  0  0  0
   -1.9624    2.7726   11.9348 C   0  0  0  0  0  0  0  0  0  0  0  0
   -3.0101    3.5449   11.4112 C   0  0  0  0  0  0  0  0  0  0  0  0
    0.7001   -1.3811    4.9604 C   0  0  0  0  0  0  0  0  0  0  0  0
  1  2  1  0
  2  3  1  0
  3  4  1  0
  4  5  1  0
  5  6  2  0
  6  7  1  0
  7  8  2  0
  8  9  1  0
  9 10  2  0
 10 11  1  0
 11 12  2  0
 12 13  1  0
 13 14  1  0
 14 15  1  0
 15 16  2  0
 16 17  1  0
 17 18  2  0
 18 19  1  0
 19 20  2  0
  2 21  1  0
 16  6  1  0
 12  7  1  0
 20 15  1  0
M  CHG  1   2   1
M  END
$$$$
