
     RDKit          3D

 21 23  0  0  0  0  0  0  0  0999 V2000
    1.9695    2.4463    9.7945 C   0  0  0  0  0  0  0  0  0  0  0  0
    0.5958    2.0147    9.8688 N   0  0  0  0  0  4  0  0  0  0  0  0
   -0.1408    2.1721    8.6355 C   0  0  0  0  0  0  0  0  0  0  0  0
   -1.5518    2.5583    8.8856 C   0  0  0  0  0  0  0  0  0  0  0  0
   -2.6087    1.9901    8.0596 C   0  0  0  0  0  0  0  0  0  0  0  0
   -2.7119    2.1794    6.7686 C   0  0  0  0  0  0  0  0  0  0  0  0
   -2.8959    3.5512    6.2375 C   0  0  0  0  0  0  0  0  0  0  0  0
   -3.6475    4.2566    7.1307 C   0  0  0  0  0  0  0  0  0  0  0  0
   -3.8825    5.5762    6.7929 C   0  0  0  0  0  0  0  0  0  0  0  0
   -3.3658    6.1096    5.6046 C   0  0  0  0  0  0  0  0  0  0  0  0
   -2.6071    5.3174    4.7454 C   0  0  0  0  0  0  0  0  0  0  0  0
   -2.3593    4.0140    5.0530 C   0  0  0  0  0  0  0  0  0  0  0  0
   -1.5949    3.2884    4.1444 O   0  0  0  0  0  0  0  0  0  0  0  0
   -1.0469    2.0026    4.0891 C   0  0  0  0  0  0  0  0  0  0  0  0
   -1.8037    0.9403    4.7877 C   0  0  0  0  0  0  0  0  0  0  0  0
   -2.5846    0.9781    5.9367 C   0  0  0  0  0  0  0  0  0  0  0  0
   -3.2869   -0.0376    6.4834 C   0  0  0  0  0  0  0  0  0  0  0  0
   -3.2075   -1.2479    5.8226 C   0  0  0  0  0  0  0  0  0  0  0  0
   -2.4384   -1.3796    4.6541 C   0  0  0  0  0  0  0  0  0  0  0  0
   -1.7416   -0.2719    4.1482 C   0  0  0  0  0  0  0  0  0  0  0  0
   -0.0930    2.6159   10.9960 C   0  0  0  0  0  0  0  0  0  0  0  0
  1  2  1  0
  2  3  1  0
  3  4  1  0
  4  5  1  0
  5  6  2  0
  6  7  1  0
  7  8  2  0
  8  9  1  0
  9 10  2  0
 10 11  1  0
 11 12  2  0
 12 13  1  0
 13 14  1  0
 14 15  1  0
 15 16  2  0
 16 17  1  0
 17 18  2  0
 18 19  1  0
 19 20  2  0
  2 21  1  0
 16  6  1  0
 12  7  1  0
 20 15  1  0
M  CHG  1   2   1
M  END
$$$$
