
     RDKit          3D

 21 23  0  0  0  0  0  0  0  0999 V2000
    0.3224    0.0795   11.2373 C   0  0  0  0  0  0  0  0  0  0  0  0
    0.9570    1.0153   10.3426 N   0  0  0  0  0  4  0  0  0  0  0  0
    0.2740    1.1821    9.0801 C   0  0  0  0  0  0  0  0  0  0  0  0
   -1.1255    1.6380    9.2703 C   0  0  0  0  0  0  0  0  0  0  0  0
   -1.9521    1.9233    8.1052 C   0  0  0  0  0  0  0  0  0  0  0  0
   -2.1086    3.1173    7.5922 C   0  0  0  0  0  0  0  0  0  0  0  0
   -1.6722    3.3842    6.2006 C   0  0  0  0  0  0  0  0  0  0  0  0
   -0.5612    2.6335    5.9513 C   0  0  0  0  0  0  0  0  0  0  0  0
   -0.0464    2.7465    4.6733 C   0  0  0  0  0  0  0  0  0  0  0  0
   -0.6560    3.5870    3.7323 C   0  0  0  0  0  0  0  0  0  0  0  0
   -1.7904    4.3218    4.0709 C   0  0  0  0  0  0  0  0  0  0  0  0
   -2.3195    4.2297    5.3224 C   0  0  0  0  0  0  0  0  0  0  0  0
   -3.4519    4.9950    5.5837 O   0  0  0  0  0  0  0  0  0  0  0  0
   -4.3408    5.1467    6.6531 C   0  0  0  0  0  0  0  0  0  0  0  0
   -3.7755    4.9435    8.0052 C   0  0  0  0  0  0  0  0  0  0  0  0
   -2.7670    4.1012    8.4580 C   0  0  0  0  0  0  0  0  0  0  0  0
   -2.2750    4.0134    9.7126 C   0  0  0  0  0  0  0  0  0  0  0  0
   -2.8509    4.8543   10.6447 C   0  0  0  0  0  0  0  0  0  0  0  0
   -3.8799    5.7377   10.2770 C   0  0  0  0  0  0  0  0  0  0  0  0
   -4.3308    5.7702    8.9489 C   0  0  0  0  0  0  0  0  0  0  0  0
    2.3655    0.7134   10.1649 C   0  0  0  0  0  0  0  0  0  0  0  0
  1  2  1  0
  2  3  1  0
  3  4  1  0
  4  5  1  0
  5  6  2  0
  6  7  1  0
  7  8  2  0
  8  9  1  0
  9 10  2  0
 10 11  1  0
 11 12  2  0
 12 13  1  0
 13 14  1  0
 14 15  1  0
 15 16  2  0
 16 17  1  0
 17 18  2  0
 18 19  1  0
 19 20  2  0
  2 21  1  0
 16  6  1  0
 12  7  1  0
 20 15  1  0
M  CHG  1   2   1
M  END
$$$$
