
     RDKit          3D

 21 23  0  0  0  0  0  0  0  0999 V2000
    0.6324   -1.4493    9.2557 C   0  0  0  0  0  0  0  0  0  0  0  0
    0.3765   -0.7701    8.0098 N   0  0  0  0  0  4  0  0  0  0  0  0
   -0.9533   -0.2150    7.9014 C   0  0  0  0  0  0  0  0  0  0  0  0
   -1.0009    0.9081    6.9324 C   0  0  0  0  0  0  0  0  0  0  0  0
   -2.2374    1.6597    6.7649 C   0  0  0  0  0  0  0  0  0  0  0  0
   -2.4406    2.8557    7.2565 C   0  0  0  0  0  0  0  0  0  0  0  0
   -2.4907    4.0267    6.3486 C   0  0  0  0  0  0  0  0  0  0  0  0
   -1.6179    3.8085    5.3235 C   0  0  0  0  0  0  0  0  0  0  0  0
   -1.5712    4.8039    4.3655 C   0  0  0  0  0  0  0  0  0  0  0  0
   -2.3813    5.9414    4.4810 C   0  0  0  0  0  0  0  0  0  0  0  0
   -3.2464    6.0863    5.5637 C   0  0  0  0  0  0  0  0  0  0  0  0
   -3.3136    5.1211    6.5222 C   0  0  0  0  0  0  0  0  0  0  0  0
   -4.2006    5.3390    7.5720 O   0  0  0  0  0  0  0  0  0  0  0  0
   -4.6418    4.6155    8.6850 C   0  0  0  0  0  0  0  0  0  0  0  0
   -3.6653    3.6787    9.2831 C   0  0  0  0  0  0  0  0  0  0  0  0
   -2.6533    2.9206    8.7063 C   0  0  0  0  0  0  0  0  0  0  0  0
   -1.7673    2.1210    9.3384 C   0  0  0  0  0  0  0  0  0  0  0  0
   -1.8946    2.0498   10.7118 C   0  0  0  0  0  0  0  0  0  0  0  0
   -2.8920    2.7800   11.3800 C   0  0  0  0  0  0  0  0  0  0  0  0
   -3.7709    3.5927   10.6483 C   0  0  0  0  0  0  0  0  0  0  0  0
    0.7154   -1.6009    6.8690 C   0  0  0  0  0  0  0  0  0  0  0  0
  1  2  1  0
  2  3  1  0
  3  4  1  0
  4  5  1  0
  5  6  2  0
  6  7  1  0
  7  8  2  0
  8  9  1  0
  9 10  2  0
 10 11  1  0
 11 12  2  0
 12 13  1  0
 13 14  1  0
 14 15  1  0
 15 16  2  0
 16 17  1  0
 17 18  2  0
 18 19  1  0
 19 20  2  0
  2 21  1  0
 16  6  1  0
 12  7  1  0
 20 15  1  0
M  CHG  1   2   1
M  END
$$$$
