
     RDKit          3D

 21 23  0  0  0  0  0  0  0  0999 V2000
    0.1103   -1.1866    7.9469 C   0  0  0  0  0  0  0  0  0  0  0  0
    0.2288   -0.6996    6.5950 N   0  0  0  0  0  4  0  0  0  0  0  0
   -0.8170    0.2178    6.2034 C   0  0  0  0  0  0  0  0  0  0  0  0
   -0.9542    1.3365    7.1687 C   0  0  0  0  0  0  0  0  0  0  0  0
   -2.2794    1.8494    7.4895 C   0  0  0  0  0  0  0  0  0  0  0  0
   -2.5726    3.1223    7.5723 C   0  0  0  0  0  0  0  0  0  0  0  0
   -2.5923    3.9551    6.3459 C   0  0  0  0  0  0  0  0  0  0  0  0
   -1.6266    3.4922    5.5012 C   0  0  0  0  0  0  0  0  0  0  0  0
   -1.5383    4.1492    4.2882 C   0  0  0  0  0  0  0  0  0  0  0  0
   -2.4011    5.2125    3.9903 C   0  0  0  0  0  0  0  0  0  0  0  0
   -3.3610    5.6236    4.9127 C   0  0  0  0  0  0  0  0  0  0  0  0
   -3.4709    4.9942    6.1155 C   0  0  0  0  0  0  0  0  0  0  0  0
   -4.4529    5.4634    6.9826 O   0  0  0  0  0  0  0  0  0  0  0  0
   -4.9582    5.0864    8.2313 C   0  0  0  0  0  0  0  0  0  0  0  0
   -3.9992    4.4421    9.1557 C   0  0  0  0  0  0  0  0  0  0  0  0
   -2.9114    3.6119    8.9128 C   0  0  0  0  0  0  0  0  0  0  0  0
   -2.0511    3.1025    9.8206 C   0  0  0  0  0  0  0  0  0  0  0  0
   -2.2928    3.4451   11.1366 C   0  0  0  0  0  0  0  0  0  0  0  0
   -3.3728    4.2775   11.4758 C   0  0  0  0  0  0  0  0  0  0  0  0
   -4.2180    4.7695   10.4699 C   0  0  0  0  0  0  0  0  0  0  0  0
    0.3831   -1.7875    5.6467 C   0  0  0  0  0  0  0  0  0  0  0  0
  1  2  1  0
  2  3  1  0
  3  4  1  0
  4  5  1  0
  5  6  2  0
  6  7  1  0
  7  8  2  0
  8  9  1  0
  9 10  2  0
 10 11  1  0
 11 12  2  0
 12 13  1  0
 13 14  1  0
 14 15  1  0
 15 16  2  0
 16 17  1  0
 17 18  2  0
 18 19  1  0
 19 20  2  0
  2 21  1  0
 16  6  1  0
 12  7  1  0
 20 15  1  0
M  CHG  1   2   1
M  END
$$$$
