
     RDKit          3D

 21 23  0  0  0  0  0  0  0  0999 V2000
   -0.6981   -2.4703    6.1242 C   0  0  0  0  0  0  0  0  0  0  0  0
   -0.7398   -1.3742    7.0600 N   0  0  0  0  0  4  0  0  0  0  0  0
   -0.4608   -0.0839    6.4721 C   0  0  0  0  0  0  0  0  0  0  0  0
   -0.5090    1.0011    7.4836 C   0  0  0  0  0  0  0  0  0  0  0  0
   -0.5490    2.3897    7.0453 C   0  0  0  0  0  0  0  0  0  0  0  0
   -1.6330    3.1232    7.0318 C   0  0  0  0  0  0  0  0  0  0  0  0
   -2.3071    3.4651    8.3073 C   0  0  0  0  0  0  0  0  0  0  0  0
   -2.1609    2.4122    9.1619 C   0  0  0  0  0  0  0  0  0  0  0  0
   -2.7115    2.5896   10.4174 C   0  0  0  0  0  0  0  0  0  0  0  0
   -3.3664    3.7843   10.7450 C   0  0  0  0  0  0  0  0  0  0  0  0
   -3.4724    4.8117    9.8098 C   0  0  0  0  0  0  0  0  0  0  0  0
   -2.9389    4.6648    8.5653 C   0  0  0  0  0  0  0  0  0  0  0  0
   -3.0869    5.7347    7.6880 O   0  0  0  0  0  0  0  0  0  0  0  0
   -2.6488    6.0468    6.3967 C   0  0  0  0  0  0  0  0  0  0  0  0
   -2.4657    4.9034    5.4757 C   0  0  0  0  0  0  0  0  0  0  0  0
   -2.0677    3.5930    5.7121 C   0  0  0  0  0  0  0  0  0  0  0  0
   -1.9731    2.5907    4.8119 C   0  0  0  0  0  0  0  0  0  0  0  0
   -2.3043    2.9172    3.5114 C   0  0  0  0  0  0  0  0  0  0  0  0
   -2.7145    4.2194    3.1794 C   0  0  0  0  0  0  0  0  0  0  0  0
   -2.7909    5.2030    4.1770 C   0  0  0  0  0  0  0  0  0  0  0  0
    0.0877   -1.6336    8.2239 C   0  0  0  0  0  0  0  0  0  0  0  0
  1  2  1  0
  2  3  1  0
  3  4  1  0
  4  5  1  0
  5  6  2  0
  6  7  1  0
  7  8  2  0
  8  9  1  0
  9 10  2  0
 10 11  1  0
 11 12  2  0
 12 13  1  0
 13 14  1  0
 14 15  1  0
 15 16  2  0
 16 17  1  0
 17 18  2  0
 18 19  1  0
 19 20  2  0
  2 21  1  0
 16  6  1  0
 12  7  1  0
 20 15  1  0
M  CHG  1   2   1
M  END
$$$$
