
     RDKit          3D

 21 23  0  0  0  0  0  0  0  0999 V2000
    1.3336    1.3952   10.1112 C   0  0  0  0  0  0  0  0  0  0  0  0
    0.5414    0.2593    9.7098 N   0  0  0  0  0  4  0  0  0  0  0  0
   -0.8512    0.5638    9.4729 C   0  0  0  0  0  0  0  0  0  0  0  0
   -1.0183    1.5389    8.3667 C   0  0  0  0  0  0  0  0  0  0  0  0
   -2.3582    1.9437    7.9629 C   0  0  0  0  0  0  0  0  0  0  0  0
   -2.6809    3.1625    7.6113 C   0  0  0  0  0  0  0  0  0  0  0  0
   -2.3754    3.6394    6.2411 C   0  0  0  0  0  0  0  0  0  0  0  0
   -1.2086    3.0592    5.8385 C   0  0  0  0  0  0  0  0  0  0  0  0
   -0.8005    3.3803    4.5574 C   0  0  0  0  0  0  0  0  0  0  0  0
   -1.5636    4.2471    3.7637 C   0  0  0  0  0  0  0  0  0  0  0  0
   -2.7455    4.7985    4.2540 C   0  0  0  0  0  0  0  0  0  0  0  0
   -3.1720    4.4993    5.5124 C   0  0  0  0  0  0  0  0  0  0  0  0
   -4.3608    5.0900    5.9299 O   0  0  0  0  0  0  0  0  0  0  0  0
   -5.1837    5.0101    7.0583 C   0  0  0  0  0  0  0  0  0  0  0  0
   -4.5058    4.7187    8.3407 C   0  0  0  0  0  0  0  0  0  0  0  0
   -3.3813    3.9542    8.6281 C   0  0  0  0  0  0  0  0  0  0  0  0
   -2.7958    3.7793    9.8324 C   0  0  0  0  0  0  0  0  0  0  0  0
   -3.3940    4.4321   10.8925 C   0  0  0  0  0  0  0  0  0  0  0  0
   -4.5374    5.2247   10.6957 C   0  0  0  0  0  0  0  0  0  0  0  0
   -5.0813    5.3584    9.4093 C   0  0  0  0  0  0  0  0  0  0  0  0
    0.7079   -0.8573   10.6220 C   0  0  0  0  0  0  0  0  0  0  0  0
  1  2  1  0
  2  3  1  0
  3  4  1  0
  4  5  1  0
  5  6  2  0
  6  7  1  0
  7  8  2  0
  8  9  1  0
  9 10  2  0
 10 11  1  0
 11 12  2  0
 12 13  1  0
 13 14  1  0
 14 15  1  0
 15 16  2  0
 16 17  1  0
 17 18  2  0
 18 19  1  0
 19 20  2  0
  2 21  1  0
 16  6  1  0
 12  7  1  0
 20 15  1  0
M  CHG  1   2   1
M  END
$$$$
