
     RDKit          3D

 21 23  0  0  0  0  0  0  0  0999 V2000
    1.1282    1.1308   10.7517 C   0  0  0  0  0  0  0  0  0  0  0  0
    0.9621    0.3183    9.5721 N   0  0  0  0  0  4  0  0  0  0  0  0
   -0.3522    0.4018    8.9771 C   0  0  0  0  0  0  0  0  0  0  0  0
   -0.3347    1.1869    7.7178 C   0  0  0  0  0  0  0  0  0  0  0  0
   -1.5841    1.4425    7.0138 C   0  0  0  0  0  0  0  0  0  0  0  0
   -2.3278    2.5030    7.2020 C   0  0  0  0  0  0  0  0  0  0  0  0
   -2.4450    3.5204    6.1300 C   0  0  0  0  0  0  0  0  0  0  0  0
   -1.2520    3.5853    5.4721 C   0  0  0  0  0  0  0  0  0  0  0  0
   -1.2088    4.4731    4.4134 C   0  0  0  0  0  0  0  0  0  0  0  0
   -2.3362    5.2338    4.0760 C   0  0  0  0  0  0  0  0  0  0  0  0
   -3.5180    5.1069    4.8030 C   0  0  0  0  0  0  0  0  0  0  0  0
   -3.5894    4.2397    5.8507 C   0  0  0  0  0  0  0  0  0  0  0  0
   -4.8034    4.1706    6.5274 O   0  0  0  0  0  0  0  0  0  0  0  0
   -5.3365    3.3973    7.5641 C   0  0  0  0  0  0  0  0  0  0  0  0
   -4.3760    2.9234    8.5849 C   0  0  0  0  0  0  0  0  0  0  0  0
   -3.0373    2.5639    8.4843 C   0  0  0  0  0  0  0  0  0  0  0  0
   -2.2134    2.1856    9.4853 C   0  0  0  0  0  0  0  0  0  0  0  0
   -2.7766    2.1478   10.7459 C   0  0  0  0  0  0  0  0  0  0  0  0
   -4.1248    2.4918   10.9414 C   0  0  0  0  0  0  0  0  0  0  0  0
   -4.9123    2.8794    9.8469 C   0  0  0  0  0  0  0  0  0  0  0  0
    1.3676   -1.0552    9.8080 C   0  0  0  0  0  0  0  0  0  0  0  0
  1  2  1  0
  2  3  1  0
  3  4  1  0
  4  5  1  0
  5  6  2  0
  6  7  1  0
  7  8  2  0
  8  9  1  0
  9 10  2  0
 10 11  1  0
 11 12  2  0
 12 13  1  0
 13 14  1  0
 14 15  1  0
 15 16  2  0
 16 17  1  0
 17 18  2  0
 18 19  1  0
 19 20  2  0
  2 21  1  0
 16  6  1  0
 12  7  1  0
 20 15  1  0
M  CHG  1   2   1
M  END
$$$$
