
     RDKit          3D

 21 23  0  0  0  0  0  0  0  0999 V2000
    1.1309   -1.3534    6.6857 C   0  0  0  0  0  0  0  0  0  0  0  0
    0.1541   -0.5714    5.9691 N   0  0  0  0  0  4  0  0  0  0  0  0
   -1.0481   -0.2939    6.7214 C   0  0  0  0  0  0  0  0  0  0  0  0
   -1.5688    1.0670    6.4396 C   0  0  0  0  0  0  0  0  0  0  0  0
   -2.4754    1.6994    7.3884 C   0  0  0  0  0  0  0  0  0  0  0  0
   -2.3544    2.9337    7.8068 C   0  0  0  0  0  0  0  0  0  0  0  0
   -2.4885    4.0541    6.8451 C   0  0  0  0  0  0  0  0  0  0  0  0
   -1.9834    3.6480    5.6450 C   0  0  0  0  0  0  0  0  0  0  0  0
   -2.0654    4.5772    4.6247 C   0  0  0  0  0  0  0  0  0  0  0  0
   -2.6348    5.8369    4.8535 C   0  0  0  0  0  0  0  0  0  0  0  0
   -3.1270    6.1720    6.1132 C   0  0  0  0  0  0  0  0  0  0  0  0
   -3.0598    5.2762    7.1368 C   0  0  0  0  0  0  0  0  0  0  0  0
   -3.5714    5.6855    8.3645 O   0  0  0  0  0  0  0  0  0  0  0  0
   -3.7798    5.0965    9.6161 C   0  0  0  0  0  0  0  0  0  0  0  0
   -2.8212    4.0396   10.0075 C   0  0  0  0  0  0  0  0  0  0  0  0
   -2.1358    3.0992    9.2477 C   0  0  0  0  0  0  0  0  0  0  0  0
   -1.2335    2.1940    9.6839 C   0  0  0  0  0  0  0  0  0  0  0  0
   -0.9754    2.2079   11.0406 C   0  0  0  0  0  0  0  0  0  0  0  0
   -1.6251    3.1226   11.8866 C   0  0  0  0  0  0  0  0  0  0  0  0
   -2.5471    4.0349   11.3518 C   0  0  0  0  0  0  0  0  0  0  0  0
   -0.1369   -1.1430    4.6672 C   0  0  0  0  0  0  0  0  0  0  0  0
  1  2  1  0
  2  3  1  0
  3  4  1  0
  4  5  1  0
  5  6  2  0
  6  7  1  0
  7  8  2  0
  8  9  1  0
  9 10  2  0
 10 11  1  0
 11 12  2  0
 12 13  1  0
 13 14  1  0
 14 15  1  0
 15 16  2  0
 16 17  1  0
 17 18  2  0
 18 19  1  0
 19 20  2  0
  2 21  1  0
 16  6  1  0
 12  7  1  0
 20 15  1  0
M  CHG  1   2   1
M  END
$$$$
