
     RDKit          3D

 21 23  0  0  0  0  0  0  0  0999 V2000
    0.2838   -2.4130    6.1715 C   0  0  0  0  0  0  0  0  0  0  0  0
   -0.1647   -1.2596    6.9114 N   0  0  0  0  0  4  0  0  0  0  0  0
   -1.4077   -0.6978    6.4341 C   0  0  0  0  0  0  0  0  0  0  0  0
   -1.3540    0.7843    6.3799 C   0  0  0  0  0  0  0  0  0  0  0  0
   -2.5204    1.5599    6.7799 C   0  0  0  0  0  0  0  0  0  0  0  0
   -2.4585    2.7446    7.3330 C   0  0  0  0  0  0  0  0  0  0  0  0
   -2.4386    3.9563    6.4789 C   0  0  0  0  0  0  0  0  0  0  0  0
   -1.7585    3.6596    5.3345 C   0  0  0  0  0  0  0  0  0  0  0  0
   -1.6792    4.6857    4.4116 C   0  0  0  0  0  0  0  0  0  0  0  0
   -2.2705    5.9282    4.6763 C   0  0  0  0  0  0  0  0  0  0  0  0
   -2.9474    6.1482    5.8741 C   0  0  0  0  0  0  0  0  0  0  0  0
   -3.0416    5.1552    6.8015 C   0  0  0  0  0  0  0  0  0  0  0  0
   -3.7325    5.4524    7.9723 O   0  0  0  0  0  0  0  0  0  0  0  0
   -4.1323    4.7480    9.1128 C   0  0  0  0  0  0  0  0  0  0  0  0
   -3.2500    3.6387    9.5371 C   0  0  0  0  0  0  0  0  0  0  0  0
   -2.4614    2.7636    8.7996 C   0  0  0  0  0  0  0  0  0  0  0  0
   -1.6408    1.8021    9.2747 C   0  0  0  0  0  0  0  0  0  0  0  0
   -1.5926    1.6777   10.6494 C   0  0  0  0  0  0  0  0  0  0  0  0
   -2.3592    2.5180   11.4744 C   0  0  0  0  0  0  0  0  0  0  0  0
   -3.1841    3.4968   10.9001 C   0  0  0  0  0  0  0  0  0  0  0  0
    0.8793   -0.2575    7.0232 C   0  0  0  0  0  0  0  0  0  0  0  0
  1  2  1  0
  2  3  1  0
  3  4  1  0
  4  5  1  0
  5  6  2  0
  6  7  1  0
  7  8  2  0
  8  9  1  0
  9 10  2  0
 10 11  1  0
 11 12  2  0
 12 13  1  0
 13 14  1  0
 14 15  1  0
 15 16  2  0
 16 17  1  0
 17 18  2  0
 18 19  1  0
 19 20  2  0
  2 21  1  0
 16  6  1  0
 12  7  1  0
 20 15  1  0
M  CHG  1   2   1
M  END
$$$$
