
     RDKit          3D

 21 23  0  0  0  0  0  0  0  0999 V2000
    0.2719    2.8002   12.3886 C   0  0  0  0  0  0  0  0  0  0  0  0
    0.3450    2.5442   10.9715 N   0  0  0  0  0  4  0  0  0  0  0  0
   -0.9349    2.2929   10.3494 C   0  0  0  0  0  0  0  0  0  0  0  0
   -0.8593    2.4143    8.8722 C   0  0  0  0  0  0  0  0  0  0  0  0
   -1.7816    1.6522    8.0412 C   0  0  0  0  0  0  0  0  0  0  0  0
   -2.1008    1.9757    6.8138 C   0  0  0  0  0  0  0  0  0  0  0  0
   -2.5538    3.3542    6.5093 C   0  0  0  0  0  0  0  0  0  0  0  0
   -3.2567    3.8182    7.5821 C   0  0  0  0  0  0  0  0  0  0  0  0
   -3.7236    5.1142    7.4666 C   0  0  0  0  0  0  0  0  0  0  0  0
   -3.4695    5.8617    6.3089 C   0  0  0  0  0  0  0  0  0  0  0  0
   -2.7423    5.3096    5.2564 C   0  0  0  0  0  0  0  0  0  0  0  0
   -2.2696    4.0352    5.3429 C   0  0  0  0  0  0  0  0  0  0  0  0
   -1.5536    3.5552    4.2506 O   0  0  0  0  0  0  0  0  0  0  0  0
   -0.8435    2.3895    3.9448 C   0  0  0  0  0  0  0  0  0  0  0  0
   -1.3303    1.1440    4.5780 C   0  0  0  0  0  0  0  0  0  0  0  0
   -1.9296    0.9186    5.8115 C   0  0  0  0  0  0  0  0  0  0  0  0
   -2.3922   -0.2544    6.2952 C   0  0  0  0  0  0  0  0  0  0  0  0
   -2.2412   -1.3484    5.4657 C   0  0  0  0  0  0  0  0  0  0  0  0
   -1.6431   -1.2146    4.2013 C   0  0  0  0  0  0  0  0  0  0  0  0
   -1.1928    0.0427    3.7715 C   0  0  0  0  0  0  0  0  0  0  0  0
    1.3132    1.5072   10.6653 C   0  0  0  0  0  0  0  0  0  0  0  0
  1  2  1  0
  2  3  1  0
  3  4  1  0
  4  5  1  0
  5  6  2  0
  6  7  1  0
  7  8  2  0
  8  9  1  0
  9 10  2  0
 10 11  1  0
 11 12  2  0
 12 13  1  0
 13 14  1  0
 14 15  1  0
 15 16  2  0
 16 17  1  0
 17 18  2  0
 18 19  1  0
 19 20  2  0
  2 21  1  0
 16  6  1  0
 12  7  1  0
 20 15  1  0
M  CHG  1   2   1
M  END
$$$$
