
     RDKit          3D

 21 23  0  0  0  0  0  0  0  0999 V2000
   -0.3104   -2.1603    5.9368 C   0  0  0  0  0  0  0  0  0  0  0  0
   -0.0151   -1.0498    6.8078 N   0  0  0  0  0  4  0  0  0  0  0  0
   -0.4656    0.2293    6.3083 C   0  0  0  0  0  0  0  0  0  0  0  0
   -0.9363    1.1109    7.4053 C   0  0  0  0  0  0  0  0  0  0  0  0
   -2.2328    1.7657    7.2939 C   0  0  0  0  0  0  0  0  0  0  0  0
   -2.5157    2.9270    7.8272 C   0  0  0  0  0  0  0  0  0  0  0  0
   -2.7031    4.1118    6.9559 C   0  0  0  0  0  0  0  0  0  0  0  0
   -1.8589    3.9952    5.8910 C   0  0  0  0  0  0  0  0  0  0  0  0
   -1.9370    5.0148    4.9608 C   0  0  0  0  0  0  0  0  0  0  0  0
   -2.8351    6.0752    5.1409 C   0  0  0  0  0  0  0  0  0  0  0  0
   -3.6630    6.1180    6.2608 C   0  0  0  0  0  0  0  0  0  0  0  0
   -3.6078    5.1268    7.1933 C   0  0  0  0  0  0  0  0  0  0  0  0
   -4.4652    5.2413    8.2834 O   0  0  0  0  0  0  0  0  0  0  0  0
   -4.7963    4.4549    9.3918 C   0  0  0  0  0  0  0  0  0  0  0  0
   -3.7195    3.5907    9.9236 C   0  0  0  0  0  0  0  0  0  0  0  0
   -2.6720    2.9370    9.2855 C   0  0  0  0  0  0  0  0  0  0  0  0
   -1.6956    2.2008    9.8587 C   0  0  0  0  0  0  0  0  0  0  0  0
   -1.7586    2.0845   11.2335 C   0  0  0  0  0  0  0  0  0  0  0  0
   -2.7852    2.7093   11.9615 C   0  0  0  0  0  0  0  0  0  0  0  0
   -3.7599    3.4617   11.2888 C   0  0  0  0  0  0  0  0  0  0  0  0
    1.3860   -1.0250    7.1856 C   0  0  0  0  0  0  0  0  0  0  0  0
  1  2  1  0
  2  3  1  0
  3  4  1  0
  4  5  1  0
  5  6  2  0
  6  7  1  0
  7  8  2  0
  8  9  1  0
  9 10  2  0
 10 11  1  0
 11 12  2  0
 12 13  1  0
 13 14  1  0
 14 15  1  0
 15 16  2  0
 16 17  1  0
 17 18  2  0
 18 19  1  0
 19 20  2  0
  2 21  1  0
 16  6  1  0
 12  7  1  0
 20 15  1  0
M  CHG  1   2   1
M  END
$$$$
