
     RDKit          3D

 22 23  0  0  0  0  0  0  0  0999 V2000
    5.5258   -5.1241    9.9046 N   0  0  0  0  0  0  0  0  0  0  0  0
    4.9171   -4.9064    8.9282 C   0  0  0  0  0  0  0  0  0  0  0  0
    4.1456   -4.6451    7.7364 C   0  0  0  0  0  0  0  0  0  0  0  0
    3.9571   -5.4804    6.6861 N   0  0  0  0  0  0  0  0  0  0  0  0
    3.1794   -4.8954    5.7563 C   0  0  0  0  0  0  0  0  0  0  0  0
    2.8503   -3.6380    6.2153 C   0  0  0  0  0  0  0  0  0  0  0  0
    3.4616   -3.4839    7.4644 C   0  0  0  0  0  0  0  0  0  0  0  0
    2.0529   -2.7910    5.4703 C   0  0  0  0  0  0  0  0  0  0  0  0
    1.7618   -1.5455    5.9888 O   0  0  0  0  0  0  0  0  0  0  0  0
    0.7896   -0.6797    5.4849 C   0  0  0  0  0  0  0  0  0  0  0  0
    1.0402    0.7125    6.0161 C   0  0  2  0  0  0  0  0  0  0  0  0
    0.6778    0.8485    7.4690 C   0  0  0  0  0  0  0  0  0  0  0  0
   -0.3286    1.8375    7.7055 N   0  0  0  0  0  4  0  0  0  0  0  0
   -0.6714    1.9575    9.1135 C   0  0  0  0  0  0  0  0  0  0  0  0
   -1.0336    0.6151    9.6953 C   0  0  0  0  0  0  0  0  0  0  0  0
   -1.8624    2.8849    9.2618 C   0  0  0  0  0  0  0  0  0  0  0  0
    0.5189    2.5555    9.8234 C   0  0  0  0  0  0  0  0  0  0  0  0
    0.3560    1.6492    5.2668 O   0  0  0  0  0  0  0  0  0  0  0  0
    1.5979   -3.2486    4.2512 C   0  0  0  0  0  0  0  0  0  0  0  0
    1.9314   -4.5232    3.7857 C   0  0  0  0  0  0  0  0  0  0  0  0
    2.7284   -5.3600    4.5384 C   0  0  0  0  0  0  0  0  0  0  0  0
    3.0941   -6.7323    4.0497 C   0  0  0  0  0  0  0  0  0  0  0  0
  1  2  3  0
  2  3  1  0
  3  4  1  0
  4  5  1  0
  5  6  2  0
  6  7  1  0
  6  8  1  0
  8  9  1  0
  9 10  1  0
 10 11  1  0
 11 12  1  0
 12 13  1  0
 13 14  1  0
 14 15  1  0
 14 16  1  0
 14 17  1  0
 11 18  1  6
  8 19  2  0
 19 20  1  0
 20 21  2  0
 21 22  1  0
  7  3  2  0
 21  5  1  0
M  CHG  1  13   1
M  END
$$$$
