
     RDKit          3D

 22 23  0  0  0  0  0  0  0  0999 V2000
    5.7366   -4.9017    9.8958 N   0  0  0  0  0  0  0  0  0  0  0  0
    5.1623   -4.7108    8.8933 C   0  0  0  0  0  0  0  0  0  0  0  0
    4.4561   -4.4999    7.6520 C   0  0  0  0  0  0  0  0  0  0  0  0
    4.3008   -5.3874    6.6398 N   0  0  0  0  0  0  0  0  0  0  0  0
    3.5828   -4.8389    5.6423 C   0  0  0  0  0  0  0  0  0  0  0  0
    3.2596   -3.5522    6.0162 C   0  0  0  0  0  0  0  0  0  0  0  0
    3.8122   -3.3421    7.2843 C   0  0  0  0  0  0  0  0  0  0  0  0
    2.5186   -2.7317    5.1879 C   0  0  0  0  0  0  0  0  0  0  0  0
    2.2302   -1.4544    5.6237 O   0  0  0  0  0  0  0  0  0  0  0  0
    1.2854   -0.6077    5.0413 C   0  0  0  0  0  0  0  0  0  0  0  0
    1.3426    0.7418    5.7186 C   0  0  2  0  0  0  0  0  0  0  0  0
    0.7178    0.7269    7.0861 C   0  0  0  0  0  0  0  0  0  0  0  0
    0.3667    2.0317    7.5562 N   0  0  0  0  0  4  0  0  0  0  0  0
   -0.2680    2.0003    8.8641 C   0  0  0  0  0  0  0  0  0  0  0  0
   -0.9598    3.3068    9.1579 C   0  0  0  0  0  0  0  0  0  0  0  0
    0.7872    1.7632    9.9275 C   0  0  0  0  0  0  0  0  0  0  0  0
   -1.2481    0.8523    8.8680 C   0  0  0  0  0  0  0  0  0  0  0  0
    0.7419    1.7058    4.9330 O   0  0  0  0  0  0  0  0  0  0  0  0
    2.1139   -3.2461    3.9738 C   0  0  0  0  0  0  0  0  0  0  0  0
    2.4414   -4.5505    3.5945 C   0  0  0  0  0  0  0  0  0  0  0  0
    3.1818   -5.3604    4.4298 C   0  0  0  0  0  0  0  0  0  0  0  0
    3.5405   -6.7642    4.0342 C   0  0  0  0  0  0  0  0  0  0  0  0
  1  2  3  0
  2  3  1  0
  3  4  1  0
  4  5  1  0
  5  6  2  0
  6  7  1  0
  6  8  1  0
  8  9  1  0
  9 10  1  0
 10 11  1  0
 11 12  1  0
 12 13  1  0
 13 14  1  0
 14 15  1  0
 14 16  1  0
 14 17  1  0
 11 18  1  6
  8 19  2  0
 19 20  1  0
 20 21  2  0
 21 22  1  0
  7  3  2  0
 21  5  1  0
M  CHG  1  13   1
M  END
$$$$
