
     RDKit          3D

 22 23  0  0  0  0  0  0  0  0999 V2000
    6.1356   -5.7172    9.5670 N   0  0  0  0  0  0  0  0  0  0  0  0
    5.3803   -5.3083    8.7711 C   0  0  0  0  0  0  0  0  0  0  0  0
    4.4681   -4.8021    7.7733 C   0  0  0  0  0  0  0  0  0  0  0  0
    4.0920   -5.4149    6.6247 N   0  0  0  0  0  0  0  0  0  0  0  0
    3.2273   -4.6411    5.9427 C   0  0  0  0  0  0  0  0  0  0  0  0
    3.0334   -3.4866    6.6703 C   0  0  0  0  0  0  0  0  0  0  0  0
    3.8177   -3.5919    7.8241 C   0  0  0  0  0  0  0  0  0  0  0  0
    2.1887   -2.4908    6.2194 C   0  0  0  0  0  0  0  0  0  0  0  0
    2.0399   -1.3604    6.9971 O   0  0  0  0  0  0  0  0  0  0  0  0
    0.8702   -0.6041    7.0885 C   0  0  0  0  0  0  0  0  0  0  0  0
    1.0987    0.5529    8.0331 C   0  0  2  0  0  0  0  0  0  0  0  0
   -0.1505    1.3539    8.2756 C   0  0  0  0  0  0  0  0  0  0  0  0
    0.1090    2.6341    8.8593 N   0  0  0  0  0  4  0  0  0  0  0  0
   -1.1099    3.3764    9.1380 C   0  0  0  0  0  0  0  0  0  0  0  0
   -1.9513    3.5152    7.8952 C   0  0  0  0  0  0  0  0  0  0  0  0
   -0.7493    4.7636    9.6341 C   0  0  0  0  0  0  0  0  0  0  0  0
   -1.8567    2.6367   10.2214 C   0  0  0  0  0  0  0  0  0  0  0  0
    2.1046    1.3737    7.5622 O   0  0  0  0  0  0  0  0  0  0  0  0
    1.5466   -2.6933    5.0156 C   0  0  0  0  0  0  0  0  0  0  0  0
    1.7430   -3.8636    4.2778 C   0  0  0  0  0  0  0  0  0  0  0  0
    2.5888   -4.8509    4.7381 C   0  0  0  0  0  0  0  0  0  0  0  0
    2.8087   -6.1135    3.9549 C   0  0  0  0  0  0  0  0  0  0  0  0
  1  2  3  0
  2  3  1  0
  3  4  1  0
  4  5  1  0
  5  6  2  0
  6  7  1  0
  6  8  1  0
  8  9  1  0
  9 10  1  0
 10 11  1  0
 11 12  1  0
 12 13  1  0
 13 14  1  0
 14 15  1  0
 14 16  1  0
 14 17  1  0
 11 18  1  6
  8 19  2  0
 19 20  1  0
 20 21  2  0
 21 22  1  0
  7  3  2  0
 21  5  1  0
M  CHG  1  13   1
M  END
$$$$
