
     RDKit          3D

 22 23  0  0  0  0  0  0  0  0999 V2000
    5.6753   -5.0550   10.0802 N   0  0  0  0  0  0  0  0  0  0  0  0
    5.0871   -4.8734    9.0840 C   0  0  0  0  0  0  0  0  0  0  0  0
    4.3635   -4.6248    7.8599 C   0  0  0  0  0  0  0  0  0  0  0  0
    4.2334   -5.4634    6.8034 N   0  0  0  0  0  0  0  0  0  0  0  0
    3.4872   -4.8911    5.8405 C   0  0  0  0  0  0  0  0  0  0  0  0
    3.1190   -3.6389    6.2836 C   0  0  0  0  0  0  0  0  0  0  0  0
    3.6736   -3.4747    7.5576 C   0  0  0  0  0  0  0  0  0  0  0  0
    2.3409   -2.8049    5.5042 C   0  0  0  0  0  0  0  0  0  0  0  0
    2.0083   -1.5640    6.0083 O   0  0  0  0  0  0  0  0  0  0  0  0
    1.1364   -0.6623    5.3957 C   0  0  0  0  0  0  0  0  0  0  0  0
    1.3338    0.7087    5.9996 C   0  0  2  0  0  0  0  0  0  0  0  0
    0.8611    0.7838    7.4249 C   0  0  0  0  0  0  0  0  0  0  0  0
   -0.0831    1.8352    7.6478 N   0  0  0  0  0  4  0  0  0  0  0  0
   -0.4834    1.9381    9.0419 C   0  0  0  0  0  0  0  0  0  0  0  0
   -1.4520    3.0755    9.2410 C   0  0  0  0  0  0  0  0  0  0  0  0
    0.7427    2.1929    9.8976 C   0  0  0  0  0  0  0  0  0  0  0  0
   -1.1032    0.6196    9.4369 C   0  0  0  0  0  0  0  0  0  0  0  0
    0.7001    1.6710    5.2383 O   0  0  0  0  0  0  0  0  0  0  0  0
    1.9460   -3.2700    4.2672 C   0  0  0  0  0  0  0  0  0  0  0  0
    2.3192   -4.5394    3.8178 C   0  0  0  0  0  0  0  0  0  0  0  0
    3.0962   -5.3632    4.6048 C   0  0  0  0  0  0  0  0  0  0  0  0
    3.5042   -6.7298    4.1337 C   0  0  0  0  0  0  0  0  0  0  0  0
  1  2  3  0
  2  3  1  0
  3  4  1  0
  4  5  1  0
  5  6  2  0
  6  7  1  0
  6  8  1  0
  8  9  1  0
  9 10  1  0
 10 11  1  0
 11 12  1  0
 12 13  1  0
 13 14  1  0
 14 15  1  0
 14 16  1  0
 14 17  1  0
 11 18  1  6
  8 19  2  0
 19 20  1  0
 20 21  2  0
 21 22  1  0
  7  3  2  0
 21  5  1  0
M  CHG  1  13   1
M  END
$$$$
