
     RDKit          3D

 22 23  0  0  0  0  0  0  0  0999 V2000
    5.6683   -5.0476   10.1525 N   0  0  0  0  0  0  0  0  0  0  0  0
    5.0696   -4.8687    9.1621 C   0  0  0  0  0  0  0  0  0  0  0  0
    4.3495   -4.6323    7.9336 C   0  0  0  0  0  0  0  0  0  0  0  0
    4.1737   -5.5022    6.9095 N   0  0  0  0  0  0  0  0  0  0  0  0
    3.4477   -4.9319    5.9301 C   0  0  0  0  0  0  0  0  0  0  0  0
    3.1402   -3.6487    6.3285 C   0  0  0  0  0  0  0  0  0  0  0  0
    3.7107   -3.4635    7.5926 C   0  0  0  0  0  0  0  0  0  0  0  0
    2.3956   -2.8090    5.5230 C   0  0  0  0  0  0  0  0  0  0  0  0
    2.1236   -1.5365    5.9827 O   0  0  0  0  0  0  0  0  0  0  0  0
    1.1841   -0.6701    5.4213 C   0  0  0  0  0  0  0  0  0  0  0  0
    1.2947    0.6821    6.0866 C   0  0  2  0  0  0  0  0  0  0  0  0
    0.7697    0.6755    7.4956 C   0  0  0  0  0  0  0  0  0  0  0  0
   -0.0692    1.7973    7.7864 N   0  0  0  0  0  4  0  0  0  0  0  0
   -0.4983    1.8265    9.1754 C   0  0  0  0  0  0  0  0  0  0  0  0
   -1.2671    0.5788    9.5274 C   0  0  0  0  0  0  0  0  0  0  0  0
   -1.3988    3.0268    9.3964 C   0  0  0  0  0  0  0  0  0  0  0  0
    0.7372    1.9644   10.0316 C   0  0  0  0  0  0  0  0  0  0  0  0
    0.6427    1.6451    5.3419 O   0  0  0  0  0  0  0  0  0  0  0  0
    1.9711   -3.3007    4.3062 C   0  0  0  0  0  0  0  0  0  0  0  0
    2.2827   -4.6015    3.9021 C   0  0  0  0  0  0  0  0  0  0  0  0
    3.0268   -5.4307    4.7149 C   0  0  0  0  0  0  0  0  0  0  0  0
    3.3686   -6.8309    4.2924 C   0  0  0  0  0  0  0  0  0  0  0  0
  1  2  3  0
  2  3  1  0
  3  4  1  0
  4  5  1  0
  5  6  2  0
  6  7  1  0
  6  8  1  0
  8  9  1  0
  9 10  1  0
 10 11  1  0
 11 12  1  0
 12 13  1  0
 13 14  1  0
 14 15  1  0
 14 16  1  0
 14 17  1  0
 11 18  1  6
  8 19  2  0
 19 20  1  0
 20 21  2  0
 21 22  1  0
  7  3  2  0
 21  5  1  0
M  CHG  1  13   1
M  END
$$$$
