
     RDKit          3D

 22 23  0  0  0  0  0  0  0  0999 V2000
    4.9791   -5.6684   10.2897 N   0  0  0  0  0  0  0  0  0  0  0  0
    4.4841   -5.2547    9.3124 C   0  0  0  0  0  0  0  0  0  0  0  0
    3.8919   -4.7560    8.0941 C   0  0  0  0  0  0  0  0  0  0  0  0
    3.8473   -5.3808    6.8924 N   0  0  0  0  0  0  0  0  0  0  0  0
    3.2145   -4.6110    5.9877 C   0  0  0  0  0  0  0  0  0  0  0  0
    2.8341   -3.4468    6.6200 C   0  0  0  0  0  0  0  0  0  0  0  0
    3.2632   -3.5421    7.9484 C   0  0  0  0  0  0  0  0  0  0  0  0
    2.1576   -2.4523    5.9406 C   0  0  0  0  0  0  0  0  0  0  0  0
    1.8063   -1.3118    6.6339 O   0  0  0  0  0  0  0  0  0  0  0  0
    1.8814   -0.0144    6.1244 C   0  0  0  0  0  0  0  0  0  0  0  0
    0.7085    0.7893    6.6359 C   0  0  2  0  0  0  0  0  0  0  0  0
    0.7471    0.9797    8.1269 C   0  0  0  0  0  0  0  0  0  0  0  0
    0.9730    2.3387    8.5128 N   0  0  0  0  0  4  0  0  0  0  0  0
    0.7233    2.5649    9.9273 C   0  0  0  0  0  0  0  0  0  0  0  0
    1.7551    3.4939   10.5139 C   0  0  0  0  0  0  0  0  0  0  0  0
    0.7900    1.2416   10.6656 C   0  0  0  0  0  0  0  0  0  0  0  0
   -0.6657    3.1410   10.0589 C   0  0  0  0  0  0  0  0  0  0  0  0
   -0.4838    0.2002    6.2636 O   0  0  0  0  0  0  0  0  0  0  0  0
    1.8765   -2.6661    4.6072 C   0  0  0  0  0  0  0  0  0  0  0  0
    2.2620   -3.8462    3.9660 C   0  0  0  0  0  0  0  0  0  0  0  0
    2.9370   -4.8321    4.6547 C   0  0  0  0  0  0  0  0  0  0  0  0
    3.3569   -6.1051    3.9773 C   0  0  0  0  0  0  0  0  0  0  0  0
  1  2  3  0
  2  3  1  0
  3  4  1  0
  4  5  1  0
  5  6  2  0
  6  7  1  0
  6  8  1  0
  8  9  1  0
  9 10  1  0
 10 11  1  0
 11 12  1  0
 12 13  1  0
 13 14  1  0
 14 15  1  0
 14 16  1  0
 14 17  1  0
 11 18  1  1
  8 19  2  0
 19 20  1  0
 20 21  2  0
 21 22  1  0
  7  3  2  0
 21  5  1  0
M  CHG  1  13   1
M  END
$$$$
