
     RDKit          3D

 22 23  0  0  0  0  0  0  0  0999 V2000
    5.0923   -4.9342   10.0413 N   0  0  0  0  0  0  0  0  0  0  0  0
    4.5173   -4.7238    9.0432 C   0  0  0  0  0  0  0  0  0  0  0  0
    3.8162   -4.4867    7.8038 C   0  0  0  0  0  0  0  0  0  0  0  0
    3.5870   -5.3804    6.8112 N   0  0  0  0  0  0  0  0  0  0  0  0
    2.9009   -4.8009    5.8087 C   0  0  0  0  0  0  0  0  0  0  0  0
    2.6756   -3.4869    6.1590 C   0  0  0  0  0  0  0  0  0  0  0  0
    3.2544   -3.2926    7.4180 C   0  0  0  0  0  0  0  0  0  0  0  0
    1.9879   -2.6312    5.3204 C   0  0  0  0  0  0  0  0  0  0  0  0
    1.7972   -1.3280    5.7324 O   0  0  0  0  0  0  0  0  0  0  0  0
    0.7869   -0.4846    5.2670 C   0  0  0  0  0  0  0  0  0  0  0  0
    0.9648    0.8871    5.8751 C   0  0  2  0  0  0  0  0  0  0  0  0
    0.5608    0.9323    7.3227 C   0  0  0  0  0  0  0  0  0  0  0  0
   -0.5836    1.7575    7.5598 N   0  0  0  0  0  4  0  0  0  0  0  0
   -0.9436    1.8196    8.9672 C   0  0  0  0  0  0  0  0  0  0  0  0
   -2.0847    2.7790    9.1889 C   0  0  0  0  0  0  0  0  0  0  0  0
    0.2517    2.2976    9.7694 C   0  0  0  0  0  0  0  0  0  0  0  0
   -1.3133    0.4232    9.4054 C   0  0  0  0  0  0  0  0  0  0  0  0
    0.2604    1.8327    5.1562 O   0  0  0  0  0  0  0  0  0  0  0  0
    1.5351   -3.1388    4.1204 C   0  0  0  0  0  0  0  0  0  0  0  0
    1.7635   -4.4707    3.7651 C   0  0  0  0  0  0  0  0  0  0  0  0
    2.4513   -5.3157    4.6106 C   0  0  0  0  0  0  0  0  0  0  0  0
    2.7034   -6.7493    4.2407 C   0  0  0  0  0  0  0  0  0  0  0  0
  1  2  3  0
  2  3  1  0
  3  4  1  0
  4  5  1  0
  5  6  2  0
  6  7  1  0
  6  8  1  0
  8  9  1  0
  9 10  1  0
 10 11  1  0
 11 12  1  0
 12 13  1  0
 13 14  1  0
 14 15  1  0
 14 16  1  0
 14 17  1  0
 11 18  1  6
  8 19  2  0
 19 20  1  0
 20 21  2  0
 21 22  1  0
  7  3  2  0
 21  5  1  0
M  CHG  1  13   1
M  END
$$$$
