
     RDKit          3D

 22 23  0  0  0  0  0  0  0  0999 V2000
    4.7391   -5.1697   10.2079 N   0  0  0  0  0  0  0  0  0  0  0  0
    4.2565   -4.8970    9.1764 C   0  0  0  0  0  0  0  0  0  0  0  0
    3.6792   -4.5431    7.9016 C   0  0  0  0  0  0  0  0  0  0  0  0
    3.6629   -5.2961    6.7751 N   0  0  0  0  0  0  0  0  0  0  0  0
    3.0363   -4.6390    5.7816 C   0  0  0  0  0  0  0  0  0  0  0  0
    2.6308   -3.4180    6.2765 C   0  0  0  0  0  0  0  0  0  0  0  0
    3.0382   -3.3613    7.6138 C   0  0  0  0  0  0  0  0  0  0  0  0
    1.9539   -2.5135    5.4815 C   0  0  0  0  0  0  0  0  0  0  0  0
    1.5767   -1.3091    6.0400 O   0  0  0  0  0  0  0  0  0  0  0  0
    1.4555   -0.1084    5.3385 C   0  0  0  0  0  0  0  0  0  0  0  0
    0.6070    0.8518    6.1392 C   0  0  2  0  0  0  0  0  0  0  0  0
    1.0152    0.9134    7.5849 C   0  0  0  0  0  0  0  0  0  0  0  0
    0.8262    2.2070    8.1662 N   0  0  0  0  0  4  0  0  0  0  0  0
    0.9903    2.1977    9.6109 C   0  0  0  0  0  0  0  0  0  0  0  0
    2.3331    1.6319    9.9962 C   0  0  0  0  0  0  0  0  0  0  0  0
   -0.0926    1.3368   10.2327 C   0  0  0  0  0  0  0  0  0  0  0  0
    0.8389    3.6190   10.0962 C   0  0  0  0  0  0  0  0  0  0  0  0
   -0.7298    0.5203    6.0374 O   0  0  0  0  0  0  0  0  0  0  0  0
    1.6983   -2.8759    4.1754 C   0  0  0  0  0  0  0  0  0  0  0  0
    2.1092   -4.1136    3.6736 C   0  0  0  0  0  0  0  0  0  0  0  0
    2.7844   -5.0085    4.4767 C   0  0  0  0  0  0  0  0  0  0  0  0
    3.2316   -6.3420    3.9497 C   0  0  0  0  0  0  0  0  0  0  0  0
  1  2  3  0
  2  3  1  0
  3  4  1  0
  4  5  1  0
  5  6  2  0
  6  7  1  0
  6  8  1  0
  8  9  1  0
  9 10  1  0
 10 11  1  0
 11 12  1  0
 12 13  1  0
 13 14  1  0
 14 15  1  0
 14 16  1  0
 14 17  1  0
 11 18  1  1
  8 19  2  0
 19 20  1  0
 20 21  2  0
 21 22  1  0
  7  3  2  0
 21  5  1  0
M  CHG  1  13   1
M  END
$$$$
