
     RDKit          3D

 22 23  0  0  0  0  0  0  0  0999 V2000
    5.6418   -5.6131    9.9123 N   0  0  0  0  0  0  0  0  0  0  0  0
    5.0779   -5.1715    8.9859 C   0  0  0  0  0  0  0  0  0  0  0  0
    4.3709   -4.6491    7.8408 C   0  0  0  0  0  0  0  0  0  0  0  0
    4.2834   -5.2089    6.6098 N   0  0  0  0  0  0  0  0  0  0  0  0
    3.5403   -4.4364    5.7959 C   0  0  0  0  0  0  0  0  0  0  0  0
    3.1300   -3.3374    6.5197 C   0  0  0  0  0  0  0  0  0  0  0  0
    3.6559   -3.4752    7.8089 C   0  0  0  0  0  0  0  0  0  0  0  0
    2.3445   -2.3563    5.9463 C   0  0  0  0  0  0  0  0  0  0  0  0
    1.9689   -1.2823    6.7275 O   0  0  0  0  0  0  0  0  0  0  0  0
    0.9176   -0.4122    6.4340 C   0  0  0  0  0  0  0  0  0  0  0  0
    1.4164    1.0124    6.5061 C   0  0  2  0  0  0  0  0  0  0  0  0
    1.3055    1.5922    7.8889 C   0  0  0  0  0  0  0  0  0  0  0  0
    0.0900    2.3176    8.0968 N   0  0  0  0  0  4  0  0  0  0  0  0
    0.0144    2.9091    9.4230 C   0  0  0  0  0  0  0  0  0  0  0  0
   -1.3207    3.5741    9.6400 C   0  0  0  0  0  0  0  0  0  0  0  0
    1.1036    3.9546    9.5681 C   0  0  0  0  0  0  0  0  0  0  0  0
    0.2432    1.8063   10.4280 C   0  0  0  0  0  0  0  0  0  0  0  0
    0.7425    1.8097    5.6019 O   0  0  0  0  0  0  0  0  0  0  0  0
    1.9856   -2.5159    4.6241 C   0  0  0  0  0  0  0  0  0  0  0  0
    2.4014   -3.6299    3.8902 C   0  0  0  0  0  0  0  0  0  0  0  0
    3.1855   -4.6030    4.4734 C   0  0  0  0  0  0  0  0  0  0  0  0
    3.6391   -5.8052    3.6958 C   0  0  0  0  0  0  0  0  0  0  0  0
  1  2  3  0
  2  3  1  0
  3  4  1  0
  4  5  1  0
  5  6  2  0
  6  7  1  0
  6  8  1  0
  8  9  1  0
  9 10  1  0
 10 11  1  0
 11 12  1  0
 12 13  1  0
 13 14  1  0
 14 15  1  0
 14 16  1  0
 14 17  1  0
 11 18  1  6
  8 19  2  0
 19 20  1  0
 20 21  2  0
 21 22  1  0
  7  3  2  0
 21  5  1  0
M  CHG  1  13   1
M  END
$$$$
