
     RDKit          3D

 22 23  0  0  0  0  0  0  0  0999 V2000
    5.4408   -5.4783   10.2187 N   0  0  0  0  0  0  0  0  0  0  0  0
    4.9170   -5.0376    9.2686 C   0  0  0  0  0  0  0  0  0  0  0  0
    4.2851   -4.4734    8.0998 C   0  0  0  0  0  0  0  0  0  0  0  0
    4.3910   -4.9122    6.8220 N   0  0  0  0  0  0  0  0  0  0  0  0
    3.6609   -4.1372    5.9988 C   0  0  0  0  0  0  0  0  0  0  0  0
    3.0595   -3.1615    6.7646 C   0  0  0  0  0  0  0  0  0  0  0  0
    3.4556   -3.3770    8.0890 C   0  0  0  0  0  0  0  0  0  0  0  0
    2.2392   -2.2083    6.1928 C   0  0  0  0  0  0  0  0  0  0  0  0
    1.6687   -1.2598    7.0172 O   0  0  0  0  0  0  0  0  0  0  0  0
    1.0412   -0.0937    6.5756 C   0  0  0  0  0  0  0  0  0  0  0  0
    0.2131    0.4819    7.7009 C   0  0  2  0  0  0  0  0  0  0  0  0
    1.0404    1.2638    8.6832 C   0  0  0  0  0  0  0  0  0  0  0  0
    0.6552    2.6389    8.7711 N   0  0  0  0  0  4  0  0  0  0  0  0
    1.4481    3.3785    9.7398 C   0  0  0  0  0  0  0  0  0  0  0  0
    2.8154    2.7641    9.8972 C   0  0  0  0  0  0  0  0  0  0  0  0
    0.7487    3.3507   11.0854 C   0  0  0  0  0  0  0  0  0  0  0  0
    1.5446    4.8052    9.2562 C   0  0  0  0  0  0  0  0  0  0  0  0
   -0.4806   -0.5176    8.3544 O   0  0  0  0  0  0  0  0  0  0  0  0
    2.0437   -2.2680    4.8287 C   0  0  0  0  0  0  0  0  0  0  0  0
    2.6532   -3.2569    4.0522 C   0  0  0  0  0  0  0  0  0  0  0  0
    3.4702   -4.2034    4.6342 C   0  0  0  0  0  0  0  0  0  0  0  0
    4.1313   -5.2716    3.8111 C   0  0  0  0  0  0  0  0  0  0  0  0
  1  2  3  0
  2  3  1  0
  3  4  1  0
  4  5  1  0
  5  6  2  0
  6  7  1  0
  6  8  1  0
  8  9  1  0
  9 10  1  0
 10 11  1  0
 11 12  1  0
 12 13  1  0
 13 14  1  0
 14 15  1  0
 14 16  1  0
 14 17  1  0
 11 18  1  1
  8 19  2  0
 19 20  1  0
 20 21  2  0
 21 22  1  0
  7  3  2  0
 21  5  1  0
M  CHG  1  13   1
M  END
$$$$
