
     RDKit          3D

 22 23  0  0  0  0  0  0  0  0999 V2000
    5.6640   -4.6683   10.0179 N   0  0  0  0  0  0  0  0  0  0  0  0
    5.1008   -4.4897    9.0068 C   0  0  0  0  0  0  0  0  0  0  0  0
    4.3847   -4.2712    7.7726 C   0  0  0  0  0  0  0  0  0  0  0  0
    4.2936   -5.1198    6.7200 N   0  0  0  0  0  0  0  0  0  0  0  0
    3.5417   -4.5768    5.7446 C   0  0  0  0  0  0  0  0  0  0  0  0
    3.1293   -3.3341    6.1752 C   0  0  0  0  0  0  0  0  0  0  0  0
    3.6630   -3.1450    7.4547 C   0  0  0  0  0  0  0  0  0  0  0  0
    2.3352   -2.5295    5.3813 C   0  0  0  0  0  0  0  0  0  0  0  0
    1.9579   -1.2966    5.8735 O   0  0  0  0  0  0  0  0  0  0  0  0
    1.1066   -0.4040    5.2200 C   0  0  0  0  0  0  0  0  0  0  0  0
    1.2126    0.9538    5.8746 C   0  0  2  0  0  0  0  0  0  0  0  0
    0.6716    0.9607    7.2775 C   0  0  0  0  0  0  0  0  0  0  0  0
    0.0694    2.2068    7.6399 N   0  0  0  0  0  4  0  0  0  0  0  0
   -0.4136    2.2139    9.0114 C   0  0  0  0  0  0  0  0  0  0  0  0
   -1.3726    1.0758    9.2499 C   0  0  0  0  0  0  0  0  0  0  0  0
   -1.1373    3.5193    9.2810 C   0  0  0  0  0  0  0  0  0  0  0  0
    0.7884    2.1123    9.9188 C   0  0  0  0  0  0  0  0  0  0  0  0
    0.5710    1.9115    5.1140 O   0  0  0  0  0  0  0  0  0  0  0  0
    1.9699   -3.0143    4.1426 C   0  0  0  0  0  0  0  0  0  0  0  0
    2.3879   -4.2740    3.7059 C   0  0  0  0  0  0  0  0  0  0  0  0
    3.1807   -5.0684    4.5074 C   0  0  0  0  0  0  0  0  0  0  0  0
    3.6367   -6.4244    4.0500 C   0  0  0  0  0  0  0  0  0  0  0  0
  1  2  3  0
  2  3  1  0
  3  4  1  0
  4  5  1  0
  5  6  2  0
  6  7  1  0
  6  8  1  0
  8  9  1  0
  9 10  1  0
 10 11  1  0
 11 12  1  0
 12 13  1  0
 13 14  1  0
 14 15  1  0
 14 16  1  0
 14 17  1  0
 11 18  1  6
  8 19  2  0
 19 20  1  0
 20 21  2  0
 21 22  1  0
  7  3  2  0
 21  5  1  0
M  CHG  1  13   1
M  END
$$$$
