
     RDKit          3D

 22 23  0  0  0  0  0  0  0  0999 V2000
    3.0088    1.4304   11.0579 N   0  0  0  0  0  0  0  0  0  0  0  0
    2.7015    1.0772    9.9845 C   0  0  0  0  0  0  0  0  0  0  0  0
    2.3392    0.6582    8.6515 C   0  0  0  0  0  0  0  0  0  0  0  0
    1.6256    1.3623    7.7397 N   0  0  0  0  0  0  0  0  0  0  0  0
    1.4840    0.6514    6.6056 C   0  0  0  0  0  0  0  0  0  0  0  0
    2.1261   -0.5552    6.7838 C   0  0  0  0  0  0  0  0  0  0  0  0
    2.6642   -0.5471    8.0754 C   0  0  0  0  0  0  0  0  0  0  0  0
    2.1526   -1.5058    5.7818 C   0  0  0  0  0  0  0  0  0  0  0  0
    2.8131   -2.6927    6.0263 O   0  0  0  0  0  0  0  0  0  0  0  0
    2.7485   -3.8235    5.2105 C   0  0  0  0  0  0  0  0  0  0  0  0
    3.6822   -4.8811    5.7517 C   0  0  2  0  0  0  0  0  0  0  0  0
    3.7411   -4.8832    7.2541 C   0  0  0  0  0  0  0  0  0  0  0  0
    3.6284   -6.1933    7.8178 N   0  0  0  0  0  4  0  0  0  0  0  0
    3.5749   -6.1718    9.2707 C   0  0  0  0  0  0  0  0  0  0  0  0
    3.3506   -7.5568    9.8213 C   0  0  0  0  0  0  0  0  0  0  0  0
    2.4292   -5.2836    9.7168 C   0  0  0  0  0  0  0  0  0  0  0  0
    4.8780   -5.5932    9.7665 C   0  0  0  0  0  0  0  0  0  0  0  0
    4.9503   -4.7244    5.2275 O   0  0  0  0  0  0  0  0  0  0  0  0
    1.5137   -1.2042    4.5971 C   0  0  0  0  0  0  0  0  0  0  0  0
    0.8628    0.0189    4.4163 C   0  0  0  0  0  0  0  0  0  0  0  0
    0.8430    0.9603    5.4239 C   0  0  0  0  0  0  0  0  0  0  0  0
    0.1469    2.2788    5.2425 C   0  0  0  0  0  0  0  0  0  0  0  0
  1  2  3  0
  2  3  1  0
  3  4  1  0
  4  5  1  0
  5  6  2  0
  6  7  1  0
  6  8  1  0
  8  9  1  0
  9 10  1  0
 10 11  1  0
 11 12  1  0
 12 13  1  0
 13 14  1  0
 14 15  1  0
 14 16  1  0
 14 17  1  0
 11 18  1  6
  8 19  2  0
 19 20  1  0
 20 21  2  0
 21 22  1  0
  7  3  2  0
 21  5  1  0
M  CHG  1  13   1
M  END
$$$$
