
     RDKit          3D

 22 23  0  0  0  0  0  0  0  0999 V2000
    4.8103   -5.1265   10.1756 N   0  0  0  0  0  0  0  0  0  0  0  0
    4.3425   -4.8120    9.1492 C   0  0  0  0  0  0  0  0  0  0  0  0
    3.7716   -4.4471    7.8745 C   0  0  0  0  0  0  0  0  0  0  0  0
    3.7616   -5.1902    6.7414 N   0  0  0  0  0  0  0  0  0  0  0  0
    3.1398   -4.5245    5.7505 C   0  0  0  0  0  0  0  0  0  0  0  0
    2.7313   -3.3082    6.2540 C   0  0  0  0  0  0  0  0  0  0  0  0
    3.1316   -3.2631    7.5939 C   0  0  0  0  0  0  0  0  0  0  0  0
    2.0580   -2.3969    5.4635 C   0  0  0  0  0  0  0  0  0  0  0  0
    1.6774   -1.1977    6.0306 O   0  0  0  0  0  0  0  0  0  0  0  0
    1.6322    0.0239    5.3567 C   0  0  0  0  0  0  0  0  0  0  0  0
    0.7493    0.9818    6.1223 C   0  0  2  0  0  0  0  0  0  0  0  0
    1.0475    0.9874    7.5960 C   0  0  0  0  0  0  0  0  0  0  0  0
    0.7081    2.2233    8.2319 N   0  0  0  0  0  4  0  0  0  0  0  0
    0.9655    2.2024    9.6628 C   0  0  0  0  0  0  0  0  0  0  0  0
   -0.0281    1.3210   10.3753 C   0  0  0  0  0  0  0  0  0  0  0  0
    0.8442    3.6101   10.2143 C   0  0  0  0  0  0  0  0  0  0  0  0
    2.3767    1.7063    9.8652 C   0  0  0  0  0  0  0  0  0  0  0  0
   -0.5837    0.6903    5.9091 O   0  0  0  0  0  0  0  0  0  0  0  0
    1.8095   -2.7479    4.1529 C   0  0  0  0  0  0  0  0  0  0  0  0
    2.2236   -3.9809    3.6423 C   0  0  0  0  0  0  0  0  0  0  0  0
    2.8950   -4.8826    4.4411 C   0  0  0  0  0  0  0  0  0  0  0  0
    3.3455   -6.2112    3.9047 C   0  0  0  0  0  0  0  0  0  0  0  0
  1  2  3  0
  2  3  1  0
  3  4  1  0
  4  5  1  0
  5  6  2  0
  6  7  1  0
  6  8  1  0
  8  9  1  0
  9 10  1  0
 10 11  1  0
 11 12  1  0
 12 13  1  0
 13 14  1  0
 14 15  1  0
 14 16  1  0
 14 17  1  0
 11 18  1  1
  8 19  2  0
 19 20  1  0
 20 21  2  0
 21 22  1  0
  7  3  2  0
 21  5  1  0
M  CHG  1  13   1
M  END
$$$$
