
     RDKit          3D

 22 23  0  0  0  0  0  0  0  0999 V2000
    4.9963   -5.3705   10.5187 N   0  0  0  0  0  0  0  0  0  0  0  0
    4.5787   -5.0063    9.4871 C   0  0  0  0  0  0  0  0  0  0  0  0
    4.0432   -4.5488    8.2270 C   0  0  0  0  0  0  0  0  0  0  0  0
    4.0464   -5.2164    7.0477 N   0  0  0  0  0  0  0  0  0  0  0  0
    3.4587   -4.4764    6.0893 C   0  0  0  0  0  0  0  0  0  0  0  0
    3.0594   -3.2880    6.6623 C   0  0  0  0  0  0  0  0  0  0  0  0
    3.4299   -3.3375    8.0106 C   0  0  0  0  0  0  0  0  0  0  0  0
    2.4199   -2.3151    5.9187 C   0  0  0  0  0  0  0  0  0  0  0  0
    2.0469   -1.1485    6.5547 O   0  0  0  0  0  0  0  0  0  0  0  0
    1.6995    0.0373    5.9053 C   0  0  0  0  0  0  0  0  0  0  0  0
    0.5930    0.7201    6.6752 C   0  0  2  0  0  0  0  0  0  0  0  0
    1.0318    1.1630    8.0435 C   0  0  0  0  0  0  0  0  0  0  0  0
    0.2367    2.2299    8.5691 N   0  0  0  0  0  4  0  0  0  0  0  0
    0.7080    2.6891    9.8658 C   0  0  0  0  0  0  0  0  0  0  0  0
   -0.2262    2.2501   10.9641 C   0  0  0  0  0  0  0  0  0  0  0  0
    0.7754    4.2044    9.8665 C   0  0  0  0  0  0  0  0  0  0  0  0
    2.0936    2.1272   10.0726 C   0  0  0  0  0  0  0  0  0  0  0  0
   -0.5105   -0.1043    6.7747 O   0  0  0  0  0  0  0  0  0  0  0  0
    2.1953   -2.5756    4.5829 C   0  0  0  0  0  0  0  0  0  0  0  0
    2.6000   -3.7802    4.0019 C   0  0  0  0  0  0  0  0  0  0  0  0
    3.2377   -4.7441    4.7543 C   0  0  0  0  0  0  0  0  0  0  0  0
    3.6777   -6.0431    4.1420 C   0  0  0  0  0  0  0  0  0  0  0  0
  1  2  3  0
  2  3  1  0
  3  4  1  0
  4  5  1  0
  5  6  2  0
  6  7  1  0
  6  8  1  0
  8  9  1  0
  9 10  1  0
 10 11  1  0
 11 12  1  0
 12 13  1  0
 13 14  1  0
 14 15  1  0
 14 16  1  0
 14 17  1  0
 11 18  1  1
  8 19  2  0
 19 20  1  0
 20 21  2  0
 21 22  1  0
  7  3  2  0
 21  5  1  0
M  CHG  1  13   1
M  END
$$$$
