
     RDKit          3D

 22 23  0  0  0  0  0  0  0  0999 V2000
    5.1087   -5.6149   10.0670 N   0  0  0  0  0  0  0  0  0  0  0  0
    4.5969   -5.1860    9.1050 C   0  0  0  0  0  0  0  0  0  0  0  0
    3.9451   -4.6533    7.9324 C   0  0  0  0  0  0  0  0  0  0  0  0
    3.8578   -5.2346    6.7114 N   0  0  0  0  0  0  0  0  0  0  0  0
    3.1749   -4.4430    5.8637 C   0  0  0  0  0  0  0  0  0  0  0  0
    2.8050   -3.3089    6.5544 C   0  0  0  0  0  0  0  0  0  0  0  0
    3.2926   -3.4453    7.8588 C   0  0  0  0  0  0  0  0  0  0  0  0
    2.0849   -2.3017    5.9418 C   0  0  0  0  0  0  0  0  0  0  0  0
    1.7470   -1.1931    6.6913 O   0  0  0  0  0  0  0  0  0  0  0  0
    1.2815    0.0131    6.1650 C   0  0  0  0  0  0  0  0  0  0  0  0
    0.3323    0.6526    7.1516 C   0  0  2  0  0  0  0  0  0  0  0  0
    1.0433    1.2266    8.3457 C   0  0  0  0  0  0  0  0  0  0  0  0
    0.4027    2.3924    8.8725 N   0  0  0  0  0  4  0  0  0  0  0  0
    1.1558    2.9988    9.9585 C   0  0  0  0  0  0  0  0  0  0  0  0
    2.5367    2.4026   10.0542 C   0  0  0  0  0  0  0  0  0  0  0  0
    0.4320    2.7527   11.2685 C   0  0  0  0  0  0  0  0  0  0  0  0
    1.2208    4.4837    9.6949 C   0  0  0  0  0  0  0  0  0  0  0  0
   -0.6267   -0.2531    7.5606 O   0  0  0  0  0  0  0  0  0  0  0  0
    1.7495   -2.4715    4.6147 C   0  0  0  0  0  0  0  0  0  0  0  0
    2.1244   -3.6211    3.9143 C   0  0  0  0  0  0  0  0  0  0  0  0
    2.8432   -4.6200    4.5365 C   0  0  0  0  0  0  0  0  0  0  0  0
    3.2524   -5.8605    3.7952 C   0  0  0  0  0  0  0  0  0  0  0  0
  1  2  3  0
  2  3  1  0
  3  4  1  0
  4  5  1  0
  5  6  2  0
  6  7  1  0
  6  8  1  0
  8  9  1  0
  9 10  1  0
 10 11  1  0
 11 12  1  0
 12 13  1  0
 13 14  1  0
 14 15  1  0
 14 16  1  0
 14 17  1  0
 11 18  1  1
  8 19  2  0
 19 20  1  0
 20 21  2  0
 21 22  1  0
  7  3  2  0
 21  5  1  0
M  CHG  1  13   1
M  END
$$$$
