
     RDKit          3D

 22 23  0  0  0  0  0  0  0  0999 V2000
    5.9914   -4.8932    9.9220 N   0  0  0  0  0  0  0  0  0  0  0  0
    5.3530   -4.7078    8.9579 C   0  0  0  0  0  0  0  0  0  0  0  0
    4.5791   -4.4974    7.7577 C   0  0  0  0  0  0  0  0  0  0  0  0
    4.4030   -5.3700    6.7360 N   0  0  0  0  0  0  0  0  0  0  0  0
    3.6182   -4.8273    5.7867 C   0  0  0  0  0  0  0  0  0  0  0  0
    3.2714   -3.5598    6.2030 C   0  0  0  0  0  0  0  0  0  0  0  0
    3.8794   -3.3555    7.4465 C   0  0  0  0  0  0  0  0  0  0  0  0
    2.4631   -2.7494    5.4297 C   0  0  0  0  0  0  0  0  0  0  0  0
    2.1544   -1.4914    5.9058 O   0  0  0  0  0  0  0  0  0  0  0  0
    1.2330   -0.6215    5.3204 C   0  0  0  0  0  0  0  0  0  0  0  0
    1.3292    0.7294    5.9907 C   0  0  2  0  0  0  0  0  0  0  0  0
    0.8438    0.7023    7.4135 C   0  0  0  0  0  0  0  0  0  0  0  0
    0.2140    1.9228    7.8142 N   0  0  0  0  0  4  0  0  0  0  0  0
   -0.2389    1.8884    9.1955 C   0  0  0  0  0  0  0  0  0  0  0  0
    0.9179    2.0648   10.1455 C   0  0  0  0  0  0  0  0  0  0  0  0
   -0.8929    0.5487    9.4751 C   0  0  0  0  0  0  0  0  0  0  0  0
   -1.2584    2.9880    9.3688 C   0  0  0  0  0  0  0  0  0  0  0  0
    0.6336    1.6803    5.2701 O   0  0  0  0  0  0  0  0  0  0  0  0
    2.0155   -3.2540    4.2264 C   0  0  0  0  0  0  0  0  0  0  0  0
    2.3669   -4.5388    3.8042 C   0  0  0  0  0  0  0  0  0  0  0  0
    3.1746   -5.3388    4.5849 C   0  0  0  0  0  0  0  0  0  0  0  0
    3.5597   -6.7216    4.1428 C   0  0  0  0  0  0  0  0  0  0  0  0
  1  2  3  0
  2  3  1  0
  3  4  1  0
  4  5  1  0
  5  6  2  0
  6  7  1  0
  6  8  1  0
  8  9  1  0
  9 10  1  0
 10 11  1  0
 11 12  1  0
 12 13  1  0
 13 14  1  0
 14 15  1  0
 14 16  1  0
 14 17  1  0
 11 18  1  6
  8 19  2  0
 19 20  1  0
 20 21  2  0
 21 22  1  0
  7  3  2  0
 21  5  1  0
M  CHG  1  13   1
M  END
$$$$
