
     RDKit          3D

 22 23  0  0  0  0  0  0  0  0999 V2000
    5.7018   -4.7965   10.0018 N   0  0  0  0  0  0  0  0  0  0  0  0
    5.1195   -4.6137    9.0024 C   0  0  0  0  0  0  0  0  0  0  0  0
    4.4004   -4.4133    7.7669 C   0  0  0  0  0  0  0  0  0  0  0  0
    4.2425   -5.3062    6.7598 N   0  0  0  0  0  0  0  0  0  0  0  0
    3.5112   -4.7672    5.7667 C   0  0  0  0  0  0  0  0  0  0  0  0
    3.1817   -3.4814    6.1383 C   0  0  0  0  0  0  0  0  0  0  0  0
    3.7444   -3.2620    7.4004 C   0  0  0  0  0  0  0  0  0  0  0  0
    2.4269   -2.6700    5.3136 C   0  0  0  0  0  0  0  0  0  0  0  0
    2.1329   -1.3931    5.7468 O   0  0  0  0  0  0  0  0  0  0  0  0
    1.3505   -0.4739    5.0457 C   0  0  0  0  0  0  0  0  0  0  0  0
    1.4228    0.8687    5.7353 C   0  0  2  0  0  0  0  0  0  0  0  0
    0.9166    0.8174    7.1502 C   0  0  0  0  0  0  0  0  0  0  0  0
   -0.0348    1.8451    7.4428 N   0  0  0  0  0  4  0  0  0  0  0  0
   -0.4453    1.8433    8.8377 C   0  0  0  0  0  0  0  0  0  0  0  0
   -1.2961    3.0476    9.1497 C   0  0  0  0  0  0  0  0  0  0  0  0
    0.7862    1.8802    9.7223 C   0  0  0  0  0  0  0  0  0  0  0  0
   -1.2025    0.5618    9.0886 C   0  0  0  0  0  0  0  0  0  0  0  0
    0.7281    1.8221    5.0171 O   0  0  0  0  0  0  0  0  0  0  0  0
    2.0150   -3.1925    4.1053 C   0  0  0  0  0  0  0  0  0  0  0  0
    2.3489   -4.4959    3.7284 C   0  0  0  0  0  0  0  0  0  0  0  0
    3.1030   -5.2968    4.5601 C   0  0  0  0  0  0  0  0  0  0  0  0
    3.4687   -6.6994    4.1670 C   0  0  0  0  0  0  0  0  0  0  0  0
  1  2  3  0
  2  3  1  0
  3  4  1  0
  4  5  1  0
  5  6  2  0
  6  7  1  0
  6  8  1  0
  8  9  1  0
  9 10  1  0
 10 11  1  0
 11 12  1  0
 12 13  1  0
 13 14  1  0
 14 15  1  0
 14 16  1  0
 14 17  1  0
 11 18  1  6
  8 19  2  0
 19 20  1  0
 20 21  2  0
 21 22  1  0
  7  3  2  0
 21  5  1  0
M  CHG  1  13   1
M  END
$$$$
