
     RDKit          3D

 22 23  0  0  0  0  0  0  0  0999 V2000
    4.7462   -5.2003   10.2648 N   0  0  0  0  0  0  0  0  0  0  0  0
    4.2676   -4.8567    9.2528 C   0  0  0  0  0  0  0  0  0  0  0  0
    3.6824   -4.4557    7.9956 C   0  0  0  0  0  0  0  0  0  0  0  0
    3.6625   -5.1649    6.8410 N   0  0  0  0  0  0  0  0  0  0  0  0
    3.0286   -4.4720    5.8769 C   0  0  0  0  0  0  0  0  0  0  0  0
    2.6222   -3.2723    6.4204 C   0  0  0  0  0  0  0  0  0  0  0  0
    3.0364   -3.2658    7.7569 C   0  0  0  0  0  0  0  0  0  0  0  0
    1.9384   -2.3400    5.6645 C   0  0  0  0  0  0  0  0  0  0  0  0
    1.5607   -1.1591    6.2708 O   0  0  0  0  0  0  0  0  0  0  0  0
    1.6729    0.1059    5.6915 C   0  0  0  0  0  0  0  0  0  0  0  0
    0.7292    1.0577    6.3890 C   0  0  2  0  0  0  0  0  0  0  0  0
    1.1014    1.2868    7.8277 C   0  0  0  0  0  0  0  0  0  0  0  0
    0.3183    2.3075    8.4536 N   0  0  0  0  0  4  0  0  0  0  0  0
    0.6850    2.5161    9.8452 C   0  0  0  0  0  0  0  0  0  0  0  0
    0.0152    1.5014   10.7360 C   0  0  0  0  0  0  0  0  0  0  0  0
    0.2454    3.9021   10.2767 C   0  0  0  0  0  0  0  0  0  0  0  0
    2.1882    2.4163    9.9406 C   0  0  0  0  0  0  0  0  0  0  0  0
   -0.5720    0.6030    6.3022 O   0  0  0  0  0  0  0  0  0  0  0  0
    1.6770   -2.6526    4.3467 C   0  0  0  0  0  0  0  0  0  0  0  0
    2.0889   -3.8687    3.7954 C   0  0  0  0  0  0  0  0  0  0  0  0
    2.7710   -4.7918    4.5600 C   0  0  0  0  0  0  0  0  0  0  0  0
    3.2193   -6.1026    3.9798 C   0  0  0  0  0  0  0  0  0  0  0  0
  1  2  3  0
  2  3  1  0
  3  4  1  0
  4  5  1  0
  5  6  2  0
  6  7  1  0
  6  8  1  0
  8  9  1  0
  9 10  1  0
 10 11  1  0
 11 12  1  0
 12 13  1  0
 13 14  1  0
 14 15  1  0
 14 16  1  0
 14 17  1  0
 11 18  1  1
  8 19  2  0
 19 20  1  0
 20 21  2  0
 21 22  1  0
  7  3  2  0
 21  5  1  0
M  CHG  1  13   1
M  END
$$$$
