
     RDKit          3D

 22 23  0  0  0  0  0  0  0  0999 V2000
    5.9334   -6.5113    9.1392 N   0  0  0  0  0  0  0  0  0  0  0  0
    5.2504   -5.8785    8.4291 C   0  0  0  0  0  0  0  0  0  0  0  0
    4.4137   -5.1143    7.5348 C   0  0  0  0  0  0  0  0  0  0  0  0
    4.0823   -5.4278    6.2587 N   0  0  0  0  0  0  0  0  0  0  0  0
    3.2842   -4.4785    5.7356 C   0  0  0  0  0  0  0  0  0  0  0  0
    3.0891   -3.5151    6.7019 C   0  0  0  0  0  0  0  0  0  0  0  0
    3.8031   -3.9197    7.8351 C   0  0  0  0  0  0  0  0  0  0  0  0
    2.3056   -2.4042    6.4559 C   0  0  0  0  0  0  0  0  0  0  0  0
    2.1518   -1.4779    7.4673 O   0  0  0  0  0  0  0  0  0  0  0  0
    1.3043   -0.3701    7.4115 C   0  0  0  0  0  0  0  0  0  0  0  0
    1.3913    0.3887    8.7153 C   0  0  2  0  0  0  0  0  0  0  0  0
    0.9388    1.8164    8.5821 C   0  0  0  0  0  0  0  0  0  0  0  0
   -0.3538    1.9410    7.9817 N   0  0  0  0  0  4  0  0  0  0  0  0
   -0.9009    3.2820    8.1110 C   0  0  0  0  0  0  0  0  0  0  0  0
    0.1939    4.3167    8.0630 C   0  0  0  0  0  0  0  0  0  0  0  0
   -1.6215    3.4031    9.4402 C   0  0  0  0  0  0  0  0  0  0  0  0
   -1.8887    3.4819    6.9872 C   0  0  0  0  0  0  0  0  0  0  0  0
    2.6763    0.3433    9.2193 O   0  0  0  0  0  0  0  0  0  0  0  0
    1.7258   -2.2939    5.2092 C   0  0  0  0  0  0  0  0  0  0  0  0
    1.9235   -3.2705    4.2296 C   0  0  0  0  0  0  0  0  0  0  0  0
    2.7079   -4.3752    4.4867 C   0  0  0  0  0  0  0  0  0  0  0  0
    2.9284   -5.4321    3.4425 C   0  0  0  0  0  0  0  0  0  0  0  0
  1  2  3  0
  2  3  1  0
  3  4  1  0
  4  5  1  0
  5  6  2  0
  6  7  1  0
  6  8  1  0
  8  9  1  0
  9 10  1  0
 10 11  1  0
 11 12  1  0
 12 13  1  0
 13 14  1  0
 14 15  1  0
 14 16  1  0
 14 17  1  0
 11 18  1  6
  8 19  2  0
 19 20  1  0
 20 21  2  0
 21 22  1  0
  7  3  2  0
 21  5  1  0
M  CHG  1  13   1
M  END
$$$$
