
     RDKit          3D

 22 23  0  0  0  0  0  0  0  0999 V2000
    5.0280   -5.4762   10.0708 N   0  0  0  0  0  0  0  0  0  0  0  0
    4.5087   -5.1144    9.0855 C   0  0  0  0  0  0  0  0  0  0  0  0
    3.8857   -4.6501    7.8690 C   0  0  0  0  0  0  0  0  0  0  0  0
    3.8478   -5.2900    6.6750 N   0  0  0  0  0  0  0  0  0  0  0  0
    3.1789   -4.5524    5.7695 C   0  0  0  0  0  0  0  0  0  0  0  0
    2.7673   -3.3941    6.3933 C   0  0  0  0  0  0  0  0  0  0  0  0
    3.2150   -3.4595    7.7172 C   0  0  0  0  0  0  0  0  0  0  0  0
    2.0498   -2.4308    5.7110 C   0  0  0  0  0  0  0  0  0  0  0  0
    1.6688   -1.2946    6.3956 O   0  0  0  0  0  0  0  0  0  0  0  0
    1.8817    0.0119    5.9526 C   0  0  0  0  0  0  0  0  0  0  0  0
    0.7922    0.9056    6.4981 C   0  0  2  0  0  0  0  0  0  0  0  0
    1.0318    1.2977    7.9298 C   0  0  0  0  0  0  0  0  0  0  0  0
    0.1782    2.3577    8.3710 N   0  0  0  0  0  4  0  0  0  0  0  0
    0.4728    2.7805    9.7307 C   0  0  0  0  0  0  0  0  0  0  0  0
    0.4022    4.2809    9.8547 C   0  0  0  0  0  0  0  0  0  0  0  0
    1.8727    2.3308   10.1030 C   0  0  0  0  0  0  0  0  0  0  0  0
   -0.5263    2.1111   10.6430 C   0  0  0  0  0  0  0  0  0  0  0  0
   -0.4423    0.2993    6.3725 O   0  0  0  0  0  0  0  0  0  0  0  0
    1.7602   -2.6695    4.3836 C   0  0  0  0  0  0  0  0  0  0  0  0
    2.1774   -3.8435    3.7511 C   0  0  0  0  0  0  0  0  0  0  0  0
    2.8931   -4.7982    4.4426 C   0  0  0  0  0  0  0  0  0  0  0  0
    3.3474   -6.0644    3.7746 C   0  0  0  0  0  0  0  0  0  0  0  0
  1  2  3  0
  2  3  1  0
  3  4  1  0
  4  5  1  0
  5  6  2  0
  6  7  1  0
  6  8  1  0
  8  9  1  0
  9 10  1  0
 10 11  1  0
 11 12  1  0
 12 13  1  0
 13 14  1  0
 14 15  1  0
 14 16  1  0
 14 17  1  0
 11 18  1  1
  8 19  2  0
 19 20  1  0
 20 21  2  0
 21 22  1  0
  7  3  2  0
 21  5  1  0
M  CHG  1  13   1
M  END
$$$$
