
     RDKit          3D

 22 23  0  0  0  0  0  0  0  0999 V2000
    5.7076   -4.9950    9.7541 N   0  0  0  0  0  0  0  0  0  0  0  0
    5.1028   -4.8266    8.7656 C   0  0  0  0  0  0  0  0  0  0  0  0
    4.3607   -4.5941    7.5494 C   0  0  0  0  0  0  0  0  0  0  0  0
    4.1230   -5.4836    6.5551 N   0  0  0  0  0  0  0  0  0  0  0  0
    3.3951   -4.9107    5.5786 C   0  0  0  0  0  0  0  0  0  0  0  0
    3.1503   -3.6056    5.9483 C   0  0  0  0  0  0  0  0  0  0  0  0
    3.7609   -3.4098    7.1919 C   0  0  0  0  0  0  0  0  0  0  0  0
    2.4193   -2.7582    5.1385 C   0  0  0  0  0  0  0  0  0  0  0  0
    2.2111   -1.4635    5.5688 O   0  0  0  0  0  0  0  0  0  0  0  0
    1.2192   -0.6112    5.0809 C   0  0  0  0  0  0  0  0  0  0  0  0
    1.3065    0.7157    5.7986 C   0  0  2  0  0  0  0  0  0  0  0  0
    0.7615    0.6503    7.1984 C   0  0  0  0  0  0  0  0  0  0  0  0
    0.3518    1.9258    7.7006 N   0  0  0  0  0  4  0  0  0  0  0  0
   -0.0920    1.8633    9.0839 C   0  0  0  0  0  0  0  0  0  0  0  0
   -0.4218    3.2383    9.6057 C   0  0  0  0  0  0  0  0  0  0  0  0
    1.0141    1.2751    9.9388 C   0  0  0  0  0  0  0  0  0  0  0  0
   -1.2985    0.9575    9.1353 C   0  0  0  0  0  0  0  0  0  0  0  0
    0.6554    1.7001    5.0815 O   0  0  0  0  0  0  0  0  0  0  0  0
    1.9434   -3.2648    3.9471 C   0  0  0  0  0  0  0  0  0  0  0  0
    2.1914   -4.5878    3.5721 C   0  0  0  0  0  0  0  0  0  0  0  0
    2.9226   -5.4245    4.3889 C   0  0  0  0  0  0  0  0  0  0  0  0
    3.1963   -6.8485    3.9976 C   0  0  0  0  0  0  0  0  0  0  0  0
  1  2  3  0
  2  3  1  0
  3  4  1  0
  4  5  1  0
  5  6  2  0
  6  7  1  0
  6  8  1  0
  8  9  1  0
  9 10  1  0
 10 11  1  0
 11 12  1  0
 12 13  1  0
 13 14  1  0
 14 15  1  0
 14 16  1  0
 14 17  1  0
 11 18  1  6
  8 19  2  0
 19 20  1  0
 20 21  2  0
 21 22  1  0
  7  3  2  0
 21  5  1  0
M  CHG  1  13   1
M  END
$$$$
