
     RDKit          3D

 22 23  0  0  0  0  0  0  0  0999 V2000
    5.6010   -5.0739   10.0514 N   0  0  0  0  0  0  0  0  0  0  0  0
    5.0076   -4.8791    9.0609 C   0  0  0  0  0  0  0  0  0  0  0  0
    4.2575   -4.6537    7.8483 C   0  0  0  0  0  0  0  0  0  0  0  0
    4.0405   -5.5391    6.8457 N   0  0  0  0  0  0  0  0  0  0  0  0
    3.2963   -4.9754    5.8761 C   0  0  0  0  0  0  0  0  0  0  0  0
    3.0192   -3.6806    6.2591 C   0  0  0  0  0  0  0  0  0  0  0  0
    3.6271   -3.4815    7.5035 C   0  0  0  0  0  0  0  0  0  0  0  0
    2.2653   -2.8441    5.4589 C   0  0  0  0  0  0  0  0  0  0  0  0
    2.0251   -1.5595    5.9024 O   0  0  0  0  0  0  0  0  0  0  0  0
    1.0820   -0.6896    5.3524 C   0  0  0  0  0  0  0  0  0  0  0  0
    1.2116    0.6646    6.0100 C   0  0  2  0  0  0  0  0  0  0  0  0
    0.6881    0.6730    7.4195 C   0  0  0  0  0  0  0  0  0  0  0  0
    0.1828    1.9495    7.8222 N   0  0  0  0  0  4  0  0  0  0  0  0
   -0.2604    1.9613    9.2070 C   0  0  0  0  0  0  0  0  0  0  0  0
    0.8814    1.6491   10.1400 C   0  0  0  0  0  0  0  0  0  0  0  0
   -1.3393    0.9123    9.3967 C   0  0  0  0  0  0  0  0  0  0  0  0
   -0.8366    3.3276    9.4898 C   0  0  0  0  0  0  0  0  0  0  0  0
    0.5719    1.6322    5.2605 O   0  0  0  0  0  0  0  0  0  0  0  0
    1.8001   -3.3510    4.2634 C   0  0  0  0  0  0  0  0  0  0  0  0
    2.0809   -4.6635    3.8750 C   0  0  0  0  0  0  0  0  0  0  0  0
    2.8347   -5.4893    4.6822 C   0  0  0  0  0  0  0  0  0  0  0  0
    3.1437   -6.9020    4.2765 C   0  0  0  0  0  0  0  0  0  0  0  0
  1  2  3  0
  2  3  1  0
  3  4  1  0
  4  5  1  0
  5  6  2  0
  6  7  1  0
  6  8  1  0
  8  9  1  0
  9 10  1  0
 10 11  1  0
 11 12  1  0
 12 13  1  0
 13 14  1  0
 14 15  1  0
 14 16  1  0
 14 17  1  0
 11 18  1  6
  8 19  2  0
 19 20  1  0
 20 21  2  0
 21 22  1  0
  7  3  2  0
 21  5  1  0
M  CHG  1  13   1
M  END
$$$$
