
     RDKit          3D

 22 23  0  0  0  0  0  0  0  0999 V2000
    6.2858   -5.5331    9.5412 N   0  0  0  0  0  0  0  0  0  0  0  0
    5.5573   -5.1569    8.7051 C   0  0  0  0  0  0  0  0  0  0  0  0
    4.6439   -4.6842    7.6923 C   0  0  0  0  0  0  0  0  0  0  0  0
    4.2473   -5.3449    6.5776 N   0  0  0  0  0  0  0  0  0  0  0  0
    3.3885   -4.5908    5.8668 C   0  0  0  0  0  0  0  0  0  0  0  0
    3.2196   -3.3998    6.5400 C   0  0  0  0  0  0  0  0  0  0  0  0
    4.0130   -3.4626    7.6907 C   0  0  0  0  0  0  0  0  0  0  0  0
    2.3865   -2.4132    6.0493 C   0  0  0  0  0  0  0  0  0  0  0  0
    2.2628   -1.2447    6.7732 O   0  0  0  0  0  0  0  0  0  0  0  0
    1.0512   -0.6300    7.0937 C   0  0  0  0  0  0  0  0  0  0  0  0
    1.3280    0.6727    7.8074 C   0  0  2  0  0  0  0  0  0  0  0  0
    0.2218    1.6749    7.6265 C   0  0  0  0  0  0  0  0  0  0  0  0
    0.0340    2.5150    8.7693 N   0  0  0  0  0  4  0  0  0  0  0  0
   -1.1082    3.4032    8.6259 C   0  0  0  0  0  0  0  0  0  0  0  0
   -2.3858    2.6172    8.4790 C   0  0  0  0  0  0  0  0  0  0  0  0
   -0.9239    4.2605    7.3883 C   0  0  0  0  0  0  0  0  0  0  0  0
   -1.1521    4.2905    9.8463 C   0  0  0  0  0  0  0  0  0  0  0  0
    2.5289    1.2108    7.3886 O   0  0  0  0  0  0  0  0  0  0  0  0
    1.7299   -2.6625    4.8621 C   0  0  0  0  0  0  0  0  0  0  0  0
    1.9010   -3.8697    4.1796 C   0  0  0  0  0  0  0  0  0  0  0  0
    2.7355   -4.8474    4.6792 C   0  0  0  0  0  0  0  0  0  0  0  0
    2.9281   -6.1494    3.9555 C   0  0  0  0  0  0  0  0  0  0  0  0
  1  2  3  0
  2  3  1  0
  3  4  1  0
  4  5  1  0
  5  6  2  0
  6  7  1  0
  6  8  1  0
  8  9  1  0
  9 10  1  0
 10 11  1  0
 11 12  1  0
 12 13  1  0
 13 14  1  0
 14 15  1  0
 14 16  1  0
 14 17  1  0
 11 18  1  6
  8 19  2  0
 19 20  1  0
 20 21  2  0
 21 22  1  0
  7  3  2  0
 21  5  1  0
M  CHG  1  13   1
M  END
$$$$
