
     RDKit          3D

 22 23  0  0  0  0  0  0  0  0999 V2000
    6.0549   -5.8106    9.6784 N   0  0  0  0  0  0  0  0  0  0  0  0
    5.3120   -5.3471    8.9009 C   0  0  0  0  0  0  0  0  0  0  0  0
    4.4040   -4.7924    7.9253 C   0  0  0  0  0  0  0  0  0  0  0  0
    4.0842   -5.3158    6.7170 N   0  0  0  0  0  0  0  0  0  0  0  0
    3.2040   -4.5210    6.0806 C   0  0  0  0  0  0  0  0  0  0  0  0
    2.9416   -3.4445    6.9005 C   0  0  0  0  0  0  0  0  0  0  0  0
    3.7003   -3.6194    8.0630 C   0  0  0  0  0  0  0  0  0  0  0  0
    2.0658   -2.4483    6.5144 C   0  0  0  0  0  0  0  0  0  0  0  0
    1.8482   -1.3985    7.3834 O   0  0  0  0  0  0  0  0  0  0  0  0
    0.6828   -0.6317    7.4310 C   0  0  0  0  0  0  0  0  0  0  0  0
    0.8262    0.4250    8.5016 C   0  0  2  0  0  0  0  0  0  0  0  0
    0.3003    1.7637    8.0637 C   0  0  0  0  0  0  0  0  0  0  0  0
   -0.1659    2.5663    9.1525 N   0  0  0  0  0  4  0  0  0  0  0  0
   -0.8072    3.7925    8.7058 C   0  0  0  0  0  0  0  0  0  0  0  0
   -2.2830    3.5787    8.4865 C   0  0  0  0  0  0  0  0  0  0  0  0
   -0.1839    4.2354    7.3959 C   0  0  0  0  0  0  0  0  0  0  0  0
   -0.5601    4.8459    9.7582 C   0  0  0  0  0  0  0  0  0  0  0  0
    2.1442    0.5396    8.8980 O   0  0  0  0  0  0  0  0  0  0  0  0
    1.4638   -2.5696    5.2793 C   0  0  0  0  0  0  0  0  0  0  0  0
    1.7297   -3.6607    4.4479 C   0  0  0  0  0  0  0  0  0  0  0  0
    2.6059   -4.6492    4.8442 C   0  0  0  0  0  0  0  0  0  0  0  0
    2.9004   -5.8271    3.9602 C   0  0  0  0  0  0  0  0  0  0  0  0
  1  2  3  0
  2  3  1  0
  3  4  1  0
  4  5  1  0
  5  6  2  0
  6  7  1  0
  6  8  1  0
  8  9  1  0
  9 10  1  0
 10 11  1  0
 11 12  1  0
 12 13  1  0
 13 14  1  0
 14 15  1  0
 14 16  1  0
 14 17  1  0
 11 18  1  6
  8 19  2  0
 19 20  1  0
 20 21  2  0
 21 22  1  0
  7  3  2  0
 21  5  1  0
M  CHG  1  13   1
M  END
$$$$
