
     RDKit          3D

 22 23  0  0  0  0  0  0  0  0999 V2000
    5.5485   -5.5970    9.7791 N   0  0  0  0  0  0  0  0  0  0  0  0
    4.9225   -5.1702    8.8862 C   0  0  0  0  0  0  0  0  0  0  0  0
    4.1568   -4.6207    7.7928 C   0  0  0  0  0  0  0  0  0  0  0  0
    4.0759   -5.1029    6.5289 N   0  0  0  0  0  0  0  0  0  0  0  0
    3.2661   -4.3284    5.7833 C   0  0  0  0  0  0  0  0  0  0  0  0
    2.8040   -3.3084    6.5871 C   0  0  0  0  0  0  0  0  0  0  0  0
    3.3681   -3.4962    7.8537 C   0  0  0  0  0  0  0  0  0  0  0  0
    1.9444   -2.3449    6.0963 C   0  0  0  0  0  0  0  0  0  0  0  0
    1.5199   -1.3512    6.9550 O   0  0  0  0  0  0  0  0  0  0  0  0
    0.6316   -0.3297    6.6149 C   0  0  0  0  0  0  0  0  0  0  0  0
   -0.0230    0.1984    7.8702 C   0  0  2  0  0  0  0  0  0  0  0  0
    0.7325    1.3501    8.4730 C   0  0  0  0  0  0  0  0  0  0  0  0
   -0.1089    2.4564    8.8122 N   0  0  0  0  0  4  0  0  0  0  0  0
    0.6420    3.5895    9.3284 C   0  0  0  0  0  0  0  0  0  0  0  0
    0.8113    3.4871   10.8225 C   0  0  0  0  0  0  0  0  0  0  0  0
   -0.1058    4.8711    9.0141 C   0  0  0  0  0  0  0  0  0  0  0  0
    1.9795    3.6071    8.6288 C   0  0  0  0  0  0  0  0  0  0  0  0
   -0.1727   -0.8103    8.8016 O   0  0  0  0  0  0  0  0  0  0  0  0
    1.5651   -2.4402    4.7736 C   0  0  0  0  0  0  0  0  0  0  0  0
    2.0333   -3.4741    3.9586 C   0  0  0  0  0  0  0  0  0  0  0  0
    2.8913   -4.4304    4.4597 C   0  0  0  0  0  0  0  0  0  0  0  0
    3.4019   -5.5469    3.5945 C   0  0  0  0  0  0  0  0  0  0  0  0
  1  2  3  0
  2  3  1  0
  3  4  1  0
  4  5  1  0
  5  6  2  0
  6  7  1  0
  6  8  1  0
  8  9  1  0
  9 10  1  0
 10 11  1  0
 11 12  1  0
 12 13  1  0
 13 14  1  0
 14 15  1  0
 14 16  1  0
 14 17  1  0
 11 18  1  1
  8 19  2  0
 19 20  1  0
 20 21  2  0
 21 22  1  0
  7  3  2  0
 21  5  1  0
M  CHG  1  13   1
M  END
$$$$
