
     RDKit          3D

 22 23  0  0  0  0  0  0  0  0999 V2000
    5.5025   -4.9720    9.7368 N   0  0  0  0  0  0  0  0  0  0  0  0
    4.8984   -4.8040    8.7478 C   0  0  0  0  0  0  0  0  0  0  0  0
    4.1325   -4.6031    7.5408 C   0  0  0  0  0  0  0  0  0  0  0  0
    3.9275   -5.4991    6.5450 N   0  0  0  0  0  0  0  0  0  0  0  0
    3.1618   -4.9584    5.5791 C   0  0  0  0  0  0  0  0  0  0  0  0
    2.8579   -3.6683    5.9574 C   0  0  0  0  0  0  0  0  0  0  0  0
    3.4720   -3.4479    7.1951 C   0  0  0  0  0  0  0  0  0  0  0  0
    2.0777   -2.8542    5.1593 C   0  0  0  0  0  0  0  0  0  0  0  0
    1.8115   -1.5729    5.5978 O   0  0  0  0  0  0  0  0  0  0  0  0
    0.9004   -0.6996    5.0015 C   0  0  0  0  0  0  0  0  0  0  0  0
    0.9502    0.6327    5.7127 C   0  0  2  0  0  0  0  0  0  0  0  0
    0.5423    0.5307    7.1562 C   0  0  0  0  0  0  0  0  0  0  0  0
   -0.1234    1.7031    7.6349 N   0  0  0  0  0  4  0  0  0  0  0  0
   -0.4553    1.6174    9.0479 C   0  0  0  0  0  0  0  0  0  0  0  0
   -1.0871    2.8977    9.5308 C   0  0  0  0  0  0  0  0  0  0  0  0
    0.8111    1.3732    9.8461 C   0  0  0  0  0  0  0  0  0  0  0  0
   -1.3918    0.4470    9.2263 C   0  0  0  0  0  0  0  0  0  0  0  0
    0.1621    1.5612    5.0614 O   0  0  0  0  0  0  0  0  0  0  0  0
    1.6139   -3.3786    3.9708 C   0  0  0  0  0  0  0  0  0  0  0  0
    1.9218   -4.6864    3.5872 C   0  0  0  0  0  0  0  0  0  0  0  0
    2.7017   -5.4899    4.3922 C   0  0  0  0  0  0  0  0  0  0  0  0
    3.0400   -6.8973    3.9916 C   0  0  0  0  0  0  0  0  0  0  0  0
  1  2  3  0
  2  3  1  0
  3  4  1  0
  4  5  1  0
  5  6  2  0
  6  7  1  0
  6  8  1  0
  8  9  1  0
  9 10  1  0
 10 11  1  0
 11 12  1  0
 12 13  1  0
 13 14  1  0
 14 15  1  0
 14 16  1  0
 14 17  1  0
 11 18  1  6
  8 19  2  0
 19 20  1  0
 20 21  2  0
 21 22  1  0
  7  3  2  0
 21  5  1  0
M  CHG  1  13   1
M  END
$$$$
