
     RDKit          3D

 22 23  0  0  0  0  0  0  0  0999 V2000
    5.8973   -4.9310    9.7795 N   0  0  0  0  0  0  0  0  0  0  0  0
    5.2945   -4.7357    8.7947 C   0  0  0  0  0  0  0  0  0  0  0  0
    4.5391   -4.5167    7.5843 C   0  0  0  0  0  0  0  0  0  0  0  0
    4.3383   -5.3994    6.5759 N   0  0  0  0  0  0  0  0  0  0  0  0
    3.5826   -4.8436    5.6107 C   0  0  0  0  0  0  0  0  0  0  0  0
    3.2811   -3.5570    6.0025 C   0  0  0  0  0  0  0  0  0  0  0  0
    3.8861   -3.3545    7.2477 C   0  0  0  0  0  0  0  0  0  0  0  0
    2.5106   -2.7298    5.2084 C   0  0  0  0  0  0  0  0  0  0  0  0
    2.2462   -1.4530    5.6606 O   0  0  0  0  0  0  0  0  0  0  0  0
    1.3819   -0.5502    5.0389 C   0  0  0  0  0  0  0  0  0  0  0  0
    1.4316    0.7706    5.7713 C   0  0  2  0  0  0  0  0  0  0  0  0
    0.7788    0.7039    7.1241 C   0  0  0  0  0  0  0  0  0  0  0  0
    0.2985    1.9728    7.5779 N   0  0  0  0  0  4  0  0  0  0  0  0
   -0.3047    1.9000    8.8990 C   0  0  0  0  0  0  0  0  0  0  0  0
   -0.1830    0.5105    9.4701 C   0  0  0  0  0  0  0  0  0  0  0  0
   -1.7763    2.2531    8.7979 C   0  0  0  0  0  0  0  0  0  0  0  0
    0.3929    2.9119    9.7753 C   0  0  0  0  0  0  0  0  0  0  0  0
    0.8517    1.7688    5.0134 O   0  0  0  0  0  0  0  0  0  0  0  0
    2.0541   -3.2375    4.0099 C   0  0  0  0  0  0  0  0  0  0  0  0
    2.3597   -4.5418    3.6125 C   0  0  0  0  0  0  0  0  0  0  0  0
    3.1299   -5.3584    4.4137 C   0  0  0  0  0  0  0  0  0  0  0  0
    3.4655   -6.7622    3.9984 C   0  0  0  0  0  0  0  0  0  0  0  0
  1  2  3  0
  2  3  1  0
  3  4  1  0
  4  5  1  0
  5  6  2  0
  6  7  1  0
  6  8  1  0
  8  9  1  0
  9 10  1  0
 10 11  1  0
 11 12  1  0
 12 13  1  0
 13 14  1  0
 14 15  1  0
 14 16  1  0
 14 17  1  0
 11 18  1  6
  8 19  2  0
 19 20  1  0
 20 21  2  0
 21 22  1  0
  7  3  2  0
 21  5  1  0
M  CHG  1  13   1
M  END
$$$$
