
     RDKit          3D

 22 23  0  0  0  0  0  0  0  0999 V2000
    5.0470   -5.6883   10.2496 N   0  0  0  0  0  0  0  0  0  0  0  0
    4.5152   -5.2110    9.3219 C   0  0  0  0  0  0  0  0  0  0  0  0
    3.8520   -4.6455    8.1712 C   0  0  0  0  0  0  0  0  0  0  0  0
    3.8723   -5.1199    6.9019 N   0  0  0  0  0  0  0  0  0  0  0  0
    3.1385   -4.3307    6.0954 C   0  0  0  0  0  0  0  0  0  0  0  0
    2.6232   -3.3089    6.8637 C   0  0  0  0  0  0  0  0  0  0  0  0
    3.0755   -3.5109    8.1723 C   0  0  0  0  0  0  0  0  0  0  0  0
    1.8207   -2.3314    6.3080 C   0  0  0  0  0  0  0  0  0  0  0  0
    1.3378   -1.3368    7.1340 O   0  0  0  0  0  0  0  0  0  0  0  0
    0.5993   -0.2328    6.7048 C   0  0  0  0  0  0  0  0  0  0  0  0
   -0.1143    0.3786    7.8880 C   0  0  2  0  0  0  0  0  0  0  0  0
    0.7953    1.2250    8.7348 C   0  0  0  0  0  0  0  0  0  0  0  0
    0.3448    2.5768    8.8631 N   0  0  0  0  0  4  0  0  0  0  0  0
    1.1581    3.3495    9.7881 C   0  0  0  0  0  0  0  0  0  0  0  0
    0.8739    2.9535   11.2144 C   0  0  0  0  0  0  0  0  0  0  0  0
    0.8401    4.8234    9.6240 C   0  0  0  0  0  0  0  0  0  0  0  0
    2.6055    3.1082    9.4341 C   0  0  0  0  0  0  0  0  0  0  0  0
   -0.7042   -0.6027    8.6602 O   0  0  0  0  0  0  0  0  0  0  0  0
    1.5537   -2.4146    4.9574 C   0  0  0  0  0  0  0  0  0  0  0  0
    2.0759   -3.4504    4.1783 C   0  0  0  0  0  0  0  0  0  0  0  0
    2.8760   -4.4207    4.7442 C   0  0  0  0  0  0  0  0  0  0  0  0
    3.4437   -5.5393    3.9181 C   0  0  0  0  0  0  0  0  0  0  0  0
  1  2  3  0
  2  3  1  0
  3  4  1  0
  4  5  1  0
  5  6  2  0
  6  7  1  0
  6  8  1  0
  8  9  1  0
  9 10  1  0
 10 11  1  0
 11 12  1  0
 12 13  1  0
 13 14  1  0
 14 15  1  0
 14 16  1  0
 14 17  1  0
 11 18  1  1
  8 19  2  0
 19 20  1  0
 20 21  2  0
 21 22  1  0
  7  3  2  0
 21  5  1  0
M  CHG  1  13   1
M  END
$$$$
