
     RDKit          3D

 22 23  0  0  0  0  0  0  0  0999 V2000
    5.2044   -5.4175   10.2863 N   0  0  0  0  0  0  0  0  0  0  0  0
    4.6898   -5.0029    9.3195 C   0  0  0  0  0  0  0  0  0  0  0  0
    4.0570   -4.5146    8.1174 C   0  0  0  0  0  0  0  0  0  0  0  0
    4.0138   -5.1286    6.9101 N   0  0  0  0  0  0  0  0  0  0  0  0
    3.3361   -4.3741    6.0252 C   0  0  0  0  0  0  0  0  0  0  0  0
    2.9242   -3.2313    6.6767 C   0  0  0  0  0  0  0  0  0  0  0  0
    3.3809   -3.3237    7.9960 C   0  0  0  0  0  0  0  0  0  0  0  0
    2.1987   -2.2562    6.0202 C   0  0  0  0  0  0  0  0  0  0  0  0
    1.8178   -1.1367    6.7318 O   0  0  0  0  0  0  0  0  0  0  0  0
    1.4341    0.0781    6.1613 C   0  0  0  0  0  0  0  0  0  0  0  0
    0.4373    0.7608    7.0688 C   0  0  2  0  0  0  0  0  0  0  0  0
    1.0730    1.3008    8.3198 C   0  0  0  0  0  0  0  0  0  0  0  0
    0.4572    2.5047    8.7868 N   0  0  0  0  0  4  0  0  0  0  0  0
    1.1165    3.0473    9.9638 C   0  0  0  0  0  0  0  0  0  0  0  0
    2.6146    3.0231    9.8003 C   0  0  0  0  0  0  0  0  0  0  0  0
    0.7495    2.2101   11.1741 C   0  0  0  0  0  0  0  0  0  0  0  0
    0.6128    4.4567   10.1597 C   0  0  0  0  0  0  0  0  0  0  0  0
   -0.5932   -0.0995    7.3935 O   0  0  0  0  0  0  0  0  0  0  0  0
    1.9013   -2.4671    4.6899 C   0  0  0  0  0  0  0  0  0  0  0  0
    2.3187   -3.6255    4.0293 C   0  0  0  0  0  0  0  0  0  0  0  0
    3.0427   -4.5921    4.6952 C   0  0  0  0  0  0  0  0  0  0  0  0
    3.4973   -5.8417    3.9968 C   0  0  0  0  0  0  0  0  0  0  0  0
  1  2  3  0
  2  3  1  0
  3  4  1  0
  4  5  1  0
  5  6  2  0
  6  7  1  0
  6  8  1  0
  8  9  1  0
  9 10  1  0
 10 11  1  0
 11 12  1  0
 12 13  1  0
 13 14  1  0
 14 15  1  0
 14 16  1  0
 14 17  1  0
 11 18  1  1
  8 19  2  0
 19 20  1  0
 20 21  2  0
 21 22  1  0
  7  3  2  0
 21  5  1  0
M  CHG  1  13   1
M  END
$$$$
