
     RDKit          3D

 22 23  0  0  0  0  0  0  0  0999 V2000
    5.6741   -5.2042   10.1520 N   0  0  0  0  0  0  0  0  0  0  0  0
    5.0837   -5.0151    9.1586 C   0  0  0  0  0  0  0  0  0  0  0  0
    4.3483   -4.7598    7.9430 C   0  0  0  0  0  0  0  0  0  0  0  0
    4.1178   -5.6297    6.9298 N   0  0  0  0  0  0  0  0  0  0  0  0
    3.3946   -5.0387    5.9607 C   0  0  0  0  0  0  0  0  0  0  0  0
    3.1455   -3.7416    6.3548 C   0  0  0  0  0  0  0  0  0  0  0  0
    3.7486   -3.5695    7.6055 C   0  0  0  0  0  0  0  0  0  0  0  0
    2.4177   -2.8794    5.5576 C   0  0  0  0  0  0  0  0  0  0  0  0
    2.2048   -1.5939    6.0123 O   0  0  0  0  0  0  0  0  0  0  0  0
    1.4998   -0.6093    5.3180 C   0  0  0  0  0  0  0  0  0  0  0  0
    1.6062    0.6993    6.0659 C   0  0  2  0  0  0  0  0  0  0  0  0
    0.9753    0.6365    7.4292 C   0  0  0  0  0  0  0  0  0  0  0  0
    0.4129    1.8846    7.8447 N   0  0  0  0  0  4  0  0  0  0  0  0
   -0.1244    1.8315    9.1949 C   0  0  0  0  0  0  0  0  0  0  0  0
   -1.1854    0.7673    9.3101 C   0  0  0  0  0  0  0  0  0  0  0  0
   -0.7454    3.1715    9.5400 C   0  0  0  0  0  0  0  0  0  0  0  0
    1.0260    1.5574   10.1330 C   0  0  0  0  0  0  0  0  0  0  0  0
    1.0468    1.7261    5.3311 O   0  0  0  0  0  0  0  0  0  0  0  0
    1.9495   -3.3631    4.3537 C   0  0  0  0  0  0  0  0  0  0  0  0
    2.2020   -4.6780    3.9540 C   0  0  0  0  0  0  0  0  0  0  0  0
    2.9298   -5.5296    4.7583 C   0  0  0  0  0  0  0  0  0  0  0  0
    3.2082   -6.9452    4.3405 C   0  0  0  0  0  0  0  0  0  0  0  0
  1  2  3  0
  2  3  1  0
  3  4  1  0
  4  5  1  0
  5  6  2  0
  6  7  1  0
  6  8  1  0
  8  9  1  0
  9 10  1  0
 10 11  1  0
 11 12  1  0
 12 13  1  0
 13 14  1  0
 14 15  1  0
 14 16  1  0
 14 17  1  0
 11 18  1  6
  8 19  2  0
 19 20  1  0
 20 21  2  0
 21 22  1  0
  7  3  2  0
 21  5  1  0
M  CHG  1  13   1
M  END
$$$$
