
     RDKit          3D

 22 23  0  0  0  0  0  0  0  0999 V2000
    4.9041   -5.2238   10.4932 N   0  0  0  0  0  0  0  0  0  0  0  0
    4.4509   -4.9531    9.4479 C   0  0  0  0  0  0  0  0  0  0  0  0
    3.8877   -4.5960    8.1676 C   0  0  0  0  0  0  0  0  0  0  0  0
    3.8920   -5.3425    7.0367 N   0  0  0  0  0  0  0  0  0  0  0  0
    3.2735   -4.6843    6.0388 C   0  0  0  0  0  0  0  0  0  0  0  0
    2.8522   -3.4694    6.5354 C   0  0  0  0  0  0  0  0  0  0  0  0
    3.2415   -3.4175    7.8783 C   0  0  0  0  0  0  0  0  0  0  0  0
    2.1789   -2.5653    5.7368 C   0  0  0  0  0  0  0  0  0  0  0  0
    1.7853   -1.3671    6.2972 O   0  0  0  0  0  0  0  0  0  0  0  0
    1.8300   -0.1314    5.6495 C   0  0  0  0  0  0  0  0  0  0  0  0
    0.8435    0.8084    6.3029 C   0  0  2  0  0  0  0  0  0  0  0  0
    1.0727    0.9465    7.7824 C   0  0  0  0  0  0  0  0  0  0  0  0
    0.5303    2.1547    8.3234 N   0  0  0  0  0  4  0  0  0  0  0  0
    0.7827    2.2892    9.7491 C   0  0  0  0  0  0  0  0  0  0  0  0
    0.3803    3.6562   10.2401 C   0  0  0  0  0  0  0  0  0  0  0  0
    2.2633    2.0970   10.0160 C   0  0  0  0  0  0  0  0  0  0  0  0
    0.0030    1.2060   10.4544 C   0  0  0  0  0  0  0  0  0  0  0  0
   -0.4527    0.3985    6.0598 O   0  0  0  0  0  0  0  0  0  0  0  0
    1.9433   -2.9220    4.4254 C   0  0  0  0  0  0  0  0  0  0  0  0
    2.3702   -4.1535    3.9218 C   0  0  0  0  0  0  0  0  0  0  0  0
    3.0416   -5.0480    4.7286 C   0  0  0  0  0  0  0  0  0  0  0  0
    3.5058   -6.3750    4.1999 C   0  0  0  0  0  0  0  0  0  0  0  0
  1  2  3  0
  2  3  1  0
  3  4  1  0
  4  5  1  0
  5  6  2  0
  6  7  1  0
  6  8  1  0
  8  9  1  0
  9 10  1  0
 10 11  1  0
 11 12  1  0
 12 13  1  0
 13 14  1  0
 14 15  1  0
 14 16  1  0
 14 17  1  0
 11 18  1  1
  8 19  2  0
 19 20  1  0
 20 21  2  0
 21 22  1  0
  7  3  2  0
 21  5  1  0
M  CHG  1  13   1
M  END
$$$$
