
     RDKit          3D

 22 23  0  0  0  0  0  0  0  0999 V2000
    5.9886   -5.1460    9.9340 N   0  0  0  0  0  0  0  0  0  0  0  0
    5.3430   -4.8993    8.9887 C   0  0  0  0  0  0  0  0  0  0  0  0
    4.5611   -4.6111    7.8100 C   0  0  0  0  0  0  0  0  0  0  0  0
    4.3757   -5.4163    6.7359 N   0  0  0  0  0  0  0  0  0  0  0  0
    3.5855   -4.8126    5.8289 C   0  0  0  0  0  0  0  0  0  0  0  0
    3.2447   -3.5737    6.3279 C   0  0  0  0  0  0  0  0  0  0  0  0
    3.8619   -3.4504    7.5775 C   0  0  0  0  0  0  0  0  0  0  0  0
    2.4328   -2.7140    5.6137 C   0  0  0  0  0  0  0  0  0  0  0  0
    2.1305   -1.4883    6.1715 O   0  0  0  0  0  0  0  0  0  0  0  0
    0.9239   -0.8086    5.9961 C   0  0  0  0  0  0  0  0  0  0  0  0
    1.1265    0.6544    6.3154 C   0  0  2  0  0  0  0  0  0  0  0  0
    0.0765    1.1911    7.2482 C   0  0  0  0  0  0  0  0  0  0  0  0
    0.6265    1.8936    8.3666 N   0  0  0  0  0  4  0  0  0  0  0  0
   -0.3960    2.3567    9.2910 C   0  0  0  0  0  0  0  0  0  0  0  0
   -1.3714    3.2739    8.5988 C   0  0  0  0  0  0  0  0  0  0  0  0
    0.2621    3.1192   10.4250 C   0  0  0  0  0  0  0  0  0  0  0  0
   -1.0939    1.1390    9.8464 C   0  0  0  0  0  0  0  0  0  0  0  0
    1.1599    1.4048    5.1565 O   0  0  0  0  0  0  0  0  0  0  0  0
    1.9756   -3.1397    4.3839 C   0  0  0  0  0  0  0  0  0  0  0  0
    2.3210   -4.3955    3.8779 C   0  0  0  0  0  0  0  0  0  0  0  0
    3.1324   -5.2453    4.6001 C   0  0  0  0  0  0  0  0  0  0  0  0
    3.5111   -6.5977    4.0677 C   0  0  0  0  0  0  0  0  0  0  0  0
  1  2  3  0
  2  3  1  0
  3  4  1  0
  4  5  1  0
  5  6  2  0
  6  7  1  0
  6  8  1  0
  8  9  1  0
  9 10  1  0
 10 11  1  0
 11 12  1  0
 12 13  1  0
 13 14  1  0
 14 15  1  0
 14 16  1  0
 14 17  1  0
 11 18  1  6
  8 19  2  0
 19 20  1  0
 20 21  2  0
 21 22  1  0
  7  3  2  0
 21  5  1  0
M  CHG  1  13   1
M  END
$$$$
