
     RDKit          3D

 22 23  0  0  0  0  0  0  0  0999 V2000
    5.7727   -4.8991   10.0930 N   0  0  0  0  0  0  0  0  0  0  0  0
    5.1860   -4.7512    9.0903 C   0  0  0  0  0  0  0  0  0  0  0  0
    4.4670   -4.5441    7.8559 C   0  0  0  0  0  0  0  0  0  0  0  0
    4.2899   -5.4390    6.8539 N   0  0  0  0  0  0  0  0  0  0  0  0
    3.5656   -4.8919    5.8601 C   0  0  0  0  0  0  0  0  0  0  0  0
    3.2606   -3.5985    6.2261 C   0  0  0  0  0  0  0  0  0  0  0  0
    3.8309   -3.3829    7.4854 C   0  0  0  0  0  0  0  0  0  0  0  0
    2.5182   -2.7777    5.3993 C   0  0  0  0  0  0  0  0  0  0  0  0
    2.2486   -1.4935    5.8268 O   0  0  0  0  0  0  0  0  0  0  0  0
    1.4323   -0.5838    5.1526 C   0  0  0  0  0  0  0  0  0  0  0  0
    1.4854    0.7507    5.8593 C   0  0  2  0  0  0  0  0  0  0  0  0
    0.8799    0.6986    7.2346 C   0  0  0  0  0  0  0  0  0  0  0  0
    0.3794    1.9645    7.6751 N   0  0  0  0  0  4  0  0  0  0  0  0
   -0.1486    1.9141    9.0289 C   0  0  0  0  0  0  0  0  0  0  0  0
   -0.4323    3.3005    9.5477 C   0  0  0  0  0  0  0  0  0  0  0  0
    0.8707    1.2572    9.9400 C   0  0  0  0  0  0  0  0  0  0  0  0
   -1.4041    1.0768    8.9980 C   0  0  0  0  0  0  0  0  0  0  0  0
    0.8642    1.7259    5.1041 O   0  0  0  0  0  0  0  0  0  0  0  0
    2.0932   -3.2988    4.1950 C   0  0  0  0  0  0  0  0  0  0  0  0
    2.4023   -4.6100    3.8238 C   0  0  0  0  0  0  0  0  0  0  0  0
    3.1443   -5.4201    4.6575 C   0  0  0  0  0  0  0  0  0  0  0  0
    3.4833   -6.8312    4.2705 C   0  0  0  0  0  0  0  0  0  0  0  0
  1  2  3  0
  2  3  1  0
  3  4  1  0
  4  5  1  0
  5  6  2  0
  6  7  1  0
  6  8  1  0
  8  9  1  0
  9 10  1  0
 10 11  1  0
 11 12  1  0
 12 13  1  0
 13 14  1  0
 14 15  1  0
 14 16  1  0
 14 17  1  0
 11 18  1  6
  8 19  2  0
 19 20  1  0
 20 21  2  0
 21 22  1  0
  7  3  2  0
 21  5  1  0
M  CHG  1  13   1
M  END
$$$$
