
     RDKit          3D

 22 23  0  0  0  0  0  0  0  0999 V2000
    5.0748   -5.4578   10.3639 N   0  0  0  0  0  0  0  0  0  0  0  0
    4.5686   -5.0141    9.4057 C   0  0  0  0  0  0  0  0  0  0  0  0
    3.9612   -4.4797    8.2102 C   0  0  0  0  0  0  0  0  0  0  0  0
    4.0800   -4.9605    6.9488 N   0  0  0  0  0  0  0  0  0  0  0  0
    3.3721   -4.2031    6.0904 C   0  0  0  0  0  0  0  0  0  0  0  0
    2.7724   -3.1960    6.8157 C   0  0  0  0  0  0  0  0  0  0  0  0
    3.1464   -3.3739    8.1522 C   0  0  0  0  0  0  0  0  0  0  0  0
    1.9730   -2.2513    6.2017 C   0  0  0  0  0  0  0  0  0  0  0  0
    1.4030   -1.2698    6.9868 O   0  0  0  0  0  0  0  0  0  0  0  0
    0.7818   -0.1191    6.4985 C   0  0  0  0  0  0  0  0  0  0  0  0
   -0.0004    0.5351    7.6135 C   0  0  2  0  0  0  0  0  0  0  0  0
    0.8878    1.2157    8.6178 C   0  0  0  0  0  0  0  0  0  0  0  0
    0.4904    2.5616    8.8964 N   0  0  0  0  0  4  0  0  0  0  0  0
    1.3917    3.2280    9.8226 C   0  0  0  0  0  0  0  0  0  0  0  0
    1.2795    2.6346   11.2035 C   0  0  0  0  0  0  0  0  0  0  0  0
    1.0331    4.6998    9.8990 C   0  0  0  0  0  0  0  0  0  0  0  0
    2.7927    3.0827    9.2797 C   0  0  0  0  0  0  0  0  0  0  0  0
   -0.8106   -0.3878    8.2453 O   0  0  0  0  0  0  0  0  0  0  0  0
    1.7966   -2.3521    4.8374 C   0  0  0  0  0  0  0  0  0  0  0  0
    2.4045   -3.3730    4.1020 C   0  0  0  0  0  0  0  0  0  0  0  0
    3.2005   -4.3105    4.7260 C   0  0  0  0  0  0  0  0  0  0  0  0
    3.8595   -5.4128    3.9472 C   0  0  0  0  0  0  0  0  0  0  0  0
  1  2  3  0
  2  3  1  0
  3  4  1  0
  4  5  1  0
  5  6  2  0
  6  7  1  0
  6  8  1  0
  8  9  1  0
  9 10  1  0
 10 11  1  0
 11 12  1  0
 12 13  1  0
 13 14  1  0
 14 15  1  0
 14 16  1  0
 14 17  1  0
 11 18  1  1
  8 19  2  0
 19 20  1  0
 20 21  2  0
 21 22  1  0
  7  3  2  0
 21  5  1  0
M  CHG  1  13   1
M  END
$$$$
