
     RDKit          3D

 22 23  0  0  0  0  0  0  0  0999 V2000
    5.5256   -4.6696   10.1947 N   0  0  0  0  0  0  0  0  0  0  0  0
    4.9493   -4.5334    9.1845 C   0  0  0  0  0  0  0  0  0  0  0  0
    4.2190   -4.3567    7.9519 C   0  0  0  0  0  0  0  0  0  0  0  0
    4.0336   -5.2757    6.9735 N   0  0  0  0  0  0  0  0  0  0  0  0
    3.2998   -4.7533    5.9733 C   0  0  0  0  0  0  0  0  0  0  0  0
    2.9971   -3.4515    6.3107 C   0  0  0  0  0  0  0  0  0  0  0  0
    3.5786   -3.2052    7.5592 C   0  0  0  0  0  0  0  0  0  0  0  0
    2.2466   -2.6514    5.4711 C   0  0  0  0  0  0  0  0  0  0  0  0
    1.9798   -1.3574    5.8698 O   0  0  0  0  0  0  0  0  0  0  0  0
    1.1280   -0.4768    5.2009 C   0  0  0  0  0  0  0  0  0  0  0  0
    1.1614    0.8674    5.8904 C   0  0  2  0  0  0  0  0  0  0  0  0
    0.4672    0.8481    7.2239 C   0  0  0  0  0  0  0  0  0  0  0  0
    0.2638    2.1552    7.7690 N   0  0  0  0  0  4  0  0  0  0  0  0
   -0.3743    2.1209    9.0751 C   0  0  0  0  0  0  0  0  0  0  0  0
    0.4800    1.3805   10.0719 C   0  0  0  0  0  0  0  0  0  0  0  0
   -1.7095    1.4102    8.9618 C   0  0  0  0  0  0  0  0  0  0  0  0
   -0.6034    3.5486    9.5085 C   0  0  0  0  0  0  0  0  0  0  0  0
    0.6097    1.8421    5.0823 O   0  0  0  0  0  0  0  0  0  0  0  0
    1.8112   -3.2018    4.2836 C   0  0  0  0  0  0  0  0  0  0  0  0
    2.1180   -4.5213    3.9414 C   0  0  0  0  0  0  0  0  0  0  0  0
    2.8681   -5.3106    4.7877 C   0  0  0  0  0  0  0  0  0  0  0  0
    3.2048   -6.7304    4.4319 C   0  0  0  0  0  0  0  0  0  0  0  0
  1  2  3  0
  2  3  1  0
  3  4  1  0
  4  5  1  0
  5  6  2  0
  6  7  1  0
  6  8  1  0
  8  9  1  0
  9 10  1  0
 10 11  1  0
 11 12  1  0
 12 13  1  0
 13 14  1  0
 14 15  1  0
 14 16  1  0
 14 17  1  0
 11 18  1  6
  8 19  2  0
 19 20  1  0
 20 21  2  0
 21 22  1  0
  7  3  2  0
 21  5  1  0
M  CHG  1  13   1
M  END
$$$$
