
     RDKit          3D

 22 24  0  0  0  0  0  0  0  0999 V2000
    0.9496    4.5497    5.1235 C   0  0  0  0  0  0  0  0  0  0  0  0
    0.4975    4.7648    6.5257 C   0  0  0  0  0  0  0  0  0  0  0  0
    1.3129    4.5101    7.6078 C   0  0  0  0  0  0  0  0  0  0  0  0
    0.8795    4.7150    8.9139 C   0  0  0  0  0  0  0  0  0  0  0  0
   -0.4101    5.1859    9.0510 C   0  0  0  0  0  0  0  0  0  0  0  0
   -1.2367    5.4447    7.9747 C   0  0  0  0  0  0  0  0  0  0  0  0
   -0.7486    5.2226    6.7336 N   0  0  0  0  0  0  0  0  0  0  0  0
   -2.8849    6.0483    8.2160 Cl  0  0  0  0  0  0  0  0  0  0  0  0
    1.7583    4.4387   10.0412 C   0  0  0  0  0  0  0  0  0  0  0  0
    2.5323    3.3000   10.0536 C   0  0  0  0  0  0  0  0  0  0  0  0
    3.3474    3.0466   11.1017 N   0  0  0  0  0  0  0  0  0  0  0  0
    3.3977    3.9111   12.1296 C   0  0  0  0  0  0  0  0  0  0  0  0
    2.6380    5.0277   12.1160 N   0  0  0  0  0  0  0  0  0  0  0  0
    1.8431    5.2729   11.0918 N   0  0  0  0  0  0  0  0  0  0  0  0
    4.2226    3.7189   13.2605 N   0  0  0  0  0  0  0  0  0  0  0  0
    2.4213    2.4138    8.9007 C   0  0  0  0  0  0  0  0  0  0  0  0
    1.2022    2.1830    8.2912 C   0  0  0  0  0  0  0  0  0  0  0  0
    1.1160    1.3442    7.2064 C   0  0  0  0  0  0  0  0  0  0  0  0
    2.2271    0.7042    6.6851 C   0  0  0  0  0  0  0  0  0  0  0  0
    3.4382    0.9212    7.2752 C   0  0  0  0  0  0  0  0  0  0  0  0
    3.5171    1.7673    8.3673 C   0  0  0  0  0  0  0  0  0  0  0  0
    2.1200   -0.1297    5.6013 F   0  0  0  0  0  0  0  0  0  0  0  0
  1  2  1  0
  2  3  2  0
  3  4  1  0
  4  5  2  0
  5  6  1  0
  6  7  2  0
  6  8  1  0
  4  9  1  0
  9 10  1  0
 10 11  2  0
 11 12  1  0
 12 13  2  0
 13 14  1  0
 12 15  1  0
 10 16  1  0
 16 17  2  0
 17 18  1  0
 18 19  2  0
 19 20  1  0
 20 21  2  0
 19 22  1  0
  7  2  1  0
 14  9  2  0
 21 16  1  0
M  END
$$$$
