
     RDKit          3D

 22 24  0  0  0  0  0  0  0  0999 V2000
   -0.8948    5.8810    5.6199 C   0  0  0  0  0  0  0  0  0  0  0  0
   -0.4812    4.7913    6.5464 C   0  0  0  0  0  0  0  0  0  0  0  0
    0.2082    5.0416    7.7137 C   0  0  0  0  0  0  0  0  0  0  0  0
    0.5894    4.0151    8.5720 C   0  0  0  0  0  0  0  0  0  0  0  0
    0.2340    2.7413    8.1786 C   0  0  0  0  0  0  0  0  0  0  0  0
   -0.4565    2.4778    7.0114 C   0  0  0  0  0  0  0  0  0  0  0  0
   -0.7947    3.5246    6.2256 N   0  0  0  0  0  0  0  0  0  0  0  0
   -0.8839    0.8185    6.5604 Cl  0  0  0  0  0  0  0  0  0  0  0  0
    1.3172    4.3035    9.7994 C   0  0  0  0  0  0  0  0  0  0  0  0
    2.3828    3.5162   10.1745 C   0  0  0  0  0  0  0  0  0  0  0  0
    3.0566    3.7868   11.3145 N   0  0  0  0  0  0  0  0  0  0  0  0
    2.6810    4.8271   12.0783 C   0  0  0  0  0  0  0  0  0  0  0  0
    1.6357    5.5986   11.7091 N   0  0  0  0  0  0  0  0  0  0  0  0
    0.9794    5.3324   10.5958 N   0  0  0  0  0  0  0  0  0  0  0  0
    3.3325    5.1757   13.2826 N   0  0  0  0  0  0  0  0  0  0  0  0
    2.7278    2.4081    9.2913 C   0  0  0  0  0  0  0  0  0  0  0  0
    3.3342    1.2661    9.7805 C   0  0  0  0  0  0  0  0  0  0  0  0
    3.6531    0.2322    8.9337 C   0  0  0  0  0  0  0  0  0  0  0  0
    3.3858    0.2876    7.5768 C   0  0  0  0  0  0  0  0  0  0  0  0
    2.7876    1.4079    7.0777 C   0  0  0  0  0  0  0  0  0  0  0  0
    2.4693    2.4451    7.9367 C   0  0  0  0  0  0  0  0  0  0  0  0
    3.7122   -0.7555    6.7479 F   0  0  0  0  0  0  0  0  0  0  0  0
  1  2  1  0
  2  3  2  0
  3  4  1  0
  4  5  2  0
  5  6  1  0
  6  7  2  0
  6  8  1  0
  4  9  1  0
  9 10  1  0
 10 11  2  0
 11 12  1  0
 12 13  2  0
 13 14  1  0
 12 15  1  0
 10 16  1  0
 16 17  2  0
 17 18  1  0
 18 19  2  0
 19 20  1  0
 20 21  2  0
 19 22  1  0
  7  2  1  0
 14  9  2  0
 21 16  1  0
M  END
$$$$
