
     RDKit          3D

 22 24  0  0  0  0  0  0  0  0999 V2000
   -2.6004    5.4819    8.1445 C   0  0  0  0  0  0  0  0  0  0  0  0
   -1.1620    5.1460    7.9575 C   0  0  0  0  0  0  0  0  0  0  0  0
   -0.3137    4.9292    9.0224 C   0  0  0  0  0  0  0  0  0  0  0  0
    1.0289    4.6158    8.8355 C   0  0  0  0  0  0  0  0  0  0  0  0
    1.4495    4.5378    7.5237 C   0  0  0  0  0  0  0  0  0  0  0  0
    0.6093    4.7529    6.4484 C   0  0  0  0  0  0  0  0  0  0  0  0
   -0.6836    5.0534    6.7052 N   0  0  0  0  0  0  0  0  0  0  0  0
    1.2100    4.6387    4.7854 Cl  0  0  0  0  0  0  0  0  0  0  0  0
    1.9061    4.3914    9.9754 C   0  0  0  0  0  0  0  0  0  0  0  0
    2.6978    3.2661   10.0296 C   0  0  0  0  0  0  0  0  0  0  0  0
    3.5113    3.0609   11.0894 N   0  0  0  0  0  0  0  0  0  0  0  0
    3.5428    3.9601   12.0879 C   0  0  0  0  0  0  0  0  0  0  0  0
    2.7657    5.0634   12.0333 N   0  0  0  0  0  0  0  0  0  0  0  0
    1.9723    5.2615   10.9978 N   0  0  0  0  0  0  0  0  0  0  0  0
    4.3648    3.8189   13.2284 N   0  0  0  0  0  0  0  0  0  0  0  0
    2.6066    2.3401    8.9066 C   0  0  0  0  0  0  0  0  0  0  0  0
    3.7128    1.6363    8.4687 C   0  0  0  0  0  0  0  0  0  0  0  0
    3.6088    0.7687    7.4085 C   0  0  0  0  0  0  0  0  0  0  0  0
    2.4122    0.5649    6.7434 C   0  0  0  0  0  0  0  0  0  0  0  0
    1.3104    1.2520    7.1630 C   0  0  0  0  0  0  0  0  0  0  0  0
    1.4230    2.1240    8.2316 C   0  0  0  0  0  0  0  0  0  0  0  0
    2.3290   -0.3058    5.6867 F   0  0  0  0  0  0  0  0  0  0  0  0
  1  2  1  0
  2  3  2  0
  3  4  1  0
  4  5  2  0
  5  6  1  0
  6  7  2  0
  6  8  1  0
  4  9  1  0
  9 10  1  0
 10 11  2  0
 11 12  1  0
 12 13  2  0
 13 14  1  0
 12 15  1  0
 10 16  1  0
 16 17  2  0
 17 18  1  0
 18 19  2  0
 19 20  1  0
 20 21  2  0
 19 22  1  0
  7  2  1  0
 14  9  2  0
 21 16  1  0
M  END
$$$$
