
     RDKit          3D

 22 24  0  0  0  0  0  0  0  0999 V2000
   -2.3403    6.0242    7.5846 C   0  0  0  0  0  0  0  0  0  0  0  0
   -0.9630    5.4594    7.5561 C   0  0  0  0  0  0  0  0  0  0  0  0
   -0.2329    5.2450    8.7058 C   0  0  0  0  0  0  0  0  0  0  0  0
    1.0535    4.7164    8.6670 C   0  0  0  0  0  0  0  0  0  0  0  0
    1.5442    4.4245    7.4110 C   0  0  0  0  0  0  0  0  0  0  0  0
    0.8226    4.6349    6.2519 C   0  0  0  0  0  0  0  0  0  0  0  0
   -0.4216    5.1515    6.3655 N   0  0  0  0  0  0  0  0  0  0  0  0
    1.5088    4.2398    4.6669 Cl  0  0  0  0  0  0  0  0  0  0  0  0
    1.8057    4.4990    9.8943 C   0  0  0  0  0  0  0  0  0  0  0  0
    2.5187    3.3347   10.0730 C   0  0  0  0  0  0  0  0  0  0  0  0
    3.2162    3.1361   11.2136 N   0  0  0  0  0  0  0  0  0  0  0  0
    3.2098    4.0801   12.1704 C   0  0  0  0  0  0  0  0  0  0  0  0
    2.5100    5.2217   11.9937 N   0  0  0  0  0  0  0  0  0  0  0  0
    1.8297    5.4133   10.8794 N   0  0  0  0  0  0  0  0  0  0  0  0
    3.9121    3.9489   13.3892 N   0  0  0  0  0  0  0  0  0  0  0  0
    2.4757    2.3613    8.9879 C   0  0  0  0  0  0  0  0  0  0  0  0
    3.3929    2.4017    7.9544 C   0  0  0  0  0  0  0  0  0  0  0  0
    3.3370    1.4771    6.9398 C   0  0  0  0  0  0  0  0  0  0  0  0
    2.3760    0.4814    6.9082 C   0  0  0  0  0  0  0  0  0  0  0  0
    1.4629    0.4274    7.9209 C   0  0  0  0  0  0  0  0  0  0  0  0
    1.5257    1.3621    8.9393 C   0  0  0  0  0  0  0  0  0  0  0  0
    2.3370   -0.4325    5.8860 F   0  0  0  0  0  0  0  0  0  0  0  0
  1  2  1  0
  2  3  2  0
  3  4  1  0
  4  5  2  0
  5  6  1  0
  6  7  2  0
  6  8  1  0
  4  9  1  0
  9 10  1  0
 10 11  2  0
 11 12  1  0
 12 13  2  0
 13 14  1  0
 12 15  1  0
 10 16  1  0
 16 17  2  0
 17 18  1  0
 18 19  2  0
 19 20  1  0
 20 21  2  0
 19 22  1  0
  7  2  1  0
 14  9  2  0
 21 16  1  0
M  END
$$$$
