
     RDKit          3D

 22 24  0  0  0  0  0  0  0  0999 V2000
   -2.6960    5.3674    8.1703 C   0  0  0  0  0  0  0  0  0  0  0  0
   -1.2384    5.1226    7.9910 C   0  0  0  0  0  0  0  0  0  0  0  0
   -0.3800    4.9819    9.0606 C   0  0  0  0  0  0  0  0  0  0  0  0
    0.9806    4.7532    8.8809 C   0  0  0  0  0  0  0  0  0  0  0  0
    1.4081    4.6778    7.5712 C   0  0  0  0  0  0  0  0  0  0  0  0
    0.5579    4.8172    6.4912 C   0  0  0  0  0  0  0  0  0  0  0  0
   -0.7523    5.0375    6.7411 N   0  0  0  0  0  0  0  0  0  0  0  0
    1.1684    4.7107    4.8313 Cl  0  0  0  0  0  0  0  0  0  0  0  0
    1.8681    4.6082   10.0257 C   0  0  0  0  0  0  0  0  0  0  0  0
    2.7100    3.5225   10.1167 C   0  0  0  0  0  0  0  0  0  0  0  0
    3.5330    3.3910   11.1808 N   0  0  0  0  0  0  0  0  0  0  0  0
    3.5246    4.3247   12.1477 C   0  0  0  0  0  0  0  0  0  0  0  0
    2.6983    5.3892   12.0571 N   0  0  0  0  0  0  0  0  0  0  0  0
    1.8958    5.5153   11.0174 N   0  0  0  0  0  0  0  0  0  0  0  0
    4.3532    4.2604   13.2903 N   0  0  0  0  0  0  0  0  0  0  0  0
    2.6598    2.5551    9.0265 C   0  0  0  0  0  0  0  0  0  0  0  0
    3.7869    1.8540    8.6404 C   0  0  0  0  0  0  0  0  0  0  0  0
    3.7215    0.9471    7.6104 C   0  0  0  0  0  0  0  0  0  0  0  0
    2.5443    0.6998    6.9257 C   0  0  0  0  0  0  0  0  0  0  0  0
    1.4224    1.3836    7.2943 C   0  0  0  0  0  0  0  0  0  0  0  0
    1.4961    2.2953    8.3326 C   0  0  0  0  0  0  0  0  0  0  0  0
    2.4998   -0.2099    5.8999 F   0  0  0  0  0  0  0  0  0  0  0  0
  1  2  1  0
  2  3  2  0
  3  4  1  0
  4  5  2  0
  5  6  1  0
  6  7  2  0
  6  8  1  0
  4  9  1  0
  9 10  1  0
 10 11  2  0
 11 12  1  0
 12 13  2  0
 13 14  1  0
 12 15  1  0
 10 16  1  0
 16 17  2  0
 17 18  1  0
 18 19  2  0
 19 20  1  0
 20 21  2  0
 19 22  1  0
  7  2  1  0
 14  9  2  0
 21 16  1  0
M  END
$$$$
