
     RDKit          3D

 22 24  0  0  0  0  0  0  0  0999 V2000
   -1.2049    6.7099    6.9528 C   0  0  0  0  0  0  0  0  0  0  0  0
   -0.6947    5.5118    7.6746 C   0  0  0  0  0  0  0  0  0  0  0  0
    0.2569    5.6026    8.6680 C   0  0  0  0  0  0  0  0  0  0  0  0
    0.7262    4.4759    9.3359 C   0  0  0  0  0  0  0  0  0  0  0  0
    0.1796    3.2727    8.9395 C   0  0  0  0  0  0  0  0  0  0  0  0
   -0.7742    3.1688    7.9455 C   0  0  0  0  0  0  0  0  0  0  0  0
   -1.1837    4.3059    7.3395 N   0  0  0  0  0  0  0  0  0  0  0  0
   -1.4379    1.5932    7.4805 Cl  0  0  0  0  0  0  0  0  0  0  0  0
    1.7318    4.5962   10.3816 C   0  0  0  0  0  0  0  0  0  0  0  0
    2.8053    3.7344   10.4132 C   0  0  0  0  0  0  0  0  0  0  0  0
    3.7373    3.8489   11.3854 N   0  0  0  0  0  0  0  0  0  0  0  0
    3.6103    4.8072   12.3192 C   0  0  0  0  0  0  0  0  0  0  0  0
    2.5569    5.6519   12.2870 N   0  0  0  0  0  0  0  0  0  0  0  0
    1.6483    5.5381   11.3371 N   0  0  0  0  0  0  0  0  0  0  0  0
    4.5401    4.9926   13.3668 N   0  0  0  0  0  0  0  0  0  0  0  0
    2.8712    2.7235    9.3641 C   0  0  0  0  0  0  0  0  0  0  0  0
    2.4117    2.9872    8.0873 C   0  0  0  0  0  0  0  0  0  0  0  0
    2.4807    2.0225    7.1115 C   0  0  0  0  0  0  0  0  0  0  0  0
    3.0043    0.7655    7.3597 C   0  0  0  0  0  0  0  0  0  0  0  0
    3.4622    0.4888    8.6151 C   0  0  0  0  0  0  0  0  0  0  0  0
    3.3894    1.4655    9.5926 C   0  0  0  0  0  0  0  0  0  0  0  0
    3.0643   -0.1841    6.3717 F   0  0  0  0  0  0  0  0  0  0  0  0
  1  2  1  0
  2  3  2  0
  3  4  1  0
  4  5  2  0
  5  6  1  0
  6  7  2  0
  6  8  1  0
  4  9  1  0
  9 10  1  0
 10 11  2  0
 11 12  1  0
 12 13  2  0
 13 14  1  0
 12 15  1  0
 10 16  1  0
 16 17  2  0
 17 18  1  0
 18 19  2  0
 19 20  1  0
 20 21  2  0
 19 22  1  0
  7  2  1  0
 14  9  2  0
 21 16  1  0
M  END
$$$$
