
     RDKit          3D

 22 24  0  0  0  0  0  0  0  0999 V2000
   -2.3527    5.3560    7.2772 C   0  0  0  0  0  0  0  0  0  0  0  0
   -0.8958    5.0583    7.3526 C   0  0  0  0  0  0  0  0  0  0  0  0
   -0.2167    5.0109    8.5514 C   0  0  0  0  0  0  0  0  0  0  0  0
    1.1450    4.7315    8.6097 C   0  0  0  0  0  0  0  0  0  0  0  0
    1.7636    4.5075    7.3969 C   0  0  0  0  0  0  0  0  0  0  0  0
    1.0941    4.5523    6.1893 C   0  0  0  0  0  0  0  0  0  0  0  0
   -0.2289    4.8296    6.2087 N   0  0  0  0  0  0  0  0  0  0  0  0
    1.9454    4.2560    4.6639 Cl  0  0  0  0  0  0  0  0  0  0  0  0
    1.8412    4.6870    9.8874 C   0  0  0  0  0  0  0  0  0  0  0  0
    2.6240    3.6019   10.2127 C   0  0  0  0  0  0  0  0  0  0  0  0
    3.2693    3.5639   11.3997 N   0  0  0  0  0  0  0  0  0  0  0  0
    3.1426    4.5897   12.2590 C   0  0  0  0  0  0  0  0  0  0  0  0
    2.3745    5.6535   11.9385 N   0  0  0  0  0  0  0  0  0  0  0  0
    1.7455    5.6883   10.7792 N   0  0  0  0  0  0  0  0  0  0  0  0
    3.7836    4.6263   13.5176 N   0  0  0  0  0  0  0  0  0  0  0  0
    2.7106    2.5312    9.2263 C   0  0  0  0  0  0  0  0  0  0  0  0
    3.0262    2.7982    7.9072 C   0  0  0  0  0  0  0  0  0  0  0  0
    3.1026    1.7771    6.9912 C   0  0  0  0  0  0  0  0  0  0  0  0
    2.8707    0.4586    7.3428 C   0  0  0  0  0  0  0  0  0  0  0  0
    2.5578    0.1778    8.6410 C   0  0  0  0  0  0  0  0  0  0  0  0
    2.4829    1.2116    9.5579 C   0  0  0  0  0  0  0  0  0  0  0  0
    2.9518   -0.5467    6.4131 F   0  0  0  0  0  0  0  0  0  0  0  0
  1  2  1  0
  2  3  2  0
  3  4  1  0
  4  5  2  0
  5  6  1  0
  6  7  2  0
  6  8  1  0
  4  9  1  0
  9 10  1  0
 10 11  2  0
 11 12  1  0
 12 13  2  0
 13 14  1  0
 12 15  1  0
 10 16  1  0
 16 17  2  0
 17 18  1  0
 18 19  2  0
 19 20  1  0
 20 21  2  0
 19 22  1  0
  7  2  1  0
 14  9  2  0
 21 16  1  0
M  END
$$$$
