
     RDKit          3D

 22 24  0  0  0  0  0  0  0  0999 V2000
   -2.5647    5.6836    7.5406 C   0  0  0  0  0  0  0  0  0  0  0  0
   -1.1675    5.1693    7.5365 C   0  0  0  0  0  0  0  0  0  0  0  0
   -0.4409    5.0071    8.6968 C   0  0  0  0  0  0  0  0  0  0  0  0
    0.8643    4.5254    8.6808 C   0  0  0  0  0  0  0  0  0  0  0  0
    1.3771    4.2243    7.4358 C   0  0  0  0  0  0  0  0  0  0  0  0
    0.6592    4.3826    6.2661 C   0  0  0  0  0  0  0  0  0  0  0  0
   -0.6041    4.8555    6.3576 N   0  0  0  0  0  0  0  0  0  0  0  0
    1.3742    3.9784    4.6962 Cl  0  0  0  0  0  0  0  0  0  0  0  0
    1.6124    4.3627    9.9190 C   0  0  0  0  0  0  0  0  0  0  0  0
    2.4023    3.2513   10.1104 C   0  0  0  0  0  0  0  0  0  0  0  0
    3.0959    3.1034   11.2611 N   0  0  0  0  0  0  0  0  0  0  0  0
    3.0101    4.0460   12.2154 C   0  0  0  0  0  0  0  0  0  0  0  0
    2.2349    5.1357   12.0263 N   0  0  0  0  0  0  0  0  0  0  0  0
    1.5588    5.2778   10.9022 N   0  0  0  0  0  0  0  0  0  0  0  0
    3.7026    3.9657   13.4443 N   0  0  0  0  0  0  0  0  0  0  0  0
    2.4427    2.2757    9.0271 C   0  0  0  0  0  0  0  0  0  0  0  0
    1.3081    1.9673    8.3000 C   0  0  0  0  0  0  0  0  0  0  0  0
    1.3644    1.0450    7.2834 C   0  0  0  0  0  0  0  0  0  0  0  0
    2.5394    0.3949    6.9481 C   0  0  0  0  0  0  0  0  0  0  0  0
    3.6686    0.6877    7.6561 C   0  0  0  0  0  0  0  0  0  0  0  0
    3.6042    1.6178    8.6787 C   0  0  0  0  0  0  0  0  0  0  0  0
    2.5748   -0.5231    5.9295 F   0  0  0  0  0  0  0  0  0  0  0  0
  1  2  1  0
  2  3  2  0
  3  4  1  0
  4  5  2  0
  5  6  1  0
  6  7  2  0
  6  8  1  0
  4  9  1  0
  9 10  1  0
 10 11  2  0
 11 12  1  0
 12 13  2  0
 13 14  1  0
 12 15  1  0
 10 16  1  0
 16 17  2  0
 17 18  1  0
 18 19  2  0
 19 20  1  0
 20 21  2  0
 19 22  1  0
  7  2  1  0
 14  9  2  0
 21 16  1  0
M  END
$$$$
