
     RDKit          3D

 22 24  0  0  0  0  0  0  0  0999 V2000
   -2.0433    6.5110    7.2462 C   0  0  0  0  0  0  0  0  0  0  0  0
   -0.9765    5.4990    7.4800 C   0  0  0  0  0  0  0  0  0  0  0  0
   -0.1861    5.5124    8.6095 C   0  0  0  0  0  0  0  0  0  0  0  0
    0.8079    4.5614    8.8175 C   0  0  0  0  0  0  0  0  0  0  0  0
    0.9475    3.6130    7.8252 C   0  0  0  0  0  0  0  0  0  0  0  0
    0.1618    3.5892    6.6890 C   0  0  0  0  0  0  0  0  0  0  0  0
   -0.7849    4.5448    6.5537 N   0  0  0  0  0  0  0  0  0  0  0  0
    0.3904    2.3443    5.4491 Cl  0  0  0  0  0  0  0  0  0  0  0  0
    1.6307    4.5956   10.0180 C   0  0  0  0  0  0  0  0  0  0  0  0
    2.5884    3.6292   10.2295 C   0  0  0  0  0  0  0  0  0  0  0  0
    3.3508    3.6641   11.3450 N   0  0  0  0  0  0  0  0  0  0  0  0
    3.1689    4.6458   12.2448 C   0  0  0  0  0  0  0  0  0  0  0  0
    2.2291    5.5931   12.0360 N   0  0  0  0  0  0  0  0  0  0  0  0
    1.4860    5.5570   10.9463 N   0  0  0  0  0  0  0  0  0  0  0  0
    3.9238    4.7525   13.4344 N   0  0  0  0  0  0  0  0  0  0  0  0
    2.7243    2.5994    9.2058 C   0  0  0  0  0  0  0  0  0  0  0  0
    3.0695    1.3026    9.5376 C   0  0  0  0  0  0  0  0  0  0  0  0
    3.1940    0.3454    8.5599 C   0  0  0  0  0  0  0  0  0  0  0  0
    2.9830    0.6326    7.2225 C   0  0  0  0  0  0  0  0  0  0  0  0
    2.6418    1.9081    6.8778 C   0  0  0  0  0  0  0  0  0  0  0  0
    2.5182    2.8666    7.8682 C   0  0  0  0  0  0  0  0  0  0  0  0
    3.1124   -0.3374    6.2612 F   0  0  0  0  0  0  0  0  0  0  0  0
  1  2  1  0
  2  3  2  0
  3  4  1  0
  4  5  2  0
  5  6  1  0
  6  7  2  0
  6  8  1  0
  4  9  1  0
  9 10  1  0
 10 11  2  0
 11 12  1  0
 12 13  2  0
 13 14  1  0
 12 15  1  0
 10 16  1  0
 16 17  2  0
 17 18  1  0
 18 19  2  0
 19 20  1  0
 20 21  2  0
 19 22  1  0
  7  2  1  0
 14  9  2  0
 21 16  1  0
M  END
$$$$
