
     RDKit          3D

 22 24  0  0  0  0  0  0  0  0999 V2000
    4.6656    2.1588   11.1702 C   0  0  0  0  0  0  0  0  0  0  0  0
    3.3995    2.4590   10.4465 C   0  0  0  0  0  0  0  0  0  0  0  0
    2.6948    3.6260   10.6521 C   0  0  0  0  0  0  0  0  0  0  0  0
    1.5126    3.8959    9.9699 C   0  0  0  0  0  0  0  0  0  0  0  0
    1.0975    2.9248    9.0820 C   0  0  0  0  0  0  0  0  0  0  0  0
    1.7948    1.7516    8.8675 C   0  0  0  0  0  0  0  0  0  0  0  0
    2.9359    1.5564    9.5656 N   0  0  0  0  0  0  0  0  0  0  0  0
    1.2092    0.5416    7.7132 Cl  0  0  0  0  0  0  0  0  0  0  0  0
    0.7852    5.1350   10.2036 C   0  0  0  0  0  0  0  0  0  0  0  0
    0.2045    5.8068    9.1512 C   0  0  0  0  0  0  0  0  0  0  0  0
   -0.4704    6.9569    9.3717 N   0  0  0  0  0  0  0  0  0  0  0  0
   -0.5712    7.4400   10.6219 C   0  0  0  0  0  0  0  0  0  0  0  0
   -0.0011    6.7800   11.6533 N   0  0  0  0  0  0  0  0  0  0  0  0
    0.6573    5.6575   11.4355 N   0  0  0  0  0  0  0  0  0  0  0  0
   -1.2586    8.6339   10.9352 N   0  0  0  0  0  0  0  0  0  0  0  0
    0.3580    5.2168    7.8263 C   0  0  0  0  0  0  0  0  0  0  0  0
   -0.6743    5.2448    6.9073 C   0  0  0  0  0  0  0  0  0  0  0  0
   -0.5123    4.6831    5.6639 C   0  0  0  0  0  0  0  0  0  0  0  0
    0.6713    4.0749    5.2833 C   0  0  0  0  0  0  0  0  0  0  0  0
    1.7003    4.0386    6.1788 C   0  0  0  0  0  0  0  0  0  0  0  0
    1.5297    4.6065    7.4291 C   0  0  0  0  0  0  0  0  0  0  0  0
    0.8130    3.5198    4.0370 F   0  0  0  0  0  0  0  0  0  0  0  0
  1  2  1  0
  2  3  2  0
  3  4  1  0
  4  5  2  0
  5  6  1  0
  6  7  2  0
  6  8  1  0
  4  9  1  0
  9 10  1  0
 10 11  2  0
 11 12  1  0
 12 13  2  0
 13 14  1  0
 12 15  1  0
 10 16  1  0
 16 17  2  0
 17 18  1  0
 18 19  2  0
 19 20  1  0
 20 21  2  0
 19 22  1  0
  7  2  1  0
 14  9  2  0
 21 16  1  0
M  END
$$$$
