
     RDKit          3D

 22 24  0  0  0  0  0  0  0  0999 V2000
   -0.0919    1.3495    6.2978 C   0  0  0  0  0  0  0  0  0  0  0  0
    0.0197    2.7203    6.8680 C   0  0  0  0  0  0  0  0  0  0  0  0
    0.6597    2.9689    8.0635 C   0  0  0  0  0  0  0  0  0  0  0  0
    0.7580    4.2543    8.5868 C   0  0  0  0  0  0  0  0  0  0  0  0
    0.1761    5.2540    7.8345 C   0  0  0  0  0  0  0  0  0  0  0  0
   -0.4680    5.0176    6.6354 C   0  0  0  0  0  0  0  0  0  0  0  0
   -0.5249    3.7432    6.1877 N   0  0  0  0  0  0  0  0  0  0  0  0
   -1.1966    6.3449    5.7153 Cl  0  0  0  0  0  0  0  0  0  0  0  0
    1.4384    4.4927    9.8514 C   0  0  0  0  0  0  0  0  0  0  0  0
    2.4236    3.6320   10.2812 C   0  0  0  0  0  0  0  0  0  0  0  0
    3.0536    3.8564   11.4558 N   0  0  0  0  0  0  0  0  0  0  0  0
    2.7135    4.9225   12.2003 C   0  0  0  0  0  0  0  0  0  0  0  0
    1.7470    5.7659   11.7774 N   0  0  0  0  0  0  0  0  0  0  0  0
    1.1333    5.5448   10.6304 N   0  0  0  0  0  0  0  0  0  0  0  0
    3.3235    5.2264   13.4379 N   0  0  0  0  0  0  0  0  0  0  0  0
    2.7348    2.5001    9.4159 C   0  0  0  0  0  0  0  0  0  0  0  0
    3.0158    1.2534    9.9429 C   0  0  0  0  0  0  0  0  0  0  0  0
    3.3079    0.1984    9.1127 C   0  0  0  0  0  0  0  0  0  0  0  0
    3.3333    0.3351    7.7356 C   0  0  0  0  0  0  0  0  0  0  0  0
    3.0583    1.5593    7.1991 C   0  0  0  0  0  0  0  0  0  0  0  0
    2.7649    2.6170    8.0417 C   0  0  0  0  0  0  0  0  0  0  0  0
    3.6272   -0.7308    6.9237 F   0  0  0  0  0  0  0  0  0  0  0  0
  1  2  1  0
  2  3  2  0
  3  4  1  0
  4  5  2  0
  5  6  1  0
  6  7  2  0
  6  8  1  0
  4  9  1  0
  9 10  1  0
 10 11  2  0
 11 12  1  0
 12 13  2  0
 13 14  1  0
 12 15  1  0
 10 16  1  0
 16 17  2  0
 17 18  1  0
 18 19  2  0
 19 20  1  0
 20 21  2  0
 19 22  1  0
  7  2  1  0
 14  9  2  0
 21 16  1  0
M  END
$$$$
