
     RDKit          3D

 22 24  0  0  0  0  0  0  0  0999 V2000
   -2.4191    6.0493    8.0885 C   0  0  0  0  0  0  0  0  0  0  0  0
   -1.0401    5.5118    7.9264 C   0  0  0  0  0  0  0  0  0  0  0  0
   -0.2350    5.2165    9.0059 C   0  0  0  0  0  0  0  0  0  0  0  0
    1.0521    4.7145    8.8422 C   0  0  0  0  0  0  0  0  0  0  0  0
    1.4642    4.5343    7.5378 C   0  0  0  0  0  0  0  0  0  0  0  0
    0.6669    4.8265    6.4480 C   0  0  0  0  0  0  0  0  0  0  0  0
   -0.5732    5.3112    6.6825 N   0  0  0  0  0  0  0  0  0  0  0  0
    1.2540    4.5735    4.7955 Cl  0  0  0  0  0  0  0  0  0  0  0  0
    1.8844    4.4103    9.9972 C   0  0  0  0  0  0  0  0  0  0  0  0
    2.6117    3.2418   10.0388 C   0  0  0  0  0  0  0  0  0  0  0  0
    3.3836    2.9625   11.1126 N   0  0  0  0  0  0  0  0  0  0  0  0
    3.4370    3.8305   12.1375 C   0  0  0  0  0  0  0  0  0  0  0  0
    2.7231    4.9763   12.0953 N   0  0  0  0  0  0  0  0  0  0  0  0
    1.9702    5.2467   11.0460 N   0  0  0  0  0  0  0  0  0  0  0  0
    4.2187    3.6124   13.2941 N   0  0  0  0  0  0  0  0  0  0  0  0
    2.5006    2.3539    8.8873 C   0  0  0  0  0  0  0  0  0  0  0  0
    1.2908    2.1617    8.2467 C   0  0  0  0  0  0  0  0  0  0  0  0
    1.2044    1.3206    7.1638 C   0  0  0  0  0  0  0  0  0  0  0  0
    2.3061    0.6403    6.6749 C   0  0  0  0  0  0  0  0  0  0  0  0
    3.5081    0.8188    7.2958 C   0  0  0  0  0  0  0  0  0  0  0  0
    3.5872    1.6675    8.3859 C   0  0  0  0  0  0  0  0  0  0  0  0
    2.1991   -0.1952    5.5922 F   0  0  0  0  0  0  0  0  0  0  0  0
  1  2  1  0
  2  3  2  0
  3  4  1  0
  4  5  2  0
  5  6  1  0
  6  7  2  0
  6  8  1  0
  4  9  1  0
  9 10  1  0
 10 11  2  0
 11 12  1  0
 12 13  2  0
 13 14  1  0
 12 15  1  0
 10 16  1  0
 16 17  2  0
 17 18  1  0
 18 19  2  0
 19 20  1  0
 20 21  2  0
 19 22  1  0
  7  2  1  0
 14  9  2  0
 21 16  1  0
M  END
$$$$
