
     RDKit          3D

 22 24  0  0  0  0  0  0  0  0999 V2000
   -1.2679    6.4863    6.7119 C   0  0  0  0  0  0  0  0  0  0  0  0
   -0.6559    5.2916    7.3558 C   0  0  0  0  0  0  0  0  0  0  0  0
    0.1519    5.3897    8.4687 C   0  0  0  0  0  0  0  0  0  0  0  0
    0.7184    4.2660    9.0622 C   0  0  0  0  0  0  0  0  0  0  0  0
    0.4194    3.0580    8.4663 C   0  0  0  0  0  0  0  0  0  0  0  0
   -0.3884    2.9469    7.3511 C   0  0  0  0  0  0  0  0  0  0  0  0
   -0.9048    4.0814    6.8276 N   0  0  0  0  0  0  0  0  0  0  0  0
   -0.7349    1.3656    6.6309 Cl  0  0  0  0  0  0  0  0  0  0  0  0
    1.5687    4.3941   10.2369 C   0  0  0  0  0  0  0  0  0  0  0  0
    2.6174    3.5233   10.4315 C   0  0  0  0  0  0  0  0  0  0  0  0
    3.4051    3.6451   11.5231 N   0  0  0  0  0  0  0  0  0  0  0  0
    3.1591    4.6194   12.4157 C   0  0  0  0  0  0  0  0  0  0  0  0
    2.1301    5.4729   12.2235 N   0  0  0  0  0  0  0  0  0  0  0  0
    1.3625    5.3520   11.1572 N   0  0  0  0  0  0  0  0  0  0  0  0
    3.9349    4.8133   13.5805 N   0  0  0  0  0  0  0  0  0  0  0  0
    2.8185    2.4950    9.4170 C   0  0  0  0  0  0  0  0  0  0  0  0
    3.2226    1.2190    9.7627 C   0  0  0  0  0  0  0  0  0  0  0  0
    3.4080    0.2630    8.7936 C   0  0  0  0  0  0  0  0  0  0  0  0
    3.2021    0.5309    7.4513 C   0  0  0  0  0  0  0  0  0  0  0  0
    2.8031    1.7857    7.0931 C   0  0  0  0  0  0  0  0  0  0  0  0
    2.6183    2.7432    8.0748 C   0  0  0  0  0  0  0  0  0  0  0  0
    3.3928   -0.4376    6.4988 F   0  0  0  0  0  0  0  0  0  0  0  0
  1  2  1  0
  2  3  2  0
  3  4  1  0
  4  5  2  0
  5  6  1  0
  6  7  2  0
  6  8  1  0
  4  9  1  0
  9 10  1  0
 10 11  2  0
 11 12  1  0
 12 13  2  0
 13 14  1  0
 12 15  1  0
 10 16  1  0
 16 17  2  0
 17 18  1  0
 18 19  2  0
 19 20  1  0
 20 21  2  0
 19 22  1  0
  7  2  1  0
 14  9  2  0
 21 16  1  0
M  END
$$$$
