
     RDKit          3D

 22 24  0  0  0  0  0  0  0  0999 V2000
   -1.7900    6.7941    7.7282 C   0  0  0  0  0  0  0  0  0  0  0  0
   -1.0090    5.5778    8.0850 C   0  0  0  0  0  0  0  0  0  0  0  0
   -0.0760    5.5753    9.1000 C   0  0  0  0  0  0  0  0  0  0  0  0
    0.6479    4.4324    9.4247 C   0  0  0  0  0  0  0  0  0  0  0  0
    0.3710    3.3121    8.6684 C   0  0  0  0  0  0  0  0  0  0  0  0
   -0.5613    3.3021    7.6489 C   0  0  0  0  0  0  0  0  0  0  0  0
   -1.2276    4.4494    7.3889 N   0  0  0  0  0  0  0  0  0  0  0  0
   -0.8717    1.8305    6.7124 Cl  0  0  0  0  0  0  0  0  0  0  0  0
    1.6284    4.4536   10.5005 C   0  0  0  0  0  0  0  0  0  0  0  0
    2.6630    3.5451   10.5132 C   0  0  0  0  0  0  0  0  0  0  0  0
    3.5719    3.5677   11.5134 N   0  0  0  0  0  0  0  0  0  0  0  0
    3.4600    4.4805   12.4936 C   0  0  0  0  0  0  0  0  0  0  0  0
    2.4446    5.3711   12.4799 N   0  0  0  0  0  0  0  0  0  0  0  0
    1.5586    5.3471   11.5025 N   0  0  0  0  0  0  0  0  0  0  0  0
    4.3675    4.5699   13.5728 N   0  0  0  0  0  0  0  0  0  0  0  0
    2.7148    2.5884    9.4137 C   0  0  0  0  0  0  0  0  0  0  0  0
    2.5388    2.9943    8.1040 C   0  0  0  0  0  0  0  0  0  0  0  0
    2.5899    2.0790    7.0806 C   0  0  0  0  0  0  0  0  0  0  0  0
    2.8159    0.7332    7.3120 C   0  0  0  0  0  0  0  0  0  0  0  0
    2.9916    0.3159    8.5993 C   0  0  0  0  0  0  0  0  0  0  0  0
    2.9389    1.2436    9.6247 C   0  0  0  0  0  0  0  0  0  0  0  0
    2.8632   -0.1649    6.2763 F   0  0  0  0  0  0  0  0  0  0  0  0
  1  2  1  0
  2  3  2  0
  3  4  1  0
  4  5  2  0
  5  6  1  0
  6  7  2  0
  6  8  1  0
  4  9  1  0
  9 10  1  0
 10 11  2  0
 11 12  1  0
 12 13  2  0
 13 14  1  0
 12 15  1  0
 10 16  1  0
 16 17  2  0
 17 18  1  0
 18 19  2  0
 19 20  1  0
 20 21  2  0
 19 22  1  0
  7  2  1  0
 14  9  2  0
 21 16  1  0
M  END
$$$$
