
     RDKit          3D

 22 24  0  0  0  0  0  0  0  0999 V2000
    1.4047    4.5040    5.1277 C   0  0  0  0  0  0  0  0  0  0  0  0
    0.8788    4.6951    6.5074 C   0  0  0  0  0  0  0  0  0  0  0  0
    1.6429    4.4413    7.6266 C   0  0  0  0  0  0  0  0  0  0  0  0
    1.1408    4.6236    8.9112 C   0  0  0  0  0  0  0  0  0  0  0  0
   -0.1620    5.0713    8.9880 C   0  0  0  0  0  0  0  0  0  0  0  0
   -0.9376    5.3290    7.8741 C   0  0  0  0  0  0  0  0  0  0  0  0
   -0.3839    5.1296    6.6570 N   0  0  0  0  0  0  0  0  0  0  0  0
   -2.6061    5.9022    8.0383 Cl  0  0  0  0  0  0  0  0  0  0  0  0
    1.9663    4.3488   10.0784 C   0  0  0  0  0  0  0  0  0  0  0  0
    2.7219    3.1992   10.1376 C   0  0  0  0  0  0  0  0  0  0  0  0
    3.4874    2.9472   11.2227 N   0  0  0  0  0  0  0  0  0  0  0  0
    3.5066    3.8236   12.2415 C   0  0  0  0  0  0  0  0  0  0  0  0
    2.7649    4.9508   12.1821 N   0  0  0  0  0  0  0  0  0  0  0  0
    2.0184    5.1947   11.1218 N   0  0  0  0  0  0  0  0  0  0  0  0
    4.2794    3.6336   13.4090 N   0  0  0  0  0  0  0  0  0  0  0  0
    2.6471    2.3004    8.9916 C   0  0  0  0  0  0  0  0  0  0  0  0
    1.4598    2.1078    8.3103 C   0  0  0  0  0  0  0  0  0  0  0  0
    1.4074    1.2565    7.2333 C   0  0  0  0  0  0  0  0  0  0  0  0
    2.5222    0.5659    6.7905 C   0  0  0  0  0  0  0  0  0  0  0  0
    3.7023    0.7447    7.4519 C   0  0  0  0  0  0  0  0  0  0  0  0
    3.7472    1.6038    8.5358 C   0  0  0  0  0  0  0  0  0  0  0  0
    2.4492   -0.2798    5.7129 F   0  0  0  0  0  0  0  0  0  0  0  0
  1  2  1  0
  2  3  2  0
  3  4  1  0
  4  5  2  0
  5  6  1  0
  6  7  2  0
  6  8  1  0
  4  9  1  0
  9 10  1  0
 10 11  2  0
 11 12  1  0
 12 13  2  0
 13 14  1  0
 12 15  1  0
 10 16  1  0
 16 17  2  0
 17 18  1  0
 18 19  2  0
 19 20  1  0
 20 21  2  0
 19 22  1  0
  7  2  1  0
 14  9  2  0
 21 16  1  0
M  END
$$$$
