
     RDKit          3D

 22 24  0  0  0  0  0  0  0  0999 V2000
   -2.4162    6.3283    8.4305 C   0  0  0  0  0  0  0  0  0  0  0  0
   -1.1280    5.6171    8.2036 C   0  0  0  0  0  0  0  0  0  0  0  0
   -0.2328    5.3753    9.2238 C   0  0  0  0  0  0  0  0  0  0  0  0
    0.9682    4.7094    9.0000 C   0  0  0  0  0  0  0  0  0  0  0  0
    1.2000    4.3116    7.6993 C   0  0  0  0  0  0  0  0  0  0  0  0
    0.3109    4.5482    6.6687 C   0  0  0  0  0  0  0  0  0  0  0  0
   -0.8368    5.2008    6.9597 N   0  0  0  0  0  0  0  0  0  0  0  0
    0.6664    4.0124    5.0177 Cl  0  0  0  0  0  0  0  0  0  0  0  0
    1.8984    4.4656   10.0929 C   0  0  0  0  0  0  0  0  0  0  0  0
    2.7474    3.3823   10.0517 C   0  0  0  0  0  0  0  0  0  0  0  0
    3.6101    3.1590   11.0679 N   0  0  0  0  0  0  0  0  0  0  0  0
    3.6342    3.9989   12.1170 C   0  0  0  0  0  0  0  0  0  0  0  0
    2.8009    5.0611   12.1561 N   0  0  0  0  0  0  0  0  0  0  0  0
    1.9596    5.2771   11.1629 N   0  0  0  0  0  0  0  0  0  0  0  0
    4.5052    3.8352   13.2174 N   0  0  0  0  0  0  0  0  0  0  0  0
    2.6604    2.5198    8.8790 C   0  0  0  0  0  0  0  0  0  0  0  0
    2.6265    1.1435    9.0047 C   0  0  0  0  0  0  0  0  0  0  0  0
    2.5452    0.3462    7.8888 C   0  0  0  0  0  0  0  0  0  0  0  0
    2.4948    0.8767    6.6114 C   0  0  0  0  0  0  0  0  0  0  0  0
    2.5274    2.2335    6.4697 C   0  0  0  0  0  0  0  0  0  0  0  0
    2.6091    3.0301    7.5983 C   0  0  0  0  0  0  0  0  0  0  0  0
    2.4139    0.0634    5.5098 F   0  0  0  0  0  0  0  0  0  0  0  0
  1  2  1  0
  2  3  2  0
  3  4  1  0
  4  5  2  0
  5  6  1  0
  6  7  2  0
  6  8  1  0
  4  9  1  0
  9 10  1  0
 10 11  2  0
 11 12  1  0
 12 13  2  0
 13 14  1  0
 12 15  1  0
 10 16  1  0
 16 17  2  0
 17 18  1  0
 18 19  2  0
 19 20  1  0
 20 21  2  0
 19 22  1  0
  7  2  1  0
 14  9  2  0
 21 16  1  0
M  END
$$$$
