
     RDKit          3D

 22 24  0  0  0  0  0  0  0  0999 V2000
   -3.0019    5.3463    8.3462 C   0  0  0  0  0  0  0  0  0  0  0  0
   -1.5464    5.1227    8.1269 C   0  0  0  0  0  0  0  0  0  0  0  0
   -0.6635    4.9531    9.1721 C   0  0  0  0  0  0  0  0  0  0  0  0
    0.6949    4.7447    8.9551 C   0  0  0  0  0  0  0  0  0  0  0  0
    1.0944    4.7199    7.6347 C   0  0  0  0  0  0  0  0  0  0  0  0
    0.2195    4.8887    6.5789 C   0  0  0  0  0  0  0  0  0  0  0  0
   -1.0870    5.0868    6.8647 N   0  0  0  0  0  0  0  0  0  0  0  0
    0.7943    4.8471    4.9035 Cl  0  0  0  0  0  0  0  0  0  0  0  0
    1.6086    4.5685   10.0746 C   0  0  0  0  0  0  0  0  0  0  0  0
    2.3790    3.4311   10.1679 C   0  0  0  0  0  0  0  0  0  0  0  0
    3.2266    3.2707   11.2085 N   0  0  0  0  0  0  0  0  0  0  0  0
    3.3126    4.2262   12.1499 C   0  0  0  0  0  0  0  0  0  0  0  0
    2.5563    5.3414   12.0571 N   0  0  0  0  0  0  0  0  0  0  0  0
    1.7297    5.4957   11.0404 N   0  0  0  0  0  0  0  0  0  0  0  0
    4.1728    4.1343   13.2669 N   0  0  0  0  0  0  0  0  0  0  0  0
    2.2282    2.4428    9.1061 C   0  0  0  0  0  0  0  0  0  0  0  0
    0.9799    2.0971    8.6232 C   0  0  0  0  0  0  0  0  0  0  0  0
    0.8565    1.1632    7.6231 C   0  0  0  0  0  0  0  0  0  0  0  0
    1.9579    0.5381    7.0645 C   0  0  0  0  0  0  0  0  0  0  0  0
    3.1975    0.8679    7.5299 C   0  0  0  0  0  0  0  0  0  0  0  0
    3.3138    1.8094    8.5373 C   0  0  0  0  0  0  0  0  0  0  0  0
    1.8135   -0.3919    6.0666 F   0  0  0  0  0  0  0  0  0  0  0  0
  1  2  1  0
  2  3  2  0
  3  4  1  0
  4  5  2  0
  5  6  1  0
  6  7  2  0
  6  8  1  0
  4  9  1  0
  9 10  1  0
 10 11  2  0
 11 12  1  0
 12 13  2  0
 13 14  1  0
 12 15  1  0
 10 16  1  0
 16 17  2  0
 17 18  1  0
 18 19  2  0
 19 20  1  0
 20 21  2  0
 19 22  1  0
  7  2  1  0
 14  9  2  0
 21 16  1  0
M  END
$$$$
