
     RDKit          3D

 22 24  0  0  0  0  0  0  0  0999 V2000
   -2.6408    5.7383    8.2135 C   0  0  0  0  0  0  0  0  0  0  0  0
   -1.2124    5.3799    7.9945 C   0  0  0  0  0  0  0  0  0  0  0  0
   -0.3469    5.1388    9.0402 C   0  0  0  0  0  0  0  0  0  0  0  0
    0.9862    4.8045    8.8234 C   0  0  0  0  0  0  0  0  0  0  0  0
    1.3791    4.7316    7.5028 C   0  0  0  0  0  0  0  0  0  0  0  0
    0.5213    4.9710    6.4466 C   0  0  0  0  0  0  0  0  0  0  0  0
   -0.7608    5.2909    6.7321 N   0  0  0  0  0  0  0  0  0  0  0  0
    1.0867    4.8623    4.7710 Cl  0  0  0  0  0  0  0  0  0  0  0  0
    1.8819    4.5545    9.9434 C   0  0  0  0  0  0  0  0  0  0  0  0
    2.6716    3.4267    9.9609 C   0  0  0  0  0  0  0  0  0  0  0  0
    3.5025    3.1978   11.0022 N   0  0  0  0  0  0  0  0  0  0  0  0
    3.5531    4.0760   12.0185 C   0  0  0  0  0  0  0  0  0  0  0  0
    2.7780    5.1819   12.0000 N   0  0  0  0  0  0  0  0  0  0  0  0
    1.9677    5.4031   10.9824 N   0  0  0  0  0  0  0  0  0  0  0  0
    4.3939    3.9094   13.1416 N   0  0  0  0  0  0  0  0  0  0  0  0
    2.5591    2.5244    8.8207 C   0  0  0  0  0  0  0  0  0  0  0  0
    3.6661    1.8671    8.3172 C   0  0  0  0  0  0  0  0  0  0  0  0
    3.5418    1.0214    7.2416 C   0  0  0  0  0  0  0  0  0  0  0  0
    2.3235    0.7942    6.6253 C   0  0  0  0  0  0  0  0  0  0  0  0
    1.2207    1.4354    7.1099 C   0  0  0  0  0  0  0  0  0  0  0  0
    1.3538    2.2856    8.1935 C   0  0  0  0  0  0  0  0  0  0  0  0
    2.2202   -0.0541    5.5523 F   0  0  0  0  0  0  0  0  0  0  0  0
  1  2  1  0
  2  3  2  0
  3  4  1  0
  4  5  2  0
  5  6  1  0
  6  7  2  0
  6  8  1  0
  4  9  1  0
  9 10  1  0
 10 11  2  0
 11 12  1  0
 12 13  2  0
 13 14  1  0
 12 15  1  0
 10 16  1  0
 16 17  2  0
 17 18  1  0
 18 19  2  0
 19 20  1  0
 20 21  2  0
 19 22  1  0
  7  2  1  0
 14  9  2  0
 21 16  1  0
M  END
$$$$
