
     RDKit          3D

 22 24  0  0  0  0  0  0  0  0999 V2000
   -2.5735    5.4593    8.1158 C   0  0  0  0  0  0  0  0  0  0  0  0
   -1.1482    5.0547    7.9690 C   0  0  0  0  0  0  0  0  0  0  0  0
   -0.3413    4.7988    9.0572 C   0  0  0  0  0  0  0  0  0  0  0  0
    0.9894    4.4213    8.9079 C   0  0  0  0  0  0  0  0  0  0  0  0
    1.4423    4.3217    7.6084 C   0  0  0  0  0  0  0  0  0  0  0  0
    0.6438    4.5756    6.5100 C   0  0  0  0  0  0  0  0  0  0  0  0
   -0.6399    4.9379    6.7306 N   0  0  0  0  0  0  0  0  0  0  0  0
    1.2846    4.4308    4.8645 Cl  0  0  0  0  0  0  0  0  0  0  0  0
    1.8226    4.1565   10.0719 C   0  0  0  0  0  0  0  0  0  0  0  0
    2.5431    2.9862   10.1566 C   0  0  0  0  0  0  0  0  0  0  0  0
    3.3160    2.7435   11.2386 N   0  0  0  0  0  0  0  0  0  0  0  0
    3.3768    3.6497   12.2295 C   0  0  0  0  0  0  0  0  0  0  0  0
    2.6696    4.7972   12.1451 N   0  0  0  0  0  0  0  0  0  0  0  0
    1.9158    5.0318   11.0878 N   0  0  0  0  0  0  0  0  0  0  0  0
    4.1600    3.4713   13.3919 N   0  0  0  0  0  0  0  0  0  0  0  0
    2.4242    2.0556    9.0401 C   0  0  0  0  0  0  0  0  0  0  0  0
    3.5123    1.3264    8.5981 C   0  0  0  0  0  0  0  0  0  0  0  0
    3.3822    0.4548    7.5440 C   0  0  0  0  0  0  0  0  0  0  0  0
    2.1765    0.2717    6.8894 C   0  0  0  0  0  0  0  0  0  0  0  0
    1.0925    0.9840    7.3131 C   0  0  0  0  0  0  0  0  0  0  0  0
    1.2313    1.8598    8.3754 C   0  0  0  0  0  0  0  0  0  0  0  0
    2.0673   -0.6034    5.8387 F   0  0  0  0  0  0  0  0  0  0  0  0
  1  2  1  0
  2  3  2  0
  3  4  1  0
  4  5  2  0
  5  6  1  0
  6  7  2  0
  6  8  1  0
  4  9  1  0
  9 10  1  0
 10 11  2  0
 11 12  1  0
 12 13  2  0
 13 14  1  0
 12 15  1  0
 10 16  1  0
 16 17  2  0
 17 18  1  0
 18 19  2  0
 19 20  1  0
 20 21  2  0
 19 22  1  0
  7  2  1  0
 14  9  2  0
 21 16  1  0
M  END
$$$$
