
     RDKit          3D

 22 24  0  0  0  0  0  0  0  0999 V2000
    0.9660    4.4811    5.2054 C   0  0  0  0  0  0  0  0  0  0  0  0
    0.4957    4.6485    6.6081 C   0  0  0  0  0  0  0  0  0  0  0  0
    1.3052    4.3802    7.6914 C   0  0  0  0  0  0  0  0  0  0  0  0
    0.8548    4.5405    8.9980 C   0  0  0  0  0  0  0  0  0  0  0  0
   -0.4453    4.9820    9.1343 C   0  0  0  0  0  0  0  0  0  0  0  0
   -1.2661    5.2540    8.0568 C   0  0  0  0  0  0  0  0  0  0  0  0
   -0.7613    5.0758    6.8153 N   0  0  0  0  0  0  0  0  0  0  0  0
   -2.9284    5.8182    8.2972 Cl  0  0  0  0  0  0  0  0  0  0  0  0
    1.7276    4.2506   10.1265 C   0  0  0  0  0  0  0  0  0  0  0  0
    2.4831    3.0995   10.1404 C   0  0  0  0  0  0  0  0  0  0  0  0
    3.2926    2.8335   11.1896 N   0  0  0  0  0  0  0  0  0  0  0  0
    3.3558    3.6977   12.2171 C   0  0  0  0  0  0  0  0  0  0  0  0
    2.6142    4.8264   12.2021 N   0  0  0  0  0  0  0  0  0  0  0  0
    1.8246    5.0839   11.1768 N   0  0  0  0  0  0  0  0  0  0  0  0
    4.1760    3.4927   13.3491 N   0  0  0  0  0  0  0  0  0  0  0  0
    2.3591    2.2146    8.9879 C   0  0  0  0  0  0  0  0  0  0  0  0
    3.4626    1.5732    8.4569 C   0  0  0  0  0  0  0  0  0  0  0  0
    3.3274    0.7437    7.3701 C   0  0  0  0  0  0  0  0  0  0  0  0
    2.1012    0.5177    6.7691 C   0  0  0  0  0  0  0  0  0  0  0  0
    1.0017    1.1432    7.2808 C   0  0  0  0  0  0  0  0  0  0  0  0
    1.1458    1.9772    8.3757 C   0  0  0  0  0  0  0  0  0  0  0  0
    1.9872   -0.3143    5.6845 F   0  0  0  0  0  0  0  0  0  0  0  0
  1  2  1  0
  2  3  2  0
  3  4  1  0
  4  5  2  0
  5  6  1  0
  6  7  2  0
  6  8  1  0
  4  9  1  0
  9 10  1  0
 10 11  2  0
 11 12  1  0
 12 13  2  0
 13 14  1  0
 12 15  1  0
 10 16  1  0
 16 17  2  0
 17 18  1  0
 18 19  2  0
 19 20  1  0
 20 21  2  0
 19 22  1  0
  7  2  1  0
 14  9  2  0
 21 16  1  0
M  END
$$$$
