
     RDKit          3D

 22 24  0  0  0  0  0  0  0  0999 V2000
   -2.7444    5.3910    8.1791 C   0  0  0  0  0  0  0  0  0  0  0  0
   -1.3007    5.0633    8.0202 C   0  0  0  0  0  0  0  0  0  0  0  0
   -0.4705    4.8586    9.1016 C   0  0  0  0  0  0  0  0  0  0  0  0
    0.8773    4.5528    8.9409 C   0  0  0  0  0  0  0  0  0  0  0  0
    1.3220    4.4695    7.6375 C   0  0  0  0  0  0  0  0  0  0  0  0
    0.5000    4.6725    6.5458 C   0  0  0  0  0  0  0  0  0  0  0  0
   -0.7992    4.9661    6.7774 N   0  0  0  0  0  0  0  0  0  0  0  0
    1.1314    4.5520    4.8948 Cl  0  0  0  0  0  0  0  0  0  0  0  0
    1.7351    4.3412   10.0979 C   0  0  0  0  0  0  0  0  0  0  0  0
    2.5189    3.2123   10.1822 C   0  0  0  0  0  0  0  0  0  0  0  0
    3.3145    3.0189   11.2576 N   0  0  0  0  0  0  0  0  0  0  0  0
    3.3358    3.9335   12.2424 C   0  0  0  0  0  0  0  0  0  0  0  0
    2.5665    5.0404   12.1584 N   0  0  0  0  0  0  0  0  0  0  0  0
    1.7906    5.2269   11.1076 N   0  0  0  0  0  0  0  0  0  0  0  0
    4.1390    3.8054   13.3977 N   0  0  0  0  0  0  0  0  0  0  0  0
    2.4396    2.2693    9.0724 C   0  0  0  0  0  0  0  0  0  0  0  0
    1.2567    2.0723    8.3848 C   0  0  0  0  0  0  0  0  0  0  0  0
    1.2000    1.1792    7.3424 C   0  0  0  0  0  0  0  0  0  0  0  0
    2.3059    0.4497    6.9417 C   0  0  0  0  0  0  0  0  0  0  0  0
    3.4816    0.6322    7.6101 C   0  0  0  0  0  0  0  0  0  0  0  0
    3.5309    1.5336    8.6589 C   0  0  0  0  0  0  0  0  0  0  0  0
    2.2287   -0.4374    5.8983 F   0  0  0  0  0  0  0  0  0  0  0  0
  1  2  1  0
  2  3  2  0
  3  4  1  0
  4  5  2  0
  5  6  1  0
  6  7  2  0
  6  8  1  0
  4  9  1  0
  9 10  1  0
 10 11  2  0
 11 12  1  0
 12 13  2  0
 13 14  1  0
 12 15  1  0
 10 16  1  0
 16 17  2  0
 17 18  1  0
 18 19  2  0
 19 20  1  0
 20 21  2  0
 19 22  1  0
  7  2  1  0
 14  9  2  0
 21 16  1  0
M  END
$$$$
