
     RDKit          3D

 22 24  0  0  0  0  0  0  0  0999 V2000
   -0.1827    5.7951    5.1741 C   0  0  0  0  0  0  0  0  0  0  0  0
   -0.0430    4.8343    6.3029 C   0  0  0  0  0  0  0  0  0  0  0  0
    0.6319    5.1552    7.4615 C   0  0  0  0  0  0  0  0  0  0  0  0
    0.7560    4.2491    8.5100 C   0  0  0  0  0  0  0  0  0  0  0  0
    0.1634    3.0188    8.3127 C   0  0  0  0  0  0  0  0  0  0  0  0
   -0.5153    2.6855    7.1565 C   0  0  0  0  0  0  0  0  0  0  0  0
   -0.5963    3.6161    6.1791 N   0  0  0  0  0  0  0  0  0  0  0  0
   -1.2552    1.0873    6.9628 Cl  0  0  0  0  0  0  0  0  0  0  0  0
    1.4737    4.6101    9.7240 C   0  0  0  0  0  0  0  0  0  0  0  0
    2.5006    3.8164   10.1840 C   0  0  0  0  0  0  0  0  0  0  0  0
    3.1650    4.1546   11.3114 N   0  0  0  0  0  0  0  0  0  0  0  0
    2.8181    5.2681   11.9795 C   0  0  0  0  0  0  0  0  0  0  0  0
    1.8107    6.0457   11.5271 N   0  0  0  0  0  0  0  0  0  0  0  0
    1.1635    5.7135   10.4263 N   0  0  0  0  0  0  0  0  0  0  0  0
    3.4623    5.6901   13.1640 N   0  0  0  0  0  0  0  0  0  0  0  0
    2.8163    2.6266    9.4019 C   0  0  0  0  0  0  0  0  0  0  0  0
    3.2103    1.4519   10.0150 C   0  0  0  0  0  0  0  0  0  0  0  0
    3.5048    0.3408    9.2624 C   0  0  0  0  0  0  0  0  0  0  0  0
    3.4215    0.3487    7.8808 C   0  0  0  0  0  0  0  0  0  0  0  0
    3.0342    1.5004    7.2599 C   0  0  0  0  0  0  0  0  0  0  0  0
    2.7391    2.6153    8.0246 C   0  0  0  0  0  0  0  0  0  0  0  0
    3.7199   -0.7714    7.1473 F   0  0  0  0  0  0  0  0  0  0  0  0
  1  2  1  0
  2  3  2  0
  3  4  1  0
  4  5  2  0
  5  6  1  0
  6  7  2  0
  6  8  1  0
  4  9  1  0
  9 10  1  0
 10 11  2  0
 11 12  1  0
 12 13  2  0
 13 14  1  0
 12 15  1  0
 10 16  1  0
 16 17  2  0
 17 18  1  0
 18 19  2  0
 19 20  1  0
 20 21  2  0
 19 22  1  0
  7  2  1  0
 14  9  2  0
 21 16  1  0
M  END
$$$$
