
     RDKit          3D

 22 24  0  0  0  0  0  0  0  0999 V2000
   -0.8699    5.9139    6.0377 C   0  0  0  0  0  0  0  0  0  0  0  0
   -0.5400    4.8167    6.9885 C   0  0  0  0  0  0  0  0  0  0  0  0
    0.2942    5.0073    8.0695 C   0  0  0  0  0  0  0  0  0  0  0  0
    0.5953    3.9745    8.9516 C   0  0  0  0  0  0  0  0  0  0  0  0
    0.0076    2.7576    8.6732 C   0  0  0  0  0  0  0  0  0  0  0  0
   -0.8297    2.5541    7.5933 C   0  0  0  0  0  0  0  0  0  0  0  0
   -1.0780    3.6035    6.7779 N   0  0  0  0  0  0  0  0  0  0  0  0
   -1.5540    0.9661    7.2884 Cl  0  0  0  0  0  0  0  0  0  0  0  0
    1.4792    4.1992   10.0863 C   0  0  0  0  0  0  0  0  0  0  0  0
    2.5332    3.3456   10.3234 C   0  0  0  0  0  0  0  0  0  0  0  0
    3.3522    3.5573   11.3776 N   0  0  0  0  0  0  0  0  0  0  0  0
    3.1321    4.6040   12.1915 C   0  0  0  0  0  0  0  0  0  0  0  0
    2.0978    5.4406   11.9577 N   0  0  0  0  0  0  0  0  0  0  0  0
    1.2996    5.2319   10.9279 N   0  0  0  0  0  0  0  0  0  0  0  0
    3.9412    4.8937   13.3129 N   0  0  0  0  0  0  0  0  0  0  0  0
    2.7050    2.2349    9.3940 C   0  0  0  0  0  0  0  0  0  0  0  0
    3.6763    1.2732    9.6009 C   0  0  0  0  0  0  0  0  0  0  0  0
    3.8246    0.2342    8.7143 C   0  0  0  0  0  0  0  0  0  0  0  0
    3.0217    0.1067    7.5941 C   0  0  0  0  0  0  0  0  0  0  0  0
    2.0579    1.0477    7.3751 C   0  0  0  0  0  0  0  0  0  0  0  0
    1.9146    2.0912    8.2724 C   0  0  0  0  0  0  0  0  0  0  0  0
    3.1857   -0.9383    6.7208 F   0  0  0  0  0  0  0  0  0  0  0  0
  1  2  1  0
  2  3  2  0
  3  4  1  0
  4  5  2  0
  5  6  1  0
  6  7  2  0
  6  8  1  0
  4  9  1  0
  9 10  1  0
 10 11  2  0
 11 12  1  0
 12 13  2  0
 13 14  1  0
 12 15  1  0
 10 16  1  0
 16 17  2  0
 17 18  1  0
 18 19  2  0
 19 20  1  0
 20 21  2  0
 19 22  1  0
  7  2  1  0
 14  9  2  0
 21 16  1  0
M  END
$$$$
