
     RDKit          3D

 22 24  0  0  0  0  0  0  0  0999 V2000
    4.6922    1.6777    8.9029 C   0  0  0  0  0  0  0  0  0  0  0  0
    3.9833    2.5740    9.8572 C   0  0  0  0  0  0  0  0  0  0  0  0
    2.8198    3.2326    9.5205 C   0  0  0  0  0  0  0  0  0  0  0  0
    2.1658    4.0678   10.4208 C   0  0  0  0  0  0  0  0  0  0  0  0
    2.7559    4.1911   11.6619 C   0  0  0  0  0  0  0  0  0  0  0  0
    3.9214    3.5366   12.0110 C   0  0  0  0  0  0  0  0  0  0  0  0
    4.5023    2.7407   11.0854 N   0  0  0  0  0  0  0  0  0  0  0  0
    4.6310    3.7363   13.6222 Cl  0  0  0  0  0  0  0  0  0  0  0  0
    0.9384    4.7532   10.0427 C   0  0  0  0  0  0  0  0  0  0  0  0
    0.1977    4.3076    8.9709 C   0  0  0  0  0  0  0  0  0  0  0  0
   -0.9416    4.9462    8.6227 N   0  0  0  0  0  0  0  0  0  0  0  0
   -1.3464    6.0166    9.3277 C   0  0  0  0  0  0  0  0  0  0  0  0
   -0.6189    6.4525   10.3789 N   0  0  0  0  0  0  0  0  0  0  0  0
    0.4929    5.8276   10.7168 N   0  0  0  0  0  0  0  0  0  0  0  0
   -2.5238    6.7379    9.0284 N   0  0  0  0  0  0  0  0  0  0  0  0
    0.7038    3.1399    8.2588 C   0  0  0  0  0  0  0  0  0  0  0  0
    0.7072    3.0910    6.8773 C   0  0  0  0  0  0  0  0  0  0  0  0
    1.1869    1.9822    6.2229 C   0  0  0  0  0  0  0  0  0  0  0  0
    1.6793    0.8840    6.9066 C   0  0  0  0  0  0  0  0  0  0  0  0
    1.6829    0.9160    8.2708 C   0  0  0  0  0  0  0  0  0  0  0  0
    1.1982    2.0363    8.9227 C   0  0  0  0  0  0  0  0  0  0  0  0
    2.1538   -0.2137    6.2346 F   0  0  0  0  0  0  0  0  0  0  0  0
  1  2  1  0
  2  3  2  0
  3  4  1  0
  4  5  2  0
  5  6  1  0
  6  7  2  0
  6  8  1  0
  4  9  1  0
  9 10  1  0
 10 11  2  0
 11 12  1  0
 12 13  2  0
 13 14  1  0
 12 15  1  0
 10 16  1  0
 16 17  2  0
 17 18  1  0
 18 19  2  0
 19 20  1  0
 20 21  2  0
 19 22  1  0
  7  2  1  0
 14  9  2  0
 21 16  1  0
M  END
$$$$
