
     RDKit          3D

 22 24  0  0  0  0  0  0  0  0999 V2000
   -2.7491    5.3475    8.2335 C   0  0  0  0  0  0  0  0  0  0  0  0
   -1.3067    5.0239    8.0555 C   0  0  0  0  0  0  0  0  0  0  0  0
   -0.4640    4.8115    9.1257 C   0  0  0  0  0  0  0  0  0  0  0  0
    0.8824    4.5096    8.9473 C   0  0  0  0  0  0  0  0  0  0  0  0
    1.3126    4.4383    7.6383 C   0  0  0  0  0  0  0  0  0  0  0  0
    0.4780    4.6492    6.5577 C   0  0  0  0  0  0  0  0  0  0  0  0
   -0.8190    4.9383    6.8064 N   0  0  0  0  0  0  0  0  0  0  0  0
    1.0911    4.5440    4.8987 Cl  0  0  0  0  0  0  0  0  0  0  0  0
    1.7535    4.2895   10.0927 C   0  0  0  0  0  0  0  0  0  0  0  0
    2.5548    3.1712   10.1492 C   0  0  0  0  0  0  0  0  0  0  0  0
    3.3627    2.9701   11.2140 N   0  0  0  0  0  0  0  0  0  0  0  0
    3.3792    3.8665   12.2154 C   0  0  0  0  0  0  0  0  0  0  0  0
    2.5927    4.9630   12.1586 N   0  0  0  0  0  0  0  0  0  0  0  0
    1.8049    5.1572   11.1182 N   0  0  0  0  0  0  0  0  0  0  0  0
    4.1944    3.7292   13.3612 N   0  0  0  0  0  0  0  0  0  0  0  0
    2.4798    2.2478    9.0229 C   0  0  0  0  0  0  0  0  0  0  0  0
    1.2804    1.9967    8.3830 C   0  0  0  0  0  0  0  0  0  0  0  0
    1.2280    1.1230    7.3240 C   0  0  0  0  0  0  0  0  0  0  0  0
    2.3546    0.4668    6.8592 C   0  0  0  0  0  0  0  0  0  0  0  0
    3.5467    0.7034    7.4799 C   0  0  0  0  0  0  0  0  0  0  0  0
    3.5915    1.5848    8.5458 C   0  0  0  0  0  0  0  0  0  0  0  0
    2.2814   -0.4020    5.8003 F   0  0  0  0  0  0  0  0  0  0  0  0
  1  2  1  0
  2  3  2  0
  3  4  1  0
  4  5  2  0
  5  6  1  0
  6  7  2  0
  6  8  1  0
  4  9  1  0
  9 10  1  0
 10 11  2  0
 11 12  1  0
 12 13  2  0
 13 14  1  0
 12 15  1  0
 10 16  1  0
 16 17  2  0
 17 18  1  0
 18 19  2  0
 19 20  1  0
 20 21  2  0
 19 22  1  0
  7  2  1  0
 14  9  2  0
 21 16  1  0
M  END
$$$$
