
     RDKit          3D

 22 24  0  0  0  0  0  0  0  0999 V2000
   -1.9365    6.6594    8.2393 C   0  0  0  0  0  0  0  0  0  0  0  0
   -1.2660    5.3984    8.6601 C   0  0  0  0  0  0  0  0  0  0  0  0
   -0.1778    5.3920    9.5065 C   0  0  0  0  0  0  0  0  0  0  0  0
    0.4407    4.2072    9.8930 C   0  0  0  0  0  0  0  0  0  0  0  0
   -0.1042    3.0498    9.3760 C   0  0  0  0  0  0  0  0  0  0  0  0
   -1.1941    3.0433    8.5271 C   0  0  0  0  0  0  0  0  0  0  0  0
   -1.7445    4.2324    8.1941 N   0  0  0  0  0  0  0  0  0  0  0  0
   -1.8479    1.5226    7.8953 Cl  0  0  0  0  0  0  0  0  0  0  0  0
    1.5890    4.2250   10.7877 C   0  0  0  0  0  0  0  0  0  0  0  0
    2.6384    3.3567   10.5857 C   0  0  0  0  0  0  0  0  0  0  0  0
    3.7031    3.3760   11.4181 N   0  0  0  0  0  0  0  0  0  0  0  0
    3.7315    4.2463   12.4420 C   0  0  0  0  0  0  0  0  0  0  0  0
    2.7015    5.0975   12.6389 N   0  0  0  0  0  0  0  0  0  0  0  0
    1.6631    5.0767   11.8251 N   0  0  0  0  0  0  0  0  0  0  0  0
    4.8063    4.3293   13.3553 N   0  0  0  0  0  0  0  0  0  0  0  0
    2.5319    2.4449    9.4525 C   0  0  0  0  0  0  0  0  0  0  0  0
    1.8852    2.8216    8.2902 C   0  0  0  0  0  0  0  0  0  0  0  0
    1.7936    1.9492    7.2327 C   0  0  0  0  0  0  0  0  0  0  0  0
    2.3354    0.6766    7.2838 C   0  0  0  0  0  0  0  0  0  0  0  0
    2.9770    0.2889    8.4240 C   0  0  0  0  0  0  0  0  0  0  0  0
    3.0653    1.1731    9.4848 C   0  0  0  0  0  0  0  0  0  0  0  0
    2.2331   -0.1796    6.2170 F   0  0  0  0  0  0  0  0  0  0  0  0
  1  2  1  0
  2  3  2  0
  3  4  1  0
  4  5  2  0
  5  6  1  0
  6  7  2  0
  6  8  1  0
  4  9  1  0
  9 10  1  0
 10 11  2  0
 11 12  1  0
 12 13  2  0
 13 14  1  0
 12 15  1  0
 10 16  1  0
 16 17  2  0
 17 18  1  0
 18 19  2  0
 19 20  1  0
 20 21  2  0
 19 22  1  0
  7  2  1  0
 14  9  2  0
 21 16  1  0
M  END
$$$$
