
     RDKit          3D

 22 24  0  0  0  0  0  0  0  0999 V2000
    1.0429    4.5023    4.9236 C   0  0  0  0  0  0  0  0  0  0  0  0
    0.5793    4.6590    6.3297 C   0  0  0  0  0  0  0  0  0  0  0  0
    1.4278    4.5011    7.4049 C   0  0  0  0  0  0  0  0  0  0  0  0
    0.9833    4.6502    8.7148 C   0  0  0  0  0  0  0  0  0  0  0  0
   -0.3521    4.9636    8.8630 C   0  0  0  0  0  0  0  0  0  0  0  0
   -1.2121    5.1243    7.7938 C   0  0  0  0  0  0  0  0  0  0  0  0
   -0.7108    4.9646    6.5484 N   0  0  0  0  0  0  0  0  0  0  0  0
   -2.9186    5.5266    8.0493 Cl  0  0  0  0  0  0  0  0  0  0  0  0
    1.8976    4.4783    9.8346 C   0  0  0  0  0  0  0  0  0  0  0  0
    2.7056    3.3656    9.9050 C   0  0  0  0  0  0  0  0  0  0  0  0
    3.5536    3.2092   10.9459 N   0  0  0  0  0  0  0  0  0  0  0  0
    3.6032    4.1445   11.9099 C   0  0  0  0  0  0  0  0  0  0  0  0
    2.8100    5.2354   11.8395 N   0  0  0  0  0  0  0  0  0  0  0  0
    1.9831    5.3859   10.8225 N   0  0  0  0  0  0  0  0  0  0  0  0
    4.4612    4.0551   13.0289 N   0  0  0  0  0  0  0  0  0  0  0  0
    2.5929    2.3983    8.8194 C   0  0  0  0  0  0  0  0  0  0  0  0
    3.6931    1.6867    8.3788 C   0  0  0  0  0  0  0  0  0  0  0  0
    3.5687    0.7800    7.3541 C   0  0  0  0  0  0  0  0  0  0  0  0
    2.3570    0.5432    6.7284 C   0  0  0  0  0  0  0  0  0  0  0  0
    1.2609    1.2375    7.1513 C   0  0  0  0  0  0  0  0  0  0  0  0
    1.3941    2.1489    8.1839 C   0  0  0  0  0  0  0  0  0  0  0  0
    2.2536   -0.3664    5.7069 F   0  0  0  0  0  0  0  0  0  0  0  0
  1  2  1  0
  2  3  2  0
  3  4  1  0
  4  5  2  0
  5  6  1  0
  6  7  2  0
  6  8  1  0
  4  9  1  0
  9 10  1  0
 10 11  2  0
 11 12  1  0
 12 13  2  0
 13 14  1  0
 12 15  1  0
 10 16  1  0
 16 17  2  0
 17 18  1  0
 18 19  2  0
 19 20  1  0
 20 21  2  0
 19 22  1  0
  7  2  1  0
 14  9  2  0
 21 16  1  0
M  END
$$$$
