
     RDKit          3D

 22 24  0  0  0  0  0  0  0  0999 V2000
   -0.1214    5.8128    5.0003 C   0  0  0  0  0  0  0  0  0  0  0  0
    0.0467    4.7498    6.0292 C   0  0  0  0  0  0  0  0  0  0  0  0
    0.5798    5.0096    7.2737 C   0  0  0  0  0  0  0  0  0  0  0  0
    0.7320    4.0081    8.2274 C   0  0  0  0  0  0  0  0  0  0  0  0
    0.3170    2.7487    7.8460 C   0  0  0  0  0  0  0  0  0  0  0  0
   -0.2186    2.4759    6.6020 C   0  0  0  0  0  0  0  0  0  0  0  0
   -0.3369    3.4983    5.7254 N   0  0  0  0  0  0  0  0  0  0  0  0
   -0.7330    0.8360    6.1712 Cl  0  0  0  0  0  0  0  0  0  0  0  0
    1.2980    4.3060    9.5351 C   0  0  0  0  0  0  0  0  0  0  0  0
    2.2926    3.5099   10.0575 C   0  0  0  0  0  0  0  0  0  0  0  0
    2.8161    3.7895   11.2719 N   0  0  0  0  0  0  0  0  0  0  0  0
    2.3609    4.8472   11.9651 C   0  0  0  0  0  0  0  0  0  0  0  0
    1.3853    5.6273   11.4515 N   0  0  0  0  0  0  0  0  0  0  0  0
    0.8758    5.3524   10.2658 N   0  0  0  0  0  0  0  0  0  0  0  0
    2.8552    5.2061   13.2391 N   0  0  0  0  0  0  0  0  0  0  0  0
    2.7320    2.3828    9.2429 C   0  0  0  0  0  0  0  0  0  0  0  0
    1.8652    1.7491    8.3723 C   0  0  0  0  0  0  0  0  0  0  0  0
    2.2961    0.6881    7.6132 C   0  0  0  0  0  0  0  0  0  0  0  0
    3.5949    0.2150    7.6857 C   0  0  0  0  0  0  0  0  0  0  0  0
    4.4633    0.8294    8.5403 C   0  0  0  0  0  0  0  0  0  0  0  0
    4.0220    1.8975    9.3015 C   0  0  0  0  0  0  0  0  0  0  0  0
    4.0056   -0.8459    6.9193 F   0  0  0  0  0  0  0  0  0  0  0  0
  1  2  1  0
  2  3  2  0
  3  4  1  0
  4  5  2  0
  5  6  1  0
  6  7  2  0
  6  8  1  0
  4  9  1  0
  9 10  1  0
 10 11  2  0
 11 12  1  0
 12 13  2  0
 13 14  1  0
 12 15  1  0
 10 16  1  0
 16 17  2  0
 17 18  1  0
 18 19  2  0
 19 20  1  0
 20 21  2  0
 19 22  1  0
  7  2  1  0
 14  9  2  0
 21 16  1  0
M  END
$$$$
