
     RDKit          3D

 22 24  0  0  0  0  0  0  0  0999 V2000
   -0.4114    1.5993    5.9911 C   0  0  0  0  0  0  0  0  0  0  0  0
   -0.1650    2.8950    6.6819 C   0  0  0  0  0  0  0  0  0  0  0  0
    0.5230    2.9728    7.8741 C   0  0  0  0  0  0  0  0  0  0  0  0
    0.7474    4.1894    8.5106 C   0  0  0  0  0  0  0  0  0  0  0  0
    0.2390    5.3024    7.8731 C   0  0  0  0  0  0  0  0  0  0  0  0
   -0.4520    5.2374    6.6786 C   0  0  0  0  0  0  0  0  0  0  0  0
   -0.6325    4.0209    6.1169 N   0  0  0  0  0  0  0  0  0  0  0  0
   -1.0815    6.7039    5.9090 Cl  0  0  0  0  0  0  0  0  0  0  0  0
    1.4763    4.2470    9.7694 C   0  0  0  0  0  0  0  0  0  0  0  0
    2.3626    3.2475   10.1034 C   0  0  0  0  0  0  0  0  0  0  0  0
    3.0380    3.3043   11.2728 N   0  0  0  0  0  0  0  0  0  0  0  0
    2.8397    4.3401   12.1061 C   0  0  0  0  0  0  0  0  0  0  0  0
    1.9701    5.3198   11.7771 N   0  0  0  0  0  0  0  0  0  0  0  0
    1.3119    5.2622   10.6350 N   0  0  0  0  0  0  0  0  0  0  0  0
    3.5057    4.4728   13.3450 N   0  0  0  0  0  0  0  0  0  0  0  0
    2.5220    2.1595    9.1454 C   0  0  0  0  0  0  0  0  0  0  0  0
    2.9609    2.4000    7.8568 C   0  0  0  0  0  0  0  0  0  0  0  0
    3.1044    1.3629    6.9672 C   0  0  0  0  0  0  0  0  0  0  0  0
    2.8205    0.0539    7.3162 C   0  0  0  0  0  0  0  0  0  0  0  0
    2.3861   -0.2008    8.5844 C   0  0  0  0  0  0  0  0  0  0  0  0
    2.2441    0.8490    9.4748 C   0  0  0  0  0  0  0  0  0  0  0  0
    2.9702   -0.9678    6.4131 F   0  0  0  0  0  0  0  0  0  0  0  0
  1  2  1  0
  2  3  2  0
  3  4  1  0
  4  5  2  0
  5  6  1  0
  6  7  2  0
  6  8  1  0
  4  9  1  0
  9 10  1  0
 10 11  2  0
 11 12  1  0
 12 13  2  0
 13 14  1  0
 12 15  1  0
 10 16  1  0
 16 17  2  0
 17 18  1  0
 18 19  2  0
 19 20  1  0
 20 21  2  0
 19 22  1  0
  7  2  1  0
 14  9  2  0
 21 16  1  0
M  END
$$$$
