
     RDKit          3D

 22 24  0  0  0  0  0  0  0  0999 V2000
   -2.7328    3.3524    8.0633 C   0  0  0  0  0  0  0  0  0  0  0  0
   -1.3715    3.9354    7.9093 C   0  0  0  0  0  0  0  0  0  0  0  0
   -0.4547    3.9428    8.9389 C   0  0  0  0  0  0  0  0  0  0  0  0
    0.8148    4.4904    8.7834 C   0  0  0  0  0  0  0  0  0  0  0  0
    1.0909    5.0209    7.5400 C   0  0  0  0  0  0  0  0  0  0  0  0
    0.1807    5.0195    6.5006 C   0  0  0  0  0  0  0  0  0  0  0  0
   -1.0343    4.4700    6.7236 N   0  0  0  0  0  0  0  0  0  0  0  0
    0.5952    5.7172    4.9256 Cl  0  0  0  0  0  0  0  0  0  0  0  0
    1.7663    4.4873    9.8852 C   0  0  0  0  0  0  0  0  0  0  0  0
    2.6148    3.4178   10.0650 C   0  0  0  0  0  0  0  0  0  0  0  0
    3.4972    3.4182   11.0888 N   0  0  0  0  0  0  0  0  0  0  0  0
    3.5416    4.4667   11.9286 C   0  0  0  0  0  0  0  0  0  0  0  0
    2.7087    5.5150   11.7510 N   0  0  0  0  0  0  0  0  0  0  0  0
    1.8481    5.5124   10.7508 N   0  0  0  0  0  0  0  0  0  0  0  0
    4.4339    4.5435   13.0213 N   0  0  0  0  0  0  0  0  0  0  0  0
    2.5051    2.3205    9.1106 C   0  0  0  0  0  0  0  0  0  0  0  0
    3.6311    1.7144    8.5856 C   0  0  0  0  0  0  0  0  0  0  0  0
    3.5090    0.6825    7.6868 C   0  0  0  0  0  0  0  0  0  0  0  0
    2.2742    0.2124    7.2744 C   0  0  0  0  0  0  0  0  0  0  0  0
    1.1525    0.7999    7.7830 C   0  0  0  0  0  0  0  0  0  0  0  0
    1.2835    1.8387    8.6879 C   0  0  0  0  0  0  0  0  0  0  0  0
    2.1735   -0.8191    6.3759 F   0  0  0  0  0  0  0  0  0  0  0  0
  1  2  1  0
  2  3  2  0
  3  4  1  0
  4  5  2  0
  5  6  1  0
  6  7  2  0
  6  8  1  0
  4  9  1  0
  9 10  1  0
 10 11  2  0
 11 12  1  0
 12 13  2  0
 13 14  1  0
 12 15  1  0
 10 16  1  0
 16 17  2  0
 17 18  1  0
 18 19  2  0
 19 20  1  0
 20 21  2  0
 19 22  1  0
  7  2  1  0
 14  9  2  0
 21 16  1  0
M  END
$$$$
