
     RDKit          3D

 33 35  0  0  0  0  0  0  0  0999 V2000
    7.9743    3.2929    4.8010 C   0  0  0  0  0  0  0  0  0  0  0  0
    6.7012    3.9705    5.2604 C   0  0  0  0  0  0  0  0  0  0  0  0
    6.3532    3.4133    6.5166 O   0  0  0  0  0  0  0  0  0  0  0  0
    5.2512    3.8140    7.2361 C   0  0  0  0  0  0  0  0  0  0  0  0
    4.7644    4.9378    6.9387 O   0  0  0  0  0  0  0  0  0  0  0  0
    4.7059    2.9654    8.2724 C   0  0  0  0  0  0  0  0  0  0  0  0
    3.4842    3.2475    8.8297 C   0  0  0  0  0  0  0  0  0  0  0  0
    2.9840    2.4552    9.7904 N   0  0  0  0  0  0  0  0  0  0  0  0
    3.6271    1.3505   10.2683 C   0  0  0  0  0  0  0  0  0  0  0  0
    4.8546    1.0209    9.7470 C   0  0  0  0  0  0  0  0  0  0  0  0
    5.3631    1.8549    8.7469 C   0  0  0  0  0  0  0  0  0  0  0  0
    5.6293   -0.1031   10.1945 C   0  0  0  0  0  0  0  0  0  0  0  0
    6.2391   -1.0234   10.5559 N   0  0  0  0  0  0  0  0  0  0  0  0
    2.9933    0.5523   11.2702 N   0  0  0  0  0  0  0  0  0  0  0  0
    1.6583    0.9478   11.6726 C   0  0  0  0  0  0  0  0  0  0  0  0
    1.4196    0.6990   13.1473 C   0  0  0  0  0  0  0  0  0  0  0  0
    1.7155   -0.7416   13.5084 C   0  0  0  0  0  0  0  0  0  0  0  0
    2.4032   -1.4695   12.4010 C   0  0  0  0  0  0  0  0  0  0  0  0
    3.5694   -0.6137   11.8754 C   0  0  0  0  0  0  0  0  0  0  0  0
    2.5736   -0.7488   14.7166 C   0  0  0  0  0  0  0  0  0  0  0  0
    3.3765    0.1730   15.0169 O   0  0  0  0  0  0  0  0  0  0  0  0
    2.5097   -1.8653   15.6256 N   0  0  0  0  0  0  0  0  0  0  0  0
    3.4157   -1.8443   17.1115 S   0  0  0  0  0  6  0  0  0  0  0  0
    2.5066   -2.1015   18.2808 O   0  0  0  0  0  0  0  0  0  0  0  0
    4.1194   -0.5409   17.2070 O   0  0  0  0  0  0  0  0  0  0  0  0
    4.6736   -3.1238   17.0626 C   0  0  0  0  0  0  0  0  0  0  0  0
    4.2664   -4.1684   16.1044 C   0  0  0  0  0  0  0  0  0  0  0  0
    4.8035   -4.2995   14.8409 C   0  0  0  0  0  0  0  0  0  0  0  0
    4.3790   -5.2966   13.9898 C   0  0  0  0  0  0  0  0  0  0  0  0
    3.3940   -6.2176   14.3549 C   0  0  0  0  0  0  0  0  0  0  0  0
    2.8654   -6.0764   15.6192 C   0  0  0  0  0  0  0  0  0  0  0  0
    3.2880   -5.0827   16.4681 C   0  0  0  0  0  0  0  0  0  0  0  0
    2.6541    4.4353    8.4033 C   0  0  0  0  0  0  0  0  0  0  0  0
  1  2  1  0
  2  3  1  0
  3  4  1  0
  4  5  2  0
  4  6  1  0
  6  7  2  0
  7  8  1  0
  8  9  2  0
  9 10  1  0
 10 11  2  0
 10 12  1  0
 12 13  3  0
  9 14  1  0
 14 15  1  0
 15 16  1  0
 16 17  1  0
 17 18  1  0
 18 19  1  0
 17 20  1  0
 20 21  2  0
 20 22  1  0
 22 23  1  0
 23 24  2  0
 23 25  2  0
 23 26  1  0
 26 27  1  0
 27 28  2  0
 28 29  1  0
 29 30  2  0
 30 31  1  0
 31 32  2  0
  7 33  1  0
 11  6  1  0
 19 14  1  0
 32 27  1  0
M  END
$$$$
