
     RDKit          3D

 33 35  0  0  0  0  0  0  0  0999 V2000
   10.0908   -5.4142   15.4177 C   0  0  0  0  0  0  0  0  0  0  0  0
    8.6498   -5.5799   14.9854 C   0  0  0  0  0  0  0  0  0  0  0  0
    8.1112   -4.2821   14.7968 O   0  0  0  0  0  0  0  0  0  0  0  0
    6.7620   -4.0386   14.6836 C   0  0  0  0  0  0  0  0  0  0  0  0
    5.9997   -5.0358   14.7966 O   0  0  0  0  0  0  0  0  0  0  0  0
    6.2782   -2.6963   14.4472 C   0  0  0  0  0  0  0  0  0  0  0  0
    4.9340   -2.4249   14.4916 C   0  0  0  0  0  0  0  0  0  0  0  0
    4.4921   -1.1768   14.2720 N   0  0  0  0  0  0  0  0  0  0  0  0
    5.3143   -0.1225   13.9987 C   0  0  0  0  0  0  0  0  0  0  0  0
    6.6700   -0.3368   13.9409 C   0  0  0  0  0  0  0  0  0  0  0  0
    7.1158   -1.6415   14.1719 C   0  0  0  0  0  0  0  0  0  0  0  0
    7.6226    0.6942   13.6351 C   0  0  0  0  0  0  0  0  0  0  0  0
    8.3919    1.5341   13.4069 N   0  0  0  0  0  0  0  0  0  0  0  0
    4.7465    1.1760   13.8134 N   0  0  0  0  0  0  0  0  0  0  0  0
    3.7463    1.5949   14.7750 C   0  0  0  0  0  0  0  0  0  0  0  0
    2.6660    2.4379   14.1302 C   0  0  0  0  0  0  0  0  0  0  0  0
    3.2666    3.6147   13.3900 C   0  0  0  0  0  0  0  0  0  0  0  0
    4.7501    3.5026   13.2644 C   0  0  0  0  0  0  0  0  0  0  0  0
    5.1148    2.0909   12.7717 C   0  0  0  0  0  0  0  0  0  0  0  0
    2.6561    3.6731   12.0409 C   0  0  0  0  0  0  0  0  0  0  0  0
    2.6122    2.6997   11.2440 O   0  0  0  0  0  0  0  0  0  0  0  0
    2.0672    4.9055   11.5815 N   0  0  0  0  0  0  0  0  0  0  0  0
    0.5792    4.8878   10.6786 S   0  0  0  0  0  6  0  0  0  0  0  0
    0.0221    6.2793   10.5635 O   0  0  0  0  0  0  0  0  0  0  0  0
   -0.3563    3.9479   11.3454 O   0  0  0  0  0  0  0  0  0  0  0  0
    0.8880    4.2486    9.0300 C   0  0  0  0  0  0  0  0  0  0  0  0
    0.2907    5.1601    8.0363 C   0  0  0  0  0  0  0  0  0  0  0  0
    0.9852    6.1775    7.4159 C   0  0  0  0  0  0  0  0  0  0  0  0
    0.3695    6.9982    6.4961 C   0  0  0  0  0  0  0  0  0  0  0  0
   -0.9745    6.8472    6.1459 C   0  0  0  0  0  0  0  0  0  0  0  0
   -1.6573    5.8276    6.7720 C   0  0  0  0  0  0  0  0  0  0  0  0
   -1.0443    5.0092    7.6890 C   0  0  0  0  0  0  0  0  0  0  0  0
    3.9018   -3.4884   14.7835 C   0  0  0  0  0  0  0  0  0  0  0  0
  1  2  1  0
  2  3  1  0
  3  4  1  0
  4  5  2  0
  4  6  1  0
  6  7  2  0
  7  8  1  0
  8  9  2  0
  9 10  1  0
 10 11  2  0
 10 12  1  0
 12 13  3  0
  9 14  1  0
 14 15  1  0
 15 16  1  0
 16 17  1  0
 17 18  1  0
 18 19  1  0
 17 20  1  0
 20 21  2  0
 20 22  1  0
 22 23  1  0
 23 24  2  0
 23 25  2  0
 23 26  1  0
 26 27  1  0
 27 28  2  0
 28 29  1  0
 29 30  2  0
 30 31  1  0
 31 32  2  0
  7 33  1  0
 11  6  1  0
 19 14  1  0
 32 27  1  0
M  END
$$$$
