
     RDKit          3D

 33 35  0  0  0  0  0  0  0  0999 V2000
   11.0339   -1.5942   12.8158 C   0  0  0  0  0  0  0  0  0  0  0  0
    9.7680   -2.1892   12.2376 C   0  0  0  0  0  0  0  0  0  0  0  0
    8.8383   -1.1315   12.0735 O   0  0  0  0  0  0  0  0  0  0  0  0
    7.5788   -1.3137   11.5510 C   0  0  0  0  0  0  0  0  0  0  0  0
    7.3734   -2.3997   10.9454 O   0  0  0  0  0  0  0  0  0  0  0  0
    6.5672   -0.2919   11.7068 C   0  0  0  0  0  0  0  0  0  0  0  0
    5.2788   -0.5217   11.2948 C   0  0  0  0  0  0  0  0  0  0  0  0
    4.3451    0.4308   11.4432 N   0  0  0  0  0  0  0  0  0  0  0  0
    4.5958    1.6538   11.9944 C   0  0  0  0  0  0  0  0  0  0  0  0
    5.8693    1.9389   12.4237 C   0  0  0  0  0  0  0  0  0  0  0  0
    6.8313    0.9373   12.2630 C   0  0  0  0  0  0  0  0  0  0  0  0
    6.2490    3.2019   12.9932 C   0  0  0  0  0  0  0  0  0  0  0  0
    6.5472    4.2326   13.4382 N   0  0  0  0  0  0  0  0  0  0  0  0
    3.5236    2.5876   12.1389 N   0  0  0  0  0  0  0  0  0  0  0  0
    3.8735    3.9192   12.5918 C   0  0  0  0  0  0  0  0  0  0  0  0
    2.8022    4.5077   13.4860 C   0  0  0  0  0  0  0  0  0  0  0  0
    1.4509    4.4797   12.8030 C   0  0  0  0  0  0  0  0  0  0  0  0
    1.4677    3.6592   11.5558 C   0  0  0  0  0  0  0  0  0  0  0  0
    2.1478    2.3087   11.8431 C   0  0  0  0  0  0  0  0  0  0  0  0
    0.4631    3.9183   13.7545 C   0  0  0  0  0  0  0  0  0  0  0  0
    0.1301    2.7049   13.7913 O   0  0  0  0  0  0  0  0  0  0  0  0
   -0.1746    4.7879   14.7105 N   0  0  0  0  0  0  0  0  0  0  0  0
   -1.3943    4.1694   15.7872 S   0  0  0  0  0  6  0  0  0  0  0  0
   -1.9612    5.2802   16.6267 O   0  0  0  0  0  0  0  0  0  0  0  0
   -0.7880    3.0864   16.6011 O   0  0  0  0  0  0  0  0  0  0  0  0
   -2.7206    3.4329   14.8278 C   0  0  0  0  0  0  0  0  0  0  0  0
   -3.5757    4.5027   14.2807 C   0  0  0  0  0  0  0  0  0  0  0  0
   -3.2216    5.2916   13.2062 C   0  0  0  0  0  0  0  0  0  0  0  0
   -4.0645    6.2779   12.7423 C   0  0  0  0  0  0  0  0  0  0  0  0
   -5.3080    6.5302   13.3270 C   0  0  0  0  0  0  0  0  0  0  0  0
   -5.6505    5.7357   14.3991 C   0  0  0  0  0  0  0  0  0  0  0  0
   -4.8107    4.7523   14.8622 C   0  0  0  0  0  0  0  0  0  0  0  0
    4.8494   -1.8270   10.6676 C   0  0  0  0  0  0  0  0  0  0  0  0
  1  2  1  0
  2  3  1  0
  3  4  1  0
  4  5  2  0
  4  6  1  0
  6  7  2  0
  7  8  1  0
  8  9  2  0
  9 10  1  0
 10 11  2  0
 10 12  1  0
 12 13  3  0
  9 14  1  0
 14 15  1  0
 15 16  1  0
 16 17  1  0
 17 18  1  0
 18 19  1  0
 17 20  1  0
 20 21  2  0
 20 22  1  0
 22 23  1  0
 23 24  2  0
 23 25  2  0
 23 26  1  0
 26 27  1  0
 27 28  2  0
 28 29  1  0
 29 30  2  0
 30 31  1  0
 31 32  2  0
  7 33  1  0
 11  6  1  0
 19 14  1  0
 32 27  1  0
M  END
$$$$
