
     RDKit          3D

 33 35  0  0  0  0  0  0  0  0999 V2000
   10.1875    2.2337    6.1249 C   0  0  0  0  0  0  0  0  0  0  0  0
    8.7567    2.6543    5.8660 C   0  0  0  0  0  0  0  0  0  0  0  0
    7.9820    2.2285    6.9743 O   0  0  0  0  0  0  0  0  0  0  0  0
    6.6308    2.4644    7.0805 C   0  0  0  0  0  0  0  0  0  0  0  0
    6.1065    3.1505    6.1625 O   0  0  0  0  0  0  0  0  0  0  0  0
    5.8820    1.9378    8.2001 C   0  0  0  0  0  0  0  0  0  0  0  0
    4.5129    1.8644    8.1468 C   0  0  0  0  0  0  0  0  0  0  0  0
    3.8244    1.3739    9.1891 N   0  0  0  0  0  0  0  0  0  0  0  0
    4.4107    0.9274   10.3377 C   0  0  0  0  0  0  0  0  0  0  0  0
    5.7793    0.9782   10.4464 C   0  0  0  0  0  0  0  0  0  0  0  0
    6.4832    1.4912    9.3530 C   0  0  0  0  0  0  0  0  0  0  0  0
    6.4968    0.5602   11.6187 C   0  0  0  0  0  0  0  0  0  0  0  0
    7.0929    0.2328   12.5604 N   0  0  0  0  0  0  0  0  0  0  0  0
    3.5901    0.3911   11.3777 N   0  0  0  0  0  0  0  0  0  0  0  0
    2.2436   -0.0003   11.0113 C   0  0  0  0  0  0  0  0  0  0  0  0
    1.2571    0.2684   12.1285 C   0  0  0  0  0  0  0  0  0  0  0  0
    1.7059   -0.3885   13.4170 C   0  0  0  0  0  0  0  0  0  0  0  0
    3.1054   -0.9013   13.3295 C   0  0  0  0  0  0  0  0  0  0  0  0
    4.0121    0.1905   12.7340 C   0  0  0  0  0  0  0  0  0  0  0  0
    1.6104    0.6135   14.5048 C   0  0  0  0  0  0  0  0  0  0  0  0
    2.4601    0.7384   15.4251 O   0  0  0  0  0  0  0  0  0  0  0  0
    0.4879    1.5164   14.5411 N   0  0  0  0  0  0  0  0  0  0  0  0
   -0.0137    2.2383   16.0434 S   0  0  0  0  0  6  0  0  0  0  0  0
   -1.5035    2.4389   16.0543 O   0  0  0  0  0  0  0  0  0  0  0  0
    0.7378    3.5057   16.2222 O   0  0  0  0  0  0  0  0  0  0  0  0
    0.4360    1.1584   17.4048 C   0  0  0  0  0  0  0  0  0  0  0  0
   -0.5027    1.3699   18.5225 C   0  0  0  0  0  0  0  0  0  0  0  0
   -0.9305    0.3641   19.3636 C   0  0  0  0  0  0  0  0  0  0  0  0
   -1.8116    0.6251   20.3904 C   0  0  0  0  0  0  0  0  0  0  0  0
   -2.3138    1.9061   20.6328 C   0  0  0  0  0  0  0  0  0  0  0  0
   -1.8790    2.9021   19.7863 C   0  0  0  0  0  0  0  0  0  0  0  0
   -1.0008    2.6427   18.7625 C   0  0  0  0  0  0  0  0  0  0  0  0
    3.7234    2.3193    6.9420 C   0  0  0  0  0  0  0  0  0  0  0  0
  1  2  1  0
  2  3  1  0
  3  4  1  0
  4  5  2  0
  4  6  1  0
  6  7  2  0
  7  8  1  0
  8  9  2  0
  9 10  1  0
 10 11  2  0
 10 12  1  0
 12 13  3  0
  9 14  1  0
 14 15  1  0
 15 16  1  0
 16 17  1  0
 17 18  1  0
 18 19  1  0
 17 20  1  0
 20 21  2  0
 20 22  1  0
 22 23  1  0
 23 24  2  0
 23 25  2  0
 23 26  1  0
 26 27  1  0
 27 28  2  0
 28 29  1  0
 29 30  2  0
 30 31  1  0
 31 32  2  0
  7 33  1  0
 11  6  1  0
 19 14  1  0
 32 27  1  0
M  END
$$$$
