
     RDKit          3D

 33 35  0  0  0  0  0  0  0  0999 V2000
   10.2309    2.5285    6.7260 C   0  0  0  0  0  0  0  0  0  0  0  0
   10.1371    1.6293    7.9399 C   0  0  0  0  0  0  0  0  0  0  0  0
    8.7643    1.5061    8.2719 O   0  0  0  0  0  0  0  0  0  0  0  0
    8.3163    0.7939    9.3602 C   0  0  0  0  0  0  0  0  0  0  0  0
    9.1494    0.0238    9.9094 O   0  0  0  0  0  0  0  0  0  0  0  0
    6.9546    0.9448    9.8233 C   0  0  0  0  0  0  0  0  0  0  0  0
    6.5048    0.2276   10.9031 C   0  0  0  0  0  0  0  0  0  0  0  0
    5.2401    0.3733   11.3278 N   0  0  0  0  0  0  0  0  0  0  0  0
    4.3391    1.2137   10.7411 C   0  0  0  0  0  0  0  0  0  0  0  0
    4.7350    1.9560    9.6550 C   0  0  0  0  0  0  0  0  0  0  0  0
    6.0550    1.7942    9.2239 C   0  0  0  0  0  0  0  0  0  0  0  0
    3.8622    2.8501    8.9460 C   0  0  0  0  0  0  0  0  0  0  0  0
    3.1438    3.5578    8.3694 N   0  0  0  0  0  0  0  0  0  0  0  0
    3.0244    1.3221   11.2909 N   0  0  0  0  0  0  0  0  0  0  0  0
    2.1051    2.2156   10.6147 C   0  0  0  0  0  0  0  0  0  0  0  0
    1.1807    2.9135   11.5904 C   0  0  0  0  0  0  0  0  0  0  0  0
    0.4554    1.9098   12.4621 C   0  0  0  0  0  0  0  0  0  0  0  0
    1.0172    0.5336   12.3224 C   0  0  0  0  0  0  0  0  0  0  0  0
    2.5510    0.5953   12.4335 C   0  0  0  0  0  0  0  0  0  0  0  0
    0.5700    2.3531   13.8716 C   0  0  0  0  0  0  0  0  0  0  0  0
    1.4255    3.1794   14.2836 O   0  0  0  0  0  0  0  0  0  0  0  0
   -0.3388    1.8251   14.8575 N   0  0  0  0  0  0  0  0  0  0  0  0
   -0.7929    2.7818   16.2388 S   0  0  0  0  0  6  0  0  0  0  0  0
    0.1641    2.5465   17.3740 O   0  0  0  0  0  0  0  0  0  0  0  0
   -2.1957    2.4493   16.5919 O   0  0  0  0  0  0  0  0  0  0  0  0
   -0.7547    4.5217   15.7994 C   0  0  0  0  0  0  0  0  0  0  0  0
   -1.2585    4.6858   14.4230 C   0  0  0  0  0  0  0  0  0  0  0  0
   -0.4554    4.9970   13.3458 C   0  0  0  0  0  0  0  0  0  0  0  0
   -0.9870    5.1392   12.0826 C   0  0  0  0  0  0  0  0  0  0  0  0
   -2.3509    4.9783   11.8265 C   0  0  0  0  0  0  0  0  0  0  0  0
   -3.1427    4.6675   12.9102 C   0  0  0  0  0  0  0  0  0  0  0  0
   -2.6135    4.5257   14.1698 C   0  0  0  0  0  0  0  0  0  0  0  0
    7.3857   -0.7412   11.6562 C   0  0  0  0  0  0  0  0  0  0  0  0
  1  2  1  0
  2  3  1  0
  3  4  1  0
  4  5  2  0
  4  6  1  0
  6  7  2  0
  7  8  1  0
  8  9  2  0
  9 10  1  0
 10 11  2  0
 10 12  1  0
 12 13  3  0
  9 14  1  0
 14 15  1  0
 15 16  1  0
 16 17  1  0
 17 18  1  0
 18 19  1  0
 17 20  1  0
 20 21  2  0
 20 22  1  0
 22 23  1  0
 23 24  2  0
 23 25  2  0
 23 26  1  0
 26 27  1  0
 27 28  2  0
 28 29  1  0
 29 30  2  0
 30 31  1  0
 31 32  2  0
  7 33  1  0
 11  6  1  0
 19 14  1  0
 32 27  1  0
M  END
$$$$
