
     RDKit          3D

 33 35  0  0  0  0  0  0  0  0999 V2000
   -5.2373    2.7711   18.1230 C   0  0  0  0  0  0  0  0  0  0  0  0
   -4.8499    1.4287   17.5408 C   0  0  0  0  0  0  0  0  0  0  0  0
   -3.9786    1.6747   16.4498 O   0  0  0  0  0  0  0  0  0  0  0  0
   -3.3487    0.6709   15.7513 C   0  0  0  0  0  0  0  0  0  0  0  0
   -3.7682   -0.5009   15.9504 O   0  0  0  0  0  0  0  0  0  0  0  0
   -2.2655    0.9793   14.8441 C   0  0  0  0  0  0  0  0  0  0  0  0
   -1.7369    0.0039   14.0367 C   0  0  0  0  0  0  0  0  0  0  0  0
   -0.7322    0.2975   13.1967 N   0  0  0  0  0  0  0  0  0  0  0  0
   -0.1807    1.5407   13.0852 C   0  0  0  0  0  0  0  0  0  0  0  0
   -0.6704    2.5559   13.8707 C   0  0  0  0  0  0  0  0  0  0  0  0
   -1.7169    2.2356   14.7406 C   0  0  0  0  0  0  0  0  0  0  0  0
   -0.1468    3.8936   13.8537 C   0  0  0  0  0  0  0  0  0  0  0  0
    0.2618    4.9806   13.8272 N   0  0  0  0  0  0  0  0  0  0  0  0
    0.8643    1.7584   12.1349 N   0  0  0  0  0  0  0  0  0  0  0  0
    1.0778    0.7178   11.1489 C   0  0  0  0  0  0  0  0  0  0  0  0
    2.5443    0.5642   10.8034 C   0  0  0  0  0  0  0  0  0  0  0  0
    3.1397    1.8867   10.3677 C   0  0  0  0  0  0  0  0  0  0  0  0
    2.2205    3.0326   10.6343 C   0  0  0  0  0  0  0  0  0  0  0  0
    1.6857    2.9329   12.0741 C   0  0  0  0  0  0  0  0  0  0  0  0
    4.4105    2.0867   11.1034 C   0  0  0  0  0  0  0  0  0  0  0  0
    4.4965    2.1523   12.3575 O   0  0  0  0  0  0  0  0  0  0  0  0
    5.6429    2.2180   10.3681 N   0  0  0  0  0  0  0  0  0  0  0  0
    7.0443    1.2927   10.8254 S   0  0  0  0  0  6  0  0  0  0  0  0
    6.8315   -0.1634   10.5180 O   0  0  0  0  0  0  0  0  0  0  0  0
    7.3157    1.5425   12.2631 O   0  0  0  0  0  0  0  0  0  0  0  0
    8.4717    1.8766    9.9069 C   0  0  0  0  0  0  0  0  0  0  0  0
    8.2335    1.6820    8.4645 C   0  0  0  0  0  0  0  0  0  0  0  0
    7.5235    0.6212    7.9422 C   0  0  0  0  0  0  0  0  0  0  0  0
    7.3366    0.4935    6.5830 C   0  0  0  0  0  0  0  0  0  0  0  0
    7.8493    1.4193    5.6709 C   0  0  0  0  0  0  0  0  0  0  0  0
    8.5562    2.4743    6.2047 C   0  0  0  0  0  0  0  0  0  0  0  0
    8.7430    2.6022    7.5594 C   0  0  0  0  0  0  0  0  0  0  0  0
   -2.2437   -1.4190   14.0468 C   0  0  0  0  0  0  0  0  0  0  0  0
  1  2  1  0
  2  3  1  0
  3  4  1  0
  4  5  2  0
  4  6  1  0
  6  7  2  0
  7  8  1  0
  8  9  2  0
  9 10  1  0
 10 11  2  0
 10 12  1  0
 12 13  3  0
  9 14  1  0
 14 15  1  0
 15 16  1  0
 16 17  1  0
 17 18  1  0
 18 19  1  0
 17 20  1  0
 20 21  2  0
 20 22  1  0
 22 23  1  0
 23 24  2  0
 23 25  2  0
 23 26  1  0
 26 27  1  0
 27 28  2  0
 28 29  1  0
 29 30  2  0
 30 31  1  0
 31 32  2  0
  7 33  1  0
 11  6  1  0
 19 14  1  0
 32 27  1  0
M  END
$$$$
