
     RDKit          3D

 33 35  0  0  0  0  0  0  0  0999 V2000
    9.7090    3.5253    6.6026 C   0  0  0  0  0  0  0  0  0  0  0  0
    8.2623    3.2346    6.2658 C   0  0  0  0  0  0  0  0  0  0  0  0
    7.6853    2.5928    7.3905 O   0  0  0  0  0  0  0  0  0  0  0  0
    6.4122    2.0716    7.3860 C   0  0  0  0  0  0  0  0  0  0  0  0
    5.8032    2.0860    6.2826 O   0  0  0  0  0  0  0  0  0  0  0  0
    5.8336    1.5432    8.6016 C   0  0  0  0  0  0  0  0  0  0  0  0
    4.7064    0.7626    8.5519 C   0  0  0  0  0  0  0  0  0  0  0  0
    4.1753    0.2750    9.6838 N   0  0  0  0  0  0  0  0  0  0  0  0
    4.6958    0.5091   10.9234 C   0  0  0  0  0  0  0  0  0  0  0  0
    5.8240    1.2854   11.0328 C   0  0  0  0  0  0  0  0  0  0  0  0
    6.3662    1.7861    9.8455 C   0  0  0  0  0  0  0  0  0  0  0  0
    6.4390    1.6165   12.2882 C   0  0  0  0  0  0  0  0  0  0  0  0
    6.9393    1.8647   13.3067 N   0  0  0  0  0  0  0  0  0  0  0  0
    4.0743   -0.0847   12.0652 N   0  0  0  0  0  0  0  0  0  0  0  0
    3.6530   -1.4654   11.9357 C   0  0  0  0  0  0  0  0  0  0  0  0
    2.3731   -1.7358   12.6988 C   0  0  0  0  0  0  0  0  0  0  0  0
    2.5086   -1.3197   14.1486 C   0  0  0  0  0  0  0  0  0  0  0  0
    3.7487   -0.5247   14.3922 C   0  0  0  0  0  0  0  0  0  0  0  0
    3.8677    0.5751   13.3222 C   0  0  0  0  0  0  0  0  0  0  0  0
    1.3204   -0.5115   14.5109 C   0  0  0  0  0  0  0  0  0  0  0  0
    0.2602   -0.4732   13.8333 O   0  0  0  0  0  0  0  0  0  0  0  0
    1.3467    0.2920   15.7069 N   0  0  0  0  0  0  0  0  0  0  0  0
    0.0459    0.1987   16.8596 S   0  0  0  0  0  6  0  0  0  0  0  0
    0.5481    0.5175   18.2402 O   0  0  0  0  0  0  0  0  0  0  0  0
   -0.5596   -1.1533   16.7666 O   0  0  0  0  0  0  0  0  0  0  0  0
   -1.2293    1.3825   16.4187 C   0  0  0  0  0  0  0  0  0  0  0  0
   -1.1167    2.5651   17.2927 C   0  0  0  0  0  0  0  0  0  0  0  0
   -0.8917    3.8433   16.8259 C   0  0  0  0  0  0  0  0  0  0  0  0
   -0.7942    4.9085   17.6945 C   0  0  0  0  0  0  0  0  0  0  0  0
   -0.9160    4.7546   19.0777 C   0  0  0  0  0  0  0  0  0  0  0  0
   -1.1407    3.4735   19.5317 C   0  0  0  0  0  0  0  0  0  0  0  0
   -1.2380    2.4112   18.6665 C   0  0  0  0  0  0  0  0  0  0  0  0
    4.0174    0.4159    7.2530 C   0  0  0  0  0  0  0  0  0  0  0  0
  1  2  1  0
  2  3  1  0
  3  4  1  0
  4  5  2  0
  4  6  1  0
  6  7  2  0
  7  8  1  0
  8  9  2  0
  9 10  1  0
 10 11  2  0
 10 12  1  0
 12 13  3  0
  9 14  1  0
 14 15  1  0
 15 16  1  0
 16 17  1  0
 17 18  1  0
 18 19  1  0
 17 20  1  0
 20 21  2  0
 20 22  1  0
 22 23  1  0
 23 24  2  0
 23 25  2  0
 23 26  1  0
 26 27  1  0
 27 28  2  0
 28 29  1  0
 29 30  2  0
 30 31  1  0
 31 32  2  0
  7 33  1  0
 11  6  1  0
 19 14  1  0
 32 27  1  0
M  END
$$$$
