
     RDKit          3D

 33 35  0  0  0  0  0  0  0  0999 V2000
    7.7546   -3.5962    6.9646 C   0  0  0  0  0  0  0  0  0  0  0  0
    6.9525   -2.3705    6.5833 C   0  0  0  0  0  0  0  0  0  0  0  0
    6.6455   -1.6750    7.7799 O   0  0  0  0  0  0  0  0  0  0  0  0
    6.3676   -0.3281    7.8149 C   0  0  0  0  0  0  0  0  0  0  0  0
    6.5464    0.3105    6.7431 O   0  0  0  0  0  0  0  0  0  0  0  0
    5.8966    0.2903    9.0345 C   0  0  0  0  0  0  0  0  0  0  0  0
    5.4574    1.5902    9.0292 C   0  0  0  0  0  0  0  0  0  0  0  0
    5.0210    2.1574   10.1645 N   0  0  0  0  0  0  0  0  0  0  0  0
    4.9819    1.5097   11.3650 C   0  0  0  0  0  0  0  0  0  0  0  0
    5.4108    0.2061   11.4291 C   0  0  0  0  0  0  0  0  0  0  0  0
    5.8623   -0.3717   10.2389 C   0  0  0  0  0  0  0  0  0  0  0  0
    5.4378   -0.5600   12.6441 C   0  0  0  0  0  0  0  0  0  0  0  0
    5.4718   -1.1928   13.6176 N   0  0  0  0  0  0  0  0  0  0  0  0
    4.4672    2.1923   12.5103 N   0  0  0  0  0  0  0  0  0  0  0  0
    4.2926    1.4064   13.7155 C   0  0  0  0  0  0  0  0  0  0  0  0
    3.0754    1.8469   14.5015 C   0  0  0  0  0  0  0  0  0  0  0  0
    3.1295    3.3312   14.7973 C   0  0  0  0  0  0  0  0  0  0  0  0
    4.2116    4.0183   14.0318 C   0  0  0  0  0  0  0  0  0  0  0  0
    4.1432    3.5890   12.5554 C   0  0  0  0  0  0  0  0  0  0  0  0
    1.8173    3.9217   14.4427 C   0  0  0  0  0  0  0  0  0  0  0  0
    1.3902    4.0348   13.2640 O   0  0  0  0  0  0  0  0  0  0  0  0
    0.9517    4.4064   15.4880 N   0  0  0  0  0  0  0  0  0  0  0  0
   -0.7637    4.5344   15.2225 S   0  0  0  0  0  6  0  0  0  0  0  0
   -1.4016    5.3475   16.3143 O   0  0  0  0  0  0  0  0  0  0  0  0
   -1.3216    3.1622   15.1276 O   0  0  0  0  0  0  0  0  0  0  0  0
   -1.0662    5.3401   13.6473 C   0  0  0  0  0  0  0  0  0  0  0  0
   -0.4581    4.5397   12.5681 C   0  0  0  0  0  0  0  0  0  0  0  0
   -0.8106    3.2355   12.2907 C   0  0  0  0  0  0  0  0  0  0  0  0
   -0.2033    2.5388   11.2687 C   0  0  0  0  0  0  0  0  0  0  0  0
    0.7900    3.1076   10.4676 C   0  0  0  0  0  0  0  0  0  0  0  0
    1.1332    4.4106   10.7543 C   0  0  0  0  0  0  0  0  0  0  0  0
    0.5284    5.1056   11.7729 C   0  0  0  0  0  0  0  0  0  0  0  0
    5.4399    2.4344    7.7767 C   0  0  0  0  0  0  0  0  0  0  0  0
  1  2  1  0
  2  3  1  0
  3  4  1  0
  4  5  2  0
  4  6  1  0
  6  7  2  0
  7  8  1  0
  8  9  2  0
  9 10  1  0
 10 11  2  0
 10 12  1  0
 12 13  3  0
  9 14  1  0
 14 15  1  0
 15 16  1  0
 16 17  1  0
 17 18  1  0
 18 19  1  0
 17 20  1  0
 20 21  2  0
 20 22  1  0
 22 23  1  0
 23 24  2  0
 23 25  2  0
 23 26  1  0
 26 27  1  0
 27 28  2  0
 28 29  1  0
 29 30  2  0
 30 31  1  0
 31 32  2  0
  7 33  1  0
 11  6  1  0
 19 14  1  0
 32 27  1  0
M  END
$$$$
