
     RDKit          3D

 33 35  0  0  0  0  0  0  0  0999 V2000
   10.5540   -4.5513   16.1912 C   0  0  0  0  0  0  0  0  0  0  0  0
    9.4526   -3.8289   16.9367 C   0  0  0  0  0  0  0  0  0  0  0  0
    8.6800   -3.1272   15.9772 O   0  0  0  0  0  0  0  0  0  0  0  0
    7.4692   -2.5436   16.2701 C   0  0  0  0  0  0  0  0  0  0  0  0
    7.0530   -2.6759   17.4524 O   0  0  0  0  0  0  0  0  0  0  0  0
    6.7385   -1.8234   15.2507 C   0  0  0  0  0  0  0  0  0  0  0  0
    5.4261   -1.4771   15.4509 C   0  0  0  0  0  0  0  0  0  0  0  0
    4.7544   -0.8081   14.5010 N   0  0  0  0  0  0  0  0  0  0  0  0
    5.3043   -0.4351   13.3089 C   0  0  0  0  0  0  0  0  0  0  0  0
    6.6154   -0.7567   13.0543 C   0  0  0  0  0  0  0  0  0  0  0  0
    7.3026   -1.4532   14.0529 C   0  0  0  0  0  0  0  0  0  0  0  0
    7.2849   -0.4369   11.8241 C   0  0  0  0  0  0  0  0  0  0  0  0
    7.8212   -0.1965   10.8222 N   0  0  0  0  0  0  0  0  0  0  0  0
    4.5137    0.3052   12.3765 N   0  0  0  0  0  0  0  0  0  0  0  0
    5.2296    1.0600   11.3674 C   0  0  0  0  0  0  0  0  0  0  0  0
    4.5274    2.3600   11.0352 C   0  0  0  0  0  0  0  0  0  0  0  0
    3.0868    2.1118   10.6395 C   0  0  0  0  0  0  0  0  0  0  0  0
    2.6587    0.7100   10.9240 C   0  0  0  0  0  0  0  0  0  0  0  0
    3.0795    0.3288   12.3544 C   0  0  0  0  0  0  0  0  0  0  0  0
    2.2303    3.0564   11.3946 C   0  0  0  0  0  0  0  0  0  0  0  0
    2.6281    3.7415   12.3729 O   0  0  0  0  0  0  0  0  0  0  0  0
    0.8513    3.2253   11.0116 N   0  0  0  0  0  0  0  0  0  0  0  0
    0.3135    4.7154   10.2908 S   0  0  0  0  0  6  0  0  0  0  0  0
    0.0935    5.7585   11.3509 O   0  0  0  0  0  0  0  0  0  0  0  0
   -0.9107    4.4326    9.5006 O   0  0  0  0  0  0  0  0  0  0  0  0
    1.5601    5.3085    9.1436 C   0  0  0  0  0  0  0  0  0  0  0  0
    0.8954    5.9445    7.9908 C   0  0  0  0  0  0  0  0  0  0  0  0
    0.6344    7.2962    7.9076 C   0  0  0  0  0  0  0  0  0  0  0  0
    0.0075    7.8307    6.8032 C   0  0  0  0  0  0  0  0  0  0  0  0
   -0.3932    7.0434    5.7209 C   0  0  0  0  0  0  0  0  0  0  0  0
   -0.1269    5.6951    5.8156 C   0  0  0  0  0  0  0  0  0  0  0  0
    0.4980    5.1615    6.9162 C   0  0  0  0  0  0  0  0  0  0  0  0
    4.6822   -1.8199   16.7201 C   0  0  0  0  0  0  0  0  0  0  0  0
  1  2  1  0
  2  3  1  0
  3  4  1  0
  4  5  2  0
  4  6  1  0
  6  7  2  0
  7  8  1  0
  8  9  2  0
  9 10  1  0
 10 11  2  0
 10 12  1  0
 12 13  3  0
  9 14  1  0
 14 15  1  0
 15 16  1  0
 16 17  1  0
 17 18  1  0
 18 19  1  0
 17 20  1  0
 20 21  2  0
 20 22  1  0
 22 23  1  0
 23 24  2  0
 23 25  2  0
 23 26  1  0
 26 27  1  0
 27 28  2  0
 28 29  1  0
 29 30  2  0
 30 31  1  0
 31 32  2  0
  7 33  1  0
 11  6  1  0
 19 14  1  0
 32 27  1  0
M  END
$$$$
