
     RDKit          3D

 33 35  0  0  0  0  0  0  0  0999 V2000
   -4.5317    2.4397   18.2556 C   0  0  0  0  0  0  0  0  0  0  0  0
   -3.3399    3.3192   18.5673 C   0  0  0  0  0  0  0  0  0  0  0  0
   -2.7863    3.7378   17.3311 O   0  0  0  0  0  0  0  0  0  0  0  0
   -1.7100    4.5898   17.2409 C   0  0  0  0  0  0  0  0  0  0  0  0
   -1.6385    5.4987   18.1111 O   0  0  0  0  0  0  0  0  0  0  0  0
   -0.7306    4.4226   16.1900 C   0  0  0  0  0  0  0  0  0  0  0  0
   -1.1277    4.3195   14.8807 C   0  0  0  0  0  0  0  0  0  0  0  0
   -0.2133    4.1653   13.9106 N   0  0  0  0  0  0  0  0  0  0  0  0
    1.1299    4.1019   14.1429 C   0  0  0  0  0  0  0  0  0  0  0  0
    1.5842    4.1987   15.4358 C   0  0  0  0  0  0  0  0  0  0  0  0
    0.6205    4.3593   16.4358 C   0  0  0  0  0  0  0  0  0  0  0  0
    2.9727    4.1179   15.7957 C   0  0  0  0  0  0  0  0  0  0  0  0
    4.0907    4.0392   16.1010 N   0  0  0  0  0  0  0  0  0  0  0  0
    2.0246    3.9701   13.0362 N   0  0  0  0  0  0  0  0  0  0  0  0
    1.5545    4.4572   11.7546 C   0  0  0  0  0  0  0  0  0  0  0  0
    2.0555    3.6008   10.6105 C   0  0  0  0  0  0  0  0  0  0  0  0
    3.5642    3.4746   10.6485 C   0  0  0  0  0  0  0  0  0  0  0  0
    4.1403    3.9952   11.9238 C   0  0  0  0  0  0  0  0  0  0  0  0
    3.3481    3.4223   13.1125 C   0  0  0  0  0  0  0  0  0  0  0  0
    3.9127    2.0426   10.4932 C   0  0  0  0  0  0  0  0  0  0  0  0
    4.4321    1.3409   11.4001 O   0  0  0  0  0  0  0  0  0  0  0  0
    3.6543    1.3815    9.2391 N   0  0  0  0  0  0  0  0  0  0  0  0
    3.9873   -0.3168    9.0536 S   0  0  0  0  0  6  0  0  0  0  0  0
    2.7325   -1.1197    9.2552 O   0  0  0  0  0  0  0  0  0  0  0  0
    5.0640   -0.6848   10.0067 O   0  0  0  0  0  0  0  0  0  0  0  0
    4.6140   -0.6258    7.4002 C   0  0  0  0  0  0  0  0  0  0  0  0
    3.8851    0.2222    6.4386 C   0  0  0  0  0  0  0  0  0  0  0  0
    2.5155    0.3849    6.4461 C   0  0  0  0  0  0  0  0  0  0  0  0
    1.8920    1.1905    5.5183 C   0  0  0  0  0  0  0  0  0  0  0  0
    2.6032    1.8779    4.5317 C   0  0  0  0  0  0  0  0  0  0  0  0
    3.9702    1.7076    4.5346 C   0  0  0  0  0  0  0  0  0  0  0  0
    4.5925    0.9046    5.4590 C   0  0  0  0  0  0  0  0  0  0  0  0
   -2.5797    4.3733   14.4678 C   0  0  0  0  0  0  0  0  0  0  0  0
  1  2  1  0
  2  3  1  0
  3  4  1  0
  4  5  2  0
  4  6  1  0
  6  7  2  0
  7  8  1  0
  8  9  2  0
  9 10  1  0
 10 11  2  0
 10 12  1  0
 12 13  3  0
  9 14  1  0
 14 15  1  0
 15 16  1  0
 16 17  1  0
 17 18  1  0
 18 19  1  0
 17 20  1  0
 20 21  2  0
 20 22  1  0
 22 23  1  0
 23 24  2  0
 23 25  2  0
 23 26  1  0
 26 27  1  0
 27 28  2  0
 28 29  1  0
 29 30  2  0
 30 31  1  0
 31 32  2  0
  7 33  1  0
 11  6  1  0
 19 14  1  0
 32 27  1  0
M  END
$$$$
