
     RDKit          3D

 33 35  0  0  0  0  0  0  0  0999 V2000
   10.0552   -4.5845   14.4906 C   0  0  0  0  0  0  0  0  0  0  0  0
    8.5973   -4.9178   14.7234 C   0  0  0  0  0  0  0  0  0  0  0  0
    7.8547   -3.7239   14.5419 O   0  0  0  0  0  0  0  0  0  0  0  0
    6.5045   -3.7125   14.2782 C   0  0  0  0  0  0  0  0  0  0  0  0
    5.9243   -4.8314   14.2697 O   0  0  0  0  0  0  0  0  0  0  0  0
    5.8184   -2.4642   14.0283 C   0  0  0  0  0  0  0  0  0  0  0  0
    4.4472   -2.4171   14.0099 C   0  0  0  0  0  0  0  0  0  0  0  0
    3.8171   -1.2551   13.7781 N   0  0  0  0  0  0  0  0  0  0  0  0
    4.4668   -0.0765   13.5519 C   0  0  0  0  0  0  0  0  0  0  0  0
    5.8406   -0.0652   13.5579 C   0  0  0  0  0  0  0  0  0  0  0  0
    6.4833   -1.2826   13.8009 C   0  0  0  0  0  0  0  0  0  0  0  0
    6.6241    1.1122   13.3054 C   0  0  0  0  0  0  0  0  0  0  0  0
    7.2630    2.0566   13.0834 N   0  0  0  0  0  0  0  0  0  0  0  0
    3.7028    1.1142   13.3487 N   0  0  0  0  0  0  0  0  0  0  0  0
    2.3022    1.0627   13.7178 C   0  0  0  0  0  0  0  0  0  0  0  0
    1.4440    1.8868   12.7810 C   0  0  0  0  0  0  0  0  0  0  0  0
    1.9531    3.3103   12.6911 C   0  0  0  0  0  0  0  0  0  0  0  0
    3.2942    3.4694   13.3277 C   0  0  0  0  0  0  0  0  0  0  0  0
    4.2274    2.3478   12.8379 C   0  0  0  0  0  0  0  0  0  0  0  0
    2.0347    3.6829   11.2591 C   0  0  0  0  0  0  0  0  0  0  0  0
    1.7347    2.9108   10.3113 O   0  0  0  0  0  0  0  0  0  0  0  0
    2.4815    5.0035   10.8940 N   0  0  0  0  0  0  0  0  0  0  0  0
    1.3739    6.1432   10.1844 S   0  0  0  0  0  6  0  0  0  0  0  0
    1.2004    7.3333   11.0864 O   0  0  0  0  0  0  0  0  0  0  0  0
    0.0963    5.4390    9.9106 O   0  0  0  0  0  0  0  0  0  0  0  0
    2.0206    6.7015    8.6059 C   0  0  0  0  0  0  0  0  0  0  0  0
    2.4614    5.5330    7.8213 C   0  0  0  0  0  0  0  0  0  0  0  0
    3.3980    4.6227    8.2644 C   0  0  0  0  0  0  0  0  0  0  0  0
    3.7702    3.5508    7.4826 C   0  0  0  0  0  0  0  0  0  0  0  0
    3.2268    3.3299    6.2147 C   0  0  0  0  0  0  0  0  0  0  0  0
    2.2923    4.2457    5.7834 C   0  0  0  0  0  0  0  0  0  0  0  0
    1.9208    5.3145    6.5621 C   0  0  0  0  0  0  0  0  0  0  0  0
    3.5913   -3.6394   14.2445 C   0  0  0  0  0  0  0  0  0  0  0  0
  1  2  1  0
  2  3  1  0
  3  4  1  0
  4  5  2  0
  4  6  1  0
  6  7  2  0
  7  8  1  0
  8  9  2  0
  9 10  1  0
 10 11  2  0
 10 12  1  0
 12 13  3  0
  9 14  1  0
 14 15  1  0
 15 16  1  0
 16 17  1  0
 17 18  1  0
 18 19  1  0
 17 20  1  0
 20 21  2  0
 20 22  1  0
 22 23  1  0
 23 24  2  0
 23 25  2  0
 23 26  1  0
 26 27  1  0
 27 28  2  0
 28 29  1  0
 29 30  2  0
 30 31  1  0
 31 32  2  0
  7 33  1  0
 11  6  1  0
 19 14  1  0
 32 27  1  0
M  END
$$$$
