
     RDKit          3D

 33 35  0  0  0  0  0  0  0  0999 V2000
    2.3142   -0.3815   22.5255 C   0  0  0  0  0  0  0  0  0  0  0  0
    1.5298    0.4370   21.5227 C   0  0  0  0  0  0  0  0  0  0  0  0
    1.7919   -0.1012   20.2376 O   0  0  0  0  0  0  0  0  0  0  0  0
    1.1788    0.3547   19.0936 C   0  0  0  0  0  0  0  0  0  0  0  0
    0.0513    0.8988   19.2391 O   0  0  0  0  0  0  0  0  0  0  0  0
    1.8226    0.2015   17.8076 C   0  0  0  0  0  0  0  0  0  0  0  0
    1.1903    0.6118   16.6612 C   0  0  0  0  0  0  0  0  0  0  0  0
    1.7940    0.4672   15.4714 N   0  0  0  0  0  0  0  0  0  0  0  0
    3.0355   -0.0778   15.3165 C   0  0  0  0  0  0  0  0  0  0  0  0
    3.7147   -0.5070   16.4309 C   0  0  0  0  0  0  0  0  0  0  0  0
    3.0737   -0.3499   17.6633 C   0  0  0  0  0  0  0  0  0  0  0  0
    5.0134   -1.1189   16.3801 C   0  0  0  0  0  0  0  0  0  0  0  0
    6.0709   -1.5971   16.3305 N   0  0  0  0  0  0  0  0  0  0  0  0
    3.6054   -0.1563   14.0082 N   0  0  0  0  0  0  0  0  0  0  0  0
    5.0372   -0.3677   13.9308 C   0  0  0  0  0  0  0  0  0  0  0  0
    5.6506    0.3669   12.7572 C   0  0  0  0  0  0  0  0  0  0  0  0
    4.9541   -0.0010   11.4638 C   0  0  0  0  0  0  0  0  0  0  0  0
    3.6991   -0.7744   11.7008 C   0  0  0  0  0  0  0  0  0  0  0  0
    2.8629   -0.0697   12.7838 C   0  0  0  0  0  0  0  0  0  0  0  0
    4.6371    1.2508   10.7367 C   0  0  0  0  0  0  0  0  0  0  0  0
    4.0512    2.2377   11.2537 O   0  0  0  0  0  0  0  0  0  0  0  0
    5.0088    1.3796    9.3503 N   0  0  0  0  0  0  0  0  0  0  0  0
    4.5828    2.8090    8.4532 S   0  0  0  0  0  6  0  0  0  0  0  0
    5.2466    2.7958    7.1044 O   0  0  0  0  0  0  0  0  0  0  0  0
    4.9557    3.9941    9.2653 O   0  0  0  0  0  0  0  0  0  0  0  0
    2.8034    2.8621    8.2233 C   0  0  0  0  0  0  0  0  0  0  0  0
    2.4980    3.5590    6.9599 C   0  0  0  0  0  0  0  0  0  0  0  0
    2.5025    2.9435    5.7257 C   0  0  0  0  0  0  0  0  0  0  0  0
    2.2101    3.6504    4.5796 C   0  0  0  0  0  0  0  0  0  0  0  0
    1.8972    5.0117    4.6042 C   0  0  0  0  0  0  0  0  0  0  0  0
    1.8957    5.6152    5.8426 C   0  0  0  0  0  0  0  0  0  0  0  0
    2.1871    4.9112    6.9854 C   0  0  0  0  0  0  0  0  0  0  0  0
   -0.1859    1.2346   16.6734 C   0  0  0  0  0  0  0  0  0  0  0  0
  1  2  1  0
  2  3  1  0
  3  4  1  0
  4  5  2  0
  4  6  1  0
  6  7  2  0
  7  8  1  0
  8  9  2  0
  9 10  1  0
 10 11  2  0
 10 12  1  0
 12 13  3  0
  9 14  1  0
 14 15  1  0
 15 16  1  0
 16 17  1  0
 17 18  1  0
 18 19  1  0
 17 20  1  0
 20 21  2  0
 20 22  1  0
 22 23  1  0
 23 24  2  0
 23 25  2  0
 23 26  1  0
 26 27  1  0
 27 28  2  0
 28 29  1  0
 29 30  2  0
 30 31  1  0
 31 32  2  0
  7 33  1  0
 11  6  1  0
 19 14  1  0
 32 27  1  0
M  END
$$$$
