
     RDKit          3D

 33 35  0  0  0  0  0  0  0  0999 V2000
   11.6997   -0.5925    9.0858 C   0  0  0  0  0  0  0  0  0  0  0  0
   10.8377    0.4783    8.4523 C   0  0  0  0  0  0  0  0  0  0  0  0
    9.5297    0.3380    8.9807 O   0  0  0  0  0  0  0  0  0  0  0  0
    8.5211    1.2414    8.7375 C   0  0  0  0  0  0  0  0  0  0  0  0
    8.7664    2.1432    7.8920 O   0  0  0  0  0  0  0  0  0  0  0  0
    7.2580    1.1326    9.4335 C   0  0  0  0  0  0  0  0  0  0  0  0
    6.2222    1.9794    9.1289 C   0  0  0  0  0  0  0  0  0  0  0  0
    5.0526    1.8722    9.7782 N   0  0  0  0  0  0  0  0  0  0  0  0
    4.8129    0.9482   10.7535 C   0  0  0  0  0  0  0  0  0  0  0  0
    5.8152    0.0749   11.0999 C   0  0  0  0  0  0  0  0  0  0  0  0
    7.0277    0.1981   10.4151 C   0  0  0  0  0  0  0  0  0  0  0  0
    5.6800   -0.9179   12.1293 C   0  0  0  0  0  0  0  0  0  0  0  0
    5.5901   -1.7185   12.9662 N   0  0  0  0  0  0  0  0  0  0  0  0
    3.5205    0.8938   11.3614 N   0  0  0  0  0  0  0  0  0  0  0  0
    2.4369    1.5443   10.6519 C   0  0  0  0  0  0  0  0  0  0  0  0
    1.4437    2.1783   11.6032 C   0  0  0  0  0  0  0  0  0  0  0  0
    0.9345    1.1665   12.6083 C   0  0  0  0  0  0  0  0  0  0  0  0
    1.7184   -0.1037   12.5744 C   0  0  0  0  0  0  0  0  0  0  0  0
    3.2219    0.2243   12.5944 C   0  0  0  0  0  0  0  0  0  0  0  0
    1.0240    1.7705   13.9587 C   0  0  0  0  0  0  0  0  0  0  0  0
    2.0254    2.4043   14.3827 O   0  0  0  0  0  0  0  0  0  0  0  0
   -0.0867    1.6428   14.8680 N   0  0  0  0  0  0  0  0  0  0  0  0
   -0.2580    2.7394   16.2087 S   0  0  0  0  0  6  0  0  0  0  0  0
   -1.0021    3.9738   15.7816 O   0  0  0  0  0  0  0  0  0  0  0  0
    1.0959    3.0393   16.7380 O   0  0  0  0  0  0  0  0  0  0  0  0
   -1.1759    1.9352   17.5250 C   0  0  0  0  0  0  0  0  0  0  0  0
   -2.6125    2.2272   17.3633 C   0  0  0  0  0  0  0  0  0  0  0  0
   -3.6010    1.6610   18.1408 C   0  0  0  0  0  0  0  0  0  0  0  0
   -4.9279    1.9732   17.9391 C   0  0  0  0  0  0  0  0  0  0  0  0
   -5.3397    2.8685   16.9489 C   0  0  0  0  0  0  0  0  0  0  0  0
   -4.3434    3.4275   16.1791 C   0  0  0  0  0  0  0  0  0  0  0  0
   -3.0205    3.1169   16.3795 C   0  0  0  0  0  0  0  0  0  0  0  0
    6.3368    3.0523    8.0718 C   0  0  0  0  0  0  0  0  0  0  0  0
  1  2  1  0
  2  3  1  0
  3  4  1  0
  4  5  2  0
  4  6  1  0
  6  7  2  0
  7  8  1  0
  8  9  2  0
  9 10  1  0
 10 11  2  0
 10 12  1  0
 12 13  3  0
  9 14  1  0
 14 15  1  0
 15 16  1  0
 16 17  1  0
 17 18  1  0
 18 19  1  0
 17 20  1  0
 20 21  2  0
 20 22  1  0
 22 23  1  0
 23 24  2  0
 23 25  2  0
 23 26  1  0
 26 27  1  0
 27 28  2  0
 28 29  1  0
 29 30  2  0
 30 31  1  0
 31 32  2  0
  7 33  1  0
 11  6  1  0
 19 14  1  0
 32 27  1  0
M  END
$$$$
