
     RDKit          3D

 33 35  0  0  0  0  0  0  0  0999 V2000
    3.7305    3.2567    4.7707 C   0  0  0  0  0  0  0  0  0  0  0  0
    4.9643    2.9316    5.5849 C   0  0  0  0  0  0  0  0  0  0  0  0
    4.5269    2.4105    6.8288 O   0  0  0  0  0  0  0  0  0  0  0  0
    5.3096    2.4121    7.9601 C   0  0  0  0  0  0  0  0  0  0  0  0
    6.5284    2.6903    7.7997 O   0  0  0  0  0  0  0  0  0  0  0  0
    4.7317    2.1060    9.2500 C   0  0  0  0  0  0  0  0  0  0  0  0
    3.8209    1.0880    9.3789 C   0  0  0  0  0  0  0  0  0  0  0  0
    3.2891    0.8091   10.5792 N   0  0  0  0  0  0  0  0  0  0  0  0
    3.6018    1.4902   11.7196 C   0  0  0  0  0  0  0  0  0  0  0  0
    4.5078    2.5205   11.6490 C   0  0  0  0  0  0  0  0  0  0  0  0
    5.0536    2.7995   10.3926 C   0  0  0  0  0  0  0  0  0  0  0  0
    4.8883    3.3195   12.7807 C   0  0  0  0  0  0  0  0  0  0  0  0
    5.2147    3.9582   13.6944 N   0  0  0  0  0  0  0  0  0  0  0  0
    3.0052    1.0928   12.9560 N   0  0  0  0  0  0  0  0  0  0  0  0
    2.6663   -0.3093   13.0970 C   0  0  0  0  0  0  0  0  0  0  0  0
    1.3972   -0.5021   13.9006 C   0  0  0  0  0  0  0  0  0  0  0  0
    1.4945    0.1937   15.2422 C   0  0  0  0  0  0  0  0  0  0  0  0
    2.6838    1.0925   15.3249 C   0  0  0  0  0  0  0  0  0  0  0  0
    2.7486    1.9698   14.0619 C   0  0  0  0  0  0  0  0  0  0  0  0
    0.2579    0.9851   15.4436 C   0  0  0  0  0  0  0  0  0  0  0  0
   -0.7364    0.9483   14.6725 O   0  0  0  0  0  0  0  0  0  0  0  0
    0.1540    1.8613   16.5830 N   0  0  0  0  0  0  0  0  0  0  0  0
   -1.3738    2.0838   17.3867 S   0  0  0  0  0  6  0  0  0  0  0  0
   -1.1571    2.5418   18.8020 O   0  0  0  0  0  0  0  0  0  0  0  0
   -2.1304    0.8094   17.3049 O   0  0  0  0  0  0  0  0  0  0  0  0
   -2.3320    3.3265   16.5153 C   0  0  0  0  0  0  0  0  0  0  0  0
   -1.6747    3.6340   15.2313 C   0  0  0  0  0  0  0  0  0  0  0  0
   -0.5237    3.0135   14.7927 C   0  0  0  0  0  0  0  0  0  0  0  0
    0.0444    3.3467   13.5824 C   0  0  0  0  0  0  0  0  0  0  0  0
   -0.5068    4.3187   12.7438 C   0  0  0  0  0  0  0  0  0  0  0  0
   -1.6563    4.9311   13.1927 C   0  0  0  0  0  0  0  0  0  0  0  0
   -2.2231    4.5995   14.3991 C   0  0  0  0  0  0  0  0  0  0  0  0
    3.3771    0.2446    8.2070 C   0  0  0  0  0  0  0  0  0  0  0  0
  1  2  1  0
  2  3  1  0
  3  4  1  0
  4  5  2  0
  4  6  1  0
  6  7  2  0
  7  8  1  0
  8  9  2  0
  9 10  1  0
 10 11  2  0
 10 12  1  0
 12 13  3  0
  9 14  1  0
 14 15  1  0
 15 16  1  0
 16 17  1  0
 17 18  1  0
 18 19  1  0
 17 20  1  0
 20 21  2  0
 20 22  1  0
 22 23  1  0
 23 24  2  0
 23 25  2  0
 23 26  1  0
 26 27  1  0
 27 28  2  0
 28 29  1  0
 29 30  2  0
 30 31  1  0
 31 32  2  0
  7 33  1  0
 11  6  1  0
 19 14  1  0
 32 27  1  0
M  END
$$$$
