
     RDKit          3D

 33 35  0  0  0  0  0  0  0  0999 V2000
    9.2360   -5.8805   12.3998 C   0  0  0  0  0  0  0  0  0  0  0  0
    8.2927   -5.6235   13.5553 C   0  0  0  0  0  0  0  0  0  0  0  0
    7.7068   -4.3491   13.3496 O   0  0  0  0  0  0  0  0  0  0  0  0
    6.8934   -3.7386   14.2760 C   0  0  0  0  0  0  0  0  0  0  0  0
    6.6738   -4.3787   15.3393 O   0  0  0  0  0  0  0  0  0  0  0  0
    6.3363   -2.4305   14.0113 C   0  0  0  0  0  0  0  0  0  0  0  0
    5.4148   -1.8820   14.8673 C   0  0  0  0  0  0  0  0  0  0  0  0
    4.9026   -0.6673   14.6158 N   0  0  0  0  0  0  0  0  0  0  0  0
    5.2459    0.0866   13.5313 C   0  0  0  0  0  0  0  0  0  0  0  0
    6.1638   -0.4138   12.6400 C   0  0  0  0  0  0  0  0  0  0  0  0
    6.6890   -1.6799   12.9149 C   0  0  0  0  0  0  0  0  0  0  0  0
    6.5763    0.2826   11.4531 C   0  0  0  0  0  0  0  0  0  0  0  0
    6.8995    0.8325   10.4823 N   0  0  0  0  0  0  0  0  0  0  0  0
    4.6679    1.3839   13.3715 N   0  0  0  0  0  0  0  0  0  0  0  0
    4.1764    2.0323   14.5709 C   0  0  0  0  0  0  0  0  0  0  0  0
    2.9340    2.8535   14.2963 C   0  0  0  0  0  0  0  0  0  0  0  0
    3.1758    3.8441   13.1766 C   0  0  0  0  0  0  0  0  0  0  0  0
    4.4637    3.5869   12.4663 C   0  0  0  0  0  0  0  0  0  0  0  0
    4.5683    2.0895   12.1265 C   0  0  0  0  0  0  0  0  0  0  0  0
    2.0502    3.7428   12.2180 C   0  0  0  0  0  0  0  0  0  0  0  0
    1.4642    2.6667   11.9297 O   0  0  0  0  0  0  0  0  0  0  0  0
    1.5719    4.9308   11.5573 N   0  0  0  0  0  0  0  0  0  0  0  0
    0.0132    5.5942   11.9572 S   0  0  0  0  0  6  0  0  0  0  0  0
   -0.7241    5.9850   10.7068 O   0  0  0  0  0  0  0  0  0  0  0  0
    0.2192    6.7359   12.8831 O   0  0  0  0  0  0  0  0  0  0  0  0
   -0.9516    4.3638   12.8387 C   0  0  0  0  0  0  0  0  0  0  0  0
   -2.3833    4.5747   12.5541 C   0  0  0  0  0  0  0  0  0  0  0  0
   -3.0684    3.9225   11.5504 C   0  0  0  0  0  0  0  0  0  0  0  0
   -4.4073    4.1645   11.3326 C   0  0  0  0  0  0  0  0  0  0  0  0
   -5.1352    5.0720   12.1062 C   0  0  0  0  0  0  0  0  0  0  0  0
   -4.4400    5.7169   13.1056 C   0  0  0  0  0  0  0  0  0  0  0  0
   -3.1054    5.4762   13.3232 C   0  0  0  0  0  0  0  0  0  0  0  0
    4.9377   -2.5960   16.1100 C   0  0  0  0  0  0  0  0  0  0  0  0
  1  2  1  0
  2  3  1  0
  3  4  1  0
  4  5  2  0
  4  6  1  0
  6  7  2  0
  7  8  1  0
  8  9  2  0
  9 10  1  0
 10 11  2  0
 10 12  1  0
 12 13  3  0
  9 14  1  0
 14 15  1  0
 15 16  1  0
 16 17  1  0
 17 18  1  0
 18 19  1  0
 17 20  1  0
 20 21  2  0
 20 22  1  0
 22 23  1  0
 23 24  2  0
 23 25  2  0
 23 26  1  0
 26 27  1  0
 27 28  2  0
 28 29  1  0
 29 30  2  0
 30 31  1  0
 31 32  2  0
  7 33  1  0
 11  6  1  0
 19 14  1  0
 32 27  1  0
M  END
$$$$
