
     RDKit          3D

 33 35  0  0  0  0  0  0  0  0999 V2000
    0.5300    7.7457    6.8468 C   0  0  0  0  0  0  0  0  0  0  0  0
    1.5625    6.7240    6.4212 C   0  0  0  0  0  0  0  0  0  0  0  0
    1.6698    5.7693    7.4638 O   0  0  0  0  0  0  0  0  0  0  0  0
    2.6763    4.8333    7.5237 C   0  0  0  0  0  0  0  0  0  0  0  0
    3.3205    4.6322    6.4592 O   0  0  0  0  0  0  0  0  0  0  0  0
    2.9537    4.1354    8.7596 C   0  0  0  0  0  0  0  0  0  0  0  0
    3.8806    3.1243    8.7930 C   0  0  0  0  0  0  0  0  0  0  0  0
    4.1335    2.4814    9.9436 N   0  0  0  0  0  0  0  0  0  0  0  0
    3.5124    2.7730   11.1232 C   0  0  0  0  0  0  0  0  0  0  0  0
    2.5741    3.7763   11.1479 C   0  0  0  0  0  0  0  0  0  0  0  0
    2.3212    4.4372    9.9423 C   0  0  0  0  0  0  0  0  0  0  0  0
    1.8421    4.1472   12.3270 C   0  0  0  0  0  0  0  0  0  0  0  0
    1.2640    4.4613   13.2844 N   0  0  0  0  0  0  0  0  0  0  0  0
    3.8776    2.0517   12.3017 N   0  0  0  0  0  0  0  0  0  0  0  0
    5.2428    1.5707   12.3765 C   0  0  0  0  0  0  0  0  0  0  0  0
    5.3291    0.2334   13.0817 C   0  0  0  0  0  0  0  0  0  0  0  0
    4.6768    0.2978   14.4469 C   0  0  0  0  0  0  0  0  0  0  0  0
    3.9005    1.5583   14.6406 C   0  0  0  0  0  0  0  0  0  0  0  0
    3.0052    1.7996   13.4122 C   0  0  0  0  0  0  0  0  0  0  0  0
    3.7732   -0.8689   14.5835 C   0  0  0  0  0  0  0  0  0  0  0  0
    3.4964   -1.6602   13.6444 O   0  0  0  0  0  0  0  0  0  0  0  0
    3.1565   -1.1434   15.8566 N   0  0  0  0  0  0  0  0  0  0  0  0
    3.4810   -2.6373   16.6888 S   0  0  0  0  0  6  0  0  0  0  0  0
    4.6782   -2.4859   17.5853 O   0  0  0  0  0  0  0  0  0  0  0  0
    3.6556   -3.7052   15.6729 O   0  0  0  0  0  0  0  0  0  0  0  0
    2.0598   -3.0847   17.6898 C   0  0  0  0  0  0  0  0  0  0  0  0
    0.9479   -3.4794   16.8049 C   0  0  0  0  0  0  0  0  0  0  0  0
    0.2445   -2.5922   16.0173 C   0  0  0  0  0  0  0  0  0  0  0  0
   -0.7872   -3.0228   15.2119 C   0  0  0  0  0  0  0  0  0  0  0  0
   -1.1729   -4.3642   15.1496 C   0  0  0  0  0  0  0  0  0  0  0  0
   -0.4628   -5.2405   15.9406 C   0  0  0  0  0  0  0  0  0  0  0  0
    0.5658   -4.8120   16.7437 C   0  0  0  0  0  0  0  0  0  0  0  0
    4.6497    2.6892    7.5679 C   0  0  0  0  0  0  0  0  0  0  0  0
  1  2  1  0
  2  3  1  0
  3  4  1  0
  4  5  2  0
  4  6  1  0
  6  7  2  0
  7  8  1  0
  8  9  2  0
  9 10  1  0
 10 11  2  0
 10 12  1  0
 12 13  3  0
  9 14  1  0
 14 15  1  0
 15 16  1  0
 16 17  1  0
 17 18  1  0
 18 19  1  0
 17 20  1  0
 20 21  2  0
 20 22  1  0
 22 23  1  0
 23 24  2  0
 23 25  2  0
 23 26  1  0
 26 27  1  0
 27 28  2  0
 28 29  1  0
 29 30  2  0
 30 31  1  0
 31 32  2  0
  7 33  1  0
 11  6  1  0
 19 14  1  0
 32 27  1  0
M  END
$$$$
