
     RDKit          3D

 33 35  0  0  0  0  0  0  0  0999 V2000
    3.7939   -6.9228   16.4088 C   0  0  0  0  0  0  0  0  0  0  0  0
    5.0728   -6.5344   15.6984 C   0  0  0  0  0  0  0  0  0  0  0  0
    4.8633   -5.2600   15.1136 O   0  0  0  0  0  0  0  0  0  0  0  0
    5.4399   -4.8757   13.9252 C   0  0  0  0  0  0  0  0  0  0  0  0
    6.1782   -5.7254   13.3582 O   0  0  0  0  0  0  0  0  0  0  0  0
    5.1905   -3.5582   13.3834 C   0  0  0  0  0  0  0  0  0  0  0  0
    3.9079   -3.0829   13.2760 C   0  0  0  0  0  0  0  0  0  0  0  0
    3.6839   -1.8590   12.7729 N   0  0  0  0  0  0  0  0  0  0  0  0
    4.6766   -1.0253   12.3464 C   0  0  0  0  0  0  0  0  0  0  0  0
    5.9804   -1.4501   12.4298 C   0  0  0  0  0  0  0  0  0  0  0  0
    6.1985   -2.7268   12.9559 C   0  0  0  0  0  0  0  0  0  0  0  0
    7.0990   -0.6656   11.9856 C   0  0  0  0  0  0  0  0  0  0  0  0
    7.9924   -0.0147   11.6288 N   0  0  0  0  0  0  0  0  0  0  0  0
    4.3355    0.2737   11.8575 N   0  0  0  0  0  0  0  0  0  0  0  0
    5.4212    1.0832   11.3411 C   0  0  0  0  0  0  0  0  0  0  0  0
    5.2207    2.5527   11.6475 C   0  0  0  0  0  0  0  0  0  0  0  0
    3.8727    3.0309   11.1500 C   0  0  0  0  0  0  0  0  0  0  0  0
    2.9948    1.8992   10.7285 C   0  0  0  0  0  0  0  0  0  0  0  0
    3.0064    0.8119   11.8177 C   0  0  0  0  0  0  0  0  0  0  0  0
    3.2181    3.7880   12.2429 C   0  0  0  0  0  0  0  0  0  0  0  0
    3.7571    4.0297   13.3545 O   0  0  0  0  0  0  0  0  0  0  0  0
    1.8816    4.2930   12.0546 N   0  0  0  0  0  0  0  0  0  0  0  0
    1.2777    5.5818   13.0564 S   0  0  0  0  0  6  0  0  0  0  0  0
    2.1016    6.8241   12.8617 O   0  0  0  0  0  0  0  0  0  0  0  0
    1.2722    5.1110   14.4640 O   0  0  0  0  0  0  0  0  0  0  0  0
   -0.4238    5.9387   12.6098 C   0  0  0  0  0  0  0  0  0  0  0  0
   -0.5395    5.9891   11.1404 C   0  0  0  0  0  0  0  0  0  0  0  0
   -0.7982    4.8856   10.3546 C   0  0  0  0  0  0  0  0  0  0  0  0
   -0.8928    4.9971    8.9845 C   0  0  0  0  0  0  0  0  0  0  0  0
   -0.7338    6.2180    8.3243 C   0  0  0  0  0  0  0  0  0  0  0  0
   -0.4760    7.3127    9.1198 C   0  0  0  0  0  0  0  0  0  0  0  0
   -0.3816    7.2024   10.4856 C   0  0  0  0  0  0  0  0  0  0  0  0
    2.7060   -3.8896   13.7077 C   0  0  0  0  0  0  0  0  0  0  0  0
  1  2  1  0
  2  3  1  0
  3  4  1  0
  4  5  2  0
  4  6  1  0
  6  7  2  0
  7  8  1  0
  8  9  2  0
  9 10  1  0
 10 11  2  0
 10 12  1  0
 12 13  3  0
  9 14  1  0
 14 15  1  0
 15 16  1  0
 16 17  1  0
 17 18  1  0
 18 19  1  0
 17 20  1  0
 20 21  2  0
 20 22  1  0
 22 23  1  0
 23 24  2  0
 23 25  2  0
 23 26  1  0
 26 27  1  0
 27 28  2  0
 28 29  1  0
 29 30  2  0
 30 31  1  0
 31 32  2  0
  7 33  1  0
 11  6  1  0
 19 14  1  0
 32 27  1  0
M  END
$$$$
