
     RDKit          3D

 33 35  0  0  0  0  0  0  0  0999 V2000
   10.0834    3.3407    5.9297 C   0  0  0  0  0  0  0  0  0  0  0  0
   10.1204    2.0641    6.7419 C   0  0  0  0  0  0  0  0  0  0  0  0
    8.9683    2.0529    7.5680 O   0  0  0  0  0  0  0  0  0  0  0  0
    8.7969    1.1655    8.6051 C   0  0  0  0  0  0  0  0  0  0  0  0
    9.7395    0.3550    8.8125 O   0  0  0  0  0  0  0  0  0  0  0  0
    7.5861    1.1890    9.3956 C   0  0  0  0  0  0  0  0  0  0  0  0
    6.4358    1.7380    8.8877 C   0  0  0  0  0  0  0  0  0  0  0  0
    5.3156    1.7557    9.6267 N   0  0  0  0  0  0  0  0  0  0  0  0
    5.2377    1.2483   10.8911 C   0  0  0  0  0  0  0  0  0  0  0  0
    6.3600    0.6871   11.4504 C   0  0  0  0  0  0  0  0  0  0  0  0
    7.5192    0.6754   10.6691 C   0  0  0  0  0  0  0  0  0  0  0  0
    6.3968    0.1484   12.7817 C   0  0  0  0  0  0  0  0  0  0  0  0
    6.4246   -0.2685   13.8655 N   0  0  0  0  0  0  0  0  0  0  0  0
    3.9875    1.2854   11.5826 N   0  0  0  0  0  0  0  0  0  0  0  0
    2.7928    1.3823   10.7677 C   0  0  0  0  0  0  0  0  0  0  0  0
    1.7250    2.2240   11.4346 C   0  0  0  0  0  0  0  0  0  0  0  0
    1.4201    1.7095   12.8259 C   0  0  0  0  0  0  0  0  0  0  0  0
    2.4114    0.6888   13.2781 C   0  0  0  0  0  0  0  0  0  0  0  0
    3.8354    1.2058   13.0068 C   0  0  0  0  0  0  0  0  0  0  0  0
    1.4320    2.8616   13.7580 C   0  0  0  0  0  0  0  0  0  0  0  0
    2.0682    2.8835   14.8440 O   0  0  0  0  0  0  0  0  0  0  0  0
    0.6791    4.0462   13.4315 N   0  0  0  0  0  0  0  0  0  0  0  0
   -0.0752    4.9847   14.6883 S   0  0  0  0  0  6  0  0  0  0  0  0
   -1.0991    5.9158   14.1012 O   0  0  0  0  0  0  0  0  0  0  0  0
    0.9897    5.6996   15.4354 O   0  0  0  0  0  0  0  0  0  0  0  0
   -0.8900    3.8842   15.8488 C   0  0  0  0  0  0  0  0  0  0  0  0
   -2.3512    4.0302   15.7120 C   0  0  0  0  0  0  0  0  0  0  0  0
   -2.9612    5.1332   15.1520 C   0  0  0  0  0  0  0  0  0  0  0  0
   -4.3334    5.2114   15.0543 C   0  0  0  0  0  0  0  0  0  0  0  0
   -5.1715    4.1913   15.5111 C   0  0  0  0  0  0  0  0  0  0  0  0
   -4.5506    3.0950   16.0681 C   0  0  0  0  0  0  0  0  0  0  0  0
   -3.1828    3.0163   16.1659 C   0  0  0  0  0  0  0  0  0  0  0  0
    6.3668    2.3375    7.5030 C   0  0  0  0  0  0  0  0  0  0  0  0
  1  2  1  0
  2  3  1  0
  3  4  1  0
  4  5  2  0
  4  6  1  0
  6  7  2  0
  7  8  1  0
  8  9  2  0
  9 10  1  0
 10 11  2  0
 10 12  1  0
 12 13  3  0
  9 14  1  0
 14 15  1  0
 15 16  1  0
 16 17  1  0
 17 18  1  0
 18 19  1  0
 17 20  1  0
 20 21  2  0
 20 22  1  0
 22 23  1  0
 23 24  2  0
 23 25  2  0
 23 26  1  0
 26 27  1  0
 27 28  2  0
 28 29  1  0
 29 30  2  0
 30 31  1  0
 31 32  2  0
  7 33  1  0
 11  6  1  0
 19 14  1  0
 32 27  1  0
M  END
$$$$
