
     RDKit          3D

 33 35  0  0  0  0  0  0  0  0999 V2000
    8.0008    1.6585    4.6264 C   0  0  0  0  0  0  0  0  0  0  0  0
    6.7074    2.4098    4.8580 C   0  0  0  0  0  0  0  0  0  0  0  0
    6.2818    2.1248    6.1799 O   0  0  0  0  0  0  0  0  0  0  0  0
    5.4601    2.9604    6.9004 C   0  0  0  0  0  0  0  0  0  0  0  0
    5.0380    3.9862    6.3021 O   0  0  0  0  0  0  0  0  0  0  0  0
    5.1186    2.6478    8.2705 C   0  0  0  0  0  0  0  0  0  0  0  0
    4.2117    3.4184    8.9533 C   0  0  0  0  0  0  0  0  0  0  0  0
    3.8991    3.1220   10.2244 N   0  0  0  0  0  0  0  0  0  0  0  0
    4.4382    2.0716   10.9087 C   0  0  0  0  0  0  0  0  0  0  0  0
    5.3529    1.2666   10.2742 C   0  0  0  0  0  0  0  0  0  0  0  0
    5.6687    1.5871    8.9507 C   0  0  0  0  0  0  0  0  0  0  0  0
    6.0012    0.1521   10.9079 C   0  0  0  0  0  0  0  0  0  0  0  0
    6.5385   -0.7498   11.4050 N   0  0  0  0  0  0  0  0  0  0  0  0
    4.0132    1.8202   12.2499 N   0  0  0  0  0  0  0  0  0  0  0  0
    3.9622    0.4340   12.6700 C   0  0  0  0  0  0  0  0  0  0  0  0
    2.8107    0.1771   13.6195 C   0  0  0  0  0  0  0  0  0  0  0  0
    2.8605    1.1242   14.8001 C   0  0  0  0  0  0  0  0  0  0  0  0
    3.8562    2.2189   14.6017 C   0  0  0  0  0  0  0  0  0  0  0  0
    3.6660    2.8338   13.2037 C   0  0  0  0  0  0  0  0  0  0  0  0
    1.5102    1.7070   14.9829 C   0  0  0  0  0  0  0  0  0  0  0  0
    0.7947    2.1379   14.0411 O   0  0  0  0  0  0  0  0  0  0  0  0
    0.9516    1.8012   16.3080 N   0  0  0  0  0  0  0  0  0  0  0  0
   -0.7729    1.7691   16.5412 S   0  0  0  0  0  6  0  0  0  0  0  0
   -1.3651    3.1183   16.2433 O   0  0  0  0  0  0  0  0  0  0  0  0
   -1.0446    1.3161   17.9283 O   0  0  0  0  0  0  0  0  0  0  0  0
   -1.5031    0.5584   15.4353 C   0  0  0  0  0  0  0  0  0  0  0  0
   -0.5438   -0.5403   15.2171 C   0  0  0  0  0  0  0  0  0  0  0  0
   -0.2420   -1.4931   16.1675 C   0  0  0  0  0  0  0  0  0  0  0  0
    0.6660   -2.4954   15.9035 C   0  0  0  0  0  0  0  0  0  0  0  0
    1.3226   -2.6003   14.6748 C   0  0  0  0  0  0  0  0  0  0  0  0
    1.0127   -1.6431   13.7338 C   0  0  0  0  0  0  0  0  0  0  0  0
    0.1077   -0.6437   13.9962 C   0  0  0  0  0  0  0  0  0  0  0  0
    3.5307    4.6132    8.3285 C   0  0  0  0  0  0  0  0  0  0  0  0
  1  2  1  0
  2  3  1  0
  3  4  1  0
  4  5  2  0
  4  6  1  0
  6  7  2  0
  7  8  1  0
  8  9  2  0
  9 10  1  0
 10 11  2  0
 10 12  1  0
 12 13  3  0
  9 14  1  0
 14 15  1  0
 15 16  1  0
 16 17  1  0
 17 18  1  0
 18 19  1  0
 17 20  1  0
 20 21  2  0
 20 22  1  0
 22 23  1  0
 23 24  2  0
 23 25  2  0
 23 26  1  0
 26 27  1  0
 27 28  2  0
 28 29  1  0
 29 30  2  0
 30 31  1  0
 31 32  2  0
  7 33  1  0
 11  6  1  0
 19 14  1  0
 32 27  1  0
M  END
$$$$
