
     RDKit          3D

 33 35  0  0  0  0  0  0  0  0999 V2000
    5.7554   -5.1246   19.1442 C   0  0  0  0  0  0  0  0  0  0  0  0
    4.9120   -5.3952   17.9169 C   0  0  0  0  0  0  0  0  0  0  0  0
    5.1346   -4.3319   17.0060 O   0  0  0  0  0  0  0  0  0  0  0  0
    4.4088   -4.1708   15.8485 C   0  0  0  0  0  0  0  0  0  0  0  0
    3.5100   -5.0257   15.6254 O   0  0  0  0  0  0  0  0  0  0  0  0
    4.6887   -3.0669   14.9570 C   0  0  0  0  0  0  0  0  0  0  0  0
    3.9273   -2.8724   13.8323 C   0  0  0  0  0  0  0  0  0  0  0  0
    4.1923   -1.8455   13.0099 N   0  0  0  0  0  0  0  0  0  0  0  0
    5.2004   -0.9503   13.2212 C   0  0  0  0  0  0  0  0  0  0  0  0
    5.9955   -1.0975   14.3318 C   0  0  0  0  0  0  0  0  0  0  0  0
    5.7077   -2.1713   15.1795 C   0  0  0  0  0  0  0  0  0  0  0  0
    7.0993   -0.2299   14.6363 C   0  0  0  0  0  0  0  0  0  0  0  0
    7.9836    0.4859   14.8709 N   0  0  0  0  0  0  0  0  0  0  0  0
    5.3791    0.1297   12.3024 N   0  0  0  0  0  0  0  0  0  0  0  0
    6.3688    1.1288   12.6532 C   0  0  0  0  0  0  0  0  0  0  0  0
    5.9480    2.5150   12.2120 C   0  0  0  0  0  0  0  0  0  0  0  0
    5.6216    2.5372   10.7334 C   0  0  0  0  0  0  0  0  0  0  0  0
    5.5450    1.1636   10.1534 C   0  0  0  0  0  0  0  0  0  0  0  0
    4.6756    0.2749   11.0607 C   0  0  0  0  0  0  0  0  0  0  0  0
    4.3208    3.2250   10.5570 C   0  0  0  0  0  0  0  0  0  0  0  0
    3.4166    3.2587   11.4320 O   0  0  0  0  0  0  0  0  0  0  0  0
    4.0412    3.9073    9.3189 N   0  0  0  0  0  0  0  0  0  0  0  0
    2.8765    5.1997    9.2689 S   0  0  0  0  0  6  0  0  0  0  0  0
    3.3212    6.2662    8.3073 O   0  0  0  0  0  0  0  0  0  0  0  0
    2.6930    5.7118   10.6499 O   0  0  0  0  0  0  0  0  0  0  0  0
    1.2913    4.5550    8.7273 C   0  0  0  0  0  0  0  0  0  0  0  0
    1.3567    4.2549    7.2848 C   0  0  0  0  0  0  0  0  0  0  0  0
    2.4447    4.5496    6.4901 C   0  0  0  0  0  0  0  0  0  0  0  0
    2.4445    4.2456    5.1462 C   0  0  0  0  0  0  0  0  0  0  0  0
    1.3563    3.6303    4.5224 C   0  0  0  0  0  0  0  0  0  0  0  0
    0.2758    3.3407    5.3265 C   0  0  0  0  0  0  0  0  0  0  0  0
    0.2753    3.6435    6.6662 C   0  0  0  0  0  0  0  0  0  0  0  0
    2.7764   -3.7797   13.4661 C   0  0  0  0  0  0  0  0  0  0  0  0
  1  2  1  0
  2  3  1  0
  3  4  1  0
  4  5  2  0
  4  6  1  0
  6  7  2  0
  7  8  1  0
  8  9  2  0
  9 10  1  0
 10 11  2  0
 10 12  1  0
 12 13  3  0
  9 14  1  0
 14 15  1  0
 15 16  1  0
 16 17  1  0
 17 18  1  0
 18 19  1  0
 17 20  1  0
 20 21  2  0
 20 22  1  0
 22 23  1  0
 23 24  2  0
 23 25  2  0
 23 26  1  0
 26 27  1  0
 27 28  2  0
 28 29  1  0
 29 30  2  0
 30 31  1  0
 31 32  2  0
  7 33  1  0
 11  6  1  0
 19 14  1  0
 32 27  1  0
M  END
$$$$
