
     RDKit          3D

 33 35  0  0  0  0  0  0  0  0999 V2000
   -1.5460   -5.5463   16.4079 C   0  0  0  0  0  0  0  0  0  0  0  0
   -0.1072   -5.8719   16.0690 C   0  0  0  0  0  0  0  0  0  0  0  0
    0.5222   -4.6617   15.6825 O   0  0  0  0  0  0  0  0  0  0  0  0
    1.8377   -4.5933   15.2859 C   0  0  0  0  0  0  0  0  0  0  0  0
    2.4912   -5.6705   15.3190 O   0  0  0  0  0  0  0  0  0  0  0  0
    2.4087   -3.3350   14.8592 C   0  0  0  0  0  0  0  0  0  0  0  0
    3.3244   -3.2987   13.8381 C   0  0  0  0  0  0  0  0  0  0  0  0
    3.8497   -2.1273   13.4469 N   0  0  0  0  0  0  0  0  0  0  0  0
    3.5254   -0.9285   14.0127 C   0  0  0  0  0  0  0  0  0  0  0  0
    2.6140   -0.9055   15.0403 C   0  0  0  0  0  0  0  0  0  0  0  0
    2.0751   -2.1329   15.4370 C   0  0  0  0  0  0  0  0  0  0  0  0
    2.2213    0.2954   15.7240 C   0  0  0  0  0  0  0  0  0  0  0  0
    1.8889    1.2563   16.2857 N   0  0  0  0  0  0  0  0  0  0  0  0
    4.1160    0.2679   13.5004 N   0  0  0  0  0  0  0  0  0  0  0  0
    3.5463    1.5223   13.9504 C   0  0  0  0  0  0  0  0  0  0  0  0
    3.5672    2.5721   12.8591 C   0  0  0  0  0  0  0  0  0  0  0  0
    4.9659    2.7521   12.3073 C   0  0  0  0  0  0  0  0  0  0  0  0
    5.8997    1.6888   12.7832 C   0  0  0  0  0  0  0  0  0  0  0  0
    5.2367    0.3112   12.6058 C   0  0  0  0  0  0  0  0  0  0  0  0
    4.8874    2.7194   10.8278 C   0  0  0  0  0  0  0  0  0  0  0  0
    5.2637    1.7467   10.1230 O   0  0  0  0  0  0  0  0  0  0  0  0
    4.3521    3.8550   10.1204 N   0  0  0  0  0  0  0  0  0  0  0  0
    3.7883    3.6868    8.4824 S   0  0  0  0  0  6  0  0  0  0  0  0
    4.8511    3.0556    7.6268 O   0  0  0  0  0  0  0  0  0  0  0  0
    3.3783    5.0269    7.9934 O   0  0  0  0  0  0  0  0  0  0  0  0
    2.3280    2.6433    8.4571 C   0  0  0  0  0  0  0  0  0  0  0  0
    1.2852    3.2473    9.3072 C   0  0  0  0  0  0  0  0  0  0  0  0
    0.9600    2.7846   10.5652 C   0  0  0  0  0  0  0  0  0  0  0  0
   -0.0270    3.3916   11.3108 C   0  0  0  0  0  0  0  0  0  0  0  0
   -0.7435    4.4946   10.8400 C   0  0  0  0  0  0  0  0  0  0  0  0
   -0.4096    4.9475    9.5826 C   0  0  0  0  0  0  0  0  0  0  0  0
    0.5741    4.3430    8.8387 C   0  0  0  0  0  0  0  0  0  0  0  0
    3.7809   -4.5436   13.1145 C   0  0  0  0  0  0  0  0  0  0  0  0
  1  2  1  0
  2  3  1  0
  3  4  1  0
  4  5  2  0
  4  6  1  0
  6  7  2  0
  7  8  1  0
  8  9  2  0
  9 10  1  0
 10 11  2  0
 10 12  1  0
 12 13  3  0
  9 14  1  0
 14 15  1  0
 15 16  1  0
 16 17  1  0
 17 18  1  0
 18 19  1  0
 17 20  1  0
 20 21  2  0
 20 22  1  0
 22 23  1  0
 23 24  2  0
 23 25  2  0
 23 26  1  0
 26 27  1  0
 27 28  2  0
 28 29  1  0
 29 30  2  0
 30 31  1  0
 31 32  2  0
  7 33  1  0
 11  6  1  0
 19 14  1  0
 32 27  1  0
M  END
$$$$
