
     RDKit          3D

 33 35  0  0  0  0  0  0  0  0999 V2000
    0.2749    7.5912    6.6881 C   0  0  0  0  0  0  0  0  0  0  0  0
    1.4509    6.6786    6.4140 C   0  0  0  0  0  0  0  0  0  0  0  0
    1.7436    5.9900    7.6182 O   0  0  0  0  0  0  0  0  0  0  0  0
    2.6972    5.0023    7.7052 C   0  0  0  0  0  0  0  0  0  0  0  0
    3.2652    4.6734    6.6292 O   0  0  0  0  0  0  0  0  0  0  0  0
    3.0068    4.3946    8.9805 C   0  0  0  0  0  0  0  0  0  0  0  0
    3.9262    3.3793    9.0609 C   0  0  0  0  0  0  0  0  0  0  0  0
    4.2092    2.8205   10.2478 N   0  0  0  0  0  0  0  0  0  0  0  0
    3.6267    3.2046   11.4207 C   0  0  0  0  0  0  0  0  0  0  0  0
    2.6976    4.2164   11.3991 C   0  0  0  0  0  0  0  0  0  0  0  0
    2.4131    4.7892   10.1560 C   0  0  0  0  0  0  0  0  0  0  0  0
    2.0049    4.6806   12.5689 C   0  0  0  0  0  0  0  0  0  0  0  0
    1.4419    5.0738   13.5058 N   0  0  0  0  0  0  0  0  0  0  0  0
    4.0222    2.5685   12.6379 N   0  0  0  0  0  0  0  0  0  0  0  0
    5.4160    2.1882   12.7534 C   0  0  0  0  0  0  0  0  0  0  0  0
    5.5833    0.8958   13.5249 C   0  0  0  0  0  0  0  0  0  0  0  0
    4.9065    0.9806   14.8770 C   0  0  0  0  0  0  0  0  0  0  0  0
    4.0419    2.1917   14.9984 C   0  0  0  0  0  0  0  0  0  0  0  0
    3.1517    2.3102   13.7485 C   0  0  0  0  0  0  0  0  0  0  0  0
    4.0836   -0.2384   15.0597 C   0  0  0  0  0  0  0  0  0  0  0  0
    3.2638   -0.6701   14.2076 O   0  0  0  0  0  0  0  0  0  0  0  0
    4.2050   -1.0004   16.2768 N   0  0  0  0  0  0  0  0  0  0  0  0
    3.9222   -2.7178   16.2727 S   0  0  0  0  0  6  0  0  0  0  0  0
    3.1565   -3.1236   17.5010 O   0  0  0  0  0  0  0  0  0  0  0  0
    5.2340   -3.4032   16.1611 O   0  0  0  0  0  0  0  0  0  0  0  0
    2.9661   -3.1626   14.8201 C   0  0  0  0  0  0  0  0  0  0  0  0
    2.3759   -4.4995   15.0183 C   0  0  0  0  0  0  0  0  0  0  0  0
    1.1983   -4.7230   15.7006 C   0  0  0  0  0  0  0  0  0  0  0  0
    0.6986   -5.9979   15.8541 C   0  0  0  0  0  0  0  0  0  0  0  0
    1.3487   -7.1198   15.3340 C   0  0  0  0  0  0  0  0  0  0  0  0
    2.5236   -6.8838   14.6546 C   0  0  0  0  0  0  0  0  0  0  0  0
    3.0224   -5.6133   14.5012 C   0  0  0  0  0  0  0  0  0  0  0  0
    4.6541    2.8474    7.8489 C   0  0  0  0  0  0  0  0  0  0  0  0
  1  2  1  0
  2  3  1  0
  3  4  1  0
  4  5  2  0
  4  6  1  0
  6  7  2  0
  7  8  1  0
  8  9  2  0
  9 10  1  0
 10 11  2  0
 10 12  1  0
 12 13  3  0
  9 14  1  0
 14 15  1  0
 15 16  1  0
 16 17  1  0
 17 18  1  0
 18 19  1  0
 17 20  1  0
 20 21  2  0
 20 22  1  0
 22 23  1  0
 23 24  2  0
 23 25  2  0
 23 26  1  0
 26 27  1  0
 27 28  2  0
 28 29  1  0
 29 30  2  0
 30 31  1  0
 31 32  2  0
  7 33  1  0
 11  6  1  0
 19 14  1  0
 32 27  1  0
M  END
$$$$
