
     RDKit          3D

 33 35  0  0  0  0  0  0  0  0999 V2000
    9.3644   -4.4811   11.8173 C   0  0  0  0  0  0  0  0  0  0  0  0
    9.4358   -3.5346   12.9962 C   0  0  0  0  0  0  0  0  0  0  0  0
    8.1416   -2.9855   13.1788 O   0  0  0  0  0  0  0  0  0  0  0  0
    7.8817   -1.9476   14.0435 C   0  0  0  0  0  0  0  0  0  0  0  0
    8.5105   -1.9555   15.1358 O   0  0  0  0  0  0  0  0  0  0  0  0
    6.9310   -0.9181   13.6860 C   0  0  0  0  0  0  0  0  0  0  0  0
    6.2870   -0.1988   14.6609 C   0  0  0  0  0  0  0  0  0  0  0  0
    5.4065    0.7557   14.3218 N   0  0  0  0  0  0  0  0  0  0  0  0
    5.0963    1.0720   13.0310 C   0  0  0  0  0  0  0  0  0  0  0  0
    5.7108    0.3827   12.0138 C   0  0  0  0  0  0  0  0  0  0  0  0
    6.6256   -0.6082   12.3818 C   0  0  0  0  0  0  0  0  0  0  0  0
    5.4391    0.6154   10.6224 C   0  0  0  0  0  0  0  0  0  0  0  0
    5.2348    0.8166    9.4967 N   0  0  0  0  0  0  0  0  0  0  0  0
    4.1695    2.1292   12.7746 N   0  0  0  0  0  0  0  0  0  0  0  0
    4.0302    3.1399   13.8041 C   0  0  0  0  0  0  0  0  0  0  0  0
    2.6060    3.6446   13.9063 C   0  0  0  0  0  0  0  0  0  0  0  0
    2.1068    4.1335   12.5628 C   0  0  0  0  0  0  0  0  0  0  0  0
    3.0294    3.7601   11.4499 C   0  0  0  0  0  0  0  0  0  0  0  0
    3.3997    2.2713   11.5725 C   0  0  0  0  0  0  0  0  0  0  0  0
    0.7706    3.5396   12.3217 C   0  0  0  0  0  0  0  0  0  0  0  0
    0.5625    2.5547   11.5659 O   0  0  0  0  0  0  0  0  0  0  0  0
   -0.3837    4.1001   12.9775 N   0  0  0  0  0  0  0  0  0  0  0  0
   -1.9304    3.3096   12.8664 S   0  0  0  0  0  6  0  0  0  0  0  0
   -2.8020    3.7027   14.0265 O   0  0  0  0  0  0  0  0  0  0  0  0
   -1.6983    1.8455   12.7926 O   0  0  0  0  0  0  0  0  0  0  0  0
   -2.7417    3.7956   11.3408 C   0  0  0  0  0  0  0  0  0  0  0  0
   -1.7434    4.3773   10.4242 C   0  0  0  0  0  0  0  0  0  0  0  0
   -1.9166    5.5763    9.7648 C   0  0  0  0  0  0  0  0  0  0  0  0
   -0.9461    6.0666    8.9184 C   0  0  0  0  0  0  0  0  0  0  0  0
    0.2509    5.3854    8.6844 C   0  0  0  0  0  0  0  0  0  0  0  0
    0.4122    4.1894    9.3487 C   0  0  0  0  0  0  0  0  0  0  0  0
   -0.5547    3.6999   10.1926 C   0  0  0  0  0  0  0  0  0  0  0  0
    6.5273   -0.4340   16.1335 C   0  0  0  0  0  0  0  0  0  0  0  0
  1  2  1  0
  2  3  1  0
  3  4  1  0
  4  5  2  0
  4  6  1  0
  6  7  2  0
  7  8  1  0
  8  9  2  0
  9 10  1  0
 10 11  2  0
 10 12  1  0
 12 13  3  0
  9 14  1  0
 14 15  1  0
 15 16  1  0
 16 17  1  0
 17 18  1  0
 18 19  1  0
 17 20  1  0
 20 21  2  0
 20 22  1  0
 22 23  1  0
 23 24  2  0
 23 25  2  0
 23 26  1  0
 26 27  1  0
 27 28  2  0
 28 29  1  0
 29 30  2  0
 30 31  1  0
 31 32  2  0
  7 33  1  0
 11  6  1  0
 19 14  1  0
 32 27  1  0
M  END
$$$$
