
     RDKit          3D

 33 35  0  0  0  0  0  0  0  0999 V2000
   10.6785    1.8894    6.7380 C   0  0  0  0  0  0  0  0  0  0  0  0
    9.2529    2.3034    6.4428 C   0  0  0  0  0  0  0  0  0  0  0  0
    8.4540    1.8839    7.5362 O   0  0  0  0  0  0  0  0  0  0  0  0
    7.0847    2.0149    7.5591 C   0  0  0  0  0  0  0  0  0  0  0  0
    6.5622    2.6233    6.5867 O   0  0  0  0  0  0  0  0  0  0  0  0
    6.3159    1.4712    8.6567 C   0  0  0  0  0  0  0  0  0  0  0  0
    4.9597    1.3010    8.5375 C   0  0  0  0  0  0  0  0  0  0  0  0
    4.2527    0.7952    9.5599 N   0  0  0  0  0  0  0  0  0  0  0  0
    4.8072    0.4251   10.7507 C   0  0  0  0  0  0  0  0  0  0  0  0
    6.1616    0.5745   10.9260 C   0  0  0  0  0  0  0  0  0  0  0  0
    6.8852    1.1023    9.8526 C   0  0  0  0  0  0  0  0  0  0  0  0
    6.8437    0.2427   12.1460 C   0  0  0  0  0  0  0  0  0  0  0  0
    7.4090   -0.0115   13.1284 N   0  0  0  0  0  0  0  0  0  0  0  0
    3.9718   -0.1356   11.7657 N   0  0  0  0  0  0  0  0  0  0  0  0
    2.8314   -0.9104   11.3189 C   0  0  0  0  0  0  0  0  0  0  0  0
    1.6387   -0.7336   12.2352 C   0  0  0  0  0  0  0  0  0  0  0  0
    2.0072   -1.0461   13.6705 C   0  0  0  0  0  0  0  0  0  0  0  0
    3.4819   -1.1907   13.8540 C   0  0  0  0  0  0  0  0  0  0  0  0
    4.1983   -0.0090   13.1766 C   0  0  0  0  0  0  0  0  0  0  0  0
    1.5049    0.0539   14.5271 C   0  0  0  0  0  0  0  0  0  0  0  0
    1.4965    1.2657   14.1862 O   0  0  0  0  0  0  0  0  0  0  0  0
    0.9869   -0.2474   15.8377 N   0  0  0  0  0  0  0  0  0  0  0  0
   -0.3694    0.6387   16.4740 S   0  0  0  0  0  6  0  0  0  0  0  0
   -0.0535    1.1608   17.8478 O   0  0  0  0  0  0  0  0  0  0  0  0
   -1.5551   -0.2539   16.4573 O   0  0  0  0  0  0  0  0  0  0  0  0
   -0.7351    2.0266   15.3962 C   0  0  0  0  0  0  0  0  0  0  0  0
   -1.5733    2.9981   16.1234 C   0  0  0  0  0  0  0  0  0  0  0  0
   -1.2570    3.5015   17.3678 C   0  0  0  0  0  0  0  0  0  0  0  0
   -2.0834    4.4066   17.9977 C   0  0  0  0  0  0  0  0  0  0  0  0
   -3.2717    4.8582   17.4182 C   0  0  0  0  0  0  0  0  0  0  0  0
   -3.5766    4.3483   16.1753 C   0  0  0  0  0  0  0  0  0  0  0  0
   -2.7534    3.4461   15.5468 C   0  0  0  0  0  0  0  0  0  0  0  0
    4.2051    1.6636    7.2801 C   0  0  0  0  0  0  0  0  0  0  0  0
  1  2  1  0
  2  3  1  0
  3  4  1  0
  4  5  2  0
  4  6  1  0
  6  7  2  0
  7  8  1  0
  8  9  2  0
  9 10  1  0
 10 11  2  0
 10 12  1  0
 12 13  3  0
  9 14  1  0
 14 15  1  0
 15 16  1  0
 16 17  1  0
 17 18  1  0
 18 19  1  0
 17 20  1  0
 20 21  2  0
 20 22  1  0
 22 23  1  0
 23 24  2  0
 23 25  2  0
 23 26  1  0
 26 27  1  0
 27 28  2  0
 28 29  1  0
 29 30  2  0
 30 31  1  0
 31 32  2  0
  7 33  1  0
 11  6  1  0
 19 14  1  0
 32 27  1  0
M  END
$$$$
