
     RDKit          3D

 33 35  0  0  0  0  0  0  0  0999 V2000
   10.8136    1.9461    7.3574 C   0  0  0  0  0  0  0  0  0  0  0  0
   10.6388    1.3286    8.7282 C   0  0  0  0  0  0  0  0  0  0  0  0
    9.3417    0.7583    8.7747 O   0  0  0  0  0  0  0  0  0  0  0  0
    8.7831    0.2569    9.9275 C   0  0  0  0  0  0  0  0  0  0  0  0
    9.5582   -0.3645   10.7032 O   0  0  0  0  0  0  0  0  0  0  0  0
    7.3768    0.4509   10.2036 C   0  0  0  0  0  0  0  0  0  0  0  0
    6.7653   -0.2451   11.2156 C   0  0  0  0  0  0  0  0  0  0  0  0
    5.4601   -0.0595   11.4666 N   0  0  0  0  0  0  0  0  0  0  0  0
    4.6713    0.8028   10.7619 C   0  0  0  0  0  0  0  0  0  0  0  0
    5.2311    1.5255    9.7364 C   0  0  0  0  0  0  0  0  0  0  0  0
    6.5914    1.3221    9.4865 C   0  0  0  0  0  0  0  0  0  0  0  0
    4.4881    2.4398    8.9141 C   0  0  0  0  0  0  0  0  0  0  0  0
    3.8724    3.1656    8.2482 N   0  0  0  0  0  0  0  0  0  0  0  0
    3.2987    0.9535   11.1304 N   0  0  0  0  0  0  0  0  0  0  0  0
    2.5164    1.9016   10.3624 C   0  0  0  0  0  0  0  0  0  0  0  0
    1.4945    2.6141   11.2234 C   0  0  0  0  0  0  0  0  0  0  0  0
    0.6179    1.6211   11.9575 C   0  0  0  0  0  0  0  0  0  0  0  0
    1.1397    0.2261   11.8543 C   0  0  0  0  0  0  0  0  0  0  0  0
    2.6449    0.2197   12.1753 C   0  0  0  0  0  0  0  0  0  0  0  0
    0.5547    2.0245   13.3822 C   0  0  0  0  0  0  0  0  0  0  0  0
    1.2895    2.9065   13.8986 O   0  0  0  0  0  0  0  0  0  0  0  0
   -0.3957    1.3875   14.2584 N   0  0  0  0  0  0  0  0  0  0  0  0
   -1.3577    2.3377   15.3544 S   0  0  0  0  0  6  0  0  0  0  0  0
   -0.6634    3.6333   15.6694 O   0  0  0  0  0  0  0  0  0  0  0  0
   -1.6251    1.5203   16.5642 O   0  0  0  0  0  0  0  0  0  0  0  0
   -2.9444    2.6992   14.5972 C   0  0  0  0  0  0  0  0  0  0  0  0
   -3.1791    4.1548   14.6336 C   0  0  0  0  0  0  0  0  0  0  0  0
   -2.4408    5.0675   13.9096 C   0  0  0  0  0  0  0  0  0  0  0  0
   -2.7078    6.4171   13.9878 C   0  0  0  0  0  0  0  0  0  0  0  0
   -3.7275    6.9287   14.7942 C   0  0  0  0  0  0  0  0  0  0  0  0
   -4.4579    6.0073   15.5122 C   0  0  0  0  0  0  0  0  0  0  0  0
   -4.1923    4.6619   15.4348 C   0  0  0  0  0  0  0  0  0  0  0  0
    7.5081   -1.2340   12.0828 C   0  0  0  0  0  0  0  0  0  0  0  0
  1  2  1  0
  2  3  1  0
  3  4  1  0
  4  5  2  0
  4  6  1  0
  6  7  2  0
  7  8  1  0
  8  9  2  0
  9 10  1  0
 10 11  2  0
 10 12  1  0
 12 13  3  0
  9 14  1  0
 14 15  1  0
 15 16  1  0
 16 17  1  0
 17 18  1  0
 18 19  1  0
 17 20  1  0
 20 21  2  0
 20 22  1  0
 22 23  1  0
 23 24  2  0
 23 25  2  0
 23 26  1  0
 26 27  1  0
 27 28  2  0
 28 29  1  0
 29 30  2  0
 30 31  1  0
 31 32  2  0
  7 33  1  0
 11  6  1  0
 19 14  1  0
 32 27  1  0
M  END
$$$$
