
     RDKit          3D

 33 35  0  0  0  0  0  0  0  0999 V2000
   10.5766    0.0110    9.1821 C   0  0  0  0  0  0  0  0  0  0  0  0
    9.6778    0.5354    8.0830 C   0  0  0  0  0  0  0  0  0  0  0  0
    8.3641    0.6140    8.6102 O   0  0  0  0  0  0  0  0  0  0  0  0
    7.4541    1.5684    8.2184 C   0  0  0  0  0  0  0  0  0  0  0  0
    7.7344    2.2172    7.1749 O   0  0  0  0  0  0  0  0  0  0  0  0
    6.2491    1.7896    8.9871 C   0  0  0  0  0  0  0  0  0  0  0  0
    5.2357    2.5644    8.4820 C   0  0  0  0  0  0  0  0  0  0  0  0
    4.1200    2.7648    9.2005 N   0  0  0  0  0  0  0  0  0  0  0  0
    3.9157    2.2334   10.4407 C   0  0  0  0  0  0  0  0  0  0  0  0
    4.8980    1.4499   10.9961 C   0  0  0  0  0  0  0  0  0  0  0  0
    6.0543    1.2497   10.2363 C   0  0  0  0  0  0  0  0  0  0  0  0
    4.7987    0.8637   12.3039 C   0  0  0  0  0  0  0  0  0  0  0  0
    4.7003    0.3981   13.3636 N   0  0  0  0  0  0  0  0  0  0  0  0
    2.6772    2.4791   11.1102 N   0  0  0  0  0  0  0  0  0  0  0  0
    1.6528    3.1729   10.3552 C   0  0  0  0  0  0  0  0  0  0  0  0
    0.8359    4.0964   11.2346 C   0  0  0  0  0  0  0  0  0  0  0  0
    0.2573    3.3474   12.4167 C   0  0  0  0  0  0  0  0  0  0  0  0
    0.8404    1.9801   12.5566 C   0  0  0  0  0  0  0  0  0  0  0  0
    2.3734    2.0663   12.4501 C   0  0  0  0  0  0  0  0  0  0  0  0
    0.5328    4.1335   13.6424 C   0  0  0  0  0  0  0  0  0  0  0  0
    1.1785    5.2140   13.6569 O   0  0  0  0  0  0  0  0  0  0  0  0
    0.0457    3.6601   14.9133 N   0  0  0  0  0  0  0  0  0  0  0  0
   -0.4956    4.7870   16.1244 S   0  0  0  0  0  6  0  0  0  0  0  0
   -1.9976    4.8397   16.1541 O   0  0  0  0  0  0  0  0  0  0  0  0
    0.1199    6.1068   15.8375 O   0  0  0  0  0  0  0  0  0  0  0  0
    0.0982    4.2638   17.7355 C   0  0  0  0  0  0  0  0  0  0  0  0
    0.7757    2.9605   17.6033 C   0  0  0  0  0  0  0  0  0  0  0  0
    2.1276    2.7765   17.8049 C   0  0  0  0  0  0  0  0  0  0  0  0
    2.7027    1.5323   17.6640 C   0  0  0  0  0  0  0  0  0  0  0  0
    1.9581    0.4034   17.3136 C   0  0  0  0  0  0  0  0  0  0  0  0
    0.6091    0.5998   17.1151 C   0  0  0  0  0  0  0  0  0  0  0  0
    0.0350    1.8397   17.2554 C   0  0  0  0  0  0  0  0  0  0  0  0
    5.3162    3.2184    7.1227 C   0  0  0  0  0  0  0  0  0  0  0  0
  1  2  1  0
  2  3  1  0
  3  4  1  0
  4  5  2  0
  4  6  1  0
  6  7  2  0
  7  8  1  0
  8  9  2  0
  9 10  1  0
 10 11  2  0
 10 12  1  0
 12 13  3  0
  9 14  1  0
 14 15  1  0
 15 16  1  0
 16 17  1  0
 17 18  1  0
 18 19  1  0
 17 20  1  0
 20 21  2  0
 20 22  1  0
 22 23  1  0
 23 24  2  0
 23 25  2  0
 23 26  1  0
 26 27  1  0
 27 28  2  0
 28 29  1  0
 29 30  2  0
 30 31  1  0
 31 32  2  0
  7 33  1  0
 11  6  1  0
 19 14  1  0
 32 27  1  0
M  END
$$$$
