
     RDKit          3D

 33 35  0  0  0  0  0  0  0  0999 V2000
    8.3705    1.6450    5.1057 C   0  0  0  0  0  0  0  0  0  0  0  0
    7.6984    2.8701    5.6873 C   0  0  0  0  0  0  0  0  0  0  0  0
    6.9968    2.4584    6.8484 O   0  0  0  0  0  0  0  0  0  0  0  0
    5.9956    3.2053    7.4247 C   0  0  0  0  0  0  0  0  0  0  0  0
    5.8368    4.3727    6.9769 O   0  0  0  0  0  0  0  0  0  0  0  0
    5.1866    2.6491    8.4867 C   0  0  0  0  0  0  0  0  0  0  0  0
    4.0687    3.3112    8.9275 C   0  0  0  0  0  0  0  0  0  0  0  0
    3.3222    2.7888    9.9129 N   0  0  0  0  0  0  0  0  0  0  0  0
    3.6067    1.6043   10.5280 C   0  0  0  0  0  0  0  0  0  0  0  0
    4.7153    0.8988   10.1272 C   0  0  0  0  0  0  0  0  0  0  0  0
    5.4831    1.4549    9.0999 C   0  0  0  0  0  0  0  0  0  0  0  0
    5.1218   -0.3434   10.7235 C   0  0  0  0  0  0  0  0  0  0  0  0
    5.4392   -1.3436   11.2217 N   0  0  0  0  0  0  0  0  0  0  0  0
    2.7286    1.1171   11.5450 N   0  0  0  0  0  0  0  0  0  0  0  0
    1.5444    1.9065   11.8188 C   0  0  0  0  0  0  0  0  0  0  0  0
    1.1797    1.8806   13.2884 C   0  0  0  0  0  0  0  0  0  0  0  0
    1.0382    0.4575   13.7865 C   0  0  0  0  0  0  0  0  0  0  0  0
    1.5393   -0.5386   12.7935 C   0  0  0  0  0  0  0  0  0  0  0  0
    2.9226   -0.0978   12.2828 C   0  0  0  0  0  0  0  0  0  0  0  0
    1.8045    0.3306   15.0485 C   0  0  0  0  0  0  0  0  0  0  0  0
    3.0616    0.3135   15.1115 O   0  0  0  0  0  0  0  0  0  0  0  0
    1.0979    0.2178   16.2994 N   0  0  0  0  0  0  0  0  0  0  0  0
    0.6317   -1.3439   16.9100 S   0  0  0  0  0  6  0  0  0  0  0  0
   -0.7970   -1.3166   17.3769 O   0  0  0  0  0  0  0  0  0  0  0  0
    1.5807   -1.7227   17.9867 O   0  0  0  0  0  0  0  0  0  0  0  0
    0.7925   -2.5676   15.6067 C   0  0  0  0  0  0  0  0  0  0  0  0
    0.2118   -3.8436   16.0647 C   0  0  0  0  0  0  0  0  0  0  0  0
   -1.0519   -4.2765   15.7213 C   0  0  0  0  0  0  0  0  0  0  0  0
   -1.5394   -5.4795   16.1837 C   0  0  0  0  0  0  0  0  0  0  0  0
   -0.7905   -6.3160   17.0150 C   0  0  0  0  0  0  0  0  0  0  0  0
    0.4700   -5.8729   17.3508 C   0  0  0  0  0  0  0  0  0  0  0  0
    0.9566   -4.6738   16.8903 C   0  0  0  0  0  0  0  0  0  0  0  0
    3.6259    4.6318    8.3430 C   0  0  0  0  0  0  0  0  0  0  0  0
  1  2  1  0
  2  3  1  0
  3  4  1  0
  4  5  2  0
  4  6  1  0
  6  7  2  0
  7  8  1  0
  8  9  2  0
  9 10  1  0
 10 11  2  0
 10 12  1  0
 12 13  3  0
  9 14  1  0
 14 15  1  0
 15 16  1  0
 16 17  1  0
 17 18  1  0
 18 19  1  0
 17 20  1  0
 20 21  2  0
 20 22  1  0
 22 23  1  0
 23 24  2  0
 23 25  2  0
 23 26  1  0
 26 27  1  0
 27 28  2  0
 28 29  1  0
 29 30  2  0
 30 31  1  0
 31 32  2  0
  7 33  1  0
 11  6  1  0
 19 14  1  0
 32 27  1  0
M  END
$$$$
