
     RDKit          3D

 33 35  0  0  0  0  0  0  0  0999 V2000
   10.3445   -3.8024   16.7343 C   0  0  0  0  0  0  0  0  0  0  0  0
    8.9593   -3.9596   17.3236 C   0  0  0  0  0  0  0  0  0  0  0  0
    8.0398   -3.3970   16.4028 O   0  0  0  0  0  0  0  0  0  0  0  0
    6.8411   -2.8401   16.7844 C   0  0  0  0  0  0  0  0  0  0  0  0
    6.5684   -2.8821   18.0142 O   0  0  0  0  0  0  0  0  0  0  0  0
    5.9640   -2.2460   15.7999 C   0  0  0  0  0  0  0  0  0  0  0  0
    4.7561   -1.7153   16.1764 C   0  0  0  0  0  0  0  0  0  0  0  0
    3.9474   -1.1649   15.2575 N   0  0  0  0  0  0  0  0  0  0  0  0
    4.2530   -1.0934   13.9294 C   0  0  0  0  0  0  0  0  0  0  0  0
    5.4498   -1.6102   13.4959 C   0  0  0  0  0  0  0  0  0  0  0  0
    6.2819   -2.1800   14.4640 C   0  0  0  0  0  0  0  0  0  0  0  0
    5.8595   -1.6120   12.1189 C   0  0  0  0  0  0  0  0  0  0  0  0
    6.1839   -1.5946   11.0037 N   0  0  0  0  0  0  0  0  0  0  0  0
    3.3378   -0.4561   13.0356 N   0  0  0  0  0  0  0  0  0  0  0  0
    3.7862   -0.2605   11.6713 C   0  0  0  0  0  0  0  0  0  0  0  0
    3.2610    1.0347   11.0880 C   0  0  0  0  0  0  0  0  0  0  0  0
    1.7529    1.1087   11.2036 C   0  0  0  0  0  0  0  0  0  0  0  0
    1.2022    0.0318   12.0788 C   0  0  0  0  0  0  0  0  0  0  0  0
    2.0138   -0.0286   13.3850 C   0  0  0  0  0  0  0  0  0  0  0  0
    1.3962    2.4344   11.7618 C   0  0  0  0  0  0  0  0  0  0  0  0
    1.5891    2.7703   12.9595 O   0  0  0  0  0  0  0  0  0  0  0  0
    0.7893    3.4238   10.9077 N   0  0  0  0  0  0  0  0  0  0  0  0
    1.7755    4.5833   10.0638 S   0  0  0  0  0  6  0  0  0  0  0  0
    2.1023    5.7432   10.9627 O   0  0  0  0  0  0  0  0  0  0  0  0
    1.0555    4.9956    8.8330 O   0  0  0  0  0  0  0  0  0  0  0  0
    3.3062    3.8017    9.5462 C   0  0  0  0  0  0  0  0  0  0  0  0
    3.4233    3.8884    8.0786 C   0  0  0  0  0  0  0  0  0  0  0  0
    3.0798    2.8640    7.2214 C   0  0  0  0  0  0  0  0  0  0  0  0
    3.2142    3.0056    5.8573 C   0  0  0  0  0  0  0  0  0  0  0  0
    3.6995    4.1791    5.2750 C   0  0  0  0  0  0  0  0  0  0  0  0
    4.0390    5.1950    6.1413 C   0  0  0  0  0  0  0  0  0  0  0  0
    3.9054    5.0546    7.5011 C   0  0  0  0  0  0  0  0  0  0  0  0
    4.2806   -1.7196   17.6101 C   0  0  0  0  0  0  0  0  0  0  0  0
  1  2  1  0
  2  3  1  0
  3  4  1  0
  4  5  2  0
  4  6  1  0
  6  7  2  0
  7  8  1  0
  8  9  2  0
  9 10  1  0
 10 11  2  0
 10 12  1  0
 12 13  3  0
  9 14  1  0
 14 15  1  0
 15 16  1  0
 16 17  1  0
 17 18  1  0
 18 19  1  0
 17 20  1  0
 20 21  2  0
 20 22  1  0
 22 23  1  0
 23 24  2  0
 23 25  2  0
 23 26  1  0
 26 27  1  0
 27 28  2  0
 28 29  1  0
 29 30  2  0
 30 31  1  0
 31 32  2  0
  7 33  1  0
 11  6  1  0
 19 14  1  0
 32 27  1  0
M  END
$$$$
