
     RDKit          3D

 33 35  0  0  0  0  0  0  0  0999 V2000
    9.1382   -5.4319   13.1819 C   0  0  0  0  0  0  0  0  0  0  0  0
    7.6265   -5.5065   13.1686 C   0  0  0  0  0  0  0  0  0  0  0  0
    7.1368   -4.1795   13.0733 O   0  0  0  0  0  0  0  0  0  0  0  0
    5.7984   -3.8672   13.1337 C   0  0  0  0  0  0  0  0  0  0  0  0
    4.9947   -4.8380   13.1395 O   0  0  0  0  0  0  0  0  0  0  0  0
    5.3709   -2.4866   13.1865 C   0  0  0  0  0  0  0  0  0  0  0  0
    4.0420   -2.1762   13.3284 C   0  0  0  0  0  0  0  0  0  0  0  0
    3.6525   -0.8928   13.3775 N   0  0  0  0  0  0  0  0  0  0  0  0
    4.5152    0.1613   13.2935 C   0  0  0  0  0  0  0  0  0  0  0  0
    5.8579   -0.0911   13.1495 C   0  0  0  0  0  0  0  0  0  0  0  0
    6.2490   -1.4323   13.1002 C   0  0  0  0  0  0  0  0  0  0  0  0
    6.8489    0.9415   13.0248 C   0  0  0  0  0  0  0  0  0  0  0  0
    7.6433    1.7849   12.9408 N   0  0  0  0  0  0  0  0  0  0  0  0
    4.0031    1.4921   13.3903 N   0  0  0  0  0  0  0  0  0  0  0  0
    2.8288    1.6816   14.2184 C   0  0  0  0  0  0  0  0  0  0  0  0
    1.9073    2.7414   13.6517 C   0  0  0  0  0  0  0  0  0  0  0  0
    2.6520    4.0397   13.4211 C   0  0  0  0  0  0  0  0  0  0  0  0
    4.1293    3.8732   13.5596 C   0  0  0  0  0  0  0  0  0  0  0  0
    4.5811    2.6413   12.7554 C   0  0  0  0  0  0  0  0  0  0  0  0
    2.3314    4.5209   12.0565 C   0  0  0  0  0  0  0  0  0  0  0  0
    3.1746    4.6188   11.1270 O   0  0  0  0  0  0  0  0  0  0  0  0
    0.9800    4.9088   11.7403 N   0  0  0  0  0  0  0  0  0  0  0  0
    0.6739    6.3049   10.7471 S   0  0  0  0  0  6  0  0  0  0  0  0
    1.7907    7.3013   10.8887 O   0  0  0  0  0  0  0  0  0  0  0  0
   -0.6468    6.8646   11.1286 O   0  0  0  0  0  0  0  0  0  0  0  0
    0.5602    5.8019    9.0278 C   0  0  0  0  0  0  0  0  0  0  0  0
    1.3133    4.5481    8.8381 C   0  0  0  0  0  0  0  0  0  0  0  0
    0.7480    3.2937    8.9334 C   0  0  0  0  0  0  0  0  0  0  0  0
    1.5061    2.1583    8.7473 C   0  0  0  0  0  0  0  0  0  0  0  0
    2.8713    2.2142    8.4559 C   0  0  0  0  0  0  0  0  0  0  0  0
    3.4243    3.4725    8.3631 C   0  0  0  0  0  0  0  0  0  0  0  0
    2.6692    4.6048    8.5485 C   0  0  0  0  0  0  0  0  0  0  0  0
    2.9696   -3.2346   13.4356 C   0  0  0  0  0  0  0  0  0  0  0  0
  1  2  1  0
  2  3  1  0
  3  4  1  0
  4  5  2  0
  4  6  1  0
  6  7  2  0
  7  8  1  0
  8  9  2  0
  9 10  1  0
 10 11  2  0
 10 12  1  0
 12 13  3  0
  9 14  1  0
 14 15  1  0
 15 16  1  0
 16 17  1  0
 17 18  1  0
 18 19  1  0
 17 20  1  0
 20 21  2  0
 20 22  1  0
 22 23  1  0
 23 24  2  0
 23 25  2  0
 23 26  1  0
 26 27  1  0
 27 28  2  0
 28 29  1  0
 29 30  2  0
 30 31  1  0
 31 32  2  0
  7 33  1  0
 11  6  1  0
 19 14  1  0
 32 27  1  0
M  END
$$$$
