
     RDKit          3D

 33 35  0  0  0  0  0  0  0  0999 V2000
   -5.2094    6.8437   17.1066 C   0  0  0  0  0  0  0  0  0  0  0  0
   -4.9266    6.7289   15.6241 C   0  0  0  0  0  0  0  0  0  0  0  0
   -3.8580    5.8109   15.4655 O   0  0  0  0  0  0  0  0  0  0  0  0
   -3.4916    5.2888   14.2466 C   0  0  0  0  0  0  0  0  0  0  0  0
   -4.1590    5.6712   13.2482 O   0  0  0  0  0  0  0  0  0  0  0  0
   -2.3934    4.3525   14.1520 C   0  0  0  0  0  0  0  0  0  0  0  0
   -2.0181    3.8433   12.9345 C   0  0  0  0  0  0  0  0  0  0  0  0
   -0.9975    2.9754   12.8540 N   0  0  0  0  0  0  0  0  0  0  0  0
   -0.2822    2.5495   13.9354 C   0  0  0  0  0  0  0  0  0  0  0  0
   -0.6153    3.0264   15.1800 C   0  0  0  0  0  0  0  0  0  0  0  0
   -1.6800    3.9297   15.2485 C   0  0  0  0  0  0  0  0  0  0  0  0
    0.0526    2.6248   16.3868 C   0  0  0  0  0  0  0  0  0  0  0  0
    0.5854    2.3165   17.3719 N   0  0  0  0  0  0  0  0  0  0  0  0
    0.8097    1.6485   13.7394 N   0  0  0  0  0  0  0  0  0  0  0  0
    1.7088    1.4581   14.8601 C   0  0  0  0  0  0  0  0  0  0  0  0
    3.1400    1.2635   14.4049 C   0  0  0  0  0  0  0  0  0  0  0  0
    3.2405    0.1339   13.4013 C   0  0  0  0  0  0  0  0  0  0  0  0
    1.8989   -0.3182   12.9270 C   0  0  0  0  0  0  0  0  0  0  0  0
    1.0564    0.9088   12.5353 C   0  0  0  0  0  0  0  0  0  0  0  0
    4.0415    0.6091   12.2485 C   0  0  0  0  0  0  0  0  0  0  0  0
    3.6070    1.3900   11.3619 O   0  0  0  0  0  0  0  0  0  0  0  0
    5.4061    0.1694   12.1034 N   0  0  0  0  0  0  0  0  0  0  0  0
    6.6248    1.2607   11.5092 S   0  0  0  0  0  6  0  0  0  0  0  0
    7.8693    0.5024   11.1401 O   0  0  0  0  0  0  0  0  0  0  0  0
    6.8681    2.2933   12.5473 O   0  0  0  0  0  0  0  0  0  0  0  0
    6.0087    2.1085   10.0519 C   0  0  0  0  0  0  0  0  0  0  0  0
    7.0324    2.0571    8.9915 C   0  0  0  0  0  0  0  0  0  0  0  0
    7.8859    3.1005    8.7002 C   0  0  0  0  0  0  0  0  0  0  0  0
    8.8214    2.9919    7.6944 C   0  0  0  0  0  0  0  0  0  0  0  0
    8.9551    1.8341    6.9240 C   0  0  0  0  0  0  0  0  0  0  0  0
    8.0972    0.7989    7.2245 C   0  0  0  0  0  0  0  0  0  0  0  0
    7.1644    0.9065    8.2270 C   0  0  0  0  0  0  0  0  0  0  0  0
   -2.7141    4.2218   11.6484 C   0  0  0  0  0  0  0  0  0  0  0  0
  1  2  1  0
  2  3  1  0
  3  4  1  0
  4  5  2  0
  4  6  1  0
  6  7  2  0
  7  8  1  0
  8  9  2  0
  9 10  1  0
 10 11  2  0
 10 12  1  0
 12 13  3  0
  9 14  1  0
 14 15  1  0
 15 16  1  0
 16 17  1  0
 17 18  1  0
 18 19  1  0
 17 20  1  0
 20 21  2  0
 20 22  1  0
 22 23  1  0
 23 24  2  0
 23 25  2  0
 23 26  1  0
 26 27  1  0
 27 28  2  0
 28 29  1  0
 29 30  2  0
 30 31  1  0
 31 32  2  0
  7 33  1  0
 11  6  1  0
 19 14  1  0
 32 27  1  0
M  END
$$$$
