
     RDKit          3D

 33 35  0  0  0  0  0  0  0  0999 V2000
   10.3255   -4.6678   15.6376 C   0  0  0  0  0  0  0  0  0  0  0  0
    8.9437   -4.4384   16.2109 C   0  0  0  0  0  0  0  0  0  0  0  0
    8.2737   -3.5298   15.3534 O   0  0  0  0  0  0  0  0  0  0  0  0
    7.0116   -3.0466   15.6106 C   0  0  0  0  0  0  0  0  0  0  0  0
    6.4781   -3.4159   16.6910 O   0  0  0  0  0  0  0  0  0  0  0  0
    6.3605   -2.1630   14.6688 C   0  0  0  0  0  0  0  0  0  0  0  0
    4.9923   -2.0650   14.6404 C   0  0  0  0  0  0  0  0  0  0  0  0
    4.3948   -1.2425   13.7642 N   0  0  0  0  0  0  0  0  0  0  0  0
    5.0761   -0.4700   12.8690 C   0  0  0  0  0  0  0  0  0  0  0  0
    6.4486   -0.5289   12.8524 C   0  0  0  0  0  0  0  0  0  0  0  0
    7.0571   -1.3896   13.7706 C   0  0  0  0  0  0  0  0  0  0  0  0
    7.2624    0.2199   11.9355 C   0  0  0  0  0  0  0  0  0  0  0  0
    7.9363    0.8139   11.1990 N   0  0  0  0  0  0  0  0  0  0  0  0
    4.3471    0.3994   12.0000 N   0  0  0  0  0  0  0  0  0  0  0  0
    5.1266    1.2538   11.1265 C   0  0  0  0  0  0  0  0  0  0  0  0
    4.4675    2.6024   10.9259 C   0  0  0  0  0  0  0  0  0  0  0  0
    3.0435    2.4419   10.4362 C   0  0  0  0  0  0  0  0  0  0  0  0
    2.5742    1.0273   10.5245 C   0  0  0  0  0  0  0  0  0  0  0  0
    2.9165    0.4624   11.9146 C   0  0  0  0  0  0  0  0  0  0  0  0
    2.1698    3.3083   11.2622 C   0  0  0  0  0  0  0  0  0  0  0  0
    2.4195    3.6312   12.4530 O   0  0  0  0  0  0  0  0  0  0  0  0
    0.9511    3.8308   10.6979 N   0  0  0  0  0  0  0  0  0  0  0  0
    0.5735    5.5246   10.8320 S   0  0  0  0  0  6  0  0  0  0  0  0
    0.7246    5.9819   12.2561 O   0  0  0  0  0  0  0  0  0  0  0  0
   -0.7968    5.7373   10.3027 O   0  0  0  0  0  0  0  0  0  0  0  0
    1.6945    6.4705    9.7973 C   0  0  0  0  0  0  0  0  0  0  0  0
    1.7187    5.8832    8.4447 C   0  0  0  0  0  0  0  0  0  0  0  0
    0.7184    6.0658    7.5128 C   0  0  0  0  0  0  0  0  0  0  0  0
    0.7981    5.4880    6.2645 C   0  0  0  0  0  0  0  0  0  0  0  0
    1.8822    4.6957    5.8788 C   0  0  0  0  0  0  0  0  0  0  0  0
    2.8748    4.5208    6.8179 C   0  0  0  0  0  0  0  0  0  0  0  0
    2.7960    5.0964    8.0626 C   0  0  0  0  0  0  0  0  0  0  0  0
    4.1037   -2.8568   15.5707 C   0  0  0  0  0  0  0  0  0  0  0  0
  1  2  1  0
  2  3  1  0
  3  4  1  0
  4  5  2  0
  4  6  1  0
  6  7  2  0
  7  8  1  0
  8  9  2  0
  9 10  1  0
 10 11  2  0
 10 12  1  0
 12 13  3  0
  9 14  1  0
 14 15  1  0
 15 16  1  0
 16 17  1  0
 17 18  1  0
 18 19  1  0
 17 20  1  0
 20 21  2  0
 20 22  1  0
 22 23  1  0
 23 24  2  0
 23 25  2  0
 23 26  1  0
 26 27  1  0
 27 28  2  0
 28 29  1  0
 29 30  2  0
 30 31  1  0
 31 32  2  0
  7 33  1  0
 11  6  1  0
 19 14  1  0
 32 27  1  0
M  END
$$$$
