
     RDKit          3D

 22 24  0  0  0  0  0  0  0  0999 V2000
   -4.9041    2.2930    6.2487 C   0  0  0  0  0  0  0  0  0  0  0  0
   -3.6584    2.7864    6.6979 O   0  0  0  0  0  0  0  0  0  0  0  0
   -2.4898    2.0558    6.4982 C   0  0  0  0  0  0  0  0  0  0  0  0
   -1.8855    1.9383    5.2781 C   0  0  0  0  0  0  0  0  0  0  0  0
   -0.7310    1.2048    5.1321 C   0  0  0  0  0  0  0  0  0  0  0  0
   -0.1874    0.5843    6.2454 C   0  0  0  0  0  0  0  0  0  0  0  0
   -0.7693    0.6815    7.4888 C   0  0  0  0  0  0  0  0  0  0  0  0
   -1.9338    1.4325    7.5872 C   0  0  0  0  0  0  0  0  0  0  0  0
   -2.6079    1.5669    8.9312 C   0  0  0  0  0  0  0  0  0  0  0  0
   -1.7951    2.3023    9.8100 N   0  0  0  0  0  0  0  0  0  0  0  0
   -2.0712    2.3174   11.1869 C   0  0  0  0  0  0  0  0  0  0  0  0
   -3.5315    2.0880   11.5294 C   0  0  0  0  0  0  0  0  0  0  0  0
   -3.7558    2.3465   12.9863 C   0  0  0  0  0  0  0  0  0  0  0  0
   -2.4859    2.7333   13.7074 C   0  0  0  0  0  0  0  0  0  0  0  0
   -1.5471    1.6816   13.4601 N   0  0  0  0  0  0  0  0  0  0  0  0
   -1.1006    1.6173   12.0691 C   0  0  0  0  0  0  0  0  0  0  0  0
   -0.8183    0.2106   11.7569 C   0  0  0  0  0  0  0  0  0  0  0  0
   -1.2654   -0.8236   12.5446 C   0  0  0  0  0  0  0  0  0  0  0  0
   -0.9834   -2.1508   12.2261 C   0  0  0  0  0  0  0  0  0  0  0  0
   -0.2439   -2.4561   11.1053 C   0  0  0  0  0  0  0  0  0  0  0  0
    0.2102   -1.4300   10.3075 C   0  0  0  0  0  0  0  0  0  0  0  0
   -0.0849   -0.1367   10.6493 C   0  0  0  0  0  0  0  0  0  0  0  0
  1  2  1  0
  2  3  1  0
  3  4  2  0
  4  5  1  0
  5  6  2  0
  6  7  1  0
  7  8  2  0
  8  9  1  0
  9 10  1  0
 10 11  1  0
 11 12  1  0
 12 13  1  0
 13 14  1  0
 14 15  1  0
 15 16  1  0
 16 17  1  0
 17 18  2  0
 18 19  1  0
 19 20  2  0
 20 21  1  0
 21 22  2  0
  8  3  1  0
 16 11  1  0
 22 17  1  0
M  END
$$$$
