
     RDKit          3D

 22 24  0  0  0  0  0  0  0  0999 V2000
   -0.4291   -0.8824    3.0858 C   0  0  0  0  0  0  0  0  0  0  0  0
   -1.4074   -0.8264    4.1041 O   0  0  0  0  0  0  0  0  0  0  0  0
   -1.2212   -1.5015    5.3078 C   0  0  0  0  0  0  0  0  0  0  0  0
   -0.6406   -2.7363    5.3858 C   0  0  0  0  0  0  0  0  0  0  0  0
   -0.4789   -3.3625    6.5999 C   0  0  0  0  0  0  0  0  0  0  0  0
   -0.9151   -2.7199    7.7474 C   0  0  0  0  0  0  0  0  0  0  0  0
   -1.5038   -1.4767    7.7056 C   0  0  0  0  0  0  0  0  0  0  0  0
   -1.6459   -0.8839    6.4574 C   0  0  0  0  0  0  0  0  0  0  0  0
   -2.2867    0.4796    6.3623 C   0  0  0  0  0  0  0  0  0  0  0  0
   -3.3388    0.5866    7.2873 N   0  0  0  0  0  0  0  0  0  0  0  0
   -3.7185    1.8426    7.7877 C   0  0  0  0  0  0  0  0  0  0  0  0
   -4.9487    1.8107    8.6754 C   0  0  0  0  0  0  0  0  0  0  0  0
   -5.3980    3.2081    8.9672 C   0  0  0  0  0  0  0  0  0  0  0  0
   -4.5056    4.2476    8.3306 C   0  0  0  0  0  0  0  0  0  0  0  0
   -3.1785    3.9749    8.7919 N   0  0  0  0  0  0  0  0  0  0  0  0
   -2.6238    2.7302    8.2614 C   0  0  0  0  0  0  0  0  0  0  0  0
   -1.7174    2.1787    9.2762 C   0  0  0  0  0  0  0  0  0  0  0  0
   -1.9105    2.3764   10.6229 C   0  0  0  0  0  0  0  0  0  0  0  0
   -1.0348    1.8419   11.5664 C   0  0  0  0  0  0  0  0  0  0  0  0
    0.0521    1.0978   11.1648 C   0  0  0  0  0  0  0  0  0  0  0  0
    0.2575    0.8919    9.8191 C   0  0  0  0  0  0  0  0  0  0  0  0
   -0.6224    1.4313    8.9184 C   0  0  0  0  0  0  0  0  0  0  0  0
  1  2  1  0
  2  3  1  0
  3  4  2  0
  4  5  1  0
  5  6  2  0
  6  7  1  0
  7  8  2  0
  8  9  1  0
  9 10  1  0
 10 11  1  0
 11 12  1  0
 12 13  1  0
 13 14  1  0
 14 15  1  0
 15 16  1  0
 16 17  1  0
 17 18  2  0
 18 19  1  0
 19 20  2  0
 20 21  1  0
 21 22  2  0
  8  3  1  0
 16 11  1  0
 22 17  1  0
M  END
$$$$
