
     RDKit          3D

 22 24  0  0  0  0  0  0  0  0999 V2000
   -2.7091    5.6762    9.2719 C   0  0  0  0  0  0  0  0  0  0  0  0
   -2.7380    4.2678    9.3840 O   0  0  0  0  0  0  0  0  0  0  0  0
   -3.6722    3.5165    8.6754 C   0  0  0  0  0  0  0  0  0  0  0  0
   -4.3042    3.9799    7.5558 C   0  0  0  0  0  0  0  0  0  0  0  0
   -5.2202    3.1987    6.8903 C   0  0  0  0  0  0  0  0  0  0  0  0
   -5.4937    1.9294    7.3741 C   0  0  0  0  0  0  0  0  0  0  0  0
   -4.8760    1.4310    8.4984 C   0  0  0  0  0  0  0  0  0  0  0  0
   -3.9588    2.2562    9.1367 C   0  0  0  0  0  0  0  0  0  0  0  0
   -3.2568    1.7522   10.3745 C   0  0  0  0  0  0  0  0  0  0  0  0
   -2.0842    1.0641   10.0207 N   0  0  0  0  0  0  0  0  0  0  0  0
   -1.8546   -0.2374   10.4957 C   0  0  0  0  0  0  0  0  0  0  0  0
   -3.0879   -1.1215   10.5038 C   0  0  0  0  0  0  0  0  0  0  0  0
   -2.7916   -2.3959   11.2301 C   0  0  0  0  0  0  0  0  0  0  0  0
   -1.3657   -2.4619   11.7248 C   0  0  0  0  0  0  0  0  0  0  0  0
   -0.5329   -2.2605   10.5784 N   0  0  0  0  0  0  0  0  0  0  0  0
   -0.6062   -0.9033   10.0389 C   0  0  0  0  0  0  0  0  0  0  0  0
   -0.3949   -0.9889    8.5885 C   0  0  0  0  0  0  0  0  0  0  0  0
    0.0096    0.0891    7.8373 C   0  0  0  0  0  0  0  0  0  0  0  0
    0.2029   -0.0187    6.4612 C   0  0  0  0  0  0  0  0  0  0  0  0
   -0.0096   -1.2186    5.8199 C   0  0  0  0  0  0  0  0  0  0  0  0
   -0.4150   -2.3065    6.5601 C   0  0  0  0  0  0  0  0  0  0  0  0
   -0.5956   -2.1662    7.9107 C   0  0  0  0  0  0  0  0  0  0  0  0
  1  2  1  0
  2  3  1  0
  3  4  2  0
  4  5  1  0
  5  6  2  0
  6  7  1  0
  7  8  2  0
  8  9  1  0
  9 10  1  0
 10 11  1  0
 11 12  1  0
 12 13  1  0
 13 14  1  0
 14 15  1  0
 15 16  1  0
 16 17  1  0
 17 18  2  0
 18 19  1  0
 19 20  2  0
 20 21  1  0
 21 22  2  0
  8  3  1  0
 16 11  1  0
 22 17  1  0
M  END
$$$$
