
     RDKit          3D

 22 24  0  0  0  0  0  0  0  0999 V2000
   -2.3094    2.5366    4.4815 C   0  0  0  0  0  0  0  0  0  0  0  0
   -1.2200    2.0705    5.2516 O   0  0  0  0  0  0  0  0  0  0  0  0
   -0.9095    0.7138    5.2970 C   0  0  0  0  0  0  0  0  0  0  0  0
   -0.8934   -0.0831    4.1869 C   0  0  0  0  0  0  0  0  0  0  0  0
   -0.5799   -1.4189    4.2838 C   0  0  0  0  0  0  0  0  0  0  0  0
   -0.2792   -1.9469    5.5292 C   0  0  0  0  0  0  0  0  0  0  0  0
   -0.2859   -1.1737    6.6676 C   0  0  0  0  0  0  0  0  0  0  0  0
   -0.6085    0.1694    6.5203 C   0  0  0  0  0  0  0  0  0  0  0  0
   -0.6292    1.0563    7.7417 C   0  0  0  0  0  0  0  0  0  0  0  0
   -1.6467    0.6483    8.6203 N   0  0  0  0  0  0  0  0  0  0  0  0
   -2.6210    1.5632    9.0513 C   0  0  0  0  0  0  0  0  0  0  0  0
   -4.0485    1.0843    8.8627 C   0  0  0  0  0  0  0  0  0  0  0  0
   -4.9990    2.2072    9.1371 C   0  0  0  0  0  0  0  0  0  0  0  0
   -4.2909    3.4784    9.5431 C   0  0  0  0  0  0  0  0  0  0  0  0
   -3.4762    3.1420   10.6707 N   0  0  0  0  0  0  0  0  0  0  0  0
   -2.3567    2.2626   10.3364 C   0  0  0  0  0  0  0  0  0  0  0  0
   -2.0899    1.4172   11.5068 C   0  0  0  0  0  0  0  0  0  0  0  0
   -0.9689    1.5712   12.2875 C   0  0  0  0  0  0  0  0  0  0  0  0
   -0.7389    0.7550   13.3936 C   0  0  0  0  0  0  0  0  0  0  0  0
   -1.6386   -0.2317   13.7301 C   0  0  0  0  0  0  0  0  0  0  0  0
   -2.7656   -0.3970   12.9568 C   0  0  0  0  0  0  0  0  0  0  0  0
   -2.9611    0.4223   11.8766 C   0  0  0  0  0  0  0  0  0  0  0  0
  1  2  1  0
  2  3  1  0
  3  4  2  0
  4  5  1  0
  5  6  2  0
  6  7  1  0
  7  8  2  0
  8  9  1  0
  9 10  1  0
 10 11  1  0
 11 12  1  0
 12 13  1  0
 13 14  1  0
 14 15  1  0
 15 16  1  0
 16 17  1  0
 17 18  2  0
 18 19  1  0
 19 20  2  0
 20 21  1  0
 21 22  2  0
  8  3  1  0
 16 11  1  0
 22 17  1  0
M  END
$$$$
