
     RDKit          3D

 22 24  0  0  0  0  0  0  0  0999 V2000
   -3.0571   -1.5100   12.7547 C   0  0  0  0  0  0  0  0  0  0  0  0
   -2.9912   -0.5696   11.7018 O   0  0  0  0  0  0  0  0  0  0  0  0
   -2.6943    0.7664   11.9585 C   0  0  0  0  0  0  0  0  0  0  0  0
   -2.4696    1.2499   13.2169 C   0  0  0  0  0  0  0  0  0  0  0  0
   -2.1795    2.5793   13.4188 C   0  0  0  0  0  0  0  0  0  0  0  0
   -2.1180    3.4245   12.3225 C   0  0  0  0  0  0  0  0  0  0  0  0
   -2.3387    2.9717   11.0418 C   0  0  0  0  0  0  0  0  0  0  0  0
   -2.6284    1.6219   10.8875 C   0  0  0  0  0  0  0  0  0  0  0  0
   -2.8785    1.0800    9.5009 C   0  0  0  0  0  0  0  0  0  0  0  0
   -2.0214    1.6996    8.5761 N   0  0  0  0  0  0  0  0  0  0  0  0
   -1.7319    1.0784    7.3504 C   0  0  0  0  0  0  0  0  0  0  0  0
   -0.7621    1.8520    6.4765 C   0  0  0  0  0  0  0  0  0  0  0  0
   -0.6976    1.2280    5.1178 C   0  0  0  0  0  0  0  0  0  0  0  0
   -1.5802    0.0077    4.9991 C   0  0  0  0  0  0  0  0  0  0  0  0
   -1.1794   -0.8815    6.0465 N   0  0  0  0  0  0  0  0  0  0  0  0
   -1.5138   -0.3920    7.3832 C   0  0  0  0  0  0  0  0  0  0  0  0
   -0.4873   -0.8878    8.3085 C   0  0  0  0  0  0  0  0  0  0  0  0
    0.1159   -2.1133    8.1527 C   0  0  0  0  0  0  0  0  0  0  0  0
    1.0879   -2.5609    9.0456 C   0  0  0  0  0  0  0  0  0  0  0  0
    1.4673   -1.7772   10.1125 C   0  0  0  0  0  0  0  0  0  0  0  0
    0.8713   -0.5475   10.2806 C   0  0  0  0  0  0  0  0  0  0  0  0
   -0.0805   -0.1380    9.3846 C   0  0  0  0  0  0  0  0  0  0  0  0
  1  2  1  0
  2  3  1  0
  3  4  2  0
  4  5  1  0
  5  6  2  0
  6  7  1  0
  7  8  2  0
  8  9  1  0
  9 10  1  0
 10 11  1  0
 11 12  1  0
 12 13  1  0
 13 14  1  0
 14 15  1  0
 15 16  1  0
 16 17  1  0
 17 18  2  0
 18 19  1  0
 19 20  2  0
 20 21  1  0
 21 22  2  0
  8  3  1  0
 16 11  1  0
 22 17  1  0
M  END
$$$$
