
     RDKit          3D

 22 24  0  0  0  0  0  0  0  0999 V2000
   -1.1869    0.2544   13.1587 C   0  0  0  0  0  0  0  0  0  0  0  0
   -0.9880   -0.3314   11.8881 O   0  0  0  0  0  0  0  0  0  0  0  0
   -0.1765   -1.4535   11.7410 C   0  0  0  0  0  0  0  0  0  0  0  0
    0.0145   -2.3690   12.7376 C   0  0  0  0  0  0  0  0  0  0  0  0
    0.8266   -3.4621   12.5430 C   0  0  0  0  0  0  0  0  0  0  0  0
    1.4507   -3.6219   11.3162 C   0  0  0  0  0  0  0  0  0  0  0  0
    1.2808   -2.7198   10.2909 C   0  0  0  0  0  0  0  0  0  0  0  0
    0.4519   -1.6319   10.5341 C   0  0  0  0  0  0  0  0  0  0  0  0
    0.2361   -0.6157    9.4388 C   0  0  0  0  0  0  0  0  0  0  0  0
   -1.0323   -0.7887    8.8598 N   0  0  0  0  0  0  0  0  0  0  0  0
   -1.1642   -1.4360    7.6206 C   0  0  0  0  0  0  0  0  0  0  0  0
   -2.3073   -2.4321    7.5595 C   0  0  0  0  0  0  0  0  0  0  0  0
   -2.2222   -3.2222    6.2915 C   0  0  0  0  0  0  0  0  0  0  0  0
   -1.0581   -2.8021    5.4251 C   0  0  0  0  0  0  0  0  0  0  0  0
   -1.2089   -1.3962    5.2034 N   0  0  0  0  0  0  0  0  0  0  0  0
   -0.9989   -0.5929    6.4072 C   0  0  0  0  0  0  0  0  0  0  0  0
   -1.8562    0.5946    6.3050 C   0  0  0  0  0  0  0  0  0  0  0  0
   -2.9343    0.7992    7.1332 C   0  0  0  0  0  0  0  0  0  0  0  0
   -3.7328    1.9354    7.0153 C   0  0  0  0  0  0  0  0  0  0  0  0
   -3.4555    2.8852    6.0574 C   0  0  0  0  0  0  0  0  0  0  0  0
   -2.3789    2.6929    5.2212 C   0  0  0  0  0  0  0  0  0  0  0  0
   -1.6146    1.5651    5.3641 C   0  0  0  0  0  0  0  0  0  0  0  0
  1  2  1  0
  2  3  1  0
  3  4  2  0
  4  5  1  0
  5  6  2  0
  6  7  1  0
  7  8  2  0
  8  9  1  0
  9 10  1  0
 10 11  1  0
 11 12  1  0
 12 13  1  0
 13 14  1  0
 14 15  1  0
 15 16  1  0
 16 17  1  0
 17 18  2  0
 18 19  1  0
 19 20  2  0
 20 21  1  0
 21 22  2  0
  8  3  1  0
 16 11  1  0
 22 17  1  0
M  END
$$$$
