
     RDKit          3D

 22 24  0  0  0  0  0  0  0  0999 V2000
   -2.1305   -2.7041   14.0134 C   0  0  0  0  0  0  0  0  0  0  0  0
   -1.9451   -2.4610   12.6336 O   0  0  0  0  0  0  0  0  0  0  0  0
   -0.6725   -2.4976   12.0693 C   0  0  0  0  0  0  0  0  0  0  0  0
    0.1881   -3.5449   12.2428 C   0  0  0  0  0  0  0  0  0  0  0  0
    1.4359   -3.5339   11.6639 C   0  0  0  0  0  0  0  0  0  0  0  0
    1.8087   -2.4405   10.8987 C   0  0  0  0  0  0  0  0  0  0  0  0
    0.9675   -1.3690   10.7031 C   0  0  0  0  0  0  0  0  0  0  0  0
   -0.2819   -1.4250   11.3075 C   0  0  0  0  0  0  0  0  0  0  0  0
   -1.2384   -0.2720   11.1213 C   0  0  0  0  0  0  0  0  0  0  0  0
   -1.4658   -0.0465    9.7534 N   0  0  0  0  0  0  0  0  0  0  0  0
   -2.4577    0.8568    9.3385 C   0  0  0  0  0  0  0  0  0  0  0  0
   -2.2469    2.2776    9.8278 C   0  0  0  0  0  0  0  0  0  0  0  0
   -3.4599    3.1010    9.5274 C   0  0  0  0  0  0  0  0  0  0  0  0
   -4.5312    2.3130    8.8107 C   0  0  0  0  0  0  0  0  0  0  0  0
   -3.9146    1.7703    7.6386 N   0  0  0  0  0  0  0  0  0  0  0  0
   -2.9204    0.7384    7.9305 C   0  0  0  0  0  0  0  0  0  0  0  0
   -1.8892    0.8062    6.8875 C   0  0  0  0  0  0  0  0  0  0  0  0
   -0.8047   -0.0384    6.8668 C   0  0  0  0  0  0  0  0  0  0  0  0
    0.1607    0.0469    5.8652 C   0  0  0  0  0  0  0  0  0  0  0  0
    0.0467    0.9880    4.8664 C   0  0  0  0  0  0  0  0  0  0  0  0
   -1.0345    1.8404    4.8749 C   0  0  0  0  0  0  0  0  0  0  0  0
   -1.9651    1.7296    5.8740 C   0  0  0  0  0  0  0  0  0  0  0  0
  1  2  1  0
  2  3  1  0
  3  4  2  0
  4  5  1  0
  5  6  2  0
  6  7  1  0
  7  8  2  0
  8  9  1  0
  9 10  1  0
 10 11  1  0
 11 12  1  0
 12 13  1  0
 13 14  1  0
 14 15  1  0
 15 16  1  0
 16 17  1  0
 17 18  2  0
 18 19  1  0
 19 20  2  0
 20 21  1  0
 21 22  2  0
  8  3  1  0
 16 11  1  0
 22 17  1  0
M  END
$$$$
