
     RDKit          3D

 22 24  0  0  0  0  0  0  0  0999 V2000
    1.9319   -3.9873   11.8321 C   0  0  0  0  0  0  0  0  0  0  0  0
    0.8609   -3.3077   11.2091 O   0  0  0  0  0  0  0  0  0  0  0  0
    0.6989   -3.3506    9.8266 C   0  0  0  0  0  0  0  0  0  0  0  0
    1.5737   -3.9914    8.9949 C   0  0  0  0  0  0  0  0  0  0  0  0
    1.3695   -4.0055    7.6346 C   0  0  0  0  0  0  0  0  0  0  0  0
    0.2589   -3.3576    7.1181 C   0  0  0  0  0  0  0  0  0  0  0  0
   -0.6421   -2.7026    7.9262 C   0  0  0  0  0  0  0  0  0  0  0  0
   -0.3943   -2.7153    9.2929 C   0  0  0  0  0  0  0  0  0  0  0  0
   -1.3553   -2.0094   10.2186 C   0  0  0  0  0  0  0  0  0  0  0  0
   -2.0120   -0.9715    9.5364 N   0  0  0  0  0  0  0  0  0  0  0  0
   -2.0861    0.3125   10.1000 C   0  0  0  0  0  0  0  0  0  0  0  0
   -0.7713    0.8201   10.6625 C   0  0  0  0  0  0  0  0  0  0  0  0
   -1.0044    2.0819   11.4326 C   0  0  0  0  0  0  0  0  0  0  0  0
   -2.4532    2.5095   11.4179 C   0  0  0  0  0  0  0  0  0  0  0  0
   -2.8277    2.6132   10.0404 N   0  0  0  0  0  0  0  0  0  0  0  0
   -2.8835    1.3225    9.3553 C   0  0  0  0  0  0  0  0  0  0  0  0
   -2.5193    1.5481    7.9509 C   0  0  0  0  0  0  0  0  0  0  0  0
   -2.3249    0.5154    7.0645 C   0  0  0  0  0  0  0  0  0  0  0  0
   -1.9793    0.7565    5.7360 C   0  0  0  0  0  0  0  0  0  0  0  0
   -1.8239    2.0466    5.2800 C   0  0  0  0  0  0  0  0  0  0  0  0
   -2.0155    3.0904    6.1570 C   0  0  0  0  0  0  0  0  0  0  0  0
   -2.3546    2.8183    7.4560 C   0  0  0  0  0  0  0  0  0  0  0  0
  1  2  1  0
  2  3  1  0
  3  4  2  0
  4  5  1  0
  5  6  2  0
  6  7  1  0
  7  8  2  0
  8  9  1  0
  9 10  1  0
 10 11  1  0
 11 12  1  0
 12 13  1  0
 13 14  1  0
 14 15  1  0
 15 16  1  0
 16 17  1  0
 17 18  2  0
 18 19  1  0
 19 20  2  0
 20 21  1  0
 21 22  2  0
  8  3  1  0
 16 11  1  0
 22 17  1  0
M  END
$$$$
