
     RDKit          3D

 22 24  0  0  0  0  0  0  0  0999 V2000
   -3.5576    3.4601   12.0597 C   0  0  0  0  0  0  0  0  0  0  0  0
   -3.0257    3.5655   10.7547 O   0  0  0  0  0  0  0  0  0  0  0  0
   -3.7737    3.1730    9.6476 C   0  0  0  0  0  0  0  0  0  0  0  0
   -5.0325    3.6420    9.3963 C   0  0  0  0  0  0  0  0  0  0  0  0
   -5.7313    3.2235    8.2878 C   0  0  0  0  0  0  0  0  0  0  0  0
   -5.1373    2.3155    7.4260 C   0  0  0  0  0  0  0  0  0  0  0  0
   -3.8717    1.8228    7.6483 C   0  0  0  0  0  0  0  0  0  0  0  0
   -3.2051    2.2741    8.7804 C   0  0  0  0  0  0  0  0  0  0  0  0
   -1.8145    1.7605    9.0656 C   0  0  0  0  0  0  0  0  0  0  0  0
   -1.7961    1.0612   10.2839 N   0  0  0  0  0  0  0  0  0  0  0  0
   -1.6939   -0.3393   10.2966 C   0  0  0  0  0  0  0  0  0  0  0  0
   -3.0298   -1.0590   10.2947 C   0  0  0  0  0  0  0  0  0  0  0  0
   -2.8171   -2.5205   10.5363 C   0  0  0  0  0  0  0  0  0  0  0  0
   -1.3565   -2.8753   10.6881 C   0  0  0  0  0  0  0  0  0  0  0  0
   -0.7025   -2.3988    9.5076 N   0  0  0  0  0  0  0  0  0  0  0  0
   -0.6546   -0.9399    9.4193 C   0  0  0  0  0  0  0  0  0  0  0  0
   -0.7001   -0.5784    7.9970 C   0  0  0  0  0  0  0  0  0  0  0  0
   -0.0880    0.5490    7.5027 C   0  0  0  0  0  0  0  0  0  0  0  0
   -0.1464    0.8699    6.1477 C   0  0  0  0  0  0  0  0  0  0  0  0
   -0.8251    0.0563    5.2680 C   0  0  0  0  0  0  0  0  0  0  0  0
   -1.4428   -1.0760    5.7495 C   0  0  0  0  0  0  0  0  0  0  0  0
   -1.3658   -1.3620    7.0869 C   0  0  0  0  0  0  0  0  0  0  0  0
  1  2  1  0
  2  3  1  0
  3  4  2  0
  4  5  1  0
  5  6  2  0
  6  7  1  0
  7  8  2  0
  8  9  1  0
  9 10  1  0
 10 11  1  0
 11 12  1  0
 12 13  1  0
 13 14  1  0
 14 15  1  0
 15 16  1  0
 16 17  1  0
 17 18  2  0
 18 19  1  0
 19 20  2  0
 20 21  1  0
 21 22  2  0
  8  3  1  0
 16 11  1  0
 22 17  1  0
M  END
$$$$
