
     RDKit          3D

 22 24  0  0  0  0  0  0  0  0999 V2000
   -1.3458   -0.0481   12.7327 C   0  0  0  0  0  0  0  0  0  0  0  0
   -1.1471    0.9914   11.7963 O   0  0  0  0  0  0  0  0  0  0  0  0
   -2.0237    2.0717   11.7355 C   0  0  0  0  0  0  0  0  0  0  0  0
   -2.1105    3.0153   12.7203 C   0  0  0  0  0  0  0  0  0  0  0  0
   -2.9933    4.0649   12.6136 C   0  0  0  0  0  0  0  0  0  0  0  0
   -3.7965    4.1516   11.4878 C   0  0  0  0  0  0  0  0  0  0  0  0
   -3.7353    3.2194   10.4773 C   0  0  0  0  0  0  0  0  0  0  0  0
   -2.8292    2.1776   10.6294 C   0  0  0  0  0  0  0  0  0  0  0  0
   -2.7274    1.1308    9.5465 C   0  0  0  0  0  0  0  0  0  0  0  0
   -3.3150    1.6014    8.3603 N   0  0  0  0  0  0  0  0  0  0  0  0
   -2.6657    1.4235    7.1279 C   0  0  0  0  0  0  0  0  0  0  0  0
   -1.7643    2.5772    6.7291 C   0  0  0  0  0  0  0  0  0  0  0  0
   -1.3046    2.3949    5.3167 C   0  0  0  0  0  0  0  0  0  0  0  0
   -1.8339    1.1236    4.6955 C   0  0  0  0  0  0  0  0  0  0  0  0
   -1.4325    0.0563    5.5605 N   0  0  0  0  0  0  0  0  0  0  0  0
   -2.1137    0.0703    6.8544 C   0  0  0  0  0  0  0  0  0  0  0  0
   -1.1867   -0.4798    7.8513 C   0  0  0  0  0  0  0  0  0  0  0  0
   -0.8975    0.1709    9.0273 C   0  0  0  0  0  0  0  0  0  0  0  0
   -0.0134   -0.3730    9.9574 C   0  0  0  0  0  0  0  0  0  0  0  0
    0.5943   -1.5847    9.7149 C   0  0  0  0  0  0  0  0  0  0  0  0
    0.3137   -2.2472    8.5410 C   0  0  0  0  0  0  0  0  0  0  0  0
   -0.5600   -1.6846    7.6485 C   0  0  0  0  0  0  0  0  0  0  0  0
  1  2  1  0
  2  3  1  0
  3  4  2  0
  4  5  1  0
  5  6  2  0
  6  7  1  0
  7  8  2  0
  8  9  1  0
  9 10  1  0
 10 11  1  0
 11 12  1  0
 12 13  1  0
 13 14  1  0
 14 15  1  0
 15 16  1  0
 16 17  1  0
 17 18  2  0
 18 19  1  0
 19 20  2  0
 20 21  1  0
 21 22  2  0
  8  3  1  0
 16 11  1  0
 22 17  1  0
M  END
$$$$
