
     RDKit          3D

 22 24  0  0  0  0  0  0  0  0999 V2000
   -4.6463   -1.1932    5.1699 C   0  0  0  0  0  0  0  0  0  0  0  0
   -3.3674   -0.6215    5.3567 O   0  0  0  0  0  0  0  0  0  0  0  0
   -3.2049    0.5182    6.1401 C   0  0  0  0  0  0  0  0  0  0  0  0
   -4.1050    1.5465    6.1528 C   0  0  0  0  0  0  0  0  0  0  0  0
   -3.8993    2.6522    6.9448 C   0  0  0  0  0  0  0  0  0  0  0  0
   -2.7611    2.7081    7.7331 C   0  0  0  0  0  0  0  0  0  0  0  0
   -1.8341    1.6910    7.7450 C   0  0  0  0  0  0  0  0  0  0  0  0
   -2.0845    0.5951    6.9289 C   0  0  0  0  0  0  0  0  0  0  0  0
   -1.0950   -0.5448    6.9086 C   0  0  0  0  0  0  0  0  0  0  0  0
   -0.7395   -0.9019    8.2200 N   0  0  0  0  0  0  0  0  0  0  0  0
   -1.7126   -1.3756    9.1149 C   0  0  0  0  0  0  0  0  0  0  0  0
   -2.3345   -2.6997    8.7113 C   0  0  0  0  0  0  0  0  0  0  0  0
   -3.5030   -3.0001    9.5967 C   0  0  0  0  0  0  0  0  0  0  0  0
   -3.7234   -1.9351   10.6452 C   0  0  0  0  0  0  0  0  0  0  0  0
   -2.4902   -1.8154   11.3618 N   0  0  0  0  0  0  0  0  0  0  0  0
   -1.4088   -1.2389   10.5639 C   0  0  0  0  0  0  0  0  0  0  0  0
   -0.1476   -1.8259   11.0335 C   0  0  0  0  0  0  0  0  0  0  0  0
    1.0747   -1.2539   10.7713 C   0  0  0  0  0  0  0  0  0  0  0  0
    2.2577   -1.8316   11.2286 C   0  0  0  0  0  0  0  0  0  0  0  0
    2.2260   -2.9984   11.9593 C   0  0  0  0  0  0  0  0  0  0  0  0
    1.0086   -3.5820   12.2292 C   0  0  0  0  0  0  0  0  0  0  0  0
   -0.1350   -2.9880   11.7648 C   0  0  0  0  0  0  0  0  0  0  0  0
  1  2  1  0
  2  3  1  0
  3  4  2  0
  4  5  1  0
  5  6  2  0
  6  7  1  0
  7  8  2  0
  8  9  1  0
  9 10  1  0
 10 11  1  0
 11 12  1  0
 12 13  1  0
 13 14  1  0
 14 15  1  0
 15 16  1  0
 16 17  1  0
 17 18  2  0
 18 19  1  0
 19 20  2  0
 20 21  1  0
 21 22  2  0
  8  3  1  0
 16 11  1  0
 22 17  1  0
M  END
$$$$
