
     RDKit          3D

 22 24  0  0  0  0  0  0  0  0999 V2000
   -4.0005    4.0625   12.7464 C   0  0  0  0  0  0  0  0  0  0  0  0
   -3.3615    3.4029   11.6723 O   0  0  0  0  0  0  0  0  0  0  0  0
   -2.3206    2.5075   11.9051 C   0  0  0  0  0  0  0  0  0  0  0  0
   -1.2449    2.8063   12.6932 C   0  0  0  0  0  0  0  0  0  0  0  0
   -0.2414    1.8868   12.8925 C   0  0  0  0  0  0  0  0  0  0  0  0
   -0.3380    0.6477   12.2798 C   0  0  0  0  0  0  0  0  0  0  0  0
   -1.4069    0.3134   11.4800 C   0  0  0  0  0  0  0  0  0  0  0  0
   -2.3953    1.2741   11.3080 C   0  0  0  0  0  0  0  0  0  0  0  0
   -3.5867    0.9524   10.4385 C   0  0  0  0  0  0  0  0  0  0  0  0
   -3.1670    0.6573    9.1306 N   0  0  0  0  0  0  0  0  0  0  0  0
   -3.6698    1.3885    8.0422 C   0  0  0  0  0  0  0  0  0  0  0  0
   -3.2418    2.8442    8.0219 C   0  0  0  0  0  0  0  0  0  0  0  0
   -4.0040    3.5806    6.9653 C   0  0  0  0  0  0  0  0  0  0  0  0
   -4.9543    2.6842    6.2066 C   0  0  0  0  0  0  0  0  0  0  0  0
   -4.1643    1.6103    5.6857 N   0  0  0  0  0  0  0  0  0  0  0  0
   -3.6551    0.7099    6.7194 C   0  0  0  0  0  0  0  0  0  0  0  0
   -2.3625    0.1884    6.2579 C   0  0  0  0  0  0  0  0  0  0  0  0
   -2.2217   -1.0746    5.7334 C   0  0  0  0  0  0  0  0  0  0  0  0
   -0.9829   -1.5460    5.3026 C   0  0  0  0  0  0  0  0  0  0  0  0
    0.1360   -0.7485    5.3945 C   0  0  0  0  0  0  0  0  0  0  0  0
    0.0094    0.5186    5.9178 C   0  0  0  0  0  0  0  0  0  0  0  0
   -1.2228    0.9507    6.3318 C   0  0  0  0  0  0  0  0  0  0  0  0
  1  2  1  0
  2  3  1  0
  3  4  2  0
  4  5  1  0
  5  6  2  0
  6  7  1  0
  7  8  2  0
  8  9  1  0
  9 10  1  0
 10 11  1  0
 11 12  1  0
 12 13  1  0
 13 14  1  0
 14 15  1  0
 15 16  1  0
 16 17  1  0
 17 18  2  0
 18 19  1  0
 19 20  2  0
 20 21  1  0
 21 22  2  0
  8  3  1  0
 16 11  1  0
 22 17  1  0
M  END
$$$$
