
     RDKit          3D

 22 24  0  0  0  0  0  0  0  0999 V2000
   -2.7877   -2.9557    5.5342 C   0  0  0  0  0  0  0  0  0  0  0  0
   -3.0091   -1.7260    6.1945 O   0  0  0  0  0  0  0  0  0  0  0  0
   -2.1625   -0.6412    5.9812 C   0  0  0  0  0  0  0  0  0  0  0  0
   -1.5651   -0.3893    4.7781 C   0  0  0  0  0  0  0  0  0  0  0  0
   -0.7362    0.6966    4.6174 C   0  0  0  0  0  0  0  0  0  0  0  0
   -0.5150    1.5351    5.6982 C   0  0  0  0  0  0  0  0  0  0  0  0
   -1.1000    1.3115    6.9237 C   0  0  0  0  0  0  0  0  0  0  0  0
   -1.9289    0.2027    7.0380 C   0  0  0  0  0  0  0  0  0  0  0  0
   -2.5922   -0.0830    8.3636 C   0  0  0  0  0  0  0  0  0  0  0  0
   -1.6418   -0.0532    9.3979 N   0  0  0  0  0  0  0  0  0  0  0  0
   -2.0526    0.0612   10.7358 C   0  0  0  0  0  0  0  0  0  0  0  0
   -3.3548   -0.6524   11.0482 C   0  0  0  0  0  0  0  0  0  0  0  0
   -3.8159   -0.2841   12.4235 C   0  0  0  0  0  0  0  0  0  0  0  0
   -2.8635    0.6596   13.1196 C   0  0  0  0  0  0  0  0  0  0  0  0
   -1.5833    0.0199   13.1074 N   0  0  0  0  0  0  0  0  0  0  0  0
   -0.9953   -0.0768   11.7720 C   0  0  0  0  0  0  0  0  0  0  0  0
   -0.1841   -1.2998   11.7304 C   0  0  0  0  0  0  0  0  0  0  0  0
    1.1094   -1.3112   11.2648 C   0  0  0  0  0  0  0  0  0  0  0  0
    1.8583   -2.4863   11.2356 C   0  0  0  0  0  0  0  0  0  0  0  0
    1.3125   -3.6712   11.6767 C   0  0  0  0  0  0  0  0  0  0  0  0
    0.0180   -3.6741   12.1455 C   0  0  0  0  0  0  0  0  0  0  0  0
   -0.6902   -2.5017   12.1605 C   0  0  0  0  0  0  0  0  0  0  0  0
  1  2  1  0
  2  3  1  0
  3  4  2  0
  4  5  1  0
  5  6  2  0
  6  7  1  0
  7  8  2  0
  8  9  1  0
  9 10  1  0
 10 11  1  0
 11 12  1  0
 12 13  1  0
 13 14  1  0
 14 15  1  0
 15 16  1  0
 16 17  1  0
 17 18  2  0
 18 19  1  0
 19 20  2  0
 20 21  1  0
 21 22  2  0
  8  3  1  0
 16 11  1  0
 22 17  1  0
M  END
$$$$
