
     RDKit          3D

 22 24  0  0  0  0  0  0  0  0999 V2000
    0.0636   -3.7520    7.5295 C   0  0  0  0  0  0  0  0  0  0  0  0
   -0.5466   -3.2789    8.7131 O   0  0  0  0  0  0  0  0  0  0  0  0
    0.2254   -2.8770    9.8002 C   0  0  0  0  0  0  0  0  0  0  0  0
    1.4023   -3.4824   10.1408 C   0  0  0  0  0  0  0  0  0  0  0  0
    2.1293   -3.0480   11.2248 C   0  0  0  0  0  0  0  0  0  0  0  0
    1.6485   -1.9828   11.9693 C   0  0  0  0  0  0  0  0  0  0  0  0
    0.4675   -1.3501   11.6549 C   0  0  0  0  0  0  0  0  0  0  0  0
   -0.2317   -1.8238   10.5521 C   0  0  0  0  0  0  0  0  0  0  0  0
   -1.5329   -1.1611   10.1693 C   0  0  0  0  0  0  0  0  0  0  0  0
   -1.3462    0.2231   10.0182 N   0  0  0  0  0  0  0  0  0  0  0  0
   -2.4005    1.0368    9.5728 C   0  0  0  0  0  0  0  0  0  0  0  0
   -2.2377    2.5061    9.9153 C   0  0  0  0  0  0  0  0  0  0  0  0
   -3.5031    3.2413    9.6027 C   0  0  0  0  0  0  0  0  0  0  0  0
   -4.5666    2.3407    9.0196 C   0  0  0  0  0  0  0  0  0  0  0  0
   -3.9802    1.7165    7.8730 N   0  0  0  0  0  0  0  0  0  0  0  0
   -2.9231    0.7632    8.2080 C   0  0  0  0  0  0  0  0  0  0  0  0
   -1.9473    0.7770    7.1110 C   0  0  0  0  0  0  0  0  0  0  0  0
   -1.3277    1.9297    6.6898 C   0  0  0  0  0  0  0  0  0  0  0  0
   -0.4047    1.9157    5.6455 C   0  0  0  0  0  0  0  0  0  0  0  0
   -0.0919    0.7358    5.0082 C   0  0  0  0  0  0  0  0  0  0  0  0
   -0.7051   -0.4262    5.4199 C   0  0  0  0  0  0  0  0  0  0  0  0
   -1.6074   -0.3772    6.4494 C   0  0  0  0  0  0  0  0  0  0  0  0
  1  2  1  0
  2  3  1  0
  3  4  2  0
  4  5  1  0
  5  6  2  0
  6  7  1  0
  7  8  2  0
  8  9  1  0
  9 10  1  0
 10 11  1  0
 11 12  1  0
 12 13  1  0
 13 14  1  0
 14 15  1  0
 15 16  1  0
 16 17  1  0
 17 18  2  0
 18 19  1  0
 19 20  2  0
 20 21  1  0
 21 22  2  0
  8  3  1  0
 16 11  1  0
 22 17  1  0
M  END
$$$$
