
     RDKit          3D

 22 24  0  0  0  0  0  0  0  0999 V2000
   -3.5987    3.6496   12.4072 C   0  0  0  0  0  0  0  0  0  0  0  0
   -3.1758    2.8092   11.3526 O   0  0  0  0  0  0  0  0  0  0  0  0
   -3.8188    2.8386   10.1177 C   0  0  0  0  0  0  0  0  0  0  0  0
   -5.1250    3.2114    9.9680 C   0  0  0  0  0  0  0  0  0  0  0  0
   -5.7154    3.2242    8.7256 C   0  0  0  0  0  0  0  0  0  0  0  0
   -4.9627    2.8519    7.6235 C   0  0  0  0  0  0  0  0  0  0  0  0
   -3.6452    2.4709    7.7377 C   0  0  0  0  0  0  0  0  0  0  0  0
   -3.0924    2.4735    9.0120 C   0  0  0  0  0  0  0  0  0  0  0  0
   -1.6503    2.0625    9.1862 C   0  0  0  0  0  0  0  0  0  0  0  0
   -1.5319    0.6646    9.1099 N   0  0  0  0  0  0  0  0  0  0  0  0
   -1.2995    0.0387    7.8744 C   0  0  0  0  0  0  0  0  0  0  0  0
   -0.2232    0.7022    7.0354 C   0  0  0  0  0  0  0  0  0  0  0  0
   -0.2118    0.1050    5.6633 C   0  0  0  0  0  0  0  0  0  0  0  0
   -1.2388   -0.9910    5.5008 C   0  0  0  0  0  0  0  0  0  0  0  0
   -0.9736   -1.9464    6.5329 N   0  0  0  0  0  0  0  0  0  0  0  0
   -1.2693   -1.4478    7.8754 C   0  0  0  0  0  0  0  0  0  0  0  0
   -0.3315   -2.0896    8.8051 C   0  0  0  0  0  0  0  0  0  0  0  0
    0.6989   -2.8923    8.3762 C   0  0  0  0  0  0  0  0  0  0  0  0
    1.5755   -3.4903    9.2797 C   0  0  0  0  0  0  0  0  0  0  0  0
    1.4258   -3.2873   10.6335 C   0  0  0  0  0  0  0  0  0  0  0  0
    0.3981   -2.4857   11.0770 C   0  0  0  0  0  0  0  0  0  0  0  0
   -0.4455   -1.9132   10.1621 C   0  0  0  0  0  0  0  0  0  0  0  0
  1  2  1  0
  2  3  1  0
  3  4  2  0
  4  5  1  0
  5  6  2  0
  6  7  1  0
  7  8  2  0
  8  9  1  0
  9 10  1  0
 10 11  1  0
 11 12  1  0
 12 13  1  0
 13 14  1  0
 14 15  1  0
 15 16  1  0
 16 17  1  0
 17 18  2  0
 18 19  1  0
 19 20  2  0
 20 21  1  0
 21 22  2  0
  8  3  1  0
 16 11  1  0
 22 17  1  0
M  END
$$$$
