
     RDKit          3D

 22 24  0  0  0  0  0  0  0  0999 V2000
   -0.9285   -2.9823    5.7827 C   0  0  0  0  0  0  0  0  0  0  0  0
   -1.0592   -1.9722    6.7623 O   0  0  0  0  0  0  0  0  0  0  0  0
   -0.3565   -2.0491    7.9621 C   0  0  0  0  0  0  0  0  0  0  0  0
    0.0396   -3.2334    8.5173 C   0  0  0  0  0  0  0  0  0  0  0  0
    0.7324   -3.2569    9.7054 C   0  0  0  0  0  0  0  0  0  0  0  0
    1.0240   -2.0567   10.3336 C   0  0  0  0  0  0  0  0  0  0  0  0
    0.6406   -0.8462    9.8029 C   0  0  0  0  0  0  0  0  0  0  0  0
   -0.0569   -0.8726    8.6019 C   0  0  0  0  0  0  0  0  0  0  0  0
   -0.4986    0.4311    7.9822 C   0  0  0  0  0  0  0  0  0  0  0  0
   -1.1663    1.2192    8.9345 N   0  0  0  0  0  0  0  0  0  0  0  0
   -2.4765    1.6640    8.6945 C   0  0  0  0  0  0  0  0  0  0  0  0
   -3.4438    0.5624    8.3028 C   0  0  0  0  0  0  0  0  0  0  0  0
   -4.7387    1.1628    7.8533 C   0  0  0  0  0  0  0  0  0  0  0  0
   -4.7363    2.6713    7.9351 C   0  0  0  0  0  0  0  0  0  0  0  0
   -4.4027    2.9999    9.2875 N   0  0  0  0  0  0  0  0  0  0  0  0
   -3.0218    2.6729    9.6407 C   0  0  0  0  0  0  0  0  0  0  0  0
   -2.9979    2.3234   11.0665 C   0  0  0  0  0  0  0  0  0  0  0  0
   -2.2510    1.2788   11.5572 C   0  0  0  0  0  0  0  0  0  0  0  0
   -2.2459    0.9675   12.9157 C   0  0  0  0  0  0  0  0  0  0  0  0
   -2.9962    1.7071   13.8025 C   0  0  0  0  0  0  0  0  0  0  0  0
   -3.7490    2.7561   13.3246 C   0  0  0  0  0  0  0  0  0  0  0  0
   -3.7314    3.0351   11.9836 C   0  0  0  0  0  0  0  0  0  0  0  0
  1  2  1  0
  2  3  1  0
  3  4  2  0
  4  5  1  0
  5  6  2  0
  6  7  1  0
  7  8  2  0
  8  9  1  0
  9 10  1  0
 10 11  1  0
 11 12  1  0
 12 13  1  0
 13 14  1  0
 14 15  1  0
 15 16  1  0
 16 17  1  0
 17 18  2  0
 18 19  1  0
 19 20  2  0
 20 21  1  0
 21 22  2  0
  8  3  1  0
 16 11  1  0
 22 17  1  0
M  END
$$$$
