
     RDKit          3D

 22 24  0  0  0  0  0  0  0  0999 V2000
   -1.7208    3.1047   13.6927 C   0  0  0  0  0  0  0  0  0  0  0  0
   -1.6513    2.3816   12.4804 O   0  0  0  0  0  0  0  0  0  0  0  0
   -2.6671    1.5007   12.1180 C   0  0  0  0  0  0  0  0  0  0  0  0
   -3.2581    0.6427   13.0024 C   0  0  0  0  0  0  0  0  0  0  0  0
   -4.2587   -0.2090   12.5952 C   0  0  0  0  0  0  0  0  0  0  0  0
   -4.6602   -0.1838   11.2693 C   0  0  0  0  0  0  0  0  0  0  0  0
   -4.0871    0.6672   10.3520 C   0  0  0  0  0  0  0  0  0  0  0  0
   -3.0808    1.5084   10.8095 C   0  0  0  0  0  0  0  0  0  0  0  0
   -2.4224    2.4588    9.8389 C   0  0  0  0  0  0  0  0  0  0  0  0
   -1.5028    1.7680    9.0320 N   0  0  0  0  0  0  0  0  0  0  0  0
   -1.7771    1.5480    7.6724 C   0  0  0  0  0  0  0  0  0  0  0  0
   -0.9655    2.4147    6.7275 C   0  0  0  0  0  0  0  0  0  0  0  0
   -1.4880    2.2688    5.3328 C   0  0  0  0  0  0  0  0  0  0  0  0
   -2.6422    1.2979    5.2461 C   0  0  0  0  0  0  0  0  0  0  0  0
   -2.1737    0.0658    5.8036 N   0  0  0  0  0  0  0  0  0  0  0  0
   -1.9393    0.1331    7.2455 C   0  0  0  0  0  0  0  0  0  0  0  0
   -0.8363   -0.7834    7.5603 C   0  0  0  0  0  0  0  0  0  0  0  0
   -0.1220   -1.4397    6.5861 C   0  0  0  0  0  0  0  0  0  0  0  0
    0.9210   -2.3050    6.9117 C   0  0  0  0  0  0  0  0  0  0  0  0
    1.2603   -2.5223    8.2285 C   0  0  0  0  0  0  0  0  0  0  0  0
    0.5532   -1.8715    9.2144 C   0  0  0  0  0  0  0  0  0  0  0  0
   -0.4660   -1.0277    8.8598 C   0  0  0  0  0  0  0  0  0  0  0  0
  1  2  1  0
  2  3  1  0
  3  4  2  0
  4  5  1  0
  5  6  2  0
  6  7  1  0
  7  8  2  0
  8  9  1  0
  9 10  1  0
 10 11  1  0
 11 12  1  0
 12 13  1  0
 13 14  1  0
 14 15  1  0
 15 16  1  0
 16 17  1  0
 17 18  2  0
 18 19  1  0
 19 20  2  0
 20 21  1  0
 21 22  2  0
  8  3  1  0
 16 11  1  0
 22 17  1  0
M  END
$$$$
