
     RDKit          3D

 22 24  0  0  0  0  0  0  0  0999 V2000
   -3.2678   -2.6553    6.3759 C   0  0  0  0  0  0  0  0  0  0  0  0
   -3.3921   -1.2484    6.3288 O   0  0  0  0  0  0  0  0  0  0  0  0
   -2.3113   -0.4504    5.9622 C   0  0  0  0  0  0  0  0  0  0  0  0
   -1.2659   -0.9125    5.2131 C   0  0  0  0  0  0  0  0  0  0  0  0
   -0.2207   -0.0840    4.8765 C   0  0  0  0  0  0  0  0  0  0  0  0
   -0.2437    1.2319    5.3102 C   0  0  0  0  0  0  0  0  0  0  0  0
   -1.2802    1.7305    6.0658 C   0  0  0  0  0  0  0  0  0  0  0  0
   -2.3130    0.8566    6.3809 C   0  0  0  0  0  0  0  0  0  0  0  0
   -3.4712    1.3589    7.2085 C   0  0  0  0  0  0  0  0  0  0  0  0
   -3.0823    2.4841    7.9546 N   0  0  0  0  0  0  0  0  0  0  0  0
   -3.3625    2.5556    9.3288 C   0  0  0  0  0  0  0  0  0  0  0  0
   -4.6347    1.8385    9.7408 C   0  0  0  0  0  0  0  0  0  0  0  0
   -4.9592    2.1627   11.1653 C   0  0  0  0  0  0  0  0  0  0  0  0
   -3.9369    3.0778   11.7977 C   0  0  0  0  0  0  0  0  0  0  0  0
   -2.6690    2.4324   11.6419 N   0  0  0  0  0  0  0  0  0  0  0  0
   -2.2122    2.3776   10.2539 C   0  0  0  0  0  0  0  0  0  0  0  0
   -1.4188    1.1525   10.0945 C   0  0  0  0  0  0  0  0  0  0  0  0
   -1.9046   -0.0894   10.4285 C   0  0  0  0  0  0  0  0  0  0  0  0
   -1.1306   -1.2372   10.2677 C   0  0  0  0  0  0  0  0  0  0  0  0
    0.1489   -1.1498    9.7662 C   0  0  0  0  0  0  0  0  0  0  0  0
    0.6482    0.0878    9.4276 C   0  0  0  0  0  0  0  0  0  0  0  0
   -0.1392    1.1957    9.5982 C   0  0  0  0  0  0  0  0  0  0  0  0
  1  2  1  0
  2  3  1  0
  3  4  2  0
  4  5  1  0
  5  6  2  0
  6  7  1  0
  7  8  2  0
  8  9  1  0
  9 10  1  0
 10 11  1  0
 11 12  1  0
 12 13  1  0
 13 14  1  0
 14 15  1  0
 15 16  1  0
 16 17  1  0
 17 18  2  0
 18 19  1  0
 19 20  2  0
 20 21  1  0
 21 22  2  0
  8  3  1  0
 16 11  1  0
 22 17  1  0
M  END
$$$$
