
     RDKit          3D

 22 24  0  0  0  0  0  0  0  0999 V2000
   -0.4647    1.9841   12.5749 C   0  0  0  0  0  0  0  0  0  0  0  0
   -1.3798    1.2430   11.7935 O   0  0  0  0  0  0  0  0  0  0  0  0
   -0.9786    0.0819   11.1377 C   0  0  0  0  0  0  0  0  0  0  0  0
    0.2735   -0.4504   11.2671 C   0  0  0  0  0  0  0  0  0  0  0  0
    0.6218   -1.6006   10.5978 C   0  0  0  0  0  0  0  0  0  0  0  0
   -0.3197   -2.2141    9.7871 C   0  0  0  0  0  0  0  0  0  0  0  0
   -1.5893   -1.7057    9.6339 C   0  0  0  0  0  0  0  0  0  0  0  0
   -1.8949   -0.5426   10.3292 C   0  0  0  0  0  0  0  0  0  0  0  0
   -3.2755    0.0523   10.1913 C   0  0  0  0  0  0  0  0  0  0  0  0
   -3.1858    1.4257    9.9092 N   0  0  0  0  0  0  0  0  0  0  0  0
   -3.7598    1.9486    8.7392 C   0  0  0  0  0  0  0  0  0  0  0  0
   -3.5352    3.4373    8.5496 C   0  0  0  0  0  0  0  0  0  0  0  0
   -4.3676    3.9330    7.4090 C   0  0  0  0  0  0  0  0  0  0  0  0
   -5.1688    2.8314    6.7558 C   0  0  0  0  0  0  0  0  0  0  0  0
   -4.2276    1.8245    6.3701 N   0  0  0  0  0  0  0  0  0  0  0  0
   -3.6228    1.1297    7.5058 C   0  0  0  0  0  0  0  0  0  0  0  0
   -2.2609    0.7427    7.1168 C   0  0  0  0  0  0  0  0  0  0  0  0
   -1.1507    1.4454    7.5213 C   0  0  0  0  0  0  0  0  0  0  0  0
    0.1317    1.0570    7.1378 C   0  0  0  0  0  0  0  0  0  0  0  0
    0.3144   -0.0491    6.3381 C   0  0  0  0  0  0  0  0  0  0  0  0
   -0.7888   -0.7621    5.9256 C   0  0  0  0  0  0  0  0  0  0  0  0
   -2.0350   -0.3531    6.3208 C   0  0  0  0  0  0  0  0  0  0  0  0
  1  2  1  0
  2  3  1  0
  3  4  2  0
  4  5  1  0
  5  6  2  0
  6  7  1  0
  7  8  2  0
  8  9  1  0
  9 10  1  0
 10 11  1  0
 11 12  1  0
 12 13  1  0
 13 14  1  0
 14 15  1  0
 15 16  1  0
 16 17  1  0
 17 18  2  0
 18 19  1  0
 19 20  2  0
 20 21  1  0
 21 22  2  0
  8  3  1  0
 16 11  1  0
 22 17  1  0
M  END
$$$$
