
     RDKit          3D

 22 24  0  0  0  0  0  0  0  0999 V2000
   -2.1193    3.9891   12.9461 C   0  0  0  0  0  0  0  0  0  0  0  0
   -2.4880    3.0371   11.9690 O   0  0  0  0  0  0  0  0  0  0  0  0
   -3.5891    3.2535   11.1444 C   0  0  0  0  0  0  0  0  0  0  0  0
   -4.8197    3.6048   11.6239 C   0  0  0  0  0  0  0  0  0  0  0  0
   -5.8770    3.8077   10.7677 C   0  0  0  0  0  0  0  0  0  0  0  0
   -5.6749    3.6502    9.4059 C   0  0  0  0  0  0  0  0  0  0  0  0
   -4.4494    3.2973    8.8887 C   0  0  0  0  0  0  0  0  0  0  0  0
   -3.4120    3.1029    9.7918 C   0  0  0  0  0  0  0  0  0  0  0  0
   -2.0497    2.7141    9.2705 C   0  0  0  0  0  0  0  0  0  0  0  0
   -2.0225    1.3446    8.9581 N   0  0  0  0  0  0  0  0  0  0  0  0
   -1.7623    0.9216    7.6446 C   0  0  0  0  0  0  0  0  0  0  0  0
   -0.6102    1.6480    6.9756 C   0  0  0  0  0  0  0  0  0  0  0  0
   -0.5618    1.2899    5.5233 C   0  0  0  0  0  0  0  0  0  0  0  0
   -1.6375    0.3030    5.1346 C   0  0  0  0  0  0  0  0  0  0  0  0
   -1.4777   -0.8267    5.9986 N   0  0  0  0  0  0  0  0  0  0  0  0
   -1.8135   -0.5429    7.3933 C   0  0  0  0  0  0  0  0  0  0  0  0
   -0.9606   -1.3890    8.2374 C   0  0  0  0  0  0  0  0  0  0  0  0
   -1.4601   -2.1291    9.2828 C   0  0  0  0  0  0  0  0  0  0  0  0
   -0.6287   -2.9245   10.0693 C   0  0  0  0  0  0  0  0  0  0  0  0
    0.7229   -2.9856    9.8130 C   0  0  0  0  0  0  0  0  0  0  0  0
    1.2366   -2.2493    8.7691 C   0  0  0  0  0  0  0  0  0  0  0  0
    0.3916   -1.4780    8.0158 C   0  0  0  0  0  0  0  0  0  0  0  0
  1  2  1  0
  2  3  1  0
  3  4  2  0
  4  5  1  0
  5  6  2  0
  6  7  1  0
  7  8  2  0
  8  9  1  0
  9 10  1  0
 10 11  1  0
 11 12  1  0
 12 13  1  0
 13 14  1  0
 14 15  1  0
 15 16  1  0
 16 17  1  0
 17 18  2  0
 18 19  1  0
 19 20  2  0
 20 21  1  0
 21 22  2  0
  8  3  1  0
 16 11  1  0
 22 17  1  0
M  END
$$$$
