
     RDKit          3D

 22 24  0  0  0  0  0  0  0  0999 V2000
   -1.6355   -2.0883   13.9493 C   0  0  0  0  0  0  0  0  0  0  0  0
   -1.2766   -1.3135   12.8233 O   0  0  0  0  0  0  0  0  0  0  0  0
   -0.4297   -1.8290   11.8454 C   0  0  0  0  0  0  0  0  0  0  0  0
    0.7315   -2.4872   12.1389 C   0  0  0  0  0  0  0  0  0  0  0  0
    1.5348   -2.9785   11.1362 C   0  0  0  0  0  0  0  0  0  0  0  0
    1.1475   -2.7955    9.8185 C   0  0  0  0  0  0  0  0  0  0  0  0
   -0.0150   -2.1377    9.4869 C   0  0  0  0  0  0  0  0  0  0  0  0
   -0.7935   -1.6592   10.5330 C   0  0  0  0  0  0  0  0  0  0  0  0
   -2.0774   -0.9305   10.2174 C   0  0  0  0  0  0  0  0  0  0  0  0
   -1.8193    0.4324    9.9943 N   0  0  0  0  0  0  0  0  0  0  0  0
   -2.6190    1.1697    9.1061 C   0  0  0  0  0  0  0  0  0  0  0  0
   -2.2083    2.6235    8.9622 C   0  0  0  0  0  0  0  0  0  0  0  0
   -3.2461    3.3671    8.1816 C   0  0  0  0  0  0  0  0  0  0  0  0
   -4.3840    2.4778    7.7380 C   0  0  0  0  0  0  0  0  0  0  0  0
   -3.7906    1.4022    7.0038 N   0  0  0  0  0  0  0  0  0  0  0  0
   -3.0020    0.4957    7.8374 C   0  0  0  0  0  0  0  0  0  0  0  0
   -1.9081   -0.0302    7.0114 C   0  0  0  0  0  0  0  0  0  0  0  0
   -0.6664    0.5583    6.9705 C   0  0  0  0  0  0  0  0  0  0  0  0
    0.3555    0.0391    6.1775 C   0  0  0  0  0  0  0  0  0  0  0  0
    0.1399   -1.0848    5.4115 C   0  0  0  0  0  0  0  0  0  0  0  0
   -1.0991   -1.6843    5.4429 C   0  0  0  0  0  0  0  0  0  0  0  0
   -2.0812   -1.1482    6.2332 C   0  0  0  0  0  0  0  0  0  0  0  0
  1  2  1  0
  2  3  1  0
  3  4  2  0
  4  5  1  0
  5  6  2  0
  6  7  1  0
  7  8  2  0
  8  9  1  0
  9 10  1  0
 10 11  1  0
 11 12  1  0
 12 13  1  0
 13 14  1  0
 14 15  1  0
 15 16  1  0
 16 17  1  0
 17 18  2  0
 18 19  1  0
 19 20  2  0
 20 21  1  0
 21 22  2  0
  8  3  1  0
 16 11  1  0
 22 17  1  0
M  END
$$$$
