
     RDKit          3D

 22 24  0  0  0  0  0  0  0  0999 V2000
   -6.1758    3.3129    8.8564 C   0  0  0  0  0  0  0  0  0  0  0  0
   -5.3501    2.2734    9.3411 O   0  0  0  0  0  0  0  0  0  0  0  0
   -4.2716    2.5522   10.1767 C   0  0  0  0  0  0  0  0  0  0  0  0
   -4.1096    3.7545   10.8059 C   0  0  0  0  0  0  0  0  0  0  0  0
   -3.0261    3.9812   11.6224 C   0  0  0  0  0  0  0  0  0  0  0  0
   -2.0973    2.9681   11.7983 C   0  0  0  0  0  0  0  0  0  0  0  0
   -2.2291    1.7455   11.1804 C   0  0  0  0  0  0  0  0  0  0  0  0
   -3.3391    1.5631   10.3653 C   0  0  0  0  0  0  0  0  0  0  0  0
   -3.5252    0.2382    9.6662 C   0  0  0  0  0  0  0  0  0  0  0  0
   -2.4681    0.0105    8.7692 N   0  0  0  0  0  0  0  0  0  0  0  0
   -2.6714   -0.7629    7.6148 C   0  0  0  0  0  0  0  0  0  0  0  0
   -3.9387   -0.4205    6.8537 C   0  0  0  0  0  0  0  0  0  0  0  0
   -4.1765   -1.4390    5.7834 C   0  0  0  0  0  0  0  0  0  0  0  0
   -3.0967   -2.4946    5.7390 C   0  0  0  0  0  0  0  0  0  0  0  0
   -1.8574   -1.7954    5.5855 N   0  0  0  0  0  0  0  0  0  0  0  0
   -1.4781   -1.0203    6.7661 C   0  0  0  0  0  0  0  0  0  0  0  0
   -0.7285    0.1549    6.3050 C   0  0  0  0  0  0  0  0  0  0  0  0
    0.3388    0.6691    7.0026 C   0  0  0  0  0  0  0  0  0  0  0  0
    1.0338    1.7864    6.5431 C   0  0  0  0  0  0  0  0  0  0  0  0
    0.6618    2.4040    5.3698 C   0  0  0  0  0  0  0  0  0  0  0  0
   -0.4053    1.8995    4.6611 C   0  0  0  0  0  0  0  0  0  0  0  0
   -1.0665    0.7999    5.1409 C   0  0  0  0  0  0  0  0  0  0  0  0
  1  2  1  0
  2  3  1  0
  3  4  2  0
  4  5  1  0
  5  6  2  0
  6  7  1  0
  7  8  2  0
  8  9  1  0
  9 10  1  0
 10 11  1  0
 11 12  1  0
 12 13  1  0
 13 14  1  0
 14 15  1  0
 15 16  1  0
 16 17  1  0
 17 18  2  0
 18 19  1  0
 19 20  2  0
 20 21  1  0
 21 22  2  0
  8  3  1  0
 16 11  1  0
 22 17  1  0
M  END
$$$$
