
     RDKit          3D

 22 24  0  0  0  0  0  0  0  0999 V2000
   -0.1812   -3.4846    5.9334 C   0  0  0  0  0  0  0  0  0  0  0  0
    0.4684   -2.5065    6.7198 O   0  0  0  0  0  0  0  0  0  0  0  0
    0.2005   -2.3954    8.0818 C   0  0  0  0  0  0  0  0  0  0  0  0
    0.9328   -3.0402    9.0388 C   0  0  0  0  0  0  0  0  0  0  0  0
    0.6282   -2.8981   10.3727 C   0  0  0  0  0  0  0  0  0  0  0  0
   -0.4366   -2.0880   10.7332 C   0  0  0  0  0  0  0  0  0  0  0  0
   -1.1950   -1.4241    9.7962 C   0  0  0  0  0  0  0  0  0  0  0  0
   -0.8499   -1.5982    8.4619 C   0  0  0  0  0  0  0  0  0  0  0  0
   -1.6540   -0.8901    7.3986 C   0  0  0  0  0  0  0  0  0  0  0  0
   -1.3824    0.4882    7.4225 N   0  0  0  0  0  0  0  0  0  0  0  0
   -2.4245    1.4192    7.2837 C   0  0  0  0  0  0  0  0  0  0  0  0
   -3.8125    0.8069    7.3197 C   0  0  0  0  0  0  0  0  0  0  0  0
   -4.8295    1.8370    6.9404 C   0  0  0  0  0  0  0  0  0  0  0  0
   -4.2094    3.1848    6.6554 C   0  0  0  0  0  0  0  0  0  0  0  0
   -3.4596    3.5370    7.8225 N   0  0  0  0  0  0  0  0  0  0  0  0
   -2.2810    2.6967    8.0307 C   0  0  0  0  0  0  0  0  0  0  0  0
   -2.0570    2.5950    9.4781 C   0  0  0  0  0  0  0  0  0  0  0  0
   -1.0336    3.2569   10.1142 C   0  0  0  0  0  0  0  0  0  0  0  0
   -0.8423    3.1433   11.4901 C   0  0  0  0  0  0  0  0  0  0  0  0
   -1.6827    2.3582   12.2476 C   0  0  0  0  0  0  0  0  0  0  0  0
   -2.7118    1.6897   11.6234 C   0  0  0  0  0  0  0  0  0  0  0  0
   -2.8716    1.8232   10.2695 C   0  0  0  0  0  0  0  0  0  0  0  0
  1  2  1  0
  2  3  1  0
  3  4  2  0
  4  5  1  0
  5  6  2  0
  6  7  1  0
  7  8  2  0
  8  9  1  0
  9 10  1  0
 10 11  1  0
 11 12  1  0
 12 13  1  0
 13 14  1  0
 14 15  1  0
 15 16  1  0
 16 17  1  0
 17 18  2  0
 18 19  1  0
 19 20  2  0
 20 21  1  0
 21 22  2  0
  8  3  1  0
 16 11  1  0
 22 17  1  0
M  END
$$$$
