
     RDKit          3D

 22 24  0  0  0  0  0  0  0  0999 V2000
   -4.6307    4.5238   12.2635 C   0  0  0  0  0  0  0  0  0  0  0  0
   -4.3450    3.2238   11.7885 O   0  0  0  0  0  0  0  0  0  0  0  0
   -3.2755    2.4966   12.3049 C   0  0  0  0  0  0  0  0  0  0  0  0
   -2.9268    2.5234   13.6260 C   0  0  0  0  0  0  0  0  0  0  0  0
   -1.8610    1.7864   14.0877 C   0  0  0  0  0  0  0  0  0  0  0  0
   -1.1433    1.0130   13.1896 C   0  0  0  0  0  0  0  0  0  0  0  0
   -1.4666    0.9625   11.8528 C   0  0  0  0  0  0  0  0  0  0  0  0
   -2.5503    1.7235   11.4332 C   0  0  0  0  0  0  0  0  0  0  0  0
   -2.9418    1.7000    9.9755 C   0  0  0  0  0  0  0  0  0  0  0  0
   -2.5271    0.4963    9.3813 N   0  0  0  0  0  0  0  0  0  0  0  0
   -2.1039    0.4749    8.0424 C   0  0  0  0  0  0  0  0  0  0  0  0
   -1.1967    1.6296    7.6599 C   0  0  0  0  0  0  0  0  0  0  0  0
   -0.9898    1.6404    6.1778 C   0  0  0  0  0  0  0  0  0  0  0  0
   -1.7070    0.5055    5.4852 C   0  0  0  0  0  0  0  0  0  0  0  0
   -1.2498   -0.6989    6.1087 N   0  0  0  0  0  0  0  0  0  0  0  0
   -1.7066   -0.8470    7.4899 C   0  0  0  0  0  0  0  0  0  0  0  0
   -0.6723   -1.5868    8.2238 C   0  0  0  0  0  0  0  0  0  0  0  0
    0.4915   -0.9954    8.6549 C   0  0  0  0  0  0  0  0  0  0  0  0
    1.4580   -1.7203    9.3498 C   0  0  0  0  0  0  0  0  0  0  0  0
    1.2651   -3.0566    9.6211 C   0  0  0  0  0  0  0  0  0  0  0  0
    0.1040   -3.6616    9.1951 C   0  0  0  0  0  0  0  0  0  0  0  0
   -0.8253   -2.9200    8.5147 C   0  0  0  0  0  0  0  0  0  0  0  0
  1  2  1  0
  2  3  1  0
  3  4  2  0
  4  5  1  0
  5  6  2  0
  6  7  1  0
  7  8  2  0
  8  9  1  0
  9 10  1  0
 10 11  1  0
 11 12  1  0
 12 13  1  0
 13 14  1  0
 14 15  1  0
 15 16  1  0
 16 17  1  0
 17 18  2  0
 18 19  1  0
 19 20  2  0
 20 21  1  0
 21 22  2  0
  8  3  1  0
 16 11  1  0
 22 17  1  0
M  END
$$$$
