
     RDKit          3D

 22 24  0  0  0  0  0  0  0  0999 V2000
   -3.9892    0.5077   12.3372 C   0  0  0  0  0  0  0  0  0  0  0  0
   -2.9717    1.4493   12.0629 O   0  0  0  0  0  0  0  0  0  0  0  0
   -1.6963    1.0311   11.6918 C   0  0  0  0  0  0  0  0  0  0  0  0
   -0.8185    0.4554   12.5669 C   0  0  0  0  0  0  0  0  0  0  0  0
    0.4313    0.0587   12.1513 C   0  0  0  0  0  0  0  0  0  0  0  0
    0.7885    0.2522   10.8265 C   0  0  0  0  0  0  0  0  0  0  0  0
   -0.0702    0.8286    9.9186 C   0  0  0  0  0  0  0  0  0  0  0  0
   -1.3211    1.2131   10.3844 C   0  0  0  0  0  0  0  0  0  0  0  0
   -2.2965    1.8503    9.4245 C   0  0  0  0  0  0  0  0  0  0  0  0
   -2.7108    0.9147    8.4617 N   0  0  0  0  0  0  0  0  0  0  0  0
   -2.3889    1.1004    7.1074 C   0  0  0  0  0  0  0  0  0  0  0  0
   -1.1653    1.9669    6.8737 C   0  0  0  0  0  0  0  0  0  0  0  0
   -1.0430    2.2866    5.4169 C   0  0  0  0  0  0  0  0  0  0  0  0
   -2.1365    1.6504    4.5911 C   0  0  0  0  0  0  0  0  0  0  0  0
   -2.0826    0.2469    4.8660 N   0  0  0  0  0  0  0  0  0  0  0  0
   -2.4912   -0.0940    6.2280 C   0  0  0  0  0  0  0  0  0  0  0  0
   -1.7322   -1.2827    6.6360 C   0  0  0  0  0  0  0  0  0  0  0  0
   -1.8191   -1.8149    7.9006 C   0  0  0  0  0  0  0  0  0  0  0  0
   -1.0874   -2.9445    8.2629 C   0  0  0  0  0  0  0  0  0  0  0  0
   -0.2545   -3.5563    7.3527 C   0  0  0  0  0  0  0  0  0  0  0  0
   -0.1579   -3.0337    6.0826 C   0  0  0  0  0  0  0  0  0  0  0  0
   -0.8908   -1.9225    5.7594 C   0  0  0  0  0  0  0  0  0  0  0  0
  1  2  1  0
  2  3  1  0
  3  4  2  0
  4  5  1  0
  5  6  2  0
  6  7  1  0
  7  8  2  0
  8  9  1  0
  9 10  1  0
 10 11  1  0
 11 12  1  0
 12 13  1  0
 13 14  1  0
 14 15  1  0
 15 16  1  0
 16 17  1  0
 17 18  2  0
 18 19  1  0
 19 20  2  0
 20 21  1  0
 21 22  2  0
  8  3  1  0
 16 11  1  0
 22 17  1  0
M  END
$$$$
