
     RDKit          3D

 22 24  0  0  0  0  0  0  0  0999 V2000
   -0.8023   -4.6248    8.8757 C   0  0  0  0  0  0  0  0  0  0  0  0
   -1.1629   -3.3925    9.4662 O   0  0  0  0  0  0  0  0  0  0  0  0
   -0.4101   -2.8550   10.5072 C   0  0  0  0  0  0  0  0  0  0  0  0
    0.7142   -3.4561   10.9994 C   0  0  0  0  0  0  0  0  0  0  0  0
    1.4241   -2.8847   12.0298 C   0  0  0  0  0  0  0  0  0  0  0  0
    0.9805   -1.6853   12.5634 C   0  0  0  0  0  0  0  0  0  0  0  0
   -0.1472   -1.0527   12.0922 C   0  0  0  0  0  0  0  0  0  0  0  0
   -0.8312   -1.6675   11.0512 C   0  0  0  0  0  0  0  0  0  0  0  0
   -2.0744   -1.0105   10.5021 C   0  0  0  0  0  0  0  0  0  0  0  0
   -1.7650    0.2600    9.9882 N   0  0  0  0  0  0  0  0  0  0  0  0
   -2.7697    1.0590    9.4189 C   0  0  0  0  0  0  0  0  0  0  0  0
   -2.5253    2.5508    9.5508 C   0  0  0  0  0  0  0  0  0  0  0  0
   -3.7457    3.3030    9.1215 C   0  0  0  0  0  0  0  0  0  0  0  0
   -4.8562    2.3888    8.6597 C   0  0  0  0  0  0  0  0  0  0  0  0
   -4.3014    1.5757    7.6207 N   0  0  0  0  0  0  0  0  0  0  0  0
   -3.3014    0.6228    8.1007 C   0  0  0  0  0  0  0  0  0  0  0  0
   -2.3220    0.4257    7.0248 C   0  0  0  0  0  0  0  0  0  0  0  0
   -1.5364    1.4475    6.5465 C   0  0  0  0  0  0  0  0  0  0  0  0
   -0.6140    1.2341    5.5237 C   0  0  0  0  0  0  0  0  0  0  0  0
   -0.4694   -0.0168    4.9662 C   0  0  0  0  0  0  0  0  0  0  0  0
   -1.2498   -1.0493    5.4357 C   0  0  0  0  0  0  0  0  0  0  0  0
   -2.1466   -0.8051    6.4419 C   0  0  0  0  0  0  0  0  0  0  0  0
  1  2  1  0
  2  3  1  0
  3  4  2  0
  4  5  1  0
  5  6  2  0
  6  7  1  0
  7  8  2  0
  8  9  1  0
  9 10  1  0
 10 11  1  0
 11 12  1  0
 12 13  1  0
 13 14  1  0
 14 15  1  0
 15 16  1  0
 16 17  1  0
 17 18  2  0
 18 19  1  0
 19 20  2  0
 20 21  1  0
 21 22  2  0
  8  3  1  0
 16 11  1  0
 22 17  1  0
M  END
$$$$
