
     RDKit          3D

 22 24  0  0  0  0  0  0  0  0999 V2000
   -6.7738    3.0776    9.3226 C   0  0  0  0  0  0  0  0  0  0  0  0
   -5.6650    2.2247    9.1220 O   0  0  0  0  0  0  0  0  0  0  0  0
   -4.4291    2.7417    8.7420 C   0  0  0  0  0  0  0  0  0  0  0  0
   -4.2963    3.7949    7.8813 C   0  0  0  0  0  0  0  0  0  0  0  0
   -3.0521    4.2696    7.5364 C   0  0  0  0  0  0  0  0  0  0  0  0
   -1.9307    3.6615    8.0772 C   0  0  0  0  0  0  0  0  0  0  0  0
   -2.0275    2.5991    8.9467 C   0  0  0  0  0  0  0  0  0  0  0  0
   -3.3044    2.1546    9.2653 C   0  0  0  0  0  0  0  0  0  0  0  0
   -3.4598    0.9914   10.2148 C   0  0  0  0  0  0  0  0  0  0  0  0
   -3.4851   -0.2180    9.5002 N   0  0  0  0  0  0  0  0  0  0  0  0
   -2.4660   -1.1679    9.6770 C   0  0  0  0  0  0  0  0  0  0  0  0
   -2.8617   -2.5813    9.2916 C   0  0  0  0  0  0  0  0  0  0  0  0
   -1.7980   -3.5402    9.7258 C   0  0  0  0  0  0  0  0  0  0  0  0
   -0.6328   -2.8483   10.3936 C   0  0  0  0  0  0  0  0  0  0  0  0
   -0.1613   -1.8676    9.4639 N   0  0  0  0  0  0  0  0  0  0  0  0
   -1.0973   -0.7624    9.2615 C   0  0  0  0  0  0  0  0  0  0  0  0
   -0.9377   -0.2913    7.8801 C   0  0  0  0  0  0  0  0  0  0  0  0
    0.1200    0.4937    7.4863 C   0  0  0  0  0  0  0  0  0  0  0  0
    0.2482    0.9280    6.1681 C   0  0  0  0  0  0  0  0  0  0  0  0
   -0.6910    0.5762    5.2245 C   0  0  0  0  0  0  0  0  0  0  0  0
   -1.7554   -0.2096    5.6052 C   0  0  0  0  0  0  0  0  0  0  0  0
   -1.8513   -0.6192    6.9088 C   0  0  0  0  0  0  0  0  0  0  0  0
  1  2  1  0
  2  3  1  0
  3  4  2  0
  4  5  1  0
  5  6  2  0
  6  7  1  0
  7  8  2  0
  8  9  1  0
  9 10  1  0
 10 11  1  0
 11 12  1  0
 12 13  1  0
 13 14  1  0
 14 15  1  0
 15 16  1  0
 16 17  1  0
 17 18  2  0
 18 19  1  0
 19 20  2  0
 20 21  1  0
 21 22  2  0
  8  3  1  0
 16 11  1  0
 22 17  1  0
M  END
$$$$
