
     RDKit          3D

 22 24  0  0  0  0  0  0  0  0999 V2000
   -2.3460   -2.3905    5.9393 C   0  0  0  0  0  0  0  0  0  0  0  0
   -1.2289   -1.6490    6.3856 O   0  0  0  0  0  0  0  0  0  0  0  0
   -1.0356   -0.3339    5.9703 C   0  0  0  0  0  0  0  0  0  0  0  0
   -1.1877    0.0661    4.6724 C   0  0  0  0  0  0  0  0  0  0  0  0
   -0.9854    1.3780    4.3118 C   0  0  0  0  0  0  0  0  0  0  0  0
   -0.6236    2.2920    5.2885 C   0  0  0  0  0  0  0  0  0  0  0  0
   -0.4617    1.9240    6.6046 C   0  0  0  0  0  0  0  0  0  0  0  0
   -0.6766    0.5886    6.9209 C   0  0  0  0  0  0  0  0  0  0  0  0
   -0.5101    0.1383    8.3521 C   0  0  0  0  0  0  0  0  0  0  0  0
   -1.2239    0.9879    9.2139 N   0  0  0  0  0  0  0  0  0  0  0  0
   -2.6280    1.0022    9.1934 C   0  0  0  0  0  0  0  0  0  0  0  0
   -3.2680   -0.3118    9.6013 C   0  0  0  0  0  0  0  0  0  0  0  0
   -4.7390   -0.2633    9.3305 C   0  0  0  0  0  0  0  0  0  0  0  0
   -5.1787    1.0644    8.7593 C   0  0  0  0  0  0  0  0  0  0  0  0
   -4.7436    2.0644    9.6861 N   0  0  0  0  0  0  0  0  0  0  0  0
   -3.2902    2.2189    9.7336 C   0  0  0  0  0  0  0  0  0  0  0  0
   -2.9293    2.6170   11.1000 C   0  0  0  0  0  0  0  0  0  0  0  0
   -3.8432    2.6406   12.1267 C   0  0  0  0  0  0  0  0  0  0  0  0
   -3.4748    3.0228   13.4155 C   0  0  0  0  0  0  0  0  0  0  0  0
   -2.1755    3.3880   13.6890 C   0  0  0  0  0  0  0  0  0  0  0  0
   -1.2499    3.3689   12.6700 C   0  0  0  0  0  0  0  0  0  0  0  0
   -1.6454    2.9882   11.4149 C   0  0  0  0  0  0  0  0  0  0  0  0
  1  2  1  0
  2  3  1  0
  3  4  2  0
  4  5  1  0
  5  6  2  0
  6  7  1  0
  7  8  2  0
  8  9  1  0
  9 10  1  0
 10 11  1  0
 11 12  1  0
 12 13  1  0
 13 14  1  0
 14 15  1  0
 15 16  1  0
 16 17  1  0
 17 18  2  0
 18 19  1  0
 19 20  2  0
 20 21  1  0
 21 22  2  0
  8  3  1  0
 16 11  1  0
 22 17  1  0
M  END
$$$$
