
     RDKit          3D

 22 24  0  0  0  0  0  0  0  0999 V2000
   -1.0532   -0.9353    4.0398 C   0  0  0  0  0  0  0  0  0  0  0  0
   -1.5613   -1.0200    5.3558 O   0  0  0  0  0  0  0  0  0  0  0  0
   -1.3819   -2.1735    6.1151 C   0  0  0  0  0  0  0  0  0  0  0  0
   -0.6201   -3.2282    5.6967 C   0  0  0  0  0  0  0  0  0  0  0  0
   -0.4736   -4.3466    6.4840 C   0  0  0  0  0  0  0  0  0  0  0  0
   -1.1124   -4.3881    7.7129 C   0  0  0  0  0  0  0  0  0  0  0  0
   -1.8869   -3.3444    8.1654 C   0  0  0  0  0  0  0  0  0  0  0  0
   -2.0056   -2.2365    7.3359 C   0  0  0  0  0  0  0  0  0  0  0  0
   -2.8457   -1.0674    7.7902 C   0  0  0  0  0  0  0  0  0  0  0  0
   -2.6082   -0.7984    9.1485 N   0  0  0  0  0  0  0  0  0  0  0  0
   -1.8575    0.3260    9.5284 C   0  0  0  0  0  0  0  0  0  0  0  0
   -0.5776    0.5144    8.7353 C   0  0  0  0  0  0  0  0  0  0  0  0
    0.2506    1.5926    9.3605 C   0  0  0  0  0  0  0  0  0  0  0  0
   -0.4137    2.2032   10.5722 C   0  0  0  0  0  0  0  0  0  0  0  0
   -1.6987    2.6603   10.1384 N   0  0  0  0  0  0  0  0  0  0  0  0
   -2.6179    1.5741    9.8014 C   0  0  0  0  0  0  0  0  0  0  0  0
   -3.5038    2.0557    8.7342 C   0  0  0  0  0  0  0  0  0  0  0  0
   -4.8594    1.8273    8.7420 C   0  0  0  0  0  0  0  0  0  0  0  0
   -5.6786    2.2953    7.7161 C   0  0  0  0  0  0  0  0  0  0  0  0
   -5.1416    3.0027    6.6637 C   0  0  0  0  0  0  0  0  0  0  0  0
   -3.7853    3.2387    6.6433 C   0  0  0  0  0  0  0  0  0  0  0  0
   -3.0089    2.7646    7.6674 C   0  0  0  0  0  0  0  0  0  0  0  0
  1  2  1  0
  2  3  1  0
  3  4  2  0
  4  5  1  0
  5  6  2  0
  6  7  1  0
  7  8  2  0
  8  9  1  0
  9 10  1  0
 10 11  1  0
 11 12  1  0
 12 13  1  0
 13 14  1  0
 14 15  1  0
 15 16  1  0
 16 17  1  0
 17 18  2  0
 18 19  1  0
 19 20  2  0
 20 21  1  0
 21 22  2  0
  8  3  1  0
 16 11  1  0
 22 17  1  0
M  END
$$$$
