
     RDKit          3D

 22 24  0  0  0  0  0  0  0  0999 V2000
   -1.8845    2.8761   13.1121 C   0  0  0  0  0  0  0  0  0  0  0  0
   -1.3958    2.5990   11.8154 O   0  0  0  0  0  0  0  0  0  0  0  0
   -1.1759    1.2873   11.4030 C   0  0  0  0  0  0  0  0  0  0  0  0
   -0.0282    0.6013   11.6854 C   0  0  0  0  0  0  0  0  0  0  0  0
    0.1415   -0.6942   11.2554 C   0  0  0  0  0  0  0  0  0  0  0  0
   -0.8731   -1.2961   10.5284 C   0  0  0  0  0  0  0  0  0  0  0  0
   -2.0417   -0.6351   10.2261 C   0  0  0  0  0  0  0  0  0  0  0  0
   -2.1675    0.6713   10.6813 C   0  0  0  0  0  0  0  0  0  0  0  0
   -3.4319    1.4362   10.3731 C   0  0  0  0  0  0  0  0  0  0  0  0
   -3.1626    2.4717    9.4626 N   0  0  0  0  0  0  0  0  0  0  0  0
   -3.7541    2.4683    8.1890 C   0  0  0  0  0  0  0  0  0  0  0  0
   -3.5785    3.7645    7.4198 C   0  0  0  0  0  0  0  0  0  0  0  0
   -4.4273    3.7401    6.1876 C   0  0  0  0  0  0  0  0  0  0  0  0
   -5.1924    2.4461    6.0375 C   0  0  0  0  0  0  0  0  0  0  0  0
   -4.2189    1.3975    6.0715 N   0  0  0  0  0  0  0  0  0  0  0  0
   -3.5910    1.2305    7.3815 C   0  0  0  0  0  0  0  0  0  0  0  0
   -2.2175    0.7614    7.1602 C   0  0  0  0  0  0  0  0  0  0  0  0
   -1.9347   -0.5075    6.7132 C   0  0  0  0  0  0  0  0  0  0  0  0
   -0.6214   -0.9283    6.5112 C   0  0  0  0  0  0  0  0  0  0  0  0
    0.4296   -0.0734    6.7578 C   0  0  0  0  0  0  0  0  0  0  0  0
    0.1607    1.2003    7.2059 C   0  0  0  0  0  0  0  0  0  0  0  0
   -1.1414    1.5818    7.3938 C   0  0  0  0  0  0  0  0  0  0  0  0
  1  2  1  0
  2  3  1  0
  3  4  2  0
  4  5  1  0
  5  6  2  0
  6  7  1  0
  7  8  2  0
  8  9  1  0
  9 10  1  0
 10 11  1  0
 11 12  1  0
 12 13  1  0
 13 14  1  0
 14 15  1  0
 15 16  1  0
 16 17  1  0
 17 18  2  0
 18 19  1  0
 19 20  2  0
 20 21  1  0
 21 22  2  0
  8  3  1  0
 16 11  1  0
 22 17  1  0
M  END
$$$$
