
     RDKit          3D

 22 24  0  0  0  0  0  0  0  0999 V2000
    0.0495    0.5281   13.2105 C   0  0  0  0  0  0  0  0  0  0  0  0
    0.4902    0.0925   11.9404 O   0  0  0  0  0  0  0  0  0  0  0  0
    0.5972   -1.2655   11.6514 C   0  0  0  0  0  0  0  0  0  0  0  0
    1.0017   -2.1920   12.5710 C   0  0  0  0  0  0  0  0  0  0  0  0
    1.0912   -3.5232   12.2364 C   0  0  0  0  0  0  0  0  0  0  0  0
    0.7636   -3.9126   10.9476 C   0  0  0  0  0  0  0  0  0  0  0  0
    0.3526   -3.0067    9.9966 C   0  0  0  0  0  0  0  0  0  0  0  0
    0.2778   -1.6739   10.3807 C   0  0  0  0  0  0  0  0  0  0  0  0
   -0.1676   -0.6441    9.3708 C   0  0  0  0  0  0  0  0  0  0  0  0
   -1.2107    0.1344    9.8997 N   0  0  0  0  0  0  0  0  0  0  0  0
   -2.4911    0.0901    9.3245 C   0  0  0  0  0  0  0  0  0  0  0  0
   -3.4962    1.0224    9.9750 C   0  0  0  0  0  0  0  0  0  0  0  0
   -4.8666    0.7370    9.4460 C   0  0  0  0  0  0  0  0  0  0  0  0
   -4.8696   -0.3632    8.4107 C   0  0  0  0  0  0  0  0  0  0  0  0
   -3.9461    0.0392    7.3940 N   0  0  0  0  0  0  0  0  0  0  0  0
   -2.5535    0.0347    7.8400 C   0  0  0  0  0  0  0  0  0  0  0  0
   -1.8484    1.0945    7.1084 C   0  0  0  0  0  0  0  0  0  0  0  0
   -1.8727    2.4092    7.5096 C   0  0  0  0  0  0  0  0  0  0  0  0
   -1.1947    3.3966    6.7969 C   0  0  0  0  0  0  0  0  0  0  0  0
   -0.4799    3.0721    5.6654 C   0  0  0  0  0  0  0  0  0  0  0  0
   -0.4471    1.7592    5.2522 C   0  0  0  0  0  0  0  0  0  0  0  0
   -1.1245    0.8137    5.9758 C   0  0  0  0  0  0  0  0  0  0  0  0
  1  2  1  0
  2  3  1  0
  3  4  2  0
  4  5  1  0
  5  6  2  0
  6  7  1  0
  7  8  2  0
  8  9  1  0
  9 10  1  0
 10 11  1  0
 11 12  1  0
 12 13  1  0
 13 14  1  0
 14 15  1  0
 15 16  1  0
 16 17  1  0
 17 18  2  0
 18 19  1  0
 19 20  2  0
 20 21  1  0
 21 22  2  0
  8  3  1  0
 16 11  1  0
 22 17  1  0
M  END
$$$$
