
     RDKit          3D

 32 36  0  0  0  0  0  0  0  0999 V2000
   -1.9212   -6.9087    9.8579 C   0  0  0  0  0  0  0  0  0  0  0  0
   -2.1531   -5.4403    9.9742 C   0  0  0  0  0  0  0  0  0  0  0  0
   -3.4515   -4.9896    9.3219 C   0  0  0  0  0  0  0  0  0  0  0  0
   -3.9420   -3.6708    9.7851 C   0  0  0  0  0  0  0  0  0  0  0  0
   -3.0157   -2.6115    9.9982 N   0  0  0  0  0  0  0  0  0  0  0  0
   -1.6887   -2.2875    9.6054 C   0  0  0  0  0  0  0  0  0  0  0  0
   -0.7107   -3.3541   10.0245 C   0  0  0  0  0  0  0  0  0  0  0  0
   -1.0694   -4.6254    9.4299 N   0  0  0  0  0  0  0  0  0  0  0  0
   -0.3647   -5.0557    8.2909 C   0  0  0  0  0  0  0  0  0  0  0  0
   -0.3446   -6.2704    8.0127 O   0  0  0  0  0  0  0  0  0  0  0  0
    0.3448   -4.1241    7.4220 C   0  0  0  0  0  0  0  0  0  0  0  0
    0.3595   -2.7618    7.7657 C   0  0  0  0  0  0  0  0  0  0  0  0
    0.9901   -1.8262    6.9857 C   0  0  0  0  0  0  0  0  0  0  0  0
    1.6223   -2.2525    5.8377 C   0  0  0  0  0  0  0  0  0  0  0  0
    1.6437   -3.5697    5.4499 C   0  0  0  0  0  0  0  0  0  0  0  0
    0.9917   -4.4774    6.2707 C   0  0  0  0  0  0  0  0  0  0  0  0
    2.3432   -4.0031    4.2032 C   0  0  0  0  0  0  0  0  0  0  0  0
   -0.2652   -2.3758    8.9760 N   0  0  0  0  0  0  0  0  0  0  0  0
   -1.5179   -2.0514    9.1551 N   0  0  0  0  0  0  0  0  0  0  0  0
   -1.7415   -1.7525   10.4590 C   0  0  0  0  0  0  0  0  0  0  0  0
   -0.5350   -1.9119   11.0940 C   0  0  0  0  0  0  0  0  0  0  0  0
    0.3513   -2.2931   10.1658 N   0  0  0  0  0  0  0  0  0  0  0  0
   -3.6141   -1.5650   10.8010 C   0  0  0  0  0  0  0  0  0  0  0  0
   -4.2204   -0.4866   10.3484 N   0  0  0  0  0  0  0  0  0  0  0  0
   -4.6500    0.2570   11.4133 C   0  0  0  0  0  0  0  0  0  0  0  0
   -4.2604   -0.4504   12.5230 C   0  0  0  0  0  0  0  0  0  0  0  0
   -3.6424   -1.5355   12.1079 O   0  0  0  0  0  0  0  0  0  0  0  0
   -4.5542    0.0491   13.7692 C   0  0  0  0  0  0  0  0  0  0  0  0
   -5.2185    1.2246   13.9024 C   0  0  0  0  0  0  0  0  0  0  0  0
   -5.6298    1.9735   12.8067 C   0  0  0  0  0  0  0  0  0  0  0  0
   -5.3196    1.4441   11.5633 C   0  0  0  0  0  0  0  0  0  0  0  0
   -6.4898    3.4907   12.9981 Cl  0  0  0  0  0  0  0  0  0  0  0  0
  1  2  1  0
  2  3  1  0
  3  4  1  0
  4  5  1  0
  5  6  1  0
  6  7  1  0
  7  8  1  0
  8  9  1  0
  9 10  2  0
  9 11  1  0
 11 12  1  0
 12 13  2  0
 13 14  1  0
 14 15  2  0
 15 16  1  0
 15 17  1  0
 12 18  1  0
 18 19  1  0
 19 20  2  0
 20 21  1  0
 21 22  2  0
  5 23  1  0
 23 24  2  0
 24 25  1  0
 25 26  2  0
 26 27  1  0
 26 28  1  0
 28 29  2  0
 29 30  1  0
 30 31  2  0
 30 32  1  0
  8  2  1  0
 16 11  2  0
 22 18  1  0
 27 23  1  0
 31 25  1  0
M  END
$$$$
