
     RDKit          3D

 32 36  0  0  0  0  0  0  0  0999 V2000
   -1.1718   -5.7911    9.2175 C   0  0  0  0  0  0  0  0  0  0  0  0
   -1.5129   -4.3759    9.5407 C   0  0  0  0  0  0  0  0  0  0  0  0
   -2.6340   -3.8216    8.6745 C   0  0  0  0  0  0  0  0  0  0  0  0
   -3.3022   -2.6234    9.2333 C   0  0  0  0  0  0  0  0  0  0  0  0
   -2.5227   -1.6155    9.8674 N   0  0  0  0  0  0  0  0  0  0  0  0
   -1.1616   -1.2066    9.8923 C   0  0  0  0  0  0  0  0  0  0  0  0
   -0.2557   -2.3233   10.3416 C   0  0  0  0  0  0  0  0  0  0  0  0
   -0.3791   -3.4588    9.4506 N   0  0  0  0  0  0  0  0  0  0  0  0
    0.6101   -3.6519    8.4691 C   0  0  0  0  0  0  0  0  0  0  0  0
    1.2533   -4.7193    8.4576 O   0  0  0  0  0  0  0  0  0  0  0  0
    0.9083   -2.6410    7.4615 C   0  0  0  0  0  0  0  0  0  0  0  0
    0.8959   -3.0166    6.1076 C   0  0  0  0  0  0  0  0  0  0  0  0
    1.1854   -2.1241    5.1071 C   0  0  0  0  0  0  0  0  0  0  0  0
    1.4936   -0.8275    5.4581 C   0  0  0  0  0  0  0  0  0  0  0  0
    1.5207   -0.4003    6.7630 C   0  0  0  0  0  0  0  0  0  0  0  0
    1.2218   -1.3395    7.7383 C   0  0  0  0  0  0  0  0  0  0  0  0
    1.8518    1.0137    7.1126 C   0  0  0  0  0  0  0  0  0  0  0  0
    0.5311   -4.3474    5.7913 N   0  0  0  0  0  0  0  0  0  0  0  0
   -0.5889   -4.7590    5.2595 N   0  0  0  0  0  0  0  0  0  0  0  0
   -0.5617   -6.1051    5.0962 C   0  0  0  0  0  0  0  0  0  0  0  0
    0.6611   -6.5166    5.5648 C   0  0  0  0  0  0  0  0  0  0  0  0
    1.3103   -5.4235    5.9844 N   0  0  0  0  0  0  0  0  0  0  0  0
   -3.3628   -0.7516   10.6708 C   0  0  0  0  0  0  0  0  0  0  0  0
   -4.5157   -1.0769   11.2191 N   0  0  0  0  0  0  0  0  0  0  0  0
   -5.0018    0.0064   11.8985 C   0  0  0  0  0  0  0  0  0  0  0  0
   -4.0633    0.9915   11.7180 C   0  0  0  0  0  0  0  0  0  0  0  0
   -3.0986    0.4923   10.9752 O   0  0  0  0  0  0  0  0  0  0  0  0
   -4.2707    2.2232   12.2913 C   0  0  0  0  0  0  0  0  0  0  0  0
   -5.3869    2.4640   13.0242 C   0  0  0  0  0  0  0  0  0  0  0  0
   -6.3627    1.4967   13.2308 C   0  0  0  0  0  0  0  0  0  0  0  0
   -6.1255    0.2646   12.6407 C   0  0  0  0  0  0  0  0  0  0  0  0
   -7.7988    1.8254   14.1834 Cl  0  0  0  0  0  0  0  0  0  0  0  0
  1  2  1  0
  2  3  1  0
  3  4  1  0
  4  5  1  0
  5  6  1  0
  6  7  1  0
  7  8  1  0
  8  9  1  0
  9 10  2  0
  9 11  1  0
 11 12  1  0
 12 13  2  0
 13 14  1  0
 14 15  2  0
 15 16  1  0
 15 17  1  0
 12 18  1  0
 18 19  1  0
 19 20  2  0
 20 21  1  0
 21 22  2  0
  5 23  1  0
 23 24  2  0
 24 25  1  0
 25 26  2  0
 26 27  1  0
 26 28  1  0
 28 29  2  0
 29 30  1  0
 30 31  2  0
 30 32  1  0
  8  2  1  0
 16 11  2  0
 22 18  1  0
 27 23  1  0
 31 25  1  0
M  END
$$$$
