
     RDKit          3D

 32 36  0  0  0  0  0  0  0  0999 V2000
   -2.1142   -5.6903    7.5935 C   0  0  0  0  0  0  0  0  0  0  0  0
   -2.2245   -4.4401    8.3986 C   0  0  0  0  0  0  0  0  0  0  0  0
   -2.4920   -3.2069    7.5488 C   0  0  0  0  0  0  0  0  0  0  0  0
   -3.0459   -2.0562    8.2994 C   0  0  0  0  0  0  0  0  0  0  0  0
   -2.5419   -1.7544    9.5958 N   0  0  0  0  0  0  0  0  0  0  0  0
   -1.3798   -2.0464   10.3604 C   0  0  0  0  0  0  0  0  0  0  0  0
   -1.1842   -3.5310   10.5262 C   0  0  0  0  0  0  0  0  0  0  0  0
   -1.0554   -4.1678    9.2315 N   0  0  0  0  0  0  0  0  0  0  0  0
    0.2323   -4.5010    8.7731 C   0  0  0  0  0  0  0  0  0  0  0  0
    1.0734   -4.9306    9.5862 O   0  0  0  0  0  0  0  0  0  0  0  0
    0.6161   -4.3603    7.3734 C   0  0  0  0  0  0  0  0  0  0  0  0
    0.8858   -3.0743    6.8759 C   0  0  0  0  0  0  0  0  0  0  0  0
    1.2333   -2.8642    5.5658 C   0  0  0  0  0  0  0  0  0  0  0  0
    1.3162   -3.9564    4.7294 C   0  0  0  0  0  0  0  0  0  0  0  0
    1.0658   -5.2371    5.1570 C   0  0  0  0  0  0  0  0  0  0  0  0
    0.7174   -5.3982    6.4895 C   0  0  0  0  0  0  0  0  0  0  0  0
    1.1702   -6.4025    4.2284 C   0  0  0  0  0  0  0  0  0  0  0  0
    0.8311   -1.9873    7.7813 N   0  0  0  0  0  0  0  0  0  0  0  0
    1.0539   -2.0135    9.0682 N   0  0  0  0  0  0  0  0  0  0  0  0
    0.9177   -0.7697    9.5915 C   0  0  0  0  0  0  0  0  0  0  0  0
    0.5914    0.0481    8.5385 C   0  0  0  0  0  0  0  0  0  0  0  0
    0.5443   -0.7201    7.4430 N   0  0  0  0  0  0  0  0  0  0  0  0
   -3.4498   -0.8757   10.3037 C   0  0  0  0  0  0  0  0  0  0  0  0
   -3.8077   -0.9797   11.5672 N   0  0  0  0  0  0  0  0  0  0  0  0
   -4.6758    0.0350   11.8643 C   0  0  0  0  0  0  0  0  0  0  0  0
   -4.8073    0.7454   10.6973 C   0  0  0  0  0  0  0  0  0  0  0  0
   -4.0547    0.1629    9.7886 O   0  0  0  0  0  0  0  0  0  0  0  0
   -5.6296    1.8464   10.6760 C   0  0  0  0  0  0  0  0  0  0  0  0
   -6.3032    2.2262   11.7908 C   0  0  0  0  0  0  0  0  0  0  0  0
   -6.2006    1.5354   12.9921 C   0  0  0  0  0  0  0  0  0  0  0  0
   -5.3637    0.4300   12.9828 C   0  0  0  0  0  0  0  0  0  0  0  0
   -7.0777    2.0425   14.4244 Cl  0  0  0  0  0  0  0  0  0  0  0  0
  1  2  1  0
  2  3  1  0
  3  4  1  0
  4  5  1  0
  5  6  1  0
  6  7  1  0
  7  8  1  0
  8  9  1  0
  9 10  2  0
  9 11  1  0
 11 12  1  0
 12 13  2  0
 13 14  1  0
 14 15  2  0
 15 16  1  0
 15 17  1  0
 12 18  1  0
 18 19  1  0
 19 20  2  0
 20 21  1  0
 21 22  2  0
  5 23  1  0
 23 24  2  0
 24 25  1  0
 25 26  2  0
 26 27  1  0
 26 28  1  0
 28 29  2  0
 29 30  1  0
 30 31  2  0
 30 32  1  0
  8  2  1  0
 16 11  2  0
 22 18  1  0
 27 23  1  0
 31 25  1  0
M  END
$$$$
