
     RDKit          3D

 32 36  0  0  0  0  0  0  0  0999 V2000
   -2.4422   -5.7679    8.1648 C   0  0  0  0  0  0  0  0  0  0  0  0
   -2.5992   -4.3660    8.6480 C   0  0  0  0  0  0  0  0  0  0  0  0
   -3.8515   -3.6887    8.1119 C   0  0  0  0  0  0  0  0  0  0  0  0
   -4.2851   -2.5039    8.8883 C   0  0  0  0  0  0  0  0  0  0  0  0
   -3.3107   -1.5900    9.3788 N   0  0  0  0  0  0  0  0  0  0  0  0
   -1.9570   -1.2558    9.1024 C   0  0  0  0  0  0  0  0  0  0  0  0
   -1.0502   -2.4497    9.2510 C   0  0  0  0  0  0  0  0  0  0  0  0
   -1.4578   -3.5051    8.3464 N   0  0  0  0  0  0  0  0  0  0  0  0
   -0.7430   -3.6733    7.1465 C   0  0  0  0  0  0  0  0  0  0  0  0
   -0.9124   -4.7126    6.4798 O   0  0  0  0  0  0  0  0  0  0  0  0
    0.1924   -2.6682    6.6554 C   0  0  0  0  0  0  0  0  0  0  0  0
    1.5169   -3.0546    6.3900 C   0  0  0  0  0  0  0  0  0  0  0  0
    2.4557   -2.1593    5.9447 C   0  0  0  0  0  0  0  0  0  0  0  0
    2.0709   -0.8493    5.7572 C   0  0  0  0  0  0  0  0  0  0  0  0
    0.7917   -0.4117    5.9979 C   0  0  0  0  0  0  0  0  0  0  0  0
   -0.1208   -1.3539    6.4476 C   0  0  0  0  0  0  0  0  0  0  0  0
    0.4022    1.0137    5.7791 C   0  0  0  0  0  0  0  0  0  0  0  0
    1.8560   -4.4192    6.5548 N   0  0  0  0  0  0  0  0  0  0  0  0
    1.8735   -5.3497    5.6380 N   0  0  0  0  0  0  0  0  0  0  0  0
    2.2631   -6.5310    6.1785 C   0  0  0  0  0  0  0  0  0  0  0  0
    2.4915   -6.2794    7.5084 C   0  0  0  0  0  0  0  0  0  0  0  0
    2.2354   -4.9814    7.7134 N   0  0  0  0  0  0  0  0  0  0  0  0
   -3.8765   -0.7479   10.4124 C   0  0  0  0  0  0  0  0  0  0  0  0
   -3.4979   -0.7017   11.6734 N   0  0  0  0  0  0  0  0  0  0  0  0
   -4.2712    0.2144   12.3324 C   0  0  0  0  0  0  0  0  0  0  0  0
   -5.1294    0.7071   11.3814 C   0  0  0  0  0  0  0  0  0  0  0  0
   -4.8569    0.1011   10.2455 O   0  0  0  0  0  0  0  0  0  0  0  0
   -6.0472    1.6639   11.7431 C   0  0  0  0  0  0  0  0  0  0  0  0
   -6.1062    2.1152   13.0213 C   0  0  0  0  0  0  0  0  0  0  0  0
   -5.2581    1.6431   14.0155 C   0  0  0  0  0  0  0  0  0  0  0  0
   -4.3432    0.6791   13.6204 C   0  0  0  0  0  0  0  0  0  0  0  0
   -5.3475    2.2399   15.6628 Cl  0  0  0  0  0  0  0  0  0  0  0  0
  1  2  1  0
  2  3  1  0
  3  4  1  0
  4  5  1  0
  5  6  1  0
  6  7  1  0
  7  8  1  0
  8  9  1  0
  9 10  2  0
  9 11  1  0
 11 12  1  0
 12 13  2  0
 13 14  1  0
 14 15  2  0
 15 16  1  0
 15 17  1  0
 12 18  1  0
 18 19  1  0
 19 20  2  0
 20 21  1  0
 21 22  2  0
  5 23  1  0
 23 24  2  0
 24 25  1  0
 25 26  2  0
 26 27  1  0
 26 28  1  0
 28 29  2  0
 29 30  1  0
 30 31  2  0
 30 32  1  0
  8  2  1  0
 16 11  2  0
 22 18  1  0
 27 23  1  0
 31 25  1  0
M  END
$$$$
