
     RDKit          3D

 32 36  0  0  0  0  0  0  0  0999 V2000
   -4.2135   -3.6737   12.1181 C   0  0  0  0  0  0  0  0  0  0  0  0
   -3.0554   -3.3687   11.2298 C   0  0  0  0  0  0  0  0  0  0  0  0
   -1.9529   -4.4139   11.3098 C   0  0  0  0  0  0  0  0  0  0  0  0
   -1.0207   -4.4079   10.1585 C   0  0  0  0  0  0  0  0  0  0  0  0
   -0.5890   -3.1675    9.6102 N   0  0  0  0  0  0  0  0  0  0  0  0
   -0.5275   -1.8077   10.0194 C   0  0  0  0  0  0  0  0  0  0  0  0
   -1.8885   -1.2786   10.3902 C   0  0  0  0  0  0  0  0  0  0  0  0
   -2.4530   -2.0597   11.4716 N   0  0  0  0  0  0  0  0  0  0  0  0
   -2.3885   -1.5416   12.7779 C   0  0  0  0  0  0  0  0  0  0  0  0
   -2.5664   -2.3083   13.7443 O   0  0  0  0  0  0  0  0  0  0  0  0
   -2.1190   -0.1326   13.0393 C   0  0  0  0  0  0  0  0  0  0  0  0
   -3.0823    0.8179   12.6611 C   0  0  0  0  0  0  0  0  0  0  0  0
   -2.8884    2.1614   12.8580 C   0  0  0  0  0  0  0  0  0  0  0  0
   -1.7111    2.5717   13.4453 C   0  0  0  0  0  0  0  0  0  0  0  0
   -0.7331    1.6910   13.8375 C   0  0  0  0  0  0  0  0  0  0  0  0
   -0.9751    0.3437   13.6166 C   0  0  0  0  0  0  0  0  0  0  0  0
    0.5304    2.1651   14.4780 C   0  0  0  0  0  0  0  0  0  0  0  0
   -4.2947    0.3479   12.1015 N   0  0  0  0  0  0  0  0  0  0  0  0
   -4.6036    0.2595   10.8353 N   0  0  0  0  0  0  0  0  0  0  0  0
   -5.8522   -0.2505   10.6932 C   0  0  0  0  0  0  0  0  0  0  0  0
   -6.3125   -0.4792   11.9660 C   0  0  0  0  0  0  0  0  0  0  0  0
   -5.3420   -0.1050   12.8090 N   0  0  0  0  0  0  0  0  0  0  0  0
   -0.0212   -3.3630    8.2922 C   0  0  0  0  0  0  0  0  0  0  0  0
    0.7674   -4.3515    7.9227 N   0  0  0  0  0  0  0  0  0  0  0  0
    1.0921   -4.1868    6.6040 C   0  0  0  0  0  0  0  0  0  0  0  0
    0.4449   -3.0397    6.2176 C   0  0  0  0  0  0  0  0  0  0  0  0
   -0.2098   -2.5797    7.2623 O   0  0  0  0  0  0  0  0  0  0  0  0
    0.5782   -2.6034    4.9213 C   0  0  0  0  0  0  0  0  0  0  0  0
    1.3389   -3.2944    4.0354 C   0  0  0  0  0  0  0  0  0  0  0  0
    2.0122   -4.4587    4.3842 C   0  0  0  0  0  0  0  0  0  0  0  0
    1.8583   -4.8740    5.6981 C   0  0  0  0  0  0  0  0  0  0  0  0
    2.9898   -5.3404    3.2245 Cl  0  0  0  0  0  0  0  0  0  0  0  0
  1  2  1  0
  2  3  1  0
  3  4  1  0
  4  5  1  0
  5  6  1  0
  6  7  1  0
  7  8  1  0
  8  9  1  0
  9 10  2  0
  9 11  1  0
 11 12  1  0
 12 13  2  0
 13 14  1  0
 14 15  2  0
 15 16  1  0
 15 17  1  0
 12 18  1  0
 18 19  1  0
 19 20  2  0
 20 21  1  0
 21 22  2  0
  5 23  1  0
 23 24  2  0
 24 25  1  0
 25 26  2  0
 26 27  1  0
 26 28  1  0
 28 29  2  0
 29 30  1  0
 30 31  2  0
 30 32  1  0
  8  2  1  0
 16 11  2  0
 22 18  1  0
 27 23  1  0
 31 25  1  0
M  END
$$$$
