
     RDKit          3D

 32 36  0  0  0  0  0  0  0  0999 V2000
   -1.1135   -5.9933    9.4993 C   0  0  0  0  0  0  0  0  0  0  0  0
   -1.6027   -4.6116    9.7732 C   0  0  0  0  0  0  0  0  0  0  0  0
   -2.7805   -4.2128    8.8968 C   0  0  0  0  0  0  0  0  0  0  0  0
   -3.5705   -3.0728    9.4170 C   0  0  0  0  0  0  0  0  0  0  0  0
   -2.9006   -1.9645   10.0072 N   0  0  0  0  0  0  0  0  0  0  0  0
   -1.5910   -1.4119   10.0057 C   0  0  0  0  0  0  0  0  0  0  0  0
   -0.5688   -2.4081   10.4880 C   0  0  0  0  0  0  0  0  0  0  0  0
   -0.5739   -3.5827    9.6402 N   0  0  0  0  0  0  0  0  0  0  0  0
    0.4260   -3.7054    8.6582 C   0  0  0  0  0  0  0  0  0  0  0  0
    1.1402   -4.7267    8.6438 O   0  0  0  0  0  0  0  0  0  0  0  0
    0.6545   -2.6739    7.6532 C   0  0  0  0  0  0  0  0  0  0  0  0
    0.6329   -3.0398    6.2968 C   0  0  0  0  0  0  0  0  0  0  0  0
    0.8587   -2.1270    5.2982 C   0  0  0  0  0  0  0  0  0  0  0  0
    1.1109   -0.8196    5.6538 C   0  0  0  0  0  0  0  0  0  0  0  0
    1.1438   -0.4012    6.9613 C   0  0  0  0  0  0  0  0  0  0  0  0
    0.9103   -1.3608    7.9346 C   0  0  0  0  0  0  0  0  0  0  0  0
    1.4132    1.0247    7.3160 C   0  0  0  0  0  0  0  0  0  0  0  0
    0.3266   -4.3843    5.9767 N   0  0  0  0  0  0  0  0  0  0  0  0
   -0.7831   -4.8460    5.4648 N   0  0  0  0  0  0  0  0  0  0  0  0
   -0.6941   -6.1879    5.2894 C   0  0  0  0  0  0  0  0  0  0  0  0
    0.5568   -6.5429    5.7292 C   0  0  0  0  0  0  0  0  0  0  0  0
    1.1609   -5.4227    6.1445 N   0  0  0  0  0  0  0  0  0  0  0  0
   -3.8248   -1.1659   10.7855 C   0  0  0  0  0  0  0  0  0  0  0  0
   -3.5372   -0.0607   11.4423 N   0  0  0  0  0  0  0  0  0  0  0  0
   -4.6730    0.3982   12.0513 C   0  0  0  0  0  0  0  0  0  0  0  0
   -5.6496   -0.5046   11.7121 C   0  0  0  0  0  0  0  0  0  0  0  0
   -5.0953   -1.4255   10.9529 O   0  0  0  0  0  0  0  0  0  0  0  0
   -6.9270   -0.3126   12.1810 C   0  0  0  0  0  0  0  0  0  0  0  0
   -7.2201    0.7525   12.9687 C   0  0  0  0  0  0  0  0  0  0  0  0
   -6.2625    1.6893   13.3376 C   0  0  0  0  0  0  0  0  0  0  0  0
   -4.9837    1.4692   12.8492 C   0  0  0  0  0  0  0  0  0  0  0  0
   -6.6603    3.0618   14.3554 Cl  0  0  0  0  0  0  0  0  0  0  0  0
  1  2  1  0
  2  3  1  0
  3  4  1  0
  4  5  1  0
  5  6  1  0
  6  7  1  0
  7  8  1  0
  8  9  1  0
  9 10  2  0
  9 11  1  0
 11 12  1  0
 12 13  2  0
 13 14  1  0
 14 15  2  0
 15 16  1  0
 15 17  1  0
 12 18  1  0
 18 19  1  0
 19 20  2  0
 20 21  1  0
 21 22  2  0
  5 23  1  0
 23 24  2  0
 24 25  1  0
 25 26  2  0
 26 27  1  0
 26 28  1  0
 28 29  2  0
 29 30  1  0
 30 31  2  0
 30 32  1  0
  8  2  1  0
 16 11  2  0
 22 18  1  0
 27 23  1  0
 31 25  1  0
M  END
$$$$
