
     RDKit          3D

 32 36  0  0  0  0  0  0  0  0999 V2000
   -3.2061   -4.9698    6.5665 C   0  0  0  0  0  0  0  0  0  0  0  0
   -3.1039   -3.9477    7.6474 C   0  0  0  0  0  0  0  0  0  0  0  0
   -3.2787   -2.5246    7.1389 C   0  0  0  0  0  0  0  0  0  0  0  0
   -3.6316   -1.5401    8.1880 C   0  0  0  0  0  0  0  0  0  0  0  0
   -3.0023   -1.6148    9.4624 N   0  0  0  0  0  0  0  0  0  0  0  0
   -1.8327   -2.2004   10.0187 C   0  0  0  0  0  0  0  0  0  0  0  0
   -1.8092   -3.6928    9.8140 C   0  0  0  0  0  0  0  0  0  0  0  0
   -1.8531   -4.0062    8.4004 N   0  0  0  0  0  0  0  0  0  0  0  0
   -0.6525   -4.3477    7.7515 C   0  0  0  0  0  0  0  0  0  0  0  0
   -0.5494   -5.4687    7.2170 O   0  0  0  0  0  0  0  0  0  0  0  0
    0.4785   -3.4299    7.6833 C   0  0  0  0  0  0  0  0  0  0  0  0
    1.6123   -3.7001    8.4679 C   0  0  0  0  0  0  0  0  0  0  0  0
    2.7050   -2.8710    8.4691 C   0  0  0  0  0  0  0  0  0  0  0  0
    2.6724   -1.7473    7.6719 C   0  0  0  0  0  0  0  0  0  0  0  0
    1.5943   -1.4306    6.8825 C   0  0  0  0  0  0  0  0  0  0  0  0
    0.5138   -2.2990    6.9161 C   0  0  0  0  0  0  0  0  0  0  0  0
    1.5905   -0.2086    6.0232 C   0  0  0  0  0  0  0  0  0  0  0  0
    1.6191   -4.8882    9.2376 N   0  0  0  0  0  0  0  0  0  0  0  0
    1.4852   -4.9966   10.5326 N   0  0  0  0  0  0  0  0  0  0  0  0
    1.5322   -6.3013   10.8998 C   0  0  0  0  0  0  0  0  0  0  0  0
    1.7062   -7.0130    9.7391 C   0  0  0  0  0  0  0  0  0  0  0  0
    1.7565   -6.1264    8.7371 N   0  0  0  0  0  0  0  0  0  0  0  0
   -3.7421   -0.8463   10.4420 C   0  0  0  0  0  0  0  0  0  0  0  0
   -3.4124   -0.6716   11.7054 N   0  0  0  0  0  0  0  0  0  0  0  0
   -4.3598    0.1133   12.3036 C   0  0  0  0  0  0  0  0  0  0  0  0
   -5.2691    0.3921   11.3140 C   0  0  0  0  0  0  0  0  0  0  0  0
   -4.8584   -0.2043   10.2152 O   0  0  0  0  0  0  0  0  0  0  0  0
   -6.3580    1.1762   11.6107 C   0  0  0  0  0  0  0  0  0  0  0  0
   -6.5339    1.6674   12.8632 C   0  0  0  0  0  0  0  0  0  0  0  0
   -5.6396    1.4089   13.8947 C   0  0  0  0  0  0  0  0  0  0  0  0
   -4.5512    0.6157   13.5650 C   0  0  0  0  0  0  0  0  0  0  0  0
   -5.8822    2.0543   15.5079 Cl  0  0  0  0  0  0  0  0  0  0  0  0
  1  2  1  0
  2  3  1  0
  3  4  1  0
  4  5  1  0
  5  6  1  0
  6  7  1  0
  7  8  1  0
  8  9  1  0
  9 10  2  0
  9 11  1  0
 11 12  1  0
 12 13  2  0
 13 14  1  0
 14 15  2  0
 15 16  1  0
 15 17  1  0
 12 18  1  0
 18 19  1  0
 19 20  2  0
 20 21  1  0
 21 22  2  0
  5 23  1  0
 23 24  2  0
 24 25  1  0
 25 26  2  0
 26 27  1  0
 26 28  1  0
 28 29  2  0
 29 30  1  0
 30 31  2  0
 30 32  1  0
  8  2  1  0
 16 11  2  0
 22 18  1  0
 27 23  1  0
 31 25  1  0
M  END
$$$$
