
     RDKit          3D

 32 36  0  0  0  0  0  0  0  0999 V2000
   -1.4524   -5.6694    8.6397 C   0  0  0  0  0  0  0  0  0  0  0  0
   -1.7792   -4.3413    9.2339 C   0  0  0  0  0  0  0  0  0  0  0  0
   -2.8166   -3.5700    8.4319 C   0  0  0  0  0  0  0  0  0  0  0  0
   -3.4930   -2.4899    9.1870 C   0  0  0  0  0  0  0  0  0  0  0  0
   -2.7372   -1.6723   10.0735 N   0  0  0  0  0  0  0  0  0  0  0  0
   -1.3715   -1.3354   10.2778 C   0  0  0  0  0  0  0  0  0  0  0  0
   -0.5320   -2.5589   10.5387 C   0  0  0  0  0  0  0  0  0  0  0  0
   -0.6179   -3.4743    9.4193 N   0  0  0  0  0  0  0  0  0  0  0  0
    0.4371   -3.4970    8.4890 C   0  0  0  0  0  0  0  0  0  0  0  0
    1.1291   -4.5280    8.3813 O   0  0  0  0  0  0  0  0  0  0  0  0
    0.7483   -2.3505    7.6436 C   0  0  0  0  0  0  0  0  0  0  0  0
    1.0838   -2.5780    6.2982 C   0  0  0  0  0  0  0  0  0  0  0  0
    1.4067   -1.5499    5.4498 C   0  0  0  0  0  0  0  0  0  0  0  0
    1.3954   -0.2648    5.9478 C   0  0  0  0  0  0  0  0  0  0  0  0
    1.0749    0.0209    7.2522 C   0  0  0  0  0  0  0  0  0  0  0  0
    0.7566   -1.0520    8.0708 C   0  0  0  0  0  0  0  0  0  0  0  0
    1.0648    1.4251    7.7618 C   0  0  0  0  0  0  0  0  0  0  0  0
    1.0396   -3.9095    5.8192 N   0  0  0  0  0  0  0  0  0  0  0  0
    1.9715   -4.8198    5.9160 N   0  0  0  0  0  0  0  0  0  0  0  0
    1.5544   -5.9780    5.3469 C   0  0  0  0  0  0  0  0  0  0  0  0
    0.2865   -5.7335    4.8813 C   0  0  0  0  0  0  0  0  0  0  0  0
   -0.0051   -4.4619    5.1821 N   0  0  0  0  0  0  0  0  0  0  0  0
   -3.6123   -0.9631   10.9838 C   0  0  0  0  0  0  0  0  0  0  0  0
   -3.5391    0.3141   11.2983 N   0  0  0  0  0  0  0  0  0  0  0  0
   -4.5380    0.6073   12.1859 C   0  0  0  0  0  0  0  0  0  0  0  0
   -5.2063   -0.5765   12.3751 C   0  0  0  0  0  0  0  0  0  0  0  0
   -4.6162   -1.4906   11.6349 O   0  0  0  0  0  0  0  0  0  0  0  0
   -6.2823   -0.6055   13.2295 C   0  0  0  0  0  0  0  0  0  0  0  0
   -6.6788    0.5182   13.8783 C   0  0  0  0  0  0  0  0  0  0  0  0
   -6.0304    1.7365   13.7175 C   0  0  0  0  0  0  0  0  0  0  0  0
   -4.9493    1.7347   12.8493 C   0  0  0  0  0  0  0  0  0  0  0  0
   -6.5585    3.1800   14.5632 Cl  0  0  0  0  0  0  0  0  0  0  0  0
  1  2  1  0
  2  3  1  0
  3  4  1  0
  4  5  1  0
  5  6  1  0
  6  7  1  0
  7  8  1  0
  8  9  1  0
  9 10  2  0
  9 11  1  0
 11 12  1  0
 12 13  2  0
 13 14  1  0
 14 15  2  0
 15 16  1  0
 15 17  1  0
 12 18  1  0
 18 19  1  0
 19 20  2  0
 20 21  1  0
 21 22  2  0
  5 23  1  0
 23 24  2  0
 24 25  1  0
 25 26  2  0
 26 27  1  0
 26 28  1  0
 28 29  2  0
 29 30  1  0
 30 31  2  0
 30 32  1  0
  8  2  1  0
 16 11  2  0
 22 18  1  0
 27 23  1  0
 31 25  1  0
M  END
$$$$
