
     RDKit          3D

 32 36  0  0  0  0  0  0  0  0999 V2000
   -4.1135   -5.5514    8.8638 C   0  0  0  0  0  0  0  0  0  0  0  0
   -3.6602   -4.2118    9.3365 C   0  0  0  0  0  0  0  0  0  0  0  0
   -4.4494   -3.0657    8.7217 C   0  0  0  0  0  0  0  0  0  0  0  0
   -4.3566   -1.7901    9.4691 C   0  0  0  0  0  0  0  0  0  0  0  0
   -3.1080   -1.3882   10.0214 N   0  0  0  0  0  0  0  0  0  0  0  0
   -1.7331   -1.6953    9.8322 C   0  0  0  0  0  0  0  0  0  0  0  0
   -1.4597   -3.1625   10.0380 C   0  0  0  0  0  0  0  0  0  0  0  0
   -2.2402   -3.9536    9.1089 N   0  0  0  0  0  0  0  0  0  0  0  0
   -1.6064   -4.4542    7.9570 C   0  0  0  0  0  0  0  0  0  0  0  0
   -2.1173   -5.4174    7.3534 O   0  0  0  0  0  0  0  0  0  0  0  0
   -0.3675   -3.8810    7.4444 C   0  0  0  0  0  0  0  0  0  0  0  0
    0.8371   -4.5662    7.6760 C   0  0  0  0  0  0  0  0  0  0  0  0
    2.0423   -4.0773    7.2403 C   0  0  0  0  0  0  0  0  0  0  0  0
    2.0525   -2.8802    6.5575 C   0  0  0  0  0  0  0  0  0  0  0  0
    0.9088   -2.1652    6.2994 C   0  0  0  0  0  0  0  0  0  0  0  0
   -0.2845   -2.7001    6.7607 C   0  0  0  0  0  0  0  0  0  0  0  0
    0.9503   -0.8733    5.5507 C   0  0  0  0  0  0  0  0  0  0  0  0
    0.7737   -5.8133    8.3430 N   0  0  0  0  0  0  0  0  0  0  0  0
    0.4600   -6.0309    9.5923 N   0  0  0  0  0  0  0  0  0  0  0  0
    0.4978   -7.3601    9.8590 C   0  0  0  0  0  0  0  0  0  0  0  0
    0.8595   -7.9698    8.6836 C   0  0  0  0  0  0  0  0  0  0  0  0
    1.0226   -7.0027    7.7722 N   0  0  0  0  0  0  0  0  0  0  0  0
   -3.3003   -0.3541   11.0170 C   0  0  0  0  0  0  0  0  0  0  0  0
   -2.4568    0.6159   11.3054 N   0  0  0  0  0  0  0  0  0  0  0  0
   -2.9959    1.3881   12.2976 C   0  0  0  0  0  0  0  0  0  0  0  0
   -4.2110    0.8141   12.5764 C   0  0  0  0  0  0  0  0  0  0  0  0
   -4.3511   -0.2278   11.7849 O   0  0  0  0  0  0  0  0  0  0  0  0
   -5.0054    1.3734   13.5484 C   0  0  0  0  0  0  0  0  0  0  0  0
   -4.5955    2.4760   14.2245 C   0  0  0  0  0  0  0  0  0  0  0  0
   -3.3731    3.0880   13.9757 C   0  0  0  0  0  0  0  0  0  0  0  0
   -2.5944    2.5016   12.9898 C   0  0  0  0  0  0  0  0  0  0  0  0
   -2.8605    4.5149   14.8585 Cl  0  0  0  0  0  0  0  0  0  0  0  0
  1  2  1  0
  2  3  1  0
  3  4  1  0
  4  5  1  0
  5  6  1  0
  6  7  1  0
  7  8  1  0
  8  9  1  0
  9 10  2  0
  9 11  1  0
 11 12  1  0
 12 13  2  0
 13 14  1  0
 14 15  2  0
 15 16  1  0
 15 17  1  0
 12 18  1  0
 18 19  1  0
 19 20  2  0
 20 21  1  0
 21 22  2  0
  5 23  1  0
 23 24  2  0
 24 25  1  0
 25 26  2  0
 26 27  1  0
 26 28  1  0
 28 29  2  0
 29 30  1  0
 30 31  2  0
 30 32  1  0
  8  2  1  0
 16 11  2  0
 22 18  1  0
 27 23  1  0
 31 25  1  0
M  END
$$$$
