
     RDKit          3D

 32 36  0  0  0  0  0  0  0  0999 V2000
   -1.3968   -6.1882   10.1577 C   0  0  0  0  0  0  0  0  0  0  0  0
   -1.9702   -4.8221    9.9888 C   0  0  0  0  0  0  0  0  0  0  0  0
   -3.4617   -4.8359    9.6896 C   0  0  0  0  0  0  0  0  0  0  0  0
   -4.1501   -3.5515    9.9563 C   0  0  0  0  0  0  0  0  0  0  0  0
   -3.5124   -2.3272    9.6100 N   0  0  0  0  0  0  0  0  0  0  0  0
   -2.4594   -1.9012    8.7555 C   0  0  0  0  0  0  0  0  0  0  0  0
   -1.1627   -2.5928    9.0871 C   0  0  0  0  0  0  0  0  0  0  0  0
   -1.3110   -4.0277    8.9549 N   0  0  0  0  0  0  0  0  0  0  0  0
   -0.8261   -4.6474    7.7887 C   0  0  0  0  0  0  0  0  0  0  0  0
   -1.2968   -5.7496    7.4468 O   0  0  0  0  0  0  0  0  0  0  0  0
    0.2121   -4.0404    6.9641 C   0  0  0  0  0  0  0  0  0  0  0  0
    0.3869   -2.6474    7.0202 C   0  0  0  0  0  0  0  0  0  0  0  0
    1.3302   -2.0060    6.2585 C   0  0  0  0  0  0  0  0  0  0  0  0
    2.1197   -2.7649    5.4219 C   0  0  0  0  0  0  0  0  0  0  0  0
    1.9972   -4.1292    5.3244 C   0  0  0  0  0  0  0  0  0  0  0  0
    1.0291   -4.7315    6.1135 C   0  0  0  0  0  0  0  0  0  0  0  0
    2.8722   -4.9264    4.4131 C   0  0  0  0  0  0  0  0  0  0  0  0
   -0.4164   -1.9135    7.9258 N   0  0  0  0  0  0  0  0  0  0  0  0
   -1.5140   -1.2563    7.6613 N   0  0  0  0  0  0  0  0  0  0  0  0
   -2.0043   -0.6909    8.7924 C   0  0  0  0  0  0  0  0  0  0  0  0
   -1.1342   -1.0393    9.7951 C   0  0  0  0  0  0  0  0  0  0  0  0
   -0.1720   -1.7864    9.2398 N   0  0  0  0  0  0  0  0  0  0  0  0
   -4.1444   -1.2140   10.2874 C   0  0  0  0  0  0  0  0  0  0  0  0
   -3.8101   -0.7275   11.4652 N   0  0  0  0  0  0  0  0  0  0  0  0
   -4.6398    0.3192   11.7613 C   0  0  0  0  0  0  0  0  0  0  0  0
   -5.4843    0.4210   10.6841 C   0  0  0  0  0  0  0  0  0  0  0  0
   -5.1508   -0.5186    9.8253 O   0  0  0  0  0  0  0  0  0  0  0  0
   -6.4499    1.3990   10.6841 C   0  0  0  0  0  0  0  0  0  0  0  0
   -6.5688    2.2513   11.7330 C   0  0  0  0  0  0  0  0  0  0  0  0
   -5.7368    2.1828   12.8437 C   0  0  0  0  0  0  0  0  0  0  0  0
   -4.7726    1.1868   12.8148 C   0  0  0  0  0  0  0  0  0  0  0  0
   -5.9040    3.2949   14.1902 Cl  0  0  0  0  0  0  0  0  0  0  0  0
  1  2  1  0
  2  3  1  0
  3  4  1  0
  4  5  1  0
  5  6  1  0
  6  7  1  0
  7  8  1  0
  8  9  1  0
  9 10  2  0
  9 11  1  0
 11 12  1  0
 12 13  2  0
 13 14  1  0
 14 15  2  0
 15 16  1  0
 15 17  1  0
 12 18  1  0
 18 19  1  0
 19 20  2  0
 20 21  1  0
 21 22  2  0
  5 23  1  0
 23 24  2  0
 24 25  1  0
 25 26  2  0
 26 27  1  0
 26 28  1  0
 28 29  2  0
 29 30  1  0
 30 31  2  0
 30 32  1  0
  8  2  1  0
 16 11  2  0
 22 18  1  0
 27 23  1  0
 31 25  1  0
M  END
$$$$
