
     RDKit          3D

 32 36  0  0  0  0  0  0  0  0999 V2000
    0.0514   -5.5845   10.3705 C   0  0  0  0  0  0  0  0  0  0  0  0
   -0.7936   -4.3562   10.3410 C   0  0  0  0  0  0  0  0  0  0  0  0
   -2.2482   -4.6262   10.6952 C   0  0  0  0  0  0  0  0  0  0  0  0
   -3.0078   -3.4255   11.1146 C   0  0  0  0  0  0  0  0  0  0  0  0
   -2.8088   -2.1935   10.4305 N   0  0  0  0  0  0  0  0  0  0  0  0
   -2.2849   -1.7634    9.1811 C   0  0  0  0  0  0  0  0  0  0  0  0
   -0.8563   -2.2051    8.9978 C   0  0  0  0  0  0  0  0  0  0  0  0
   -0.7654   -3.6494    9.0625 N   0  0  0  0  0  0  0  0  0  0  0  0
   -0.6733   -4.3703    7.8580 C   0  0  0  0  0  0  0  0  0  0  0  0
   -1.5153   -5.2566    7.6155 O   0  0  0  0  0  0  0  0  0  0  0  0
    0.3779   -4.1135    6.8806 C   0  0  0  0  0  0  0  0  0  0  0  0
    0.5341   -2.8067    6.3885 C   0  0  0  0  0  0  0  0  0  0  0  0
    1.4884   -2.4955    5.4537 C   0  0  0  0  0  0  0  0  0  0  0  0
    2.3081   -3.5049    4.9970 C   0  0  0  0  0  0  0  0  0  0  0  0
    2.2050   -4.8004    5.4407 C   0  0  0  0  0  0  0  0  0  0  0  0
    1.2247   -5.0653    6.3850 C   0  0  0  0  0  0  0  0  0  0  0  0
    3.1126   -5.8723    4.9321 C   0  0  0  0  0  0  0  0  0  0  0  0
   -0.3010   -1.7937    6.9182 N   0  0  0  0  0  0  0  0  0  0  0  0
   -1.4383   -1.3689    6.4359 N   0  0  0  0  0  0  0  0  0  0  0  0
   -1.9484   -0.3952    7.2303 C   0  0  0  0  0  0  0  0  0  0  0  0
   -1.0480   -0.2342    8.2538 C   0  0  0  0  0  0  0  0  0  0  0  0
   -0.0497   -1.1003    8.0401 N   0  0  0  0  0  0  0  0  0  0  0  0
   -3.3219   -1.0876   11.2125 C   0  0  0  0  0  0  0  0  0  0  0  0
   -4.5867   -0.7388   11.3317 N   0  0  0  0  0  0  0  0  0  0  0  0
   -4.6673    0.3523   12.1530 C   0  0  0  0  0  0  0  0  0  0  0  0
   -3.3710    0.6253   12.5121 C   0  0  0  0  0  0  0  0  0  0  0  0
   -2.5985   -0.2633   11.9244 O   0  0  0  0  0  0  0  0  0  0  0  0
   -3.1203    1.6859   13.3494 C   0  0  0  0  0  0  0  0  0  0  0  0
   -4.1379    2.4537   13.8141 C   0  0  0  0  0  0  0  0  0  0  0  0
   -5.4638    2.2141   13.4749 C   0  0  0  0  0  0  0  0  0  0  0  0
   -5.6853    1.1376   12.6295 C   0  0  0  0  0  0  0  0  0  0  0  0
   -6.7671    3.2163   14.0872 Cl  0  0  0  0  0  0  0  0  0  0  0  0
  1  2  1  0
  2  3  1  0
  3  4  1  0
  4  5  1  0
  5  6  1  0
  6  7  1  0
  7  8  1  0
  8  9  1  0
  9 10  2  0
  9 11  1  0
 11 12  1  0
 12 13  2  0
 13 14  1  0
 14 15  2  0
 15 16  1  0
 15 17  1  0
 12 18  1  0
 18 19  1  0
 19 20  2  0
 20 21  1  0
 21 22  2  0
  5 23  1  0
 23 24  2  0
 24 25  1  0
 25 26  2  0
 26 27  1  0
 26 28  1  0
 28 29  2  0
 29 30  1  0
 30 31  2  0
 30 32  1  0
  8  2  1  0
 16 11  2  0
 22 18  1  0
 27 23  1  0
 31 25  1  0
M  END
$$$$
