
     RDKit          3D

 32 36  0  0  0  0  0  0  0  0999 V2000
    1.0725   -1.1060    6.8920 C   0  0  0  0  0  0  0  0  0  0  0  0
    0.0924   -1.1585    8.0146 C   0  0  0  0  0  0  0  0  0  0  0  0
    0.5711   -0.4227    9.2571 C   0  0  0  0  0  0  0  0  0  0  0  0
   -0.5070   -0.0627   10.2072 C   0  0  0  0  0  0  0  0  0  0  0  0
   -1.5555   -0.9899   10.4646 N   0  0  0  0  0  0  0  0  0  0  0  0
   -1.7782   -2.3857   10.3139 C   0  0  0  0  0  0  0  0  0  0  0  0
   -1.6168   -2.8209    8.8807 C   0  0  0  0  0  0  0  0  0  0  0  0
   -0.2814   -2.5144    8.4105 N   0  0  0  0  0  0  0  0  0  0  0  0
    0.6680   -3.5515    8.3644 C   0  0  0  0  0  0  0  0  0  0  0  0
    1.2997   -3.8422    9.3986 O   0  0  0  0  0  0  0  0  0  0  0  0
    0.9377   -4.3001    7.1425 C   0  0  0  0  0  0  0  0  0  0  0  0
   -0.0972   -5.0670    6.5811 C   0  0  0  0  0  0  0  0  0  0  0  0
    0.0896   -5.8115    5.4444 C   0  0  0  0  0  0  0  0  0  0  0  0
    1.3327   -5.7939    4.8497 C   0  0  0  0  0  0  0  0  0  0  0  0
    2.3825   -5.0635    5.3499 C   0  0  0  0  0  0  0  0  0  0  0  0
    2.1446   -4.3280    6.5011 C   0  0  0  0  0  0  0  0  0  0  0  0
    3.7174   -5.0588    4.6793 C   0  0  0  0  0  0  0  0  0  0  0  0
   -1.3691   -5.0204    7.2009 N   0  0  0  0  0  0  0  0  0  0  0  0
   -2.4122   -4.3308    6.8228 N   0  0  0  0  0  0  0  0  0  0  0  0
   -3.4515   -4.5558    7.6646 C   0  0  0  0  0  0  0  0  0  0  0  0
   -2.9885   -5.4410    8.6061 C   0  0  0  0  0  0  0  0  0  0  0  0
   -1.7129   -5.7093    8.3008 N   0  0  0  0  0  0  0  0  0  0  0  0
   -2.6813   -0.3258   11.0884 C   0  0  0  0  0  0  0  0  0  0  0  0
   -2.6728    0.8720   11.6368 N   0  0  0  0  0  0  0  0  0  0  0  0
   -3.9244    1.1460   12.1164 C   0  0  0  0  0  0  0  0  0  0  0  0
   -4.6728    0.0354   11.8158 C   0  0  0  0  0  0  0  0  0  0  0  0
   -3.8862   -0.8213   11.2003 O   0  0  0  0  0  0  0  0  0  0  0  0
   -5.9986    0.0072   12.1766 C   0  0  0  0  0  0  0  0  0  0  0  0
   -6.5608    1.0603   12.8215 C   0  0  0  0  0  0  0  0  0  0  0  0
   -5.8401    2.2029   13.1465 C   0  0  0  0  0  0  0  0  0  0  0  0
   -4.5058    2.2022   12.7695 C   0  0  0  0  0  0  0  0  0  0  0  0
   -6.5844    3.5561   13.9789 Cl  0  0  0  0  0  0  0  0  0  0  0  0
  1  2  1  0
  2  3  1  0
  3  4  1  0
  4  5  1  0
  5  6  1  0
  6  7  1  0
  7  8  1  0
  8  9  1  0
  9 10  2  0
  9 11  1  0
 11 12  1  0
 12 13  2  0
 13 14  1  0
 14 15  2  0
 15 16  1  0
 15 17  1  0
 12 18  1  0
 18 19  1  0
 19 20  2  0
 20 21  1  0
 21 22  2  0
  5 23  1  0
 23 24  2  0
 24 25  1  0
 25 26  2  0
 26 27  1  0
 26 28  1  0
 28 29  2  0
 29 30  1  0
 30 31  2  0
 30 32  1  0
  8  2  1  0
 16 11  2  0
 22 18  1  0
 27 23  1  0
 31 25  1  0
M  END
$$$$
