
     RDKit          3D

 32 36  0  0  0  0  0  0  0  0999 V2000
   -3.8471   -2.6523   12.6246 C   0  0  0  0  0  0  0  0  0  0  0  0
   -3.0611   -2.5193   11.3645 C   0  0  0  0  0  0  0  0  0  0  0  0
   -1.5644   -2.6910   11.5760 C   0  0  0  0  0  0  0  0  0  0  0  0
   -0.8066   -3.0140   10.3448 C   0  0  0  0  0  0  0  0  0  0  0  0
   -1.1366   -2.3602    9.1245 N   0  0  0  0  0  0  0  0  0  0  0  0
   -1.8271   -1.1853    8.7207 C   0  0  0  0  0  0  0  0  0  0  0  0
   -3.2490   -1.1796    9.2186 C   0  0  0  0  0  0  0  0  0  0  0  0
   -3.2746   -1.2544   10.6650 N   0  0  0  0  0  0  0  0  0  0  0  0
   -3.4862   -0.0701   11.3942 C   0  0  0  0  0  0  0  0  0  0  0  0
   -4.6045    0.4782   11.3498 O   0  0  0  0  0  0  0  0  0  0  0  0
   -2.4368    0.5386   12.2033 C   0  0  0  0  0  0  0  0  0  0  0  0
   -2.3389    0.1801   13.5583 C   0  0  0  0  0  0  0  0  0  0  0  0
   -1.3895    0.7264   14.3838 C   0  0  0  0  0  0  0  0  0  0  0  0
   -0.5156    1.6499   13.8520 C   0  0  0  0  0  0  0  0  0  0  0  0
   -0.5605    2.0393   12.5359 C   0  0  0  0  0  0  0  0  0  0  0  0
   -1.5382    1.4596   11.7417 C   0  0  0  0  0  0  0  0  0  0  0  0
    0.4048    3.0379   11.9859 C   0  0  0  0  0  0  0  0  0  0  0  0
   -3.2291   -0.8045   14.0505 N   0  0  0  0  0  0  0  0  0  0  0  0
   -4.1926   -0.6420   14.9176 N   0  0  0  0  0  0  0  0  0  0  0  0
   -4.8347   -1.8178   15.1286 C   0  0  0  0  0  0  0  0  0  0  0  0
   -4.2053   -2.7392   14.3293 C   0  0  0  0  0  0  0  0  0  0  0  0
   -3.2272   -2.0950   13.6805 N   0  0  0  0  0  0  0  0  0  0  0  0
   -0.5746   -3.0733    7.9961 C   0  0  0  0  0  0  0  0  0  0  0  0
   -0.0125   -4.2643    8.0291 N   0  0  0  0  0  0  0  0  0  0  0  0
    0.3932   -4.5953    6.7652 C   0  0  0  0  0  0  0  0  0  0  0  0
    0.0343   -3.5256    5.9836 C   0  0  0  0  0  0  0  0  0  0  0  0
   -0.5423   -2.6367    6.7640 O   0  0  0  0  0  0  0  0  0  0  0  0
    0.3132   -3.5595    4.6383 C   0  0  0  0  0  0  0  0  0  0  0  0
    0.9352   -4.6332    4.0894 C   0  0  0  0  0  0  0  0  0  0  0  0
    1.3171   -5.7360    4.8435 C   0  0  0  0  0  0  0  0  0  0  0  0
    1.0222   -5.6729    6.1968 C   0  0  0  0  0  0  0  0  0  0  0  0
    2.1187   -7.1167    4.1161 Cl  0  0  0  0  0  0  0  0  0  0  0  0
  1  2  1  0
  2  3  1  0
  3  4  1  0
  4  5  1  0
  5  6  1  0
  6  7  1  0
  7  8  1  0
  8  9  1  0
  9 10  2  0
  9 11  1  0
 11 12  1  0
 12 13  2  0
 13 14  1  0
 14 15  2  0
 15 16  1  0
 15 17  1  0
 12 18  1  0
 18 19  1  0
 19 20  2  0
 20 21  1  0
 21 22  2  0
  5 23  1  0
 23 24  2  0
 24 25  1  0
 25 26  2  0
 26 27  1  0
 26 28  1  0
 28 29  2  0
 29 30  1  0
 30 31  2  0
 30 32  1  0
  8  2  1  0
 16 11  2  0
 22 18  1  0
 27 23  1  0
 31 25  1  0
M  END
$$$$
