
     RDKit          3D

 32 36  0  0  0  0  0  0  0  0999 V2000
   -2.0234   -5.7832    8.7689 C   0  0  0  0  0  0  0  0  0  0  0  0
   -2.2884   -4.3931    9.2390 C   0  0  0  0  0  0  0  0  0  0  0  0
   -3.6762   -3.8936    8.8664 C   0  0  0  0  0  0  0  0  0  0  0  0
   -4.1467   -2.7412    9.6696 C   0  0  0  0  0  0  0  0  0  0  0  0
   -3.2374   -1.6979   10.0015 N   0  0  0  0  0  0  0  0  0  0  0  0
   -1.9857   -1.2130    9.5340 C   0  0  0  0  0  0  0  0  0  0  0  0
   -0.9249   -2.2816    9.5816 C   0  0  0  0  0  0  0  0  0  0  0  0
   -1.3147   -3.4125    8.7646 N   0  0  0  0  0  0  0  0  0  0  0  0
   -0.7520   -3.5387    7.4815 C   0  0  0  0  0  0  0  0  0  0  0  0
   -1.1112   -4.4828    6.7515 O   0  0  0  0  0  0  0  0  0  0  0  0
    0.2407   -2.5978    6.9758 C   0  0  0  0  0  0  0  0  0  0  0  0
    1.4738   -3.0984    6.5254 C   0  0  0  0  0  0  0  0  0  0  0  0
    2.4615   -2.2711    6.0549 C   0  0  0  0  0  0  0  0  0  0  0  0
    2.2195   -0.9146    6.0296 C   0  0  0  0  0  0  0  0  0  0  0  0
    1.0346   -0.3658    6.4548 C   0  0  0  0  0  0  0  0  0  0  0  0
    0.0677   -1.2428    6.9224 C   0  0  0  0  0  0  0  0  0  0  0  0
    0.7985    1.1085    6.4092 C   0  0  0  0  0  0  0  0  0  0  0  0
    1.6618   -4.5015    6.5287 N   0  0  0  0  0  0  0  0  0  0  0  0
    1.6587   -5.3059    5.4993 N   0  0  0  0  0  0  0  0  0  0  0  0
    1.8854   -6.5810    5.9018 C   0  0  0  0  0  0  0  0  0  0  0  0
    2.0327   -6.5248    7.2654 C   0  0  0  0  0  0  0  0  0  0  0  0
    1.8915   -5.2427    7.6243 N   0  0  0  0  0  0  0  0  0  0  0  0
   -3.7605   -0.8916   11.0850 C   0  0  0  0  0  0  0  0  0  0  0  0
   -3.4572    0.3654   11.3371 N   0  0  0  0  0  0  0  0  0  0  0  0
   -4.1545    0.7741   12.4409 C   0  0  0  0  0  0  0  0  0  0  0  0
   -4.8894   -0.3200   12.8241 C   0  0  0  0  0  0  0  0  0  0  0  0
   -4.6211   -1.2956   11.9827 O   0  0  0  0  0  0  0  0  0  0  0  0
   -5.7077   -0.2215   13.9238 C   0  0  0  0  0  0  0  0  0  0  0  0
   -5.7884    0.9389   14.6222 C   0  0  0  0  0  0  0  0  0  0  0  0
   -5.0613    2.0695   14.2705 C   0  0  0  0  0  0  0  0  0  0  0  0
   -4.2452    1.9398   13.1571 C   0  0  0  0  0  0  0  0  0  0  0  0
   -5.1798    3.5624   15.1844 Cl  0  0  0  0  0  0  0  0  0  0  0  0
  1  2  1  0
  2  3  1  0
  3  4  1  0
  4  5  1  0
  5  6  1  0
  6  7  1  0
  7  8  1  0
  8  9  1  0
  9 10  2  0
  9 11  1  0
 11 12  1  0
 12 13  2  0
 13 14  1  0
 14 15  2  0
 15 16  1  0
 15 17  1  0
 12 18  1  0
 18 19  1  0
 19 20  2  0
 20 21  1  0
 21 22  2  0
  5 23  1  0
 23 24  2  0
 24 25  1  0
 25 26  2  0
 26 27  1  0
 26 28  1  0
 28 29  2  0
 29 30  1  0
 30 31  2  0
 30 32  1  0
  8  2  1  0
 16 11  2  0
 22 18  1  0
 27 23  1  0
 31 25  1  0
M  END
$$$$
