
     RDKit          3D

 32 36  0  0  0  0  0  0  0  0999 V2000
   -0.3432    0.9066   11.9836 C   0  0  0  0  0  0  0  0  0  0  0  0
   -0.5406   -0.1885   10.9910 C   0  0  0  0  0  0  0  0  0  0  0  0
   -1.3137    0.2576    9.7590 C   0  0  0  0  0  0  0  0  0  0  0  0
   -1.1494   -0.6262    8.5816 C   0  0  0  0  0  0  0  0  0  0  0  0
   -1.1300   -2.0381    8.7598 N   0  0  0  0  0  0  0  0  0  0  0  0
   -1.5381   -2.9733    9.7493 C   0  0  0  0  0  0  0  0  0  0  0  0
   -0.8761   -2.7016   11.0750 C   0  0  0  0  0  0  0  0  0  0  0  0
   -1.2063   -1.3689   11.5370 N   0  0  0  0  0  0  0  0  0  0  0  0
   -2.2083   -1.2270   12.5142 C   0  0  0  0  0  0  0  0  0  0  0  0
   -2.3919   -2.1482   13.3333 O   0  0  0  0  0  0  0  0  0  0  0  0
   -3.0414   -0.0334   12.6007 C   0  0  0  0  0  0  0  0  0  0  0  0
   -4.3433   -0.0821   12.0744 C   0  0  0  0  0  0  0  0  0  0  0  0
   -5.1759    1.0074   12.1032 C   0  0  0  0  0  0  0  0  0  0  0  0
   -4.7062    2.1731   12.6688 C   0  0  0  0  0  0  0  0  0  0  0  0
   -3.4447    2.2820   13.2005 C   0  0  0  0  0  0  0  0  0  0  0  0
   -2.6403    1.1538   13.1470 C   0  0  0  0  0  0  0  0  0  0  0  0
   -2.9655    3.5573   13.8133 C   0  0  0  0  0  0  0  0  0  0  0  0
   -4.7987   -1.3127   11.5428 N   0  0  0  0  0  0  0  0  0  0  0  0
   -5.2597   -2.3412   12.2033 N   0  0  0  0  0  0  0  0  0  0  0  0
   -5.6082   -3.3306   11.3437 C   0  0  0  0  0  0  0  0  0  0  0  0
   -5.3333   -2.8516   10.0870 C   0  0  0  0  0  0  0  0  0  0  0  0
   -4.8391   -1.6163   10.2357 N   0  0  0  0  0  0  0  0  0  0  0  0
   -0.5807   -2.6918    7.5899 C   0  0  0  0  0  0  0  0  0  0  0  0
   -0.3883   -3.9864    7.4395 N   0  0  0  0  0  0  0  0  0  0  0  0
    0.1461   -4.2114    6.2004 C   0  0  0  0  0  0  0  0  0  0  0  0
    0.2562   -2.9688    5.6282 C   0  0  0  0  0  0  0  0  0  0  0  0
   -0.1909   -2.0880    6.4976 O   0  0  0  0  0  0  0  0  0  0  0  0
    0.7694   -2.8629    4.3577 C   0  0  0  0  0  0  0  0  0  0  0  0
    1.1631   -3.9693    3.6781 C   0  0  0  0  0  0  0  0  0  0  0  0
    1.0709   -5.2456    4.2197 C   0  0  0  0  0  0  0  0  0  0  0  0
    0.5491   -5.3205    5.5021 C   0  0  0  0  0  0  0  0  0  0  0  0
    1.5830   -6.6653    3.3253 Cl  0  0  0  0  0  0  0  0  0  0  0  0
  1  2  1  0
  2  3  1  0
  3  4  1  0
  4  5  1  0
  5  6  1  0
  6  7  1  0
  7  8  1  0
  8  9  1  0
  9 10  2  0
  9 11  1  0
 11 12  1  0
 12 13  2  0
 13 14  1  0
 14 15  2  0
 15 16  1  0
 15 17  1  0
 12 18  1  0
 18 19  1  0
 19 20  2  0
 20 21  1  0
 21 22  2  0
  5 23  1  0
 23 24  2  0
 24 25  1  0
 25 26  2  0
 26 27  1  0
 26 28  1  0
 28 29  2  0
 29 30  1  0
 30 31  2  0
 30 32  1  0
  8  2  1  0
 16 11  2  0
 22 18  1  0
 27 23  1  0
 31 25  1  0
M  END
$$$$
