
     RDKit          3D

 32 36  0  0  0  0  0  0  0  0999 V2000
    0.9203   -4.0881    9.4121 C   0  0  0  0  0  0  0  0  0  0  0  0
   -0.3010   -3.2486    9.5769 C   0  0  0  0  0  0  0  0  0  0  0  0
   -1.4195   -3.9648   10.3188 C   0  0  0  0  0  0  0  0  0  0  0  0
   -2.4458   -3.0642   10.8934 C   0  0  0  0  0  0  0  0  0  0  0  0
   -2.8902   -1.9376   10.1460 N   0  0  0  0  0  0  0  0  0  0  0  0
   -2.8813   -1.5124    8.7897 C   0  0  0  0  0  0  0  0  0  0  0  0
   -1.4804   -1.4442    8.2397 C   0  0  0  0  0  0  0  0  0  0  0  0
   -0.8463   -2.7442    8.3188 N   0  0  0  0  0  0  0  0  0  0  0  0
   -0.7858   -3.5328    7.1554 C   0  0  0  0  0  0  0  0  0  0  0  0
   -1.7766   -3.5778    6.4007 O   0  0  0  0  0  0  0  0  0  0  0  0
    0.4019   -4.3014    6.8022 C   0  0  0  0  0  0  0  0  0  0  0  0
    0.6161   -5.5374    7.4353 C   0  0  0  0  0  0  0  0  0  0  0  0
    1.7207   -6.3051    7.1672 C   0  0  0  0  0  0  0  0  0  0  0  0
    2.6343   -5.8358    6.2482 C   0  0  0  0  0  0  0  0  0  0  0  0
    2.4796   -4.6370    5.5963 C   0  0  0  0  0  0  0  0  0  0  0  0
    1.3475   -3.8969    5.9017 C   0  0  0  0  0  0  0  0  0  0  0  0
    3.4837   -4.1574    4.5998 C   0  0  0  0  0  0  0  0  0  0  0  0
   -0.3702   -6.0000    8.3393 N   0  0  0  0  0  0  0  0  0  0  0  0
   -0.3286   -5.9688    9.6446 N   0  0  0  0  0  0  0  0  0  0  0  0
   -1.4676   -6.4934   10.1612 C   0  0  0  0  0  0  0  0  0  0  0  0
   -2.2356   -6.8599    9.0842 C   0  0  0  0  0  0  0  0  0  0  0  0
   -1.5426   -6.5481    7.9819 N   0  0  0  0  0  0  0  0  0  0  0  0
   -3.5730   -0.9929   11.0055 C   0  0  0  0  0  0  0  0  0  0  0  0
   -3.5606    0.3190   10.8858 N   0  0  0  0  0  0  0  0  0  0  0  0
   -4.3228    0.8599   11.8849 C   0  0  0  0  0  0  0  0  0  0  0  0
   -4.7870   -0.2149   12.6014 C   0  0  0  0  0  0  0  0  0  0  0  0
   -4.3117   -1.3052   12.0383 O   0  0  0  0  0  0  0  0  0  0  0  0
   -5.5967    0.0085   13.6891 C   0  0  0  0  0  0  0  0  0  0  0  0
   -5.9324    1.2722   14.0515 C   0  0  0  0  0  0  0  0  0  0  0  0
   -5.4839    2.3882   13.3559 C   0  0  0  0  0  0  0  0  0  0  0  0
   -4.6695    2.1313   12.2636 C   0  0  0  0  0  0  0  0  0  0  0  0
   -5.9300    4.0151   13.8379 Cl  0  0  0  0  0  0  0  0  0  0  0  0
  1  2  1  0
  2  3  1  0
  3  4  1  0
  4  5  1  0
  5  6  1  0
  6  7  1  0
  7  8  1  0
  8  9  1  0
  9 10  2  0
  9 11  1  0
 11 12  1  0
 12 13  2  0
 13 14  1  0
 14 15  2  0
 15 16  1  0
 15 17  1  0
 12 18  1  0
 18 19  1  0
 19 20  2  0
 20 21  1  0
 21 22  2  0
  5 23  1  0
 23 24  2  0
 24 25  1  0
 25 26  2  0
 26 27  1  0
 26 28  1  0
 28 29  2  0
 29 30  1  0
 30 31  2  0
 30 32  1  0
  8  2  1  0
 16 11  2  0
 22 18  1  0
 27 23  1  0
 31 25  1  0
M  END
$$$$
