
     RDKit          3D

 32 36  0  0  0  0  0  0  0  0999 V2000
   -5.3860   -3.0603   11.2783 C   0  0  0  0  0  0  0  0  0  0  0  0
   -4.0730   -3.0258   10.5724 C   0  0  0  0  0  0  0  0  0  0  0  0
   -3.1589   -4.1786   10.9598 C   0  0  0  0  0  0  0  0  0  0  0  0
   -2.0695   -4.4459    9.9922 C   0  0  0  0  0  0  0  0  0  0  0  0
   -1.3836   -3.3556    9.3870 N   0  0  0  0  0  0  0  0  0  0  0  0
   -1.1899   -1.9707    9.6416 C   0  0  0  0  0  0  0  0  0  0  0  0
   -2.5008   -1.2313    9.7104 C   0  0  0  0  0  0  0  0  0  0  0  0
   -3.3322   -1.7808   10.7617 N   0  0  0  0  0  0  0  0  0  0  0  0
   -3.3955   -1.1004   11.9914 C   0  0  0  0  0  0  0  0  0  0  0  0
   -3.1845   -1.7310   13.0454 O   0  0  0  0  0  0  0  0  0  0  0  0
   -3.7006    0.3232   12.0734 C   0  0  0  0  0  0  0  0  0  0  0  0
   -3.6083    1.0993   10.9058 C   0  0  0  0  0  0  0  0  0  0  0  0
   -3.8616    2.4472   10.9118 C   0  0  0  0  0  0  0  0  0  0  0  0
   -4.2160    3.0394   12.1048 C   0  0  0  0  0  0  0  0  0  0  0  0
   -4.3242    2.3340   13.2780 C   0  0  0  0  0  0  0  0  0  0  0  0
   -4.0574    0.9745   13.2211 C   0  0  0  0  0  0  0  0  0  0  0  0
   -4.7171    3.0023   14.5550 C   0  0  0  0  0  0  0  0  0  0  0  0
   -3.2837    0.4411    9.6952 N   0  0  0  0  0  0  0  0  0  0  0  0
   -2.1812    0.5497    9.0028 N   0  0  0  0  0  0  0  0  0  0  0  0
   -2.2369   -0.2477    7.9072 C   0  0  0  0  0  0  0  0  0  0  0  0
   -3.4589   -0.8710    7.9569 C   0  0  0  0  0  0  0  0  0  0  0  0
   -4.0799   -0.4330    9.0592 N   0  0  0  0  0  0  0  0  0  0  0  0
   -0.6539   -3.7988    8.2171 C   0  0  0  0  0  0  0  0  0  0  0  0
    0.6423   -3.6774    8.0155 N   0  0  0  0  0  0  0  0  0  0  0  0
    0.9510   -4.2161    6.7964 C   0  0  0  0  0  0  0  0  0  0  0  0
   -0.2439   -4.6641    6.2913 C   0  0  0  0  0  0  0  0  0  0  0  0
   -1.1786   -4.3923    7.1768 O   0  0  0  0  0  0  0  0  0  0  0  0
   -0.2617   -5.2666    5.0562 C   0  0  0  0  0  0  0  0  0  0  0  0
    0.8839   -5.4159    4.3447 C   0  0  0  0  0  0  0  0  0  0  0  0
    2.1142   -4.9758    4.8171 C   0  0  0  0  0  0  0  0  0  0  0  0
    2.1005   -4.3728    6.0656 C   0  0  0  0  0  0  0  0  0  0  0  0
    3.5859   -5.1794    3.8840 Cl  0  0  0  0  0  0  0  0  0  0  0  0
  1  2  1  0
  2  3  1  0
  3  4  1  0
  4  5  1  0
  5  6  1  0
  6  7  1  0
  7  8  1  0
  8  9  1  0
  9 10  2  0
  9 11  1  0
 11 12  1  0
 12 13  2  0
 13 14  1  0
 14 15  2  0
 15 16  1  0
 15 17  1  0
 12 18  1  0
 18 19  1  0
 19 20  2  0
 20 21  1  0
 21 22  2  0
  5 23  1  0
 23 24  2  0
 24 25  1  0
 25 26  2  0
 26 27  1  0
 26 28  1  0
 28 29  2  0
 29 30  1  0
 30 31  2  0
 30 32  1  0
  8  2  1  0
 16 11  2  0
 22 18  1  0
 27 23  1  0
 31 25  1  0
M  END
$$$$
