
     RDKit          3D

 32 36  0  0  0  0  0  0  0  0999 V2000
   -2.3421   -6.4500    8.3642 C   0  0  0  0  0  0  0  0  0  0  0  0
   -2.4577   -5.0980    8.9824 C   0  0  0  0  0  0  0  0  0  0  0  0
   -3.0757   -4.0679    8.0489 C   0  0  0  0  0  0  0  0  0  0  0  0
   -3.6171   -2.8707    8.7330 C   0  0  0  0  0  0  0  0  0  0  0  0
   -2.8972   -2.2952    9.8175 N   0  0  0  0  0  0  0  0  0  0  0  0
   -1.5691   -2.3223   10.3232 C   0  0  0  0  0  0  0  0  0  0  0  0
   -1.1301   -3.7254   10.6523 C   0  0  0  0  0  0  0  0  0  0  0  0
   -1.1897   -4.5602    9.4700 N   0  0  0  0  0  0  0  0  0  0  0  0
    0.0048   -4.8272    8.7765 C   0  0  0  0  0  0  0  0  0  0  0  0
    0.7670   -5.7172    9.2011 O   0  0  0  0  0  0  0  0  0  0  0  0
    0.3815   -4.0947    7.5733 C   0  0  0  0  0  0  0  0  0  0  0  0
    0.8872   -2.7909    7.7101 C   0  0  0  0  0  0  0  0  0  0  0  0
    1.2435   -2.0359    6.6219 C   0  0  0  0  0  0  0  0  0  0  0  0
    1.0956   -2.5879    5.3678 C   0  0  0  0  0  0  0  0  0  0  0  0
    0.6086   -3.8566    5.1701 C   0  0  0  0  0  0  0  0  0  0  0  0
    0.2614   -4.5800    6.3010 C   0  0  0  0  0  0  0  0  0  0  0  0
    0.4657   -4.4309    3.7985 C   0  0  0  0  0  0  0  0  0  0  0  0
    1.0631   -2.2811    9.0190 N   0  0  0  0  0  0  0  0  0  0  0  0
    2.1819   -2.1685    9.6840 N   0  0  0  0  0  0  0  0  0  0  0  0
    1.9479   -1.6230   10.9034 C   0  0  0  0  0  0  0  0  0  0  0  0
    0.5951   -1.3980   10.9619 C   0  0  0  0  0  0  0  0  0  0  0  0
    0.0768   -1.8089    9.7979 N   0  0  0  0  0  0  0  0  0  0  0  0
   -3.7505   -1.4099   10.5829 C   0  0  0  0  0  0  0  0  0  0  0  0
   -4.2299   -0.2505   10.1811 N   0  0  0  0  0  0  0  0  0  0  0  0
   -4.9912    0.2832   11.1847 C   0  0  0  0  0  0  0  0  0  0  0  0
   -4.9322   -0.6342   12.2039 C   0  0  0  0  0  0  0  0  0  0  0  0
   -4.1769   -1.6327   11.7987 O   0  0  0  0  0  0  0  0  0  0  0  0
   -5.6103   -0.3781   13.3715 C   0  0  0  0  0  0  0  0  0  0  0  0
   -6.3271    0.7647   13.5168 C   0  0  0  0  0  0  0  0  0  0  0  0
   -6.4126    1.7206   12.5120 C   0  0  0  0  0  0  0  0  0  0  0  0
   -5.7186    1.4343   11.3463 C   0  0  0  0  0  0  0  0  0  0  0  0
   -7.3461    3.1918   12.7168 Cl  0  0  0  0  0  0  0  0  0  0  0  0
  1  2  1  0
  2  3  1  0
  3  4  1  0
  4  5  1  0
  5  6  1  0
  6  7  1  0
  7  8  1  0
  8  9  1  0
  9 10  2  0
  9 11  1  0
 11 12  1  0
 12 13  2  0
 13 14  1  0
 14 15  2  0
 15 16  1  0
 15 17  1  0
 12 18  1  0
 18 19  1  0
 19 20  2  0
 20 21  1  0
 21 22  2  0
  5 23  1  0
 23 24  2  0
 24 25  1  0
 25 26  2  0
 26 27  1  0
 26 28  1  0
 28 29  2  0
 29 30  1  0
 30 31  2  0
 30 32  1  0
  8  2  1  0
 16 11  2  0
 22 18  1  0
 27 23  1  0
 31 25  1  0
M  END
$$$$
