
     RDKit          3D

 32 36  0  0  0  0  0  0  0  0999 V2000
    2.0486   -1.2507    7.5669 C   0  0  0  0  0  0  0  0  0  0  0  0
    0.7778   -1.3151    8.3443 C   0  0  0  0  0  0  0  0  0  0  0  0
    0.9755   -1.0547    9.8301 C   0  0  0  0  0  0  0  0  0  0  0  0
   -0.2586   -0.6662   10.5516 C   0  0  0  0  0  0  0  0  0  0  0  0
   -1.4858   -1.3199   10.2477 N   0  0  0  0  0  0  0  0  0  0  0  0
   -1.9012   -2.5287    9.6259 C   0  0  0  0  0  0  0  0  0  0  0  0
   -1.3877   -2.6299    8.2132 C   0  0  0  0  0  0  0  0  0  0  0  0
    0.0600   -2.5796    8.2006 N   0  0  0  0  0  0  0  0  0  0  0  0
    0.7719   -3.7860    8.0711 C   0  0  0  0  0  0  0  0  0  0  0  0
    1.9109   -3.7671    7.5656 O   0  0  0  0  0  0  0  0  0  0  0  0
    0.2194   -5.0618    8.5107 C   0  0  0  0  0  0  0  0  0  0  0  0
   -0.7502   -5.6871    7.7087 C   0  0  0  0  0  0  0  0  0  0  0  0
   -1.3275   -6.8780    8.0686 C   0  0  0  0  0  0  0  0  0  0  0  0
   -0.9327   -7.4633    9.2522 C   0  0  0  0  0  0  0  0  0  0  0  0
    0.0105   -6.9018   10.0773 C   0  0  0  0  0  0  0  0  0  0  0  0
    0.5644   -5.6974    9.6707 C   0  0  0  0  0  0  0  0  0  0  0  0
    0.4234   -7.5632   11.3515 C   0  0  0  0  0  0  0  0  0  0  0  0
   -1.0930   -5.0719    6.4806 N   0  0  0  0  0  0  0  0  0  0  0  0
   -0.2832   -4.5315    5.6095 N   0  0  0  0  0  0  0  0  0  0  0  0
   -0.9852   -4.0559    4.5510 C   0  0  0  0  0  0  0  0  0  0  0  0
   -2.3025   -4.3355    4.8166 C   0  0  0  0  0  0  0  0  0  0  0  0
   -2.3421   -4.9565    6.0021 N   0  0  0  0  0  0  0  0  0  0  0  0
   -2.6085   -0.5557   10.7510 C   0  0  0  0  0  0  0  0  0  0  0  0
   -3.4827   -0.9569   11.6511 N   0  0  0  0  0  0  0  0  0  0  0  0
   -4.3897    0.0454   11.8618 C   0  0  0  0  0  0  0  0  0  0  0  0
   -3.9956    1.0639   11.0305 C   0  0  0  0  0  0  0  0  0  0  0  0
   -2.9238    0.6588   10.3834 O   0  0  0  0  0  0  0  0  0  0  0  0
   -4.7220    2.2305   11.0147 C   0  0  0  0  0  0  0  0  0  0  0  0
   -5.8135    2.3745   11.8076 C   0  0  0  0  0  0  0  0  0  0  0  0
   -6.2483    1.3691   12.6624 C   0  0  0  0  0  0  0  0  0  0  0  0
   -5.4955    0.2048   12.6567 C   0  0  0  0  0  0  0  0  0  0  0  0
   -7.6611    1.5739   13.6823 Cl  0  0  0  0  0  0  0  0  0  0  0  0
  1  2  1  0
  2  3  1  0
  3  4  1  0
  4  5  1  0
  5  6  1  0
  6  7  1  0
  7  8  1  0
  8  9  1  0
  9 10  2  0
  9 11  1  0
 11 12  1  0
 12 13  2  0
 13 14  1  0
 14 15  2  0
 15 16  1  0
 15 17  1  0
 12 18  1  0
 18 19  1  0
 19 20  2  0
 20 21  1  0
 21 22  2  0
  5 23  1  0
 23 24  2  0
 24 25  1  0
 25 26  2  0
 26 27  1  0
 26 28  1  0
 28 29  2  0
 29 30  1  0
 30 31  2  0
 30 32  1  0
  8  2  1  0
 16 11  2  0
 22 18  1  0
 27 23  1  0
 31 25  1  0
M  END
$$$$
