
     RDKit          3D

 32 36  0  0  0  0  0  0  0  0999 V2000
   -5.3200   -3.3203   11.5170 C   0  0  0  0  0  0  0  0  0  0  0  0
   -4.0463   -3.2371   10.7462 C   0  0  0  0  0  0  0  0  0  0  0  0
   -3.0319   -4.2935   11.1577 C   0  0  0  0  0  0  0  0  0  0  0  0
   -1.9700   -4.5438   10.1556 C   0  0  0  0  0  0  0  0  0  0  0  0
   -1.3957   -3.4484    9.4515 N   0  0  0  0  0  0  0  0  0  0  0  0
   -1.2951   -2.0395    9.6109 C   0  0  0  0  0  0  0  0  0  0  0  0
   -2.6533   -1.3936    9.6991 C   0  0  0  0  0  0  0  0  0  0  0  0
   -3.3932   -1.9323   10.8220 N   0  0  0  0  0  0  0  0  0  0  0  0
   -3.4522   -1.1801   12.0093 C   0  0  0  0  0  0  0  0  0  0  0  0
   -4.2840   -1.4908   12.8838 O   0  0  0  0  0  0  0  0  0  0  0  0
   -2.5688   -0.0454   12.2514 C   0  0  0  0  0  0  0  0  0  0  0  0
   -2.8983    1.1968   11.6833 C   0  0  0  0  0  0  0  0  0  0  0  0
   -2.1044    2.3024   11.8525 C   0  0  0  0  0  0  0  0  0  0  0  0
   -0.9566    2.1728   12.6041 C   0  0  0  0  0  0  0  0  0  0  0  0
   -0.5822    0.9863   13.1854 C   0  0  0  0  0  0  0  0  0  0  0  0
   -1.4168   -0.1028   12.9850 C   0  0  0  0  0  0  0  0  0  0  0  0
    0.6648    0.8779   14.0007 C   0  0  0  0  0  0  0  0  0  0  0  0
   -4.1089    1.2938   10.9559 N   0  0  0  0  0  0  0  0  0  0  0  0
   -4.3417    2.0186    9.8942 N   0  0  0  0  0  0  0  0  0  0  0  0
   -5.6188    1.8371    9.4753 C   0  0  0  0  0  0  0  0  0  0  0  0
   -6.1790    0.9418   10.3521 C   0  0  0  0  0  0  0  0  0  0  0  0
   -5.2358    0.6251   11.2479 N   0  0  0  0  0  0  0  0  0  0  0  0
   -0.6879   -3.9126    8.2763 C   0  0  0  0  0  0  0  0  0  0  0  0
   -0.1741   -3.1570    7.3273 N   0  0  0  0  0  0  0  0  0  0  0  0
    0.4125   -3.9635    6.3910 C   0  0  0  0  0  0  0  0  0  0  0  0
    0.2140   -5.2428    6.8469 C   0  0  0  0  0  0  0  0  0  0  0  0
   -0.4505   -5.1639    7.9800 O   0  0  0  0  0  0  0  0  0  0  0  0
    0.6984   -6.2963    6.1093 C   0  0  0  0  0  0  0  0  0  0  0  0
    1.3624   -6.0769    4.9465 C   0  0  0  0  0  0  0  0  0  0  0  0
    1.5841   -4.7993    4.4475 C   0  0  0  0  0  0  0  0  0  0  0  0
    1.0843   -3.7572    5.2136 C   0  0  0  0  0  0  0  0  0  0  0  0
    2.4468   -4.5346    2.9430 Cl  0  0  0  0  0  0  0  0  0  0  0  0
  1  2  1  0
  2  3  1  0
  3  4  1  0
  4  5  1  0
  5  6  1  0
  6  7  1  0
  7  8  1  0
  8  9  1  0
  9 10  2  0
  9 11  1  0
 11 12  1  0
 12 13  2  0
 13 14  1  0
 14 15  2  0
 15 16  1  0
 15 17  1  0
 12 18  1  0
 18 19  1  0
 19 20  2  0
 20 21  1  0
 21 22  2  0
  5 23  1  0
 23 24  2  0
 24 25  1  0
 25 26  2  0
 26 27  1  0
 26 28  1  0
 28 29  2  0
 29 30  1  0
 30 31  2  0
 30 32  1  0
  8  2  1  0
 16 11  2  0
 22 18  1  0
 27 23  1  0
 31 25  1  0
M  END
$$$$
