
     RDKit          3D

 32 36  0  0  0  0  0  0  0  0999 V2000
    1.5811   -3.7303   10.9171 C   0  0  0  0  0  0  0  0  0  0  0  0
    0.2293   -3.1555   10.6604 C   0  0  0  0  0  0  0  0  0  0  0  0
   -0.8811   -3.8990   11.3876 C   0  0  0  0  0  0  0  0  0  0  0  0
   -2.1379   -3.1286   11.5338 C   0  0  0  0  0  0  0  0  0  0  0  0
   -2.6030   -2.3301   10.4514 N   0  0  0  0  0  0  0  0  0  0  0  0
   -2.3902   -2.2432    9.0487 C   0  0  0  0  0  0  0  0  0  0  0  0
   -0.9383   -2.0091    8.7220 C   0  0  0  0  0  0  0  0  0  0  0  0
   -0.1259   -3.0885    9.2448 N   0  0  0  0  0  0  0  0  0  0  0  0
    0.2996   -4.0966    8.3606 C   0  0  0  0  0  0  0  0  0  0  0  0
    0.7717   -5.1521    8.8258 O   0  0  0  0  0  0  0  0  0  0  0  0
    0.2057   -3.9469    6.9132 C   0  0  0  0  0  0  0  0  0  0  0  0
    0.5158   -2.7000    6.3444 C   0  0  0  0  0  0  0  0  0  0  0  0
    0.4311   -2.4807    4.9932 C   0  0  0  0  0  0  0  0  0  0  0  0
    0.0300   -3.5238    4.1866 C   0  0  0  0  0  0  0  0  0  0  0  0
   -0.2849   -4.7648    4.6830 C   0  0  0  0  0  0  0  0  0  0  0  0
   -0.1846   -4.9369    6.0553 C   0  0  0  0  0  0  0  0  0  0  0  0
   -0.7103   -5.8786    3.7830 C   0  0  0  0  0  0  0  0  0  0  0  0
    0.9653   -1.6707    7.2061 N   0  0  0  0  0  0  0  0  0  0  0  0
    0.2654   -0.6819    7.6950 N   0  0  0  0  0  0  0  0  0  0  0  0
    1.0434    0.0927    8.4913 C   0  0  0  0  0  0  0  0  0  0  0  0
    2.2908   -0.4799    8.4706 C   0  0  0  0  0  0  0  0  0  0  0  0
    2.2171   -1.5562    7.6777 N   0  0  0  0  0  0  0  0  0  0  0  0
   -3.5935   -1.3779   10.9093 C   0  0  0  0  0  0  0  0  0  0  0  0
   -3.7004   -0.8909   12.1287 N   0  0  0  0  0  0  0  0  0  0  0  0
   -4.7571   -0.0229   12.1655 C   0  0  0  0  0  0  0  0  0  0  0  0
   -5.2668   -0.0269   10.8911 C   0  0  0  0  0  0  0  0  0  0  0  0
   -4.5380   -0.8539   10.1724 O   0  0  0  0  0  0  0  0  0  0  0  0
   -6.3553    0.7622   10.6059 C   0  0  0  0  0  0  0  0  0  0  0  0
   -6.9197    1.5335   11.5690 C   0  0  0  0  0  0  0  0  0  0  0  0
   -6.4372    1.5666   12.8715 C   0  0  0  0  0  0  0  0  0  0  0  0
   -5.3386    0.7608   13.1287 C   0  0  0  0  0  0  0  0  0  0  0  0
   -7.1787    2.5719   14.1034 Cl  0  0  0  0  0  0  0  0  0  0  0  0
  1  2  1  0
  2  3  1  0
  3  4  1  0
  4  5  1  0
  5  6  1  0
  6  7  1  0
  7  8  1  0
  8  9  1  0
  9 10  2  0
  9 11  1  0
 11 12  1  0
 12 13  2  0
 13 14  1  0
 14 15  2  0
 15 16  1  0
 15 17  1  0
 12 18  1  0
 18 19  1  0
 19 20  2  0
 20 21  1  0
 21 22  2  0
  5 23  1  0
 23 24  2  0
 24 25  1  0
 25 26  2  0
 26 27  1  0
 26 28  1  0
 28 29  2  0
 29 30  1  0
 30 31  2  0
 30 32  1  0
  8  2  1  0
 16 11  2  0
 22 18  1  0
 27 23  1  0
 31 25  1  0
M  END
$$$$
