
     RDKit          3D

 32 36  0  0  0  0  0  0  0  0999 V2000
   -1.8284   -3.8146   13.6879 C   0  0  0  0  0  0  0  0  0  0  0  0
   -1.5361   -3.5164   12.2564 C   0  0  0  0  0  0  0  0  0  0  0  0
   -0.0565   -3.2879   11.9865 C   0  0  0  0  0  0  0  0  0  0  0  0
    0.3353   -3.4364   10.5656 C   0  0  0  0  0  0  0  0  0  0  0  0
   -0.5141   -2.9241    9.5451 N   0  0  0  0  0  0  0  0  0  0  0  0
   -1.5716   -1.9801    9.4403 C   0  0  0  0  0  0  0  0  0  0  0  0
   -2.7191   -2.3302   10.3515 C   0  0  0  0  0  0  0  0  0  0  0  0
   -2.2722   -2.3698   11.7288 N   0  0  0  0  0  0  0  0  0  0  0  0
   -2.5402   -1.2617   12.5531 C   0  0  0  0  0  0  0  0  0  0  0  0
   -2.6350   -1.4301   13.7843 O   0  0  0  0  0  0  0  0  0  0  0  0
   -2.7110    0.0817   12.0124 C   0  0  0  0  0  0  0  0  0  0  0  0
   -3.9549    0.4318   11.4609 C   0  0  0  0  0  0  0  0  0  0  0  0
   -4.1818    1.6703   10.9170 C   0  0  0  0  0  0  0  0  0  0  0  0
   -3.1500    2.5840   10.9213 C   0  0  0  0  0  0  0  0  0  0  0  0
   -1.9131    2.3013   11.4466 C   0  0  0  0  0  0  0  0  0  0  0  0
   -1.7325    1.0359   11.9841 C   0  0  0  0  0  0  0  0  0  0  0  0
   -0.8156    3.3147   11.4432 C   0  0  0  0  0  0  0  0  0  0  0  0
   -4.9985   -0.5231   11.5176 N   0  0  0  0  0  0  0  0  0  0  0  0
   -5.5941   -1.1095   10.5136 N   0  0  0  0  0  0  0  0  0  0  0  0
   -6.5361   -1.9727   10.9684 C   0  0  0  0  0  0  0  0  0  0  0  0
   -6.4932   -1.8894   12.3379 C   0  0  0  0  0  0  0  0  0  0  0  0
   -5.5454   -0.9964   12.6487 N   0  0  0  0  0  0  0  0  0  0  0  0
   -0.1701   -3.4973    8.2603 C   0  0  0  0  0  0  0  0  0  0  0  0
    1.0344   -3.5529    7.7296 N   0  0  0  0  0  0  0  0  0  0  0  0
    0.9508   -4.1673    6.5102 C   0  0  0  0  0  0  0  0  0  0  0  0
   -0.3784   -4.4721    6.3545 C   0  0  0  0  0  0  0  0  0  0  0  0
   -1.0127   -4.0515    7.4279 O   0  0  0  0  0  0  0  0  0  0  0  0
   -0.7866   -5.1077    5.2064 C   0  0  0  0  0  0  0  0  0  0  0  0
    0.1095   -5.4288    4.2395 C   0  0  0  0  0  0  0  0  0  0  0  0
    1.4632   -5.1376    4.3552 C   0  0  0  0  0  0  0  0  0  0  0  0
    1.8447   -4.4969    5.5241 C   0  0  0  0  0  0  0  0  0  0  0  0
    2.6079   -5.5623    3.0954 Cl  0  0  0  0  0  0  0  0  0  0  0  0
  1  2  1  0
  2  3  1  0
  3  4  1  0
  4  5  1  0
  5  6  1  0
  6  7  1  0
  7  8  1  0
  8  9  1  0
  9 10  2  0
  9 11  1  0
 11 12  1  0
 12 13  2  0
 13 14  1  0
 14 15  2  0
 15 16  1  0
 15 17  1  0
 12 18  1  0
 18 19  1  0
 19 20  2  0
 20 21  1  0
 21 22  2  0
  5 23  1  0
 23 24  2  0
 24 25  1  0
 25 26  2  0
 26 27  1  0
 26 28  1  0
 28 29  2  0
 29 30  1  0
 30 31  2  0
 30 32  1  0
  8  2  1  0
 16 11  2  0
 22 18  1  0
 27 23  1  0
 31 25  1  0
M  END
$$$$
