
     RDKit          3D

 32 36  0  0  0  0  0  0  0  0999 V2000
   -2.7870   -4.1321   13.2461 C   0  0  0  0  0  0  0  0  0  0  0  0
   -2.1530   -3.6913   11.9705 C   0  0  0  0  0  0  0  0  0  0  0  0
   -0.7114   -4.1566   11.8308 C   0  0  0  0  0  0  0  0  0  0  0  0
   -0.1969   -4.1429   10.4417 C   0  0  0  0  0  0  0  0  0  0  0  0
   -0.5308   -3.0612    9.5792 N   0  0  0  0  0  0  0  0  0  0  0  0
   -1.0037   -1.7271    9.7093 C   0  0  0  0  0  0  0  0  0  0  0  0
   -2.3197   -1.6746   10.4407 C   0  0  0  0  0  0  0  0  0  0  0  0
   -2.1810   -2.2450   11.7650 N   0  0  0  0  0  0  0  0  0  0  0  0
   -2.0470   -1.3725   12.8604 C   0  0  0  0  0  0  0  0  0  0  0  0
   -1.9592   -1.8492   14.0086 O   0  0  0  0  0  0  0  0  0  0  0  0
   -2.0069    0.0758   12.6959 C   0  0  0  0  0  0  0  0  0  0  0  0
   -3.2213    0.7745   12.5888 C   0  0  0  0  0  0  0  0  0  0  0  0
   -3.2599    2.1342   12.4131 C   0  0  0  0  0  0  0  0  0  0  0  0
   -2.0650    2.8174   12.3430 C   0  0  0  0  0  0  0  0  0  0  0  0
   -0.8470    2.1909   12.4423 C   0  0  0  0  0  0  0  0  0  0  0  0
   -0.8600    0.8156   12.6184 C   0  0  0  0  0  0  0  0  0  0  0  0
    0.4320    2.9592   12.3695 C   0  0  0  0  0  0  0  0  0  0  0  0
   -4.4240    0.0377   12.7102 N   0  0  0  0  0  0  0  0  0  0  0  0
   -5.2633   -0.2752   11.7593 N   0  0  0  0  0  0  0  0  0  0  0  0
   -6.2930   -0.9991   12.2642 C   0  0  0  0  0  0  0  0  0  0  0  0
   -6.0434   -1.1219   13.6084 C   0  0  0  0  0  0  0  0  0  0  0  0
   -4.8952   -0.4794   13.8561 N   0  0  0  0  0  0  0  0  0  0  0  0
   -0.2755   -3.4134    8.1978 C   0  0  0  0  0  0  0  0  0  0  0  0
    0.2567   -4.5387    7.7665 N   0  0  0  0  0  0  0  0  0  0  0  0
    0.3339   -4.4948    6.4013 C   0  0  0  0  0  0  0  0  0  0  0  0
   -0.1872   -3.2736    6.0534 C   0  0  0  0  0  0  0  0  0  0  0  0
   -0.5391   -2.6592    7.1626 O   0  0  0  0  0  0  0  0  0  0  0  0
   -0.2476   -2.9287    4.7245 C   0  0  0  0  0  0  0  0  0  0  0  0
    0.2018   -3.7810    3.7692 C   0  0  0  0  0  0  0  0  0  0  0  0
    0.7379   -5.0254    4.0768 C   0  0  0  0  0  0  0  0  0  0  0  0
    0.7853   -5.3453    5.4251 C   0  0  0  0  0  0  0  0  0  0  0  0
    1.3123   -6.1155    2.8279 Cl  0  0  0  0  0  0  0  0  0  0  0  0
  1  2  1  0
  2  3  1  0
  3  4  1  0
  4  5  1  0
  5  6  1  0
  6  7  1  0
  7  8  1  0
  8  9  1  0
  9 10  2  0
  9 11  1  0
 11 12  1  0
 12 13  2  0
 13 14  1  0
 14 15  2  0
 15 16  1  0
 15 17  1  0
 12 18  1  0
 18 19  1  0
 19 20  2  0
 20 21  1  0
 21 22  2  0
  5 23  1  0
 23 24  2  0
 24 25  1  0
 25 26  2  0
 26 27  1  0
 26 28  1  0
 28 29  2  0
 29 30  1  0
 30 31  2  0
 30 32  1  0
  8  2  1  0
 16 11  2  0
 22 18  1  0
 27 23  1  0
 31 25  1  0
M  END
$$$$
