
     RDKit          3D

 32 36  0  0  0  0  0  0  0  0999 V2000
   -2.3981   -5.7908    8.0934 C   0  0  0  0  0  0  0  0  0  0  0  0
   -2.4528   -4.4602    8.7642 C   0  0  0  0  0  0  0  0  0  0  0  0
   -3.6366   -3.6163    8.3159 C   0  0  0  0  0  0  0  0  0  0  0  0
   -3.9900   -2.5177    9.2447 C   0  0  0  0  0  0  0  0  0  0  0  0
   -2.9560   -1.7618    9.8652 N   0  0  0  0  0  0  0  0  0  0  0  0
   -1.5750   -1.5042    9.6493 C   0  0  0  0  0  0  0  0  0  0  0  0
   -0.7689   -2.7769    9.6394 C   0  0  0  0  0  0  0  0  0  0  0  0
   -1.2410   -3.6619    8.5942 N   0  0  0  0  0  0  0  0  0  0  0  0
   -0.5181   -3.7217    7.3888 C   0  0  0  0  0  0  0  0  0  0  0  0
   -0.5474   -4.7698    6.7151 O   0  0  0  0  0  0  0  0  0  0  0  0
    0.2663   -2.5939    6.9000 C   0  0  0  0  0  0  0  0  0  0  0  0
    1.5887   -2.8241    6.4844 C   0  0  0  0  0  0  0  0  0  0  0  0
    2.3913   -1.8083    6.0316 C   0  0  0  0  0  0  0  0  0  0  0  0
    1.8692   -0.5335    5.9890 C   0  0  0  0  0  0  0  0  0  0  0  0
    0.5846   -0.2462    6.3801 C   0  0  0  0  0  0  0  0  0  0  0  0
   -0.1873   -1.3062    6.8310 C   0  0  0  0  0  0  0  0  0  0  0  0
    0.0440    1.1449    6.3164 C   0  0  0  0  0  0  0  0  0  0  0  0
    2.0684   -4.1559    6.5042 N   0  0  0  0  0  0  0  0  0  0  0  0
    2.3215   -4.8936    7.5522 N   0  0  0  0  0  0  0  0  0  0  0  0
    2.7544   -6.1198    7.1671 C   0  0  0  0  0  0  0  0  0  0  0  0
    2.7569   -6.1043    5.7946 C   0  0  0  0  0  0  0  0  0  0  0  0
    2.3337   -4.8926    5.4136 N   0  0  0  0  0  0  0  0  0  0  0  0
   -3.4736   -1.0261   11.0002 C   0  0  0  0  0  0  0  0  0  0  0  0
   -2.9377    0.0488   11.5416 N   0  0  0  0  0  0  0  0  0  0  0  0
   -3.7187    0.4498   12.5908 C   0  0  0  0  0  0  0  0  0  0  0  0
   -4.7499   -0.4550   12.6344 C   0  0  0  0  0  0  0  0  0  0  0  0
   -4.5615   -1.3220   11.6626 O   0  0  0  0  0  0  0  0  0  0  0  0
   -5.7184   -0.3161   13.5996 C   0  0  0  0  0  0  0  0  0  0  0  0
   -5.6570    0.6991   14.4976 C   0  0  0  0  0  0  0  0  0  0  0  0
   -4.6307    1.6358   14.4907 C   0  0  0  0  0  0  0  0  0  0  0  0
   -3.6692    1.4700   13.5056 C   0  0  0  0  0  0  0  0  0  0  0  0
   -4.5688    2.9434   15.6587 Cl  0  0  0  0  0  0  0  0  0  0  0  0
  1  2  1  0
  2  3  1  0
  3  4  1  0
  4  5  1  0
  5  6  1  0
  6  7  1  0
  7  8  1  0
  8  9  1  0
  9 10  2  0
  9 11  1  0
 11 12  1  0
 12 13  2  0
 13 14  1  0
 14 15  2  0
 15 16  1  0
 15 17  1  0
 12 18  1  0
 18 19  1  0
 19 20  2  0
 20 21  1  0
 21 22  2  0
  5 23  1  0
 23 24  2  0
 24 25  1  0
 25 26  2  0
 26 27  1  0
 26 28  1  0
 28 29  2  0
 29 30  1  0
 30 31  2  0
 30 32  1  0
  8  2  1  0
 16 11  2  0
 22 18  1  0
 27 23  1  0
 31 25  1  0
M  END
$$$$
