
     RDKit          3D

 32 36  0  0  0  0  0  0  0  0999 V2000
   -0.1890   -1.6340    5.9182 C   0  0  0  0  0  0  0  0  0  0  0  0
   -1.0684   -1.5643    7.1204 C   0  0  0  0  0  0  0  0  0  0  0  0
   -0.2886   -1.5018    8.4251 C   0  0  0  0  0  0  0  0  0  0  0  0
   -1.0656   -0.9888    9.5773 C   0  0  0  0  0  0  0  0  0  0  0  0
   -2.4215   -1.3880    9.7443 N   0  0  0  0  0  0  0  0  0  0  0  0
   -3.2675   -2.4350    9.2879 C   0  0  0  0  0  0  0  0  0  0  0  0
   -3.3432   -2.4703    7.7837 C   0  0  0  0  0  0  0  0  0  0  0  0
   -2.0235   -2.6656    7.2192 N   0  0  0  0  0  0  0  0  0  0  0  0
   -1.6636   -3.9546    6.7854 C   0  0  0  0  0  0  0  0  0  0  0  0
   -2.5606   -4.7806    6.5279 O   0  0  0  0  0  0  0  0  0  0  0  0
   -0.2711   -4.3570    6.6264 C   0  0  0  0  0  0  0  0  0  0  0  0
    0.3364   -5.0982    7.6538 C   0  0  0  0  0  0  0  0  0  0  0  0
    1.6476   -5.4942    7.5814 C   0  0  0  0  0  0  0  0  0  0  0  0
    2.3732   -5.1474    6.4622 C   0  0  0  0  0  0  0  0  0  0  0  0
    1.8350   -4.4258    5.4252 C   0  0  0  0  0  0  0  0  0  0  0  0
    0.5063   -4.0480    5.5452 C   0  0  0  0  0  0  0  0  0  0  0  0
    2.6447   -4.0703    4.2212 C   0  0  0  0  0  0  0  0  0  0  0  0
   -0.4592   -5.4693    8.7644 N   0  0  0  0  0  0  0  0  0  0  0  0
   -1.4335   -6.3392    8.7883 N   0  0  0  0  0  0  0  0  0  0  0  0
   -1.9478   -6.4307   10.0398 C   0  0  0  0  0  0  0  0  0  0  0  0
   -1.2257   -5.5525   10.8087 C   0  0  0  0  0  0  0  0  0  0  0  0
   -0.3220   -4.9770   10.0058 N   0  0  0  0  0  0  0  0  0  0  0  0
   -3.1037   -0.5025   10.6652 C   0  0  0  0  0  0  0  0  0  0  0  0
   -4.3718   -0.5701   11.0157 N   0  0  0  0  0  0  0  0  0  0  0  0
   -4.6384    0.4375   11.9017 C   0  0  0  0  0  0  0  0  0  0  0  0
   -3.4481    1.1037   12.0534 C   0  0  0  0  0  0  0  0  0  0  0  0
   -2.5562    0.5055   11.2928 O   0  0  0  0  0  0  0  0  0  0  0  0
   -3.3930    2.1867   12.8977 C   0  0  0  0  0  0  0  0  0  0  0  0
   -4.4983    2.5935   13.5713 C   0  0  0  0  0  0  0  0  0  0  0  0
   -5.7232    1.9495   13.4461 C   0  0  0  0  0  0  0  0  0  0  0  0
   -5.7475    0.8607   12.5880 C   0  0  0  0  0  0  0  0  0  0  0  0
   -7.1417    2.4883   14.3267 Cl  0  0  0  0  0  0  0  0  0  0  0  0
  1  2  1  0
  2  3  1  0
  3  4  1  0
  4  5  1  0
  5  6  1  0
  6  7  1  0
  7  8  1  0
  8  9  1  0
  9 10  2  0
  9 11  1  0
 11 12  1  0
 12 13  2  0
 13 14  1  0
 14 15  2  0
 15 16  1  0
 15 17  1  0
 12 18  1  0
 18 19  1  0
 19 20  2  0
 20 21  1  0
 21 22  2  0
  5 23  1  0
 23 24  2  0
 24 25  1  0
 25 26  2  0
 26 27  1  0
 26 28  1  0
 28 29  2  0
 29 30  1  0
 30 31  2  0
 30 32  1  0
  8  2  1  0
 16 11  2  0
 22 18  1  0
 27 23  1  0
 31 25  1  0
M  END
$$$$
