
     RDKit          3D

 32 36  0  0  0  0  0  0  0  0999 V2000
   -0.4401   -2.3367   13.4467 C   0  0  0  0  0  0  0  0  0  0  0  0
   -0.5948   -2.3002   11.9641 C   0  0  0  0  0  0  0  0  0  0  0  0
    0.6148   -1.7110   11.2542 C   0  0  0  0  0  0  0  0  0  0  0  0
    0.7079   -2.0568    9.8167 C   0  0  0  0  0  0  0  0  0  0  0  0
   -0.4704   -2.0667    9.0185 N   0  0  0  0  0  0  0  0  0  0  0  0
   -1.7844   -1.5290    9.0862 C   0  0  0  0  0  0  0  0  0  0  0  0
   -2.5068   -1.9860   10.3268 C   0  0  0  0  0  0  0  0  0  0  0  0
   -1.7798   -1.5757   11.5107 N   0  0  0  0  0  0  0  0  0  0  0  0
   -2.2248   -0.4395   12.2108 C   0  0  0  0  0  0  0  0  0  0  0  0
   -1.6181   -0.0848   13.2401 O   0  0  0  0  0  0  0  0  0  0  0  0
   -3.3759    0.3395   11.7701 C   0  0  0  0  0  0  0  0  0  0  0  0
   -4.6348    0.0520   12.3241 C   0  0  0  0  0  0  0  0  0  0  0  0
   -5.7643    0.7304   11.9432 C   0  0  0  0  0  0  0  0  0  0  0  0
   -5.6419    1.7187   10.9905 C   0  0  0  0  0  0  0  0  0  0  0  0
   -4.4394    2.0462   10.4137 C   0  0  0  0  0  0  0  0  0  0  0  0
   -3.3267    1.3317   10.8310 C   0  0  0  0  0  0  0  0  0  0  0  0
   -4.3366    3.1272    9.3879 C   0  0  0  0  0  0  0  0  0  0  0  0
   -4.7058   -0.9408   13.3308 N   0  0  0  0  0  0  0  0  0  0  0  0
   -4.8743   -2.2260   13.1686 N   0  0  0  0  0  0  0  0  0  0  0  0
   -4.8766   -2.8527   14.3713 C   0  0  0  0  0  0  0  0  0  0  0  0
   -4.6967   -1.8671   15.3096 C   0  0  0  0  0  0  0  0  0  0  0  0
   -4.5952   -0.7074   14.6483 N   0  0  0  0  0  0  0  0  0  0  0  0
   -0.2436   -2.7895    7.7841 C   0  0  0  0  0  0  0  0  0  0  0  0
   -0.8494   -3.8971    7.4075 N   0  0  0  0  0  0  0  0  0  0  0  0
   -0.3643   -4.2705    6.1841 C   0  0  0  0  0  0  0  0  0  0  0  0
    0.5651   -3.3135    5.8613 C   0  0  0  0  0  0  0  0  0  0  0  0
    0.6043   -2.4459    6.8499 O   0  0  0  0  0  0  0  0  0  0  0  0
    1.2383   -3.4138    4.6674 C   0  0  0  0  0  0  0  0  0  0  0  0
    0.9902   -4.4437    3.8197 C   0  0  0  0  0  0  0  0  0  0  0  0
    0.0595   -5.4346    4.1072 C   0  0  0  0  0  0  0  0  0  0  0  0
   -0.6038   -5.3063    5.3180 C   0  0  0  0  0  0  0  0  0  0  0  0
   -0.2499   -6.7580    2.9978 Cl  0  0  0  0  0  0  0  0  0  0  0  0
  1  2  1  0
  2  3  1  0
  3  4  1  0
  4  5  1  0
  5  6  1  0
  6  7  1  0
  7  8  1  0
  8  9  1  0
  9 10  2  0
  9 11  1  0
 11 12  1  0
 12 13  2  0
 13 14  1  0
 14 15  2  0
 15 16  1  0
 15 17  1  0
 12 18  1  0
 18 19  1  0
 19 20  2  0
 20 21  1  0
 21 22  2  0
  5 23  1  0
 23 24  2  0
 24 25  1  0
 25 26  2  0
 26 27  1  0
 26 28  1  0
 28 29  2  0
 29 30  1  0
 30 31  2  0
 30 32  1  0
  8  2  1  0
 16 11  2  0
 22 18  1  0
 27 23  1  0
 31 25  1  0
M  END
$$$$
