
     RDKit          3D

 32 36  0  0  0  0  0  0  0  0999 V2000
   -1.2235   -6.3104   10.5240 C   0  0  0  0  0  0  0  0  0  0  0  0
   -1.7572   -4.9300   10.3426 C   0  0  0  0  0  0  0  0  0  0  0  0
   -3.1899   -4.9085    9.8313 C   0  0  0  0  0  0  0  0  0  0  0  0
   -3.9009   -3.6292   10.0597 C   0  0  0  0  0  0  0  0  0  0  0  0
   -3.2116   -2.3985    9.8705 N   0  0  0  0  0  0  0  0  0  0  0  0
   -2.0433   -1.9463    9.1989 C   0  0  0  0  0  0  0  0  0  0  0  0
   -0.8128   -2.6710    9.6790 C   0  0  0  0  0  0  0  0  0  0  0  0
   -0.9501   -4.0956    9.4553 N   0  0  0  0  0  0  0  0  0  0  0  0
   -0.3059   -4.6648    8.3418 C   0  0  0  0  0  0  0  0  0  0  0  0
   -0.2771   -5.9054    8.2260 O   0  0  0  0  0  0  0  0  0  0  0  0
    0.3311   -3.8484    7.3151 C   0  0  0  0  0  0  0  0  0  0  0  0
    1.2931   -2.9029    7.7085 C   0  0  0  0  0  0  0  0  0  0  0  0
    1.9188   -2.0875    6.8003 C   0  0  0  0  0  0  0  0  0  0  0  0
    1.5828   -2.2138    5.4697 C   0  0  0  0  0  0  0  0  0  0  0  0
    0.6519   -3.1197    5.0240 C   0  0  0  0  0  0  0  0  0  0  0  0
    0.0463   -3.9208    5.9801 C   0  0  0  0  0  0  0  0  0  0  0  0
    0.3132   -3.2385    3.5739 C   0  0  0  0  0  0  0  0  0  0  0  0
    1.6384   -2.8383    9.0799 N   0  0  0  0  0  0  0  0  0  0  0  0
    1.2840   -1.9270    9.9462 N   0  0  0  0  0  0  0  0  0  0  0  0
    1.8024   -2.2149   11.1659 C   0  0  0  0  0  0  0  0  0  0  0  0
    2.5131   -3.3785   11.0078 C   0  0  0  0  0  0  0  0  0  0  0  0
    2.3975   -3.7393    9.7237 N   0  0  0  0  0  0  0  0  0  0  0  0
   -3.9275   -1.3107   10.5044 C   0  0  0  0  0  0  0  0  0  0  0  0
   -4.6422   -1.3875   11.6084 N   0  0  0  0  0  0  0  0  0  0  0  0
   -5.1597   -0.1517   11.8852 C   0  0  0  0  0  0  0  0  0  0  0  0
   -4.7049    0.6599   10.8760 C   0  0  0  0  0  0  0  0  0  0  0  0
   -3.9705   -0.0778   10.0710 O   0  0  0  0  0  0  0  0  0  0  0  0
   -5.0616    1.9871   10.8758 C   0  0  0  0  0  0  0  0  0  0  0  0
   -5.8526    2.4892   11.8572 C   0  0  0  0  0  0  0  0  0  0  0  0
   -6.3363    1.7034   12.8961 C   0  0  0  0  0  0  0  0  0  0  0  0
   -5.9593    0.3694   12.8697 C   0  0  0  0  0  0  0  0  0  0  0  0
   -7.3564    2.3705   14.1580 Cl  0  0  0  0  0  0  0  0  0  0  0  0
  1  2  1  0
  2  3  1  0
  3  4  1  0
  4  5  1  0
  5  6  1  0
  6  7  1  0
  7  8  1  0
  8  9  1  0
  9 10  2  0
  9 11  1  0
 11 12  1  0
 12 13  2  0
 13 14  1  0
 14 15  2  0
 15 16  1  0
 15 17  1  0
 12 18  1  0
 18 19  1  0
 19 20  2  0
 20 21  1  0
 21 22  2  0
  5 23  1  0
 23 24  2  0
 24 25  1  0
 25 26  2  0
 26 27  1  0
 26 28  1  0
 28 29  2  0
 29 30  1  0
 30 31  2  0
 30 32  1  0
  8  2  1  0
 16 11  2  0
 22 18  1  0
 27 23  1  0
 31 25  1  0
M  END
$$$$
