
     RDKit          3D

 32 36  0  0  0  0  0  0  0  0999 V2000
   -2.1961   -6.2418    8.1873 C   0  0  0  0  0  0  0  0  0  0  0  0
   -2.3343   -4.9223    8.8680 C   0  0  0  0  0  0  0  0  0  0  0  0
   -2.8665   -3.8322    7.9500 C   0  0  0  0  0  0  0  0  0  0  0  0
   -3.4367   -2.6623    8.6576 C   0  0  0  0  0  0  0  0  0  0  0  0
   -2.7880   -2.1594    9.8203 N   0  0  0  0  0  0  0  0  0  0  0  0
   -1.5005   -2.2397   10.4173 C   0  0  0  0  0  0  0  0  0  0  0  0
   -1.1091   -3.6667   10.7004 C   0  0  0  0  0  0  0  0  0  0  0  0
   -1.0965   -4.4365    9.4733 N   0  0  0  0  0  0  0  0  0  0  0  0
    0.1407   -4.6901    8.8534 C   0  0  0  0  0  0  0  0  0  0  0  0
    0.9726   -5.4148    9.4331 O   0  0  0  0  0  0  0  0  0  0  0  0
    0.4825   -4.1316    7.5506 C   0  0  0  0  0  0  0  0  0  0  0  0
    0.8239   -2.7709    7.4705 C   0  0  0  0  0  0  0  0  0  0  0  0
    1.1376   -2.1734    6.2765 C   0  0  0  0  0  0  0  0  0  0  0  0
    1.1132   -2.9444    5.1345 C   0  0  0  0  0  0  0  0  0  0  0  0
    0.7889   -4.2788    5.1489 C   0  0  0  0  0  0  0  0  0  0  0  0
    0.4786   -4.8370    6.3796 C   0  0  0  0  0  0  0  0  0  0  0  0
    0.7774   -5.0909    3.8952 C   0  0  0  0  0  0  0  0  0  0  0  0
    0.8785   -2.0284    8.6746 N   0  0  0  0  0  0  0  0  0  0  0  0
    0.1275   -1.0163    9.0185 N   0  0  0  0  0  0  0  0  0  0  0  0
    0.4729   -0.5766   10.2541 C   0  0  0  0  0  0  0  0  0  0  0  0
    1.5006   -1.3868   10.6684 C   0  0  0  0  0  0  0  0  0  0  0  0
    1.7300   -2.2659    9.6851 N   0  0  0  0  0  0  0  0  0  0  0  0
   -3.6801   -1.2990   10.5697 C   0  0  0  0  0  0  0  0  0  0  0  0
   -3.3478   -0.1880   11.1949 N   0  0  0  0  0  0  0  0  0  0  0  0
   -4.4652    0.3372   11.7840 C   0  0  0  0  0  0  0  0  0  0  0  0
   -5.4784   -0.5326   11.4665 C   0  0  0  0  0  0  0  0  0  0  0  0
   -4.9613   -1.4987   10.7379 O   0  0  0  0  0  0  0  0  0  0  0  0
   -6.7483   -0.2720   11.9227 C   0  0  0  0  0  0  0  0  0  0  0  0
   -6.9984    0.8278   12.6769 C   0  0  0  0  0  0  0  0  0  0  0  0
   -6.0028    1.7332   13.0229 C   0  0  0  0  0  0  0  0  0  0  0  0
   -4.7327    1.4439   12.5480 C   0  0  0  0  0  0  0  0  0  0  0  0
   -6.3452    3.1513   13.9974 Cl  0  0  0  0  0  0  0  0  0  0  0  0
  1  2  1  0
  2  3  1  0
  3  4  1  0
  4  5  1  0
  5  6  1  0
  6  7  1  0
  7  8  1  0
  8  9  1  0
  9 10  2  0
  9 11  1  0
 11 12  1  0
 12 13  2  0
 13 14  1  0
 14 15  2  0
 15 16  1  0
 15 17  1  0
 12 18  1  0
 18 19  1  0
 19 20  2  0
 20 21  1  0
 21 22  2  0
  5 23  1  0
 23 24  2  0
 24 25  1  0
 25 26  2  0
 26 27  1  0
 26 28  1  0
 28 29  2  0
 29 30  1  0
 30 31  2  0
 30 32  1  0
  8  2  1  0
 16 11  2  0
 22 18  1  0
 27 23  1  0
 31 25  1  0
M  END
$$$$
