
     RDKit          3D

 32 36  0  0  0  0  0  0  0  0999 V2000
   -1.6345   -1.7039   12.9592 C   0  0  0  0  0  0  0  0  0  0  0  0
   -1.5863   -1.9871   11.4960 C   0  0  0  0  0  0  0  0  0  0  0  0
   -0.3598   -1.3975   10.8160 C   0  0  0  0  0  0  0  0  0  0  0  0
   -0.0333   -2.0098    9.5073 C   0  0  0  0  0  0  0  0  0  0  0  0
   -1.0825   -2.3364    8.6028 N   0  0  0  0  0  0  0  0  0  0  0  0
   -2.4428   -1.9754    8.4044 C   0  0  0  0  0  0  0  0  0  0  0  0
   -3.2767   -2.2654    9.6252 C   0  0  0  0  0  0  0  0  0  0  0  0
   -2.7676   -1.5326   10.7663 N   0  0  0  0  0  0  0  0  0  0  0  0
   -3.4230   -0.3482   11.1495 C   0  0  0  0  0  0  0  0  0  0  0  0
   -4.6250   -0.1978   10.8565 O   0  0  0  0  0  0  0  0  0  0  0  0
   -2.7400    0.7124   11.8809 C   0  0  0  0  0  0  0  0  0  0  0  0
   -2.9581    0.8235   13.2645 C   0  0  0  0  0  0  0  0  0  0  0  0
   -2.3648    1.8079   14.0130 C   0  0  0  0  0  0  0  0  0  0  0  0
   -1.5344    2.7029   13.3738 C   0  0  0  0  0  0  0  0  0  0  0  0
   -1.2813    2.6449   12.0253 C   0  0  0  0  0  0  0  0  0  0  0  0
   -1.9047    1.6327   11.3116 C   0  0  0  0  0  0  0  0  0  0  0  0
   -0.3708    3.6254   11.3611 C   0  0  0  0  0  0  0  0  0  0  0  0
   -3.7838   -0.1439   13.8861 N   0  0  0  0  0  0  0  0  0  0  0  0
   -5.0558   -0.3551   13.6767 N   0  0  0  0  0  0  0  0  0  0  0  0
   -5.4939   -1.3772   14.4531 C   0  0  0  0  0  0  0  0  0  0  0  0
   -4.4028   -1.7988   15.1713 C   0  0  0  0  0  0  0  0  0  0  0  0
   -3.3699   -1.0289   14.8069 N   0  0  0  0  0  0  0  0  0  0  0  0
   -0.6122   -3.2560    7.5875 C   0  0  0  0  0  0  0  0  0  0  0  0
    0.6365   -3.6264    7.3903 N   0  0  0  0  0  0  0  0  0  0  0  0
    0.6756   -4.5033    6.3410 C   0  0  0  0  0  0  0  0  0  0  0  0
   -0.6284   -4.6283    5.9315 C   0  0  0  0  0  0  0  0  0  0  0  0
   -1.3654   -3.8622    6.7071 O   0  0  0  0  0  0  0  0  0  0  0  0
   -0.9189   -5.4576    4.8748 C   0  0  0  0  0  0  0  0  0  0  0  0
    0.0678   -6.1425    4.2437 C   0  0  0  0  0  0  0  0  0  0  0  0
    1.4006   -6.0442    4.6240 C   0  0  0  0  0  0  0  0  0  0  0  0
    1.6624   -5.2007    5.6929 C   0  0  0  0  0  0  0  0  0  0  0  0
    2.6631   -6.9391    3.7974 Cl  0  0  0  0  0  0  0  0  0  0  0  0
  1  2  1  0
  2  3  1  0
  3  4  1  0
  4  5  1  0
  5  6  1  0
  6  7  1  0
  7  8  1  0
  8  9  1  0
  9 10  2  0
  9 11  1  0
 11 12  1  0
 12 13  2  0
 13 14  1  0
 14 15  2  0
 15 16  1  0
 15 17  1  0
 12 18  1  0
 18 19  1  0
 19 20  2  0
 20 21  1  0
 21 22  2  0
  5 23  1  0
 23 24  2  0
 24 25  1  0
 25 26  2  0
 26 27  1  0
 26 28  1  0
 28 29  2  0
 29 30  1  0
 30 31  2  0
 30 32  1  0
  8  2  1  0
 16 11  2  0
 22 18  1  0
 27 23  1  0
 31 25  1  0
M  END
$$$$
