
     RDKit          3D

 32 36  0  0  0  0  0  0  0  0999 V2000
   -5.4003   -1.6327   11.0985 C   0  0  0  0  0  0  0  0  0  0  0  0
   -4.0849   -2.0916   10.5668 C   0  0  0  0  0  0  0  0  0  0  0  0
   -3.8376   -3.5758   10.7913 C   0  0  0  0  0  0  0  0  0  0  0  0
   -2.7961   -4.1608    9.9152 C   0  0  0  0  0  0  0  0  0  0  0  0
   -1.6105   -3.4220    9.6428 N   0  0  0  0  0  0  0  0  0  0  0  0
   -0.9050   -2.3282   10.2141 C   0  0  0  0  0  0  0  0  0  0  0  0
   -1.7673   -1.0957   10.2976 C   0  0  0  0  0  0  0  0  0  0  0  0
   -2.9412   -1.3583   11.1047 N   0  0  0  0  0  0  0  0  0  0  0  0
   -2.9516   -0.9118   12.4387 C   0  0  0  0  0  0  0  0  0  0  0  0
   -3.7158   -1.4604   13.2562 O   0  0  0  0  0  0  0  0  0  0  0  0
   -2.0946    0.1748   12.8978 C   0  0  0  0  0  0  0  0  0  0  0  0
   -2.3858    1.4841   12.4791 C   0  0  0  0  0  0  0  0  0  0  0  0
   -1.6123    2.5524   12.8555 C   0  0  0  0  0  0  0  0  0  0  0  0
   -0.5242    2.3163   13.6678 C   0  0  0  0  0  0  0  0  0  0  0  0
   -0.1896    1.0602   14.1106 C   0  0  0  0  0  0  0  0  0  0  0  0
   -1.0014    0.0127   13.7024 C   0  0  0  0  0  0  0  0  0  0  0  0
    0.9923    0.8359   14.9961 C   0  0  0  0  0  0  0  0  0  0  0  0
   -3.5380    1.6851   11.6815 N   0  0  0  0  0  0  0  0  0  0  0  0
   -3.5822    1.9778   10.4091 N   0  0  0  0  0  0  0  0  0  0  0  0
   -4.8704    2.0792    9.9974 C   0  0  0  0  0  0  0  0  0  0  0  0
   -5.6407    1.8286   11.1055 C   0  0  0  0  0  0  0  0  0  0  0  0
   -4.8027    1.5907   12.1222 N   0  0  0  0  0  0  0  0  0  0  0  0
   -0.9218   -3.9696    8.4924 C   0  0  0  0  0  0  0  0  0  0  0  0
    0.1836   -3.5007    7.9505 N   0  0  0  0  0  0  0  0  0  0  0  0
    0.5206   -4.2891    6.8844 C   0  0  0  0  0  0  0  0  0  0  0  0
   -0.4545   -5.2536    6.8315 C   0  0  0  0  0  0  0  0  0  0  0  0
   -1.2984   -5.0223    7.8143 O   0  0  0  0  0  0  0  0  0  0  0  0
   -0.3915   -6.2122    5.8487 C   0  0  0  0  0  0  0  0  0  0  0  0
    0.6183   -6.2060    4.9425 C   0  0  0  0  0  0  0  0  0  0  0  0
    1.6246   -5.2480    4.9584 C   0  0  0  0  0  0  0  0  0  0  0  0
    1.5344   -4.2948    5.9613 C   0  0  0  0  0  0  0  0  0  0  0  0
    2.9240   -5.2570    3.7797 Cl  0  0  0  0  0  0  0  0  0  0  0  0
  1  2  1  0
  2  3  1  0
  3  4  1  0
  4  5  1  0
  5  6  1  0
  6  7  1  0
  7  8  1  0
  8  9  1  0
  9 10  2  0
  9 11  1  0
 11 12  1  0
 12 13  2  0
 13 14  1  0
 14 15  2  0
 15 16  1  0
 15 17  1  0
 12 18  1  0
 18 19  1  0
 19 20  2  0
 20 21  1  0
 21 22  2  0
  5 23  1  0
 23 24  2  0
 24 25  1  0
 25 26  2  0
 26 27  1  0
 26 28  1  0
 28 29  2  0
 29 30  1  0
 30 31  2  0
 30 32  1  0
  8  2  1  0
 16 11  2  0
 22 18  1  0
 27 23  1  0
 31 25  1  0
M  END
$$$$
