
     RDKit          3D

 32 36  0  0  0  0  0  0  0  0999 V2000
    0.0093   -1.4846    6.4311 C   0  0  0  0  0  0  0  0  0  0  0  0
   -0.6930   -1.3502    7.7396 C   0  0  0  0  0  0  0  0  0  0  0  0
   -0.0261   -0.3508    8.6727 C   0  0  0  0  0  0  0  0  0  0  0  0
   -0.9000    0.1463    9.7607 C   0  0  0  0  0  0  0  0  0  0  0  0
   -1.7754   -0.7565   10.4270 N   0  0  0  0  0  0  0  0  0  0  0  0
   -1.8936   -2.1622   10.6016 C   0  0  0  0  0  0  0  0  0  0  0  0
   -2.0085   -2.8769    9.2804 C   0  0  0  0  0  0  0  0  0  0  0  0
   -0.8426   -2.6108    8.4629 N   0  0  0  0  0  0  0  0  0  0  0  0
    0.1670   -3.5883    8.3962 C   0  0  0  0  0  0  0  0  0  0  0  0
    0.9092   -3.7623    9.3821 O   0  0  0  0  0  0  0  0  0  0  0  0
    0.3739   -4.4074    7.2077 C   0  0  0  0  0  0  0  0  0  0  0  0
   -0.2694   -5.6541    7.1296 C   0  0  0  0  0  0  0  0  0  0  0  0
   -0.1058   -6.4858    6.0513 C   0  0  0  0  0  0  0  0  0  0  0  0
    0.7150   -6.0701    5.0252 C   0  0  0  0  0  0  0  0  0  0  0  0
    1.3693   -4.8629    5.0432 C   0  0  0  0  0  0  0  0  0  0  0  0
    1.1728   -4.0579    6.1549 C   0  0  0  0  0  0  0  0  0  0  0  0
    2.2476   -4.4363    3.9126 C   0  0  0  0  0  0  0  0  0  0  0  0
   -1.1372   -6.0206    8.1864 N   0  0  0  0  0  0  0  0  0  0  0  0
   -0.8048   -6.4429    9.3771 N   0  0  0  0  0  0  0  0  0  0  0  0
   -1.9169   -6.6818   10.1156 C   0  0  0  0  0  0  0  0  0  0  0  0
   -2.9808   -6.3790    9.3029 C   0  0  0  0  0  0  0  0  0  0  0  0
   -2.4778   -5.9774    8.1289 N   0  0  0  0  0  0  0  0  0  0  0  0
   -2.7953   -0.0322   11.1569 C   0  0  0  0  0  0  0  0  0  0  0  0
   -4.0980   -0.1512   11.0003 N   0  0  0  0  0  0  0  0  0  0  0  0
   -4.7258    0.6976   11.8703 C   0  0  0  0  0  0  0  0  0  0  0  0
   -3.7123    1.3245   12.5513 C   0  0  0  0  0  0  0  0  0  0  0  0
   -2.5723    0.8561   12.0902 O   0  0  0  0  0  0  0  0  0  0  0  0
   -4.0302    2.2530   13.5134 C   0  0  0  0  0  0  0  0  0  0  0  0
   -5.3261    2.5478   13.7864 C   0  0  0  0  0  0  0  0  0  0  0  0
   -6.3826    1.9387   13.1204 C   0  0  0  0  0  0  0  0  0  0  0  0
   -6.0308    1.0065   12.1562 C   0  0  0  0  0  0  0  0  0  0  0  0
   -8.0525    2.3309   13.4883 Cl  0  0  0  0  0  0  0  0  0  0  0  0
  1  2  1  0
  2  3  1  0
  3  4  1  0
  4  5  1  0
  5  6  1  0
  6  7  1  0
  7  8  1  0
  8  9  1  0
  9 10  2  0
  9 11  1  0
 11 12  1  0
 12 13  2  0
 13 14  1  0
 14 15  2  0
 15 16  1  0
 15 17  1  0
 12 18  1  0
 18 19  1  0
 19 20  2  0
 20 21  1  0
 21 22  2  0
  5 23  1  0
 23 24  2  0
 24 25  1  0
 25 26  2  0
 26 27  1  0
 26 28  1  0
 28 29  2  0
 29 30  1  0
 30 31  2  0
 30 32  1  0
  8  2  1  0
 16 11  2  0
 22 18  1  0
 27 23  1  0
 31 25  1  0
M  END
$$$$
