
     RDKit          3D

 32 36  0  0  0  0  0  0  0  0999 V2000
   -2.2009   -6.3786    9.1589 C   0  0  0  0  0  0  0  0  0  0  0  0
   -2.3874   -4.9423    9.5134 C   0  0  0  0  0  0  0  0  0  0  0  0
   -3.5753   -4.3050    8.8082 C   0  0  0  0  0  0  0  0  0  0  0  0
   -4.0675   -3.0609    9.4441 C   0  0  0  0  0  0  0  0  0  0  0  0
   -3.1341   -2.1145    9.9527 N   0  0  0  0  0  0  0  0  0  0  0  0
   -1.7566   -1.8083    9.7820 C   0  0  0  0  0  0  0  0  0  0  0  0
   -0.8816   -2.9900   10.1101 C   0  0  0  0  0  0  0  0  0  0  0  0
   -1.2129   -4.1122    9.2561 N   0  0  0  0  0  0  0  0  0  0  0  0
   -0.3889   -4.3774    8.1472 C   0  0  0  0  0  0  0  0  0  0  0  0
   -0.5056   -5.4656    7.5509 O   0  0  0  0  0  0  0  0  0  0  0  0
    0.6001   -3.4176    7.6707 C   0  0  0  0  0  0  0  0  0  0  0  0
    1.6597   -3.0643    8.5232 C   0  0  0  0  0  0  0  0  0  0  0  0
    2.6153   -2.1541    8.1496 C   0  0  0  0  0  0  0  0  0  0  0  0
    2.5180   -1.5814    6.8999 C   0  0  0  0  0  0  0  0  0  0  0  0
    1.5071   -1.8870    6.0221 C   0  0  0  0  0  0  0  0  0  0  0  0
    0.5649   -2.8119    6.4458 C   0  0  0  0  0  0  0  0  0  0  0  0
    1.4315   -1.2547    4.6708 C   0  0  0  0  0  0  0  0  0  0  0  0
    1.7441   -3.7102    9.7801 N   0  0  0  0  0  0  0  0  0  0  0  0
    2.7923   -4.2812   10.3110 N   0  0  0  0  0  0  0  0  0  0  0  0
    2.4838   -4.7799   11.5339 C   0  0  0  0  0  0  0  0  0  0  0  0
    1.1597   -4.4818   11.7388 C   0  0  0  0  0  0  0  0  0  0  0  0
    0.7303   -3.8281   10.6523 N   0  0  0  0  0  0  0  0  0  0  0  0
   -3.7864   -1.1913   10.8580 C   0  0  0  0  0  0  0  0  0  0  0  0
   -3.7411    0.1239   10.7954 N   0  0  0  0  0  0  0  0  0  0  0  0
   -4.4821    0.6397   11.8232 C   0  0  0  0  0  0  0  0  0  0  0  0
   -4.9688   -0.4532   12.4959 C   0  0  0  0  0  0  0  0  0  0  0  0
   -4.5257   -1.5295   11.8822 O   0  0  0  0  0  0  0  0  0  0  0  0
   -5.7650   -0.2570   13.5988 C   0  0  0  0  0  0  0  0  0  0  0  0
   -6.0656    0.9977   14.0186 C   0  0  0  0  0  0  0  0  0  0  0  0
   -5.5933    2.1314   13.3686 C   0  0  0  0  0  0  0  0  0  0  0  0
   -4.7933    1.9018   12.2597 C   0  0  0  0  0  0  0  0  0  0  0  0
   -5.9940    3.7464   13.9245 Cl  0  0  0  0  0  0  0  0  0  0  0  0
  1  2  1  0
  2  3  1  0
  3  4  1  0
  4  5  1  0
  5  6  1  0
  6  7  1  0
  7  8  1  0
  8  9  1  0
  9 10  2  0
  9 11  1  0
 11 12  1  0
 12 13  2  0
 13 14  1  0
 14 15  2  0
 15 16  1  0
 15 17  1  0
 12 18  1  0
 18 19  1  0
 19 20  2  0
 20 21  1  0
 21 22  2  0
  5 23  1  0
 23 24  2  0
 24 25  1  0
 25 26  2  0
 26 27  1  0
 26 28  1  0
 28 29  2  0
 29 30  1  0
 30 31  2  0
 30 32  1  0
  8  2  1  0
 16 11  2  0
 22 18  1  0
 27 23  1  0
 31 25  1  0
M  END
$$$$
