
     RDKit          3D

 32 36  0  0  0  0  0  0  0  0999 V2000
   -0.6591   -1.7968    6.1683 C   0  0  0  0  0  0  0  0  0  0  0  0
   -1.4393   -1.7026    7.4356 C   0  0  0  0  0  0  0  0  0  0  0  0
   -0.5669   -1.4340    8.6526 C   0  0  0  0  0  0  0  0  0  0  0  0
   -1.2992   -0.8951    9.8221 C   0  0  0  0  0  0  0  0  0  0  0  0
   -2.5838   -1.4143   10.1473 N   0  0  0  0  0  0  0  0  0  0  0  0
   -3.3424   -2.5823    9.8637 C   0  0  0  0  0  0  0  0  0  0  0  0
   -3.5368   -2.7704    8.3817 C   0  0  0  0  0  0  0  0  0  0  0  0
   -2.2543   -2.8820    7.7175 N   0  0  0  0  0  0  0  0  0  0  0  0
   -1.7899   -4.1627    7.3666 C   0  0  0  0  0  0  0  0  0  0  0  0
   -2.5866   -5.1210    7.3770 O   0  0  0  0  0  0  0  0  0  0  0  0
   -0.4026   -4.4064    6.9894 C   0  0  0  0  0  0  0  0  0  0  0  0
    0.3846   -5.2274    7.8144 C   0  0  0  0  0  0  0  0  0  0  0  0
    1.7020   -5.4847    7.5325 C   0  0  0  0  0  0  0  0  0  0  0  0
    2.2514   -4.9148    6.4044 C   0  0  0  0  0  0  0  0  0  0  0  0
    1.5332   -4.1053    5.5591 C   0  0  0  0  0  0  0  0  0  0  0  0
    0.2058   -3.8743    5.8869 C   0  0  0  0  0  0  0  0  0  0  0  0
    2.1543   -3.5068    4.3395 C   0  0  0  0  0  0  0  0  0  0  0  0
   -0.2335   -5.8265    8.9383 N   0  0  0  0  0  0  0  0  0  0  0  0
   -0.8263   -6.9894    8.9929 N   0  0  0  0  0  0  0  0  0  0  0  0
   -1.2849   -7.2217   10.2479 C   0  0  0  0  0  0  0  0  0  0  0  0
   -0.9380   -6.1175   10.9859 C   0  0  0  0  0  0  0  0  0  0  0  0
   -0.2965   -5.2791   10.1625 N   0  0  0  0  0  0  0  0  0  0  0  0
   -3.2826   -0.5192   11.0463 C   0  0  0  0  0  0  0  0  0  0  0  0
   -4.1297    0.4281   10.6993 N   0  0  0  0  0  0  0  0  0  0  0  0
   -4.5777    1.0545   11.8300 C   0  0  0  0  0  0  0  0  0  0  0  0
   -3.9428    0.4170   12.8665 C   0  0  0  0  0  0  0  0  0  0  0  0
   -3.1759   -0.5191   12.3495 O   0  0  0  0  0  0  0  0  0  0  0  0
   -4.1920    0.8272   14.1543 C   0  0  0  0  0  0  0  0  0  0  0  0
   -5.0516    1.8479   14.3993 C   0  0  0  0  0  0  0  0  0  0  0  0
   -5.7141    2.5216   13.3805 C   0  0  0  0  0  0  0  0  0  0  0  0
   -5.4430    2.0852   12.0927 C   0  0  0  0  0  0  0  0  0  0  0  0
   -6.8241    3.8381   13.7163 Cl  0  0  0  0  0  0  0  0  0  0  0  0
  1  2  1  0
  2  3  1  0
  3  4  1  0
  4  5  1  0
  5  6  1  0
  6  7  1  0
  7  8  1  0
  8  9  1  0
  9 10  2  0
  9 11  1  0
 11 12  1  0
 12 13  2  0
 13 14  1  0
 14 15  2  0
 15 16  1  0
 15 17  1  0
 12 18  1  0
 18 19  1  0
 19 20  2  0
 20 21  1  0
 21 22  2  0
  5 23  1  0
 23 24  2  0
 24 25  1  0
 25 26  2  0
 26 27  1  0
 26 28  1  0
 28 29  2  0
 29 30  1  0
 30 31  2  0
 30 32  1  0
  8  2  1  0
 16 11  2  0
 22 18  1  0
 27 23  1  0
 31 25  1  0
M  END
$$$$
