
     RDKit          3D

 32 36  0  0  0  0  0  0  0  0999 V2000
   -4.4485    3.4103    6.3772 C   0  0  0  0  0  0  0  0  0  0  0  0
   -3.4137    3.4545    7.4397 C   0  0  0  0  0  0  0  0  0  0  0  0
   -3.7011    3.3169    8.7826 C   0  0  0  0  0  0  0  0  0  0  0  0
   -2.7256    3.3602    9.7615 C   0  0  0  0  0  0  0  0  0  0  0  0
   -1.4001    3.5497    9.3847 C   0  0  0  0  0  0  0  0  0  0  0  0
   -1.0913    3.6889    8.0547 C   0  0  0  0  0  0  0  0  0  0  0  0
   -2.0916    3.6409    7.0971 C   0  0  0  0  0  0  0  0  0  0  0  0
    0.2879    3.8925    7.5767 C   0  0  0  0  0  0  0  0  0  0  0  0
    0.4336    4.5312    6.5100 O   0  0  0  0  0  0  0  0  0  0  0  0
    1.4032    3.3854    8.2964 N   0  0  0  0  0  0  0  0  0  0  0  0
    1.0987    2.9114    9.6114 C   0  0  0  0  0  0  0  0  0  0  0  0
    2.0574    1.8119   10.0093 C   0  0  0  0  0  0  0  0  0  0  0  0
    3.4156    2.2871   10.1918 N   0  0  0  0  0  0  0  0  0  0  0  0
    4.1632    3.4015    9.7228 C   0  0  0  0  0  0  0  0  0  0  0  0
    3.7361    4.0658    8.4905 C   0  0  0  0  0  0  0  0  0  0  0  0
    2.6966    3.3900    7.6683 C   0  0  1  0  0  0  0  0  0  0  0  0
    3.1196    2.0167    7.2035 C   0  0  0  0  0  0  0  0  0  0  0  0
    4.1787    1.4163   11.0548 C   0  0  0  0  0  0  0  0  0  0  0  0
    5.4607    1.4966   11.3503 O   0  0  0  0  0  0  0  0  0  0  0  0
    5.8477    0.5649   12.1546 C   0  0  0  0  0  0  0  0  0  0  0  0
    4.7589   -0.2143   12.4356 C   0  0  0  0  0  0  0  0  0  0  0  0
    3.7426    0.3325   11.7446 N   0  0  0  0  0  0  0  0  0  0  0  0
    4.9249   -1.2842   13.2820 C   0  0  0  0  0  0  0  0  0  0  0  0
    6.1417   -1.5946   13.8516 C   0  0  0  0  0  0  0  0  0  0  0  0
    7.2382   -0.8019   13.5627 C   0  0  0  0  0  0  0  0  0  0  0  0
    7.0846    0.2633   12.7232 C   0  0  0  0  0  0  0  0  0  0  0  0
    6.3476   -2.9489   14.9219 Cl  0  0  0  0  0  0  0  0  0  0  0  0
   -0.3868    3.5978   10.3606 N   0  0  0  0  0  0  0  0  0  0  0  0
    0.0878    4.7065   10.8965 N   0  0  0  0  0  0  0  0  0  0  0  0
    1.0484    4.4064   11.7964 C   0  0  0  0  0  0  0  0  0  0  0  0
    1.1559    3.0509   11.8012 C   0  0  0  0  0  0  0  0  0  0  0  0
    0.2542    2.5776   10.9015 N   0  0  0  0  0  0  0  0  0  0  0  0
  1  2  1  0
  2  3  2  0
  3  4  1  0
  4  5  2  0
  5  6  1  0
  6  7  2  0
  6  8  1  0
  8  9  2  0
  8 10  1  0
 10 11  1  0
 11 12  1  0
 12 13  1  0
 13 14  1  0
 14 15  1  0
 15 16  1  0
 16 17  1  1
 13 18  1  0
 18 19  1  0
 19 20  1  0
 20 21  2  0
 21 22  1  0
 21 23  1  0
 23 24  2  0
 24 25  1  0
 25 26  2  0
 24 27  1  0
  5 28  1  0
 28 29  1  0
 29 30  2  0
 30 31  1  0
 31 32  2  0
  7  2  1  0
 16 10  1  0
 22 18  2  0
 32 28  1  0
 26 20  1  0
M  END
$$$$
