
     RDKit          3D

 32 36  0  0  0  0  0  0  0  0999 V2000
   -1.7145   -1.2109    6.3574 C   0  0  0  0  0  0  0  0  0  0  0  0
   -1.7334    0.0351    7.1631 C   0  0  0  0  0  0  0  0  0  0  0  0
   -2.8051    0.4145    7.9458 C   0  0  0  0  0  0  0  0  0  0  0  0
   -2.8080    1.5789    8.6913 C   0  0  0  0  0  0  0  0  0  0  0  0
   -1.6896    2.4052    8.6555 C   0  0  0  0  0  0  0  0  0  0  0  0
   -0.6123    2.0477    7.8839 C   0  0  0  0  0  0  0  0  0  0  0  0
   -0.6397    0.8741    7.1478 C   0  0  0  0  0  0  0  0  0  0  0  0
    0.6078    2.8694    7.7940 C   0  0  0  0  0  0  0  0  0  0  0  0
    0.6406    3.7462    6.9012 O   0  0  0  0  0  0  0  0  0  0  0  0
    1.6990    2.6739    8.6827 N   0  0  0  0  0  0  0  0  0  0  0  0
    1.5046    1.6343    9.6461 C   0  0  0  0  0  0  0  0  0  0  0  0
    2.8316    1.0224   10.0348 C   0  0  0  0  0  0  0  0  0  0  0  0
    3.6776    1.9366   10.7782 N   0  0  0  0  0  0  0  0  0  0  0  0
    3.7703    3.3501   10.8975 C   0  0  0  0  0  0  0  0  0  0  0  0
    3.2428    4.1828    9.8156 C   0  0  0  0  0  0  0  0  0  0  0  0
    2.8645    3.5050    8.5465 C   0  0  1  0  0  0  0  0  0  0  0  0
    4.0219    2.7785    7.9035 C   0  0  0  0  0  0  0  0  0  0  0  0
    4.6500    1.2354   11.5831 C   0  0  0  0  0  0  0  0  0  0  0  0
    4.6030    0.9985   12.8789 O   0  0  0  0  0  0  0  0  0  0  0  0
    5.6299    0.3441   13.3051 C   0  0  0  0  0  0  0  0  0  0  0  0
    6.4444    0.1116   12.2308 C   0  0  0  0  0  0  0  0  0  0  0  0
    5.8168    0.6717   11.1812 N   0  0  0  0  0  0  0  0  0  0  0  0
    7.6150   -0.5778   12.4382 C   0  0  0  0  0  0  0  0  0  0  0  0
    7.9913   -1.0385   13.6823 C   0  0  0  0  0  0  0  0  0  0  0  0
    7.1623   -0.7995   14.7640 C   0  0  0  0  0  0  0  0  0  0  0  0
    5.9973   -0.1157   14.5692 C   0  0  0  0  0  0  0  0  0  0  0  0
    9.4729   -1.9103   13.9406 Cl  0  0  0  0  0  0  0  0  0  0  0  0
   -1.6657    3.5966    9.4047 N   0  0  0  0  0  0  0  0  0  0  0  0
   -1.3359    3.6754   10.6802 N   0  0  0  0  0  0  0  0  0  0  0  0
   -1.4146    4.9573   11.0961 C   0  0  0  0  0  0  0  0  0  0  0  0
   -1.8110    5.6842   10.0174 C   0  0  0  0  0  0  0  0  0  0  0  0
   -1.9586    4.8139    8.9843 N   0  0  0  0  0  0  0  0  0  0  0  0
  1  2  1  0
  2  3  2  0
  3  4  1  0
  4  5  2  0
  5  6  1  0
  6  7  2  0
  6  8  1  0
  8  9  2  0
  8 10  1  0
 10 11  1  0
 11 12  1  0
 12 13  1  0
 13 14  1  0
 14 15  1  0
 15 16  1  0
 16 17  1  1
 13 18  1  0
 18 19  1  0
 19 20  1  0
 20 21  2  0
 21 22  1  0
 21 23  1  0
 23 24  2  0
 24 25  1  0
 25 26  2  0
 24 27  1  0
  5 28  1  0
 28 29  1  0
 29 30  2  0
 30 31  1  0
 31 32  2  0
  7  2  1  0
 16 10  1  0
 22 18  2  0
 32 28  1  0
 26 20  1  0
M  END
$$$$
