
     RDKit          3D

 32 36  0  0  0  0  0  0  0  0999 V2000
   -1.1218   -1.3363    6.7708 C   0  0  0  0  0  0  0  0  0  0  0  0
   -1.3804   -0.0355    7.4363 C   0  0  0  0  0  0  0  0  0  0  0  0
   -2.5835    0.2841    8.0325 C   0  0  0  0  0  0  0  0  0  0  0  0
   -2.8095    1.5008    8.6490 C   0  0  0  0  0  0  0  0  0  0  0  0
   -1.7882    2.4448    8.6728 C   0  0  0  0  0  0  0  0  0  0  0  0
   -0.5833    2.1484    8.0860 C   0  0  0  0  0  0  0  0  0  0  0  0
   -0.3875    0.9199    7.4758 C   0  0  0  0  0  0  0  0  0  0  0  0
    0.5463    3.0949    8.0698 C   0  0  0  0  0  0  0  0  0  0  0  0
    0.4468    4.0891    7.3157 O   0  0  0  0  0  0  0  0  0  0  0  0
    1.6979    2.8868    8.8756 N   0  0  0  0  0  0  0  0  0  0  0  0
    1.5283    1.9250    9.9210 C   0  0  0  0  0  0  0  0  0  0  0  0
    2.8462    1.2554   10.2386 C   0  0  0  0  0  0  0  0  0  0  0  0
    3.8060    2.1588   10.8441 N   0  0  0  0  0  0  0  0  0  0  0  0
    3.9912    3.5682   10.8577 C   0  0  0  0  0  0  0  0  0  0  0  0
    3.4204    4.3626    9.7691 C   0  0  0  0  0  0  0  0  0  0  0  0
    2.8935    3.6312    8.5856 C   0  0  1  0  0  0  0  0  0  0  0  0
    3.9457    2.7927    7.8996 C   0  0  0  0  0  0  0  0  0  0  0  0
    4.8027    1.4493   11.6113 C   0  0  0  0  0  0  0  0  0  0  0  0
    5.8604    1.9507   12.2173 O   0  0  0  0  0  0  0  0  0  0  0  0
    6.5617    1.0532   12.8233 C   0  0  0  0  0  0  0  0  0  0  0  0
    5.9477   -0.1528   12.6232 C   0  0  0  0  0  0  0  0  0  0  0  0
    4.8652    0.1195   11.8726 N   0  0  0  0  0  0  0  0  0  0  0  0
    6.5164   -1.2733   13.1798 C   0  0  0  0  0  0  0  0  0  0  0  0
    7.6748   -1.2216   13.9261 C   0  0  0  0  0  0  0  0  0  0  0  0
    8.2900    0.0018   14.1240 C   0  0  0  0  0  0  0  0  0  0  0  0
    7.7337    1.1211   13.5757 C   0  0  0  0  0  0  0  0  0  0  0  0
    8.3912   -2.6412   14.6284 Cl  0  0  0  0  0  0  0  0  0  0  0  0
   -1.9911    3.6917    9.2936 N   0  0  0  0  0  0  0  0  0  0  0  0
   -2.6795    4.6884    8.7698 N   0  0  0  0  0  0  0  0  0  0  0  0
   -2.6829    5.7390    9.6176 C   0  0  0  0  0  0  0  0  0  0  0  0
   -1.9611    5.3544   10.7039 C   0  0  0  0  0  0  0  0  0  0  0  0
   -1.5454    4.0812   10.4743 N   0  0  0  0  0  0  0  0  0  0  0  0
  1  2  1  0
  2  3  2  0
  3  4  1  0
  4  5  2  0
  5  6  1  0
  6  7  2  0
  6  8  1  0
  8  9  2  0
  8 10  1  0
 10 11  1  0
 11 12  1  0
 12 13  1  0
 13 14  1  0
 14 15  1  0
 15 16  1  0
 16 17  1  1
 13 18  1  0
 18 19  1  0
 19 20  1  0
 20 21  2  0
 21 22  1  0
 21 23  1  0
 23 24  2  0
 24 25  1  0
 25 26  2  0
 24 27  1  0
  5 28  1  0
 28 29  1  0
 29 30  2  0
 30 31  1  0
 31 32  2  0
  7  2  1  0
 16 10  1  0
 22 18  2  0
 32 28  1  0
 26 20  1  0
M  END
$$$$
