
     RDKit          3D

 32 36  0  0  0  0  0  0  0  0999 V2000
   -3.2842    2.1229    5.7070 C   0  0  0  0  0  0  0  0  0  0  0  0
   -2.6238    2.7386    6.8845 C   0  0  0  0  0  0  0  0  0  0  0  0
   -3.2692    2.9619    8.0839 C   0  0  0  0  0  0  0  0  0  0  0  0
   -2.6403    3.5368    9.1727 C   0  0  0  0  0  0  0  0  0  0  0  0
   -1.3041    3.9072    9.0616 C   0  0  0  0  0  0  0  0  0  0  0  0
   -0.6424    3.6944    7.8781 C   0  0  0  0  0  0  0  0  0  0  0  0
   -1.3004    3.1160    6.8047 C   0  0  0  0  0  0  0  0  0  0  0  0
    0.7722    4.0591    7.6824 C   0  0  0  0  0  0  0  0  0  0  0  0
    1.0541    4.7217    6.6586 O   0  0  0  0  0  0  0  0  0  0  0  0
    1.7717    3.6745    8.6163 N   0  0  0  0  0  0  0  0  0  0  0  0
    1.5295    2.4241    9.2678 C   0  0  0  0  0  0  0  0  0  0  0  0
    2.8373    1.7659    9.6458 C   0  0  0  0  0  0  0  0  0  0  0  0
    3.5521    2.4864   10.6821 N   0  0  0  0  0  0  0  0  0  0  0  0
    3.5595    3.8278   11.1525 C   0  0  0  0  0  0  0  0  0  0  0  0
    3.1077    4.8905   10.2532 C   0  0  0  0  0  0  0  0  0  0  0  0
    2.9011    4.5403    8.8222 C   0  0  1  0  0  0  0  0  0  0  0  0
    4.1556    4.0232    8.1592 C   0  0  0  0  0  0  0  0  0  0  0  0
    4.4683    1.6302   11.3982 C   0  0  0  0  0  0  0  0  0  0  0  0
    5.5747    1.9788   12.0241 O   0  0  0  0  0  0  0  0  0  0  0  0
    6.1768    0.9772   12.5705 C   0  0  0  0  0  0  0  0  0  0  0  0
    5.4367   -0.1424   12.3049 C   0  0  0  0  0  0  0  0  0  0  0  0
    4.3883    0.2882   11.5804 N   0  0  0  0  0  0  0  0  0  0  0  0
    5.8830   -1.3483   12.7900 C   0  0  0  0  0  0  0  0  0  0  0  0
    7.0415   -1.4650   13.5287 C   0  0  0  0  0  0  0  0  0  0  0  0
    7.7847   -0.3283   13.7932 C   0  0  0  0  0  0  0  0  0  0  0  0
    7.3506    0.8745   13.3162 C   0  0  0  0  0  0  0  0  0  0  0  0
    7.6028   -2.9923   14.1406 Cl  0  0  0  0  0  0  0  0  0  0  0  0
   -0.6392    4.4945   10.1544 N   0  0  0  0  0  0  0  0  0  0  0  0
   -1.1770    4.6914   11.3434 N   0  0  0  0  0  0  0  0  0  0  0  0
   -0.2764    5.2731   12.1638 C   0  0  0  0  0  0  0  0  0  0  0  0
    0.8581    5.4335   11.4315 C   0  0  0  0  0  0  0  0  0  0  0  0
    0.6030    4.9418   10.1906 N   0  0  0  0  0  0  0  0  0  0  0  0
  1  2  1  0
  2  3  2  0
  3  4  1  0
  4  5  2  0
  5  6  1  0
  6  7  2  0
  6  8  1  0
  8  9  2  0
  8 10  1  0
 10 11  1  0
 11 12  1  0
 12 13  1  0
 13 14  1  0
 14 15  1  0
 15 16  1  0
 16 17  1  1
 13 18  1  0
 18 19  1  0
 19 20  1  0
 20 21  2  0
 21 22  1  0
 21 23  1  0
 23 24  2  0
 24 25  1  0
 25 26  2  0
 24 27  1  0
  5 28  1  0
 28 29  1  0
 29 30  2  0
 30 31  1  0
 31 32  2  0
  7  2  1  0
 16 10  1  0
 22 18  2  0
 32 28  1  0
 26 20  1  0
M  END
$$$$
