
     RDKit          3D

 32 36  0  0  0  0  0  0  0  0999 V2000
   -2.2491   -0.4148    6.4465 C   0  0  0  0  0  0  0  0  0  0  0  0
   -2.0618    0.6945    7.4141 C   0  0  0  0  0  0  0  0  0  0  0  0
   -2.9519    0.9693    8.4325 C   0  0  0  0  0  0  0  0  0  0  0  0
   -2.7638    2.0068    9.3268 C   0  0  0  0  0  0  0  0  0  0  0  0
   -1.6346    2.8093    9.2007 C   0  0  0  0  0  0  0  0  0  0  0  0
   -0.7359    2.5542    8.1952 C   0  0  0  0  0  0  0  0  0  0  0  0
   -0.9525    1.5067    7.3145 C   0  0  0  0  0  0  0  0  0  0  0  0
    0.4830    3.3586    7.9965 C   0  0  0  0  0  0  0  0  0  0  0  0
    0.4180    4.2991    7.1731 O   0  0  0  0  0  0  0  0  0  0  0  0
    1.6796    3.0777    8.7094 N   0  0  0  0  0  0  0  0  0  0  0  0
    1.5359    2.1183    9.7609 C   0  0  0  0  0  0  0  0  0  0  0  0
    2.8335    1.3713    9.9723 C   0  0  0  0  0  0  0  0  0  0  0  0
    3.8880    2.2128   10.5049 N   0  0  0  0  0  0  0  0  0  0  0  0
    4.1552    3.6090   10.5099 C   0  0  0  0  0  0  0  0  0  0  0  0
    3.5488    4.4443    9.4722 C   0  0  0  0  0  0  0  0  0  0  0  0
    2.8902    3.7546    8.3303 C   0  0  1  0  0  0  0  0  0  0  0  0
    3.8358    2.8629    7.5612 C   0  0  0  0  0  0  0  0  0  0  0  0
    4.8983    1.4407   11.1893 C   0  0  0  0  0  0  0  0  0  0  0  0
    5.9939    0.9149   10.6788 O   0  0  0  0  0  0  0  0  0  0  0  0
    6.6973    0.2783   11.5531 C   0  0  0  0  0  0  0  0  0  0  0  0
    6.0442    0.3693   12.7517 C   0  0  0  0  0  0  0  0  0  0  0  0
    4.9377    1.0913   12.4997 N   0  0  0  0  0  0  0  0  0  0  0  0
    6.6074   -0.2388   13.8480 C   0  0  0  0  0  0  0  0  0  0  0  0
    7.7980   -0.9312   13.7793 C   0  0  0  0  0  0  0  0  0  0  0  0
    8.4526   -1.0189   12.5635 C   0  0  0  0  0  0  0  0  0  0  0  0
    7.9022   -0.4185   11.4683 C   0  0  0  0  0  0  0  0  0  0  0  0
    8.5071   -1.6991   15.1682 Cl  0  0  0  0  0  0  0  0  0  0  0  0
   -1.4181    3.8725   10.0974 N   0  0  0  0  0  0  0  0  0  0  0  0
   -1.1148    3.7287   11.3738 N   0  0  0  0  0  0  0  0  0  0  0  0
   -0.9738    4.9408   11.9512 C   0  0  0  0  0  0  0  0  0  0  0  0
   -1.2038    5.8576   10.9737 C   0  0  0  0  0  0  0  0  0  0  0  0
   -1.4765    5.1658    9.8363 N   0  0  0  0  0  0  0  0  0  0  0  0
  1  2  1  0
  2  3  2  0
  3  4  1  0
  4  5  2  0
  5  6  1  0
  6  7  2  0
  6  8  1  0
  8  9  2  0
  8 10  1  0
 10 11  1  0
 11 12  1  0
 12 13  1  0
 13 14  1  0
 14 15  1  0
 15 16  1  0
 16 17  1  1
 13 18  1  0
 18 19  1  0
 19 20  1  0
 20 21  2  0
 21 22  1  0
 21 23  1  0
 23 24  2  0
 24 25  1  0
 25 26  2  0
 24 27  1  0
  5 28  1  0
 28 29  1  0
 29 30  2  0
 30 31  1  0
 31 32  2  0
  7  2  1  0
 16 10  1  0
 22 18  2  0
 32 28  1  0
 26 20  1  0
M  END
$$$$
