
     RDKit          3D

 32 36  0  0  0  0  0  0  0  0999 V2000
   -2.7642    3.5615    4.6738 C   0  0  0  0  0  0  0  0  0  0  0  0
   -2.0921    2.9242    5.8331 C   0  0  0  0  0  0  0  0  0  0  0  0
   -2.2955    1.6084    6.1968 C   0  0  0  0  0  0  0  0  0  0  0  0
   -1.6618    1.0283    7.2801 C   0  0  0  0  0  0  0  0  0  0  0  0
   -0.7832    1.7957    8.0377 C   0  0  0  0  0  0  0  0  0  0  0  0
   -0.5658    3.1066    7.6943 C   0  0  0  0  0  0  0  0  0  0  0  0
   -1.2161    3.6594    6.6027 C   0  0  0  0  0  0  0  0  0  0  0  0
    0.3493    3.9835    8.4466 C   0  0  0  0  0  0  0  0  0  0  0  0
    0.2978    5.2092    8.1981 O   0  0  0  0  0  0  0  0  0  0  0  0
    1.2505    3.4589    9.4118 N   0  0  0  0  0  0  0  0  0  0  0  0
    1.6966    2.1254    9.1483 C   0  0  0  0  0  0  0  0  0  0  0  0
    3.0785    1.9098    9.7231 C   0  0  0  0  0  0  0  0  0  0  0  0
    3.0948    1.9278   11.1734 N   0  0  0  0  0  0  0  0  0  0  0  0
    2.2578    2.4779   12.1822 C   0  0  0  0  0  0  0  0  0  0  0  0
    1.3971    3.6112   11.8405 C   0  0  0  0  0  0  0  0  0  0  0  0
    1.6258    4.2797   10.5312 C   0  0  1  0  0  0  0  0  0  0  0  0
    3.0216    4.8402   10.3962 C   0  0  0  0  0  0  0  0  0  0  0  0
    4.2325    1.2166   11.7073 C   0  0  0  0  0  0  0  0  0  0  0  0
    5.0787    1.6276   12.6306 O   0  0  0  0  0  0  0  0  0  0  0  0
    5.9940    0.7570   12.8930 C   0  0  0  0  0  0  0  0  0  0  0  0
    5.7663   -0.3319   12.0968 C   0  0  0  0  0  0  0  0  0  0  0  0
    4.6741   -0.0225   11.3752 N   0  0  0  0  0  0  0  0  0  0  0  0
    6.6216   -1.4028   12.1979 C   0  0  0  0  0  0  0  0  0  0  0  0
    7.6916   -1.4150   13.0677 C   0  0  0  0  0  0  0  0  0  0  0  0
    7.9154   -0.3101   13.8697 C   0  0  0  0  0  0  0  0  0  0  0  0
    7.0720    0.7591   13.7774 C   0  0  0  0  0  0  0  0  0  0  0  0
    8.7713   -2.7716   13.1927 Cl  0  0  0  0  0  0  0  0  0  0  0  0
   -0.1245    1.2305    9.1458 N   0  0  0  0  0  0  0  0  0  0  0  0
    0.9816    0.5139    9.0770 N   0  0  0  0  0  0  0  0  0  0  0  0
    1.3522    0.1220   10.3146 C   0  0  0  0  0  0  0  0  0  0  0  0
    0.4229    0.6281   11.1687 C   0  0  0  0  0  0  0  0  0  0  0  0
   -0.4794    1.3102   10.4155 N   0  0  0  0  0  0  0  0  0  0  0  0
  1  2  1  0
  2  3  2  0
  3  4  1  0
  4  5  2  0
  5  6  1  0
  6  7  2  0
  6  8  1  0
  8  9  2  0
  8 10  1  0
 10 11  1  0
 11 12  1  0
 12 13  1  0
 13 14  1  0
 14 15  1  0
 15 16  1  0
 16 17  1  6
 13 18  1  0
 18 19  1  0
 19 20  1  0
 20 21  2  0
 21 22  1  0
 21 23  1  0
 23 24  2  0
 24 25  1  0
 25 26  2  0
 24 27  1  0
  5 28  1  0
 28 29  1  0
 29 30  2  0
 30 31  1  0
 31 32  2  0
  7  2  1  0
 16 10  1  0
 22 18  2  0
 32 28  1  0
 26 20  1  0
M  END
$$$$
