
     RDKit          3D

 32 36  0  0  0  0  0  0  0  0999 V2000
    0.2577   -2.1584    7.6299 C   0  0  0  0  0  0  0  0  0  0  0  0
   -0.4111   -0.8337    7.6263 C   0  0  0  0  0  0  0  0  0  0  0  0
   -1.7561   -0.6653    7.3667 C   0  0  0  0  0  0  0  0  0  0  0  0
   -2.3653    0.5758    7.3670 C   0  0  0  0  0  0  0  0  0  0  0  0
   -1.5978    1.7036    7.6389 C   0  0  0  0  0  0  0  0  0  0  0  0
   -0.2581    1.5597    7.8999 C   0  0  0  0  0  0  0  0  0  0  0  0
    0.3234    0.3021    7.8923 C   0  0  0  0  0  0  0  0  0  0  0  0
    0.6208    2.7050    8.1966 C   0  0  0  0  0  0  0  0  0  0  0  0
    0.4016    3.7686    7.5740 O   0  0  0  0  0  0  0  0  0  0  0  0
    1.6710    2.6050    9.1483 N   0  0  0  0  0  0  0  0  0  0  0  0
    1.4635    1.6191   10.1640 C   0  0  0  0  0  0  0  0  0  0  0  0
    2.7891    1.0824   10.6549 C   0  0  0  0  0  0  0  0  0  0  0  0
    3.5637    2.0711   11.3803 N   0  0  0  0  0  0  0  0  0  0  0  0
    3.6013    3.4917   11.4156 C   0  0  0  0  0  0  0  0  0  0  0  0
    3.1015    4.2369   10.2593 C   0  0  0  0  0  0  0  0  0  0  0  0
    2.8125    3.4696    9.0178 C   0  0  1  0  0  0  0  0  0  0  0  0
    4.0258    2.7496    8.4791 C   0  0  0  0  0  0  0  0  0  0  0  0
    4.5172    1.4572   12.2743 C   0  0  0  0  0  0  0  0  0  0  0  0
    4.2666    0.6853   13.3129 O   0  0  0  0  0  0  0  0  0  0  0  0
    5.3384    0.2914   13.9134 C   0  0  0  0  0  0  0  0  0  0  0  0
    6.4049    0.8274   13.2448 C   0  0  0  0  0  0  0  0  0  0  0  0
    5.8708    1.5420   12.2382 N   0  0  0  0  0  0  0  0  0  0  0  0
    7.6694    0.5457   13.7036 C   0  0  0  0  0  0  0  0  0  0  0  0
    7.8956   -0.2520   14.8055 C   0  0  0  0  0  0  0  0  0  0  0  0
    6.8119   -0.7904   15.4764 C   0  0  0  0  0  0  0  0  0  0  0  0
    5.5517   -0.5171   15.0292 C   0  0  0  0  0  0  0  0  0  0  0  0
    9.4966   -0.6060   15.3828 Cl  0  0  0  0  0  0  0  0  0  0  0  0
   -2.1923    2.9795    7.6457 N   0  0  0  0  0  0  0  0  0  0  0  0
   -2.0414    3.8836    6.6962 N   0  0  0  0  0  0  0  0  0  0  0  0
   -2.7415    4.9955    7.0059 C   0  0  0  0  0  0  0  0  0  0  0  0
   -3.3425    4.7471    8.2001 C   0  0  0  0  0  0  0  0  0  0  0  0
   -2.9836    3.4902    8.5717 N   0  0  0  0  0  0  0  0  0  0  0  0
  1  2  1  0
  2  3  2  0
  3  4  1  0
  4  5  2  0
  5  6  1  0
  6  7  2  0
  6  8  1  0
  8  9  2  0
  8 10  1  0
 10 11  1  0
 11 12  1  0
 12 13  1  0
 13 14  1  0
 14 15  1  0
 15 16  1  0
 16 17  1  1
 13 18  1  0
 18 19  1  0
 19 20  1  0
 20 21  2  0
 21 22  1  0
 21 23  1  0
 23 24  2  0
 24 25  1  0
 25 26  2  0
 24 27  1  0
  5 28  1  0
 28 29  1  0
 29 30  2  0
 30 31  1  0
 31 32  2  0
  7  2  1  0
 16 10  1  0
 22 18  2  0
 32 28  1  0
 26 20  1  0
M  END
$$$$
