
     RDKit          3D

 32 36  0  0  0  0  0  0  0  0999 V2000
   -2.2718   -2.0190    8.5519 C   0  0  0  0  0  0  0  0  0  0  0  0
   -1.7700   -0.7456    7.9785 C   0  0  0  0  0  0  0  0  0  0  0  0
   -1.7200   -0.4936    6.6224 C   0  0  0  0  0  0  0  0  0  0  0  0
   -1.2496    0.6982    6.1030 C   0  0  0  0  0  0  0  0  0  0  0  0
   -0.8078    1.6867    6.9762 C   0  0  0  0  0  0  0  0  0  0  0  0
   -0.8484    1.4577    8.3289 C   0  0  0  0  0  0  0  0  0  0  0  0
   -1.3254    0.2526    8.8188 C   0  0  0  0  0  0  0  0  0  0  0  0
   -0.3986    2.4544    9.3170 C   0  0  0  0  0  0  0  0  0  0  0  0
   -1.1677    3.4142    9.5499 O   0  0  0  0  0  0  0  0  0  0  0  0
    0.8541    2.3302    9.9760 N   0  0  0  0  0  0  0  0  0  0  0  0
    1.2917    0.9829   10.1759 C   0  0  0  0  0  0  0  0  0  0  0  0
    2.8023    0.9179   10.1954 C   0  0  0  0  0  0  0  0  0  0  0  0
    3.3797    1.5733   11.3534 N   0  0  0  0  0  0  0  0  0  0  0  0
    2.9514    2.5865   12.2537 C   0  0  0  0  0  0  0  0  0  0  0  0
    1.9183    3.5258   11.8148 C   0  0  0  0  0  0  0  0  0  0  0  0
    1.5524    3.5229   10.3728 C   0  0  1  0  0  0  0  0  0  0  0  0
    2.7231    3.8356    9.4714 C   0  0  0  0  0  0  0  0  0  0  0  0
    4.6997    1.0703   11.6535 C   0  0  0  0  0  0  0  0  0  0  0  0
    5.4609    0.3041   10.8979 O   0  0  0  0  0  0  0  0  0  0  0  0
    6.5928    0.0239   11.4501 C   0  0  0  0  0  0  0  0  0  0  0  0
    6.6173    0.6382   12.6722 C   0  0  0  0  0  0  0  0  0  0  0  0
    5.4378    1.2768   12.7729 N   0  0  0  0  0  0  0  0  0  0  0  0
    7.7354    0.4837   13.4563 C   0  0  0  0  0  0  0  0  0  0  0  0
    8.8227   -0.2632   13.0547 C   0  0  0  0  0  0  0  0  0  0  0  0
    8.7904   -0.8814   11.8173 C   0  0  0  0  0  0  0  0  0  0  0  0
    7.6849   -0.7346   11.0305 C   0  0  0  0  0  0  0  0  0  0  0  0
   10.2353   -0.4563   14.0494 Cl  0  0  0  0  0  0  0  0  0  0  0  0
   -0.3239    2.9096    6.4746 N   0  0  0  0  0  0  0  0  0  0  0  0
   -0.9192    4.0763    6.6368 N   0  0  0  0  0  0  0  0  0  0  0  0
   -0.1989    5.0465    6.0348 C   0  0  0  0  0  0  0  0  0  0  0  0
    0.8821    4.4324    5.4840 C   0  0  0  0  0  0  0  0  0  0  0  0
    0.7773    3.1087    5.7730 N   0  0  0  0  0  0  0  0  0  0  0  0
  1  2  1  0
  2  3  2  0
  3  4  1  0
  4  5  2  0
  5  6  1  0
  6  7  2  0
  6  8  1  0
  8  9  2  0
  8 10  1  0
 10 11  1  0
 11 12  1  0
 12 13  1  0
 13 14  1  0
 14 15  1  0
 15 16  1  0
 16 17  1  6
 13 18  1  0
 18 19  1  0
 19 20  1  0
 20 21  2  0
 21 22  1  0
 21 23  1  0
 23 24  2  0
 24 25  1  0
 25 26  2  0
 24 27  1  0
  5 28  1  0
 28 29  1  0
 29 30  2  0
 30 31  1  0
 31 32  2  0
  7  2  1  0
 16 10  1  0
 22 18  2  0
 32 28  1  0
 26 20  1  0
M  END
$$$$
