
     RDKit          3D

 32 36  0  0  0  0  0  0  0  0999 V2000
   -3.2240    2.5705    5.8323 C   0  0  0  0  0  0  0  0  0  0  0  0
   -2.1984    3.3888    6.5253 C   0  0  0  0  0  0  0  0  0  0  0  0
   -1.6153    4.5066    5.9636 C   0  0  0  0  0  0  0  0  0  0  0  0
   -0.6605    5.2594    6.6219 C   0  0  0  0  0  0  0  0  0  0  0  0
   -0.2677    4.8806    7.9014 C   0  0  0  0  0  0  0  0  0  0  0  0
   -0.8344    3.7723    8.4796 C   0  0  0  0  0  0  0  0  0  0  0  0
   -1.7890    3.0383    7.7941 C   0  0  0  0  0  0  0  0  0  0  0  0
   -0.4712    3.3077    9.8303 C   0  0  0  0  0  0  0  0  0  0  0  0
   -1.2674    3.5743   10.7586 O   0  0  0  0  0  0  0  0  0  0  0  0
    0.7310    2.5883   10.0672 N   0  0  0  0  0  0  0  0  0  0  0  0
    1.4517    2.9987   11.2329 C   0  0  0  0  0  0  0  0  0  0  0  0
    2.2365    1.8383   11.8018 C   0  0  0  0  0  0  0  0  0  0  0  0
    3.3219    1.4144   10.9379 N   0  0  0  0  0  0  0  0  0  0  0  0
    3.6028    1.5224    9.5486 C   0  0  0  0  0  0  0  0  0  0  0  0
    2.4890    1.7183    8.6195 C   0  0  0  0  0  0  0  0  0  0  0  0
    1.1102    1.5468    9.1512 C   0  0  1  0  0  0  0  0  0  0  0  0
    0.8667    0.1657    9.7116 C   0  0  0  0  0  0  0  0  0  0  0  0
    4.3543    0.7212   11.6721 C   0  0  0  0  0  0  0  0  0  0  0  0
    5.0586    1.1713   12.6913 O   0  0  0  0  0  0  0  0  0  0  0  0
    5.9093    0.3071   13.1317 C   0  0  0  0  0  0  0  0  0  0  0  0
    5.7858   -0.8192   12.3649 C   0  0  0  0  0  0  0  0  0  0  0  0
    4.8199   -0.5373   11.4722 N   0  0  0  0  0  0  0  0  0  0  0  0
    6.5981   -1.8913   12.6469 C   0  0  0  0  0  0  0  0  0  0  0  0
    7.5246   -1.8685   13.6679 C   0  0  0  0  0  0  0  0  0  0  0  0
    7.6437   -0.7259   14.4390 C   0  0  0  0  0  0  0  0  0  0  0  0
    6.8419    0.3447   14.1676 C   0  0  0  0  0  0  0  0  0  0  0  0
    8.5504   -3.2267   14.0216 Cl  0  0  0  0  0  0  0  0  0  0  0  0
    0.7024    5.6289    8.5946 N   0  0  0  0  0  0  0  0  0  0  0  0
    1.9574    5.7699    8.2114 N   0  0  0  0  0  0  0  0  0  0  0  0
    2.6220    6.5459    9.0938 C   0  0  0  0  0  0  0  0  0  0  0  0
    1.7220    6.8877   10.0541 C   0  0  0  0  0  0  0  0  0  0  0  0
    0.5414    6.3048    9.7178 N   0  0  0  0  0  0  0  0  0  0  0  0
  1  2  1  0
  2  3  2  0
  3  4  1  0
  4  5  2  0
  5  6  1  0
  6  7  2  0
  6  8  1  0
  8  9  2  0
  8 10  1  0
 10 11  1  0
 11 12  1  0
 12 13  1  0
 13 14  1  0
 14 15  1  0
 15 16  1  0
 16 17  1  1
 13 18  1  0
 18 19  1  0
 19 20  1  0
 20 21  2  0
 21 22  1  0
 21 23  1  0
 23 24  2  0
 24 25  1  0
 25 26  2  0
 24 27  1  0
  5 28  1  0
 28 29  1  0
 29 30  2  0
 30 31  1  0
 31 32  2  0
  7  2  1  0
 16 10  1  0
 22 18  2  0
 32 28  1  0
 26 20  1  0
M  END
$$$$
