
     RDKit          3D

 32 36  0  0  0  0  0  0  0  0999 V2000
   -2.3116   -0.5081    7.2281 C   0  0  0  0  0  0  0  0  0  0  0  0
   -1.6121    0.7979    7.3121 C   0  0  0  0  0  0  0  0  0  0  0  0
   -1.2777    1.5503    6.2044 C   0  0  0  0  0  0  0  0  0  0  0  0
   -0.6257    2.7659    6.2987 C   0  0  0  0  0  0  0  0  0  0  0  0
   -0.2906    3.2556    7.5567 C   0  0  0  0  0  0  0  0  0  0  0  0
   -0.6135    2.5240    8.6722 C   0  0  0  0  0  0  0  0  0  0  0  0
   -1.2672    1.3090    8.5450 C   0  0  0  0  0  0  0  0  0  0  0  0
   -0.2926    2.9751   10.0382 C   0  0  0  0  0  0  0  0  0  0  0  0
   -1.0660    3.8097   10.5598 O   0  0  0  0  0  0  0  0  0  0  0  0
    0.8456    2.4831   10.7319 N   0  0  0  0  0  0  0  0  0  0  0  0
    1.5561    1.4446   10.0510 C   0  0  0  0  0  0  0  0  0  0  0  0
    3.0201    1.4745   10.4277 C   0  0  0  0  0  0  0  0  0  0  0  0
    3.2534    1.1103   11.8123 N   0  0  0  0  0  0  0  0  0  0  0  0
    2.4726    1.1191   13.0002 C   0  0  0  0  0  0  0  0  0  0  0  0
    1.3209    2.0190   13.0775 C   0  0  0  0  0  0  0  0  0  0  0  0
    1.1775    3.0474   12.0121 C   0  0  1  0  0  0  0  0  0  0  0  0
    2.3582    3.9865   11.9425 C   0  0  0  0  0  0  0  0  0  0  0  0
    4.5975    0.6259   12.0218 C   0  0  0  0  0  0  0  0  0  0  0  0
    5.5427    0.4565   11.1190 O   0  0  0  0  0  0  0  0  0  0  0  0
    6.6413    0.0061   11.6237 C   0  0  0  0  0  0  0  0  0  0  0  0
    6.4436   -0.1470   12.9687 C   0  0  0  0  0  0  0  0  0  0  0  0
    5.1749    0.2422   13.1881 N   0  0  0  0  0  0  0  0  0  0  0  0
    7.4851   -0.6202   13.7303 C   0  0  0  0  0  0  0  0  0  0  0  0
    8.7112   -0.9424   13.1877 C   0  0  0  0  0  0  0  0  0  0  0  0
    8.9036   -0.7848   11.8266 C   0  0  0  0  0  0  0  0  0  0  0  0
    7.8758   -0.3156   11.0608 C   0  0  0  0  0  0  0  0  0  0  0  0
   10.0263   -1.5406   14.1544 Cl  0  0  0  0  0  0  0  0  0  0  0  0
    0.3734    4.4904    7.6818 N   0  0  0  0  0  0  0  0  0  0  0  0
    1.6832    4.6466    7.6394 N   0  0  0  0  0  0  0  0  0  0  0  0
    1.9948    5.9515    7.7901 C   0  0  0  0  0  0  0  0  0  0  0  0
    0.8141    6.6114    7.9300 C   0  0  0  0  0  0  0  0  0  0  0  0
   -0.1727    5.6799    7.8587 N   0  0  0  0  0  0  0  0  0  0  0  0
  1  2  1  0
  2  3  2  0
  3  4  1  0
  4  5  2  0
  5  6  1  0
  6  7  2  0
  6  8  1  0
  8  9  2  0
  8 10  1  0
 10 11  1  0
 11 12  1  0
 12 13  1  0
 13 14  1  0
 14 15  1  0
 15 16  1  0
 16 17  1  6
 13 18  1  0
 18 19  1  0
 19 20  1  0
 20 21  2  0
 21 22  1  0
 21 23  1  0
 23 24  2  0
 24 25  1  0
 25 26  2  0
 24 27  1  0
  5 28  1  0
 28 29  1  0
 29 30  2  0
 30 31  1  0
 31 32  2  0
  7  2  1  0
 16 10  1  0
 22 18  2  0
 32 28  1  0
 26 20  1  0
M  END
$$$$
