
     RDKit          3D

 32 36  0  0  0  0  0  0  0  0999 V2000
   -1.8625    2.6538    4.6339 C   0  0  0  0  0  0  0  0  0  0  0  0
   -1.1359    3.3111    5.7483 C   0  0  0  0  0  0  0  0  0  0  0  0
   -0.3501    4.4335    5.5819 C   0  0  0  0  0  0  0  0  0  0  0  0
    0.3212    5.0351    6.6304 C   0  0  0  0  0  0  0  0  0  0  0  0
    0.2040    4.4926    7.9059 C   0  0  0  0  0  0  0  0  0  0  0  0
   -0.5723    3.3766    8.0945 C   0  0  0  0  0  0  0  0  0  0  0  0
   -1.2327    2.7965    7.0234 C   0  0  0  0  0  0  0  0  0  0  0  0
   -0.7460    2.7437    9.4142 C   0  0  0  0  0  0  0  0  0  0  0  0
   -1.8259    2.9554   10.0107 O   0  0  0  0  0  0  0  0  0  0  0  0
    0.2692    1.9288    9.9836 N   0  0  0  0  0  0  0  0  0  0  0  0
    1.5933    2.2189    9.5261 C   0  0  0  0  0  0  0  0  0  0  0  0
    2.6057    1.8808   10.5971 C   0  0  0  0  0  0  0  0  0  0  0  0
    2.7041    0.4559   10.8500 N   0  0  0  0  0  0  0  0  0  0  0  0
    1.8463   -0.6614   10.6590 C   0  0  0  0  0  0  0  0  0  0  0  0
    0.4032   -0.4329   10.5733 C   0  0  0  0  0  0  0  0  0  0  0  0
   -0.1031    0.9181   10.9362 C   0  0  1  0  0  0  0  0  0  0  0  0
    0.2346    1.3077   12.3557 C   0  0  0  0  0  0  0  0  0  0  0  0
    3.9767    0.0996   11.4322 C   0  0  0  0  0  0  0  0  0  0  0  0
    5.1129    0.7631   11.3530 O   0  0  0  0  0  0  0  0  0  0  0  0
    6.0764    0.1817   11.9840 C   0  0  0  0  0  0  0  0  0  0  0  0
    5.5731   -0.9632   12.5385 C   0  0  0  0  0  0  0  0  0  0  0  0
    4.2761   -0.9900   12.1830 N   0  0  0  0  0  0  0  0  0  0  0  0
    6.4215   -1.7607   13.2684 C   0  0  0  0  0  0  0  0  0  0  0  0
    7.7509   -1.4471   13.4581 C   0  0  0  0  0  0  0  0  0  0  0  0
    8.2526   -0.2875   12.8942 C   0  0  0  0  0  0  0  0  0  0  0  0
    7.4187    0.5119   12.1673 C   0  0  0  0  0  0  0  0  0  0  0  0
    8.8210   -2.4585   14.3822 Cl  0  0  0  0  0  0  0  0  0  0  0  0
    0.8766    5.0848    8.9914 N   0  0  0  0  0  0  0  0  0  0  0  0
    0.3386    5.3117   10.1750 N   0  0  0  0  0  0  0  0  0  0  0  0
    1.2476    5.8891   10.9891 C   0  0  0  0  0  0  0  0  0  0  0  0
    2.3875    6.0153   10.2585 C   0  0  0  0  0  0  0  0  0  0  0  0
    2.1271    5.5084    9.0249 N   0  0  0  0  0  0  0  0  0  0  0  0
  1  2  1  0
  2  3  2  0
  3  4  1  0
  4  5  2  0
  5  6  1  0
  6  7  2  0
  6  8  1  0
  8  9  2  0
  8 10  1  0
 10 11  1  0
 11 12  1  0
 12 13  1  0
 13 14  1  0
 14 15  1  0
 15 16  1  0
 16 17  1  1
 13 18  1  0
 18 19  1  0
 19 20  1  0
 20 21  2  0
 21 22  1  0
 21 23  1  0
 23 24  2  0
 24 25  1  0
 25 26  2  0
 24 27  1  0
  5 28  1  0
 28 29  1  0
 29 30  2  0
 30 31  1  0
 31 32  2  0
  7  2  1  0
 16 10  1  0
 22 18  2  0
 32 28  1  0
 26 20  1  0
M  END
$$$$
