
     RDKit          3D

 32 36  0  0  0  0  0  0  0  0999 V2000
   -3.0407    2.7118    5.7140 C   0  0  0  0  0  0  0  0  0  0  0  0
   -2.0615    3.5262    6.4754 C   0  0  0  0  0  0  0  0  0  0  0  0
   -1.5265    4.7066    6.0005 C   0  0  0  0  0  0  0  0  0  0  0  0
   -0.6147    5.4548    6.7219 C   0  0  0  0  0  0  0  0  0  0  0  0
   -0.2165    5.0057    7.9768 C   0  0  0  0  0  0  0  0  0  0  0  0
   -0.7356    3.8343    8.4689 C   0  0  0  0  0  0  0  0  0  0  0  0
   -1.6479    3.1068    7.7217 C   0  0  0  0  0  0  0  0  0  0  0  0
   -0.3637    3.2932    9.7884 C   0  0  0  0  0  0  0  0  0  0  0  0
   -1.2053    3.4042   10.7084 O   0  0  0  0  0  0  0  0  0  0  0  0
    0.8960    2.6727   10.0056 N   0  0  0  0  0  0  0  0  0  0  0  0
    1.3307    2.6669   11.3686 C   0  0  0  0  0  0  0  0  0  0  0  0
    2.2132    1.4681   11.6341 C   0  0  0  0  0  0  0  0  0  0  0  0
    3.4832    1.5376   10.9367 N   0  0  0  0  0  0  0  0  0  0  0  0
    3.9603    2.2128    9.7803 C   0  0  0  0  0  0  0  0  0  0  0  0
    2.9946    2.6370    8.7656 C   0  0  0  0  0  0  0  0  0  0  0  0
    1.6034    2.1227    8.8811 C   0  0  1  0  0  0  0  0  0  0  0  0
    1.5308    0.6150    8.8323 C   0  0  0  0  0  0  0  0  0  0  0  0
    4.4929    0.7272   11.5762 C   0  0  0  0  0  0  0  0  0  0  0  0
    5.5314    1.1380   12.2763 O   0  0  0  0  0  0  0  0  0  0  0  0
    6.2525    0.1643   12.7195 C   0  0  0  0  0  0  0  0  0  0  0  0
    5.6737   -1.0013   12.2973 C   0  0  0  0  0  0  0  0  0  0  0  0
    4.5902   -0.6259   11.5943 N   0  0  0  0  0  0  0  0  0  0  0  0
    6.2688   -2.1888   12.6500 C   0  0  0  0  0  0  0  0  0  0  0  0
    7.4193   -2.2428   13.4083 C   0  0  0  0  0  0  0  0  0  0  0  0
    7.9988   -1.0598   13.8314 C   0  0  0  0  0  0  0  0  0  0  0  0
    7.4160    0.1253   13.4869 C   0  0  0  0  0  0  0  0  0  0  0  0
    8.1691   -3.7470   13.8523 Cl  0  0  0  0  0  0  0  0  0  0  0  0
    0.7105    5.7476    8.7328 N   0  0  0  0  0  0  0  0  0  0  0  0
    0.4288    6.3793    9.8568 N   0  0  0  0  0  0  0  0  0  0  0  0
    1.5354    6.9922   10.3284 C   0  0  0  0  0  0  0  0  0  0  0  0
    2.5306    6.7150    9.4441 C   0  0  0  0  0  0  0  0  0  0  0  0
    1.9893    5.9421    8.4662 N   0  0  0  0  0  0  0  0  0  0  0  0
  1  2  1  0
  2  3  2  0
  3  4  1  0
  4  5  2  0
  5  6  1  0
  6  7  2  0
  6  8  1  0
  8  9  2  0
  8 10  1  0
 10 11  1  0
 11 12  1  0
 12 13  1  0
 13 14  1  0
 14 15  1  0
 15 16  1  0
 16 17  1  1
 13 18  1  0
 18 19  1  0
 19 20  1  0
 20 21  2  0
 21 22  1  0
 21 23  1  0
 23 24  2  0
 24 25  1  0
 25 26  2  0
 24 27  1  0
  5 28  1  0
 28 29  1  0
 29 30  2  0
 30 31  1  0
 31 32  2  0
  7  2  1  0
 16 10  1  0
 22 18  2  0
 32 28  1  0
 26 20  1  0
M  END
$$$$
