
     RDKit          3D

 32 36  0  0  0  0  0  0  0  0999 V2000
   -0.3091   -2.2121    6.8820 C   0  0  0  0  0  0  0  0  0  0  0  0
   -0.8637   -0.8805    7.2301 C   0  0  0  0  0  0  0  0  0  0  0  0
   -2.2049   -0.6574    7.4675 C   0  0  0  0  0  0  0  0  0  0  0  0
   -2.7069    0.5896    7.7910 C   0  0  0  0  0  0  0  0  0  0  0  0
   -1.8309    1.6662    7.8824 C   0  0  0  0  0  0  0  0  0  0  0  0
   -0.4928    1.4674    7.6504 C   0  0  0  0  0  0  0  0  0  0  0  0
   -0.0202    0.2054    7.3281 C   0  0  0  0  0  0  0  0  0  0  0  0
    0.4971    2.5565    7.7280 C   0  0  0  0  0  0  0  0  0  0  0  0
    0.3621    3.5084    6.9264 O   0  0  0  0  0  0  0  0  0  0  0  0
    1.5584    2.5261    8.6722 N   0  0  0  0  0  0  0  0  0  0  0  0
    1.4443    1.5022    9.6649 C   0  0  0  0  0  0  0  0  0  0  0  0
    2.8149    1.0717   10.1366 C   0  0  0  0  0  0  0  0  0  0  0  0
    3.5053    2.1070   10.8821 N   0  0  0  0  0  0  0  0  0  0  0  0
    3.4192    3.5242   10.9512 C   0  0  0  0  0  0  0  0  0  0  0  0
    2.8487    4.2499    9.8155 C   0  0  0  0  0  0  0  0  0  0  0  0
    2.6194    3.4898    8.5573 C   0  0  1  0  0  0  0  0  0  0  0  0
    3.8872    2.8913    7.9959 C   0  0  0  0  0  0  0  0  0  0  0  0
    4.5146    1.5577   11.7566 C   0  0  0  0  0  0  0  0  0  0  0  0
    5.5646    2.1736   12.2619 O   0  0  0  0  0  0  0  0  0  0  0  0
    6.2815    1.4065   13.0115 C   0  0  0  0  0  0  0  0  0  0  0  0
    5.6873    0.1743   13.0266 C   0  0  0  0  0  0  0  0  0  0  0  0
    4.5994    0.2947   12.2447 N   0  0  0  0  0  0  0  0  0  0  0  0
    6.2752   -0.8232   13.7669 C   0  0  0  0  0  0  0  0  0  0  0  0
    7.4336   -0.6240   14.4880 C   0  0  0  0  0  0  0  0  0  0  0  0
    8.0288    0.6249   14.4678 C   0  0  0  0  0  0  0  0  0  0  0  0
    7.4532    1.6228   13.7358 C   0  0  0  0  0  0  0  0  0  0  0  0
    8.1744   -1.8884   15.4232 Cl  0  0  0  0  0  0  0  0  0  0  0  0
   -2.3149    2.9467    8.2101 N   0  0  0  0  0  0  0  0  0  0  0  0
   -2.3168    3.9813    7.3907 N   0  0  0  0  0  0  0  0  0  0  0  0
   -2.8472    5.0568    8.0110 C   0  0  0  0  0  0  0  0  0  0  0  0
   -3.1801    4.6479    9.2644 C   0  0  0  0  0  0  0  0  0  0  0  0
   -2.8384    3.3361    9.3584 N   0  0  0  0  0  0  0  0  0  0  0  0
  1  2  1  0
  2  3  2  0
  3  4  1  0
  4  5  2  0
  5  6  1  0
  6  7  2  0
  6  8  1  0
  8  9  2  0
  8 10  1  0
 10 11  1  0
 11 12  1  0
 12 13  1  0
 13 14  1  0
 14 15  1  0
 15 16  1  0
 16 17  1  1
 13 18  1  0
 18 19  1  0
 19 20  1  0
 20 21  2  0
 21 22  1  0
 21 23  1  0
 23 24  2  0
 24 25  1  0
 25 26  2  0
 24 27  1  0
  5 28  1  0
 28 29  1  0
 29 30  2  0
 30 31  1  0
 31 32  2  0
  7  2  1  0
 16 10  1  0
 22 18  2  0
 32 28  1  0
 26 20  1  0
M  END
$$$$
