
     RDKit          3D

 32 36  0  0  0  0  0  0  0  0999 V2000
   -1.8231    4.9486    5.2852 C   0  0  0  0  0  0  0  0  0  0  0  0
   -1.5386    3.6722    5.9865 C   0  0  0  0  0  0  0  0  0  0  0  0
   -1.6668    2.4349    5.3885 C   0  0  0  0  0  0  0  0  0  0  0  0
   -1.3979    1.2538    6.0551 C   0  0  0  0  0  0  0  0  0  0  0  0
   -0.9813    1.3077    7.3811 C   0  0  0  0  0  0  0  0  0  0  0  0
   -0.8469    2.5274    7.9959 C   0  0  0  0  0  0  0  0  0  0  0  0
   -1.1240    3.6937    7.3010 C   0  0  0  0  0  0  0  0  0  0  0  0
   -0.4108    2.6670    9.3968 C   0  0  0  0  0  0  0  0  0  0  0  0
   -1.2632    3.0647   10.2227 O   0  0  0  0  0  0  0  0  0  0  0  0
    0.9198    2.3629    9.7915 N   0  0  0  0  0  0  0  0  0  0  0  0
    1.0916    2.1512   11.1960 C   0  0  0  0  0  0  0  0  0  0  0  0
    2.2364    1.1960   11.4478 C   0  0  0  0  0  0  0  0  0  0  0  0
    3.5261    1.7553   11.0904 N   0  0  0  0  0  0  0  0  0  0  0  0
    3.9691    2.7830   10.2138 C   0  0  0  0  0  0  0  0  0  0  0  0
    3.1122    3.1666    9.0909 C   0  0  0  0  0  0  0  0  0  0  0  0
    1.9454    2.2956    8.7859 C   0  0  1  0  0  0  0  0  0  0  0  0
    2.3442    0.8759    8.4596 C   0  0  0  0  0  0  0  0  0  0  0  0
    4.6070    1.1093   11.7974 C   0  0  0  0  0  0  0  0  0  0  0  0
    4.5442    0.0327   12.5552 O   0  0  0  0  0  0  0  0  0  0  0  0
    5.6889   -0.2976   13.0503 C   0  0  0  0  0  0  0  0  0  0  0  0
    6.6078    0.6127   12.6049 C   0  0  0  0  0  0  0  0  0  0  0  0
    5.9144    1.4696   11.8340 N   0  0  0  0  0  0  0  0  0  0  0  0
    7.9148    0.4673   13.0040 C   0  0  0  0  0  0  0  0  0  0  0  0
    8.3258   -0.5568   13.8310 C   0  0  0  0  0  0  0  0  0  0  0  0
    7.3906   -1.4735   14.2774 C   0  0  0  0  0  0  0  0  0  0  0  0
    6.0897   -1.3385   13.8871 C   0  0  0  0  0  0  0  0  0  0  0  0
    9.9801   -0.7374   14.3337 Cl  0  0  0  0  0  0  0  0  0  0  0  0
   -0.7008    0.1206    8.0837 N   0  0  0  0  0  0  0  0  0  0  0  0
   -1.5180   -0.4521    8.9473 N   0  0  0  0  0  0  0  0  0  0  0  0
   -0.9502   -1.5720    9.4431 C   0  0  0  0  0  0  0  0  0  0  0  0
    0.2681   -1.6770    8.8481 C   0  0  0  0  0  0  0  0  0  0  0  0
    0.3944   -0.6140    8.0111 N   0  0  0  0  0  0  0  0  0  0  0  0
  1  2  1  0
  2  3  2  0
  3  4  1  0
  4  5  2  0
  5  6  1  0
  6  7  2  0
  6  8  1  0
  8  9  2  0
  8 10  1  0
 10 11  1  0
 11 12  1  0
 12 13  1  0
 13 14  1  0
 14 15  1  0
 15 16  1  0
 16 17  1  1
 13 18  1  0
 18 19  1  0
 19 20  1  0
 20 21  2  0
 21 22  1  0
 21 23  1  0
 23 24  2  0
 24 25  1  0
 25 26  2  0
 24 27  1  0
  5 28  1  0
 28 29  1  0
 29 30  2  0
 30 31  1  0
 31 32  2  0
  7  2  1  0
 16 10  1  0
 22 18  2  0
 32 28  1  0
 26 20  1  0
M  END
$$$$
