
     RDKit          3D

 32 36  0  0  0  0  0  0  0  0999 V2000
   -2.3820    3.1251    4.7873 C   0  0  0  0  0  0  0  0  0  0  0  0
   -1.6893    3.6436    5.9928 C   0  0  0  0  0  0  0  0  0  0  0  0
   -1.3696    4.9748    6.1685 C   0  0  0  0  0  0  0  0  0  0  0  0
   -0.7237    5.4431    7.2977 C   0  0  0  0  0  0  0  0  0  0  0  0
   -0.3796    4.5422    8.3001 C   0  0  0  0  0  0  0  0  0  0  0  0
   -0.6877    3.2136    8.1465 C   0  0  0  0  0  0  0  0  0  0  0  0
   -1.3356    2.7750    7.0030 C   0  0  0  0  0  0  0  0  0  0  0  0
   -0.3565    2.1988    9.1628 C   0  0  0  0  0  0  0  0  0  0  0  0
   -1.3117    1.6817    9.7850 O   0  0  0  0  0  0  0  0  0  0  0  0
    0.9891    1.8246    9.4240 N   0  0  0  0  0  0  0  0  0  0  0  0
    1.3152    1.7016   10.8116 C   0  0  0  0  0  0  0  0  0  0  0  0
    2.4162    0.6835   11.0049 C   0  0  0  0  0  0  0  0  0  0  0  0
    3.6874    1.1172   10.4572 N   0  0  0  0  0  0  0  0  0  0  0  0
    4.0881    2.0433    9.4559 C   0  0  0  0  0  0  0  0  0  0  0  0
    3.1289    2.4090    8.4126 C   0  0  0  0  0  0  0  0  0  0  0  0
    1.8786    1.6086    8.3152 C   0  0  1  0  0  0  0  0  0  0  0  0
    2.1402    0.1433    8.0596 C   0  0  0  0  0  0  0  0  0  0  0  0
    4.8007    0.4441   11.0839 C   0  0  0  0  0  0  0  0  0  0  0  0
    5.6836   -0.3529   10.5158 O   0  0  0  0  0  0  0  0  0  0  0  0
    6.5619   -0.8003   11.3482 C   0  0  0  0  0  0  0  0  0  0  0  0
    6.2672   -0.2774   12.5776 C   0  0  0  0  0  0  0  0  0  0  0  0
    5.1766    0.4866   12.3868 N   0  0  0  0  0  0  0  0  0  0  0  0
    7.0728   -0.6143   13.6387 C   0  0  0  0  0  0  0  0  0  0  0  0
    8.1582   -1.4544   13.5055 C   0  0  0  0  0  0  0  0  0  0  0  0
    8.4499   -1.9794   12.2591 C   0  0  0  0  0  0  0  0  0  0  0  0
    7.6562   -1.6513   11.1983 C   0  0  0  0  0  0  0  0  0  0  0  0
    9.1750   -1.8783   14.8503 Cl  0  0  0  0  0  0  0  0  0  0  0  0
    0.2786    4.9918    9.4604 N   0  0  0  0  0  0  0  0  0  0  0  0
    1.3919    5.7004    9.4656 N   0  0  0  0  0  0  0  0  0  0  0  0
    1.7595    5.9680   10.7367 C   0  0  0  0  0  0  0  0  0  0  0  0
    0.8209    5.3917   11.5341 C   0  0  0  0  0  0  0  0  0  0  0  0
   -0.0839    4.7942   10.7149 N   0  0  0  0  0  0  0  0  0  0  0  0
  1  2  1  0
  2  3  2  0
  3  4  1  0
  4  5  2  0
  5  6  1  0
  6  7  2  0
  6  8  1  0
  8  9  2  0
  8 10  1  0
 10 11  1  0
 11 12  1  0
 12 13  1  0
 13 14  1  0
 14 15  1  0
 15 16  1  0
 16 17  1  1
 13 18  1  0
 18 19  1  0
 19 20  1  0
 20 21  2  0
 21 22  1  0
 21 23  1  0
 23 24  2  0
 24 25  1  0
 25 26  2  0
 24 27  1  0
  5 28  1  0
 28 29  1  0
 29 30  2  0
 30 31  1  0
 31 32  2  0
  7  2  1  0
 16 10  1  0
 22 18  2  0
 32 28  1  0
 26 20  1  0
M  END
$$$$
