
     RDKit          3D

 32 36  0  0  0  0  0  0  0  0999 V2000
   -1.5733   -0.8666    6.3124 C   0  0  0  0  0  0  0  0  0  0  0  0
   -1.6510   -0.0217    7.5298 C   0  0  0  0  0  0  0  0  0  0  0  0
   -2.5669   -0.2324    8.5405 C   0  0  0  0  0  0  0  0  0  0  0  0
   -2.6272    0.5637    9.6693 C   0  0  0  0  0  0  0  0  0  0  0  0
   -1.7320    1.6207    9.7976 C   0  0  0  0  0  0  0  0  0  0  0  0
   -0.8125    1.8488    8.8045 C   0  0  0  0  0  0  0  0  0  0  0  0
   -0.7771    1.0331    7.6850 C   0  0  0  0  0  0  0  0  0  0  0  0
    0.1681    2.9473    8.8672 C   0  0  0  0  0  0  0  0  0  0  0  0
   -0.1688    4.0423    8.3629 O   0  0  0  0  0  0  0  0  0  0  0  0
    1.4405    2.7699    9.4742 N   0  0  0  0  0  0  0  0  0  0  0  0
    1.4853    1.7523   10.4787 C   0  0  0  0  0  0  0  0  0  0  0  0
    2.8690    1.1471   10.5531 C   0  0  0  0  0  0  0  0  0  0  0  0
    3.8644    2.0762   11.0529 N   0  0  0  0  0  0  0  0  0  0  0  0
    3.9777    3.4918   11.1155 C   0  0  0  0  0  0  0  0  0  0  0  0
    3.2043    4.3011   10.1727 C   0  0  0  0  0  0  0  0  0  0  0  0
    2.5368    3.5958    9.0456 C   0  0  1  0  0  0  0  0  0  0  0  0
    3.5101    2.8533    8.1613 C   0  0  0  0  0  0  0  0  0  0  0  0
    5.0034    1.3915   11.6180 C   0  0  0  0  0  0  0  0  0  0  0  0
    6.2506    1.8141   11.6748 O   0  0  0  0  0  0  0  0  0  0  0  0
    7.0399    0.9674   12.2447 C   0  0  0  0  0  0  0  0  0  0  0  0
    6.2877   -0.1161   12.6077 C   0  0  0  0  0  0  0  0  0  0  0  0
    5.0354    0.1710   12.2096 N   0  0  0  0  0  0  0  0  0  0  0  0
    6.9157   -1.1625   13.2398 C   0  0  0  0  0  0  0  0  0  0  0  0
    8.2664   -1.1554   13.5173 C   0  0  0  0  0  0  0  0  0  0  0  0
    9.0205   -0.0560   13.1472 C   0  0  0  0  0  0  0  0  0  0  0  0
    8.4069    0.9888   12.5188 C   0  0  0  0  0  0  0  0  0  0  0  0
    9.0571   -2.4809   14.3171 Cl  0  0  0  0  0  0  0  0  0  0  0  0
   -1.7711    2.4471   10.9364 N   0  0  0  0  0  0  0  0  0  0  0  0
   -2.1256    3.7184   10.9301 N   0  0  0  0  0  0  0  0  0  0  0  0
   -2.0556    4.2203   12.1814 C   0  0  0  0  0  0  0  0  0  0  0  0
   -1.6387    3.2004   12.9783 C   0  0  0  0  0  0  0  0  0  0  0  0
   -1.4707    2.1146   12.1787 N   0  0  0  0  0  0  0  0  0  0  0  0
  1  2  1  0
  2  3  2  0
  3  4  1  0
  4  5  2  0
  5  6  1  0
  6  7  2  0
  6  8  1  0
  8  9  2  0
  8 10  1  0
 10 11  1  0
 11 12  1  0
 12 13  1  0
 13 14  1  0
 14 15  1  0
 15 16  1  0
 16 17  1  1
 13 18  1  0
 18 19  1  0
 19 20  1  0
 20 21  2  0
 21 22  1  0
 21 23  1  0
 23 24  2  0
 24 25  1  0
 25 26  2  0
 24 27  1  0
  5 28  1  0
 28 29  1  0
 29 30  2  0
 30 31  1  0
 31 32  2  0
  7  2  1  0
 16 10  1  0
 22 18  2  0
 32 28  1  0
 26 20  1  0
M  END
$$$$
