
     RDKit          3D

 32 36  0  0  0  0  0  0  0  0999 V2000
   -0.6770    5.8074    5.7466 C   0  0  0  0  0  0  0  0  0  0  0  0
   -0.8832    4.4439    6.2945 C   0  0  0  0  0  0  0  0  0  0  0  0
   -1.4481    3.4141    5.5697 C   0  0  0  0  0  0  0  0  0  0  0  0
   -1.6338    2.1483    6.0940 C   0  0  0  0  0  0  0  0  0  0  0  0
   -1.2378    1.8961    7.4033 C   0  0  0  0  0  0  0  0  0  0  0  0
   -0.6736    2.9055    8.1427 C   0  0  0  0  0  0  0  0  0  0  0  0
   -0.5008    4.1637    7.5889 C   0  0  0  0  0  0  0  0  0  0  0  0
   -0.2289    2.7169    9.5352 C   0  0  0  0  0  0  0  0  0  0  0  0
   -1.0357    3.0308   10.4392 O   0  0  0  0  0  0  0  0  0  0  0  0
    1.0602    2.2009    9.8370 N   0  0  0  0  0  0  0  0  0  0  0  0
    1.6462    2.7227   11.0332 C   0  0  0  0  0  0  0  0  0  0  0  0
    2.5783    1.7042   11.6498 C   0  0  0  0  0  0  0  0  0  0  0  0
    3.7596    1.4607   10.8440 N   0  0  0  0  0  0  0  0  0  0  0  0
    4.0885    1.6122    9.4694 C   0  0  0  0  0  0  0  0  0  0  0  0
    3.0055    1.6255    8.4850 C   0  0  0  0  0  0  0  0  0  0  0  0
    1.6475    1.2339    8.9495 C   0  0  1  0  0  0  0  0  0  0  0  0
    1.6020   -0.1682    9.5088 C   0  0  0  0  0  0  0  0  0  0  0  0
    4.8522    0.9434   11.6339 C   0  0  0  0  0  0  0  0  0  0  0  0
    5.5307    1.5668   12.5764 O   0  0  0  0  0  0  0  0  0  0  0  0
    6.4523    0.8305   13.0992 C   0  0  0  0  0  0  0  0  0  0  0  0
    6.4092   -0.3866   12.4760 C   0  0  0  0  0  0  0  0  0  0  0  0
    5.4135   -0.2904   11.5766 N   0  0  0  0  0  0  0  0  0  0  0  0
    7.3070   -1.3507   12.8672 C   0  0  0  0  0  0  0  0  0  0  0  0
    8.2409   -1.1328   13.8581 C   0  0  0  0  0  0  0  0  0  0  0  0
    8.2783    0.1006   14.4838 C   0  0  0  0  0  0  0  0  0  0  0  0
    7.3911    1.0654   14.1030 C   0  0  0  0  0  0  0  0  0  0  0  0
    9.3750   -2.3549   14.3503 Cl  0  0  0  0  0  0  0  0  0  0  0  0
   -1.4151    0.6165    7.9624 N   0  0  0  0  0  0  0  0  0  0  0  0
   -2.1038    0.3650    9.0597 N   0  0  0  0  0  0  0  0  0  0  0  0
   -2.0791   -0.9587    9.3237 C   0  0  0  0  0  0  0  0  0  0  0  0
   -1.3391   -1.5303    8.3364 C   0  0  0  0  0  0  0  0  0  0  0  0
   -0.9413   -0.5295    7.5078 N   0  0  0  0  0  0  0  0  0  0  0  0
  1  2  1  0
  2  3  2  0
  3  4  1  0
  4  5  2  0
  5  6  1  0
  6  7  2  0
  6  8  1  0
  8  9  2  0
  8 10  1  0
 10 11  1  0
 11 12  1  0
 12 13  1  0
 13 14  1  0
 14 15  1  0
 15 16  1  0
 16 17  1  1
 13 18  1  0
 18 19  1  0
 19 20  1  0
 20 21  2  0
 21 22  1  0
 21 23  1  0
 23 24  2  0
 24 25  1  0
 25 26  2  0
 24 27  1  0
  5 28  1  0
 28 29  1  0
 29 30  2  0
 30 31  1  0
 31 32  2  0
  7  2  1  0
 16 10  1  0
 22 18  2  0
 32 28  1  0
 26 20  1  0
M  END
$$$$
