
     RDKit          3D

 32 36  0  0  0  0  0  0  0  0999 V2000
   -0.2509   -2.1706    7.2963 C   0  0  0  0  0  0  0  0  0  0  0  0
   -0.8004   -0.8084    7.5070 C   0  0  0  0  0  0  0  0  0  0  0  0
   -2.1521   -0.5417    7.5893 C   0  0  0  0  0  0  0  0  0  0  0  0
   -2.6492    0.7334    7.7859 C   0  0  0  0  0  0  0  0  0  0  0  0
   -1.7571    1.7938    7.9065 C   0  0  0  0  0  0  0  0  0  0  0  0
   -0.4085    1.5517    7.8278 C   0  0  0  0  0  0  0  0  0  0  0  0
    0.0589    0.2624    7.6301 C   0  0  0  0  0  0  0  0  0  0  0  0
    0.5987    2.6213    7.9458 C   0  0  0  0  0  0  0  0  0  0  0  0
    0.5211    3.5702    7.1332 O   0  0  0  0  0  0  0  0  0  0  0  0
    1.6133    2.5761    8.9395 N   0  0  0  0  0  0  0  0  0  0  0  0
    1.6481    1.3658    9.7016 C   0  0  0  0  0  0  0  0  0  0  0  0
    3.0555    1.0838   10.1769 C   0  0  0  0  0  0  0  0  0  0  0  0
    3.5221    2.0447   11.1583 N   0  0  0  0  0  0  0  0  0  0  0  0
    3.1816    3.3826   11.4973 C   0  0  0  0  0  0  0  0  0  0  0  0
    2.5322    4.2199   10.4877 C   0  0  0  0  0  0  0  0  0  0  0  0
    2.4883    3.7069    9.0919 C   0  0  1  0  0  0  0  0  0  0  0  0
    3.8623    3.4577    8.5166 C   0  0  0  0  0  0  0  0  0  0  0  0
    4.5810    1.5047   11.9784 C   0  0  0  0  0  0  0  0  0  0  0  0
    5.6864    2.1083   12.3672 O   0  0  0  0  0  0  0  0  0  0  0  0
    6.4372    1.3548   13.0973 C   0  0  0  0  0  0  0  0  0  0  0  0
    5.8088    0.1461   13.2228 C   0  0  0  0  0  0  0  0  0  0  0  0
    4.6661    0.2652   12.5233 N   0  0  0  0  0  0  0  0  0  0  0  0
    6.4234   -0.8333   13.9656 C   0  0  0  0  0  0  0  0  0  0  0  0
    7.6413   -0.6388   14.5824 C   0  0  0  0  0  0  0  0  0  0  0  0
    8.2707    0.5863   14.4508 C   0  0  0  0  0  0  0  0  0  0  0  0
    7.6692    1.5661   13.7153 C   0  0  0  0  0  0  0  0  0  0  0  0
    8.4156   -1.8802   15.5212 Cl  0  0  0  0  0  0  0  0  0  0  0  0
   -2.2359    3.1022    8.1072 N   0  0  0  0  0  0  0  0  0  0  0  0
   -2.6963    3.8884    7.1524 N   0  0  0  0  0  0  0  0  0  0  0  0
   -3.0749    5.0735    7.6766 C   0  0  0  0  0  0  0  0  0  0  0  0
   -2.8299    4.9952    9.0118 C   0  0  0  0  0  0  0  0  0  0  0  0
   -2.3103    3.7622    9.2489 N   0  0  0  0  0  0  0  0  0  0  0  0
  1  2  1  0
  2  3  2  0
  3  4  1  0
  4  5  2  0
  5  6  1  0
  6  7  2  0
  6  8  1  0
  8  9  2  0
  8 10  1  0
 10 11  1  0
 11 12  1  0
 12 13  1  0
 13 14  1  0
 14 15  1  0
 15 16  1  0
 16 17  1  1
 13 18  1  0
 18 19  1  0
 19 20  1  0
 20 21  2  0
 21 22  1  0
 21 23  1  0
 23 24  2  0
 24 25  1  0
 25 26  2  0
 24 27  1  0
  5 28  1  0
 28 29  1  0
 29 30  2  0
 30 31  1  0
 31 32  2  0
  7  2  1  0
 16 10  1  0
 22 18  2  0
 32 28  1  0
 26 20  1  0
M  END
$$$$
