
     RDKit          3D

 32 36  0  0  0  0  0  0  0  0999 V2000
   -2.9543    1.2461    6.3518 C   0  0  0  0  0  0  0  0  0  0  0  0
   -2.1072    2.3640    6.8361 C   0  0  0  0  0  0  0  0  0  0  0  0
   -1.8561    3.5002    6.0939 C   0  0  0  0  0  0  0  0  0  0  0  0
   -1.0643    4.5339    6.5588 C   0  0  0  0  0  0  0  0  0  0  0  0
   -0.4952    4.4310    7.8239 C   0  0  0  0  0  0  0  0  0  0  0  0
   -0.7314    3.3098    8.5795 C   0  0  0  0  0  0  0  0  0  0  0  0
   -1.5296    2.2906    8.0856 C   0  0  0  0  0  0  0  0  0  0  0  0
   -0.1648    3.1268    9.9277 C   0  0  0  0  0  0  0  0  0  0  0  0
   -0.8391    3.5526   10.8925 O   0  0  0  0  0  0  0  0  0  0  0  0
    1.0925    2.4942   10.1226 N   0  0  0  0  0  0  0  0  0  0  0  0
    1.6633    2.6888   11.4199 C   0  0  0  0  0  0  0  0  0  0  0  0
    2.5341    1.5106   11.7936 C   0  0  0  0  0  0  0  0  0  0  0  0
    3.7280    1.4104   10.9759 N   0  0  0  0  0  0  0  0  0  0  0  0
    4.1039    1.8686    9.6838 C   0  0  0  0  0  0  0  0  0  0  0  0
    3.0523    2.1660    8.7102 C   0  0  0  0  0  0  0  0  0  0  0  0
    1.6661    1.7393    9.0415 C   0  0  1  0  0  0  0  0  0  0  0  0
    1.5467    0.2482    9.2491 C   0  0  0  0  0  0  0  0  0  0  0  0
    4.7744    0.6698   11.6405 C   0  0  0  0  0  0  0  0  0  0  0  0
    5.5079    1.0551   12.6657 O   0  0  0  0  0  0  0  0  0  0  0  0
    6.3639    0.1620   13.0318 C   0  0  0  0  0  0  0  0  0  0  0  0
    6.2132   -0.9162   12.2033 C   0  0  0  0  0  0  0  0  0  0  0  0
    5.2264   -0.5771   11.3545 N   0  0  0  0  0  0  0  0  0  0  0  0
    7.0254   -2.0072   12.4001 C   0  0  0  0  0  0  0  0  0  0  0  0
    7.9782   -2.0497   13.3960 C   0  0  0  0  0  0  0  0  0  0  0  0
    8.1247   -0.9554   14.2299 C   0  0  0  0  0  0  0  0  0  0  0  0
    7.3232    0.1335   14.0434 C   0  0  0  0  0  0  0  0  0  0  0  0
    9.0038   -3.4316   13.6418 Cl  0  0  0  0  0  0  0  0  0  0  0  0
    0.3152    5.4685    8.3221 N   0  0  0  0  0  0  0  0  0  0  0  0
    0.0861    6.1290    9.4414 N   0  0  0  0  0  0  0  0  0  0  0  0
    1.0479    7.0570    9.6317 C   0  0  0  0  0  0  0  0  0  0  0  0
    1.8964    6.9485    8.5746 C   0  0  0  0  0  0  0  0  0  0  0  0
    1.4165    5.9560    7.7801 N   0  0  0  0  0  0  0  0  0  0  0  0
  1  2  1  0
  2  3  2  0
  3  4  1  0
  4  5  2  0
  5  6  1  0
  6  7  2  0
  6  8  1  0
  8  9  2  0
  8 10  1  0
 10 11  1  0
 11 12  1  0
 12 13  1  0
 13 14  1  0
 14 15  1  0
 15 16  1  0
 16 17  1  1
 13 18  1  0
 18 19  1  0
 19 20  1  0
 20 21  2  0
 21 22  1  0
 21 23  1  0
 23 24  2  0
 24 25  1  0
 25 26  2  0
 24 27  1  0
  5 28  1  0
 28 29  1  0
 29 30  2  0
 30 31  1  0
 31 32  2  0
  7  2  1  0
 16 10  1  0
 22 18  2  0
 32 28  1  0
 26 20  1  0
M  END
$$$$
