
     RDKit          3D

 32 36  0  0  0  0  0  0  0  0999 V2000
   -1.8474    0.9754    6.0802 C   0  0  0  0  0  0  0  0  0  0  0  0
   -1.7537    2.0144    7.1354 C   0  0  0  0  0  0  0  0  0  0  0  0
   -2.7956    2.3269    7.9849 C   0  0  0  0  0  0  0  0  0  0  0  0
   -2.6933    3.2980    8.9637 C   0  0  0  0  0  0  0  0  0  0  0  0
   -1.4954    3.9913    9.1031 C   0  0  0  0  0  0  0  0  0  0  0  0
   -0.4459    3.6970    8.2691 C   0  0  0  0  0  0  0  0  0  0  0  0
   -0.5795    2.7181    7.2976 C   0  0  0  0  0  0  0  0  0  0  0  0
    0.8538    4.3868    8.3542 C   0  0  0  0  0  0  0  0  0  0  0  0
    0.9776    5.4521    7.7087 O   0  0  0  0  0  0  0  0  0  0  0  0
    1.9193    3.8641    9.1355 N   0  0  0  0  0  0  0  0  0  0  0  0
    1.5619    2.7551    9.9655 C   0  0  0  0  0  0  0  0  0  0  0  0
    2.7564    1.8537   10.1821 C   0  0  0  0  0  0  0  0  0  0  0  0
    3.7949    2.4763   10.9808 N   0  0  0  0  0  0  0  0  0  0  0  0
    4.1694    3.8152   11.2773 C   0  0  0  0  0  0  0  0  0  0  0  0
    3.7741    4.8771   10.3509 C   0  0  0  0  0  0  0  0  0  0  0  0
    3.2195    4.4694    9.0319 C   0  0  1  0  0  0  0  0  0  0  0  0
    4.1844    3.6343    8.2243 C   0  0  0  0  0  0  0  0  0  0  0  0
    4.6410    1.4967   11.6209 C   0  0  0  0  0  0  0  0  0  0  0  0
    5.9577    1.4855   11.6809 O   0  0  0  0  0  0  0  0  0  0  0  0
    6.4201    0.4697   12.3280 C   0  0  0  0  0  0  0  0  0  0  0  0
    5.3503   -0.2739   12.7452 C   0  0  0  0  0  0  0  0  0  0  0  0
    4.2650    0.3815   12.2959 N   0  0  0  0  0  0  0  0  0  0  0  0
    5.5942   -1.4196   13.4639 C   0  0  0  0  0  0  0  0  0  0  0  0
    6.8702   -1.8397   13.7752 C   0  0  0  0  0  0  0  0  0  0  0  0
    7.9471   -1.0823   13.3499 C   0  0  0  0  0  0  0  0  0  0  0  0
    7.7163    0.0574   12.6353 C   0  0  0  0  0  0  0  0  0  0  0  0
    7.1746   -3.2895   14.6846 Cl  0  0  0  0  0  0  0  0  0  0  0  0
   -1.3636    4.9850   10.0913 N   0  0  0  0  0  0  0  0  0  0  0  0
   -1.3880    4.7595   11.3914 N   0  0  0  0  0  0  0  0  0  0  0  0
   -1.2356    5.9214   12.0616 C   0  0  0  0  0  0  0  0  0  0  0  0
   -1.1137    6.8926   11.1176 C   0  0  0  0  0  0  0  0  0  0  0  0
   -1.1969    6.2821    9.9064 N   0  0  0  0  0  0  0  0  0  0  0  0
  1  2  1  0
  2  3  2  0
  3  4  1  0
  4  5  2  0
  5  6  1  0
  6  7  2  0
  6  8  1  0
  8  9  2  0
  8 10  1  0
 10 11  1  0
 11 12  1  0
 12 13  1  0
 13 14  1  0
 14 15  1  0
 15 16  1  0
 16 17  1  1
 13 18  1  0
 18 19  1  0
 19 20  1  0
 20 21  2  0
 21 22  1  0
 21 23  1  0
 23 24  2  0
 24 25  1  0
 25 26  2  0
 24 27  1  0
  5 28  1  0
 28 29  1  0
 29 30  2  0
 30 31  1  0
 31 32  2  0
  7  2  1  0
 16 10  1  0
 22 18  2  0
 32 28  1  0
 26 20  1  0
M  END
$$$$
