
     RDKit          3D

 32 36  0  0  0  0  0  0  0  0999 V2000
   -4.7567    3.4890    8.6298 C   0  0  0  0  0  0  0  0  0  0  0  0
   -3.4388    2.9492    8.2130 C   0  0  0  0  0  0  0  0  0  0  0  0
   -3.2802    1.7131    7.6198 C   0  0  0  0  0  0  0  0  0  0  0  0
   -2.0452    1.2235    7.2367 C   0  0  0  0  0  0  0  0  0  0  0  0
   -0.9137    2.0026    7.4549 C   0  0  0  0  0  0  0  0  0  0  0  0
   -1.0479    3.2353    8.0433 C   0  0  0  0  0  0  0  0  0  0  0  0
   -2.2995    3.6983    8.4162 C   0  0  0  0  0  0  0  0  0  0  0  0
    0.1019    4.1187    8.3075 C   0  0  0  0  0  0  0  0  0  0  0  0
    0.0804    5.2552    7.7833 O   0  0  0  0  0  0  0  0  0  0  0  0
    1.1871    3.6974    9.1221 N   0  0  0  0  0  0  0  0  0  0  0  0
    0.9654    2.4699    9.8227 C   0  0  0  0  0  0  0  0  0  0  0  0
    2.2760    1.7522   10.0540 C   0  0  0  0  0  0  0  0  0  0  0  0
    3.1447    2.4501   10.9825 N   0  0  0  0  0  0  0  0  0  0  0  0
    3.2736    3.7959   11.4220 C   0  0  0  0  0  0  0  0  0  0  0  0
    2.7683    4.8673   10.5624 C   0  0  0  0  0  0  0  0  0  0  0  0
    2.3736    4.5081    9.1737 C   0  0  1  0  0  0  0  0  0  0  0  0
    3.5124    3.9194    8.3754 C   0  0  0  0  0  0  0  0  0  0  0  0
    4.0983    1.5590   11.6003 C   0  0  0  0  0  0  0  0  0  0  0  0
    5.3542    1.8122   11.9101 O   0  0  0  0  0  0  0  0  0  0  0  0
    5.9479    0.8044   12.4547 C   0  0  0  0  0  0  0  0  0  0  0  0
    5.0408   -0.2172   12.5272 C   0  0  0  0  0  0  0  0  0  0  0  0
    3.9082    0.2745   11.9936 N   0  0  0  0  0  0  0  0  0  0  0  0
    5.4459   -1.4098   13.0771 C   0  0  0  0  0  0  0  0  0  0  0  0
    6.7246   -1.6079   13.5535 C   0  0  0  0  0  0  0  0  0  0  0  0
    7.6363   -0.5700   13.4767 C   0  0  0  0  0  0  0  0  0  0  0  0
    7.2446    0.6188   12.9324 C   0  0  0  0  0  0  0  0  0  0  0  0
    7.2332   -3.1180   14.2485 Cl  0  0  0  0  0  0  0  0  0  0  0  0
    0.3560    1.5288    7.0747 N   0  0  0  0  0  0  0  0  0  0  0  0
    0.8989    0.4059    7.5062 N   0  0  0  0  0  0  0  0  0  0  0  0
    2.1191    0.2435    6.9518 C   0  0  0  0  0  0  0  0  0  0  0  0
    2.3188    1.3219    6.1478 C   0  0  0  0  0  0  0  0  0  0  0  0
    1.2094    2.1006    6.2445 N   0  0  0  0  0  0  0  0  0  0  0  0
  1  2  1  0
  2  3  2  0
  3  4  1  0
  4  5  2  0
  5  6  1  0
  6  7  2  0
  6  8  1  0
  8  9  2  0
  8 10  1  0
 10 11  1  0
 11 12  1  0
 12 13  1  0
 13 14  1  0
 14 15  1  0
 15 16  1  0
 16 17  1  1
 13 18  1  0
 18 19  1  0
 19 20  1  0
 20 21  2  0
 21 22  1  0
 21 23  1  0
 23 24  2  0
 24 25  1  0
 25 26  2  0
 24 27  1  0
  5 28  1  0
 28 29  1  0
 29 30  2  0
 30 31  1  0
 31 32  2  0
  7  2  1  0
 16 10  1  0
 22 18  2  0
 32 28  1  0
 26 20  1  0
M  END
$$$$
