
     RDKit          3D

 32 36  0  0  0  0  0  0  0  0999 V2000
   -2.5163    3.0562    5.2465 C   0  0  0  0  0  0  0  0  0  0  0  0
   -1.7087    3.8070    6.2394 C   0  0  0  0  0  0  0  0  0  0  0  0
   -1.2447    5.0890    6.0242 C   0  0  0  0  0  0  0  0  0  0  0  0
   -0.4930    5.7761    6.9593 C   0  0  0  0  0  0  0  0  0  0  0  0
   -0.1887    5.1565    8.1670 C   0  0  0  0  0  0  0  0  0  0  0  0
   -0.6398    3.8818    8.4025 C   0  0  0  0  0  0  0  0  0  0  0  0
   -1.3912    3.2192    7.4452 C   0  0  0  0  0  0  0  0  0  0  0  0
   -0.3594    3.1589    9.6559 C   0  0  0  0  0  0  0  0  0  0  0  0
   -1.2760    3.1164   10.5072 O   0  0  0  0  0  0  0  0  0  0  0  0
    0.8975    2.5376    9.8867 N   0  0  0  0  0  0  0  0  0  0  0  0
    1.2529    2.4054   11.2661 C   0  0  0  0  0  0  0  0  0  0  0  0
    2.1417    1.1987   11.4669 C   0  0  0  0  0  0  0  0  0  0  0  0
    3.4482    1.3531   10.8560 N   0  0  0  0  0  0  0  0  0  0  0  0
    3.9781    2.1440    9.8002 C   0  0  0  0  0  0  0  0  0  0  0  0
    3.0645    2.6514    8.7755 C   0  0  0  0  0  0  0  0  0  0  0  0
    1.6792    2.1093    8.7583 C   0  0  1  0  0  0  0  0  0  0  0  0
    1.6388    0.6126    8.5606 C   0  0  0  0  0  0  0  0  0  0  0  0
    4.4350    0.4984   11.4733 C   0  0  0  0  0  0  0  0  0  0  0  0
    4.6231   -0.7906   11.2724 O   0  0  0  0  0  0  0  0  0  0  0  0
    5.5902   -1.2708   11.9786 C   0  0  0  0  0  0  0  0  0  0  0  0
    6.1077   -0.2438   12.7196 C   0  0  0  0  0  0  0  0  0  0  0  0
    5.3772    0.8363   12.3891 N   0  0  0  0  0  0  0  0  0  0  0  0
    7.1609   -0.5135   13.5602 C   0  0  0  0  0  0  0  0  0  0  0  0
    7.7076   -1.7739   13.6796 C   0  0  0  0  0  0  0  0  0  0  0  0
    7.1789   -2.8074   12.9270 C   0  0  0  0  0  0  0  0  0  0  0  0
    6.1327   -2.5506   12.0889 C   0  0  0  0  0  0  0  0  0  0  0  0
    9.0400   -2.1111   14.7441 Cl  0  0  0  0  0  0  0  0  0  0  0  0
    0.5749    5.8329    9.1369 N   0  0  0  0  0  0  0  0  0  0  0  0
    1.8329    6.1998    8.9807 N   0  0  0  0  0  0  0  0  0  0  0  0
    2.2702    6.8250   10.0944 C   0  0  0  0  0  0  0  0  0  0  0  0
    1.2233    6.8340   10.9622 C   0  0  0  0  0  0  0  0  0  0  0  0
    0.1869    6.2122   10.3410 N   0  0  0  0  0  0  0  0  0  0  0  0
  1  2  1  0
  2  3  2  0
  3  4  1  0
  4  5  2  0
  5  6  1  0
  6  7  2  0
  6  8  1  0
  8  9  2  0
  8 10  1  0
 10 11  1  0
 11 12  1  0
 12 13  1  0
 13 14  1  0
 14 15  1  0
 15 16  1  0
 16 17  1  1
 13 18  1  0
 18 19  1  0
 19 20  1  0
 20 21  2  0
 21 22  1  0
 21 23  1  0
 23 24  2  0
 24 25  1  0
 25 26  2  0
 24 27  1  0
  5 28  1  0
 28 29  1  0
 29 30  2  0
 30 31  1  0
 31 32  2  0
  7  2  1  0
 16 10  1  0
 22 18  2  0
 32 28  1  0
 26 20  1  0
M  END
$$$$
