
     RDKit          3D

 32 36  0  0  0  0  0  0  0  0999 V2000
   -2.0964    5.4167    5.6998 C   0  0  0  0  0  0  0  0  0  0  0  0
   -1.8532    4.1082    6.3560 C   0  0  0  0  0  0  0  0  0  0  0  0
   -2.0627    2.8964    5.7295 C   0  0  0  0  0  0  0  0  0  0  0  0
   -1.8315    1.6848    6.3542 C   0  0  0  0  0  0  0  0  0  0  0  0
   -1.3693    1.6800    7.6662 C   0  0  0  0  0  0  0  0  0  0  0  0
   -1.1540    2.8735    8.3088 C   0  0  0  0  0  0  0  0  0  0  0  0
   -1.3951    4.0714    7.6557 C   0  0  0  0  0  0  0  0  0  0  0  0
   -0.6656    2.9511    9.6973 C   0  0  0  0  0  0  0  0  0  0  0  0
   -1.4777    3.3402   10.5667 O   0  0  0  0  0  0  0  0  0  0  0  0
    0.6694    2.5992   10.0330 N   0  0  0  0  0  0  0  0  0  0  0  0
    0.8308    2.0583   11.3476 C   0  0  0  0  0  0  0  0  0  0  0  0
    2.0033    1.1042   11.3835 C   0  0  0  0  0  0  0  0  0  0  0  0
    3.2782    1.7707   11.1978 N   0  0  0  0  0  0  0  0  0  0  0  0
    3.6977    2.9927   10.6049 C   0  0  0  0  0  0  0  0  0  0  0  0
    2.8425    3.6121    9.5915 C   0  0  0  0  0  0  0  0  0  0  0  0
    1.7088    2.8076    9.0616 C   0  0  1  0  0  0  0  0  0  0  0  0
    2.1583    1.5216    8.4095 C   0  0  0  0  0  0  0  0  0  0  0  0
    4.3710    1.0042   11.7488 C   0  0  0  0  0  0  0  0  0  0  0  0
    4.3512   -0.2492   12.1559 O   0  0  0  0  0  0  0  0  0  0  0  0
    5.4947   -0.6488   12.6001 C   0  0  0  0  0  0  0  0  0  0  0  0
    6.3666    0.3999   12.4933 C   0  0  0  0  0  0  0  0  0  0  0  0
    5.6482    1.4072   11.9654 N   0  0  0  0  0  0  0  0  0  0  0  0
    7.6632    0.2137   12.9091 C   0  0  0  0  0  0  0  0  0  0  0  0
    8.1093   -0.9846   13.4254 C   0  0  0  0  0  0  0  0  0  0  0  0
    7.2215   -2.0407   13.5303 C   0  0  0  0  0  0  0  0  0  0  0  0
    5.9314   -1.8666   13.1202 C   0  0  0  0  0  0  0  0  0  0  0  0
    9.7502   -1.2163   13.9504 Cl  0  0  0  0  0  0  0  0  0  0  0  0
   -1.1256    0.4609    8.3263 N   0  0  0  0  0  0  0  0  0  0  0  0
   -0.8751   -0.6844    7.7203 N   0  0  0  0  0  0  0  0  0  0  0  0
   -0.6874   -1.6573    8.6374 C   0  0  0  0  0  0  0  0  0  0  0  0
   -0.8324   -1.0671    9.8539 C   0  0  0  0  0  0  0  0  0  0  0  0
   -1.1033    0.2454    9.6291 N   0  0  0  0  0  0  0  0  0  0  0  0
  1  2  1  0
  2  3  2  0
  3  4  1  0
  4  5  2  0
  5  6  1  0
  6  7  2  0
  6  8  1  0
  8  9  2  0
  8 10  1  0
 10 11  1  0
 11 12  1  0
 12 13  1  0
 13 14  1  0
 14 15  1  0
 15 16  1  0
 16 17  1  1
 13 18  1  0
 18 19  1  0
 19 20  1  0
 20 21  2  0
 21 22  1  0
 21 23  1  0
 23 24  2  0
 24 25  1  0
 25 26  2  0
 24 27  1  0
  5 28  1  0
 28 29  1  0
 29 30  2  0
 30 31  1  0
 31 32  2  0
  7  2  1  0
 16 10  1  0
 22 18  2  0
 32 28  1  0
 26 20  1  0
M  END
$$$$
