
     RDKit          3D

 32 36  0  0  0  0  0  0  0  0999 V2000
   -4.4316    4.0592    8.7245 C   0  0  0  0  0  0  0  0  0  0  0  0
   -3.3723    3.0712    8.4027 C   0  0  0  0  0  0  0  0  0  0  0  0
   -3.6005    1.7117    8.3342 C   0  0  0  0  0  0  0  0  0  0  0  0
   -2.6029    0.8030    8.0331 C   0  0  0  0  0  0  0  0  0  0  0  0
   -1.3160    1.2708    7.7885 C   0  0  0  0  0  0  0  0  0  0  0  0
   -1.0662    2.6190    7.8512 C   0  0  0  0  0  0  0  0  0  0  0  0
   -2.0873    3.5047    8.1555 C   0  0  0  0  0  0  0  0  0  0  0  0
    0.2694    3.1915    7.6049 C   0  0  0  0  0  0  0  0  0  0  0  0
    0.3928    3.9456    6.6135 O   0  0  0  0  0  0  0  0  0  0  0  0
    1.3685    2.8993    8.4567 N   0  0  0  0  0  0  0  0  0  0  0  0
    1.0513    2.0643    9.5743 C   0  0  0  0  0  0  0  0  0  0  0  0
    2.2590    1.2516    9.9831 C   0  0  0  0  0  0  0  0  0  0  0  0
    3.3248    2.0651   10.5366 N   0  0  0  0  0  0  0  0  0  0  0  0
    3.7027    3.4318   10.4368 C   0  0  0  0  0  0  0  0  0  0  0  0
    3.2641    4.1988    9.2699 C   0  0  0  0  0  0  0  0  0  0  0  0
    2.6598    3.4458    8.1381 C   0  0  1  0  0  0  0  0  0  0  0  0
    3.5967    2.4152    7.5542 C   0  0  0  0  0  0  0  0  0  0  0  0
    4.2018    1.2959   11.3878 C   0  0  0  0  0  0  0  0  0  0  0  0
    4.3008   -0.0161   11.4671 O   0  0  0  0  0  0  0  0  0  0  0  0
    5.1820   -0.3999   12.3277 C   0  0  0  0  0  0  0  0  0  0  0  0
    5.7313    0.7234   12.8827 C   0  0  0  0  0  0  0  0  0  0  0  0
    5.1092    1.7557   12.2856 N   0  0  0  0  0  0  0  0  0  0  0  0
    6.7063    0.5673   13.8386 C   0  0  0  0  0  0  0  0  0  0  0  0
    7.1446   -0.6730   14.2522 C   0  0  0  0  0  0  0  0  0  0  0  0
    6.5842   -1.8044   13.6862 C   0  0  0  0  0  0  0  0  0  0  0  0
    5.6151   -1.6609   12.7360 C   0  0  0  0  0  0  0  0  0  0  0  0
    8.3782   -0.8663   15.4617 Cl  0  0  0  0  0  0  0  0  0  0  0  0
   -0.2814    0.3678    7.4797 N   0  0  0  0  0  0  0  0  0  0  0  0
    0.5194    0.4714    6.4358 N   0  0  0  0  0  0  0  0  0  0  0  0
    1.3996   -0.5522    6.4293 C   0  0  0  0  0  0  0  0  0  0  0  0
    1.1133   -1.3077    7.5231 C   0  0  0  0  0  0  0  0  0  0  0  0
    0.0673   -0.7128    8.1543 N   0  0  0  0  0  0  0  0  0  0  0  0
  1  2  1  0
  2  3  2  0
  3  4  1  0
  4  5  2  0
  5  6  1  0
  6  7  2  0
  6  8  1  0
  8  9  2  0
  8 10  1  0
 10 11  1  0
 11 12  1  0
 12 13  1  0
 13 14  1  0
 14 15  1  0
 15 16  1  0
 16 17  1  1
 13 18  1  0
 18 19  1  0
 19 20  1  0
 20 21  2  0
 21 22  1  0
 21 23  1  0
 23 24  2  0
 24 25  1  0
 25 26  2  0
 24 27  1  0
  5 28  1  0
 28 29  1  0
 29 30  2  0
 30 31  1  0
 31 32  2  0
  7  2  1  0
 16 10  1  0
 22 18  2  0
 32 28  1  0
 26 20  1  0
M  END
$$$$
