
     RDKit          3D

 32 36  0  0  0  0  0  0  0  0999 V2000
   -1.7562   -1.8487    7.9486 C   0  0  0  0  0  0  0  0  0  0  0  0
   -1.5600   -0.3921    7.7448 C   0  0  0  0  0  0  0  0  0  0  0  0
   -1.9072    0.2631    6.5806 C   0  0  0  0  0  0  0  0  0  0  0  0
   -1.7182    1.6214    6.4054 C   0  0  0  0  0  0  0  0  0  0  0  0
   -1.1562    2.3630    7.4393 C   0  0  0  0  0  0  0  0  0  0  0  0
   -0.8032    1.7321    8.6061 C   0  0  0  0  0  0  0  0  0  0  0  0
   -1.0053    0.3691    8.7514 C   0  0  0  0  0  0  0  0  0  0  0  0
   -0.2031    2.4482    9.7460 C   0  0  0  0  0  0  0  0  0  0  0  0
   -0.9220    3.2863   10.3355 O   0  0  0  0  0  0  0  0  0  0  0  0
    1.1336    2.1970   10.1570 N   0  0  0  0  0  0  0  0  0  0  0  0
    1.2696    1.7717   11.5162 C   0  0  0  0  0  0  0  0  0  0  0  0
    2.4870    0.8885   11.6717 C   0  0  0  0  0  0  0  0  0  0  0  0
    3.7325    1.6063   11.4783 N   0  0  0  0  0  0  0  0  0  0  0  0
    4.1124    2.7983   10.8033 C   0  0  0  0  0  0  0  0  0  0  0  0
    3.2680    3.2880    9.7127 C   0  0  0  0  0  0  0  0  0  0  0  0
    2.1991    2.3836    9.2097 C   0  0  1  0  0  0  0  0  0  0  0  0
    2.7396    1.0762    8.6811 C   0  0  0  0  0  0  0  0  0  0  0  0
    4.8401    0.9465   12.1287 C   0  0  0  0  0  0  0  0  0  0  0  0
    4.8388    0.3293   13.2934 O   0  0  0  0  0  0  0  0  0  0  0  0
    5.9919   -0.1614   13.6005 C   0  0  0  0  0  0  0  0  0  0  0  0
    6.8510    0.1363   12.5783 C   0  0  0  0  0  0  0  0  0  0  0  0
    6.1154    0.8200   11.6834 N   0  0  0  0  0  0  0  0  0  0  0  0
    8.1544   -0.2876   12.6788 C   0  0  0  0  0  0  0  0  0  0  0  0
    8.6196   -0.9965   13.7662 C   0  0  0  0  0  0  0  0  0  0  0  0
    7.7448   -1.2937   14.7961 C   0  0  0  0  0  0  0  0  0  0  0  0
    6.4480   -0.8775   14.7065 C   0  0  0  0  0  0  0  0  0  0  0  0
   10.2692   -1.5310   13.8897 Cl  0  0  0  0  0  0  0  0  0  0  0  0
   -0.9525    3.7475    7.2879 N   0  0  0  0  0  0  0  0  0  0  0  0
   -0.4113    4.3155    6.2266 N   0  0  0  0  0  0  0  0  0  0  0  0
   -0.3601    5.6536    6.3983 C   0  0  0  0  0  0  0  0  0  0  0  0
   -0.8969    5.9014    7.6228 C   0  0  0  0  0  0  0  0  0  0  0  0
   -1.2549    4.7012    8.1501 N   0  0  0  0  0  0  0  0  0  0  0  0
  1  2  1  0
  2  3  2  0
  3  4  1  0
  4  5  2  0
  5  6  1  0
  6  7  2  0
  6  8  1  0
  8  9  2  0
  8 10  1  0
 10 11  1  0
 11 12  1  0
 12 13  1  0
 13 14  1  0
 14 15  1  0
 15 16  1  0
 16 17  1  1
 13 18  1  0
 18 19  1  0
 19 20  1  0
 20 21  2  0
 21 22  1  0
 21 23  1  0
 23 24  2  0
 24 25  1  0
 25 26  2  0
 24 27  1  0
  5 28  1  0
 28 29  1  0
 29 30  2  0
 30 31  1  0
 31 32  2  0
  7  2  1  0
 16 10  1  0
 22 18  2  0
 32 28  1  0
 26 20  1  0
M  END
$$$$
