
     RDKit          3D

 32 36  0  0  0  0  0  0  0  0999 V2000
   -1.6818    1.6282    5.3472 C   0  0  0  0  0  0  0  0  0  0  0  0
   -1.6521    2.3690    6.6326 C   0  0  0  0  0  0  0  0  0  0  0  0
   -2.6962    2.3611    7.5353 C   0  0  0  0  0  0  0  0  0  0  0  0
   -2.6538    3.0566    8.7295 C   0  0  0  0  0  0  0  0  0  0  0  0
   -1.5168    3.7955    9.0396 C   0  0  0  0  0  0  0  0  0  0  0  0
   -0.4663    3.8176    8.1565 C   0  0  0  0  0  0  0  0  0  0  0  0
   -0.5390    3.1100    6.9674 C   0  0  0  0  0  0  0  0  0  0  0  0
    0.7711    4.5760    8.4131 C   0  0  0  0  0  0  0  0  0  0  0  0
    0.8733    5.7005    7.8729 O   0  0  0  0  0  0  0  0  0  0  0  0
    1.8026    4.0522    9.2381 N   0  0  0  0  0  0  0  0  0  0  0  0
    1.5350    2.7534    9.7751 C   0  0  0  0  0  0  0  0  0  0  0  0
    2.8271    2.0012   10.0010 C   0  0  0  0  0  0  0  0  0  0  0  0
    3.6378    2.5778   11.0566 N   0  0  0  0  0  0  0  0  0  0  0  0
    3.7420    3.8618   11.6577 C   0  0  0  0  0  0  0  0  0  0  0  0
    3.2936    5.0310   10.9001 C   0  0  0  0  0  0  0  0  0  0  0  0
    2.9853    4.8400    9.4572 C   0  0  1  0  0  0  0  0  0  0  0  0
    4.1703    4.3378    8.6671 C   0  0  0  0  0  0  0  0  0  0  0  0
    4.5491    1.6116   11.6234 C   0  0  0  0  0  0  0  0  0  0  0  0
    5.8330    1.4657   11.3629 O   0  0  0  0  0  0  0  0  0  0  0  0
    6.3737    0.5066   12.0354 C   0  0  0  0  0  0  0  0  0  0  0  0
    5.3974   -0.0502   12.8154 C   0  0  0  0  0  0  0  0  0  0  0  0
    4.2818    0.6498   12.5422 N   0  0  0  0  0  0  0  0  0  0  0  0
    5.7368   -1.1033   13.6306 C   0  0  0  0  0  0  0  0  0  0  0  0
    7.0173   -1.6118   13.6871 C   0  0  0  0  0  0  0  0  0  0  0  0
    7.9993   -1.0434   12.8953 C   0  0  0  0  0  0  0  0  0  0  0  0
    7.6732    0.0030   12.0820 C   0  0  0  0  0  0  0  0  0  0  0  0
    7.4427   -2.9441   14.7196 Cl  0  0  0  0  0  0  0  0  0  0  0  0
   -1.4469    4.5130   10.2486 N   0  0  0  0  0  0  0  0  0  0  0  0
   -1.3977    3.9625   11.4470 N   0  0  0  0  0  0  0  0  0  0  0  0
   -1.3366    4.9248   12.3918 C   0  0  0  0  0  0  0  0  0  0  0  0
   -1.3497    6.1117   11.7282 C   0  0  0  0  0  0  0  0  0  0  0  0
   -1.4185    5.8245   10.4018 N   0  0  0  0  0  0  0  0  0  0  0  0
  1  2  1  0
  2  3  2  0
  3  4  1  0
  4  5  2  0
  5  6  1  0
  6  7  2  0
  6  8  1  0
  8  9  2  0
  8 10  1  0
 10 11  1  0
 11 12  1  0
 12 13  1  0
 13 14  1  0
 14 15  1  0
 15 16  1  0
 16 17  1  6
 13 18  1  0
 18 19  1  0
 19 20  1  0
 20 21  2  0
 21 22  1  0
 21 23  1  0
 23 24  2  0
 24 25  1  0
 25 26  2  0
 24 27  1  0
  5 28  1  0
 28 29  1  0
 29 30  2  0
 30 31  1  0
 31 32  2  0
  7  2  1  0
 16 10  1  0
 22 18  2  0
 32 28  1  0
 26 20  1  0
M  END
$$$$
