
     RDKit          3D

 32 36  0  0  0  0  0  0  0  0999 V2000
    1.9010    7.7573    9.5512 C   0  0  0  0  0  0  0  0  0  0  0  0
    1.2556    6.6991    8.7353 C   0  0  0  0  0  0  0  0  0  0  0  0
    1.0091    6.8300    7.3836 C   0  0  0  0  0  0  0  0  0  0  0  0
    0.4067    5.8348    6.6364 C   0  0  0  0  0  0  0  0  0  0  0  0
    0.0317    4.6524    7.2658 C   0  0  0  0  0  0  0  0  0  0  0  0
    0.2672    4.5005    8.6094 C   0  0  0  0  0  0  0  0  0  0  0  0
    0.8730    5.5164    9.3311 C   0  0  0  0  0  0  0  0  0  0  0  0
   -0.1006    3.2788    9.3471 C   0  0  0  0  0  0  0  0  0  0  0  0
   -1.3000    3.1547    9.6834 O   0  0  0  0  0  0  0  0  0  0  0  0
    0.8652    2.2855    9.6623 N   0  0  0  0  0  0  0  0  0  0  0  0
    2.1912    2.7847    9.8608 C   0  0  0  0  0  0  0  0  0  0  0  0
    2.9472    1.9004   10.8264 C   0  0  0  0  0  0  0  0  0  0  0  0
    3.2234    0.5829   10.2861 N   0  0  0  0  0  0  0  0  0  0  0  0
    2.6460   -0.2305    9.2732 C   0  0  0  0  0  0  0  0  0  0  0  0
    1.2528    0.0052    8.8918 C   0  0  0  0  0  0  0  0  0  0  0  0
    0.4471    0.9127    9.7525 C   0  0  1  0  0  0  0  0  0  0  0  0
    0.3479    0.4301   11.1801 C   0  0  0  0  0  0  0  0  0  0  0  0
    4.3524   -0.0394   10.9369 C   0  0  0  0  0  0  0  0  0  0  0  0
    4.7309   -1.2998   10.8626 O   0  0  0  0  0  0  0  0  0  0  0  0
    5.7856   -1.5472   11.5634 C   0  0  0  0  0  0  0  0  0  0  0  0
    6.1636   -0.3779   12.1645 C   0  0  0  0  0  0  0  0  0  0  0  0
    5.2629    0.5363   11.7615 N   0  0  0  0  0  0  0  0  0  0  0  0
    7.2754   -0.3906   12.9722 C   0  0  0  0  0  0  0  0  0  0  0  0
    8.0150   -1.5331   13.1942 C   0  0  0  0  0  0  0  0  0  0  0  0
    7.6264   -2.7119   12.5828 C   0  0  0  0  0  0  0  0  0  0  0  0
    6.5237   -2.7105   11.7785 C   0  0  0  0  0  0  0  0  0  0  0  0
    9.4208   -1.5453   14.2167 Cl  0  0  0  0  0  0  0  0  0  0  0  0
   -0.5835    3.6227    6.5292 N   0  0  0  0  0  0  0  0  0  0  0  0
   -0.2368    2.3504    6.5828 N   0  0  0  0  0  0  0  0  0  0  0  0
   -1.0220    1.6257    5.7576 C   0  0  0  0  0  0  0  0  0  0  0  0
   -1.8825    2.5061    5.1800 C   0  0  0  0  0  0  0  0  0  0  0  0
   -1.5867    3.7355    5.6776 N   0  0  0  0  0  0  0  0  0  0  0  0
  1  2  1  0
  2  3  2  0
  3  4  1  0
  4  5  2  0
  5  6  1  0
  6  7  2  0
  6  8  1  0
  8  9  2  0
  8 10  1  0
 10 11  1  0
 11 12  1  0
 12 13  1  0
 13 14  1  0
 14 15  1  0
 15 16  1  0
 16 17  1  1
 13 18  1  0
 18 19  1  0
 19 20  1  0
 20 21  2  0
 21 22  1  0
 21 23  1  0
 23 24  2  0
 24 25  1  0
 25 26  2  0
 24 27  1  0
  5 28  1  0
 28 29  1  0
 29 30  2  0
 30 31  1  0
 31 32  2  0
  7  2  1  0
 16 10  1  0
 22 18  2  0
 32 28  1  0
 26 20  1  0
M  END
$$$$
