
     RDKit          3D

 32 36  0  0  0  0  0  0  0  0999 V2000
   -2.3690    4.2604    5.0648 C   0  0  0  0  0  0  0  0  0  0  0  0
   -1.8970    3.1996    5.9887 C   0  0  0  0  0  0  0  0  0  0  0  0
   -1.9423    1.8543    5.6833 C   0  0  0  0  0  0  0  0  0  0  0  0
   -1.4986    0.8771    6.5549 C   0  0  0  0  0  0  0  0  0  0  0  0
   -0.9849    1.2580    7.7902 C   0  0  0  0  0  0  0  0  0  0  0  0
   -0.9303    2.5904    8.1151 C   0  0  0  0  0  0  0  0  0  0  0  0
   -1.3829    3.5463    7.2199 C   0  0  0  0  0  0  0  0  0  0  0  0
   -0.4003    3.0728    9.4029 C   0  0  0  0  0  0  0  0  0  0  0  0
   -1.1947    3.6819   10.1545 O   0  0  0  0  0  0  0  0  0  0  0  0
    0.9539    2.8554    9.7741 N   0  0  0  0  0  0  0  0  0  0  0  0
    1.1288    2.0884   10.9691 C   0  0  0  0  0  0  0  0  0  0  0  0
    2.4330    1.3250   10.9179 C   0  0  0  0  0  0  0  0  0  0  0  0
    3.5955    2.1910   10.9698 N   0  0  0  0  0  0  0  0  0  0  0  0
    3.8485    3.5550   10.6596 C   0  0  0  0  0  0  0  0  0  0  0  0
    2.9612    4.2376    9.7168 C   0  0  0  0  0  0  0  0  0  0  0  0
    1.9974    3.4029    8.9502 C   0  0  1  0  0  0  0  0  0  0  0  0
    2.6768    2.3537    8.1027 C   0  0  0  0  0  0  0  0  0  0  0  0
    4.7645    1.4936   11.4518 C   0  0  0  0  0  0  0  0  0  0  0  0
    6.0271    1.8446   11.3108 O   0  0  0  0  0  0  0  0  0  0  0  0
    6.8428    1.0075   11.8572 C   0  0  0  0  0  0  0  0  0  0  0  0
    6.0937    0.0079   12.4150 C   0  0  0  0  0  0  0  0  0  0  0  0
    4.8152    0.3319   12.1507 N   0  0  0  0  0  0  0  0  0  0  0  0
    6.7482   -1.0126   13.0624 C   0  0  0  0  0  0  0  0  0  0  0  0
    8.1224   -1.0608   13.1667 C   0  0  0  0  0  0  0  0  0  0  0  0
    8.8732   -0.0462   12.6000 C   0  0  0  0  0  0  0  0  0  0  0  0
    8.2333    0.9722   11.9547 C   0  0  0  0  0  0  0  0  0  0  0  0
    8.9466   -2.3533   13.9864 Cl  0  0  0  0  0  0  0  0  0  0  0  0
   -0.5261    0.2840    8.6969 N   0  0  0  0  0  0  0  0  0  0  0  0
   -1.0257    0.0850    9.9021 N   0  0  0  0  0  0  0  0  0  0  0  0
   -0.3634   -0.9202   10.5131 C   0  0  0  0  0  0  0  0  0  0  0  0
    0.5804   -1.3459    9.6315 C   0  0  0  0  0  0  0  0  0  0  0  0
    0.4553   -0.5811    8.5153 N   0  0  0  0  0  0  0  0  0  0  0  0
  1  2  1  0
  2  3  2  0
  3  4  1  0
  4  5  2  0
  5  6  1  0
  6  7  2  0
  6  8  1  0
  8  9  2  0
  8 10  1  0
 10 11  1  0
 11 12  1  0
 12 13  1  0
 13 14  1  0
 14 15  1  0
 15 16  1  0
 16 17  1  1
 13 18  1  0
 18 19  1  0
 19 20  1  0
 20 21  2  0
 21 22  1  0
 21 23  1  0
 23 24  2  0
 24 25  1  0
 25 26  2  0
 24 27  1  0
  5 28  1  0
 28 29  1  0
 29 30  2  0
 30 31  1  0
 31 32  2  0
  7  2  1  0
 16 10  1  0
 22 18  2  0
 32 28  1  0
 26 20  1  0
M  END
$$$$
