
     RDKit          3D

 32 36  0  0  0  0  0  0  0  0999 V2000
   -0.8356   -1.9628    6.9312 C   0  0  0  0  0  0  0  0  0  0  0  0
   -1.1741   -0.5860    7.3689 C   0  0  0  0  0  0  0  0  0  0  0  0
   -2.4387   -0.2097    7.7740 C   0  0  0  0  0  0  0  0  0  0  0  0
   -2.7389    1.0776    8.1794 C   0  0  0  0  0  0  0  0  0  0  0  0
   -1.7310    2.0363    8.1814 C   0  0  0  0  0  0  0  0  0  0  0  0
   -0.4658    1.6843    7.7825 C   0  0  0  0  0  0  0  0  0  0  0  0
   -0.1963    0.3856    7.3817 C   0  0  0  0  0  0  0  0  0  0  0  0
    0.6542    2.6419    7.7570 C   0  0  0  0  0  0  0  0  0  0  0  0
    0.6253    3.5302    6.8755 O   0  0  0  0  0  0  0  0  0  0  0  0
    1.7200    2.5595    8.6930 N   0  0  0  0  0  0  0  0  0  0  0  0
    1.6572    1.4311    9.5703 C   0  0  0  0  0  0  0  0  0  0  0  0
    3.0481    1.0160    9.9938 C   0  0  0  0  0  0  0  0  0  0  0  0
    3.6938    1.9961   10.8461 N   0  0  0  0  0  0  0  0  0  0  0  0
    3.5434    3.3924   11.0666 C   0  0  0  0  0  0  0  0  0  0  0  0
    2.9353    4.2085   10.0148 C   0  0  0  0  0  0  0  0  0  0  0  0
    2.7353    3.5776    8.6824 C   0  0  1  0  0  0  0  0  0  0  0  0
    4.0266    3.1013    8.0607 C   0  0  0  0  0  0  0  0  0  0  0  0
    4.7310    1.4033   11.6573 C   0  0  0  0  0  0  0  0  0  0  0  0
    5.7189    2.0175   12.2771 O   0  0  0  0  0  0  0  0  0  0  0  0
    6.4846    1.2056   12.9245 C   0  0  0  0  0  0  0  0  0  0  0  0
    5.9934   -0.0579   12.7404 C   0  0  0  0  0  0  0  0  0  0  0  0
    4.9117    0.0921   11.9551 N   0  0  0  0  0  0  0  0  0  0  0  0
    6.6497   -1.1056   13.3408 C   0  0  0  0  0  0  0  0  0  0  0  0
    7.7764   -0.9259   14.1152 C   0  0  0  0  0  0  0  0  0  0  0  0
    8.2672    0.3549   14.2967 C   0  0  0  0  0  0  0  0  0  0  0  0
    7.6232    1.4027   13.7050 C   0  0  0  0  0  0  0  0  0  0  0  0
    8.6038   -2.2538   14.8731 Cl  0  0  0  0  0  0  0  0  0  0  0  0
   -2.0088    3.3545    8.5893 N   0  0  0  0  0  0  0  0  0  0  0  0
   -2.7552    4.2083    7.9141 N   0  0  0  0  0  0  0  0  0  0  0  0
   -2.8224    5.3827    8.5765 C   0  0  0  0  0  0  0  0  0  0  0  0
   -2.0799    5.2266    9.7050 C   0  0  0  0  0  0  0  0  0  0  0  0
   -1.5884    3.9598    9.6853 N   0  0  0  0  0  0  0  0  0  0  0  0
  1  2  1  0
  2  3  2  0
  3  4  1  0
  4  5  2  0
  5  6  1  0
  6  7  2  0
  6  8  1  0
  8  9  2  0
  8 10  1  0
 10 11  1  0
 11 12  1  0
 12 13  1  0
 13 14  1  0
 14 15  1  0
 15 16  1  0
 16 17  1  1
 13 18  1  0
 18 19  1  0
 19 20  1  0
 20 21  2  0
 21 22  1  0
 21 23  1  0
 23 24  2  0
 24 25  1  0
 25 26  2  0
 24 27  1  0
  5 28  1  0
 28 29  1  0
 29 30  2  0
 30 31  1  0
 31 32  2  0
  7  2  1  0
 16 10  1  0
 22 18  2  0
 32 28  1  0
 26 20  1  0
M  END
$$$$
