
     RDKit          3D

 32 36  0  0  0  0  0  0  0  0999 V2000
   -1.9235    5.9245    6.0449 C   0  0  0  0  0  0  0  0  0  0  0  0
   -1.6952    4.5874    6.6464 C   0  0  0  0  0  0  0  0  0  0  0  0
   -2.0198    3.4059    6.0110 C   0  0  0  0  0  0  0  0  0  0  0  0
   -1.8010    2.1670    6.5845 C   0  0  0  0  0  0  0  0  0  0  0  0
   -1.2313    2.1017    7.8518 C   0  0  0  0  0  0  0  0  0  0  0  0
   -0.9005    3.2641    8.5023 C   0  0  0  0  0  0  0  0  0  0  0  0
   -1.1323    4.4907    7.9010 C   0  0  0  0  0  0  0  0  0  0  0  0
   -0.2940    3.2776    9.8455 C   0  0  0  0  0  0  0  0  0  0  0  0
   -1.0253    3.6308   10.7981 O   0  0  0  0  0  0  0  0  0  0  0  0
    1.0621    2.9057   10.0490 N   0  0  0  0  0  0  0  0  0  0  0  0
    1.3596    2.4331   11.3662 C   0  0  0  0  0  0  0  0  0  0  0  0
    2.5064    1.4485   11.3253 C   0  0  0  0  0  0  0  0  0  0  0  0
    3.7668    2.0662   10.9595 N   0  0  0  0  0  0  0  0  0  0  0  0
    4.1440    3.2412   10.2538 C   0  0  0  0  0  0  0  0  0  0  0  0
    3.1935    3.8289    9.3087 C   0  0  0  0  0  0  0  0  0  0  0  0
    1.9889    3.0301    8.9567 C   0  0  1  0  0  0  0  0  0  0  0  0
    2.3317    1.6978    8.3335 C   0  0  0  0  0  0  0  0  0  0  0  0
    4.8974    1.2995   11.4277 C   0  0  0  0  0  0  0  0  0  0  0  0
    5.8333    0.7198   10.7029 O   0  0  0  0  0  0  0  0  0  0  0  0
    6.7127    0.1059   11.4203 C   0  0  0  0  0  0  0  0  0  0  0  0
    6.3618    0.2718   12.7321 C   0  0  0  0  0  0  0  0  0  0  0  0
    5.2386    1.0117   12.7088 N   0  0  0  0  0  0  0  0  0  0  0  0
    7.1574   -0.2992   13.6962 C   0  0  0  0  0  0  0  0  0  0  0  0
    8.2871   -1.0269   13.3869 C   0  0  0  0  0  0  0  0  0  0  0  0
    8.6356   -1.1903   12.0579 C   0  0  0  0  0  0  0  0  0  0  0  0
    7.8524   -0.6274   11.0922 C   0  0  0  0  0  0  0  0  0  0  0  0
    9.2911   -1.7477   14.6094 Cl  0  0  0  0  0  0  0  0  0  0  0  0
   -0.9974    0.8536    8.4593 N   0  0  0  0  0  0  0  0  0  0  0  0
   -0.0296    0.0229    8.1204 N   0  0  0  0  0  0  0  0  0  0  0  0
   -0.0811   -1.0818    8.8946 C   0  0  0  0  0  0  0  0  0  0  0  0
   -1.1315   -0.9059    9.7401 C   0  0  0  0  0  0  0  0  0  0  0  0
   -1.6798    0.3024    9.4466 N   0  0  0  0  0  0  0  0  0  0  0  0
  1  2  1  0
  2  3  2  0
  3  4  1  0
  4  5  2  0
  5  6  1  0
  6  7  2  0
  6  8  1  0
  8  9  2  0
  8 10  1  0
 10 11  1  0
 11 12  1  0
 12 13  1  0
 13 14  1  0
 14 15  1  0
 15 16  1  0
 16 17  1  1
 13 18  1  0
 18 19  1  0
 19 20  1  0
 20 21  2  0
 21 22  1  0
 21 23  1  0
 23 24  2  0
 24 25  1  0
 25 26  2  0
 24 27  1  0
  5 28  1  0
 28 29  1  0
 29 30  2  0
 30 31  1  0
 31 32  2  0
  7  2  1  0
 16 10  1  0
 22 18  2  0
 32 28  1  0
 26 20  1  0
M  END
$$$$
