
     RDKit          3D

 32 36  0  0  0  0  0  0  0  0999 V2000
    2.9733   -4.9241   12.6828 O   0  0  0  0  0  0  0  0  0  0  0  0
    2.3244   -4.3759   13.5861 C   0  0  0  0  0  0  0  0  0  0  0  0
    2.5824   -4.4022   15.0249 C   0  0  1  0  0  0  0  0  0  0  0  0
    2.4771   -5.8429   15.4810 C   0  0  0  0  0  0  0  0  0  0  0  0
    3.8485   -6.0792   16.1240 C   0  0  0  0  0  0  0  0  0  0  0  0
    4.1653   -4.6885   16.6174 C   0  0  0  0  0  0  0  0  0  0  0  0
    3.8190   -3.8758   15.4690 N   0  0  1  0  0  4  0  0  0  0  0  0
    4.8512   -3.7402   14.4985 C   0  0  0  0  0  0  0  0  0  0  0  0
    4.6872   -2.5099   13.6636 C   0  0  0  0  0  0  0  0  0  0  0  0
    4.5517   -1.2504   14.2006 C   0  0  0  0  0  0  0  0  0  0  0  0
    4.4003   -0.1354   13.4034 C   0  0  0  0  0  0  0  0  0  0  0  0
    4.3774   -0.2282   12.0295 C   0  0  0  0  0  0  0  0  0  0  0  0
    4.5119   -1.4799   11.4878 C   0  0  0  0  0  0  0  0  0  0  0  0
    4.6638   -2.6031   12.2678 C   0  0  0  0  0  0  0  0  0  0  0  0
    1.1695   -3.6177   13.1510 N   0  0  0  0  0  0  0  0  0  0  0  0
    0.8274   -3.4952   11.7702 C   0  0  0  0  0  0  0  0  0  0  0  0
    1.3667   -2.1944   11.2344 C   0  0  0  0  0  0  0  0  0  0  0  0
    1.0724   -2.0296    9.7806 C   0  0  0  0  0  0  0  0  0  0  0  0
    0.0953   -1.0053    9.5145 N   0  0  0  0  0  4  0  0  0  0  0  0
   -0.3347   -1.0763    8.1424 C   0  0  0  0  0  0  0  0  0  0  0  0
   -1.5315   -0.1876    7.8864 C   0  0  0  0  0  0  0  0  0  0  0  0
   -1.3784    1.1670    8.5528 C   0  0  0  0  0  0  0  0  0  0  0  0
    0.0735    1.3769    8.9314 C   0  0  0  0  0  0  0  0  0  0  0  0
    0.5098    0.3109    9.9103 C   0  0  0  0  0  0  0  0  0  0  0  0
   -2.1537    1.2697    9.6806 O   0  0  0  0  0  0  0  0  0  0  0  0
   -3.3784    1.8188    9.2792 C   0  0  0  0  0  0  0  0  0  0  0  0
   -3.0301    2.6998    8.1318 C   0  0  0  0  0  0  0  0  0  0  0  0
   -1.7940    2.2810    7.7021 C   0  0  0  0  0  0  0  0  0  0  0  0
   -1.2158    2.9354    6.6297 C   0  0  0  0  0  0  0  0  0  0  0  0
   -1.8728    3.9736    6.0223 C   0  0  0  0  0  0  0  0  0  0  0  0
   -3.1040    4.3648    6.4768 C   0  0  0  0  0  0  0  0  0  0  0  0
   -3.7033    3.7280    7.5459 C   0  0  0  0  0  0  0  0  0  0  0  0
  1  2  2  0
  3  2  1  6
  3  4  1  0
  4  5  1  0
  5  6  1  0
  6  7  1  0
  7  8  1  6
  8  9  1  0
  9 10  2  0
 10 11  1  0
 11 12  2  0
 12 13  1  0
 13 14  2  0
  2 15  1  0
 15 16  1  0
 16 17  1  0
 17 18  1  0
 18 19  1  0
 19 20  1  0
 20 21  1  0
 21 22  1  0
 22 23  1  0
 23 24  1  0
 22 25  1  0
 25 26  1  0
 26 27  1  0
 27 28  2  0
 28 29  1  0
 29 30  2  0
 30 31  1  0
 31 32  2  0
  7  3  1  0
 14  9  1  0
 24 19  1  0
 32 27  1  0
 28 22  1  0
M  CHG  2   7   1  19   1
M  END
$$$$
