
     RDKit          3D

 32 36  0  0  0  0  0  0  0  0999 V2000
    1.5975   -4.6127   13.4661 O   0  0  0  0  0  0  0  0  0  0  0  0
    2.6156   -4.2717   12.8460 C   0  0  0  0  0  0  0  0  0  0  0  0
    4.0068   -4.6114   13.1405 C   0  0  1  0  0  0  0  0  0  0  0  0
    4.8304   -4.2619   11.9181 C   0  0  0  0  0  0  0  0  0  0  0  0
    5.8687   -3.2926   12.4946 C   0  0  0  0  0  0  0  0  0  0  0  0
    5.9845   -3.8187   13.9045 C   0  0  0  0  0  0  0  0  0  0  0  0
    4.5950   -3.9993   14.2731 N   0  0  1  0  0  4  0  0  0  0  0  0
    3.9556   -2.8357   14.7859 C   0  0  0  0  0  0  0  0  0  0  0  0
    3.6359   -2.9587   16.2419 C   0  0  0  0  0  0  0  0  0  0  0  0
    2.8157   -3.9394   16.7506 C   0  0  0  0  0  0  0  0  0  0  0  0
    2.5389   -4.0250   18.0987 C   0  0  0  0  0  0  0  0  0  0  0  0
    3.0704   -3.1323   19.0028 C   0  0  0  0  0  0  0  0  0  0  0  0
    3.8885   -2.1528   18.5030 C   0  0  0  0  0  0  0  0  0  0  0  0
    4.1754   -2.0524   17.1612 C   0  0  0  0  0  0  0  0  0  0  0  0
    2.3872   -3.4327   11.6876 N   0  0  0  0  0  0  0  0  0  0  0  0
    1.1025   -2.8790   11.4020 C   0  0  0  0  0  0  0  0  0  0  0  0
    1.1455   -2.1749   10.0706 C   0  0  0  0  0  0  0  0  0  0  0  0
   -0.2204   -1.8121    9.5915 C   0  0  0  0  0  0  0  0  0  0  0  0
   -0.3995   -0.3936    9.4162 N   0  0  0  0  0  4  0  0  0  0  0  0
   -1.8014   -0.0797    9.3230 C   0  0  0  0  0  0  0  0  0  0  0  0
   -2.0443    1.4118    9.3870 C   0  0  0  0  0  0  0  0  0  0  0  0
   -1.0480    2.1804    8.5391 C   0  0  0  0  0  0  0  0  0  0  0  0
   -0.3709    1.2271    7.5756 C   0  0  0  0  0  0  0  0  0  0  0  0
    0.3775    0.1627    8.3448 C   0  0  0  0  0  0  0  0  0  0  0  0
   -0.0908    2.7930    9.3085 O   0  0  0  0  0  0  0  0  0  0  0  0
   -0.5609    4.0833    9.5851 C   0  0  0  0  0  0  0  0  0  0  0  0
   -1.3720    4.4449    8.3913 C   0  0  0  0  0  0  0  0  0  0  0  0
   -1.6588    3.2576    7.7619 C   0  0  0  0  0  0  0  0  0  0  0  0
   -2.4125    3.2947    6.6030 C   0  0  0  0  0  0  0  0  0  0  0  0
   -2.8544    4.4940    6.1083 C   0  0  0  0  0  0  0  0  0  0  0  0
   -2.5501    5.6585    6.7615 C   0  0  0  0  0  0  0  0  0  0  0  0
   -1.7990    5.6490    7.9206 C   0  0  0  0  0  0  0  0  0  0  0  0
  1  2  2  0
  3  2  1  6
  3  4  1  0
  4  5  1  0
  5  6  1  0
  6  7  1  0
  7  8  1  6
  8  9  1  0
  9 10  2  0
 10 11  1  0
 11 12  2  0
 12 13  1  0
 13 14  2  0
  2 15  1  0
 15 16  1  0
 16 17  1  0
 17 18  1  0
 18 19  1  0
 19 20  1  0
 20 21  1  0
 21 22  1  0
 22 23  1  0
 23 24  1  0
 22 25  1  0
 25 26  1  0
 26 27  1  0
 27 28  2  0
 28 29  1  0
 29 30  2  0
 30 31  1  0
 31 32  2  0
  7  3  1  0
 14  9  1  0
 24 19  1  0
 32 27  1  0
 28 22  1  0
M  CHG  2   7   1  19   1
M  END
$$$$
