
     RDKit          3D

 32 36  0  0  0  0  0  0  0  0999 V2000
    2.5479   -4.1932   13.4484 O   0  0  0  0  0  0  0  0  0  0  0  0
    1.7638   -4.5759   12.5674 C   0  0  0  0  0  0  0  0  0  0  0  0
    1.5814   -5.9310   12.0496 C   0  0  1  0  0  0  0  0  0  0  0  0
    1.0993   -5.8115   10.6185 C   0  0  0  0  0  0  0  0  0  0  0  0
    2.1602   -6.6100    9.8525 C   0  0  0  0  0  0  0  0  0  0  0  0
    2.5552   -7.6210   10.9012 C   0  0  0  0  0  0  0  0  0  0  0  0
    2.7059   -6.7901   12.0784 N   0  0  1  0  0  4  0  0  0  0  0  0
    3.9838   -6.1798   12.2207 C   0  0  0  0  0  0  0  0  0  0  0  0
    4.2758   -5.7976   13.6371 C   0  0  0  0  0  0  0  0  0  0  0  0
    4.2636   -4.4955   14.0814 C   0  0  0  0  0  0  0  0  0  0  0  0
    4.5390   -4.1754   15.3942 C   0  0  0  0  0  0  0  0  0  0  0  0
    4.8399   -5.1444   16.3255 C   0  0  0  0  0  0  0  0  0  0  0  0
    4.8537   -6.4437   15.8897 C   0  0  0  0  0  0  0  0  0  0  0  0
    4.5815   -6.7812   14.5840 C   0  0  0  0  0  0  0  0  0  0  0  0
    0.9296   -3.5447   11.9856 N   0  0  0  0  0  0  0  0  0  0  0  0
    1.1498   -2.1596   12.2534 C   0  0  0  0  0  0  0  0  0  0  0  0
    0.5231   -1.3327   11.1610 C   0  0  0  0  0  0  0  0  0  0  0  0
    0.4170    0.1052   11.5463 C   0  0  0  0  0  0  0  0  0  0  0  0
   -0.3917    0.8757   10.6368 N   0  0  0  0  0  4  0  0  0  0  0  0
    0.1389    0.7815    9.3018 C   0  0  0  0  0  0  0  0  0  0  0  0
   -0.8118    1.3670    8.2814 C   0  0  0  0  0  0  0  0  0  0  0  0
   -1.4099    2.6776    8.7575 C   0  0  0  0  0  0  0  0  0  0  0  0
   -0.5892    3.2110    9.9140 C   0  0  0  0  0  0  0  0  0  0  0  0
   -0.6174    2.2282   11.0621 C   0  0  0  0  0  0  0  0  0  0  0  0
   -2.7112    2.5244    9.1661 O   0  0  0  0  0  0  0  0  0  0  0  0
   -3.5172    2.7824    8.0498 C   0  0  0  0  0  0  0  0  0  0  0  0
   -2.7497    3.7861    7.2639 C   0  0  0  0  0  0  0  0  0  0  0  0
   -1.4554    3.7047    7.7181 C   0  0  0  0  0  0  0  0  0  0  0  0
   -0.5085    4.5402    7.1544 C   0  0  0  0  0  0  0  0  0  0  0  0
   -0.8689    5.4213    6.1684 C   0  0  0  0  0  0  0  0  0  0  0  0
   -2.1683    5.4758    5.7395 C   0  0  0  0  0  0  0  0  0  0  0  0
   -3.1332    4.6524    6.2860 C   0  0  0  0  0  0  0  0  0  0  0  0
  1  2  2  0
  3  2  1  6
  3  4  1  0
  4  5  1  0
  5  6  1  0
  6  7  1  0
  7  8  1  6
  8  9  1  0
  9 10  2  0
 10 11  1  0
 11 12  2  0
 12 13  1  0
 13 14  2  0
  2 15  1  0
 15 16  1  0
 16 17  1  0
 17 18  1  0
 18 19  1  0
 19 20  1  0
 20 21  1  0
 21 22  1  0
 22 23  1  0
 23 24  1  0
 22 25  1  0
 25 26  1  0
 26 27  1  0
 27 28  2  0
 28 29  1  0
 29 30  2  0
 30 31  1  0
 31 32  2  0
  7  3  1  0
 14  9  1  0
 24 19  1  0
 32 27  1  0
 28 22  1  0
M  CHG  2   7   1  19   1
M  END
$$$$
