
     RDKit          3D

 32 36  0  0  0  0  0  0  0  0999 V2000
    3.6591   -4.4220   12.4161 O   0  0  0  0  0  0  0  0  0  0  0  0
    2.7762   -4.1381   13.2392 C   0  0  0  0  0  0  0  0  0  0  0  0
    2.7854   -4.3609   14.6841 C   0  0  1  0  0  0  0  0  0  0  0  0
    2.6473   -5.8513   14.9168 C   0  0  0  0  0  0  0  0  0  0  0  0
    3.8954   -6.1652   15.7499 C   0  0  0  0  0  0  0  0  0  0  0  0
    4.0811   -4.8537   16.4734 C   0  0  0  0  0  0  0  0  0  0  0  0
    3.9116   -3.8927   15.4025 N   0  0  1  0  0  4  0  0  0  0  0  0
    5.0897   -3.6179   14.6527 C   0  0  0  0  0  0  0  0  0  0  0  0
    4.9680   -2.3662   13.8427 C   0  0  0  0  0  0  0  0  0  0  0  0
    5.2532   -2.3113   12.4978 C   0  0  0  0  0  0  0  0  0  0  0  0
    5.1326   -1.1406   11.7790 C   0  0  0  0  0  0  0  0  0  0  0  0
    4.7204    0.0317   12.3727 C   0  0  0  0  0  0  0  0  0  0  0  0
    4.4346   -0.0159   13.7123 C   0  0  0  0  0  0  0  0  0  0  0  0
    4.5493   -1.1748   14.4449 C   0  0  0  0  0  0  0  0  0  0  0  0
    1.5931   -3.5079   12.6906 N   0  0  0  0  0  0  0  0  0  0  0  0
    1.4873   -3.1861   11.3036 C   0  0  0  0  0  0  0  0  0  0  0  0
    0.0501   -2.8824   10.9682 C   0  0  0  0  0  0  0  0  0  0  0  0
   -0.1222   -2.5430    9.5253 C   0  0  0  0  0  0  0  0  0  0  0  0
   -0.2546   -1.1282    9.2895 N   0  0  0  0  0  4  0  0  0  0  0  0
   -1.4415   -0.6284    9.9330 C   0  0  0  0  0  0  0  0  0  0  0  0
   -1.4880    0.8833    9.9207 C   0  0  0  0  0  0  0  0  0  0  0  0
   -1.0734    1.4474    8.5745 C   0  0  0  0  0  0  0  0  0  0  0  0
   -1.1245    0.3472    7.5341 C   0  0  0  0  0  0  0  0  0  0  0  0
   -0.1626   -0.7581    7.9055 C   0  0  0  0  0  0  0  0  0  0  0  0
    0.1952    1.9698    8.6105 O   0  0  0  0  0  0  0  0  0  0  0  0
    0.0628    3.3286    8.9246 C   0  0  0  0  0  0  0  0  0  0  0  0
   -1.2431    3.7201    8.3284 C   0  0  0  0  0  0  0  0  0  0  0  0
   -1.9248    2.5455    8.1199 C   0  0  0  0  0  0  0  0  0  0  0  0
   -3.1896    2.6107    7.5644 C   0  0  0  0  0  0  0  0  0  0  0  0
   -3.7345    3.8246    7.2360 C   0  0  0  0  0  0  0  0  0  0  0  0
   -3.0268    4.9759    7.4576 C   0  0  0  0  0  0  0  0  0  0  0  0
   -1.7619    4.9383    8.0111 C   0  0  0  0  0  0  0  0  0  0  0  0
  1  2  2  0
  3  2  1  6
  3  4  1  0
  4  5  1  0
  5  6  1  0
  6  7  1  0
  7  8  1  6
  8  9  1  0
  9 10  2  0
 10 11  1  0
 11 12  2  0
 12 13  1  0
 13 14  2  0
  2 15  1  0
 15 16  1  0
 16 17  1  0
 17 18  1  0
 18 19  1  0
 19 20  1  0
 20 21  1  0
 21 22  1  0
 22 23  1  0
 23 24  1  0
 22 25  1  0
 25 26  1  0
 26 27  1  0
 27 28  2  0
 28 29  1  0
 29 30  2  0
 30 31  1  0
 31 32  2  0
  7  3  1  0
 14  9  1  0
 24 19  1  0
 32 27  1  0
 28 22  1  0
M  CHG  2   7   1  19   1
M  END
$$$$
