
     RDKit          3D

 32 36  0  0  0  0  0  0  0  0999 V2000
    3.4112   -5.3894   12.4378 O   0  0  0  0  0  0  0  0  0  0  0  0
    3.1300   -4.4228   13.1618 C   0  0  0  0  0  0  0  0  0  0  0  0
    3.1961   -4.3393   14.6199 C   0  0  1  0  0  0  0  0  0  0  0  0
    3.5851   -5.7085   15.1382 C   0  0  0  0  0  0  0  0  0  0  0  0
    4.8521   -5.4008   15.9445 C   0  0  0  0  0  0  0  0  0  0  0  0
    4.5569   -3.9908   16.3948 C   0  0  0  0  0  0  0  0  0  0  0  0
    4.0770   -3.3789   15.1724 N   0  0  1  0  0  4  0  0  0  0  0  0
    5.0949   -2.8672   14.3194 C   0  0  0  0  0  0  0  0  0  0  0  0
    4.6679   -1.6215   13.6100 C   0  0  0  0  0  0  0  0  0  0  0  0
    4.0226   -0.5822   14.2398 C   0  0  0  0  0  0  0  0  0  0  0  0
    3.6401    0.5532   13.5570 C   0  0  0  0  0  0  0  0  0  0  0  0
    3.8854    0.7024   12.2100 C   0  0  0  0  0  0  0  0  0  0  0  0
    4.5279   -0.3291   11.5763 C   0  0  0  0  0  0  0  0  0  0  0  0
    4.9167   -1.4689   12.2417 C   0  0  0  0  0  0  0  0  0  0  0  0
    2.6815   -3.2339   12.4666 N   0  0  0  0  0  0  0  0  0  0  0  0
    2.2037   -3.2845   11.1221 C   0  0  0  0  0  0  0  0  0  0  0  0
    1.2689   -2.1281   10.8792 C   0  0  0  0  0  0  0  0  0  0  0  0
    0.8738   -2.0273    9.4436 C   0  0  0  0  0  0  0  0  0  0  0  0
   -0.0128   -0.9237    9.1777 N   0  0  0  0  0  4  0  0  0  0  0  0
   -0.3958   -0.9201    7.7899 C   0  0  0  0  0  0  0  0  0  0  0  0
   -1.5119    0.0649    7.5221 C   0  0  0  0  0  0  0  0  0  0  0  0
   -1.2820    1.3830    8.2377 C   0  0  0  0  0  0  0  0  0  0  0  0
    0.1665    1.4697    8.6730 C   0  0  0  0  0  0  0  0  0  0  0  0
    0.4848    0.3444    9.6308 C   0  0  0  0  0  0  0  0  0  0  0  0
   -2.0886    1.5105    9.3407 O   0  0  0  0  0  0  0  0  0  0  0  0
   -3.2528    2.1635    8.9155 C   0  0  0  0  0  0  0  0  0  0  0  0
   -2.7968    3.0496    7.8106 C   0  0  0  0  0  0  0  0  0  0  0  0
   -1.5807    2.5507    7.4103 C   0  0  0  0  0  0  0  0  0  0  0  0
   -0.9155    3.1911    6.3808 C   0  0  0  0  0  0  0  0  0  0  0  0
   -1.4695    4.2944    5.7856 C   0  0  0  0  0  0  0  0  0  0  0  0
   -2.6837    4.7647    6.2098 C   0  0  0  0  0  0  0  0  0  0  0  0
   -3.3685    4.1436    7.2359 C   0  0  0  0  0  0  0  0  0  0  0  0
  1  2  2  0
  3  2  1  6
  3  4  1  0
  4  5  1  0
  5  6  1  0
  6  7  1  0
  7  8  1  6
  8  9  1  0
  9 10  2  0
 10 11  1  0
 11 12  2  0
 12 13  1  0
 13 14  2  0
  2 15  1  0
 15 16  1  0
 16 17  1  0
 17 18  1  0
 18 19  1  0
 19 20  1  0
 20 21  1  0
 21 22  1  0
 22 23  1  0
 23 24  1  0
 22 25  1  0
 25 26  1  0
 26 27  1  0
 27 28  2  0
 28 29  1  0
 29 30  2  0
 30 31  1  0
 31 32  2  0
  7  3  1  0
 14  9  1  0
 24 19  1  0
 32 27  1  0
 28 22  1  0
M  CHG  2   7   1  19   1
M  END
$$$$
