
     RDKit          3D

 32 36  0  0  0  0  0  0  0  0999 V2000
    1.7278   -1.8257   14.3474 O   0  0  0  0  0  0  0  0  0  0  0  0
    2.5704   -1.9241   13.4430 C   0  0  0  0  0  0  0  0  0  0  0  0
    3.6763   -1.0176   13.1386 C   0  0  1  0  0  0  0  0  0  0  0  0
    3.5723    0.1623   14.0828 C   0  0  0  0  0  0  0  0  0  0  0  0
    4.9400    0.1438   14.7749 C   0  0  0  0  0  0  0  0  0  0  0  0
    5.7970   -0.4377   13.6770 C   0  0  0  0  0  0  0  0  0  0  0  0
    4.9864   -1.5476   13.2186 N   0  0  1  0  0  4  0  0  0  0  0  0
    5.1530   -2.7545   13.9543 C   0  0  0  0  0  0  0  0  0  0  0  0
    5.0111   -3.9688   13.0924 C   0  0  0  0  0  0  0  0  0  0  0  0
    5.7313   -4.1568   11.9352 C   0  0  0  0  0  0  0  0  0  0  0  0
    5.5762   -5.2874   11.1611 C   0  0  0  0  0  0  0  0  0  0  0  0
    4.6920   -6.2845   11.5087 C   0  0  0  0  0  0  0  0  0  0  0  0
    3.9713   -6.1037   12.6603 C   0  0  0  0  0  0  0  0  0  0  0  0
    4.1131   -4.9823   13.4447 C   0  0  0  0  0  0  0  0  0  0  0  0
    2.4329   -3.0849   12.5877 N   0  0  0  0  0  0  0  0  0  0  0  0
    1.2466   -3.3240   11.8299 C   0  0  0  0  0  0  0  0  0  0  0  0
    1.4378   -2.8122   10.4258 C   0  0  0  0  0  0  0  0  0  0  0  0
    0.1375   -2.6619    9.7091 C   0  0  0  0  0  0  0  0  0  0  0  0
   -0.0088   -1.3810    9.0666 N   0  0  0  0  0  4  0  0  0  0  0  0
   -0.2739   -0.3624   10.0488 C   0  0  0  0  0  0  0  0  0  0  0  0
   -0.1889    1.0243    9.4508 C   0  0  0  0  0  0  0  0  0  0  0  0
   -0.8706    1.0954    8.0971 C   0  0  0  0  0  0  0  0  0  0  0  0
   -1.7704   -0.1115    7.9263 C   0  0  0  0  0  0  0  0  0  0  0  0
   -0.9483   -1.3788    7.9811 C   0  0  0  0  0  0  0  0  0  0  0  0
    0.0393    1.1235    7.0700 O   0  0  0  0  0  0  0  0  0  0  0  0
    0.2979    2.4730    6.7974 C   0  0  0  0  0  0  0  0  0  0  0  0
   -0.9783    3.1664    7.1204 C   0  0  0  0  0  0  0  0  0  0  0  0
   -1.6821    2.2985    7.9201 C   0  0  0  0  0  0  0  0  0  0  0  0
   -2.9278    2.6898    8.3757 C   0  0  0  0  0  0  0  0  0  0  0  0
   -3.4329    3.9158    8.0289 C   0  0  0  0  0  0  0  0  0  0  0  0
   -2.7040    4.7560    7.2300 C   0  0  0  0  0  0  0  0  0  0  0  0
   -1.4575    4.3893    6.7616 C   0  0  0  0  0  0  0  0  0  0  0  0
  1  2  2  0
  3  2  1  1
  3  4  1  0
  4  5  1  0
  5  6  1  0
  6  7  1  0
  7  8  1  1
  8  9  1  0
  9 10  2  0
 10 11  1  0
 11 12  2  0
 12 13  1  0
 13 14  2  0
  2 15  1  0
 15 16  1  0
 16 17  1  0
 17 18  1  0
 18 19  1  0
 19 20  1  0
 20 21  1  0
 21 22  1  0
 22 23  1  0
 23 24  1  0
 22 25  1  0
 25 26  1  0
 26 27  1  0
 27 28  2  0
 28 29  1  0
 29 30  2  0
 30 31  1  0
 31 32  2  0
  7  3  1  0
 14  9  1  0
 24 19  1  0
 32 27  1  0
 28 22  1  0
M  CHG  2   7   1  19   1
M  END
$$$$
