
     RDKit          3D

 32 36  0  0  0  0  0  0  0  0999 V2000
    2.0700   -5.4753   12.4162 O   0  0  0  0  0  0  0  0  0  0  0  0
    2.2433   -4.5576   13.2319 C   0  0  0  0  0  0  0  0  0  0  0  0
    2.6433   -4.6614   14.6343 C   0  0  1  0  0  0  0  0  0  0  0  0
    2.8891   -6.1264   14.9313 C   0  0  0  0  0  0  0  0  0  0  0  0
    4.3367   -6.1153   15.4356 C   0  0  0  0  0  0  0  0  0  0  0  0
    4.4018   -4.7414   16.0572 C   0  0  0  0  0  0  0  0  0  0  0  0
    3.7797   -3.9205   15.0382 N   0  0  1  0  0  4  0  0  0  0  0  0
    4.6582   -3.4714   14.0125 C   0  0  0  0  0  0  0  0  0  0  0  0
    4.6778   -1.9803   13.8946 C   0  0  0  0  0  0  0  0  0  0  0  0
    3.5713   -1.2399   13.5474 C   0  0  0  0  0  0  0  0  0  0  0  0
    3.6222    0.1344   13.4454 C   0  0  0  0  0  0  0  0  0  0  0  0
    4.7841    0.8335   13.6864 C   0  0  0  0  0  0  0  0  0  0  0  0
    5.8901    0.1022   14.0328 C   0  0  0  0  0  0  0  0  0  0  0  0
    5.8576   -1.2692   14.1392 C   0  0  0  0  0  0  0  0  0  0  0  0
    2.0191   -3.2206   12.7218 N   0  0  0  0  0  0  0  0  0  0  0  0
    0.7931   -2.8533   12.0889 C   0  0  0  0  0  0  0  0  0  0  0  0
    0.9571   -1.5135   11.4194 C   0  0  0  0  0  0  0  0  0  0  0  0
    0.4433   -1.5278   10.0184 C   0  0  0  0  0  0  0  0  0  0  0  0
   -0.3686   -0.3807    9.7025 N   0  0  0  0  0  4  0  0  0  0  0  0
   -0.9749   -0.5454    8.4072 C   0  0  0  0  0  0  0  0  0  0  0  0
   -2.0234    0.5124    8.1437 C   0  0  0  0  0  0  0  0  0  0  0  0
   -1.5562    1.8881    8.5812 C   0  0  0  0  0  0  0  0  0  0  0  0
   -0.0538    1.8678    8.7751 C   0  0  0  0  0  0  0  0  0  0  0  0
    0.3131    0.8737    9.8530 C   0  0  0  0  0  0  0  0  0  0  0  0
   -2.1529    2.2791    9.7537 O   0  0  0  0  0  0  0  0  0  0  0  0
   -3.3056    2.9927    9.4009 C   0  0  0  0  0  0  0  0  0  0  0  0
   -2.9592    3.6374    8.1054 C   0  0  0  0  0  0  0  0  0  0  0  0
   -1.8783    2.9416    7.6201 C   0  0  0  0  0  0  0  0  0  0  0  0
   -1.3368    3.3321    6.4089 C   0  0  0  0  0  0  0  0  0  0  0  0
   -1.8769    4.3885    5.7229 C   0  0  0  0  0  0  0  0  0  0  0  0
   -2.9546    5.0596    6.2362 C   0  0  0  0  0  0  0  0  0  0  0  0
   -3.5142    4.6899    7.4436 C   0  0  0  0  0  0  0  0  0  0  0  0
  1  2  2  0
  3  2  1  6
  3  4  1  0
  4  5  1  0
  5  6  1  0
  6  7  1  0
  7  8  1  6
  8  9  1  0
  9 10  2  0
 10 11  1  0
 11 12  2  0
 12 13  1  0
 13 14  2  0
  2 15  1  0
 15 16  1  0
 16 17  1  0
 17 18  1  0
 18 19  1  0
 19 20  1  0
 20 21  1  0
 21 22  1  0
 22 23  1  0
 23 24  1  0
 22 25  1  0
 25 26  1  0
 26 27  1  0
 27 28  2  0
 28 29  1  0
 29 30  2  0
 30 31  1  0
 31 32  2  0
  7  3  1  0
 14  9  1  0
 24 19  1  0
 32 27  1  0
 28 22  1  0
M  CHG  2   7   1  19   1
M  END
$$$$
