
     RDKit          3D

 32 36  0  0  0  0  0  0  0  0999 V2000
    1.4025   -4.3887   14.2315 O   0  0  0  0  0  0  0  0  0  0  0  0
    2.1336   -4.4472   13.2318 C   0  0  0  0  0  0  0  0  0  0  0  0
    3.2907   -5.3131   13.0105 C   0  0  1  0  0  0  0  0  0  0  0  0
    3.6496   -5.9438   14.3403 C   0  0  0  0  0  0  0  0  0  0  0  0
    3.5782   -7.4407   14.0176 C   0  0  0  0  0  0  0  0  0  0  0  0
    3.9620   -7.4269   12.5579 C   0  0  0  0  0  0  0  0  0  0  0  0
    3.1542   -6.3390   12.0449 N   0  0  1  0  0  4  0  0  0  0  0  0
    1.8306   -6.7021   11.6683 C   0  0  0  0  0  0  0  0  0  0  0  0
    1.2908   -5.8300   10.5795 C   0  0  0  0  0  0  0  0  0  0  0  0
    1.8664   -5.7418    9.3329 C   0  0  0  0  0  0  0  0  0  0  0  0
    1.3453   -4.9266    8.3504 C   0  0  0  0  0  0  0  0  0  0  0  0
    0.2222   -4.1600    8.5690 C   0  0  0  0  0  0  0  0  0  0  0  0
   -0.3563   -4.2430    9.8087 C   0  0  0  0  0  0  0  0  0  0  0  0
    0.1499   -5.0509   10.8006 C   0  0  0  0  0  0  0  0  0  0  0  0
    1.7901   -3.5411   12.1553 N   0  0  0  0  0  0  0  0  0  0  0  0
    1.8761   -2.1242   12.3091 C   0  0  0  0  0  0  0  0  0  0  0  0
    1.8650   -1.4716   10.9511 C   0  0  0  0  0  0  0  0  0  0  0  0
    1.9171    0.0164   11.0512 C   0  0  0  0  0  0  0  0  0  0  0  0
    0.9832    0.6748   10.1740 N   0  0  0  0  0  4  0  0  0  0  0  0
    1.3426    2.0601   10.0188 C   0  0  0  0  0  0  0  0  0  0  0  0
    0.5422    2.7242    8.9206 C   0  0  0  0  0  0  0  0  0  0  0  0
   -0.9228    2.3338    8.9782 C   0  0  0  0  0  0  0  0  0  0  0  0
   -1.2260    1.7279   10.3333 C   0  0  0  0  0  0  0  0  0  0  0  0
   -0.3918    0.4843   10.5398 C   0  0  0  0  0  0  0  0  0  0  0  0
   -1.2465    1.4265    8.0005 O   0  0  0  0  0  0  0  0  0  0  0  0
   -1.6841    2.1656    6.8938 C   0  0  0  0  0  0  0  0  0  0  0  0
   -2.3130    3.3779    7.4843 C   0  0  0  0  0  0  0  0  0  0  0  0
   -1.8309    3.4602    8.7683 C   0  0  0  0  0  0  0  0  0  0  0  0
   -2.2567    4.5088    9.5631 C   0  0  0  0  0  0  0  0  0  0  0  0
   -3.1377    5.4339    9.0668 C   0  0  0  0  0  0  0  0  0  0  0  0
   -3.5980    5.3213    7.7820 C   0  0  0  0  0  0  0  0  0  0  0  0
   -3.1885    4.2837    6.9676 C   0  0  0  0  0  0  0  0  0  0  0  0
  1  2  2  0
  3  2  1  1
  3  4  1  0
  4  5  1  0
  5  6  1  0
  6  7  1  0
  7  8  1  1
  8  9  1  0
  9 10  2  0
 10 11  1  0
 11 12  2  0
 12 13  1  0
 13 14  2  0
  2 15  1  0
 15 16  1  0
 16 17  1  0
 17 18  1  0
 18 19  1  0
 19 20  1  0
 20 21  1  0
 21 22  1  0
 22 23  1  0
 23 24  1  0
 22 25  1  0
 25 26  1  0
 26 27  1  0
 27 28  2  0
 28 29  1  0
 29 30  2  0
 30 31  1  0
 31 32  2  0
  7  3  1  0
 14  9  1  0
 24 19  1  0
 32 27  1  0
 28 22  1  0
M  CHG  2   7   1  19   1
M  END
$$$$
