
     RDKit          3D

 32 36  0  0  0  0  0  0  0  0999 V2000
    3.9102   -4.4879   12.2867 O   0  0  0  0  0  0  0  0  0  0  0  0
    3.1257   -4.0153   13.1226 C   0  0  0  0  0  0  0  0  0  0  0  0
    3.1796   -4.1357   14.5787 C   0  0  1  0  0  0  0  0  0  0  0  0
    3.3428   -5.6050   14.9092 C   0  0  0  0  0  0  0  0  0  0  0  0
    4.6285   -5.6074   15.7440 C   0  0  0  0  0  0  0  0  0  0  0  0
    4.5481   -4.2403   16.3786 C   0  0  0  0  0  0  0  0  0  0  0  0
    4.1894   -3.4056   15.2501 N   0  0  1  0  0  4  0  0  0  0  0  0
    5.2885   -2.9511   14.4683 C   0  0  0  0  0  0  0  0  0  0  0  0
    5.0281   -1.6166   13.8448 C   0  0  0  0  0  0  0  0  0  0  0  0
    4.7141   -1.4576   12.5147 C   0  0  0  0  0  0  0  0  0  0  0  0
    4.4812   -0.2127   11.9691 C   0  0  0  0  0  0  0  0  0  0  0  0
    4.5516    0.9333   12.7298 C   0  0  0  0  0  0  0  0  0  0  0  0
    4.8640    0.7822   14.0556 C   0  0  0  0  0  0  0  0  0  0  0  0
    5.0994   -0.4518   14.6166 C   0  0  0  0  0  0  0  0  0  0  0  0
    2.0225   -3.2507   12.5784 N   0  0  0  0  0  0  0  0  0  0  0  0
    2.0471   -2.7400   11.2453 C   0  0  0  0  0  0  0  0  0  0  0  0
    0.6432   -2.6956   10.7002 C   0  0  0  0  0  0  0  0  0  0  0  0
    0.6116   -2.2078    9.2902 C   0  0  0  0  0  0  0  0  0  0  0  0
   -0.1393   -0.9890    9.1307 N   0  0  0  0  0  4  0  0  0  0  0  0
   -0.6393   -0.8885    7.7844 C   0  0  0  0  0  0  0  0  0  0  0  0
   -1.6327    0.2429    7.6414 C   0  0  0  0  0  0  0  0  0  0  0  0
   -1.1664    1.4947    8.3611 C   0  0  0  0  0  0  0  0  0  0  0  0
    0.3134    1.3757    8.6633 C   0  0  0  0  0  0  0  0  0  0  0  0
    0.5615    0.1869    9.5634 C   0  0  0  0  0  0  0  0  0  0  0  0
   -1.8482    1.6899    9.5361 O   0  0  0  0  0  0  0  0  0  0  0  0
   -2.9474    2.5040    9.2338 C   0  0  0  0  0  0  0  0  0  0  0  0
   -2.4762    3.3592    8.1110 C   0  0  0  0  0  0  0  0  0  0  0  0
   -1.3779    2.7186    7.5900 C   0  0  0  0  0  0  0  0  0  0  0  0
   -0.7264    3.3003    6.5178 C   0  0  0  0  0  0  0  0  0  0  0  0
   -1.1781    4.4861    5.9999 C   0  0  0  0  0  0  0  0  0  0  0  0
   -2.2762    5.0973    6.5439 C   0  0  0  0  0  0  0  0  0  0  0  0
   -2.9448    4.5374    7.6149 C   0  0  0  0  0  0  0  0  0  0  0  0
  1  2  2  0
  3  2  1  6
  3  4  1  0
  4  5  1  0
  5  6  1  0
  6  7  1  0
  7  8  1  6
  8  9  1  0
  9 10  2  0
 10 11  1  0
 11 12  2  0
 12 13  1  0
 13 14  2  0
  2 15  1  0
 15 16  1  0
 16 17  1  0
 17 18  1  0
 18 19  1  0
 19 20  1  0
 20 21  1  0
 21 22  1  0
 22 23  1  0
 23 24  1  0
 22 25  1  0
 25 26  1  0
 26 27  1  0
 27 28  2  0
 28 29  1  0
 29 30  2  0
 30 31  1  0
 31 32  2  0
  7  3  1  0
 14  9  1  0
 24 19  1  0
 32 27  1  0
 28 22  1  0
M  CHG  2   7   1  19   1
M  END
$$$$
