
     RDKit          3D

 32 36  0  0  0  0  0  0  0  0999 V2000
    0.7643   -2.9659   14.9740 O   0  0  0  0  0  0  0  0  0  0  0  0
    1.6803   -3.5217   14.3499 C   0  0  0  0  0  0  0  0  0  0  0  0
    2.7698   -4.3373   14.8842 C   0  0  1  0  0  0  0  0  0  0  0  0
    2.3370   -5.7867   14.8028 C   0  0  0  0  0  0  0  0  0  0  0  0
    3.4587   -6.4122   13.9659 C   0  0  0  0  0  0  0  0  0  0  0  0
    4.6196   -5.5307   14.3575 C   0  0  0  0  0  0  0  0  0  0  0  0
    4.0366   -4.2075   14.2662 N   0  0  1  0  0  4  0  0  0  0  0  0
    4.0669   -3.6283   12.9665 C   0  0  0  0  0  0  0  0  0  0  0  0
    4.2362   -2.1428   13.0109 C   0  0  0  0  0  0  0  0  0  0  0  0
    4.9656   -1.4987   13.9836 C   0  0  0  0  0  0  0  0  0  0  0  0
    5.1014   -0.1265   13.9979 C   0  0  0  0  0  0  0  0  0  0  0  0
    4.5130    0.6671   13.0383 C   0  0  0  0  0  0  0  0  0  0  0  0
    3.7849    0.0320   12.0663 C   0  0  0  0  0  0  0  0  0  0  0  0
    3.6388   -1.3357   12.0365 C   0  0  0  0  0  0  0  0  0  0  0  0
    1.6591   -3.3333   12.9140 N   0  0  0  0  0  0  0  0  0  0  0  0
    0.5863   -2.6547   12.2606 C   0  0  0  0  0  0  0  0  0  0  0  0
    0.6743   -2.8921   10.7754 C   0  0  0  0  0  0  0  0  0  0  0  0
   -0.5900   -2.5146   10.0781 C   0  0  0  0  0  0  0  0  0  0  0  0
   -0.6380   -1.1230    9.7093 N   0  0  0  0  0  4  0  0  0  0  0  0
   -1.8148   -0.5050   10.2621 C   0  0  0  0  0  0  0  0  0  0  0  0
   -1.7785    0.9994   10.1097 C   0  0  0  0  0  0  0  0  0  0  0  0
   -1.2932    1.4133    8.7330 C   0  0  0  0  0  0  0  0  0  0  0  0
   -1.3726    0.2250    7.7966 C   0  0  0  0  0  0  0  0  0  0  0  0
   -0.4840   -0.8888    8.3013 C   0  0  0  0  0  0  0  0  0  0  0  0
    0.0003    1.8709    8.7657 O   0  0  0  0  0  0  0  0  0  0  0  0
   -0.0674    3.2581    8.9491 C   0  0  0  0  0  0  0  0  0  0  0  0
   -1.3313    3.6589    8.2740 C   0  0  0  0  0  0  0  0  0  0  0  0
   -2.0694    2.5065    8.1500 C   0  0  0  0  0  0  0  0  0  0  0  0
   -3.3114    2.5846    7.5467 C   0  0  0  0  0  0  0  0  0  0  0  0
   -3.7792    3.7890    7.0895 C   0  0  0  0  0  0  0  0  0  0  0  0
   -3.0168    4.9179    7.2296 C   0  0  0  0  0  0  0  0  0  0  0  0
   -1.7732    4.8672    7.8283 C   0  0  0  0  0  0  0  0  0  0  0  0
  1  2  2  0
  3  2  1  6
  3  4  1  0
  4  5  1  0
  5  6  1  0
  6  7  1  0
  7  8  1  6
  8  9  1  0
  9 10  2  0
 10 11  1  0
 11 12  2  0
 12 13  1  0
 13 14  2  0
  2 15  1  0
 15 16  1  0
 16 17  1  0
 17 18  1  0
 18 19  1  0
 19 20  1  0
 20 21  1  0
 21 22  1  0
 22 23  1  0
 23 24  1  0
 22 25  1  0
 25 26  1  0
 26 27  1  0
 27 28  2  0
 28 29  1  0
 29 30  2  0
 30 31  1  0
 31 32  2  0
  7  3  1  0
 14  9  1  0
 24 19  1  0
 32 27  1  0
 28 22  1  0
M  CHG  2   7   1  19   1
M  END
$$$$
