
     RDKit          3D

 32 36  0  0  0  0  0  0  0  0999 V2000
    3.5404   -4.6962   12.5901 O   0  0  0  0  0  0  0  0  0  0  0  0
    2.8707   -4.0701   13.4249 C   0  0  0  0  0  0  0  0  0  0  0  0
    2.8503   -4.2421   14.8767 C   0  0  1  0  0  0  0  0  0  0  0  0
    2.8875   -5.7296   15.1604 C   0  0  0  0  0  0  0  0  0  0  0  0
    4.1309   -5.8581   16.0478 C   0  0  0  0  0  0  0  0  0  0  0  0
    4.1253   -4.5105   16.7275 C   0  0  0  0  0  0  0  0  0  0  0  0
    3.8812   -3.6140   15.6159 N   0  0  1  0  0  4  0  0  0  0  0  0
    5.0452   -3.2198   14.8979 C   0  0  0  0  0  0  0  0  0  0  0  0
    4.8394   -1.9484   14.1372 C   0  0  0  0  0  0  0  0  0  0  0  0
    4.6024   -1.9139   12.7823 C   0  0  0  0  0  0  0  0  0  0  0  0
    4.4184   -0.7245   12.1091 C   0  0  0  0  0  0  0  0  0  0  0  0
    4.4628    0.4880   12.7608 C   0  0  0  0  0  0  0  0  0  0  0  0
    4.6985    0.4610   14.1106 C   0  0  0  0  0  0  0  0  0  0  0  0
    4.8844   -0.7162   14.7982 C   0  0  0  0  0  0  0  0  0  0  0  0
    2.0043   -3.0430   12.8842 N   0  0  0  0  0  0  0  0  0  0  0  0
    1.4659   -3.1316   11.5649 C   0  0  0  0  0  0  0  0  0  0  0  0
    0.8162   -1.8220   11.2002 C   0  0  0  0  0  0  0  0  0  0  0  0
    0.6148   -1.6948    9.7270 C   0  0  0  0  0  0  0  0  0  0  0  0
   -0.2271   -0.5833    9.3657 N   0  0  0  0  0  4  0  0  0  0  0  0
   -0.4492   -0.5728    7.9434 C   0  0  0  0  0  0  0  0  0  0  0  0
   -1.5197    0.4220    7.5535 C   0  0  0  0  0  0  0  0  0  0  0  0
   -1.3627    1.7362    8.2953 C   0  0  0  0  0  0  0  0  0  0  0  0
    0.0273    1.8099    8.8933 C   0  0  0  0  0  0  0  0  0  0  0  0
    0.2255    0.6795    9.8771 C   0  0  0  0  0  0  0  0  0  0  0  0
   -2.2889    1.8674    9.2997 O   0  0  0  0  0  0  0  0  0  0  0  0
   -3.3917    2.5310    8.7468 C   0  0  0  0  0  0  0  0  0  0  0  0
   -2.8058    3.4163    7.7042 C   0  0  0  0  0  0  0  0  0  0  0  0
   -1.5559    2.9086    7.4435 C   0  0  0  0  0  0  0  0  0  0  0  0
   -0.7727    3.5463    6.4988 C   0  0  0  0  0  0  0  0  0  0  0  0
   -1.2465    4.6556    5.8482 C   0  0  0  0  0  0  0  0  0  0  0  0
   -2.4975    5.1347    6.1329 C   0  0  0  0  0  0  0  0  0  0  0  0
   -3.2997    4.5164    7.0720 C   0  0  0  0  0  0  0  0  0  0  0  0
  1  2  2  0
  3  2  1  6
  3  4  1  0
  4  5  1  0
  5  6  1  0
  6  7  1  0
  7  8  1  6
  8  9  1  0
  9 10  2  0
 10 11  1  0
 11 12  2  0
 12 13  1  0
 13 14  2  0
  2 15  1  0
 15 16  1  0
 16 17  1  0
 17 18  1  0
 18 19  1  0
 19 20  1  0
 20 21  1  0
 21 22  1  0
 22 23  1  0
 23 24  1  0
 22 25  1  0
 25 26  1  0
 26 27  1  0
 27 28  2  0
 28 29  1  0
 29 30  2  0
 30 31  1  0
 31 32  2  0
  7  3  1  0
 14  9  1  0
 24 19  1  0
 32 27  1  0
 28 22  1  0
M  CHG  2   7   1  19   1
M  END
$$$$
