
     RDKit          3D

 32 36  0  0  0  0  0  0  0  0999 V2000
    3.2436   -3.0030   12.5281 O   0  0  0  0  0  0  0  0  0  0  0  0
    2.3270   -3.5119   13.1901 C   0  0  0  0  0  0  0  0  0  0  0  0
    2.4272   -4.2611   14.4415 C   0  0  1  0  0  0  0  0  0  0  0  0
    1.7960   -5.6189   14.2122 C   0  0  0  0  0  0  0  0  0  0  0  0
    2.9396   -6.5725   14.5765 C   0  0  0  0  0  0  0  0  0  0  0  0
    3.6645   -5.7503   15.6140 C   0  0  0  0  0  0  0  0  0  0  0  0
    3.7229   -4.4491   14.9796 N   0  0  1  0  0  4  0  0  0  0  0  0
    4.8240   -4.2620   14.0974 C   0  0  0  0  0  0  0  0  0  0  0  0
    5.1890   -2.8197   13.9432 C   0  0  0  0  0  0  0  0  0  0  0  0
    5.7102   -2.0632   14.9676 C   0  0  0  0  0  0  0  0  0  0  0  0
    6.0352   -0.7344   14.7939 C   0  0  0  0  0  0  0  0  0  0  0  0
    5.8539   -0.0989   13.5856 C   0  0  0  0  0  0  0  0  0  0  0  0
    5.3352   -0.8465   12.5608 C   0  0  0  0  0  0  0  0  0  0  0  0
    5.0052   -2.1732   12.7161 C   0  0  0  0  0  0  0  0  0  0  0  0
    0.9956   -3.3364   12.6475 N   0  0  0  0  0  0  0  0  0  0  0  0
    0.7576   -3.2871   11.2405 C   0  0  0  0  0  0  0  0  0  0  0  0
    0.8228   -1.8568   10.7715 C   0  0  0  0  0  0  0  0  0  0  0  0
    0.2572   -1.6974    9.3998 C   0  0  0  0  0  0  0  0  0  0  0  0
   -0.5412   -0.5075    9.2525 N   0  0  0  0  0  4  0  0  0  0  0  0
   -1.1316   -0.4672    7.9402 C   0  0  0  0  0  0  0  0  0  0  0  0
   -2.1679    0.6288    7.8284 C   0  0  0  0  0  0  0  0  0  0  0  0
   -1.6954    1.9173    8.4755 C   0  0  0  0  0  0  0  0  0  0  0  0
   -0.1958    1.8526    8.6818 C   0  0  0  0  0  0  0  0  0  0  0  0
    0.1487    0.7025    9.6002 C   0  0  0  0  0  0  0  0  0  0  0  0
   -2.3043    2.1315    9.6868 O   0  0  0  0  0  0  0  0  0  0  0  0
   -3.4464    2.9019    9.4331 C   0  0  0  0  0  0  0  0  0  0  0  0
   -3.0777    3.7326    8.2549 C   0  0  0  0  0  0  0  0  0  0  0  0
   -1.9961    3.1078    7.6822 C   0  0  0  0  0  0  0  0  0  0  0  0
   -1.4356    3.6724    6.5510 C   0  0  0  0  0  0  0  0  0  0  0  0
   -1.9580    4.8262    6.0274 C   0  0  0  0  0  0  0  0  0  0  0  0
   -3.0369    5.4223    6.6241 C   0  0  0  0  0  0  0  0  0  0  0  0
   -3.6153    4.8790    7.7545 C   0  0  0  0  0  0  0  0  0  0  0  0
  1  2  2  0
  3  2  1  6
  3  4  1  0
  4  5  1  0
  5  6  1  0
  6  7  1  0
  7  8  1  6
  8  9  1  0
  9 10  2  0
 10 11  1  0
 11 12  2  0
 12 13  1  0
 13 14  2  0
  2 15  1  0
 15 16  1  0
 16 17  1  0
 17 18  1  0
 18 19  1  0
 19 20  1  0
 20 21  1  0
 21 22  1  0
 22 23  1  0
 23 24  1  0
 22 25  1  0
 25 26  1  0
 26 27  1  0
 27 28  2  0
 28 29  1  0
 29 30  2  0
 30 31  1  0
 31 32  2  0
  7  3  1  0
 14  9  1  0
 24 19  1  0
 32 27  1  0
 28 22  1  0
M  CHG  2   7   1  19   1
M  END
$$$$
