
     RDKit          3D

 32 36  0  0  0  0  0  0  0  0999 V2000
    3.6581   -4.4516   13.5705 O   0  0  0  0  0  0  0  0  0  0  0  0
    2.4666   -4.7769   13.4611 C   0  0  0  0  0  0  0  0  0  0  0  0
    1.9018   -6.1240   13.3996 C   0  0  1  0  0  0  0  0  0  0  0  0
    3.0547   -7.1051   13.4552 C   0  0  0  0  0  0  0  0  0  0  0  0
    2.6910   -7.9621   14.6731 C   0  0  0  0  0  0  0  0  0  0  0  0
    1.1844   -7.8886   14.6222 C   0  0  0  0  0  0  0  0  0  0  0  0
    0.9597   -6.4753   14.3958 N   0  0  1  0  0  4  0  0  0  0  0  0
    0.9345   -5.6769   15.5738 C   0  0  0  0  0  0  0  0  0  0  0  0
   -0.0379   -4.5449   15.4715 C   0  0  0  0  0  0  0  0  0  0  0  0
   -1.3988   -4.7111   15.5874 C   0  0  0  0  0  0  0  0  0  0  0  0
   -2.2697   -3.6467   15.4865 C   0  0  0  0  0  0  0  0  0  0  0  0
   -1.8195   -2.3641   15.2647 C   0  0  0  0  0  0  0  0  0  0  0  0
   -0.4649   -2.1914   15.1483 C   0  0  0  0  0  0  0  0  0  0  0  0
    0.4185   -3.2417   15.2462 C   0  0  0  0  0  0  0  0  0  0  0  0
    1.5258   -3.6783   13.3856 N   0  0  0  0  0  0  0  0  0  0  0  0
    1.9254   -2.3739   12.9643 C   0  0  0  0  0  0  0  0  0  0  0  0
    1.0867   -1.9492   11.7869 C   0  0  0  0  0  0  0  0  0  0  0  0
    1.4210   -0.5654   11.3391 C   0  0  0  0  0  0  0  0  0  0  0  0
    0.3465    0.0713   10.6215 N   0  0  0  0  0  4  0  0  0  0  0  0
    0.5662   -0.0379    9.2029 C   0  0  0  0  0  0  0  0  0  0  0  0
   -0.6504    0.3947    8.4153 C   0  0  0  0  0  0  0  0  0  0  0  0
   -1.2652    1.6612    8.9814 C   0  0  0  0  0  0  0  0  0  0  0  0
   -0.2666    2.3340    9.9009 C   0  0  0  0  0  0  0  0  0  0  0  0
    0.0760    1.4143   11.0505 C   0  0  0  0  0  0  0  0  0  0  0  0
   -2.4141    1.3987    9.6847 O   0  0  0  0  0  0  0  0  0  0  0  0
   -3.4766    1.5158    8.7792 C   0  0  0  0  0  0  0  0  0  0  0  0
   -3.0237    2.5496    7.8097 C   0  0  0  0  0  0  0  0  0  0  0  0
   -1.6592    2.6231    7.9533 C   0  0  0  0  0  0  0  0  0  0  0  0
   -0.9636    3.5196    7.1628 C   0  0  0  0  0  0  0  0  0  0  0  0
   -1.6339    4.3075    6.2637 C   0  0  0  0  0  0  0  0  0  0  0  0
   -2.9947    4.2081    6.1467 C   0  0  0  0  0  0  0  0  0  0  0  0
   -3.7129    3.3209    6.9243 C   0  0  0  0  0  0  0  0  0  0  0  0
  1  2  2  0
  3  2  1  1
  3  4  1  0
  4  5  1  0
  5  6  1  0
  6  7  1  0
  7  8  1  1
  8  9  1  0
  9 10  2  0
 10 11  1  0
 11 12  2  0
 12 13  1  0
 13 14  2  0
  2 15  1  0
 15 16  1  0
 16 17  1  0
 17 18  1  0
 18 19  1  0
 19 20  1  0
 20 21  1  0
 21 22  1  0
 22 23  1  0
 23 24  1  0
 22 25  1  0
 25 26  1  0
 26 27  1  0
 27 28  2  0
 28 29  1  0
 29 30  2  0
 30 31  1  0
 31 32  2  0
  7  3  1  0
 14  9  1  0
 24 19  1  0
 32 27  1  0
 28 22  1  0
M  CHG  2   7   1  19   1
M  END
$$$$
