
     RDKit          3D

 32 36  0  0  0  0  0  0  0  0999 V2000
    2.2891   -2.7074   13.8342 O   0  0  0  0  0  0  0  0  0  0  0  0
    2.6224   -3.3803   12.8475 C   0  0  0  0  0  0  0  0  0  0  0  0
    3.8537   -4.1438   12.6511 C   0  0  1  0  0  0  0  0  0  0  0  0
    4.3751   -4.5288   14.0203 C   0  0  0  0  0  0  0  0  0  0  0  0
    4.4553   -6.0562   13.9175 C   0  0  0  0  0  0  0  0  0  0  0  0
    4.7321   -6.2194   12.4428 C   0  0  0  0  0  0  0  0  0  0  0  0
    3.7700   -5.3103   11.8538 N   0  0  1  0  0  4  0  0  0  0  0  0
    2.4743   -5.8617   11.6467 C   0  0  0  0  0  0  0  0  0  0  0  0
    2.0377   -5.7647   10.2194 C   0  0  0  0  0  0  0  0  0  0  0  0
    1.6272   -4.5871    9.6379 C   0  0  0  0  0  0  0  0  0  0  0  0
    1.2287   -4.5309    8.3190 C   0  0  0  0  0  0  0  0  0  0  0  0
    1.2222   -5.6516    7.5185 C   0  0  0  0  0  0  0  0  0  0  0  0
    1.6299   -6.8280    8.0913 C   0  0  0  0  0  0  0  0  0  0  0  0
    2.0306   -6.9026    9.4053 C   0  0  0  0  0  0  0  0  0  0  0  0
    1.6660   -3.4067   11.7601 N   0  0  0  0  0  0  0  0  0  0  0  0
    0.4112   -2.7309   11.8460 C   0  0  0  0  0  0  0  0  0  0  0  0
    0.5043   -1.4089   11.1294 C   0  0  0  0  0  0  0  0  0  0  0  0
   -0.7972   -0.6789   11.1423 C   0  0  0  0  0  0  0  0  0  0  0  0
   -0.7136    0.6356   10.5592 N   0  0  0  0  0  4  0  0  0  0  0  0
   -1.9421    1.3533   10.7790 C   0  0  0  0  0  0  0  0  0  0  0  0
   -1.8100    2.8126   10.4041 C   0  0  0  0  0  0  0  0  0  0  0  0
   -1.0636    2.9913    9.0952 C   0  0  0  0  0  0  0  0  0  0  0  0
   -1.0252    1.6690    8.3569 C   0  0  0  0  0  0  0  0  0  0  0  0
   -0.2952    0.6371    9.1859 C   0  0  0  0  0  0  0  0  0  0  0  0
    0.2218    3.4276    9.2979 O   0  0  0  0  0  0  0  0  0  0  0  0
    0.1852    4.8270    9.2474 C   0  0  0  0  0  0  0  0  0  0  0  0
   -0.9149    5.1338    8.2937 C   0  0  0  0  0  0  0  0  0  0  0  0
   -1.6699    3.9885    8.2145 C   0  0  0  0  0  0  0  0  0  0  0  0
   -2.7762    3.9880    7.3847 C   0  0  0  0  0  0  0  0  0  0  0  0
   -3.0974    5.1102    6.6665 C   0  0  0  0  0  0  0  0  0  0  0  0
   -2.3227    6.2346    6.7695 C   0  0  0  0  0  0  0  0  0  0  0  0
   -1.2126    6.2613    7.5909 C   0  0  0  0  0  0  0  0  0  0  0  0
  1  2  2  0
  3  2  1  1
  3  4  1  0
  4  5  1  0
  5  6  1  0
  6  7  1  0
  7  8  1  1
  8  9  1  0
  9 10  2  0
 10 11  1  0
 11 12  2  0
 12 13  1  0
 13 14  2  0
  2 15  1  0
 15 16  1  0
 16 17  1  0
 17 18  1  0
 18 19  1  0
 19 20  1  0
 20 21  1  0
 21 22  1  0
 22 23  1  0
 23 24  1  0
 22 25  1  0
 25 26  1  0
 26 27  1  0
 27 28  2  0
 28 29  1  0
 29 30  2  0
 30 31  1  0
 31 32  2  0
  7  3  1  0
 14  9  1  0
 24 19  1  0
 32 27  1  0
 28 22  1  0
M  CHG  2   7   1  19   1
M  END
$$$$
