
     RDKit          3D

 32 36  0  0  0  0  0  0  0  0999 V2000
    0.6583   -1.9269   12.1147 O   0  0  0  0  0  0  0  0  0  0  0  0
    1.1613   -2.2691   11.0342 C   0  0  0  0  0  0  0  0  0  0  0  0
    1.5154   -3.6167   10.5912 C   0  0  1  0  0  0  0  0  0  0  0  0
    1.1377   -4.5758   11.7013 C   0  0  0  0  0  0  0  0  0  0  0  0
    0.1890   -5.5429   10.9838 C   0  0  0  0  0  0  0  0  0  0  0  0
    0.7527   -5.4950    9.5845 C   0  0  0  0  0  0  0  0  0  0  0  0
    0.9362   -4.0721    9.3826 N   0  0  1  0  0  4  0  0  0  0  0  0
   -0.2165   -3.3802    8.9157 C   0  0  0  0  0  0  0  0  0  0  0  0
   -0.1414   -3.0746    7.4533 C   0  0  0  0  0  0  0  0  0  0  0  0
    0.7689   -2.1938    6.9159 C   0  0  0  0  0  0  0  0  0  0  0  0
    0.8115   -1.9321    5.5626 C   0  0  0  0  0  0  0  0  0  0  0  0
   -0.0557   -2.5400    4.6821 C   0  0  0  0  0  0  0  0  0  0  0  0
   -0.9651   -3.4185    5.2108 C   0  0  0  0  0  0  0  0  0  0  0  0
   -1.0219   -3.6916    6.5580 C   0  0  0  0  0  0  0  0  0  0  0  0
    1.4271   -1.1925   10.1025 N   0  0  0  0  0  0  0  0  0  0  0  0
    1.1715    0.1717   10.4373 C   0  0  0  0  0  0  0  0  0  0  0  0
    2.4512    0.8237   10.8927 C   0  0  0  0  0  0  0  0  0  0  0  0
    2.4846    2.2762   10.5518 C   0  0  0  0  0  0  0  0  0  0  0  0
    1.3980    3.0191   11.1370 N   0  0  0  0  0  4  0  0  0  0  0  0
    1.2824    4.3072   10.5047 C   0  0  0  0  0  0  0  0  0  0  0  0
    0.0106    5.0167   10.9130 C   0  0  0  0  0  0  0  0  0  0  0  0
   -0.2513    4.8885   12.4021 C   0  0  0  0  0  0  0  0  0  0  0  0
    1.0196    4.4441   13.0969 C   0  0  0  0  0  0  0  0  0  0  0  0
    1.4500    3.0944   12.5697 C   0  0  0  0  0  0  0  0  0  0  0  0
   -1.2464    3.9813   12.6675 O   0  0  0  0  0  0  0  0  0  0  0  0
   -2.4470    4.7016   12.7124 C   0  0  0  0  0  0  0  0  0  0  0  0
   -2.0540    6.0437   13.2208 C   0  0  0  0  0  0  0  0  0  0  0  0
   -0.6977    6.1356   13.0209 C   0  0  0  0  0  0  0  0  0  0  0  0
   -0.0546    7.2968   13.4087 C   0  0  0  0  0  0  0  0  0  0  0  0
   -0.7672    8.3206   13.9766 C   0  0  0  0  0  0  0  0  0  0  0  0
   -2.1183    8.1951   14.1610 C   0  0  0  0  0  0  0  0  0  0  0  0
   -2.7846    7.0460   13.7825 C   0  0  0  0  0  0  0  0  0  0  0  0
  1  2  2  0
  3  2  1  1
  3  4  1  0
  4  5  1  0
  5  6  1  0
  6  7  1  0
  7  8  1  1
  8  9  1  0
  9 10  2  0
 10 11  1  0
 11 12  2  0
 12 13  1  0
 13 14  2  0
  2 15  1  0
 15 16  1  0
 16 17  1  0
 17 18  1  0
 18 19  1  0
 19 20  1  0
 20 21  1  0
 21 22  1  0
 22 23  1  0
 23 24  1  0
 22 25  1  0
 25 26  1  0
 26 27  1  0
 27 28  2  0
 28 29  1  0
 29 30  2  0
 30 31  1  0
 31 32  2  0
  7  3  1  0
 14  9  1  0
 24 19  1  0
 32 27  1  0
 28 22  1  0
M  CHG  2   7   1  19   1
M  END
$$$$
