
     RDKit          3D

 32 36  0  0  0  0  0  0  0  0999 V2000
    3.2286   -5.4906   12.6723 O   0  0  0  0  0  0  0  0  0  0  0  0
    3.1242   -4.5044   13.4167 C   0  0  0  0  0  0  0  0  0  0  0  0
    3.5999   -4.3582   14.7914 C   0  0  1  0  0  0  0  0  0  0  0  0
    3.9470   -5.7410   15.3036 C   0  0  0  0  0  0  0  0  0  0  0  0
    5.4150   -5.5748   15.7127 C   0  0  0  0  0  0  0  0  0  0  0  0
    5.4297   -4.1166   16.1018 C   0  0  0  0  0  0  0  0  0  0  0  0
    4.7093   -3.5051   15.0035 N   0  0  1  0  0  4  0  0  0  0  0  0
    5.5067   -3.1851   13.8689 C   0  0  0  0  0  0  0  0  0  0  0  0
    4.9376   -2.0510   13.0768 C   0  0  0  0  0  0  0  0  0  0  0  0
    4.6432   -0.8244   13.6263 C   0  0  0  0  0  0  0  0  0  0  0  0
    4.1174    0.2012   12.8691 C   0  0  0  0  0  0  0  0  0  0  0  0
    3.8610    0.0476   11.5247 C   0  0  0  0  0  0  0  0  0  0  0  0
    4.1519   -1.1717   10.9708 C   0  0  0  0  0  0  0  0  0  0  0  0
    4.6768   -2.2060   11.7109 C   0  0  0  0  0  0  0  0  0  0  0  0
    2.4451   -3.3607   12.8434 N   0  0  0  0  0  0  0  0  0  0  0  0
    1.6572   -3.4708   11.6579 C   0  0  0  0  0  0  0  0  0  0  0  0
    1.4030   -2.0961   11.0962 C   0  0  0  0  0  0  0  0  0  0  0  0
    0.1588   -2.0553   10.2731 C   0  0  0  0  0  0  0  0  0  0  0  0
   -0.0061   -0.8150    9.5594 N   0  0  0  0  0  4  0  0  0  0  0  0
   -0.2924    0.2524   10.4820 C   0  0  0  0  0  0  0  0  0  0  0  0
   -0.2280    1.6046    9.8076 C   0  0  0  0  0  0  0  0  0  0  0  0
   -0.9049    1.5883    8.4497 C   0  0  0  0  0  0  0  0  0  0  0  0
   -1.7836    0.3587    8.3437 C   0  0  0  0  0  0  0  0  0  0  0  0
   -0.9407   -0.8894    8.4722 C   0  0  0  0  0  0  0  0  0  0  0  0
    0.0089    1.5742    7.4257 O   0  0  0  0  0  0  0  0  0  0  0  0
    0.2461    2.9105    7.0788 C   0  0  0  0  0  0  0  0  0  0  0  0
   -1.0430    3.5993    7.3580 C   0  0  0  0  0  0  0  0  0  0  0  0
   -1.7356    2.7657    8.2027 C   0  0  0  0  0  0  0  0  0  0  0  0
   -2.9897    3.1608    8.6315 C   0  0  0  0  0  0  0  0  0  0  0  0
   -3.5136    4.3567    8.2148 C   0  0  0  0  0  0  0  0  0  0  0  0
   -2.7954    5.1630    7.3725 C   0  0  0  0  0  0  0  0  0  0  0  0
   -1.5409    4.7919    6.9297 C   0  0  0  0  0  0  0  0  0  0  0  0
  1  2  2  0
  3  2  1  6
  3  4  1  0
  4  5  1  0
  5  6  1  0
  6  7  1  0
  7  8  1  6
  8  9  1  0
  9 10  2  0
 10 11  1  0
 11 12  2  0
 12 13  1  0
 13 14  2  0
  2 15  1  0
 15 16  1  0
 16 17  1  0
 17 18  1  0
 18 19  1  0
 19 20  1  0
 20 21  1  0
 21 22  1  0
 22 23  1  0
 23 24  1  0
 22 25  1  0
 25 26  1  0
 26 27  1  0
 27 28  2  0
 28 29  1  0
 29 30  2  0
 30 31  1  0
 31 32  2  0
  7  3  1  0
 14  9  1  0
 24 19  1  0
 32 27  1  0
 28 22  1  0
M  CHG  2   7   1  19   1
M  END
$$$$
