
     RDKit          3D

 32 36  0  0  0  0  0  0  0  0999 V2000
    3.9109   -4.1962   15.0037 O   0  0  0  0  0  0  0  0  0  0  0  0
    3.4491   -4.6133   13.9312 C   0  0  0  0  0  0  0  0  0  0  0  0
    3.6967   -5.9000   13.2827 C   0  0  1  0  0  0  0  0  0  0  0  0
    4.9708   -6.4700   13.8715 C   0  0  0  0  0  0  0  0  0  0  0  0
    4.5007   -7.8280   14.4050 C   0  0  0  0  0  0  0  0  0  0  0  0
    3.3900   -8.1377   13.4311 C   0  0  0  0  0  0  0  0  0  0  0  0
    2.6773   -6.8775   13.3771 N   0  0  1  0  0  4  0  0  0  0  0  0
    1.7003   -6.6981   14.3964 C   0  0  0  0  0  0  0  0  0  0  0  0
    0.6107   -5.7619   13.9797 C   0  0  0  0  0  0  0  0  0  0  0  0
    0.3289   -4.5926   14.6478 C   0  0  0  0  0  0  0  0  0  0  0  0
   -0.6842   -3.7509   14.2394 C   0  0  0  0  0  0  0  0  0  0  0  0
   -1.4642   -4.0400   13.1417 C   0  0  0  0  0  0  0  0  0  0  0  0
   -1.1889   -5.2032   12.4714 C   0  0  0  0  0  0  0  0  0  0  0  0
   -0.1822   -6.0546   12.8647 C   0  0  0  0  0  0  0  0  0  0  0  0
    2.5544   -3.7053   13.2435 N   0  0  0  0  0  0  0  0  0  0  0  0
    2.4460   -2.3311   13.6156 C   0  0  0  0  0  0  0  0  0  0  0  0
    2.3483   -1.4825   12.3745 C   0  0  0  0  0  0  0  0  0  0  0  0
    1.6801   -0.1764   12.6477 C   0  0  0  0  0  0  0  0  0  0  0  0
    0.6922    0.1707   11.6586 N   0  0  0  0  0  4  0  0  0  0  0  0
    1.3187    0.3479   10.3746 C   0  0  0  0  0  0  0  0  0  0  0  0
    0.2959    0.4682    9.2669 C   0  0  0  0  0  0  0  0  0  0  0  0
   -0.8605    1.3662    9.6648 C   0  0  0  0  0  0  0  0  0  0  0  0
   -0.4629    2.1872   10.8745 C   0  0  0  0  0  0  0  0  0  0  0  0
   -0.1465    1.2730   12.0360 C   0  0  0  0  0  0  0  0  0  0  0  0
   -1.9867    0.6421    9.9666 O   0  0  0  0  0  0  0  0  0  0  0  0
   -2.7268    0.5355    8.7820 C   0  0  0  0  0  0  0  0  0  0  0  0
   -2.4235    1.7905    8.0425 C   0  0  0  0  0  0  0  0  0  0  0  0
   -1.2713    2.2852    8.6045 C   0  0  0  0  0  0  0  0  0  0  0  0
   -0.7519    3.4654    8.1047 C   0  0  0  0  0  0  0  0  0  0  0  0
   -1.3829    4.1125    7.0745 C   0  0  0  0  0  0  0  0  0  0  0  0
   -2.5298    3.5909    6.5379 C   0  0  0  0  0  0  0  0  0  0  0  0
   -3.0693    2.4139    7.0187 C   0  0  0  0  0  0  0  0  0  0  0  0
  1  2  2  0
  3  2  1  1
  3  4  1  0
  4  5  1  0
  5  6  1  0
  6  7  1  0
  7  8  1  1
  8  9  1  0
  9 10  2  0
 10 11  1  0
 11 12  2  0
 12 13  1  0
 13 14  2  0
  2 15  1  0
 15 16  1  0
 16 17  1  0
 17 18  1  0
 18 19  1  0
 19 20  1  0
 20 21  1  0
 21 22  1  0
 22 23  1  0
 23 24  1  0
 22 25  1  0
 25 26  1  0
 26 27  1  0
 27 28  2  0
 28 29  1  0
 29 30  2  0
 30 31  1  0
 31 32  2  0
  7  3  1  0
 14  9  1  0
 24 19  1  0
 32 27  1  0
 28 22  1  0
M  CHG  2   7   1  19   1
M  END
$$$$
