
     RDKit          3D

 32 36  0  0  0  0  0  0  0  0999 V2000
    2.9171   -4.8056   11.6785 O   0  0  0  0  0  0  0  0  0  0  0  0
    3.2240   -3.6707   12.0727 C   0  0  0  0  0  0  0  0  0  0  0  0
    4.3367   -3.2879   12.9403 C   0  0  1  0  0  0  0  0  0  0  0  0
    4.1740   -1.8182   13.2693 C   0  0  0  0  0  0  0  0  0  0  0  0
    4.1387   -1.8322   14.8018 C   0  0  0  0  0  0  0  0  0  0  0  0
    5.0079   -3.0327   15.0869 C   0  0  0  0  0  0  0  0  0  0  0  0
    4.4904   -4.0083   14.1490 N   0  0  1  0  0  4  0  0  0  0  0  0
    3.3639   -4.7447   14.6119 C   0  0  0  0  0  0  0  0  0  0  0  0
    3.7105   -6.1604   14.9484 C   0  0  0  0  0  0  0  0  0  0  0  0
    4.4009   -6.9881   14.0933 C   0  0  0  0  0  0  0  0  0  0  0  0
    4.7038   -8.2900   14.4325 C   0  0  0  0  0  0  0  0  0  0  0  0
    4.3297   -8.8257   15.6449 C   0  0  0  0  0  0  0  0  0  0  0  0
    3.6416   -8.0066   16.5016 C   0  0  0  0  0  0  0  0  0  0  0  0
    3.3309   -6.7055   16.1798 C   0  0  0  0  0  0  0  0  0  0  0  0
    2.3672   -2.5983   11.6103 N   0  0  0  0  0  0  0  0  0  0  0  0
    1.2571   -2.8424   10.7462 C   0  0  0  0  0  0  0  0  0  0  0  0
    0.5809   -1.5364   10.4189 C   0  0  0  0  0  0  0  0  0  0  0  0
   -0.4800   -1.7063    9.3831 C   0  0  0  0  0  0  0  0  0  0  0  0
   -1.0704   -0.4594    8.9691 N   0  0  0  0  0  4  0  0  0  0  0  0
   -0.8187   -0.2334    7.5698 C   0  0  0  0  0  0  0  0  0  0  0  0
   -1.6244    0.9315    7.0393 C   0  0  0  0  0  0  0  0  0  0  0  0
   -1.6141    2.1059    7.9999 C   0  0  0  0  0  0  0  0  0  0  0  0
   -0.4911    1.9236    9.0005 C   0  0  0  0  0  0  0  0  0  0  0  0
   -0.7108    0.6574    9.7964 C   0  0  0  0  0  0  0  0  0  0  0  0
   -2.8023    2.2196    8.6775 O   0  0  0  0  0  0  0  0  0  0  0  0
   -3.6116    3.0844    7.9295 C   0  0  0  0  0  0  0  0  0  0  0  0
   -2.6527    4.0182    7.2795 C   0  0  0  0  0  0  0  0  0  0  0  0
   -1.4292    3.3953    7.3361 C   0  0  0  0  0  0  0  0  0  0  0  0
   -0.3352    4.0478    6.7976 C   0  0  0  0  0  0  0  0  0  0  0  0
   -0.4851    5.2842    6.2256 C   0  0  0  0  0  0  0  0  0  0  0  0
   -1.7195    5.8759    6.1863 C   0  0  0  0  0  0  0  0  0  0  0  0
   -2.8280    5.2456    6.7169 C   0  0  0  0  0  0  0  0  0  0  0  0
  1  2  2  0
  3  2  1  1
  3  4  1  0
  4  5  1  0
  5  6  1  0
  6  7  1  0
  7  8  1  1
  8  9  1  0
  9 10  2  0
 10 11  1  0
 11 12  2  0
 12 13  1  0
 13 14  2  0
  2 15  1  0
 15 16  1  0
 16 17  1  0
 17 18  1  0
 18 19  1  0
 19 20  1  0
 20 21  1  0
 21 22  1  0
 22 23  1  0
 23 24  1  0
 22 25  1  0
 25 26  1  0
 26 27  1  0
 27 28  2  0
 28 29  1  0
 29 30  2  0
 30 31  1  0
 31 32  2  0
  7  3  1  0
 14  9  1  0
 24 19  1  0
 32 27  1  0
 28 22  1  0
M  CHG  2   7   1  19   1
M  END
$$$$
