
     RDKit          3D

 32 36  0  0  0  0  0  0  0  0999 V2000
   -2.2134   -0.9170    8.6721 O   0  0  0  0  0  0  0  0  0  0  0  0
   -1.4792   -0.7161    7.6933 C   0  0  0  0  0  0  0  0  0  0  0  0
   -1.8663   -0.5684    6.2912 C   0  0  1  0  0  0  0  0  0  0  0  0
   -2.7505   -1.7459    5.9355 C   0  0  0  0  0  0  0  0  0  0  0  0
   -4.0274   -1.0543    5.4444 C   0  0  0  0  0  0  0  0  0  0  0  0
   -3.4509    0.2218    4.8811 C   0  0  0  0  0  0  0  0  0  0  0  0
   -2.5343    0.6256    5.9281 N   0  0  1  0  0  4  0  0  0  0  0  0
   -3.1225    1.3840    6.9790 C   0  0  0  0  0  0  0  0  0  0  0  0
   -2.4351    2.6963    7.1853 C   0  0  0  0  0  0  0  0  0  0  0  0
   -3.0024    3.9030    6.8457 C   0  0  0  0  0  0  0  0  0  0  0  0
   -2.3417    5.0964    7.0472 C   0  0  0  0  0  0  0  0  0  0  0  0
   -1.0804    5.1390    7.5987 C   0  0  0  0  0  0  0  0  0  0  0  0
   -0.5093    3.9406    7.9395 C   0  0  0  0  0  0  0  0  0  0  0  0
   -1.1538    2.7406    7.7456 C   0  0  0  0  0  0  0  0  0  0  0  0
   -0.0642   -0.6170    7.9862 N   0  0  0  0  0  0  0  0  0  0  0  0
    0.7131   -1.7625    8.3360 C   0  0  0  0  0  0  0  0  0  0  0  0
    1.0567   -1.7059    9.8018 C   0  0  0  0  0  0  0  0  0  0  0  0
    1.8757   -2.8796   10.2245 C   0  0  0  0  0  0  0  0  0  0  0  0
    2.7950   -2.5727   11.2902 N   0  0  0  0  0  4  0  0  0  0  0  0
    3.7706   -3.6234   11.4197 C   0  0  0  0  0  0  0  0  0  0  0  0
    4.8938   -3.2294   12.3529 C   0  0  0  0  0  0  0  0  0  0  0  0
    4.3731   -2.5350   13.5974 C   0  0  0  0  0  0  0  0  0  0  0  0
    2.8867   -2.7960   13.7308 C   0  0  0  0  0  0  0  0  0  0  0  0
    2.1560   -2.2376   12.5312 C   0  0  0  0  0  0  0  0  0  0  0  0
    4.5866   -1.1801   13.5511 O   0  0  0  0  0  0  0  0  0  0  0  0
    5.8217   -0.9452   14.1689 C   0  0  0  0  0  0  0  0  0  0  0  0
    5.9294   -2.0146   15.1980 C   0  0  0  0  0  0  0  0  0  0  0  0
    5.0271   -2.9819   14.8263 C   0  0  0  0  0  0  0  0  0  0  0  0
    4.9123   -4.1106   15.6171 C   0  0  0  0  0  0  0  0  0  0  0  0
    5.6865   -4.2450   16.7399 C   0  0  0  0  0  0  0  0  0  0  0  0
    6.5759   -3.2611   17.0808 C   0  0  0  0  0  0  0  0  0  0  0  0
    6.7099   -2.1241   16.3082 C   0  0  0  0  0  0  0  0  0  0  0  0
  1  2  2  0
  3  2  1  1
  3  4  1  0
  4  5  1  0
  5  6  1  0
  6  7  1  0
  7  8  1  1
  8  9  1  0
  9 10  2  0
 10 11  1  0
 11 12  2  0
 12 13  1  0
 13 14  2  0
  2 15  1  0
 15 16  1  0
 16 17  1  0
 17 18  1  0
 18 19  1  0
 19 20  1  0
 20 21  1  0
 21 22  1  0
 22 23  1  0
 23 24  1  0
 22 25  1  0
 25 26  1  0
 26 27  1  0
 27 28  2  0
 28 29  1  0
 29 30  2  0
 30 31  1  0
 31 32  2  0
  7  3  1  0
 14  9  1  0
 24 19  1  0
 32 27  1  0
 28 22  1  0
M  CHG  2   7   1  19   1
M  END
$$$$
