
     RDKit          3D

 32 36  0  0  0  0  0  0  0  0999 V2000
    3.5980   -2.8966   14.1281 O   0  0  0  0  0  0  0  0  0  0  0  0
    3.6391   -3.4056   12.9982 C   0  0  0  0  0  0  0  0  0  0  0  0
    4.6222   -4.3504   12.4703 C   0  0  1  0  0  0  0  0  0  0  0  0
    5.3370   -4.9729   13.6519 C   0  0  0  0  0  0  0  0  0  0  0  0
    5.0870   -6.4688   13.4292 C   0  0  0  0  0  0  0  0  0  0  0  0
    5.0034   -6.5133   11.9229 C   0  0  0  0  0  0  0  0  0  0  0  0
    4.1387   -5.3867   11.6362 N   0  0  1  0  0  4  0  0  0  0  0  0
    2.7454   -5.6707   11.6976 C   0  0  0  0  0  0  0  0  0  0  0  0
    2.0493   -5.3795   10.4060 C   0  0  0  0  0  0  0  0  0  0  0  0
    1.8606   -6.3254    9.4247 C   0  0  0  0  0  0  0  0  0  0  0  0
    1.2160   -6.0248    8.2432 C   0  0  0  0  0  0  0  0  0  0  0  0
    0.7292   -4.7621    7.9876 C   0  0  0  0  0  0  0  0  0  0  0  0
    0.9136   -3.8150    8.9609 C   0  0  0  0  0  0  0  0  0  0  0  0
    1.5544   -4.0971   10.1453 C   0  0  0  0  0  0  0  0  0  0  0  0
    2.5769   -3.0083   12.0973 N   0  0  0  0  0  0  0  0  0  0  0  0
    1.5915   -2.0465   12.4747 C   0  0  0  0  0  0  0  0  0  0  0  0
    1.9516   -0.7052   11.8907 C   0  0  0  0  0  0  0  0  0  0  0  0
    0.9221    0.3292   12.2028 C   0  0  0  0  0  0  0  0  0  0  0  0
    0.6154    1.1780   11.0801 N   0  0  0  0  0  4  0  0  0  0  0  0
   -0.4659    2.0680   11.4137 C   0  0  0  0  0  0  0  0  0  0  0  0
   -0.6544    3.1359   10.3594 C   0  0  0  0  0  0  0  0  0  0  0  0
   -0.5624    2.5638    8.9571 C   0  0  0  0  0  0  0  0  0  0  0  0
   -0.7111    1.0574    9.0208 C   0  0  0  0  0  0  0  0  0  0  0  0
    0.4031    0.4645    9.8526 C   0  0  0  0  0  0  0  0  0  0  0  0
    0.6349    2.8698    8.3602 O   0  0  0  0  0  0  0  0  0  0  0  0
    0.4398    4.0640    7.6542 C   0  0  0  0  0  0  0  0  0  0  0  0
   -0.9874    4.0171    7.2360 C   0  0  0  0  0  0  0  0  0  0  0  0
   -1.5842    3.0854    8.0508 C   0  0  0  0  0  0  0  0  0  0  0  0
   -2.9330    2.8324    7.8799 C   0  0  0  0  0  0  0  0  0  0  0  0
   -3.6418    3.5029    6.9174 C   0  0  0  0  0  0  0  0  0  0  0  0
   -3.0149    4.4253    6.1227 C   0  0  0  0  0  0  0  0  0  0  0  0
   -1.6689    4.6965    6.2728 C   0  0  0  0  0  0  0  0  0  0  0  0
  1  2  2  0
  3  2  1  1
  3  4  1  0
  4  5  1  0
  5  6  1  0
  6  7  1  0
  7  8  1  1
  8  9  1  0
  9 10  2  0
 10 11  1  0
 11 12  2  0
 12 13  1  0
 13 14  2  0
  2 15  1  0
 15 16  1  0
 16 17  1  0
 17 18  1  0
 18 19  1  0
 19 20  1  0
 20 21  1  0
 21 22  1  0
 22 23  1  0
 23 24  1  0
 22 25  1  0
 25 26  1  0
 26 27  1  0
 27 28  2  0
 28 29  1  0
 29 30  2  0
 30 31  1  0
 31 32  2  0
  7  3  1  0
 14  9  1  0
 24 19  1  0
 32 27  1  0
 28 22  1  0
M  CHG  2   7   1  19   1
M  END
$$$$
