
     RDKit          3D

 32 36  0  0  0  0  0  0  0  0999 V2000
    1.7129   -5.4321   12.8446 O   0  0  0  0  0  0  0  0  0  0  0  0
    1.8076   -4.5648   13.7257 C   0  0  0  0  0  0  0  0  0  0  0  0
    2.4053   -4.6907   15.0540 C   0  0  1  0  0  0  0  0  0  0  0  0
    2.3645   -6.1561   15.4357 C   0  0  0  0  0  0  0  0  0  0  0  0
    3.8419   -6.4597   15.7096 C   0  0  0  0  0  0  0  0  0  0  0  0
    4.3160   -5.1107   16.1925 C   0  0  0  0  0  0  0  0  0  0  0  0
    3.7299   -4.2178   15.2135 N   0  0  1  0  0  4  0  0  0  0  0  0
    4.5002   -4.0378   14.0304 C   0  0  0  0  0  0  0  0  0  0  0  0
    4.6470   -2.5954   13.6626 C   0  0  0  0  0  0  0  0  0  0  0  0
    3.7743   -1.9417   12.8234 C   0  0  0  0  0  0  0  0  0  0  0  0
    3.9380   -0.6108   12.5021 C   0  0  0  0  0  0  0  0  0  0  0  0
    4.9840    0.1300   13.0060 C   0  0  0  0  0  0  0  0  0  0  0  0
    5.8572   -0.5148   13.8427 C   0  0  0  0  0  0  0  0  0  0  0  0
    5.7092   -1.8420   14.1740 C   0  0  0  0  0  0  0  0  0  0  0  0
    1.2541   -3.2699   13.3868 N   0  0  0  0  0  0  0  0  0  0  0  0
    0.5028   -3.0633   12.1904 C   0  0  0  0  0  0  0  0  0  0  0  0
    0.9390   -1.7755   11.5414 C   0  0  0  0  0  0  0  0  0  0  0  0
    0.6514   -1.7680   10.0770 C   0  0  0  0  0  0  0  0  0  0  0  0
    0.3833   -0.4504    9.5605 N   0  0  0  0  0  4  0  0  0  0  0  0
   -0.6327    0.1936   10.3514 C   0  0  0  0  0  0  0  0  0  0  0  0
   -0.7677    1.6586   10.0001 C   0  0  0  0  0  0  0  0  0  0  0  0
   -0.7345    1.8821    8.4997 C   0  0  0  0  0  0  0  0  0  0  0  0
   -0.9796    0.5650    7.7923 C   0  0  0  0  0  0  0  0  0  0  0  0
    0.1064   -0.4229    8.1522 C   0  0  0  0  0  0  0  0  0  0  0  0
    0.4709    2.3930    8.0879 O   0  0  0  0  0  0  0  0  0  0  0  0
    0.3429    3.7880    8.1005 C   0  0  0  0  0  0  0  0  0  0  0  0
   -1.0905    4.0304    7.7836 C   0  0  0  0  0  0  0  0  0  0  0  0
   -1.7340    2.8427    8.0353 C   0  0  0  0  0  0  0  0  0  0  0  0
   -3.0988    2.7779    7.8219 C   0  0  0  0  0  0  0  0  0  0  0  0
   -3.7773    3.8799    7.3707 C   0  0  0  0  0  0  0  0  0  0  0  0
   -3.1041    5.0479    7.1301 C   0  0  0  0  0  0  0  0  0  0  0  0
   -1.7412    5.1391    7.3350 C   0  0  0  0  0  0  0  0  0  0  0  0
  1  2  2  0
  3  2  1  6
  3  4  1  0
  4  5  1  0
  5  6  1  0
  6  7  1  0
  7  8  1  6
  8  9  1  0
  9 10  2  0
 10 11  1  0
 11 12  2  0
 12 13  1  0
 13 14  2  0
  2 15  1  0
 15 16  1  0
 16 17  1  0
 17 18  1  0
 18 19  1  0
 19 20  1  0
 20 21  1  0
 21 22  1  0
 22 23  1  0
 23 24  1  0
 22 25  1  0
 25 26  1  0
 26 27  1  0
 27 28  2  0
 28 29  1  0
 29 30  2  0
 30 31  1  0
 31 32  2  0
  7  3  1  0
 14  9  1  0
 24 19  1  0
 32 27  1  0
 28 22  1  0
M  CHG  2   7   1  19   1
M  END
$$$$
