
     RDKit          3D

 32 36  0  0  0  0  0  0  0  0999 V2000
    2.3498   -3.1399   14.1408 O   0  0  0  0  0  0  0  0  0  0  0  0
    3.0324   -3.1877   13.1068 C   0  0  0  0  0  0  0  0  0  0  0  0
    4.4677   -2.9500   12.9622 C   0  0  1  0  0  0  0  0  0  0  0  0
    4.7031   -1.4630   13.1300 C   0  0  0  0  0  0  0  0  0  0  0  0
    5.7084   -1.4236   14.2866 C   0  0  0  0  0  0  0  0  0  0  0  0
    6.4293   -2.7319   14.0704 C   0  0  0  0  0  0  0  0  0  0  0  0
    5.3296   -3.6472   13.8424 N   0  0  1  0  0  4  0  0  0  0  0  0
    4.7485   -4.1906   15.0226 C   0  0  0  0  0  0  0  0  0  0  0  0
    4.1224   -5.5278   14.7831 C   0  0  0  0  0  0  0  0  0  0  0  0
    2.7617   -5.7318   14.7892 C   0  0  0  0  0  0  0  0  0  0  0  0
    2.2151   -6.9781   14.5665 C   0  0  0  0  0  0  0  0  0  0  0  0
    3.0052   -8.0805   14.3270 C   0  0  0  0  0  0  0  0  0  0  0  0
    4.3616   -7.8844   14.3195 C   0  0  0  0  0  0  0  0  0  0  0  0
    4.9242   -6.6482   14.5396 C   0  0  0  0  0  0  0  0  0  0  0  0
    2.3082   -3.5213   11.8976 N   0  0  0  0  0  0  0  0  0  0  0  0
    1.0007   -3.0094   11.6390 C   0  0  0  0  0  0  0  0  0  0  0  0
    0.9946   -2.2998   10.3099 C   0  0  0  0  0  0  0  0  0  0  0  0
   -0.3475   -1.7297    9.9924 C   0  0  0  0  0  0  0  0  0  0  0  0
   -0.2931   -0.3489    9.5858 N   0  0  0  0  0  4  0  0  0  0  0  0
   -1.4776    0.3426   10.0229 C   0  0  0  0  0  0  0  0  0  0  0  0
   -1.3511    1.8382    9.8361 C   0  0  0  0  0  0  0  0  0  0  0  0
   -0.7341    2.1868    8.4945 C   0  0  0  0  0  0  0  0  0  0  0  0
   -0.7981    0.9767    7.5851 C   0  0  0  0  0  0  0  0  0  0  0  0
   -0.0126   -0.1643    8.1900 C   0  0  0  0  0  0  0  0  0  0  0  0
    0.5743    2.5806    8.6231 O   0  0  0  0  0  0  0  0  0  0  0  0
    0.5638    3.9742    8.7651 C   0  0  0  0  0  0  0  0  0  0  0  0
   -0.6182    4.4170    7.9772 C   0  0  0  0  0  0  0  0  0  0  0  0
   -1.4024    3.2994    7.8215 C   0  0  0  0  0  0  0  0  0  0  0  0
   -2.5851    3.4210    7.1152 C   0  0  0  0  0  0  0  0  0  0  0  0
   -2.9510    4.6331    6.5903 C   0  0  0  0  0  0  0  0  0  0  0  0
   -2.1452    5.7265    6.7647 C   0  0  0  0  0  0  0  0  0  0  0  0
   -0.9590    5.6320    7.4659 C   0  0  0  0  0  0  0  0  0  0  0  0
  1  2  2  0
  3  2  1  1
  3  4  1  0
  4  5  1  0
  5  6  1  0
  6  7  1  0
  7  8  1  1
  8  9  1  0
  9 10  2  0
 10 11  1  0
 11 12  2  0
 12 13  1  0
 13 14  2  0
  2 15  1  0
 15 16  1  0
 16 17  1  0
 17 18  1  0
 18 19  1  0
 19 20  1  0
 20 21  1  0
 21 22  1  0
 22 23  1  0
 23 24  1  0
 22 25  1  0
 25 26  1  0
 26 27  1  0
 27 28  2  0
 28 29  1  0
 29 30  2  0
 30 31  1  0
 31 32  2  0
  7  3  1  0
 14  9  1  0
 24 19  1  0
 32 27  1  0
 28 22  1  0
M  CHG  2   7   1  19   1
M  END
$$$$
