
     RDKit          3D

 32 36  0  0  0  0  0  0  0  0999 V2000
    2.6505   -3.8292   14.0620 O   0  0  0  0  0  0  0  0  0  0  0  0
    1.7873   -4.5082   13.4864 C   0  0  0  0  0  0  0  0  0  0  0  0
    1.0676   -5.6734   13.9981 C   0  0  1  0  0  0  0  0  0  0  0  0
    0.2397   -6.2342   12.8602 C   0  0  0  0  0  0  0  0  0  0  0  0
    0.7396   -7.6812   12.7797 C   0  0  0  0  0  0  0  0  0  0  0  0
    1.1112   -7.9253   14.2220 C   0  0  0  0  0  0  0  0  0  0  0  0
    1.8435   -6.7196   14.5522 N   0  0  1  0  0  4  0  0  0  0  0  0
    3.2263   -6.7481   14.2165 C   0  0  0  0  0  0  0  0  0  0  0  0
    4.0212   -5.7522   14.9999 C   0  0  0  0  0  0  0  0  0  0  0  0
    4.1710   -5.8183   16.3661 C   0  0  0  0  0  0  0  0  0  0  0  0
    4.9094   -4.8830   17.0600 C   0  0  0  0  0  0  0  0  0  0  0  0
    5.5337   -3.8361   16.4189 C   0  0  0  0  0  0  0  0  0  0  0  0
    5.3887   -3.7641   15.0580 C   0  0  0  0  0  0  0  0  0  0  0  0
    4.6558   -4.6882   14.3496 C   0  0  0  0  0  0  0  0  0  0  0  0
    1.4586   -4.0861   12.1404 N   0  0  0  0  0  0  0  0  0  0  0  0
    1.9805   -2.8801   11.5822 C   0  0  0  0  0  0  0  0  0  0  0  0
    0.8602   -2.0946   10.9514 C   0  0  0  0  0  0  0  0  0  0  0  0
    1.3627   -1.1532    9.9081 C   0  0  0  0  0  0  0  0  0  0  0  0
    0.3207   -0.3477    9.3247 N   0  0  0  0  0  4  0  0  0  0  0  0
    0.8790    0.5542    8.3514 C   0  0  0  0  0  0  0  0  0  0  0  0
   -0.1999    1.2392    7.5425 C   0  0  0  0  0  0  0  0  0  0  0  0
   -1.3499    1.7019    8.4174 C   0  0  0  0  0  0  0  0  0  0  0  0
   -0.9061    1.7058    9.8660 C   0  0  0  0  0  0  0  0  0  0  0  0
   -0.5165    0.3079   10.2891 C   0  0  0  0  0  0  0  0  0  0  0  0
   -2.4471    0.8875    8.2883 O   0  0  0  0  0  0  0  0  0  0  0  0
   -3.2438    1.4417    7.2781 C   0  0  0  0  0  0  0  0  0  0  0  0
   -2.9992    2.9062    7.3761 C   0  0  0  0  0  0  0  0  0  0  0  0
   -1.8289    3.0422    8.0831 C   0  0  0  0  0  0  0  0  0  0  0  0
   -1.3551    4.3180    8.3286 C   0  0  0  0  0  0  0  0  0  0  0  0
   -2.0478    5.4085    7.8710 C   0  0  0  0  0  0  0  0  0  0  0  0
   -3.2112    5.2362    7.1694 C   0  0  0  0  0  0  0  0  0  0  0  0
   -3.7060    3.9729    6.9108 C   0  0  0  0  0  0  0  0  0  0  0  0
  1  2  2  0
  3  2  1  6
  3  4  1  0
  4  5  1  0
  5  6  1  0
  6  7  1  0
  7  8  1  6
  8  9  1  0
  9 10  2  0
 10 11  1  0
 11 12  2  0
 12 13  1  0
 13 14  2  0
  2 15  1  0
 15 16  1  0
 16 17  1  0
 17 18  1  0
 18 19  1  0
 19 20  1  0
 20 21  1  0
 21 22  1  0
 22 23  1  0
 23 24  1  0
 22 25  1  0
 25 26  1  0
 26 27  1  0
 27 28  2  0
 28 29  1  0
 29 30  2  0
 30 31  1  0
 31 32  2  0
  7  3  1  0
 14  9  1  0
 24 19  1  0
 32 27  1  0
 28 22  1  0
M  CHG  2   7   1  19   1
M  END
$$$$
