
     RDKit          3D

 32 36  0  0  0  0  0  0  0  0999 V2000
    2.0212   -4.3548   13.3256 O   0  0  0  0  0  0  0  0  0  0  0  0
    2.9596   -3.7487   12.7875 C   0  0  0  0  0  0  0  0  0  0  0  0
    4.3942   -3.9545   12.9800 C   0  0  1  0  0  0  0  0  0  0  0  0
    5.0932   -2.6595   12.6209 C   0  0  0  0  0  0  0  0  0  0  0  0
    5.8621   -2.3397   13.9079 C   0  0  0  0  0  0  0  0  0  0  0  0
    6.1185   -3.7326   14.4295 C   0  0  0  0  0  0  0  0  0  0  0  0
    4.8216   -4.3578   14.2678 N   0  0  1  0  0  4  0  0  0  0  0  0
    3.9168   -4.1471   15.3460 C   0  0  0  0  0  0  0  0  0  0  0  0
    3.2347   -5.4092   15.7695 C   0  0  0  0  0  0  0  0  0  0  0  0
    3.4821   -6.0294   16.9725 C   0  0  0  0  0  0  0  0  0  0  0  0
    2.8376   -7.1939   17.3332 C   0  0  0  0  0  0  0  0  0  0  0  0
    1.9138   -7.7935   16.5063 C   0  0  0  0  0  0  0  0  0  0  0  0
    1.6624   -7.1809   15.3063 C   0  0  0  0  0  0  0  0  0  0  0  0
    2.2960   -6.0190   14.9301 C   0  0  0  0  0  0  0  0  0  0  0  0
    2.5760   -2.7099   11.8539 N   0  0  0  0  0  0  0  0  0  0  0  0
    1.2078   -2.4505   11.5384 C   0  0  0  0  0  0  0  0  0  0  0  0
    1.1326   -1.6070   10.2923 C   0  0  0  0  0  0  0  0  0  0  0  0
   -0.2766   -1.2679    9.9372 C   0  0  0  0  0  0  0  0  0  0  0  0
   -0.4521    0.1169    9.5815 N   0  0  0  0  0  4  0  0  0  0  0  0
   -1.7924    0.5413    9.8916 C   0  0  0  0  0  0  0  0  0  0  0  0
   -1.9455    2.0407    9.7662 C   0  0  0  0  0  0  0  0  0  0  0  0
   -1.2620    2.5734    8.5207 C   0  0  0  0  0  0  0  0  0  0  0  0
   -0.9803    1.4240    7.5746 C   0  0  0  0  0  0  0  0  0  0  0  0
   -0.0574    0.4265    8.2364 C   0  0  0  0  0  0  0  0  0  0  0  0
   -0.0812    3.2060    8.8194 O   0  0  0  0  0  0  0  0  0  0  0  0
   -0.3849    4.5615    9.0005 C   0  0  0  0  0  0  0  0  0  0  0  0
   -1.5341    4.8080    8.0881 C   0  0  0  0  0  0  0  0  0  0  0  0
   -2.0574    3.5694    7.8048 C   0  0  0  0  0  0  0  0  0  0  0  0
   -3.1527    3.4968    6.9637 C   0  0  0  0  0  0  0  0  0  0  0  0
   -3.6904    4.6410    6.4346 C   0  0  0  0  0  0  0  0  0  0  0  0
   -3.1434    5.8592    6.7383 C   0  0  0  0  0  0  0  0  0  0  0  0
   -2.0495    5.9593    7.5756 C   0  0  0  0  0  0  0  0  0  0  0  0
  1  2  2  0
  3  2  1  1
  3  4  1  0
  4  5  1  0
  5  6  1  0
  6  7  1  0
  7  8  1  1
  8  9  1  0
  9 10  2  0
 10 11  1  0
 11 12  2  0
 12 13  1  0
 13 14  2  0
  2 15  1  0
 15 16  1  0
 16 17  1  0
 17 18  1  0
 18 19  1  0
 19 20  1  0
 20 21  1  0
 21 22  1  0
 22 23  1  0
 23 24  1  0
 22 25  1  0
 25 26  1  0
 26 27  1  0
 27 28  2  0
 28 29  1  0
 29 30  2  0
 30 31  1  0
 31 32  2  0
  7  3  1  0
 14  9  1  0
 24 19  1  0
 32 27  1  0
 28 22  1  0
M  CHG  2   7   1  19   1
M  END
$$$$
