
     RDKit          3D

 32 36  0  0  0  0  0  0  0  0999 V2000
    3.6206   -1.4032   13.5183 O   0  0  0  0  0  0  0  0  0  0  0  0
    2.9025   -2.4097   13.6122 C   0  0  0  0  0  0  0  0  0  0  0  0
    3.0461   -3.5369   14.5322 C   0  0  1  0  0  0  0  0  0  0  0  0
    2.2639   -4.6989   13.9554 C   0  0  0  0  0  0  0  0  0  0  0  0
    3.3364   -5.7891   13.8491 C   0  0  0  0  0  0  0  0  0  0  0  0
    4.2348   -5.4055   14.9996 C   0  0  0  0  0  0  0  0  0  0  0  0
    4.3618   -3.9738   14.8177 N   0  0  1  0  0  4  0  0  0  0  0  0
    5.3873   -3.5736   13.9155 C   0  0  0  0  0  0  0  0  0  0  0  0
    5.9111   -2.2064   14.2219 C   0  0  0  0  0  0  0  0  0  0  0  0
    7.0492   -1.9869   14.9633 C   0  0  0  0  0  0  0  0  0  0  0  0
    7.5055   -0.7133   15.2300 C   0  0  0  0  0  0  0  0  0  0  0  0
    6.8438    0.4023   14.7669 C   0  0  0  0  0  0  0  0  0  0  0  0
    5.7093    0.1909   14.0276 C   0  0  0  0  0  0  0  0  0  0  0  0
    5.2396   -1.0725   13.7518 C   0  0  0  0  0  0  0  0  0  0  0  0
    1.7855   -2.4657   12.6918 N   0  0  0  0  0  0  0  0  0  0  0  0
    1.4939   -1.3916   11.7974 C   0  0  0  0  0  0  0  0  0  0  0  0
    0.2730   -1.7350   10.9840 C   0  0  0  0  0  0  0  0  0  0  0  0
    0.4203   -1.3148    9.5596 C   0  0  0  0  0  0  0  0  0  0  0  0
   -0.1863   -0.0383    9.2814 N   0  0  0  0  0  4  0  0  0  0  0  0
   -1.6099   -0.1896    9.1300 C   0  0  0  0  0  0  0  0  0  0  0  0
   -2.3112    1.1496    9.0838 C   0  0  0  0  0  0  0  0  0  0  0  0
   -1.5679    2.1435    8.2109 C   0  0  0  0  0  0  0  0  0  0  0  0
   -0.5817    1.3992    7.3341 C   0  0  0  0  0  0  0  0  0  0  0  0
    0.4261    0.6723    8.1947 C   0  0  0  0  0  0  0  0  0  0  0  0
   -0.8883    3.0706    8.9607 O   0  0  0  0  0  0  0  0  0  0  0  0
   -1.7519    4.1598    9.1345 C   0  0  0  0  0  0  0  0  0  0  0  0
   -2.5788    4.1769    7.8976 C   0  0  0  0  0  0  0  0  0  0  0  0
   -2.4488    2.9256    7.3449 C   0  0  0  0  0  0  0  0  0  0  0  0
   -3.1210    2.6556    6.1669 C   0  0  0  0  0  0  0  0  0  0  0  0
   -3.8933    3.6230    5.5788 C   0  0  0  0  0  0  0  0  0  0  0  0
   -4.0006    4.8597    6.1572 C   0  0  0  0  0  0  0  0  0  0  0  0
   -3.3395    5.1550    7.3334 C   0  0  0  0  0  0  0  0  0  0  0  0
  1  2  2  0
  3  2  1  6
  3  4  1  0
  4  5  1  0
  5  6  1  0
  6  7  1  0
  7  8  1  6
  8  9  1  0
  9 10  2  0
 10 11  1  0
 11 12  2  0
 12 13  1  0
 13 14  2  0
  2 15  1  0
 15 16  1  0
 16 17  1  0
 17 18  1  0
 18 19  1  0
 19 20  1  0
 20 21  1  0
 21 22  1  0
 22 23  1  0
 23 24  1  0
 22 25  1  0
 25 26  1  0
 26 27  1  0
 27 28  2  0
 28 29  1  0
 29 30  2  0
 30 31  1  0
 31 32  2  0
  7  3  1  0
 14  9  1  0
 24 19  1  0
 32 27  1  0
 28 22  1  0
M  CHG  2   7   1  19   1
M  END
$$$$
