
     RDKit          3D

 32 36  0  0  0  0  0  0  0  0999 V2000
    2.6744   -4.3273   13.6637 O   0  0  0  0  0  0  0  0  0  0  0  0
    1.8258   -5.0494   13.1195 C   0  0  0  0  0  0  0  0  0  0  0  0
    1.8835   -6.4920   12.8894 C   0  0  1  0  0  0  0  0  0  0  0  0
    3.1621   -6.7822   12.1307 C   0  0  0  0  0  0  0  0  0  0  0  0
    3.8607   -7.7915   13.0491 C   0  0  0  0  0  0  0  0  0  0  0  0
    2.6656   -8.4633   13.6803 C   0  0  0  0  0  0  0  0  0  0  0  0
    1.8328   -7.3302   14.0289 N   0  0  1  0  0  4  0  0  0  0  0  0
    2.1303   -6.7329   15.2861 C   0  0  0  0  0  0  0  0  0  0  0  0
    0.8957   -6.3880   16.0569 C   0  0  0  0  0  0  0  0  0  0  0  0
    0.5179   -5.0934   16.3300 C   0  0  0  0  0  0  0  0  0  0  0  0
   -0.6260   -4.8082   17.0452 C   0  0  0  0  0  0  0  0  0  0  0  0
   -1.4470   -5.8061   17.5217 C   0  0  0  0  0  0  0  0  0  0  0  0
   -1.0767   -7.0980   17.2533 C   0  0  0  0  0  0  0  0  0  0  0  0
    0.0610   -7.4010   16.5414 C   0  0  0  0  0  0  0  0  0  0  0  0
    0.6332   -4.3692   12.6581 N   0  0  0  0  0  0  0  0  0  0  0  0
    0.5192   -2.9463   12.6905 C   0  0  0  0  0  0  0  0  0  0  0  0
    0.2233   -2.4360   11.3041 C   0  0  0  0  0  0  0  0  0  0  0  0
    0.9028   -1.1347   11.0360 C   0  0  0  0  0  0  0  0  0  0  0  0
    0.0352   -0.1591   10.4274 N   0  0  0  0  0  4  0  0  0  0  0  0
   -0.2704   -0.5446    9.0744 C   0  0  0  0  0  0  0  0  0  0  0  0
   -1.3673    0.3136    8.4844 C   0  0  0  0  0  0  0  0  0  0  0  0
   -1.1737    1.7810    8.8181 C   0  0  0  0  0  0  0  0  0  0  0  0
    0.2488    2.0032    9.2898 C   0  0  0  0  0  0  0  0  0  0  0  0
    0.5105    1.1910   10.5375 C   0  0  0  0  0  0  0  0  0  0  0  0
   -2.0397    2.1987    9.7975 O   0  0  0  0  0  0  0  0  0  0  0  0
   -3.1767    2.6937    9.1459 C   0  0  0  0  0  0  0  0  0  0  0  0
   -2.6579    3.2451    7.8650 C   0  0  0  0  0  0  0  0  0  0  0  0
   -1.4229    2.6703    7.6847 C   0  0  0  0  0  0  0  0  0  0  0  0
   -0.7001    3.0091    6.5555 C   0  0  0  0  0  0  0  0  0  0  0  0
   -1.2172    3.8974    5.6490 C   0  0  0  0  0  0  0  0  0  0  0  0
   -2.4517    4.4514    5.8602 C   0  0  0  0  0  0  0  0  0  0  0  0
   -3.1939    4.1299    6.9798 C   0  0  0  0  0  0  0  0  0  0  0  0
  1  2  2  0
  3  2  1  1
  3  4  1  0
  4  5  1  0
  5  6  1  0
  6  7  1  0
  7  8  1  1
  8  9  1  0
  9 10  2  0
 10 11  1  0
 11 12  2  0
 12 13  1  0
 13 14  2  0
  2 15  1  0
 15 16  1  0
 16 17  1  0
 17 18  1  0
 18 19  1  0
 19 20  1  0
 20 21  1  0
 21 22  1  0
 22 23  1  0
 23 24  1  0
 22 25  1  0
 25 26  1  0
 26 27  1  0
 27 28  2  0
 28 29  1  0
 29 30  2  0
 30 31  1  0
 31 32  2  0
  7  3  1  0
 14  9  1  0
 24 19  1  0
 32 27  1  0
 28 22  1  0
M  CHG  2   7   1  19   1
M  END
$$$$
