
     RDKit          3D

 32 36  0  0  0  0  0  0  0  0999 V2000
    1.7508   -4.8510   12.1194 O   0  0  0  0  0  0  0  0  0  0  0  0
    2.5456   -3.9041   12.2143 C   0  0  0  0  0  0  0  0  0  0  0  0
    3.9402   -3.9379   12.6522 C   0  0  1  0  0  0  0  0  0  0  0  0
    4.4194   -2.5049   12.7599 C   0  0  0  0  0  0  0  0  0  0  0  0
    4.8848   -2.4287   14.2185 C   0  0  0  0  0  0  0  0  0  0  0  0
    5.3208   -3.8560   14.4439 C   0  0  0  0  0  0  0  0  0  0  0  0
    4.2183   -4.6013   13.8712 N   0  0  1  0  0  4  0  0  0  0  0  0
    3.1231   -4.8224   14.7528 C   0  0  0  0  0  0  0  0  0  0  0  0
    3.1849   -6.1651   15.4092 C   0  0  0  0  0  0  0  0  0  0  0  0
    3.5539   -7.3107   14.7425 C   0  0  0  0  0  0  0  0  0  0  0  0
    3.5994   -8.5347   15.3760 C   0  0  0  0  0  0  0  0  0  0  0  0
    3.2774   -8.6704   16.7082 C   0  0  0  0  0  0  0  0  0  0  0  0
    2.9089   -7.5332   17.3784 C   0  0  0  0  0  0  0  0  0  0  0  0
    2.8579   -6.3040   16.7625 C   0  0  0  0  0  0  0  0  0  0  0  0
    2.0168   -2.6078   11.8428 N   0  0  0  0  0  0  0  0  0  0  0  0
    0.8029   -2.4751   11.1030 C   0  0  0  0  0  0  0  0  0  0  0  0
    0.5478   -1.0180   10.8169 C   0  0  0  0  0  0  0  0  0  0  0  0
   -0.6882   -0.8212   10.0040 C   0  0  0  0  0  0  0  0  0  0  0  0
   -0.8790    0.5444    9.5874 N   0  0  0  0  0  4  0  0  0  0  0  0
   -2.2844    0.8486    9.5181 C   0  0  0  0  0  0  0  0  0  0  0  0
   -2.5256    2.3295    9.3270 C   0  0  0  0  0  0  0  0  0  0  0  0
   -1.5802    2.9250    8.3004 C   0  0  0  0  0  0  0  0  0  0  0  0
   -0.9574    1.8087    7.4872 C   0  0  0  0  0  0  0  0  0  0  0  0
   -0.1649    0.8929    8.3918 C   0  0  0  0  0  0  0  0  0  0  0  0
   -0.5818    3.6572    8.8926 O   0  0  0  0  0  0  0  0  0  0  0  0
   -1.0374    4.9803    8.9591 C   0  0  0  0  0  0  0  0  0  0  0  0
   -1.9155    5.1291    7.7671 C   0  0  0  0  0  0  0  0  0  0  0  0
   -2.2357    3.8507    7.3780 C   0  0  0  0  0  0  0  0  0  0  0  0
   -3.0539    3.6861    6.2754 C   0  0  0  0  0  0  0  0  0  0  0  0
   -3.5250    4.7811    5.5991 C   0  0  0  0  0  0  0  0  0  0  0  0
   -3.1859    6.0412    6.0147 C   0  0  0  0  0  0  0  0  0  0  0  0
   -2.3703    6.2330    7.1127 C   0  0  0  0  0  0  0  0  0  0  0  0
  1  2  2  0
  3  2  1  1
  3  4  1  0
  4  5  1  0
  5  6  1  0
  6  7  1  0
  7  8  1  1
  8  9  1  0
  9 10  2  0
 10 11  1  0
 11 12  2  0
 12 13  1  0
 13 14  2  0
  2 15  1  0
 15 16  1  0
 16 17  1  0
 17 18  1  0
 18 19  1  0
 19 20  1  0
 20 21  1  0
 21 22  1  0
 22 23  1  0
 23 24  1  0
 22 25  1  0
 25 26  1  0
 26 27  1  0
 27 28  2  0
 28 29  1  0
 29 30  2  0
 30 31  1  0
 31 32  2  0
  7  3  1  0
 14  9  1  0
 24 19  1  0
 32 27  1  0
 28 22  1  0
M  CHG  2   7   1  19   1
M  END
$$$$
