
     RDKit          3D

 32 36  0  0  0  0  0  0  0  0999 V2000
    1.5720   -5.2154   13.2046 O   0  0  0  0  0  0  0  0  0  0  0  0
    2.1316   -5.0525   12.1102 C   0  0  0  0  0  0  0  0  0  0  0  0
    2.9337   -6.0143   11.3557 C   0  0  1  0  0  0  0  0  0  0  0  0
    3.1684   -7.2139   12.2503 C   0  0  0  0  0  0  0  0  0  0  0  0
    2.6012   -8.3616   11.4071 C   0  0  0  0  0  0  0  0  0  0  0  0
    2.8626   -7.8374   10.0161 C   0  0  0  0  0  0  0  0  0  0  0  0
    2.4082   -6.4657   10.1213 N   0  0  1  0  0  4  0  0  0  0  0  0
    1.0142   -6.2784    9.9035 C   0  0  0  0  0  0  0  0  0  0  0  0
    0.7191   -5.0027    9.1804 C   0  0  0  0  0  0  0  0  0  0  0  0
    0.2307   -3.8796    9.8076 C   0  0  0  0  0  0  0  0  0  0  0  0
   -0.0331   -2.7184    9.1121 C   0  0  0  0  0  0  0  0  0  0  0  0
    0.1797   -2.6260    7.7545 C   0  0  0  0  0  0  0  0  0  0  0  0
    0.6661   -3.7411    7.1234 C   0  0  0  0  0  0  0  0  0  0  0  0
    0.9349   -4.9078    7.8013 C   0  0  0  0  0  0  0  0  0  0  0  0
    1.9636   -3.7433   11.5138 N   0  0  0  0  0  0  0  0  0  0  0  0
    2.1921   -2.5446   12.2551 C   0  0  0  0  0  0  0  0  0  0  0  0
    1.1997   -1.4947   11.8275 C   0  0  0  0  0  0  0  0  0  0  0  0
    1.7683   -0.5847   10.7903 C   0  0  0  0  0  0  0  0  0  0  0  0
    0.9491    0.5745   10.5452 N   0  0  0  0  0  4  0  0  0  0  0  0
   -0.2488    0.1942    9.8431 C   0  0  0  0  0  0  0  0  0  0  0  0
   -1.2452    1.3306    9.7844 C   0  0  0  0  0  0  0  0  0  0  0  0
   -0.5734    2.6508    9.4562 C   0  0  0  0  0  0  0  0  0  0  0  0
    0.8080    2.3830    8.8946 C   0  0  0  0  0  0  0  0  0  0  0  0
    1.6503    1.6607    9.9212 C   0  0  0  0  0  0  0  0  0  0  0  0
   -0.4576    3.4523   10.5643 O   0  0  0  0  0  0  0  0  0  0  0  0
   -1.6009    4.2612   10.5979 C   0  0  0  0  0  0  0  0  0  0  0  0
   -1.9599    4.4532    9.1667 C   0  0  0  0  0  0  0  0  0  0  0  0
   -1.3145    3.4513    8.4828 C   0  0  0  0  0  0  0  0  0  0  0  0
   -1.4716    3.3872    7.1103 C   0  0  0  0  0  0  0  0  0  0  0  0
   -2.2550    4.3076    6.4643 C   0  0  0  0  0  0  0  0  0  0  0  0
   -2.8840    5.2931    7.1774 C   0  0  0  0  0  0  0  0  0  0  0  0
   -2.7435    5.3794    8.5487 C   0  0  0  0  0  0  0  0  0  0  0  0
  1  2  2  0
  3  2  1  1
  3  4  1  0
  4  5  1  0
  5  6  1  0
  6  7  1  0
  7  8  1  1
  8  9  1  0
  9 10  2  0
 10 11  1  0
 11 12  2  0
 12 13  1  0
 13 14  2  0
  2 15  1  0
 15 16  1  0
 16 17  1  0
 17 18  1  0
 18 19  1  0
 19 20  1  0
 20 21  1  0
 21 22  1  0
 22 23  1  0
 23 24  1  0
 22 25  1  0
 25 26  1  0
 26 27  1  0
 27 28  2  0
 28 29  1  0
 29 30  2  0
 30 31  1  0
 31 32  2  0
  7  3  1  0
 14  9  1  0
 24 19  1  0
 32 27  1  0
 28 22  1  0
M  CHG  2   7   1  19   1
M  END
$$$$
