
     RDKit          3D

 32 36  0  0  0  0  0  0  0  0999 V2000
    1.1753   -4.5475   14.4780 O   0  0  0  0  0  0  0  0  0  0  0  0
    2.3024   -4.0862   14.2446 C   0  0  0  0  0  0  0  0  0  0  0  0
    3.4910   -4.1368   15.0945 C   0  0  1  0  0  0  0  0  0  0  0  0
    3.9246   -5.5853   15.1865 C   0  0  0  0  0  0  0  0  0  0  0  0
    5.3703   -5.5224   14.6805 C   0  0  0  0  0  0  0  0  0  0  0  0
    5.7543   -4.1290   15.1148 C   0  0  0  0  0  0  0  0  0  0  0  0
    4.6025   -3.3556   14.6973 N   0  0  1  0  0  4  0  0  0  0  0  0
    4.6350   -2.9163   13.3439 C   0  0  0  0  0  0  0  0  0  0  0  0
    4.1694   -1.5027   13.1947 C   0  0  0  0  0  0  0  0  0  0  0  0
    3.3834   -1.0773   12.1485 C   0  0  0  0  0  0  0  0  0  0  0  0
    2.9718    0.2342   12.0383 C   0  0  0  0  0  0  0  0  0  0  0  0
    3.3275    1.1831   12.9708 C   0  0  0  0  0  0  0  0  0  0  0  0
    4.1103    0.7663   14.0157 C   0  0  0  0  0  0  0  0  0  0  0  0
    4.5302   -0.5379   14.1415 C   0  0  0  0  0  0  0  0  0  0  0  0
    2.4488   -3.4158   12.9691 N   0  0  0  0  0  0  0  0  0  0  0  0
    1.3723   -3.3344   12.0347 C   0  0  0  0  0  0  0  0  0  0  0  0
    1.1606   -1.8961   11.6389 C   0  0  0  0  0  0  0  0  0  0  0  0
    0.7875   -1.7668   10.1997 C   0  0  0  0  0  0  0  0  0  0  0  0
    0.0557   -0.5599    9.9120 N   0  0  0  0  0  4  0  0  0  0  0  0
   -0.8201   -0.7685    8.7886 C   0  0  0  0  0  0  0  0  0  0  0  0
   -1.7807    0.3859    8.6086 C   0  0  0  0  0  0  0  0  0  0  0  0
   -1.0879    1.7252    8.7780 C   0  0  0  0  0  0  0  0  0  0  0  0
    0.4110    1.5291    8.6772 C   0  0  0  0  0  0  0  0  0  0  0  0
    0.8846    0.6042    9.7749 C   0  0  0  0  0  0  0  0  0  0  0  0
   -1.3828    2.3012    9.9884 O   0  0  0  0  0  0  0  0  0  0  0  0
   -2.5002    3.1208    9.7831 C   0  0  0  0  0  0  0  0  0  0  0  0
   -2.3628    3.5876    8.3770 C   0  0  0  0  0  0  0  0  0  0  0  0
   -1.4872    2.7142    7.7781 C   0  0  0  0  0  0  0  0  0  0  0  0
   -1.1700    2.9128    6.4468 C   0  0  0  0  0  0  0  0  0  0  0  0
   -1.7240    3.9594    5.7568 C   0  0  0  0  0  0  0  0  0  0  0  0
   -2.5933    4.8108    6.3852 C   0  0  0  0  0  0  0  0  0  0  0  0
   -2.9266    4.6346    7.7139 C   0  0  0  0  0  0  0  0  0  0  0  0
  1  2  2  0
  3  2  1  6
  3  4  1  0
  4  5  1  0
  5  6  1  0
  6  7  1  0
  7  8  1  6
  8  9  1  0
  9 10  2  0
 10 11  1  0
 11 12  2  0
 12 13  1  0
 13 14  2  0
  2 15  1  0
 15 16  1  0
 16 17  1  0
 17 18  1  0
 18 19  1  0
 19 20  1  0
 20 21  1  0
 21 22  1  0
 22 23  1  0
 23 24  1  0
 22 25  1  0
 25 26  1  0
 26 27  1  0
 27 28  2  0
 28 29  1  0
 29 30  2  0
 30 31  1  0
 31 32  2  0
  7  3  1  0
 14  9  1  0
 24 19  1  0
 32 27  1  0
 28 22  1  0
M  CHG  2   7   1  19   1
M  END
$$$$
