
     RDKit          3D

 32 36  0  0  0  0  0  0  0  0999 V2000
    2.7972   -3.2560   13.6129 O   0  0  0  0  0  0  0  0  0  0  0  0
    2.3330   -3.8052   12.6028 C   0  0  0  0  0  0  0  0  0  0  0  0
    2.7470   -5.0675   11.9922 C   0  0  1  0  0  0  0  0  0  0  0  0
    1.8891   -5.2824   10.7624 C   0  0  0  0  0  0  0  0  0  0  0  0
    2.9404   -5.4201    9.6552 C   0  0  0  0  0  0  0  0  0  0  0  0
    4.0852   -6.0199   10.4347 C   0  0  0  0  0  0  0  0  0  0  0  0
    4.1078   -5.1901   11.6222 N   0  0  1  0  0  4  0  0  0  0  0  0
    4.8560   -3.9860   11.4970 C   0  0  0  0  0  0  0  0  0  0  0  0
    5.2823   -3.4420   12.8236 C   0  0  0  0  0  0  0  0  0  0  0  0
    5.5827   -4.2420   13.9019 C   0  0  0  0  0  0  0  0  0  0  0  0
    5.9714   -3.7094   15.1131 C   0  0  0  0  0  0  0  0  0  0  0  0
    6.0779   -2.3494   15.3026 C   0  0  0  0  0  0  0  0  0  0  0  0
    5.7802   -1.5466   14.2325 C   0  0  0  0  0  0  0  0  0  0  0  0
    5.3909   -2.0605   13.0171 C   0  0  0  0  0  0  0  0  0  0  0  0
    1.2461   -3.1005   11.9548 N   0  0  0  0  0  0  0  0  0  0  0  0
    1.3042   -1.6960   11.7044 C   0  0  0  0  0  0  0  0  0  0  0  0
    0.0217   -1.2504   11.0512 C   0  0  0  0  0  0  0  0  0  0  0  0
   -0.3152    0.1614   11.3982 C   0  0  0  0  0  0  0  0  0  0  0  0
   -1.0281    0.8460   10.3504 N   0  0  0  0  0  4  0  0  0  0  0  0
   -0.2535    0.8363    9.1370 C   0  0  0  0  0  0  0  0  0  0  0  0
   -1.0625    1.3223    7.9551 C   0  0  0  0  0  0  0  0  0  0  0  0
   -1.8890    2.5458    8.3047 C   0  0  0  0  0  0  0  0  0  0  0  0
   -1.3643    3.1533    9.5896 C   0  0  0  0  0  0  0  0  0  0  0  0
   -1.4867    2.1556   10.7186 C   0  0  0  0  0  0  0  0  0  0  0  0
   -3.2158    2.2343    8.4668 O   0  0  0  0  0  0  0  0  0  0  0  0
   -3.8273    2.4137    7.2193 C   0  0  0  0  0  0  0  0  0  0  0  0
   -3.0525    3.5130    6.5827 C   0  0  0  0  0  0  0  0  0  0  0  0
   -1.8636    3.5769    7.2686 C   0  0  0  0  0  0  0  0  0  0  0  0
   -0.9349    4.5268    6.8845 C   0  0  0  0  0  0  0  0  0  0  0  0
   -1.2093    5.3752    5.8437 C   0  0  0  0  0  0  0  0  0  0  0  0
   -2.4047    5.2835    5.1819 C   0  0  0  0  0  0  0  0  0  0  0  0
   -3.3493    4.3438    5.5456 C   0  0  0  0  0  0  0  0  0  0  0  0
  1  2  2  0
  3  2  1  6
  3  4  1  0
  4  5  1  0
  5  6  1  0
  6  7  1  0
  7  8  1  6
  8  9  1  0
  9 10  2  0
 10 11  1  0
 11 12  2  0
 12 13  1  0
 13 14  2  0
  2 15  1  0
 15 16  1  0
 16 17  1  0
 17 18  1  0
 18 19  1  0
 19 20  1  0
 20 21  1  0
 21 22  1  0
 22 23  1  0
 23 24  1  0
 22 25  1  0
 25 26  1  0
 26 27  1  0
 27 28  2  0
 28 29  1  0
 29 30  2  0
 30 31  1  0
 31 32  2  0
  7  3  1  0
 14  9  1  0
 24 19  1  0
 32 27  1  0
 28 22  1  0
M  CHG  2   7   1  19   1
M  END
$$$$
