
     RDKit          3D

 32 36  0  0  0  0  0  0  0  0999 V2000
    4.4112   -3.5449   12.2140 O   0  0  0  0  0  0  0  0  0  0  0  0
    3.8587   -2.6238   12.8337 C   0  0  0  0  0  0  0  0  0  0  0  0
    4.4504   -1.7146   13.8139 C   0  0  1  0  0  0  0  0  0  0  0  0
    3.3498   -0.7997   14.3101 C   0  0  0  0  0  0  0  0  0  0  0  0
    3.3865   -1.0416   15.8234 C   0  0  0  0  0  0  0  0  0  0  0  0
    4.8474   -1.3687   16.0152 C   0  0  0  0  0  0  0  0  0  0  0  0
    5.0920   -2.2992   14.9320 N   0  0  1  0  0  4  0  0  0  0  0  0
    4.7751   -3.6555   15.2247 C   0  0  0  0  0  0  0  0  0  0  0  0
    5.5974   -4.6158   14.4253 C   0  0  0  0  0  0  0  0  0  0  0  0
    5.0477   -5.6041   13.6416 C   0  0  0  0  0  0  0  0  0  0  0  0
    5.8336   -6.4755   12.9174 C   0  0  0  0  0  0  0  0  0  0  0  0
    7.2085   -6.3991   12.9431 C   0  0  0  0  0  0  0  0  0  0  0  0
    7.7628   -5.4168   13.7217 C   0  0  0  0  0  0  0  0  0  0  0  0
    6.9942   -4.5389   14.4507 C   0  0  0  0  0  0  0  0  0  0  0  0
    2.4526   -2.4336   12.5430 N   0  0  0  0  0  0  0  0  0  0  0  0
    1.9332   -2.5705   11.2201 C   0  0  0  0  0  0  0  0  0  0  0  0
    0.8269   -1.5693   11.0105 C   0  0  0  0  0  0  0  0  0  0  0  0
    0.3741   -1.5337    9.5890 C   0  0  0  0  0  0  0  0  0  0  0  0
   -0.3808   -0.3502    9.2659 N   0  0  0  0  0  4  0  0  0  0  0  0
   -0.7375   -0.3564    7.8712 C   0  0  0  0  0  0  0  0  0  0  0  0
   -1.7334    0.7343    7.5455 C   0  0  0  0  0  0  0  0  0  0  0  0
   -1.3716    2.0450    8.2189 C   0  0  0  0  0  0  0  0  0  0  0  0
    0.0700    1.9886    8.6811 C   0  0  0  0  0  0  0  0  0  0  0  0
    0.2460    0.8717    9.6844 C   0  0  0  0  0  0  0  0  0  0  0  0
   -2.1778    2.3013    9.2997 O   0  0  0  0  0  0  0  0  0  0  0  0
   -3.2554    3.0617    8.8274 C   0  0  0  0  0  0  0  0  0  0  0  0
   -2.6858    3.8506    7.7018 C   0  0  0  0  0  0  0  0  0  0  0  0
   -1.5256    3.2068    7.3448 C   0  0  0  0  0  0  0  0  0  0  0  0
   -0.7766    3.7316    6.3075 C   0  0  0  0  0  0  0  0  0  0  0  0
   -1.1953    4.8660    5.6624 C   0  0  0  0  0  0  0  0  0  0  0  0
   -2.3572    5.4821    6.0443 C   0  0  0  0  0  0  0  0  0  0  0  0
   -3.1236    4.9784    7.0771 C   0  0  0  0  0  0  0  0  0  0  0  0
  1  2  2  0
  3  2  1  6
  3  4  1  0
  4  5  1  0
  5  6  1  0
  6  7  1  0
  7  8  1  1
  8  9  1  0
  9 10  2  0
 10 11  1  0
 11 12  2  0
 12 13  1  0
 13 14  2  0
  2 15  1  0
 15 16  1  0
 16 17  1  0
 17 18  1  0
 18 19  1  0
 19 20  1  0
 20 21  1  0
 21 22  1  0
 22 23  1  0
 23 24  1  0
 22 25  1  0
 25 26  1  0
 26 27  1  0
 27 28  2  0
 28 29  1  0
 29 30  2  0
 30 31  1  0
 31 32  2  0
  7  3  1  0
 14  9  1  0
 24 19  1  0
 32 27  1  0
 28 22  1  0
M  CHG  2   7   1  19   1
M  END
$$$$
