
     RDKit          3D

 32 36  0  0  0  0  0  0  0  0999 V2000
    3.4275   -5.0591   12.3319 O   0  0  0  0  0  0  0  0  0  0  0  0
    2.9129   -4.2996   13.1661 C   0  0  0  0  0  0  0  0  0  0  0  0
    2.9416   -4.4092   14.6237 C   0  0  1  0  0  0  0  0  0  0  0  0
    2.8660   -5.8815   14.9721 C   0  0  0  0  0  0  0  0  0  0  0  0
    4.1318   -6.0796   15.8139 C   0  0  0  0  0  0  0  0  0  0  0  0
    4.2692   -4.7096   16.4322 C   0  0  0  0  0  0  0  0  0  0  0  0
    4.0529   -3.8420   15.2921 N   0  0  1  0  0  4  0  0  0  0  0  0
    5.2134   -3.5791   14.5112 C   0  0  0  0  0  0  0  0  0  0  0  0
    5.1106   -2.2911   13.7577 C   0  0  0  0  0  0  0  0  0  0  0  0
    5.4112   -2.1777   12.4198 C   0  0  0  0  0  0  0  0  0  0  0  0
    5.3079   -0.9748   11.7535 C   0  0  0  0  0  0  0  0  0  0  0  0
    4.8985    0.1729   12.3953 C   0  0  0  0  0  0  0  0  0  0  0  0
    4.5974    0.0671   13.7282 C   0  0  0  0  0  0  0  0  0  0  0  0
    4.6947   -1.1247   14.4087 C   0  0  0  0  0  0  0  0  0  0  0  0
    2.1967   -3.1663   12.6178 N   0  0  0  0  0  0  0  0  0  0  0  0
    1.7578   -3.1400   11.2594 C   0  0  0  0  0  0  0  0  0  0  0  0
    1.0494   -1.8384   10.9873 C   0  0  0  0  0  0  0  0  0  0  0  0
    0.5305   -1.7719    9.5896 C   0  0  0  0  0  0  0  0  0  0  0  0
   -0.1805   -0.5512    9.3084 N   0  0  0  0  0  4  0  0  0  0  0  0
   -0.6993   -0.5789    7.9658 C   0  0  0  0  0  0  0  0  0  0  0  0
   -1.6553    0.5656    7.7136 C   0  0  0  0  0  0  0  0  0  0  0  0
   -1.1339    1.8702    8.2868 C   0  0  0  0  0  0  0  0  0  0  0  0
    0.3458    1.7311    8.5809 C   0  0  0  0  0  0  0  0  0  0  0  0
    0.5677    0.6384    9.6015 C   0  0  0  0  0  0  0  0  0  0  0  0
   -1.7887    2.2160    9.4424 O   0  0  0  0  0  0  0  0  0  0  0  0
   -2.8640    3.0318    9.0676 C   0  0  0  0  0  0  0  0  0  0  0  0
   -2.3825    3.7429    7.8525 C   0  0  0  0  0  0  0  0  0  0  0  0
   -1.3159    3.0104    7.3900 C   0  0  0  0  0  0  0  0  0  0  0  0
   -0.6629    3.4487    6.2525 C   0  0  0  0  0  0  0  0  0  0  0  0
   -1.0820    4.5871    5.6147 C   0  0  0  0  0  0  0  0  0  0  0  0
   -2.1490    5.2929    6.1033 C   0  0  0  0  0  0  0  0  0  0  0  0
   -2.8184    4.8767    7.2375 C   0  0  0  0  0  0  0  0  0  0  0  0
  1  2  2  0
  3  2  1  6
  3  4  1  0
  4  5  1  0
  5  6  1  0
  6  7  1  0
  7  8  1  6
  8  9  1  0
  9 10  2  0
 10 11  1  0
 11 12  2  0
 12 13  1  0
 13 14  2  0
  2 15  1  0
 15 16  1  0
 16 17  1  0
 17 18  1  0
 18 19  1  0
 19 20  1  0
 20 21  1  0
 21 22  1  0
 22 23  1  0
 23 24  1  0
 22 25  1  0
 25 26  1  0
 26 27  1  0
 27 28  2  0
 28 29  1  0
 29 30  2  0
 30 31  1  0
 31 32  2  0
  7  3  1  0
 14  9  1  0
 24 19  1  0
 32 27  1  0
 28 22  1  0
M  CHG  2   7   1  19   1
M  END
$$$$
