
     RDKit          3D

 32 36  0  0  0  0  0  0  0  0999 V2000
   -1.9319   -3.0102    9.3668 O   0  0  0  0  0  0  0  0  0  0  0  0
   -1.1299   -2.3684    8.6723 C   0  0  0  0  0  0  0  0  0  0  0  0
   -0.5879   -2.7225    7.3614 C   0  0  1  0  0  0  0  0  0  0  0  0
   -0.6976   -4.2261    7.2133 C   0  0  0  0  0  0  0  0  0  0  0  0
   -1.5233   -4.3648    5.9291 C   0  0  0  0  0  0  0  0  0  0  0  0
   -1.0987   -3.1181    5.1920 C   0  0  0  0  0  0  0  0  0  0  0  0
   -1.1814   -2.1116    6.2308 N   0  0  1  0  0  4  0  0  0  0  0  0
   -2.4720   -1.5381    6.4073 C   0  0  0  0  0  0  0  0  0  0  0  0
   -2.4034   -0.1165    6.8676 C   0  0  0  0  0  0  0  0  0  0  0  0
   -1.5261    0.8024    6.3393 C   0  0  0  0  0  0  0  0  0  0  0  0
   -1.4861    2.1061    6.7868 C   0  0  0  0  0  0  0  0  0  0  0  0
   -2.3232    2.5525    7.7852 C   0  0  0  0  0  0  0  0  0  0  0  0
   -3.1997    1.6424    8.3160 C   0  0  0  0  0  0  0  0  0  0  0  0
   -3.2533    0.3379    7.8818 C   0  0  0  0  0  0  0  0  0  0  0  0
   -0.6803   -1.1137    9.2393 N   0  0  0  0  0  0  0  0  0  0  0  0
    0.1380   -1.0675   10.4084 C   0  0  0  0  0  0  0  0  0  0  0  0
    0.2417    0.3561   10.8909 C   0  0  0  0  0  0  0  0  0  0  0  0
    1.0493    0.4597   12.1415 C   0  0  0  0  0  0  0  0  0  0  0  0
    1.1581    1.8090   12.6338 N   0  0  0  0  0  4  0  0  0  0  0  0
    1.7054    2.6651   11.6138 C   0  0  0  0  0  0  0  0  0  0  0  0
    1.6066    4.1244   11.9987 C   0  0  0  0  0  0  0  0  0  0  0  0
    1.9900    4.3503   13.4492 C   0  0  0  0  0  0  0  0  0  0  0  0
    2.7341    3.1355   13.9649 C   0  0  0  0  0  0  0  0  0  0  0  0
    1.8438    1.9162   13.8905 C   0  0  0  0  0  0  0  0  0  0  0  0
    0.8886    4.5681   14.2387 O   0  0  0  0  0  0  0  0  0  0  0  0
    0.6866    5.9539   14.2753 C   0  0  0  0  0  0  0  0  0  0  0  0
    2.0535    6.5298   14.1568 C   0  0  0  0  0  0  0  0  0  0  0  0
    2.8390    5.5239   13.6477 C   0  0  0  0  0  0  0  0  0  0  0  0
    4.1800    5.7840   13.4322 C   0  0  0  0  0  0  0  0  0  0  0  0
    4.6964    7.0194   13.7244 C   0  0  0  0  0  0  0  0  0  0  0  0
    3.8844    7.9991   14.2307 C   0  0  0  0  0  0  0  0  0  0  0  0
    2.5419    7.7652   14.4552 C   0  0  0  0  0  0  0  0  0  0  0  0
  1  2  2  0
  3  2  1  1
  3  4  1  0
  4  5  1  0
  5  6  1  0
  6  7  1  0
  7  8  1  1
  8  9  1  0
  9 10  2  0
 10 11  1  0
 11 12  2  0
 12 13  1  0
 13 14  2  0
  2 15  1  0
 15 16  1  0
 16 17  1  0
 17 18  1  0
 18 19  1  0
 19 20  1  0
 20 21  1  0
 21 22  1  0
 22 23  1  0
 23 24  1  0
 22 25  1  0
 25 26  1  0
 26 27  1  0
 27 28  2  0
 28 29  1  0
 29 30  2  0
 30 31  1  0
 31 32  2  0
  7  3  1  0
 14  9  1  0
 24 19  1  0
 32 27  1  0
 28 22  1  0
M  CHG  2   7   1  19   1
M  END
$$$$
