
     RDKit          3D

 32 36  0  0  0  0  0  0  0  0999 V2000
    3.5166   -5.2044   12.1840 O   0  0  0  0  0  0  0  0  0  0  0  0
    3.0759   -4.3955   13.0140 C   0  0  0  0  0  0  0  0  0  0  0  0
    3.3950   -4.3006   14.4377 C   0  0  1  0  0  0  0  0  0  0  0  0
    3.8880   -5.6609   14.8864 C   0  0  0  0  0  0  0  0  0  0  0  0
    5.2720   -5.3308   15.4569 C   0  0  0  0  0  0  0  0  0  0  0  0
    5.0404   -3.9216   15.9452 C   0  0  0  0  0  0  0  0  0  0  0  0
    4.3454   -3.3248   14.8227 N   0  0  1  0  0  4  0  0  0  0  0  0
    5.1910   -2.8061   13.8022 C   0  0  0  0  0  0  0  0  0  0  0  0
    4.7344   -1.4686   13.3121 C   0  0  0  0  0  0  0  0  0  0  0  0
    4.2682   -1.2557   12.0352 C   0  0  0  0  0  0  0  0  0  0  0  0
    3.8559   -0.0093   11.6130 C   0  0  0  0  0  0  0  0  0  0  0  0
    3.8908    1.0842   12.4496 C   0  0  0  0  0  0  0  0  0  0  0  0
    4.3541    0.8792   13.7230 C   0  0  0  0  0  0  0  0  0  0  0  0
    4.7694   -0.3571   14.1612 C   0  0  0  0  0  0  0  0  0  0  0  0
    2.1280   -3.4291   12.4990 N   0  0  0  0  0  0  0  0  0  0  0  0
    1.8070   -3.3577   11.1096 C   0  0  0  0  0  0  0  0  0  0  0  0
    1.4068   -1.9479   10.7599 C   0  0  0  0  0  0  0  0  0  0  0  0
    0.8233   -1.8615    9.3891 C   0  0  0  0  0  0  0  0  0  0  0  0
    0.0050   -0.6919    9.1960 N   0  0  0  0  0  4  0  0  0  0  0  0
   -0.3964   -0.5912    7.8172 C   0  0  0  0  0  0  0  0  0  0  0  0
   -1.4512    0.4747    7.6199 C   0  0  0  0  0  0  0  0  0  0  0  0
   -1.1280    1.7362    8.3986 C   0  0  0  0  0  0  0  0  0  0  0  0
    0.3291    1.7087    8.8128 C   0  0  0  0  0  0  0  0  0  0  0  0
    0.5885    0.5168    9.7055 C   0  0  0  0  0  0  0  0  0  0  0  0
   -1.9094    1.8558    9.5206 O   0  0  0  0  0  0  0  0  0  0  0  0
   -3.0354    2.6021    9.1499 C   0  0  0  0  0  0  0  0  0  0  0  0
   -2.5395    3.5149    8.0846 C   0  0  0  0  0  0  0  0  0  0  0  0
   -1.3633    2.9624    7.6380 C   0  0  0  0  0  0  0  0  0  0  0  0
   -0.6732    3.6132    6.6317 C   0  0  0  0  0  0  0  0  0  0  0  0
   -1.1642    4.7789    6.1040 C   0  0  0  0  0  0  0  0  0  0  0  0
   -2.3400    5.3015    6.5729 C   0  0  0  0  0  0  0  0  0  0  0  0
   -3.0485    4.6713    7.5772 C   0  0  0  0  0  0  0  0  0  0  0  0
  1  2  2  0
  3  2  1  6
  3  4  1  0
  4  5  1  0
  5  6  1  0
  6  7  1  0
  7  8  1  6
  8  9  1  0
  9 10  2  0
 10 11  1  0
 11 12  2  0
 12 13  1  0
 13 14  2  0
  2 15  1  0
 15 16  1  0
 16 17  1  0
 17 18  1  0
 18 19  1  0
 19 20  1  0
 20 21  1  0
 21 22  1  0
 22 23  1  0
 23 24  1  0
 22 25  1  0
 25 26  1  0
 26 27  1  0
 27 28  2  0
 28 29  1  0
 29 30  2  0
 30 31  1  0
 31 32  2  0
  7  3  1  0
 14  9  1  0
 24 19  1  0
 32 27  1  0
 28 22  1  0
M  CHG  2   7   1  19   1
M  END
$$$$
