
     RDKit          3D

 32 36  0  0  0  0  0  0  0  0999 V2000
    3.3312   -3.2848   14.8696 O   0  0  0  0  0  0  0  0  0  0  0  0
    2.6972   -3.8701   13.9792 C   0  0  0  0  0  0  0  0  0  0  0  0
    2.9796   -5.1731   13.3792 C   0  0  1  0  0  0  0  0  0  0  0  0
    4.2608   -5.6925   13.9983 C   0  0  0  0  0  0  0  0  0  0  0  0
    3.8168   -7.0411   14.5763 C   0  0  0  0  0  0  0  0  0  0  0  0
    2.7221   -7.4105   13.6051 C   0  0  0  0  0  0  0  0  0  0  0  0
    1.9817   -6.1696   13.5002 N   0  0  1  0  0  4  0  0  0  0  0  0
    0.9918   -5.9765   14.5045 C   0  0  0  0  0  0  0  0  0  0  0  0
   -0.2487   -5.3393   13.9636 C   0  0  0  0  0  0  0  0  0  0  0  0
   -1.3446   -6.0611   13.5498 C   0  0  0  0  0  0  0  0  0  0  0  0
   -2.4735   -5.4436   13.0539 C   0  0  0  0  0  0  0  0  0  0  0  0
   -2.5593   -4.0731   12.9484 C   0  0  0  0  0  0  0  0  0  0  0  0
   -1.4712   -3.3479   13.3589 C   0  0  0  0  0  0  0  0  0  0  0  0
   -0.3368   -3.9471   13.8561 C   0  0  0  0  0  0  0  0  0  0  0  0
    1.5342   -3.1670   13.4781 N   0  0  0  0  0  0  0  0  0  0  0  0
    1.4181   -1.7467   13.5676 C   0  0  0  0  0  0  0  0  0  0  0  0
    0.3446   -1.2717   12.6231 C   0  0  0  0  0  0  0  0  0  0  0  0
    0.8847   -1.0117   11.2565 C   0  0  0  0  0  0  0  0  0  0  0  0
    0.0988   -0.0636   10.5092 N   0  0  0  0  0  4  0  0  0  0  0  0
    0.6294    0.0791    9.1786 C   0  0  0  0  0  0  0  0  0  0  0  0
   -0.3031    0.8699    8.2883 C   0  0  0  0  0  0  0  0  0  0  0  0
   -0.8671    2.0840    9.0025 C   0  0  0  0  0  0  0  0  0  0  0  0
   -0.0349    2.3700   10.2358 C   0  0  0  0  0  0  0  0  0  0  0  0
   -0.0916    1.1911   11.1803 C   0  0  0  0  0  0  0  0  0  0  0  0
   -2.1728    1.8918    9.3791 O   0  0  0  0  0  0  0  0  0  0  0  0
   -2.9693    2.3751    8.3330 C   0  0  0  0  0  0  0  0  0  0  0  0
   -2.1737    3.4871    7.7460 C   0  0  0  0  0  0  0  0  0  0  0  0
   -0.8830    3.2880    8.1733 C   0  0  0  0  0  0  0  0  0  0  0  0
    0.0870    4.1886    7.7728 C   0  0  0  0  0  0  0  0  0  0  0  0
   -0.2477    5.2476    6.9698 C   0  0  0  0  0  0  0  0  0  0  0  0
   -1.5442    5.4157    6.5624 C   0  0  0  0  0  0  0  0  0  0  0  0
   -2.5319    4.5307    6.9483 C   0  0  0  0  0  0  0  0  0  0  0  0
  1  2  2  0
  3  2  1  1
  3  4  1  0
  4  5  1  0
  5  6  1  0
  6  7  1  0
  7  8  1  1
  8  9  1  0
  9 10  2  0
 10 11  1  0
 11 12  2  0
 12 13  1  0
 13 14  2  0
  2 15  1  0
 15 16  1  0
 16 17  1  0
 17 18  1  0
 18 19  1  0
 19 20  1  0
 20 21  1  0
 21 22  1  0
 22 23  1  0
 23 24  1  0
 22 25  1  0
 25 26  1  0
 26 27  1  0
 27 28  2  0
 28 29  1  0
 29 30  2  0
 30 31  1  0
 31 32  2  0
  7  3  1  0
 14  9  1  0
 24 19  1  0
 32 27  1  0
 28 22  1  0
M  CHG  2   7   1  19   1
M  END
$$$$
