
     RDKit          3D

 32 36  0  0  0  0  0  0  0  0999 V2000
   -0.0867    1.1527    7.2561 O   0  0  0  0  0  0  0  0  0  0  0  0
   -0.7656    0.2162    7.7028 C   0  0  0  0  0  0  0  0  0  0  0  0
   -2.2155    0.0411    7.6345 C   0  0  1  0  0  0  0  0  0  0  0  0
   -2.5791   -1.1123    8.5467 C   0  0  0  0  0  0  0  0  0  0  0  0
   -3.5888   -0.4638    9.5006 C   0  0  0  0  0  0  0  0  0  0  0  0
   -4.1930    0.5809    8.5943 C   0  0  0  0  0  0  0  0  0  0  0  0
   -3.0174    1.1570    7.9737 N   0  0  1  0  0  4  0  0  0  0  0  0
   -2.3964    2.1983    8.7192 C   0  0  0  0  0  0  0  0  0  0  0  0
   -1.9094    3.3098    7.8447 C   0  0  0  0  0  0  0  0  0  0  0  0
   -2.6583    3.8432    6.8211 C   0  0  0  0  0  0  0  0  0  0  0  0
   -2.1799    4.8672    6.0310 C   0  0  0  0  0  0  0  0  0  0  0  0
   -0.9280    5.4064    6.2281 C   0  0  0  0  0  0  0  0  0  0  0  0
   -0.1766    4.8798    7.2461 C   0  0  0  0  0  0  0  0  0  0  0  0
   -0.6378    3.8583    8.0441 C   0  0  0  0  0  0  0  0  0  0  0  0
   -0.0199   -0.8286    8.3738 N   0  0  0  0  0  0  0  0  0  0  0  0
    1.3768   -0.7018    8.6418 C   0  0  0  0  0  0  0  0  0  0  0  0
    1.6778   -1.2646   10.0066 C   0  0  0  0  0  0  0  0  0  0  0  0
    3.1405   -1.2491   10.3019 C   0  0  0  0  0  0  0  0  0  0  0  0
    3.5201   -2.1873   11.3269 N   0  0  0  0  0  4  0  0  0  0  0  0
    2.9119   -1.8237   12.5801 C   0  0  0  0  0  0  0  0  0  0  0  0
    3.0808   -2.9108   13.6180 C   0  0  0  0  0  0  0  0  0  0  0  0
    4.4853   -3.4849   13.6072 C   0  0  0  0  0  0  0  0  0  0  0  0
    5.4044   -2.5438   12.8556 C   0  0  0  0  0  0  0  0  0  0  0  0
    4.9364   -2.3995   11.4256 C   0  0  0  0  0  0  0  0  0  0  0  0
    4.5256   -4.7202   13.0104 O   0  0  0  0  0  0  0  0  0  0  0  0
    4.3525   -5.6659   14.0294 C   0  0  0  0  0  0  0  0  0  0  0  0
    4.9638   -5.0326   15.2290 C   0  0  0  0  0  0  0  0  0  0  0  0
    5.0372   -3.6901   14.9453 C   0  0  0  0  0  0  0  0  0  0  0  0
    5.5747   -2.8462   15.9000 C   0  0  0  0  0  0  0  0  0  0  0  0
    6.0184   -3.3526   17.0938 C   0  0  0  0  0  0  0  0  0  0  0  0
    5.9300   -4.6962   17.3433 C   0  0  0  0  0  0  0  0  0  0  0  0
    5.3973   -5.5605   16.4068 C   0  0  0  0  0  0  0  0  0  0  0  0
  1  2  2  0
  3  2  1  1
  3  4  1  0
  4  5  1  0
  5  6  1  0
  6  7  1  0
  7  8  1  1
  8  9  1  0
  9 10  2  0
 10 11  1  0
 11 12  2  0
 12 13  1  0
 13 14  2  0
  2 15  1  0
 15 16  1  0
 16 17  1  0
 17 18  1  0
 18 19  1  0
 19 20  1  0
 20 21  1  0
 21 22  1  0
 22 23  1  0
 23 24  1  0
 22 25  1  0
 25 26  1  0
 26 27  1  0
 27 28  2  0
 28 29  1  0
 29 30  2  0
 30 31  1  0
 31 32  2  0
  7  3  1  0
 14  9  1  0
 24 19  1  0
 32 27  1  0
 28 22  1  0
M  CHG  2   7   1  19   1
M  END
$$$$
