
     RDKit          3D

 25 28  0  0  0  0  0  0  0  0999 V2000
    2.4027    0.4187    6.0607 C   0  0  0  0  0  0  0  0  0  0  0  0
    3.5520    0.1288    6.7713 C   0  0  0  0  0  0  0  0  0  0  0  0
    3.5881    0.9257    7.8150 O   0  0  0  0  0  0  0  0  0  0  0  0
    2.5710    1.7196    7.8670 C   0  0  0  0  0  0  0  0  0  0  0  0
    1.7936    1.4273    6.7674 C   0  0  0  0  0  0  0  0  0  0  0  0
    2.3333    2.7245    8.9174 C   0  0  0  0  0  0  0  0  0  0  0  0
    2.9904    2.8707   10.0784 N   0  0  0  0  0  0  0  0  0  0  0  0
    2.5040    3.8906   10.7872 N   0  0  0  0  0  0  0  0  0  0  0  0
    2.8241    4.4133   11.9804 C   0  0  0  0  0  0  0  0  0  0  0  0
    2.1373    5.4645   12.4405 N   0  0  0  0  0  0  0  0  0  0  0  0
    1.1336    6.0125   11.7395 C   0  0  0  0  0  0  0  0  0  0  0  0
    0.8445    5.4642   10.5560 N   0  0  0  0  0  0  0  0  0  0  0  0
    1.4961    4.4069   10.0361 C   0  0  0  0  0  0  0  0  0  0  0  0
    1.4005    3.6911    8.9017 N   0  0  0  0  0  0  0  0  0  0  0  0
    0.4483    7.1226   12.2838 N   0  0  0  0  0  0  0  0  0  0  0  0
    0.8600    7.6479   13.5514 C   0  0  0  0  0  0  0  0  0  0  0  0
    2.1402    8.4240   13.4324 C   0  0  0  0  0  0  0  0  0  0  0  0
    2.8949    8.4968   14.6956 C   0  0  0  0  0  0  0  0  0  0  0  0
    2.2876    9.0246   15.8407 C   0  0  0  0  0  0  0  0  0  0  0  0
    3.0276    9.0936   16.9973 C   0  0  0  0  0  0  0  0  0  0  0  0
    4.3354    8.6703   17.0874 C   0  0  0  0  0  0  0  0  0  0  0  0
    4.9361    8.1504   15.9615 C   0  0  0  0  0  0  0  0  0  0  0  0
    4.1963    8.0774   14.7901 C   0  0  0  0  0  0  0  0  0  0  0  0
    5.0625    8.7515   18.2729 O   0  0  0  0  0  0  0  0  0  0  0  0
    3.8816    3.8413   12.7265 N   0  0  0  0  0  0  0  0  0  0  0  0
  1  2  2  0
  2  3  1  0
  3  4  1  0
  4  5  2  0
  4  6  1  0
  6  7  2  0
  7  8  1  0
  8  9  1  0
  9 10  2  0
 10 11  1  0
 11 12  2  0
 12 13  1  0
 13 14  2  0
 11 15  1  0
 15 16  1  0
 16 17  1  0
 17 18  1  0
 18 19  2  0
 19 20  1  0
 20 21  2  0
 21 22  1  0
 22 23  2  0
 21 24  1  0
  9 25  1  0
  5  1  1  0
 14  6  1  0
 13  8  1  0
 23 18  1  0
M  END
$$$$
