
     RDKit          3D

 25 28  0  0  0  0  0  0  0  0999 V2000
    1.1541    0.4613    6.9579 C   0  0  0  0  0  0  0  0  0  0  0  0
    2.4551    0.1386    7.2943 C   0  0  0  0  0  0  0  0  0  0  0  0
    2.8751    1.0284    8.1647 O   0  0  0  0  0  0  0  0  0  0  0  0
    1.9764    1.9138    8.4402 C   0  0  0  0  0  0  0  0  0  0  0  0
    0.8667    1.5868    7.6916 C   0  0  0  0  0  0  0  0  0  0  0  0
    2.1518    3.0355    9.3787 C   0  0  0  0  0  0  0  0  0  0  0  0
    3.1222    3.1995   10.2909 N   0  0  0  0  0  0  0  0  0  0  0  0
    2.9653    4.3376   10.9685 N   0  0  0  0  0  0  0  0  0  0  0  0
    3.6628    4.9216   11.9544 C   0  0  0  0  0  0  0  0  0  0  0  0
    3.2476    6.0945   12.4446 N   0  0  0  0  0  0  0  0  0  0  0  0
    2.1492    6.7053   11.9762 C   0  0  0  0  0  0  0  0  0  0  0  0
    1.4813    6.0928   10.9945 N   0  0  0  0  0  0  0  0  0  0  0  0
    1.8454    4.9131   10.4574 C   0  0  0  0  0  0  0  0  0  0  0  0
    1.3585    4.1138    9.4918 N   0  0  0  0  0  0  0  0  0  0  0  0
    1.7654    7.9439   12.5388 N   0  0  0  0  0  0  0  0  0  0  0  0
    1.4876    8.0205   13.9421 C   0  0  0  0  0  0  0  0  0  0  0  0
    2.7382    8.2719   14.7346 C   0  0  0  0  0  0  0  0  0  0  0  0
    2.4997    8.3529   16.1862 C   0  0  0  0  0  0  0  0  0  0  0  0
    3.5832    8.4633   17.0652 C   0  0  0  0  0  0  0  0  0  0  0  0
    3.3243    8.5186   18.4143 C   0  0  0  0  0  0  0  0  0  0  0  0
    2.0541    8.4709   18.9455 C   0  0  0  0  0  0  0  0  0  0  0  0
    0.9854    8.3619   18.0824 C   0  0  0  0  0  0  0  0  0  0  0  0
    1.2381    8.3053   16.7195 C   0  0  0  0  0  0  0  0  0  0  0  0
    1.8200    8.5290   20.3175 O   0  0  0  0  0  0  0  0  0  0  0  0
    4.8229    4.2841   12.4544 N   0  0  0  0  0  0  0  0  0  0  0  0
  1  2  2  0
  2  3  1  0
  3  4  1  0
  4  5  2  0
  4  6  1  0
  6  7  2  0
  7  8  1  0
  8  9  1  0
  9 10  2  0
 10 11  1  0
 11 12  2  0
 12 13  1  0
 13 14  2  0
 11 15  1  0
 15 16  1  0
 16 17  1  0
 17 18  1  0
 18 19  2  0
 19 20  1  0
 20 21  2  0
 21 22  1  0
 22 23  2  0
 21 24  1  0
  9 25  1  0
  5  1  1  0
 14  6  1  0
 13  8  1  0
 23 18  1  0
M  END
$$$$
