
     RDKit          3D

 25 28  0  0  0  0  0  0  0  0999 V2000
    1.1472    1.3791    6.5526 C   0  0  0  0  0  0  0  0  0  0  0  0
    2.4521    1.0190    6.8312 C   0  0  0  0  0  0  0  0  0  0  0  0
    2.8309    1.6841    7.8988 O   0  0  0  0  0  0  0  0  0  0  0  0
    1.9012    2.4537    8.3581 C   0  0  0  0  0  0  0  0  0  0  0  0
    0.8140    2.2875    7.5281 C   0  0  0  0  0  0  0  0  0  0  0  0
    2.0274    3.3213    9.5418 C   0  0  0  0  0  0  0  0  0  0  0  0
    3.0401    3.3695   10.4210 N   0  0  0  0  0  0  0  0  0  0  0  0
    2.8157    4.2776   11.3718 N   0  0  0  0  0  0  0  0  0  0  0  0
    3.5193    4.6789   12.4412 C   0  0  0  0  0  0  0  0  0  0  0  0
    3.0213    5.6358   13.2315 N   0  0  0  0  0  0  0  0  0  0  0  0
    1.8335    6.2075   12.9838 C   0  0  0  0  0  0  0  0  0  0  0  0
    1.1626    5.7814   11.9098 N   0  0  0  0  0  0  0  0  0  0  0  0
    1.6072    4.8234   11.0749 C   0  0  0  0  0  0  0  0  0  0  0  0
    1.1364    4.2353    9.9609 N   0  0  0  0  0  0  0  0  0  0  0  0
    1.3651    7.2136   13.8593 N   0  0  0  0  0  0  0  0  0  0  0  0
    0.0299    7.7098   13.7066 C   0  0  0  0  0  0  0  0  0  0  0  0
    0.0097    9.2090   13.6214 C   0  0  0  0  0  0  0  0  0  0  0  0
   -0.2207    9.7102   12.2552 C   0  0  0  0  0  0  0  0  0  0  0  0
   -1.4860    9.5833   11.6707 C   0  0  0  0  0  0  0  0  0  0  0  0
   -1.6601   10.0460   10.3878 C   0  0  0  0  0  0  0  0  0  0  0  0
   -0.6539   10.6278    9.6482 C   0  0  0  0  0  0  0  0  0  0  0  0
    0.5930   10.7538   10.2211 C   0  0  0  0  0  0  0  0  0  0  0  0
    0.7771   10.2892   11.5153 C   0  0  0  0  0  0  0  0  0  0  0  0
   -0.8579   11.0885    8.3495 O   0  0  0  0  0  0  0  0  0  0  0  0
    4.7733    4.0809   12.7099 N   0  0  0  0  0  0  0  0  0  0  0  0
  1  2  2  0
  2  3  1  0
  3  4  1  0
  4  5  2  0
  4  6  1  0
  6  7  2  0
  7  8  1  0
  8  9  1  0
  9 10  2  0
 10 11  1  0
 11 12  2  0
 12 13  1  0
 13 14  2  0
 11 15  1  0
 15 16  1  0
 16 17  1  0
 17 18  1  0
 18 19  2  0
 19 20  1  0
 20 21  2  0
 21 22  1  0
 22 23  2  0
 21 24  1  0
  9 25  1  0
  5  1  1  0
 14  6  1  0
 13  8  1  0
 23 18  1  0
M  END
$$$$
