
     RDKit          3D

 25 28  0  0  0  0  0  0  0  0999 V2000
    1.5554    0.2023    6.6451 C   0  0  0  0  0  0  0  0  0  0  0  0
    2.8036   -0.1186    7.1439 C   0  0  0  0  0  0  0  0  0  0  0  0
    3.0904    0.7466    8.0898 O   0  0  0  0  0  0  0  0  0  0  0  0
    2.1507    1.6141    8.2685 C   0  0  0  0  0  0  0  0  0  0  0  0
    1.1564    1.3009    7.3674 C   0  0  0  0  0  0  0  0  0  0  0  0
    2.1828    2.7067    9.2559 C   0  0  0  0  0  0  0  0  0  0  0  0
    3.0648    2.8895   10.2507 N   0  0  0  0  0  0  0  0  0  0  0  0
    2.7865    3.9899   10.9512 N   0  0  0  0  0  0  0  0  0  0  0  0
    3.3660    4.5735   12.0109 C   0  0  0  0  0  0  0  0  0  0  0  0
    2.8438    5.7013   12.5046 N   0  0  0  0  0  0  0  0  0  0  0  0
    1.7525    6.2670   11.9677 C   0  0  0  0  0  0  0  0  0  0  0  0
    1.2038    5.6564   10.9136 N   0  0  0  0  0  0  0  0  0  0  0  0
    1.6794    4.5208   10.3688 C   0  0  0  0  0  0  0  0  0  0  0  0
    1.3205    3.7334    9.3394 N   0  0  0  0  0  0  0  0  0  0  0  0
    1.2517    7.4594   12.5383 N   0  0  0  0  0  0  0  0  0  0  0  0
    2.0729    8.1992   13.4497 C   0  0  0  0  0  0  0  0  0  0  0  0
    2.1627    7.5156   14.7838 C   0  0  0  0  0  0  0  0  0  0  0  0
    1.9365    8.4264   15.9196 C   0  0  0  0  0  0  0  0  0  0  0  0
    2.3680    8.0632   17.2006 C   0  0  0  0  0  0  0  0  0  0  0  0
    2.1242    8.9296   18.2398 C   0  0  0  0  0  0  0  0  0  0  0  0
    1.4774   10.1362   18.0857 C   0  0  0  0  0  0  0  0  0  0  0  0
    1.0512   10.4961   16.8258 C   0  0  0  0  0  0  0  0  0  0  0  0
    1.2931    9.6274   15.7715 C   0  0  0  0  0  0  0  0  0  0  0  0
    1.2435   10.9957   19.1567 O   0  0  0  0  0  0  0  0  0  0  0  0
    4.5176    3.9833   12.5835 N   0  0  0  0  0  0  0  0  0  0  0  0
  1  2  2  0
  2  3  1  0
  3  4  1  0
  4  5  2  0
  4  6  1  0
  6  7  2  0
  7  8  1  0
  8  9  1  0
  9 10  2  0
 10 11  1  0
 11 12  2  0
 12 13  1  0
 13 14  2  0
 11 15  1  0
 15 16  1  0
 16 17  1  0
 17 18  1  0
 18 19  2  0
 19 20  1  0
 20 21  2  0
 21 22  1  0
 22 23  2  0
 21 24  1  0
  9 25  1  0
  5  1  1  0
 14  6  1  0
 13  8  1  0
 23 18  1  0
M  END
$$$$
