
     RDKit          3D

 25 28  0  0  0  0  0  0  0  0999 V2000
    2.2743    0.3924    6.1227 C   0  0  0  0  0  0  0  0  0  0  0  0
    3.4379    0.0782    6.7989 C   0  0  0  0  0  0  0  0  0  0  0  0
    3.5284    0.8826    7.8335 O   0  0  0  0  0  0  0  0  0  0  0  0
    2.5346    1.7035    7.9105 C   0  0  0  0  0  0  0  0  0  0  0  0
    1.7149    1.4227    6.8392 C   0  0  0  0  0  0  0  0  0  0  0  0
    2.3573    2.7232    8.9587 C   0  0  0  0  0  0  0  0  0  0  0  0
    3.0545    2.8613   10.0970 N   0  0  0  0  0  0  0  0  0  0  0  0
    2.6183    3.8998   10.8114 N   0  0  0  0  0  0  0  0  0  0  0  0
    2.9899    4.4237   11.9891 C   0  0  0  0  0  0  0  0  0  0  0  0
    2.3464    5.4968   12.4609 N   0  0  0  0  0  0  0  0  0  0  0  0
    1.3360    6.0658   11.7868 C   0  0  0  0  0  0  0  0  0  0  0  0
    0.9949    5.5157   10.6180 N   0  0  0  0  0  0  0  0  0  0  0  0
    1.6013    4.4369   10.0876 C   0  0  0  0  0  0  0  0  0  0  0  0
    1.4506    3.7145    8.9634 N   0  0  0  0  0  0  0  0  0  0  0  0
    0.6982    7.1985   12.3422 N   0  0  0  0  0  0  0  0  0  0  0  0
    1.1287    7.6909   13.6167 C   0  0  0  0  0  0  0  0  0  0  0  0
    2.4283    8.4351   13.5053 C   0  0  0  0  0  0  0  0  0  0  0  0
    3.1113    8.6085   14.7991 C   0  0  0  0  0  0  0  0  0  0  0  0
    2.3649    8.8938   15.9482 C   0  0  0  0  0  0  0  0  0  0  0  0
    3.0371    9.0669   17.1350 C   0  0  0  0  0  0  0  0  0  0  0  0
    4.4066    8.9741   17.2516 C   0  0  0  0  0  0  0  0  0  0  0  0
    5.1440    8.6936   16.1218 C   0  0  0  0  0  0  0  0  0  0  0  0
    4.4735    8.5177   14.9201 C   0  0  0  0  0  0  0  0  0  0  0  0
    5.0625    9.1539   18.4673 O   0  0  0  0  0  0  0  0  0  0  0  0
    4.0549    3.8295   12.7067 N   0  0  0  0  0  0  0  0  0  0  0  0
  1  2  2  0
  2  3  1  0
  3  4  1  0
  4  5  2  0
  4  6  1  0
  6  7  2  0
  7  8  1  0
  8  9  1  0
  9 10  2  0
 10 11  1  0
 11 12  2  0
 12 13  1  0
 13 14  2  0
 11 15  1  0
 15 16  1  0
 16 17  1  0
 17 18  1  0
 18 19  2  0
 19 20  1  0
 20 21  2  0
 21 22  1  0
 22 23  2  0
 21 24  1  0
  9 25  1  0
  5  1  1  0
 14  6  1  0
 13  8  1  0
 23 18  1  0
M  END
$$$$
