
     RDKit          3D

 25 28  0  0  0  0  0  0  0  0999 V2000
    3.8045   -0.0968    8.4961 C   0  0  0  0  0  0  0  0  0  0  0  0
    2.9905    0.0553    7.3897 C   0  0  0  0  0  0  0  0  0  0  0  0
    2.2031    1.0832    7.6113 O   0  0  0  0  0  0  0  0  0  0  0  0
    2.4157    1.6306    8.7613 C   0  0  0  0  0  0  0  0  0  0  0  0
    3.4279    0.9078    9.3544 C   0  0  0  0  0  0  0  0  0  0  0  0
    1.6909    2.7986    9.2907 C   0  0  0  0  0  0  0  0  0  0  0  0
    0.7555    3.5350    8.6714 N   0  0  0  0  0  0  0  0  0  0  0  0
    0.3141    4.5197    9.4555 N   0  0  0  0  0  0  0  0  0  0  0  0
   -0.5955    5.4907    9.2841 C   0  0  0  0  0  0  0  0  0  0  0  0
   -0.8278    6.3535   10.2790 N   0  0  0  0  0  0  0  0  0  0  0  0
   -0.1743    6.2747   11.4477 C   0  0  0  0  0  0  0  0  0  0  0  0
    0.7237    5.2944   11.5805 N   0  0  0  0  0  0  0  0  0  0  0  0
    1.0044    4.3944   10.6192 C   0  0  0  0  0  0  0  0  0  0  0  0
    1.8386    3.3454   10.5089 N   0  0  0  0  0  0  0  0  0  0  0  0
   -0.4677    7.2187   12.4581 N   0  0  0  0  0  0  0  0  0  0  0  0
    0.3936    7.3151   13.5988 C   0  0  0  0  0  0  0  0  0  0  0  0
    1.2414    8.5533   13.5413 C   0  0  0  0  0  0  0  0  0  0  0  0
    2.4552    8.4654   14.3717 C   0  0  0  0  0  0  0  0  0  0  0  0
    3.5532    9.2863   14.0898 C   0  0  0  0  0  0  0  0  0  0  0  0
    4.6756    9.1647   14.8744 C   0  0  0  0  0  0  0  0  0  0  0  0
    4.7754    8.2770   15.9232 C   0  0  0  0  0  0  0  0  0  0  0  0
    3.6961    7.4673   16.2028 C   0  0  0  0  0  0  0  0  0  0  0  0
    2.5595    7.5836   15.4157 C   0  0  0  0  0  0  0  0  0  0  0  0
    5.9254    8.1745   16.7027 O   0  0  0  0  0  0  0  0  0  0  0  0
   -1.2895    5.5811    8.0542 N   0  0  0  0  0  0  0  0  0  0  0  0
  1  2  2  0
  2  3  1  0
  3  4  1  0
  4  5  2  0
  4  6  1  0
  6  7  2  0
  7  8  1  0
  8  9  1  0
  9 10  2  0
 10 11  1  0
 11 12  2  0
 12 13  1  0
 13 14  2  0
 11 15  1  0
 15 16  1  0
 16 17  1  0
 17 18  1  0
 18 19  2  0
 19 20  1  0
 20 21  2  0
 21 22  1  0
 22 23  2  0
 21 24  1  0
  9 25  1  0
  5  1  1  0
 14  6  1  0
 13  8  1  0
 23 18  1  0
M  END
$$$$
