
     RDKit          3D

 25 28  0  0  0  0  0  0  0  0999 V2000
    1.7459    0.0535    6.4775 C   0  0  0  0  0  0  0  0  0  0  0  0
    2.9807   -0.2259    7.0317 C   0  0  0  0  0  0  0  0  0  0  0  0
    3.1931    0.6436    7.9932 O   0  0  0  0  0  0  0  0  0  0  0  0
    2.2160    1.4764    8.1320 C   0  0  0  0  0  0  0  0  0  0  0  0
    1.2756    1.1332    7.1851 C   0  0  0  0  0  0  0  0  0  0  0  0
    2.1642    2.5639    9.1243 C   0  0  0  0  0  0  0  0  0  0  0  0
    2.9812    2.7612   10.1704 N   0  0  0  0  0  0  0  0  0  0  0  0
    2.6363    3.8510   10.8578 N   0  0  0  0  0  0  0  0  0  0  0  0
    3.1384    4.4418   11.9525 C   0  0  0  0  0  0  0  0  0  0  0  0
    2.5618    5.5546   12.4191 N   0  0  0  0  0  0  0  0  0  0  0  0
    1.4915    6.0982   11.8207 C   0  0  0  0  0  0  0  0  0  0  0  0
    1.0205    5.4811   10.7333 N   0  0  0  0  0  0  0  0  0  0  0  0
    1.5538    4.3597   10.2129 C   0  0  0  0  0  0  0  0  0  0  0  0
    1.2748    3.5701    9.1607 N   0  0  0  0  0  0  0  0  0  0  0  0
    0.9302    7.2756   12.3656 N   0  0  0  0  0  0  0  0  0  0  0  0
    1.6318    7.9717   13.4026 C   0  0  0  0  0  0  0  0  0  0  0  0
    1.2194    7.4871   14.7629 C   0  0  0  0  0  0  0  0  0  0  0  0
    2.1844    7.8344   15.8206 C   0  0  0  0  0  0  0  0  0  0  0  0
    3.5321    8.0298   15.4973 C   0  0  0  0  0  0  0  0  0  0  0  0
    4.4076    8.3352   16.5124 C   0  0  0  0  0  0  0  0  0  0  0  0
    4.0272    8.4587   17.8307 C   0  0  0  0  0  0  0  0  0  0  0  0
    2.7011    8.2665   18.1519 C   0  0  0  0  0  0  0  0  0  0  0  0
    1.8110    7.9578   17.1335 C   0  0  0  0  0  0  0  0  0  0  0  0
    4.9357    8.7694   18.8399 O   0  0  0  0  0  0  0  0  0  0  0  0
    4.2673    3.8750   12.5900 N   0  0  0  0  0  0  0  0  0  0  0  0
  1  2  2  0
  2  3  1  0
  3  4  1  0
  4  5  2  0
  4  6  1  0
  6  7  2  0
  7  8  1  0
  8  9  1  0
  9 10  2  0
 10 11  1  0
 11 12  2  0
 12 13  1  0
 13 14  2  0
 11 15  1  0
 15 16  1  0
 16 17  1  0
 17 18  1  0
 18 19  2  0
 19 20  1  0
 20 21  2  0
 21 22  1  0
 22 23  2  0
 21 24  1  0
  9 25  1  0
  5  1  1  0
 14  6  1  0
 13  8  1  0
 23 18  1  0
M  END
$$$$
