
     RDKit          3D

 25 28  0  0  0  0  0  0  0  0999 V2000
    1.3999    1.1282    6.7733 C   0  0  0  0  0  0  0  0  0  0  0  0
    2.6760    0.7118    7.1021 C   0  0  0  0  0  0  0  0  0  0  0  0
    3.0543    1.3847    8.1650 O   0  0  0  0  0  0  0  0  0  0  0  0
    2.1504    2.2104    8.5757 C   0  0  0  0  0  0  0  0  0  0  0  0
    1.0823    2.0764    7.7155 C   0  0  0  0  0  0  0  0  0  0  0  0
    2.2830    3.1007    9.7417 C   0  0  0  0  0  0  0  0  0  0  0  0
    3.3028    3.1691   10.6114 N   0  0  0  0  0  0  0  0  0  0  0  0
    3.0828    4.0943   11.5467 N   0  0  0  0  0  0  0  0  0  0  0  0
    3.7937    4.5183   12.6024 C   0  0  0  0  0  0  0  0  0  0  0  0
    3.2986    5.4882   13.3785 N   0  0  0  0  0  0  0  0  0  0  0  0
    2.1066    6.0509   13.1299 C   0  0  0  0  0  0  0  0  0  0  0  0
    1.4285    5.6021   12.0698 N   0  0  0  0  0  0  0  0  0  0  0  0
    1.8698    4.6300   11.2494 C   0  0  0  0  0  0  0  0  0  0  0  0
    1.3921    4.0192   10.1507 N   0  0  0  0  0  0  0  0  0  0  0  0
    1.6417    7.0717   13.9901 N   0  0  0  0  0  0  0  0  0  0  0  0
    0.5803    7.9282   13.5519 C   0  0  0  0  0  0  0  0  0  0  0  0
    1.0984    9.2781   13.1464 C   0  0  0  0  0  0  0  0  0  0  0  0
    0.3682    9.8628   12.0082 C   0  0  0  0  0  0  0  0  0  0  0  0
   -1.0312    9.8834   12.0147 C   0  0  0  0  0  0  0  0  0  0  0  0
   -1.6797   10.4206   10.9280 C   0  0  0  0  0  0  0  0  0  0  0  0
   -1.0236   10.9394    9.8334 C   0  0  0  0  0  0  0  0  0  0  0  0
    0.3542   10.9203    9.8241 C   0  0  0  0  0  0  0  0  0  0  0  0
    1.0163   10.3797   10.9168 C   0  0  0  0  0  0  0  0  0  0  0  0
   -1.7059   11.4783    8.7450 O   0  0  0  0  0  0  0  0  0  0  0  0
    5.0521    3.9301   12.8719 N   0  0  0  0  0  0  0  0  0  0  0  0
  1  2  2  0
  2  3  1  0
  3  4  1  0
  4  5  2  0
  4  6  1  0
  6  7  2  0
  7  8  1  0
  8  9  1  0
  9 10  2  0
 10 11  1  0
 11 12  2  0
 12 13  1  0
 13 14  2  0
 11 15  1  0
 15 16  1  0
 16 17  1  0
 17 18  1  0
 18 19  2  0
 19 20  1  0
 20 21  2  0
 21 22  1  0
 22 23  2  0
 21 24  1  0
  9 25  1  0
  5  1  1  0
 14  6  1  0
 13  8  1  0
 23 18  1  0
M  END
$$$$
