
     RDKit          3D

 25 28  0  0  0  0  0  0  0  0999 V2000
    1.8428    0.0073    6.5581 C   0  0  0  0  0  0  0  0  0  0  0  0
    2.9999   -0.2944    7.2509 C   0  0  0  0  0  0  0  0  0  0  0  0
    3.0927    0.5440    8.2580 O   0  0  0  0  0  0  0  0  0  0  0  0
    2.1062    1.3762    8.3016 C   0  0  0  0  0  0  0  0  0  0  0  0
    1.2894    1.0665    7.2360 C   0  0  0  0  0  0  0  0  0  0  0  0
    1.9330    2.4326    9.3134 C   0  0  0  0  0  0  0  0  0  0  0  0
    2.6355    2.6118   10.4428 N   0  0  0  0  0  0  0  0  0  0  0  0
    2.2018    3.6749   11.1216 N   0  0  0  0  0  0  0  0  0  0  0  0
    2.5785    4.2408   12.2780 C   0  0  0  0  0  0  0  0  0  0  0  0
    1.9364    5.3297   12.7142 N   0  0  0  0  0  0  0  0  0  0  0  0
    0.9224    5.8737   12.0249 C   0  0  0  0  0  0  0  0  0  0  0  0
    0.5763    5.2819   10.8781 N   0  0  0  0  0  0  0  0  0  0  0  0
    1.1810    4.1852   10.3838 C   0  0  0  0  0  0  0  0  0  0  0  0
    1.0256    3.4230    9.2869 N   0  0  0  0  0  0  0  0  0  0  0  0
    0.2864    7.0251   12.5423 N   0  0  0  0  0  0  0  0  0  0  0  0
    0.7538    7.5912   13.7725 C   0  0  0  0  0  0  0  0  0  0  0  0
    2.2378    7.8193   13.7409 C   0  0  0  0  0  0  0  0  0  0  0  0
    2.8070    8.1245   15.0651 C   0  0  0  0  0  0  0  0  0  0  0  0
    4.1691    7.9093   15.3044 C   0  0  0  0  0  0  0  0  0  0  0  0
    4.6622    8.1884   16.5571 C   0  0  0  0  0  0  0  0  0  0  0  0
    3.8853    8.6687   17.5884 C   0  0  0  0  0  0  0  0  0  0  0  0
    2.5439    8.8812   17.3557 C   0  0  0  0  0  0  0  0  0  0  0  0
    2.0382    8.6019   16.0944 C   0  0  0  0  0  0  0  0  0  0  0  0
    4.4112    8.9434   18.8488 O   0  0  0  0  0  0  0  0  0  0  0  0
    3.6473    3.6733   13.0115 N   0  0  0  0  0  0  0  0  0  0  0  0
  1  2  2  0
  2  3  1  0
  3  4  1  0
  4  5  2  0
  4  6  1  0
  6  7  2  0
  7  8  1  0
  8  9  1  0
  9 10  2  0
 10 11  1  0
 11 12  2  0
 12 13  1  0
 13 14  2  0
 11 15  1  0
 15 16  1  0
 16 17  1  0
 17 18  1  0
 18 19  2  0
 19 20  1  0
 20 21  2  0
 21 22  1  0
 22 23  2  0
 21 24  1  0
  9 25  1  0
  5  1  1  0
 14  6  1  0
 13  8  1  0
 23 18  1  0
M  END
$$$$
