
     RDKit          3D

 25 28  0  0  0  0  0  0  0  0999 V2000
    2.2244    0.0969    6.3680 C   0  0  0  0  0  0  0  0  0  0  0  0
    3.3834   -0.1361    7.0838 C   0  0  0  0  0  0  0  0  0  0  0  0
    3.3997    0.6964    8.0998 O   0  0  0  0  0  0  0  0  0  0  0  0
    2.3606    1.4624    8.1286 C   0  0  0  0  0  0  0  0  0  0  0  0
    1.5888    1.1111    7.0425 C   0  0  0  0  0  0  0  0  0  0  0  0
    2.0972    2.4952    9.1454 C   0  0  0  0  0  0  0  0  0  0  0  0
    2.7529    2.6990   10.2985 N   0  0  0  0  0  0  0  0  0  0  0  0
    2.2397    3.7282   10.9742 N   0  0  0  0  0  0  0  0  0  0  0  0
    2.5480    4.2998   12.1480 C   0  0  0  0  0  0  0  0  0  0  0  0
    1.8329    5.3462   12.5747 N   0  0  0  0  0  0  0  0  0  0  0  0
    0.8124    5.8418   11.8591 C   0  0  0  0  0  0  0  0  0  0  0  0
    0.5359    5.2459   10.6957 N   0  0  0  0  0  0  0  0  0  0  0  0
    1.2158    4.1904   10.2095 C   0  0  0  0  0  0  0  0  0  0  0  0
    1.1375    3.4342    9.1002 N   0  0  0  0  0  0  0  0  0  0  0  0
    0.0974    6.9499   12.3680 N   0  0  0  0  0  0  0  0  0  0  0  0
    0.1349    7.2228   13.7738 C   0  0  0  0  0  0  0  0  0  0  0  0
    0.6662    8.6000   14.0500 C   0  0  0  0  0  0  0  0  0  0  0  0
    1.9560    8.5931   14.7621 C   0  0  0  0  0  0  0  0  0  0  0  0
    2.2996    7.5036   15.5707 C   0  0  0  0  0  0  0  0  0  0  0  0
    3.5031    7.5392   16.2344 C   0  0  0  0  0  0  0  0  0  0  0  0
    4.3880    8.5913   16.1447 C   0  0  0  0  0  0  0  0  0  0  0  0
    4.0522    9.6653   15.3495 C   0  0  0  0  0  0  0  0  0  0  0  0
    2.8393    9.6375   14.6765 C   0  0  0  0  0  0  0  0  0  0  0  0
    5.6017    8.6013   16.8282 O   0  0  0  0  0  0  0  0  0  0  0  0
    3.6231    3.7833   12.9093 N   0  0  0  0  0  0  0  0  0  0  0  0
  1  2  2  0
  2  3  1  0
  3  4  1  0
  4  5  2  0
  4  6  1  0
  6  7  2  0
  7  8  1  0
  8  9  1  0
  9 10  2  0
 10 11  1  0
 11 12  2  0
 12 13  1  0
 13 14  2  0
 11 15  1  0
 15 16  1  0
 16 17  1  0
 17 18  1  0
 18 19  2  0
 19 20  1  0
 20 21  2  0
 21 22  1  0
 22 23  2  0
 21 24  1  0
  9 25  1  0
  5  1  1  0
 14  6  1  0
 13  8  1  0
 23 18  1  0
M  END
$$$$
