
     RDKit          3D

 25 28  0  0  0  0  0  0  0  0999 V2000
    2.8002   -0.2047    6.7917 C   0  0  0  0  0  0  0  0  0  0  0  0
    1.7615    0.4517    6.1591 C   0  0  0  0  0  0  0  0  0  0  0  0
    1.3820    1.4409    6.9358 O   0  0  0  0  0  0  0  0  0  0  0  0
    2.0701    1.5056    8.0266 C   0  0  0  0  0  0  0  0  0  0  0  0
    2.9828    0.4747    7.9719 C   0  0  0  0  0  0  0  0  0  0  0  0
    1.8783    2.5053    9.0913 C   0  0  0  0  0  0  0  0  0  0  0  0
    2.5637    2.6253   10.2387 N   0  0  0  0  0  0  0  0  0  0  0  0
    2.1163    3.6490   10.9675 N   0  0  0  0  0  0  0  0  0  0  0  0
    2.4742    4.1527   12.1582 C   0  0  0  0  0  0  0  0  0  0  0  0
    1.8217    5.2146   12.6431 N   0  0  0  0  0  0  0  0  0  0  0  0
    0.8157    5.7919   11.9695 C   0  0  0  0  0  0  0  0  0  0  0  0
    0.4884    5.2618   10.7875 N   0  0  0  0  0  0  0  0  0  0  0  0
    1.1043    4.1953   10.2436 C   0  0  0  0  0  0  0  0  0  0  0  0
    0.9676    3.4929    9.1050 N   0  0  0  0  0  0  0  0  0  0  0  0
    0.1679    6.9118   12.5389 N   0  0  0  0  0  0  0  0  0  0  0  0
    0.5750    7.3745   13.8322 C   0  0  0  0  0  0  0  0  0  0  0  0
    1.6785    8.3877   13.7285 C   0  0  0  0  0  0  0  0  0  0  0  0
    2.5506    8.4205   14.9156 C   0  0  0  0  0  0  0  0  0  0  0  0
    2.1287    7.8188   16.1068 C   0  0  0  0  0  0  0  0  0  0  0  0
    2.9605    7.8842   17.1995 C   0  0  0  0  0  0  0  0  0  0  0  0
    4.1872    8.5110   17.1826 C   0  0  0  0  0  0  0  0  0  0  0  0
    4.6050    9.1044   16.0112 C   0  0  0  0  0  0  0  0  0  0  0  0
    3.7714    9.0432   14.9039 C   0  0  0  0  0  0  0  0  0  0  0  0
    5.0107    8.5622   18.3050 O   0  0  0  0  0  0  0  0  0  0  0  0
    3.5345    3.5497   12.8755 N   0  0  0  0  0  0  0  0  0  0  0  0
  1  2  2  0
  2  3  1  0
  3  4  1  0
  4  5  2  0
  4  6  1  0
  6  7  2  0
  7  8  1  0
  8  9  1  0
  9 10  2  0
 10 11  1  0
 11 12  2  0
 12 13  1  0
 13 14  2  0
 11 15  1  0
 15 16  1  0
 16 17  1  0
 17 18  1  0
 18 19  2  0
 19 20  1  0
 20 21  2  0
 21 22  1  0
 22 23  2  0
 21 24  1  0
  9 25  1  0
  5  1  1  0
 14  6  1  0
 13  8  1  0
 23 18  1  0
M  END
$$$$
