
     RDKit          3D

 25 28  0  0  0  0  0  0  0  0999 V2000
    1.5862   -0.2258    6.8148 C   0  0  0  0  0  0  0  0  0  0  0  0
    2.8440   -0.4178    7.3540 C   0  0  0  0  0  0  0  0  0  0  0  0
    3.0532    0.5384    8.2302 O   0  0  0  0  0  0  0  0  0  0  0  0
    2.0531    1.3496    8.3257 C   0  0  0  0  0  0  0  0  0  0  0  0
    1.0995    0.8965    7.4404 C   0  0  0  0  0  0  0  0  0  0  0  0
    1.9919    2.5174    9.2216 C   0  0  0  0  0  0  0  0  0  0  0  0
    2.8268    2.8275   10.2254 N   0  0  0  0  0  0  0  0  0  0  0  0
    2.4657    3.9629   10.8250 N   0  0  0  0  0  0  0  0  0  0  0  0
    2.9752    4.6603   11.8514 C   0  0  0  0  0  0  0  0  0  0  0  0
    2.3766    5.7929   12.2351 N   0  0  0  0  0  0  0  0  0  0  0  0
    1.2769    6.2526   11.6198 C   0  0  0  0  0  0  0  0  0  0  0  0
    0.7994    5.5305   10.6021 N   0  0  0  0  0  0  0  0  0  0  0  0
    1.3536    4.3834   10.1668 C   0  0  0  0  0  0  0  0  0  0  0  0
    1.0740    3.4979    9.1941 N   0  0  0  0  0  0  0  0  0  0  0  0
    0.6936    7.4568   12.0755 N   0  0  0  0  0  0  0  0  0  0  0  0
    1.3780    8.2377   13.0624 C   0  0  0  0  0  0  0  0  0  0  0  0
    0.9725    7.8401   14.4527 C   0  0  0  0  0  0  0  0  0  0  0  0
    1.9635    8.2148   15.4764 C   0  0  0  0  0  0  0  0  0  0  0  0
    1.8493    9.4414   16.1407 C   0  0  0  0  0  0  0  0  0  0  0  0
    2.8021    9.7659   17.0773 C   0  0  0  0  0  0  0  0  0  0  0  0
    3.8629    8.9466   17.3955 C   0  0  0  0  0  0  0  0  0  0  0  0
    3.9780    7.7385   16.7429 C   0  0  0  0  0  0  0  0  0  0  0  0
    3.0208    7.4034   15.7961 C   0  0  0  0  0  0  0  0  0  0  0  0
    4.8145    9.3003   18.3494 O   0  0  0  0  0  0  0  0  0  0  0  0
    4.1351    4.1825   12.5061 N   0  0  0  0  0  0  0  0  0  0  0  0
  1  2  2  0
  2  3  1  0
  3  4  1  0
  4  5  2  0
  4  6  1  0
  6  7  2  0
  7  8  1  0
  8  9  1  0
  9 10  2  0
 10 11  1  0
 11 12  2  0
 12 13  1  0
 13 14  2  0
 11 15  1  0
 15 16  1  0
 16 17  1  0
 17 18  1  0
 18 19  2  0
 19 20  1  0
 20 21  2  0
 21 22  1  0
 22 23  2  0
 21 24  1  0
  9 25  1  0
  5  1  1  0
 14  6  1  0
 13  8  1  0
 23 18  1  0
M  END
$$$$
