
     RDKit          3D

 25 28  0  0  0  0  0  0  0  0999 V2000
    4.0717    8.4154   16.7780 C   0  0  0  0  0  0  0  0  0  0  0  0
    5.0251    7.4249   16.6369 C   0  0  0  0  0  0  0  0  0  0  0  0
    4.7024    6.7067   15.5854 O   0  0  0  0  0  0  0  0  0  0  0  0
    3.6236    7.1253   15.0123 C   0  0  0  0  0  0  0  0  0  0  0  0
    3.1924    8.2116   15.7421 C   0  0  0  0  0  0  0  0  0  0  0  0
    3.0130    6.5246   13.8139 C   0  0  0  0  0  0  0  0  0  0  0  0
    3.3963    5.4141   13.1653 N   0  0  0  0  0  0  0  0  0  0  0  0
    2.6093    5.1671   12.1171 N   0  0  0  0  0  0  0  0  0  0  0  0
    2.5946    4.1982   11.1894 C   0  0  0  0  0  0  0  0  0  0  0  0
    1.6568    4.2180   10.2364 N   0  0  0  0  0  0  0  0  0  0  0  0
    0.7271    5.1834   10.1820 C   0  0  0  0  0  0  0  0  0  0  0  0
    0.7744    6.1307   11.1230 N   0  0  0  0  0  0  0  0  0  0  0  0
    1.6909    6.1686   12.1085 C   0  0  0  0  0  0  0  0  0  0  0  0
    1.9450    6.9884   13.1438 N   0  0  0  0  0  0  0  0  0  0  0  0
   -0.2360    5.1452    9.1480 N   0  0  0  0  0  0  0  0  0  0  0  0
   -0.0245    4.2819    8.0245 C   0  0  0  0  0  0  0  0  0  0  0  0
   -0.3604    2.8568    8.3585 C   0  0  0  0  0  0  0  0  0  0  0  0
    0.3372    1.8800    7.5043 C   0  0  0  0  0  0  0  0  0  0  0  0
    0.8097    2.2676    6.2452 C   0  0  0  0  0  0  0  0  0  0  0  0
    1.4400    1.3251    5.4677 C   0  0  0  0  0  0  0  0  0  0  0  0
    1.6306    0.0195    5.8636 C   0  0  0  0  0  0  0  0  0  0  0  0
    1.1662   -0.3651    7.1026 C   0  0  0  0  0  0  0  0  0  0  0  0
    0.5287    0.5799    7.8935 C   0  0  0  0  0  0  0  0  0  0  0  0
    2.2733   -0.9155    5.0554 O   0  0  0  0  0  0  0  0  0  0  0  0
    3.5718    3.1759   11.2394 N   0  0  0  0  0  0  0  0  0  0  0  0
  1  2  2  0
  2  3  1  0
  3  4  1  0
  4  5  2  0
  4  6  1  0
  6  7  2  0
  7  8  1  0
  8  9  1  0
  9 10  2  0
 10 11  1  0
 11 12  2  0
 12 13  1  0
 13 14  2  0
 11 15  1  0
 15 16  1  0
 16 17  1  0
 17 18  1  0
 18 19  2  0
 19 20  1  0
 20 21  2  0
 21 22  1  0
 22 23  2  0
 21 24  1  0
  9 25  1  0
  5  1  1  0
 14  6  1  0
 13  8  1  0
 23 18  1  0
M  END
$$$$
