
     RDKit          3D

 25 28  0  0  0  0  0  0  0  0999 V2000
    1.3206    0.0537    6.5574 C   0  0  0  0  0  0  0  0  0  0  0  0
    2.5865   -0.2233    7.0376 C   0  0  0  0  0  0  0  0  0  0  0  0
    2.8566    0.6514    7.9797 O   0  0  0  0  0  0  0  0  0  0  0  0
    1.8899    1.4854    8.1726 C   0  0  0  0  0  0  0  0  0  0  0  0
    0.8940    1.1375    7.2861 C   0  0  0  0  0  0  0  0  0  0  0  0
    1.8981    2.5785    9.1601 C   0  0  0  0  0  0  0  0  0  0  0  0
    2.7573    2.7629   10.1743 N   0  0  0  0  0  0  0  0  0  0  0  0
    2.4616    3.8632   10.8680 N   0  0  0  0  0  0  0  0  0  0  0  0
    3.0164    4.4481   11.9402 C   0  0  0  0  0  0  0  0  0  0  0  0
    2.4815    5.5753   12.4215 N   0  0  0  0  0  0  0  0  0  0  0  0
    1.4019    6.1392   11.8599 C   0  0  0  0  0  0  0  0  0  0  0  0
    0.8778    5.5275   10.7940 N   0  0  0  0  0  0  0  0  0  0  0  0
    1.3672    4.3923   10.2605 C   0  0  0  0  0  0  0  0  0  0  0  0
    1.0327    3.6040    9.2237 N   0  0  0  0  0  0  0  0  0  0  0  0
    0.8866    7.3311   12.4186 N   0  0  0  0  0  0  0  0  0  0  0  0
    1.5729    7.9447   13.5162 C   0  0  0  0  0  0  0  0  0  0  0  0
    1.1159    7.3814   14.8311 C   0  0  0  0  0  0  0  0  0  0  0  0
    2.0509    7.6545   15.9365 C   0  0  0  0  0  0  0  0  0  0  0  0
    3.2219    8.3819   15.6950 C   0  0  0  0  0  0  0  0  0  0  0  0
    4.0800    8.6025   16.7462 C   0  0  0  0  0  0  0  0  0  0  0  0
    3.8470    8.1447   18.0245 C   0  0  0  0  0  0  0  0  0  0  0  0
    2.6950    7.4280   18.2652 C   0  0  0  0  0  0  0  0  0  0  0  0
    1.8238    7.2007   17.2097 C   0  0  0  0  0  0  0  0  0  0  0  0
    4.7339    8.3829   19.0720 O   0  0  0  0  0  0  0  0  0  0  0  0
    4.1556    3.8598   12.5389 N   0  0  0  0  0  0  0  0  0  0  0  0
  1  2  2  0
  2  3  1  0
  3  4  1  0
  4  5  2  0
  4  6  1  0
  6  7  2  0
  7  8  1  0
  8  9  1  0
  9 10  2  0
 10 11  1  0
 11 12  2  0
 12 13  1  0
 13 14  2  0
 11 15  1  0
 15 16  1  0
 16 17  1  0
 17 18  1  0
 18 19  2  0
 19 20  1  0
 20 21  2  0
 21 22  1  0
 22 23  2  0
 21 24  1  0
  9 25  1  0
  5  1  1  0
 14  6  1  0
 13  8  1  0
 23 18  1  0
M  END
$$$$
