
     RDKit          3D

 25 28  0  0  0  0  0  0  0  0999 V2000
    1.9403    0.3225    6.2420 C   0  0  0  0  0  0  0  0  0  0  0  0
    3.1360    0.0518    6.8800 C   0  0  0  0  0  0  0  0  0  0  0  0
    3.2353    0.8672    7.9051 O   0  0  0  0  0  0  0  0  0  0  0  0
    2.2184    1.6559    8.0105 C   0  0  0  0  0  0  0  0  0  0  0  0
    1.3722    1.3399    6.9699 C   0  0  0  0  0  0  0  0  0  0  0  0
    2.0435    2.6778    9.0570 C   0  0  0  0  0  0  0  0  0  0  0  0
    2.7615    2.8353   10.1797 N   0  0  0  0  0  0  0  0  0  0  0  0
    2.3206    3.8692   10.8978 N   0  0  0  0  0  0  0  0  0  0  0  0
    2.7066    4.4065   12.0648 C   0  0  0  0  0  0  0  0  0  0  0  0
    2.0527    5.4697   12.5445 N   0  0  0  0  0  0  0  0  0  0  0  0
    1.0178    6.0159   11.8889 C   0  0  0  0  0  0  0  0  0  0  0  0
    0.6631    5.4530   10.7302 N   0  0  0  0  0  0  0  0  0  0  0  0
    1.2787    4.3830   10.1927 C   0  0  0  0  0  0  0  0  0  0  0  0
    1.1184    3.6518    9.0756 N   0  0  0  0  0  0  0  0  0  0  0  0
    0.3703    7.1393   12.4516 N   0  0  0  0  0  0  0  0  0  0  0  0
    0.7967    7.6271   13.7294 C   0  0  0  0  0  0  0  0  0  0  0  0
    2.0712    8.4134   13.6174 C   0  0  0  0  0  0  0  0  0  0  0  0
    2.6738    8.7321   14.9236 C   0  0  0  0  0  0  0  0  0  0  0  0
    3.8600    8.1014   15.3161 C   0  0  0  0  0  0  0  0  0  0  0  0
    4.3843    8.4098   16.5490 C   0  0  0  0  0  0  0  0  0  0  0  0
    3.8028    9.3070   17.4177 C   0  0  0  0  0  0  0  0  0  0  0  0
    2.6347    9.9292   17.0340 C   0  0  0  0  0  0  0  0  0  0  0  0
    2.0988    9.6235   15.7914 C   0  0  0  0  0  0  0  0  0  0  0  0
    4.3558    9.6013   18.6619 O   0  0  0  0  0  0  0  0  0  0  0  0
    3.7974    3.8365   12.7631 N   0  0  0  0  0  0  0  0  0  0  0  0
  1  2  2  0
  2  3  1  0
  3  4  1  0
  4  5  2  0
  4  6  1  0
  6  7  2  0
  7  8  1  0
  8  9  1  0
  9 10  2  0
 10 11  1  0
 11 12  2  0
 12 13  1  0
 13 14  2  0
 11 15  1  0
 15 16  1  0
 16 17  1  0
 17 18  1  0
 18 19  2  0
 19 20  1  0
 20 21  2  0
 21 22  1  0
 22 23  2  0
 21 24  1  0
  9 25  1  0
  5  1  1  0
 14  6  1  0
 13  8  1  0
 23 18  1  0
M  END
$$$$
