
     RDKit          3D

 25 28  0  0  0  0  0  0  0  0999 V2000
    0.9079    0.9576    7.1084 C   0  0  0  0  0  0  0  0  0  0  0  0
    2.1917    0.5727    7.4451 C   0  0  0  0  0  0  0  0  0  0  0  0
    2.6008    1.3541    8.4187 O   0  0  0  0  0  0  0  0  0  0  0  0
    1.7103    2.2236    8.7626 C   0  0  0  0  0  0  0  0  0  0  0  0
    0.6184    2.0032    7.9514 C   0  0  0  0  0  0  0  0  0  0  0  0
    1.8769    3.2335    9.8220 C   0  0  0  0  0  0  0  0  0  0  0  0
    2.8377    3.2925   10.7570 N   0  0  0  0  0  0  0  0  0  0  0  0
    2.6749    4.3485   11.5554 N   0  0  0  0  0  0  0  0  0  0  0  0
    3.3625    4.8174   12.6075 C   0  0  0  0  0  0  0  0  0  0  0  0
    2.9435    5.9295   13.2209 N   0  0  0  0  0  0  0  0  0  0  0  0
    1.8509    6.5913   12.8118 C   0  0  0  0  0  0  0  0  0  0  0  0
    1.1929    6.0936   11.7609 N   0  0  0  0  0  0  0  0  0  0  0  0
    1.5613    4.9801   11.0998 C   0  0  0  0  0  0  0  0  0  0  0  0
    1.0838    4.2944   10.0460 N   0  0  0  0  0  0  0  0  0  0  0  0
    1.4627    7.7606   13.5047 N   0  0  0  0  0  0  0  0  0  0  0  0
    0.0865    7.9406   13.8598 C   0  0  0  0  0  0  0  0  0  0  0  0
   -0.7491    8.2775   12.6584 C   0  0  0  0  0  0  0  0  0  0  0  0
   -0.7617    9.7170   12.3446 C   0  0  0  0  0  0  0  0  0  0  0  0
   -0.6610   10.6561   13.3775 C   0  0  0  0  0  0  0  0  0  0  0  0
   -0.6941   11.9908   13.0495 C   0  0  0  0  0  0  0  0  0  0  0  0
   -0.8212   12.4515   11.7574 C   0  0  0  0  0  0  0  0  0  0  0  0
   -0.9208   11.5292   10.7386 C   0  0  0  0  0  0  0  0  0  0  0  0
   -0.8885   10.1802   11.0610 C   0  0  0  0  0  0  0  0  0  0  0  0
   -0.8517   13.8106   11.4530 O   0  0  0  0  0  0  0  0  0  0  0  0
    4.5163    4.1253   13.0457 N   0  0  0  0  0  0  0  0  0  0  0  0
  1  2  2  0
  2  3  1  0
  3  4  1  0
  4  5  2  0
  4  6  1  0
  6  7  2  0
  7  8  1  0
  8  9  1  0
  9 10  2  0
 10 11  1  0
 11 12  2  0
 12 13  1  0
 13 14  2  0
 11 15  1  0
 15 16  1  0
 16 17  1  0
 17 18  1  0
 18 19  2  0
 19 20  1  0
 20 21  2  0
 21 22  1  0
 22 23  2  0
 21 24  1  0
  9 25  1  0
  5  1  1  0
 14  6  1  0
 13  8  1  0
 23 18  1  0
M  END
$$$$
