
     RDKit          3D

 25 28  0  0  0  0  0  0  0  0999 V2000
    1.3640    0.5985    6.2587 C   0  0  0  0  0  0  0  0  0  0  0  0
    2.5789    0.1746    6.7628 C   0  0  0  0  0  0  0  0  0  0  0  0
    2.8935    0.9645    7.7641 O   0  0  0  0  0  0  0  0  0  0  0  0
    2.0025    1.8751    7.9750 C   0  0  0  0  0  0  0  0  0  0  0  0
    1.0132    1.6751    7.0369 C   0  0  0  0  0  0  0  0  0  0  0  0
    2.0753    2.9045    9.0262 C   0  0  0  0  0  0  0  0  0  0  0  0
    2.8660    2.9171   10.1103 N   0  0  0  0  0  0  0  0  0  0  0  0
    2.6634    4.0104   10.8471 N   0  0  0  0  0  0  0  0  0  0  0  0
    3.2018    4.4580   11.9914 C   0  0  0  0  0  0  0  0  0  0  0  0
    2.7837    5.6215   12.5009 N   0  0  0  0  0  0  0  0  0  0  0  0
    1.8375    6.3561   11.8974 C   0  0  0  0  0  0  0  0  0  0  0  0
    1.3254    5.8775   10.7600 N   0  0  0  0  0  0  0  0  0  0  0  0
    1.7018    4.7149   10.1947 C   0  0  0  0  0  0  0  0  0  0  0  0
    1.3510    4.0342    9.0893 N   0  0  0  0  0  0  0  0  0  0  0  0
    1.4411    7.5770   12.4894 N   0  0  0  0  0  0  0  0  0  0  0  0
    1.3412    7.6646   13.9158 C   0  0  0  0  0  0  0  0  0  0  0  0
    2.6957    7.6218   14.5628 C   0  0  0  0  0  0  0  0  0  0  0  0
    2.8187    8.5329   15.7141 C   0  0  0  0  0  0  0  0  0  0  0  0
    4.0153    9.2261   15.9293 C   0  0  0  0  0  0  0  0  0  0  0  0
    4.1005   10.0540   17.0236 C   0  0  0  0  0  0  0  0  0  0  0  0
    3.0694   10.2366   17.9188 C   0  0  0  0  0  0  0  0  0  0  0  0
    1.8902    9.5552   17.7095 C   0  0  0  0  0  0  0  0  0  0  0  0
    1.7960    8.7174   16.6077 C   0  0  0  0  0  0  0  0  0  0  0  0
    3.1827   11.0824   19.0198 O   0  0  0  0  0  0  0  0  0  0  0  0
    4.2006    3.6892   12.6346 N   0  0  0  0  0  0  0  0  0  0  0  0
  1  2  2  0
  2  3  1  0
  3  4  1  0
  4  5  2  0
  4  6  1  0
  6  7  2  0
  7  8  1  0
  8  9  1  0
  9 10  2  0
 10 11  1  0
 11 12  2  0
 12 13  1  0
 13 14  2  0
 11 15  1  0
 15 16  1  0
 16 17  1  0
 17 18  1  0
 18 19  2  0
 19 20  1  0
 20 21  2  0
 21 22  1  0
 22 23  2  0
 21 24  1  0
  9 25  1  0
  5  1  1  0
 14  6  1  0
 13  8  1  0
 23 18  1  0
M  END
$$$$
