
     RDKit          3D

 25 28  0  0  0  0  0  0  0  0999 V2000
    1.0794    1.8213    6.5873 C   0  0  0  0  0  0  0  0  0  0  0  0
    2.2771    1.2288    6.9400 C   0  0  0  0  0  0  0  0  0  0  0  0
    2.6573    1.7473    8.0855 O   0  0  0  0  0  0  0  0  0  0  0  0
    1.8256    2.6296    8.5297 C   0  0  0  0  0  0  0  0  0  0  0  0
    0.8079    2.7049    7.6038 C   0  0  0  0  0  0  0  0  0  0  0  0
    1.9794    3.3817    9.7869 C   0  0  0  0  0  0  0  0  0  0  0  0
    2.9051    3.2048   10.7422 N   0  0  0  0  0  0  0  0  0  0  0  0
    2.7411    4.0697   11.7443 N   0  0  0  0  0  0  0  0  0  0  0  0
    3.4006    4.2772   12.8938 C   0  0  0  0  0  0  0  0  0  0  0  0
    2.9892    5.2454   13.7194 N   0  0  0  0  0  0  0  0  0  0  0  0
    1.9316    6.0175   13.4290 C   0  0  0  0  0  0  0  0  0  0  0  0
    1.3007    5.7805   12.2754 N   0  0  0  0  0  0  0  0  0  0  0  0
    1.6633    4.8229   11.4012 C   0  0  0  0  0  0  0  0  0  0  0  0
    1.2077    4.3968   10.2098 N   0  0  0  0  0  0  0  0  0  0  0  0
    1.5493    7.0234   14.3456 N   0  0  0  0  0  0  0  0  0  0  0  0
    0.8092    8.1561   13.8750 C   0  0  0  0  0  0  0  0  0  0  0  0
    1.6604    9.3930   13.8473 C   0  0  0  0  0  0  0  0  0  0  0  0
    1.0007   10.5377   13.1954 C   0  0  0  0  0  0  0  0  0  0  0  0
   -0.2963   10.9026   13.5741 C   0  0  0  0  0  0  0  0  0  0  0  0
   -0.8877   11.9647   12.9321 C   0  0  0  0  0  0  0  0  0  0  0  0
   -0.2699   12.6882   11.9356 C   0  0  0  0  0  0  0  0  0  0  0  0
    1.0070   12.3310   11.5606 C   0  0  0  0  0  0  0  0  0  0  0  0
    1.6109   11.2601   12.2033 C   0  0  0  0  0  0  0  0  0  0  0  0
   -0.8926   13.7609   11.3015 O   0  0  0  0  0  0  0  0  0  0  0  0
    4.5175    3.4672   13.2080 N   0  0  0  0  0  0  0  0  0  0  0  0
  1  2  2  0
  2  3  1  0
  3  4  1  0
  4  5  2  0
  4  6  1  0
  6  7  2  0
  7  8  1  0
  8  9  1  0
  9 10  2  0
 10 11  1  0
 11 12  2  0
 12 13  1  0
 13 14  2  0
 11 15  1  0
 15 16  1  0
 16 17  1  0
 17 18  1  0
 18 19  2  0
 19 20  1  0
 20 21  2  0
 21 22  1  0
 22 23  2  0
 21 24  1  0
  9 25  1  0
  5  1  1  0
 14  6  1  0
 13  8  1  0
 23 18  1  0
M  END
$$$$
