
     RDKit          3D

 25 28  0  0  0  0  0  0  0  0999 V2000
    2.2800    0.4484    6.1713 C   0  0  0  0  0  0  0  0  0  0  0  0
    3.4647    0.1794    6.8301 C   0  0  0  0  0  0  0  0  0  0  0  0
    3.5425    0.9914    7.8598 O   0  0  0  0  0  0  0  0  0  0  0  0
    2.5210    1.7762    7.9494 C   0  0  0  0  0  0  0  0  0  0  0  0
    1.6950    1.4611    6.8925 C   0  0  0  0  0  0  0  0  0  0  0  0
    2.3235    2.7937    8.9962 C   0  0  0  0  0  0  0  0  0  0  0  0
    3.0082    2.9381   10.1412 N   0  0  0  0  0  0  0  0  0  0  0  0
    2.5549    3.9720   10.8517 N   0  0  0  0  0  0  0  0  0  0  0  0
    2.9099    4.4989   12.0332 C   0  0  0  0  0  0  0  0  0  0  0  0
    2.2514    5.5655   12.4991 N   0  0  0  0  0  0  0  0  0  0  0  0
    1.2420    6.1249   11.8154 C   0  0  0  0  0  0  0  0  0  0  0  0
    0.9177    5.5719   10.6432 N   0  0  0  0  0  0  0  0  0  0  0  0
    1.5398    4.4994   10.1183 C   0  0  0  0  0  0  0  0  0  0  0  0
    1.4071    3.7761    8.9924 N   0  0  0  0  0  0  0  0  0  0  0  0
    0.5878    7.2510   12.3649 N   0  0  0  0  0  0  0  0  0  0  0  0
    0.9239    7.6798   13.6898 C   0  0  0  0  0  0  0  0  0  0  0  0
    2.1148    8.5947   13.6833 C   0  0  0  0  0  0  0  0  0  0  0  0
    2.7180    8.7727   15.0156 C   0  0  0  0  0  0  0  0  0  0  0  0
    3.9859    8.2436   15.2827 C   0  0  0  0  0  0  0  0  0  0  0  0
    4.5102    8.4133   16.5422 C   0  0  0  0  0  0  0  0  0  0  0  0
    3.8525    9.0769   17.5546 C   0  0  0  0  0  0  0  0  0  0  0  0
    2.6039    9.5986   17.2945 C   0  0  0  0  0  0  0  0  0  0  0  0
    2.0674    9.4316   16.0261 C   0  0  0  0  0  0  0  0  0  0  0  0
    4.4075    9.2347   18.8225 O   0  0  0  0  0  0  0  0  0  0  0  0
    3.9737    3.9149   12.7610 N   0  0  0  0  0  0  0  0  0  0  0  0
  1  2  2  0
  2  3  1  0
  3  4  1  0
  4  5  2  0
  4  6  1  0
  6  7  2  0
  7  8  1  0
  8  9  1  0
  9 10  2  0
 10 11  1  0
 11 12  2  0
 12 13  1  0
 13 14  2  0
 11 15  1  0
 15 16  1  0
 16 17  1  0
 17 18  1  0
 18 19  2  0
 19 20  1  0
 20 21  2  0
 21 22  1  0
 22 23  2  0
 21 24  1  0
  9 25  1  0
  5  1  1  0
 14  6  1  0
 13  8  1  0
 23 18  1  0
M  END
$$$$
