
     RDKit          3D

 25 28  0  0  0  0  0  0  0  0999 V2000
    1.6572   -0.0624    6.6181 C   0  0  0  0  0  0  0  0  0  0  0  0
    2.8255   -0.4165    7.2656 C   0  0  0  0  0  0  0  0  0  0  0  0
    2.9817    0.3996    8.2830 O   0  0  0  0  0  0  0  0  0  0  0  0
    2.0272    1.2645    8.3747 C   0  0  0  0  0  0  0  0  0  0  0  0
    1.1645    1.0028    7.3325 C   0  0  0  0  0  0  0  0  0  0  0  0
    1.9255    2.3077    9.4097 C   0  0  0  0  0  0  0  0  0  0  0  0
    2.6575    2.4298   10.5278 N   0  0  0  0  0  0  0  0  0  0  0  0
    2.2896    3.4990   11.2354 N   0  0  0  0  0  0  0  0  0  0  0  0
    2.7158    4.0227   12.3945 C   0  0  0  0  0  0  0  0  0  0  0  0
    2.1364    5.1326   12.8642 N   0  0  0  0  0  0  0  0  0  0  0  0
    1.1372    5.7389   12.2061 C   0  0  0  0  0  0  0  0  0  0  0  0
    0.7405    5.1877   11.0555 N   0  0  0  0  0  0  0  0  0  0  0  0
    1.2811    4.0730   10.5283 C   0  0  0  0  0  0  0  0  0  0  0  0
    1.0674    3.3413    9.4204 N   0  0  0  0  0  0  0  0  0  0  0  0
    0.5685    6.9094   12.7581 N   0  0  0  0  0  0  0  0  0  0  0  0
    1.0079    7.3631   14.0439 C   0  0  0  0  0  0  0  0  0  0  0  0
    2.4260    7.8549   13.9955 C   0  0  0  0  0  0  0  0  0  0  0  0
    2.9366    8.2858   15.3086 C   0  0  0  0  0  0  0  0  0  0  0  0
    4.3006    8.5535   15.4720 C   0  0  0  0  0  0  0  0  0  0  0  0
    4.7447    8.9361   16.7157 C   0  0  0  0  0  0  0  0  0  0  0  0
    3.9169    9.0695   17.8088 C   0  0  0  0  0  0  0  0  0  0  0  0
    2.5736    8.8063   17.6508 C   0  0  0  0  0  0  0  0  0  0  0  0
    2.1173    8.4194   16.3991 C   0  0  0  0  0  0  0  0  0  0  0  0
    4.3936    9.4593   19.0583 O   0  0  0  0  0  0  0  0  0  0  0  0
    3.7694    3.3893   13.0954 N   0  0  0  0  0  0  0  0  0  0  0  0
  1  2  2  0
  2  3  1  0
  3  4  1  0
  4  5  2  0
  4  6  1  0
  6  7  2  0
  7  8  1  0
  8  9  1  0
  9 10  2  0
 10 11  1  0
 11 12  2  0
 12 13  1  0
 13 14  2  0
 11 15  1  0
 15 16  1  0
 16 17  1  0
 17 18  1  0
 18 19  2  0
 19 20  1  0
 20 21  2  0
 21 22  1  0
 22 23  2  0
 21 24  1  0
  9 25  1  0
  5  1  1  0
 14  6  1  0
 13  8  1  0
 23 18  1  0
M  END
$$$$
