
     RDKit          3D

 25 28  0  0  0  0  0  0  0  0999 V2000
    1.1486    1.2644    6.5177 C   0  0  0  0  0  0  0  0  0  0  0  0
    2.1895    0.5099    7.0247 C   0  0  0  0  0  0  0  0  0  0  0  0
    2.6349    1.1162    8.1015 O   0  0  0  0  0  0  0  0  0  0  0  0
    1.9888    2.2040    8.3600 C   0  0  0  0  0  0  0  0  0  0  0  0
    1.0346    2.3325    7.3742 C   0  0  0  0  0  0  0  0  0  0  0  0
    2.2573    3.0987    9.4989 C   0  0  0  0  0  0  0  0  0  0  0  0
    3.0081    2.8469   10.5824 N   0  0  0  0  0  0  0  0  0  0  0  0
    3.0284    3.8903   11.4131 N   0  0  0  0  0  0  0  0  0  0  0  0
    3.6246    4.1107   12.5943 C   0  0  0  0  0  0  0  0  0  0  0  0
    3.4547    5.2885   13.2042 N   0  0  0  0  0  0  0  0  0  0  0  0
    2.7018    6.2592   12.6657 C   0  0  0  0  0  0  0  0  0  0  0  0
    2.1243    6.0023   11.4885 N   0  0  0  0  0  0  0  0  0  0  0  0
    2.2550    4.8393   10.8231 C   0  0  0  0  0  0  0  0  0  0  0  0
    1.7911    4.3483    9.6603 N   0  0  0  0  0  0  0  0  0  0  0  0
    2.5634    7.4811   13.3629 N   0  0  0  0  0  0  0  0  0  0  0  0
    1.8536    8.5627   12.7477 C   0  0  0  0  0  0  0  0  0  0  0  0
    0.5093    8.7678   13.3849 C   0  0  0  0  0  0  0  0  0  0  0  0
   -0.3701    9.6616   12.6113 C   0  0  0  0  0  0  0  0  0  0  0  0
    0.0315   10.9759   12.3465 C   0  0  0  0  0  0  0  0  0  0  0  0
   -0.8222   11.7872   11.6371 C   0  0  0  0  0  0  0  0  0  0  0  0
   -2.0518   11.3736   11.1737 C   0  0  0  0  0  0  0  0  0  0  0  0
   -2.4498   10.0802   11.4331 C   0  0  0  0  0  0  0  0  0  0  0  0
   -1.5944    9.2549   12.1486 C   0  0  0  0  0  0  0  0  0  0  0  0
   -2.8974   12.2170   10.4566 O   0  0  0  0  0  0  0  0  0  0  0  0
    4.4207    3.0920   13.1696 N   0  0  0  0  0  0  0  0  0  0  0  0
  1  2  2  0
  2  3  1  0
  3  4  1  0
  4  5  2  0
  4  6  1  0
  6  7  2  0
  7  8  1  0
  8  9  1  0
  9 10  2  0
 10 11  1  0
 11 12  2  0
 12 13  1  0
 13 14  2  0
 11 15  1  0
 15 16  1  0
 16 17  1  0
 17 18  1  0
 18 19  2  0
 19 20  1  0
 20 21  2  0
 21 22  1  0
 22 23  2  0
 21 24  1  0
  9 25  1  0
  5  1  1  0
 14  6  1  0
 13  8  1  0
 23 18  1  0
M  END
$$$$
