
     RDKit          3D

 25 28  0  0  0  0  0  0  0  0999 V2000
    2.6392    0.0778    6.5349 C   0  0  0  0  0  0  0  0  0  0  0  0
    1.4826    0.6863    6.0857 C   0  0  0  0  0  0  0  0  0  0  0  0
    1.2391    1.7107    6.8712 O   0  0  0  0  0  0  0  0  0  0  0  0
    2.1246    1.8422    7.8018 C   0  0  0  0  0  0  0  0  0  0  0  0
    3.0325    0.8215    7.6212 C   0  0  0  0  0  0  0  0  0  0  0  0
    2.1209    2.8949    8.8322 C   0  0  0  0  0  0  0  0  0  0  0  0
    2.9101    2.9889    9.9135 N   0  0  0  0  0  0  0  0  0  0  0  0
    2.6265    4.0782   10.6292 N   0  0  0  0  0  0  0  0  0  0  0  0
    3.1313    4.5879   11.7627 C   0  0  0  0  0  0  0  0  0  0  0  0
    2.6271    5.7264   12.2505 N   0  0  0  0  0  0  0  0  0  0  0  0
    1.6271    6.3751   11.6355 C   0  0  0  0  0  0  0  0  0  0  0  0
    1.1509    5.8366   10.5094 N   0  0  0  0  0  0  0  0  0  0  0  0
    1.6132    4.6948    9.9660 C   0  0  0  0  0  0  0  0  0  0  0  0
    1.3133    3.9676    8.8753 N   0  0  0  0  0  0  0  0  0  0  0  0
    1.1403    7.5740   12.2046 N   0  0  0  0  0  0  0  0  0  0  0  0
    1.8549    8.1751   13.2910 C   0  0  0  0  0  0  0  0  0  0  0  0
    1.1922    7.8873   14.6076 C   0  0  0  0  0  0  0  0  0  0  0  0
    2.0422    8.2066   15.7679 C   0  0  0  0  0  0  0  0  0  0  0  0
    3.4335    8.2495   15.6215 C   0  0  0  0  0  0  0  0  0  0  0  0
    4.1964    8.5330   16.7296 C   0  0  0  0  0  0  0  0  0  0  0  0
    3.6625    8.7769   17.9759 C   0  0  0  0  0  0  0  0  0  0  0  0
    2.2930    8.7351   18.1230 C   0  0  0  0  0  0  0  0  0  0  0  0
    1.5159    8.4494   17.0098 C   0  0  0  0  0  0  0  0  0  0  0  0
    4.4592    9.0622   19.0824 O   0  0  0  0  0  0  0  0  0  0  0  0
    4.1864    3.9099   12.4179 N   0  0  0  0  0  0  0  0  0  0  0  0
  1  2  2  0
  2  3  1  0
  3  4  1  0
  4  5  2  0
  4  6  1  0
  6  7  2  0
  7  8  1  0
  8  9  1  0
  9 10  2  0
 10 11  1  0
 11 12  2  0
 12 13  1  0
 13 14  2  0
 11 15  1  0
 15 16  1  0
 16 17  1  0
 17 18  1  0
 18 19  2  0
 19 20  1  0
 20 21  2  0
 21 22  1  0
 22 23  2  0
 21 24  1  0
  9 25  1  0
  5  1  1  0
 14  6  1  0
 13  8  1  0
 23 18  1  0
M  END
$$$$
