
     RDKit          3D

 25 28  0  0  0  0  0  0  0  0999 V2000
    1.2433    0.9014    5.7750 C   0  0  0  0  0  0  0  0  0  0  0  0
    0.1179    1.6997    5.8531 C   0  0  0  0  0  0  0  0  0  0  0  0
    0.2447    2.4665    6.9122 O   0  0  0  0  0  0  0  0  0  0  0  0
    1.3488    2.2544    7.5474 C   0  0  0  0  0  0  0  0  0  0  0  0
    2.0117    1.2650    6.8543 C   0  0  0  0  0  0  0  0  0  0  0  0
    1.7717    2.9589    8.7700 C   0  0  0  0  0  0  0  0  0  0  0  0
    1.1196    3.9320    9.4247 N   0  0  0  0  0  0  0  0  0  0  0  0
    1.8017    4.3384   10.4965 N   0  0  0  0  0  0  0  0  0  0  0  0
    1.5638    5.2635   11.4384 C   0  0  0  0  0  0  0  0  0  0  0  0
    2.4582    5.4488   12.4151 N   0  0  0  0  0  0  0  0  0  0  0  0
    3.5906    4.7328   12.4793 C   0  0  0  0  0  0  0  0  0  0  0  0
    3.7920    3.8212   11.5235 N   0  0  0  0  0  0  0  0  0  0  0  0
    2.9328    3.5855   10.5141 C   0  0  0  0  0  0  0  0  0  0  0  0
    2.9049    2.7502    9.4605 N   0  0  0  0  0  0  0  0  0  0  0  0
    4.4940    4.9788   13.5383 N   0  0  0  0  0  0  0  0  0  0  0  0
    4.0933    5.8313   14.6177 C   0  0  0  0  0  0  0  0  0  0  0  0
    4.3436    7.2766   14.2955 C   0  0  0  0  0  0  0  0  0  0  0  0
    3.5856    8.2030   15.1544 C   0  0  0  0  0  0  0  0  0  0  0  0
    3.9620    8.3800   16.4908 C   0  0  0  0  0  0  0  0  0  0  0  0
    3.2211    9.2388   17.2677 C   0  0  0  0  0  0  0  0  0  0  0  0
    2.1277    9.9337   16.7992 C   0  0  0  0  0  0  0  0  0  0  0  0
    1.7546    9.7611   15.4840 C   0  0  0  0  0  0  0  0  0  0  0  0
    2.4969    8.8961   14.6932 C   0  0  0  0  0  0  0  0  0  0  0  0
    1.3944   10.7982   17.6088 O   0  0  0  0  0  0  0  0  0  0  0  0
    0.3716    6.0233   11.3782 N   0  0  0  0  0  0  0  0  0  0  0  0
  1  2  2  0
  2  3  1  0
  3  4  1  0
  4  5  2  0
  4  6  1  0
  6  7  2  0
  7  8  1  0
  8  9  1  0
  9 10  2  0
 10 11  1  0
 11 12  2  0
 12 13  1  0
 13 14  2  0
 11 15  1  0
 15 16  1  0
 16 17  1  0
 17 18  1  0
 18 19  2  0
 19 20  1  0
 20 21  2  0
 21 22  1  0
 22 23  2  0
 21 24  1  0
  9 25  1  0
  5  1  1  0
 14  6  1  0
 13  8  1  0
 23 18  1  0
M  END
$$$$
