
     RDKit          3D

 25 28  0  0  0  0  0  0  0  0999 V2000
    2.0313    0.1361    6.7200 C   0  0  0  0  0  0  0  0  0  0  0  0
    3.2780    0.0062    7.3021 C   0  0  0  0  0  0  0  0  0  0  0  0
    3.3564    0.8818    8.2782 O   0  0  0  0  0  0  0  0  0  0  0  0
    2.2792    1.5831    8.4016 C   0  0  0  0  0  0  0  0  0  0  0  0
    1.4121    1.1380    7.4275 C   0  0  0  0  0  0  0  0  0  0  0  0
    2.0673    2.6413    9.4042 C   0  0  0  0  0  0  0  0  0  0  0  0
    2.8322    2.9300   10.4683 N   0  0  0  0  0  0  0  0  0  0  0  0
    2.3352    3.9562   11.1604 N   0  0  0  0  0  0  0  0  0  0  0  0
    2.7355    4.5931   12.2711 C   0  0  0  0  0  0  0  0  0  0  0  0
    2.0097    5.6146   12.7380 N   0  0  0  0  0  0  0  0  0  0  0  0
    0.8886    6.0215   12.1244 C   0  0  0  0  0  0  0  0  0  0  0  0
    0.5223    5.3626   11.0214 N   0  0  0  0  0  0  0  0  0  0  0  0
    1.2072    4.3275   10.4997 C   0  0  0  0  0  0  0  0  0  0  0  0
    1.0533    3.5221    9.4338 N   0  0  0  0  0  0  0  0  0  0  0  0
    0.1681    7.1081   12.6707 N   0  0  0  0  0  0  0  0  0  0  0  0
    0.8584    8.0758   13.4702 C   0  0  0  0  0  0  0  0  0  0  0  0
    0.7210    7.7738   14.9349 C   0  0  0  0  0  0  0  0  0  0  0  0
    1.6658    8.5301   15.7751 C   0  0  0  0  0  0  0  0  0  0  0  0
    1.6643    9.9292   15.7392 C   0  0  0  0  0  0  0  0  0  0  0  0
    2.5717   10.6017   16.5231 C   0  0  0  0  0  0  0  0  0  0  0  0
    3.4820    9.9700   17.3417 C   0  0  0  0  0  0  0  0  0  0  0  0
    3.4860    8.5925   17.3788 C   0  0  0  0  0  0  0  0  0  0  0  0
    2.5737    7.9062   16.5906 C   0  0  0  0  0  0  0  0  0  0  0  0
    4.3909   10.6764   18.1262 O   0  0  0  0  0  0  0  0  0  0  0  0
    3.9172    4.1703   12.9247 N   0  0  0  0  0  0  0  0  0  0  0  0
  1  2  2  0
  2  3  1  0
  3  4  1  0
  4  5  2  0
  4  6  1  0
  6  7  2  0
  7  8  1  0
  8  9  1  0
  9 10  2  0
 10 11  1  0
 11 12  2  0
 12 13  1  0
 13 14  2  0
 11 15  1  0
 15 16  1  0
 16 17  1  0
 17 18  1  0
 18 19  2  0
 19 20  1  0
 20 21  2  0
 21 22  1  0
 22 23  2  0
 21 24  1  0
  9 25  1  0
  5  1  1  0
 14  6  1  0
 13  8  1  0
 23 18  1  0
M  END
$$$$
