
     RDKit          3D

 25 28  0  0  0  0  0  0  0  0999 V2000
    1.4930   -0.2175    6.9161 C   0  0  0  0  0  0  0  0  0  0  0  0
    2.7763   -0.3804    7.4026 C   0  0  0  0  0  0  0  0  0  0  0  0
    2.9871    0.5592    8.2961 O   0  0  0  0  0  0  0  0  0  0  0  0
    1.9651    1.3331    8.4511 C   0  0  0  0  0  0  0  0  0  0  0  0
    0.9938    0.8709    7.5899 C   0  0  0  0  0  0  0  0  0  0  0  0
    1.8995    2.4743    9.3801 C   0  0  0  0  0  0  0  0  0  0  0  0
    2.7688    2.7942   10.3511 N   0  0  0  0  0  0  0  0  0  0  0  0
    2.3909    3.8979   10.9978 N   0  0  0  0  0  0  0  0  0  0  0  0
    2.9206    4.5903   12.0174 C   0  0  0  0  0  0  0  0  0  0  0  0
    2.2953    5.6866   12.4596 N   0  0  0  0  0  0  0  0  0  0  0  0
    1.1491    6.1146   11.9100 C   0  0  0  0  0  0  0  0  0  0  0  0
    0.6527    5.3987   10.8969 N   0  0  0  0  0  0  0  0  0  0  0  0
    1.2318    4.2874   10.4048 C   0  0  0  0  0  0  0  0  0  0  0  0
    0.9419    3.4155    9.4228 N   0  0  0  0  0  0  0  0  0  0  0  0
    0.5396    7.2812   12.4253 N   0  0  0  0  0  0  0  0  0  0  0  0
    1.2240    8.0470   13.4240 C   0  0  0  0  0  0  0  0  0  0  0  0
    1.0858    7.4224   14.7827 C   0  0  0  0  0  0  0  0  0  0  0  0
    2.0734    7.9220   15.7550 C   0  0  0  0  0  0  0  0  0  0  0  0
    1.9349    9.2075   16.2909 C   0  0  0  0  0  0  0  0  0  0  0  0
    2.8849    9.6475   17.1819 C   0  0  0  0  0  0  0  0  0  0  0  0
    3.9659    8.8889   17.5744 C   0  0  0  0  0  0  0  0  0  0  0  0
    4.1050    7.6230   17.0482 C   0  0  0  0  0  0  0  0  0  0  0  0
    3.1507    7.1714   16.1481 C   0  0  0  0  0  0  0  0  0  0  0  0
    4.9142    9.3597   18.4796 O   0  0  0  0  0  0  0  0  0  0  0  0
    4.1296    4.1458   12.6030 N   0  0  0  0  0  0  0  0  0  0  0  0
  1  2  2  0
  2  3  1  0
  3  4  1  0
  4  5  2  0
  4  6  1  0
  6  7  2  0
  7  8  1  0
  8  9  1  0
  9 10  2  0
 10 11  1  0
 11 12  2  0
 12 13  1  0
 13 14  2  0
 11 15  1  0
 15 16  1  0
 16 17  1  0
 17 18  1  0
 18 19  2  0
 19 20  1  0
 20 21  2  0
 21 22  1  0
 22 23  2  0
 21 24  1  0
  9 25  1  0
  5  1  1  0
 14  6  1  0
 13  8  1  0
 23 18  1  0
M  END
$$$$
