
     RDKit          3D

 25 28  0  0  0  0  0  0  0  0999 V2000
    2.1081    0.5242    6.2032 C   0  0  0  0  0  0  0  0  0  0  0  0
    3.2762    0.2395    6.8846 C   0  0  0  0  0  0  0  0  0  0  0  0
    3.3327    1.0332    7.9298 O   0  0  0  0  0  0  0  0  0  0  0  0
    2.3120    1.8203    8.0092 C   0  0  0  0  0  0  0  0  0  0  0  0
    1.5099    1.5264    6.9280 C   0  0  0  0  0  0  0  0  0  0  0  0
    2.0935    2.8202    9.0686 C   0  0  0  0  0  0  0  0  0  0  0  0
    2.7722    2.9616   10.2176 N   0  0  0  0  0  0  0  0  0  0  0  0
    2.2987    3.9779   10.9401 N   0  0  0  0  0  0  0  0  0  0  0  0
    2.6409    4.4954   12.1295 C   0  0  0  0  0  0  0  0  0  0  0  0
    1.9622    5.5440   12.6072 N   0  0  0  0  0  0  0  0  0  0  0  0
    0.9452    6.0945   11.9277 C   0  0  0  0  0  0  0  0  0  0  0  0
    0.6342    5.5514   10.7473 N   0  0  0  0  0  0  0  0  0  0  0  0
    1.2766    4.4970   10.2104 C   0  0  0  0  0  0  0  0  0  0  0  0
    1.1600    3.7863    9.0747 N   0  0  0  0  0  0  0  0  0  0  0  0
    0.2696    7.2016   12.4899 N   0  0  0  0  0  0  0  0  0  0  0  0
    0.7072    7.7239   13.7500 C   0  0  0  0  0  0  0  0  0  0  0  0
    1.9091    8.6096   13.5877 C   0  0  0  0  0  0  0  0  0  0  0  0
    2.7433    8.6848   14.7998 C   0  0  0  0  0  0  0  0  0  0  0  0
    2.1464    8.5986   16.0628 C   0  0  0  0  0  0  0  0  0  0  0  0
    2.9534    8.6905   17.1721 C   0  0  0  0  0  0  0  0  0  0  0  0
    4.3186    8.8629   17.1048 C   0  0  0  0  0  0  0  0  0  0  0  0
    4.9089    8.9484   15.8626 C   0  0  0  0  0  0  0  0  0  0  0  0
    4.1016    8.8568   14.7380 C   0  0  0  0  0  0  0  0  0  0  0  0
    5.1130    8.9527   18.2455 O   0  0  0  0  0  0  0  0  0  0  0  0
    3.7126    3.9206   12.8530 N   0  0  0  0  0  0  0  0  0  0  0  0
  1  2  2  0
  2  3  1  0
  3  4  1  0
  4  5  2  0
  4  6  1  0
  6  7  2  0
  7  8  1  0
  8  9  1  0
  9 10  2  0
 10 11  1  0
 11 12  2  0
 12 13  1  0
 13 14  2  0
 11 15  1  0
 15 16  1  0
 16 17  1  0
 17 18  1  0
 18 19  2  0
 19 20  1  0
 20 21  2  0
 21 22  1  0
 22 23  2  0
 21 24  1  0
  9 25  1  0
  5  1  1  0
 14  6  1  0
 13  8  1  0
 23 18  1  0
M  END
$$$$
