
     RDKit          3D

 25 28  0  0  0  0  0  0  0  0999 V2000
    1.5625    0.5109    6.2598 C   0  0  0  0  0  0  0  0  0  0  0  0
    2.9038    0.4010    6.5738 C   0  0  0  0  0  0  0  0  0  0  0  0
    3.1571    1.2467    7.5465 O   0  0  0  0  0  0  0  0  0  0  0  0
    2.1107    1.9101    7.9105 C   0  0  0  0  0  0  0  0  0  0  0  0
    1.0755    1.4700    7.1147 C   0  0  0  0  0  0  0  0  0  0  0  0
    2.0808    2.9285    8.9744 C   0  0  0  0  0  0  0  0  0  0  0  0
    2.8330    2.9791   10.0846 N   0  0  0  0  0  0  0  0  0  0  0  0
    2.5345    4.0472   10.8258 N   0  0  0  0  0  0  0  0  0  0  0  0
    3.0043    4.5144   11.9922 C   0  0  0  0  0  0  0  0  0  0  0  0
    2.4937    5.6413   12.4998 N   0  0  0  0  0  0  0  0  0  0  0  0
    1.5214    6.3198   11.8727 C   0  0  0  0  0  0  0  0  0  0  0  0
    1.0796    5.8233   10.7137 N   0  0  0  0  0  0  0  0  0  0  0  0
    1.5503    4.6953   10.1491 C   0  0  0  0  0  0  0  0  0  0  0  0
    1.2818    4.0073    9.0252 N   0  0  0  0  0  0  0  0  0  0  0  0
    1.0259    7.5043   12.4641 N   0  0  0  0  0  0  0  0  0  0  0  0
    1.2452    7.7354   13.8607 C   0  0  0  0  0  0  0  0  0  0  0  0
    2.7053    7.9149   14.1631 C   0  0  0  0  0  0  0  0  0  0  0  0
    2.9544    8.7595   15.3443 C   0  0  0  0  0  0  0  0  0  0  0  0
    4.2680    9.0102   15.7570 C   0  0  0  0  0  0  0  0  0  0  0  0
    4.4625    9.7879   16.8738 C   0  0  0  0  0  0  0  0  0  0  0  0
    3.4317   10.3330   17.6075 C   0  0  0  0  0  0  0  0  0  0  0  0
    2.1374   10.0876   17.2036 C   0  0  0  0  0  0  0  0  0  0  0  0
    1.9323    9.3035   16.0776 C   0  0  0  0  0  0  0  0  0  0  0  0
    3.6573   11.1182   18.7358 O   0  0  0  0  0  0  0  0  0  0  0  0
    4.0300    3.8047   12.6604 N   0  0  0  0  0  0  0  0  0  0  0  0
  1  2  2  0
  2  3  1  0
  3  4  1  0
  4  5  2  0
  4  6  1  0
  6  7  2  0
  7  8  1  0
  8  9  1  0
  9 10  2  0
 10 11  1  0
 11 12  2  0
 12 13  1  0
 13 14  2  0
 11 15  1  0
 15 16  1  0
 16 17  1  0
 17 18  1  0
 18 19  2  0
 19 20  1  0
 20 21  2  0
 21 22  1  0
 22 23  2  0
 21 24  1  0
  9 25  1  0
  5  1  1  0
 14  6  1  0
 13  8  1  0
 23 18  1  0
M  END
$$$$
