
     RDKit          3D

 25 28  0  0  0  0  0  0  0  0999 V2000
    2.0088    0.2637    6.2358 C   0  0  0  0  0  0  0  0  0  0  0  0
    3.1580   -0.0614    6.9311 C   0  0  0  0  0  0  0  0  0  0  0  0
    3.2294    0.7301    7.9771 O   0  0  0  0  0  0  0  0  0  0  0  0
    2.2359    1.5521    8.0445 C   0  0  0  0  0  0  0  0  0  0  0  0
    1.4371    1.2863    6.9536 C   0  0  0  0  0  0  0  0  0  0  0  0
    2.0395    2.5593    9.1014 C   0  0  0  0  0  0  0  0  0  0  0  0
    2.7263    2.6931   10.2465 N   0  0  0  0  0  0  0  0  0  0  0  0
    2.2736    3.7197   10.9678 N   0  0  0  0  0  0  0  0  0  0  0  0
    2.6304    4.2354   12.1537 C   0  0  0  0  0  0  0  0  0  0  0  0
    1.9719    5.2969   12.6311 N   0  0  0  0  0  0  0  0  0  0  0  0
    0.9608    5.8621   11.9548 C   0  0  0  0  0  0  0  0  0  0  0  0
    0.6348    5.3203   10.7778 N   0  0  0  0  0  0  0  0  0  0  0  0
    1.2566    4.2534   10.2414 C   0  0  0  0  0  0  0  0  0  0  0  0
    1.1225    3.5409    9.1088 N   0  0  0  0  0  0  0  0  0  0  0  0
    0.3068    6.9824   12.5164 N   0  0  0  0  0  0  0  0  0  0  0  0
    0.7373    7.4805   13.7887 C   0  0  0  0  0  0  0  0  0  0  0  0
    1.9989    8.2854   13.6627 C   0  0  0  0  0  0  0  0  0  0  0  0
    2.7165    8.4442   14.9396 C   0  0  0  0  0  0  0  0  0  0  0  0
    4.1117    8.3383   14.9725 C   0  0  0  0  0  0  0  0  0  0  0  0
    4.7467    8.4743   16.1843 C   0  0  0  0  0  0  0  0  0  0  0  0
    4.0811    8.7092   17.3674 C   0  0  0  0  0  0  0  0  0  0  0  0
    2.7074    8.8136   17.3380 C   0  0  0  0  0  0  0  0  0  0  0  0
    2.0588    8.6774   16.1192 C   0  0  0  0  0  0  0  0  0  0  0  0
    4.7498    8.8432   18.5820 O   0  0  0  0  0  0  0  0  0  0  0  0
    3.6959    3.6452   12.8738 N   0  0  0  0  0  0  0  0  0  0  0  0
  1  2  2  0
  2  3  1  0
  3  4  1  0
  4  5  2  0
  4  6  1  0
  6  7  2  0
  7  8  1  0
  8  9  1  0
  9 10  2  0
 10 11  1  0
 11 12  2  0
 12 13  1  0
 13 14  2  0
 11 15  1  0
 15 16  1  0
 16 17  1  0
 17 18  1  0
 18 19  2  0
 19 20  1  0
 20 21  2  0
 21 22  1  0
 22 23  2  0
 21 24  1  0
  9 25  1  0
  5  1  1  0
 14  6  1  0
 13  8  1  0
 23 18  1  0
M  END
$$$$
