
     RDKit          3D

 25 28  0  0  0  0  0  0  0  0999 V2000
    1.2178    0.2775    6.6833 C   0  0  0  0  0  0  0  0  0  0  0  0
    2.4128   -0.1226    7.2505 C   0  0  0  0  0  0  0  0  0  0  0  0
    2.6936    0.7148    8.2229 O   0  0  0  0  0  0  0  0  0  0  0  0
    1.7981    1.6354    8.3573 C   0  0  0  0  0  0  0  0  0  0  0  0
    0.8424    1.3910    7.3952 C   0  0  0  0  0  0  0  0  0  0  0  0
    1.8361    2.7146    9.3592 C   0  0  0  0  0  0  0  0  0  0  0  0
    2.5985    2.7861   10.4612 N   0  0  0  0  0  0  0  0  0  0  0  0
    2.3688    3.9117   11.1391 N   0  0  0  0  0  0  0  0  0  0  0  0
    2.8741    4.4182   12.2738 C   0  0  0  0  0  0  0  0  0  0  0  0
    2.4344    5.6012   12.7159 N   0  0  0  0  0  0  0  0  0  0  0  0
    1.4987    6.2978   12.0539 C   0  0  0  0  0  0  0  0  0  0  0  0
    1.0196    5.7607   10.9282 N   0  0  0  0  0  0  0  0  0  0  0  0
    1.4191    4.5757   10.4293 C   0  0  0  0  0  0  0  0  0  0  0  0
    1.1021    3.8397    9.3494 N   0  0  0  0  0  0  0  0  0  0  0  0
    1.0780    7.5421   12.5761 N   0  0  0  0  0  0  0  0  0  0  0  0
    0.6630    7.6238   13.9448 C   0  0  0  0  0  0  0  0  0  0  0  0
    1.7362    7.1305   14.8724 C   0  0  0  0  0  0  0  0  0  0  0  0
    2.3295    8.1992   15.6948 C   0  0  0  0  0  0  0  0  0  0  0  0
    1.6417    9.4051   15.8721 C   0  0  0  0  0  0  0  0  0  0  0  0
    2.2335   10.3868   16.6312 C   0  0  0  0  0  0  0  0  0  0  0  0
    3.4679   10.2450   17.2261 C   0  0  0  0  0  0  0  0  0  0  0  0
    4.1475    9.0589   17.0530 C   0  0  0  0  0  0  0  0  0  0  0  0
    3.5574    8.0631   16.2882 C   0  0  0  0  0  0  0  0  0  0  0  0
    4.0446   11.2565   17.9908 O   0  0  0  0  0  0  0  0  0  0  0  0
    3.8616    3.6899   12.9785 N   0  0  0  0  0  0  0  0  0  0  0  0
  1  2  2  0
  2  3  1  0
  3  4  1  0
  4  5  2  0
  4  6  1  0
  6  7  2  0
  7  8  1  0
  8  9  1  0
  9 10  2  0
 10 11  1  0
 11 12  2  0
 12 13  1  0
 13 14  2  0
 11 15  1  0
 15 16  1  0
 16 17  1  0
 17 18  1  0
 18 19  2  0
 19 20  1  0
 20 21  2  0
 21 22  1  0
 22 23  2  0
 21 24  1  0
  9 25  1  0
  5  1  1  0
 14  6  1  0
 13  8  1  0
 23 18  1  0
M  END
$$$$
