
     RDKit          3D

 25 28  0  0  0  0  0  0  0  0999 V2000
    2.4244    1.1067    6.0290 C   0  0  0  0  0  0  0  0  0  0  0  0
    3.5168    0.6724    6.7555 C   0  0  0  0  0  0  0  0  0  0  0  0
    3.4883    1.2785    7.9207 O   0  0  0  0  0  0  0  0  0  0  0  0
    2.4796    2.0760    8.0391 C   0  0  0  0  0  0  0  0  0  0  0  0
    1.7787    1.9942    6.8555 C   0  0  0  0  0  0  0  0  0  0  0  0
    2.1799    2.8923    9.2280 C   0  0  0  0  0  0  0  0  0  0  0  0
    2.7667    2.8345   10.4335 N   0  0  0  0  0  0  0  0  0  0  0  0
    2.2392    3.7256   11.2743 N   0  0  0  0  0  0  0  0  0  0  0  0
    2.4878    4.0370   12.5552 C   0  0  0  0  0  0  0  0  0  0  0  0
    1.7750    5.0028   13.1447 N   0  0  0  0  0  0  0  0  0  0  0  0
    0.8150    5.6712   12.4883 C   0  0  0  0  0  0  0  0  0  0  0  0
    0.5968    5.3327   11.2144 N   0  0  0  0  0  0  0  0  0  0  0  0
    1.2780    4.3713   10.5630 C   0  0  0  0  0  0  0  0  0  0  0  0
    1.2499    3.8574    9.3206 N   0  0  0  0  0  0  0  0  0  0  0  0
    0.0987    6.6809   13.1706 N   0  0  0  0  0  0  0  0  0  0  0  0
    0.7639    7.4548   14.1760 C   0  0  0  0  0  0  0  0  0  0  0  0
    1.8742    8.2774   13.5879 C   0  0  0  0  0  0  0  0  0  0  0  0
    2.6231    9.0478   14.5960 C   0  0  0  0  0  0  0  0  0  0  0  0
    1.9982    9.4251   15.7902 C   0  0  0  0  0  0  0  0  0  0  0  0
    2.7219   10.1587   16.7003 C   0  0  0  0  0  0  0  0  0  0  0  0
    4.0297   10.5415   16.4977 C   0  0  0  0  0  0  0  0  0  0  0  0
    4.6473   10.1717   15.3228 C   0  0  0  0  0  0  0  0  0  0  0  0
    3.9241    9.4315   14.3989 C   0  0  0  0  0  0  0  0  0  0  0  0
    4.7401   11.2851   17.4374 O   0  0  0  0  0  0  0  0  0  0  0  0
    3.4988    3.3369   13.2550 N   0  0  0  0  0  0  0  0  0  0  0  0
  1  2  2  0
  2  3  1  0
  3  4  1  0
  4  5  2  0
  4  6  1  0
  6  7  2  0
  7  8  1  0
  8  9  1  0
  9 10  2  0
 10 11  1  0
 11 12  2  0
 12 13  1  0
 13 14  2  0
 11 15  1  0
 15 16  1  0
 16 17  1  0
 17 18  1  0
 18 19  2  0
 19 20  1  0
 20 21  2  0
 21 22  1  0
 22 23  2  0
 21 24  1  0
  9 25  1  0
  5  1  1  0
 14  6  1  0
 13  8  1  0
 23 18  1  0
M  END
$$$$
