
     RDKit          3D

 25 28  0  0  0  0  0  0  0  0999 V2000
    1.4952   -0.3747    7.8468 C   0  0  0  0  0  0  0  0  0  0  0  0
    2.7740   -0.4693    8.3621 C   0  0  0  0  0  0  0  0  0  0  0  0
    3.0028    0.6166    9.0651 O   0  0  0  0  0  0  0  0  0  0  0  0
    1.9968    1.4261    9.0669 C   0  0  0  0  0  0  0  0  0  0  0  0
    1.0175    0.8303    8.3022 C   0  0  0  0  0  0  0  0  0  0  0  0
    1.9534    2.7222    9.7655 C   0  0  0  0  0  0  0  0  0  0  0  0
    2.8194    3.1945   10.6753 N   0  0  0  0  0  0  0  0  0  0  0  0
    2.4662    4.4094   11.0979 N   0  0  0  0  0  0  0  0  0  0  0  0
    3.0033    5.2657   11.9799 C   0  0  0  0  0  0  0  0  0  0  0  0
    2.4053    6.4416   12.1986 N   0  0  0  0  0  0  0  0  0  0  0  0
    1.2794    6.7899   11.5582 C   0  0  0  0  0  0  0  0  0  0  0  0
    0.7749    5.9109   10.6877 N   0  0  0  0  0  0  0  0  0  0  0  0
    1.3269    4.7120   10.4219 C   0  0  0  0  0  0  0  0  0  0  0  0
    1.0236    3.6801    9.6147 N   0  0  0  0  0  0  0  0  0  0  0  0
    0.6983    8.0482   11.8360 N   0  0  0  0  0  0  0  0  0  0  0  0
   -0.3274    8.1423   12.8316 C   0  0  0  0  0  0  0  0  0  0  0  0
   -0.0109    9.2049   13.8446 C   0  0  0  0  0  0  0  0  0  0  0  0
    0.6423    8.6772   15.0552 C   0  0  0  0  0  0  0  0  0  0  0  0
    1.8041    9.2871   15.5421 C   0  0  0  0  0  0  0  0  0  0  0  0
    2.3968    8.7571   16.6637 C   0  0  0  0  0  0  0  0  0  0  0  0
    1.9065    7.6573   17.3329 C   0  0  0  0  0  0  0  0  0  0  0  0
    0.7629    7.0546   16.8556 C   0  0  0  0  0  0  0  0  0  0  0  0
    0.1587    7.5831   15.7241 C   0  0  0  0  0  0  0  0  0  0  0  0
    2.5272    7.1408   18.4680 O   0  0  0  0  0  0  0  0  0  0  0  0
    4.1911    4.9061   12.6598 N   0  0  0  0  0  0  0  0  0  0  0  0
  1  2  2  0
  2  3  1  0
  3  4  1  0
  4  5  2  0
  4  6  1  0
  6  7  2  0
  7  8  1  0
  8  9  1  0
  9 10  2  0
 10 11  1  0
 11 12  2  0
 12 13  1  0
 13 14  2  0
 11 15  1  0
 15 16  1  0
 16 17  1  0
 17 18  1  0
 18 19  2  0
 19 20  1  0
 20 21  2  0
 21 22  1  0
 22 23  2  0
 21 24  1  0
  9 25  1  0
  5  1  1  0
 14  6  1  0
 13  8  1  0
 23 18  1  0
M  END
$$$$
