
     RDKit          3D

 37 41  0  0  0  0  0  0  0  0999 V2000
    6.2907  -10.1998    7.4141 C   0  0  0  0  0  0  0  0  0  0  0  0
    6.6911  -11.1588    8.4643 C   0  0  0  0  0  0  0  0  0  0  0  0
    6.4422  -10.8562    9.7886 C   0  0  0  0  0  0  0  0  0  0  0  0
    6.7988  -11.7218   10.8012 C   0  0  0  0  0  0  0  0  0  0  0  0
    7.4119  -12.9023   10.4710 C   0  0  0  0  0  0  0  0  0  0  0  0
    7.6577  -13.1972    9.1376 C   0  0  0  0  0  0  0  0  0  0  0  0
    7.3067  -12.3425    8.1215 C   0  0  0  0  0  0  0  0  0  0  0  0
    7.5409  -12.6025    6.7084 C   0  0  0  0  0  0  0  0  0  0  0  0
    8.8144  -12.3806    6.2149 C   0  0  0  0  0  0  0  0  0  0  0  0
    9.0491  -12.6232    4.8775 C   0  0  0  0  0  0  0  0  0  0  0  0
    8.0398  -13.0790    4.0372 C   0  0  0  0  0  0  0  0  0  0  0  0
    6.7613  -13.3045    4.5204 C   0  0  0  0  0  0  0  0  0  0  0  0
    6.5420  -13.0581    5.8570 C   0  0  0  0  0  0  0  0  0  0  0  0
    5.7315  -13.7865    3.5883 C   0  0  0  0  0  0  0  0  0  0  0  0
    5.2896  -12.7941    2.6813 O   0  0  0  0  0  0  0  0  0  0  0  0
    4.7627  -13.2147    1.4787 C   0  0  0  0  0  0  0  0  0  0  0  0
    4.4311  -12.3655    0.4914 N   0  0  0  0  0  0  0  0  0  0  0  0
    3.9198  -12.7554   -0.6770 C   0  0  0  0  0  0  0  0  0  0  0  0
    3.7051  -14.0955   -0.9228 C   0  0  0  0  0  0  0  0  0  0  0  0
    3.1530  -14.8792   -1.9991 C   0  0  0  0  0  0  0  0  0  0  0  0
    4.2027  -16.0354   -1.8982 C   0  0  0  0  0  0  0  0  0  0  0  0
    3.6160  -15.6234   -3.0971 C   0  0  0  0  0  0  0  0  0  0  0  0
    4.4060  -14.8864   -4.1153 C   0  0  0  0  0  0  0  0  0  0  0  0
    5.2820  -14.0661   -3.7805 O   0  0  0  0  0  0  0  0  0  0  0  0
    4.1795  -15.1014   -5.4624 O   0  0  0  0  0  0  0  0  0  0  0  0
    3.7329  -16.3724   -0.5070 C   0  0  0  0  0  0  0  0  0  0  0  0
    4.0345  -15.0261    0.0711 C   0  0  0  0  0  0  0  0  0  0  0  0
    4.5571  -14.5703    1.2559 C   0  0  0  0  0  0  0  0  0  0  0  0
    8.3205  -14.4741    8.7842 C   0  0  0  0  0  0  0  0  0  0  0  0
    6.5107  -11.3354   12.0913 O   0  0  0  0  0  0  0  0  0  0  0  0
    6.3117  -12.2873   13.0863 C   0  0  0  0  0  0  0  0  0  0  0  0
    6.1460  -11.7513   14.4633 C   0  0  0  0  0  0  0  0  0  0  0  0
    4.7504  -11.6377   14.9891 C   0  0  0  0  0  0  0  0  0  0  0  0
    4.4096  -10.2072   15.9346 S   0  0  0  0  0  6  0  0  0  0  0  0
    5.3801  -10.2366   17.1214 O   0  0  0  0  0  0  0  0  0  0  0  0
    4.5027   -8.9185   15.2260 O   0  0  0  0  0  0  0  0  0  0  0  0
    2.7824  -10.3780   16.6623 C   0  0  0  0  0  0  0  0  0  0  0  0
  1  2  1  0
  2  3  2  0
  3  4  1  0
  4  5  2  0
  5  6  1  0
  6  7  2  0
  7  8  1  0
  8  9  2  0
  9 10  1  0
 10 11  2  0
 11 12  1  0
 12 13  2  0
 12 14  1  0
 14 15  1  0
 15 16  1  0
 16 17  2  0
 17 18  1  0
 18 19  2  0
 19 20  1  0
 20 21  1  0
 21 22  1  0
 22 23  1  0
 23 24  2  0
 23 25  1  0
 21 26  1  0
 26 27  1  0
 27 28  2  0
  6 29  1  0
  4 30  1  0
 30 31  1  0
 31 32  1  0
 32 33  1  0
 33 34  1  0
 34 35  2  0
 34 36  2  0
 34 37  1  0
  7  2  1  0
 13  8  1  0
 28 16  1  0
 27 19  1  0
 22 20  1  0
M  END
$$$$
