
     RDKit          3D

 37 41  0  0  0  0  0  0  0  0999 V2000
   13.5408    3.6251   -4.7820 C   0  0  0  0  0  0  0  0  0  0  0  0
   13.3125    2.3299   -5.4553 C   0  0  0  0  0  0  0  0  0  0  0  0
   14.2667    1.3366   -5.3544 C   0  0  0  0  0  0  0  0  0  0  0  0
   14.0951    0.1128   -5.9665 C   0  0  0  0  0  0  0  0  0  0  0  0
   12.9494   -0.1072   -6.6858 C   0  0  0  0  0  0  0  0  0  0  0  0
   11.9968    0.8970   -6.7812 C   0  0  0  0  0  0  0  0  0  0  0  0
   12.1575    2.1192   -6.1758 C   0  0  0  0  0  0  0  0  0  0  0  0
   11.1910    3.2058   -6.2437 C   0  0  0  0  0  0  0  0  0  0  0  0
   10.1923    3.2406   -5.2868 C   0  0  0  0  0  0  0  0  0  0  0  0
    9.2704    4.2652   -5.3405 C   0  0  0  0  0  0  0  0  0  0  0  0
    9.3331    5.2435   -6.3260 C   0  0  0  0  0  0  0  0  0  0  0  0
   10.3286    5.2187   -7.2890 C   0  0  0  0  0  0  0  0  0  0  0  0
   11.2414    4.1903   -7.2229 C   0  0  0  0  0  0  0  0  0  0  0  0
   10.3483    6.2780   -8.3084 C   0  0  0  0  0  0  0  0  0  0  0  0
    9.3519    6.1178   -9.3004 O   0  0  0  0  0  0  0  0  0  0  0  0
    9.7481    5.6539  -10.5368 C   0  0  0  0  0  0  0  0  0  0  0  0
   10.9682    5.1390  -10.7655 N   0  0  0  0  0  0  0  0  0  0  0  0
   11.3676    4.6869  -11.9549 C   0  0  0  0  0  0  0  0  0  0  0  0
   10.5096    4.7336  -13.0338 C   0  0  0  0  0  0  0  0  0  0  0  0
   10.5805    4.3965  -14.4333 C   0  0  0  0  0  0  0  0  0  0  0  0
    9.1388    3.7938  -14.5170 C   0  0  0  0  0  0  0  0  0  0  0  0
   10.2179    3.3304  -15.2734 C   0  0  0  0  0  0  0  0  0  0  0  0
   10.8386    2.0134  -14.9833 C   0  0  0  0  0  0  0  0  0  0  0  0
   11.0214    1.6319  -13.8115 O   0  0  0  0  0  0  0  0  0  0  0  0
   11.2267    1.1830  -16.0187 O   0  0  0  0  0  0  0  0  0  0  0  0
    8.5346    5.1305  -14.1738 C   0  0  0  0  0  0  0  0  0  0  0  0
    9.2237    5.2591  -12.8524 C   0  0  0  0  0  0  0  0  0  0  0  0
    8.8645    5.7114  -11.6071 C   0  0  0  0  0  0  0  0  0  0  0  0
   10.7595    0.6558   -7.5595 C   0  0  0  0  0  0  0  0  0  0  0  0
   15.0999   -0.8161   -5.8108 O   0  0  0  0  0  0  0  0  0  0  0  0
   16.3121   -0.4554   -5.2308 C   0  0  0  0  0  0  0  0  0  0  0  0
   17.3111   -1.5488   -5.0991 C   0  0  0  0  0  0  0  0  0  0  0  0
   18.0090   -1.9906   -6.3461 C   0  0  0  0  0  0  0  0  0  0  0  0
   19.2448   -3.2088   -6.1333 S   0  0  0  0  0  6  0  0  0  0  0  0
   20.5550   -2.4514   -5.8866 O   0  0  0  0  0  0  0  0  0  0  0  0
   19.0119   -4.1955   -5.0640 O   0  0  0  0  0  0  0  0  0  0  0  0
   19.4858   -4.0561   -7.6924 C   0  0  0  0  0  0  0  0  0  0  0  0
  1  2  1  0
  2  3  2  0
  3  4  1  0
  4  5  2  0
  5  6  1  0
  6  7  2  0
  7  8  1  0
  8  9  2  0
  9 10  1  0
 10 11  2  0
 11 12  1  0
 12 13  2  0
 12 14  1  0
 14 15  1  0
 15 16  1  0
 16 17  2  0
 17 18  1  0
 18 19  2  0
 19 20  1  0
 20 21  1  0
 21 22  1  0
 22 23  1  0
 23 24  2  0
 23 25  1  0
 21 26  1  0
 26 27  1  0
 27 28  2  0
  6 29  1  0
  4 30  1  0
 30 31  1  0
 31 32  1  0
 32 33  1  0
 33 34  1  0
 34 35  2  0
 34 36  2  0
 34 37  1  0
  7  2  1  0
 13  8  1  0
 28 16  1  0
 27 19  1  0
 22 20  1  0
M  END
$$$$
