
     RDKit          3D

 37 41  0  0  0  0  0  0  0  0999 V2000
    0.5225  -10.3233   13.6656 C   0  0  0  0  0  0  0  0  0  0  0  0
    1.9550  -10.4053   13.3129 C   0  0  0  0  0  0  0  0  0  0  0  0
    2.7909  -11.2136   14.0580 C   0  0  0  0  0  0  0  0  0  0  0  0
    4.1341  -11.3201   13.7645 C   0  0  0  0  0  0  0  0  0  0  0  0
    4.6349  -10.6033   12.7091 C   0  0  0  0  0  0  0  0  0  0  0  0
    3.7870   -9.7940   11.9666 C   0  0  0  0  0  0  0  0  0  0  0  0
    2.4481   -9.6806   12.2502 C   0  0  0  0  0  0  0  0  0  0  0  0
    1.5156   -8.8474   11.5047 C   0  0  0  0  0  0  0  0  0  0  0  0
    0.5753   -9.4825   10.7129 C   0  0  0  0  0  0  0  0  0  0  0  0
   -0.3139   -8.7041   10.0016 C   0  0  0  0  0  0  0  0  0  0  0  0
   -0.2759   -7.3162   10.0705 C   0  0  0  0  0  0  0  0  0  0  0  0
    0.6610   -6.6698   10.8599 C   0  0  0  0  0  0  0  0  0  0  0  0
    1.5418   -7.4595   11.5641 C   0  0  0  0  0  0  0  0  0  0  0  0
    0.6568   -5.2000   10.8964 C   0  0  0  0  0  0  0  0  0  0  0  0
    1.4483   -4.6133    9.8805 O   0  0  0  0  0  0  0  0  0  0  0  0
    1.5785   -3.2407    9.8828 C   0  0  0  0  0  0  0  0  0  0  0  0
    1.1755   -2.4720   10.9088 N   0  0  0  0  0  0  0  0  0  0  0  0
    1.2933   -1.1437   10.9267 C   0  0  0  0  0  0  0  0  0  0  0  0
    1.8543   -0.4868    9.8516 C   0  0  0  0  0  0  0  0  0  0  0  0
    2.1071    0.8850    9.4885 C   0  0  0  0  0  0  0  0  0  0  0  0
    3.5090    0.6160    8.8474 C   0  0  0  0  0  0  0  0  0  0  0  0
    3.1763    1.7959    9.5170 C   0  0  0  0  0  0  0  0  0  0  0  0
    3.7550    2.1018   10.8495 C   0  0  0  0  0  0  0  0  0  0  0  0
    4.0738    1.1909   11.6375 O   0  0  0  0  0  0  0  0  0  0  0  0
    3.9505    3.4140   11.2395 O   0  0  0  0  0  0  0  0  0  0  0  0
    2.8845   -0.2584    7.7913 C   0  0  0  0  0  0  0  0  0  0  0  0
    2.2939   -1.2388    8.7545 C   0  0  0  0  0  0  0  0  0  0  0  0
    2.1480   -2.6034    8.7878 C   0  0  0  0  0  0  0  0  0  0  0  0
    4.3316   -9.0205   10.8265 C   0  0  0  0  0  0  0  0  0  0  0  0
    4.8897  -12.1503   14.5624 O   0  0  0  0  0  0  0  0  0  0  0  0
    5.7544  -13.0810   13.9949 C   0  0  0  0  0  0  0  0  0  0  0  0
    7.0804  -12.5536   13.5771 C   0  0  0  0  0  0  0  0  0  0  0  0
    7.3605  -12.4941   12.1091 C   0  0  0  0  0  0  0  0  0  0  0  0
    8.5599  -13.6209   11.5189 S   0  0  0  0  0  6  0  0  0  0  0  0
    7.9621  -14.2636   10.2617 O   0  0  0  0  0  0  0  0  0  0  0  0
    9.8923  -13.0631   11.2275 O   0  0  0  0  0  0  0  0  0  0  0  0
    8.7126  -14.9611   12.6967 C   0  0  0  0  0  0  0  0  0  0  0  0
  1  2  1  0
  2  3  2  0
  3  4  1  0
  4  5  2  0
  5  6  1  0
  6  7  2  0
  7  8  1  0
  8  9  2  0
  9 10  1  0
 10 11  2  0
 11 12  1  0
 12 13  2  0
 12 14  1  0
 14 15  1  0
 15 16  1  0
 16 17  2  0
 17 18  1  0
 18 19  2  0
 19 20  1  0
 20 21  1  0
 21 22  1  0
 22 23  1  0
 23 24  2  0
 23 25  1  0
 21 26  1  0
 26 27  1  0
 27 28  2  0
  6 29  1  0
  4 30  1  0
 30 31  1  0
 31 32  1  0
 32 33  1  0
 33 34  1  0
 34 35  2  0
 34 36  2  0
 34 37  1  0
  7  2  1  0
 13  8  1  0
 28 16  1  0
 27 19  1  0
 22 20  1  0
M  END
$$$$
