
     RDKit          3D

 37 41  0  0  0  0  0  0  0  0999 V2000
   10.1627    0.3425   -4.6026 C   0  0  0  0  0  0  0  0  0  0  0  0
    9.1770    1.4431   -4.5935 C   0  0  0  0  0  0  0  0  0  0  0  0
    8.0438    1.3312   -3.8122 C   0  0  0  0  0  0  0  0  0  0  0  0
    7.0977    2.3338   -3.7734 C   0  0  0  0  0  0  0  0  0  0  0  0
    7.3002    3.4579   -4.5310 C   0  0  0  0  0  0  0  0  0  0  0  0
    8.4419    3.5609   -5.3127 C   0  0  0  0  0  0  0  0  0  0  0  0
    9.3902    2.5686   -5.3587 C   0  0  0  0  0  0  0  0  0  0  0  0
   10.6042    2.6255   -6.1603 C   0  0  0  0  0  0  0  0  0  0  0  0
   11.8044    2.3418   -5.5330 C   0  0  0  0  0  0  0  0  0  0  0  0
   12.9616    2.3923   -6.2818 C   0  0  0  0  0  0  0  0  0  0  0  0
   12.9353    2.7188   -7.6328 C   0  0  0  0  0  0  0  0  0  0  0  0
   11.7395    3.0047   -8.2711 C   0  0  0  0  0  0  0  0  0  0  0  0
   10.5928    2.9503   -7.5112 C   0  0  0  0  0  0  0  0  0  0  0  0
   11.7687    3.3440   -9.7013 C   0  0  0  0  0  0  0  0  0  0  0  0
   10.7996    2.6468  -10.4612 O   0  0  0  0  0  0  0  0  0  0  0  0
   10.8848    2.7260  -11.8350 C   0  0  0  0  0  0  0  0  0  0  0  0
   10.5435    1.7104  -12.6462 N   0  0  0  0  0  0  0  0  0  0  0  0
   10.6207    1.7702  -13.9763 C   0  0  0  0  0  0  0  0  0  0  0  0
   11.0707    2.9205  -14.5898 C   0  0  0  0  0  0  0  0  0  0  0  0
   11.3274    3.3443  -15.9433 C   0  0  0  0  0  0  0  0  0  0  0  0
   10.7648    4.7926  -15.7577 C   0  0  0  0  0  0  0  0  0  0  0  0
   10.6785    4.0747  -16.9529 C   0  0  0  0  0  0  0  0  0  0  0  0
    9.3761    3.5430  -17.4270 C   0  0  0  0  0  0  0  0  0  0  0  0
    8.4595    3.2766  -16.6263 O   0  0  0  0  0  0  0  0  0  0  0  0
    9.1588    3.3335  -18.7765 O   0  0  0  0  0  0  0  0  0  0  0  0
   11.8311    5.1017  -14.7393 C   0  0  0  0  0  0  0  0  0  0  0  0
   11.4386    4.0121  -13.7925 C   0  0  0  0  0  0  0  0  0  0  0  0
   11.3404    3.8965  -12.4282 C   0  0  0  0  0  0  0  0  0  0  0  0
    8.6577    4.7774   -6.1303 C   0  0  0  0  0  0  0  0  0  0  0  0
    6.0003    2.1339   -2.9656 O   0  0  0  0  0  0  0  0  0  0  0  0
    4.9219    3.0120   -3.0088 C   0  0  0  0  0  0  0  0  0  0  0  0
    3.8066    2.7048   -2.0745 C   0  0  0  0  0  0  0  0  0  0  0  0
    3.6967    3.5449   -0.8419 C   0  0  0  0  0  0  0  0  0  0  0  0
    2.1368    3.5341   -0.0525 S   0  0  0  0  0  6  0  0  0  0  0  0
    1.5028    2.1757   -0.3750 O   0  0  0  0  0  0  0  0  0  0  0  0
    2.1395    3.7680    1.4023 O   0  0  0  0  0  0  0  0  0  0  0  0
    1.0828    4.7394   -0.8543 C   0  0  0  0  0  0  0  0  0  0  0  0
  1  2  1  0
  2  3  2  0
  3  4  1  0
  4  5  2  0
  5  6  1  0
  6  7  2  0
  7  8  1  0
  8  9  2  0
  9 10  1  0
 10 11  2  0
 11 12  1  0
 12 13  2  0
 12 14  1  0
 14 15  1  0
 15 16  1  0
 16 17  2  0
 17 18  1  0
 18 19  2  0
 19 20  1  0
 20 21  1  0
 21 22  1  0
 22 23  1  0
 23 24  2  0
 23 25  1  0
 21 26  1  0
 26 27  1  0
 27 28  2  0
  6 29  1  0
  4 30  1  0
 30 31  1  0
 31 32  1  0
 32 33  1  0
 33 34  1  0
 34 35  2  0
 34 36  2  0
 34 37  1  0
  7  2  1  0
 13  8  1  0
 28 16  1  0
 27 19  1  0
 22 20  1  0
M  END
$$$$
