
     RDKit          3D

 37 41  0  0  0  0  0  0  0  0999 V2000
   11.8336    1.2541   -8.0876 C   0  0  0  0  0  0  0  0  0  0  0  0
   12.5093    1.2833   -6.7739 C   0  0  0  0  0  0  0  0  0  0  0  0
   13.4246    0.2977   -6.4609 C   0  0  0  0  0  0  0  0  0  0  0  0
   14.0786    0.2859   -5.2468 C   0  0  0  0  0  0  0  0  0  0  0  0
   13.8040    1.2790   -4.3430 C   0  0  0  0  0  0  0  0  0  0  0  0
   12.8828    2.2647   -4.6668 C   0  0  0  0  0  0  0  0  0  0  0  0
   12.2260    2.2859   -5.8728 C   0  0  0  0  0  0  0  0  0  0  0  0
   11.2518    3.2951   -6.2628 C   0  0  0  0  0  0  0  0  0  0  0  0
   10.0321    3.2996   -5.6095 C   0  0  0  0  0  0  0  0  0  0  0  0
    9.1006    4.2508   -5.9700 C   0  0  0  0  0  0  0  0  0  0  0  0
    9.3690    5.1861   -6.9628 C   0  0  0  0  0  0  0  0  0  0  0  0
   10.5865    5.1908   -7.6235 C   0  0  0  0  0  0  0  0  0  0  0  0
   11.5063    4.2358   -7.2531 C   0  0  0  0  0  0  0  0  0  0  0  0
   10.8180    6.2021   -8.6653 C   0  0  0  0  0  0  0  0  0  0  0  0
    9.9003    6.1184   -9.7393 O   0  0  0  0  0  0  0  0  0  0  0  0
   10.3503    5.5785  -10.9255 C   0  0  0  0  0  0  0  0  0  0  0  0
   11.5659    5.0211  -11.0578 N   0  0  0  0  0  0  0  0  0  0  0  0
   12.0169    4.4954  -12.1975 C   0  0  0  0  0  0  0  0  0  0  0  0
   11.2210    4.5057  -13.3239 C   0  0  0  0  0  0  0  0  0  0  0  0
   11.3589    4.0918  -14.6976 C   0  0  0  0  0  0  0  0  0  0  0  0
    9.9073    3.5224  -14.8305 C   0  0  0  0  0  0  0  0  0  0  0  0
   11.0127    2.9915  -15.4997 C   0  0  0  0  0  0  0  0  0  0  0  0
   11.5788    1.6767  -15.1064 C   0  0  0  0  0  0  0  0  0  0  0  0
   12.0243    1.4848  -13.9589 O   0  0  0  0  0  0  0  0  0  0  0  0
   11.6205    0.6360  -16.0161 O   0  0  0  0  0  0  0  0  0  0  0  0
    9.3235    4.8907  -14.5924 C   0  0  0  0  0  0  0  0  0  0  0  0
    9.9426    5.0728  -13.2429 C   0  0  0  0  0  0  0  0  0  0  0  0
    9.5286    5.6006  -12.0453 C   0  0  0  0  0  0  0  0  0  0  0  0
   12.5883    3.3367   -3.6875 C   0  0  0  0  0  0  0  0  0  0  0  0
   14.9741   -0.7362   -5.0232 O   0  0  0  0  0  0  0  0  0  0  0  0
   15.6904   -0.8001   -3.8321 C   0  0  0  0  0  0  0  0  0  0  0  0
   16.5770   -1.9840   -3.6793 C   0  0  0  0  0  0  0  0  0  0  0  0
   16.0650   -3.1187   -2.8501 C   0  0  0  0  0  0  0  0  0  0  0  0
   17.2726   -4.0064   -1.9500 S   0  0  0  0  0  6  0  0  0  0  0  0
   17.9482   -4.9486   -2.9534 O   0  0  0  0  0  0  0  0  0  0  0  0
   18.2822   -3.2004   -1.2412 O   0  0  0  0  0  0  0  0  0  0  0  0
   16.4401   -5.0858   -0.7887 C   0  0  0  0  0  0  0  0  0  0  0  0
  1  2  1  0
  2  3  2  0
  3  4  1  0
  4  5  2  0
  5  6  1  0
  6  7  2  0
  7  8  1  0
  8  9  2  0
  9 10  1  0
 10 11  2  0
 11 12  1  0
 12 13  2  0
 12 14  1  0
 14 15  1  0
 15 16  1  0
 16 17  2  0
 17 18  1  0
 18 19  2  0
 19 20  1  0
 20 21  1  0
 21 22  1  0
 22 23  1  0
 23 24  2  0
 23 25  1  0
 21 26  1  0
 26 27  1  0
 27 28  2  0
  6 29  1  0
  4 30  1  0
 30 31  1  0
 31 32  1  0
 32 33  1  0
 33 34  1  0
 34 35  2  0
 34 36  2  0
 34 37  1  0
  7  2  1  0
 13  8  1  0
 28 16  1  0
 27 19  1  0
 22 20  1  0
M  END
$$$$
