
     RDKit          3D

 37 41  0  0  0  0  0  0  0  0999 V2000
    9.2432  -13.8941    9.6184 C   0  0  0  0  0  0  0  0  0  0  0  0
    8.0127  -14.5822    9.1765 C   0  0  0  0  0  0  0  0  0  0  0  0
    7.7817  -15.8827    9.5799 C   0  0  0  0  0  0  0  0  0  0  0  0
    6.6468  -16.5630    9.1913 C   0  0  0  0  0  0  0  0  0  0  0  0
    5.7392  -15.9224    8.3886 C   0  0  0  0  0  0  0  0  0  0  0  0
    5.9803  -14.6159    7.9886 C   0  0  0  0  0  0  0  0  0  0  0  0
    7.1070  -13.9292    8.3697 C   0  0  0  0  0  0  0  0  0  0  0  0
    7.4086  -12.5595    7.9793 C   0  0  0  0  0  0  0  0  0  0  0  0
    8.2441  -12.3683    6.8931 C   0  0  0  0  0  0  0  0  0  0  0  0
    8.5375  -11.0752    6.5133 C   0  0  0  0  0  0  0  0  0  0  0  0
    8.0132   -9.9841    7.1966 C   0  0  0  0  0  0  0  0  0  0  0  0
    7.1757  -10.1636    8.2854 C   0  0  0  0  0  0  0  0  0  0  0  0
    6.8918  -11.4596    8.6529 C   0  0  0  0  0  0  0  0  0  0  0  0
    6.6491   -8.9749    8.9718 C   0  0  0  0  0  0  0  0  0  0  0  0
    5.4486   -8.4869    8.4031 O   0  0  0  0  0  0  0  0  0  0  0  0
    4.8279   -7.4272    9.0297 C   0  0  0  0  0  0  0  0  0  0  0  0
    5.1912   -6.9849   10.2456 N   0  0  0  0  0  0  0  0  0  0  0  0
    4.6010   -5.9624   10.8658 C   0  0  0  0  0  0  0  0  0  0  0  0
    3.5569   -5.2971   10.2580 C   0  0  0  0  0  0  0  0  0  0  0  0
    2.6694   -4.2164   10.6072 C   0  0  0  0  0  0  0  0  0  0  0  0
    2.6728   -3.5538    9.1895 C   0  0  0  0  0  0  0  0  0  0  0  0
    2.5635   -2.8337   10.3815 C   0  0  0  0  0  0  0  0  0  0  0  0
    3.6865   -1.9921   10.8659 C   0  0  0  0  0  0  0  0  0  0  0  0
    4.8552   -2.4236   10.8791 O   0  0  0  0  0  0  0  0  0  0  0  0
    3.4500   -0.7053   11.3136 O   0  0  0  0  0  0  0  0  0  0  0  0
    2.0389   -4.7813    8.5884 C   0  0  0  0  0  0  0  0  0  0  0  0
    3.1374   -5.7146    8.9883 C   0  0  0  0  0  0  0  0  0  0  0  0
    3.7792   -6.7733    8.3954 C   0  0  0  0  0  0  0  0  0  0  0  0
    4.9972  -13.9264    7.1210 C   0  0  0  0  0  0  0  0  0  0  0  0
    6.5017  -17.8561    9.6424 O   0  0  0  0  0  0  0  0  0  0  0  0
    7.4335  -18.4086   10.5156 C   0  0  0  0  0  0  0  0  0  0  0  0
    7.1212  -19.7775   11.0052 C   0  0  0  0  0  0  0  0  0  0  0  0
    6.5701  -20.7496   10.0110 C   0  0  0  0  0  0  0  0  0  0  0  0
    7.3287  -22.3246    9.9886 S   0  0  0  0  0  6  0  0  0  0  0  0
    8.8411  -22.0717    9.9877 O   0  0  0  0  0  0  0  0  0  0  0  0
    6.9613  -23.2420   11.0816 O   0  0  0  0  0  0  0  0  0  0  0  0
    6.9876  -23.1002    8.4111 C   0  0  0  0  0  0  0  0  0  0  0  0
  1  2  1  0
  2  3  2  0
  3  4  1  0
  4  5  2  0
  5  6  1  0
  6  7  2  0
  7  8  1  0
  8  9  2  0
  9 10  1  0
 10 11  2  0
 11 12  1  0
 12 13  2  0
 12 14  1  0
 14 15  1  0
 15 16  1  0
 16 17  2  0
 17 18  1  0
 18 19  2  0
 19 20  1  0
 20 21  1  0
 21 22  1  0
 22 23  1  0
 23 24  2  0
 23 25  1  0
 21 26  1  0
 26 27  1  0
 27 28  2  0
  6 29  1  0
  4 30  1  0
 30 31  1  0
 31 32  1  0
 32 33  1  0
 33 34  1  0
 34 35  2  0
 34 36  2  0
 34 37  1  0
  7  2  1  0
 13  8  1  0
 28 16  1  0
 27 19  1  0
 22 20  1  0
M  END
$$$$
