
     RDKit          3D

 37 41  0  0  0  0  0  0  0  0999 V2000
    8.2194  -15.0254    9.3550 C   0  0  0  0  0  0  0  0  0  0  0  0
    7.1255  -15.9017    8.8875 C   0  0  0  0  0  0  0  0  0  0  0  0
    6.8311  -17.0523    9.5923 C   0  0  0  0  0  0  0  0  0  0  0  0
    5.8188  -17.8990    9.1921 C   0  0  0  0  0  0  0  0  0  0  0  0
    5.0993  -17.5788    8.0704 C   0  0  0  0  0  0  0  0  0  0  0  0
    5.4027  -16.4206    7.3692 C   0  0  0  0  0  0  0  0  0  0  0  0
    6.4086  -15.5706    7.7588 C   0  0  0  0  0  0  0  0  0  0  0  0
    6.7680  -14.3447    7.0607 C   0  0  0  0  0  0  0  0  0  0  0  0
    6.0528  -13.1989    7.3610 C   0  0  0  0  0  0  0  0  0  0  0  0
    6.3838  -12.0309    6.7062 C   0  0  0  0  0  0  0  0  0  0  0  0
    7.4078  -11.9937    5.7667 C   0  0  0  0  0  0  0  0  0  0  0  0
    8.1304  -13.1346    5.4583 C   0  0  0  0  0  0  0  0  0  0  0  0
    7.7888  -14.2927    6.1196 C   0  0  0  0  0  0  0  0  0  0  0  0
    9.2029  -13.0392    4.4572 C   0  0  0  0  0  0  0  0  0  0  0  0
   10.2988  -12.2527    4.8851 O   0  0  0  0  0  0  0  0  0  0  0  0
   11.2979  -12.8807    5.5980 C   0  0  0  0  0  0  0  0  0  0  0  0
   11.2595  -14.1872    5.9105 N   0  0  0  0  0  0  0  0  0  0  0  0
   12.2166  -14.8097    6.5998 C   0  0  0  0  0  0  0  0  0  0  0  0
   13.3220  -14.1077    7.0329 C   0  0  0  0  0  0  0  0  0  0  0  0
   14.5005  -14.4006    7.8093 C   0  0  0  0  0  0  0  0  0  0  0  0
   15.4749  -13.5444    6.9340 C   0  0  0  0  0  0  0  0  0  0  0  0
   15.8495  -14.7225    7.5844 C   0  0  0  0  0  0  0  0  0  0  0  0
   16.1184  -15.9627    6.8139 C   0  0  0  0  0  0  0  0  0  0  0  0
   15.4763  -16.2305    5.7804 O   0  0  0  0  0  0  0  0  0  0  0  0
   17.0943  -16.8470    7.2357 O   0  0  0  0  0  0  0  0  0  0  0  0
   14.7268  -12.2861    7.2900 C   0  0  0  0  0  0  0  0  0  0  0  0
   13.4154  -12.7423    6.7337 C   0  0  0  0  0  0  0  0  0  0  0  0
   12.4013  -12.1511    6.0219 C   0  0  0  0  0  0  0  0  0  0  0  0
    4.6230  -16.0775    6.1571 C   0  0  0  0  0  0  0  0  0  0  0  0
    5.5976  -19.0227    9.9572 O   0  0  0  0  0  0  0  0  0  0  0  0
    6.4396  -19.3299   11.0213 C   0  0  0  0  0  0  0  0  0  0  0  0
    6.1877  -20.6381   11.6819 C   0  0  0  0  0  0  0  0  0  0  0  0
    5.1260  -20.6788   12.7346 C   0  0  0  0  0  0  0  0  0  0  0  0
    5.4100  -21.7871   14.0566 S   0  0  0  0  0  6  0  0  0  0  0  0
    6.9247  -22.0208   14.1018 O   0  0  0  0  0  0  0  0  0  0  0  0
    4.9148  -21.3665   15.3791 O   0  0  0  0  0  0  0  0  0  0  0  0
    4.7082  -23.3780   13.6287 C   0  0  0  0  0  0  0  0  0  0  0  0
  1  2  1  0
  2  3  2  0
  3  4  1  0
  4  5  2  0
  5  6  1  0
  6  7  2  0
  7  8  1  0
  8  9  2  0
  9 10  1  0
 10 11  2  0
 11 12  1  0
 12 13  2  0
 12 14  1  0
 14 15  1  0
 15 16  1  0
 16 17  2  0
 17 18  1  0
 18 19  2  0
 19 20  1  0
 20 21  1  0
 21 22  1  0
 22 23  1  0
 23 24  2  0
 23 25  1  0
 21 26  1  0
 26 27  1  0
 27 28  2  0
  6 29  1  0
  4 30  1  0
 30 31  1  0
 31 32  1  0
 32 33  1  0
 33 34  1  0
 34 35  2  0
 34 36  2  0
 34 37  1  0
  7  2  1  0
 13  8  1  0
 28 16  1  0
 27 19  1  0
 22 20  1  0
M  END
$$$$
