
     RDKit          3D

 37 41  0  0  0  0  0  0  0  0999 V2000
    1.6747   -5.2629   12.6186 C   0  0  0  0  0  0  0  0  0  0  0  0
    1.2057   -6.6210   12.2741 C   0  0  0  0  0  0  0  0  0  0  0  0
    2.0847   -7.6829   12.3582 C   0  0  0  0  0  0  0  0  0  0  0  0
    1.6898   -8.9669   12.0463 C   0  0  0  0  0  0  0  0  0  0  0  0
    0.3960   -9.1775   11.6463 C   0  0  0  0  0  0  0  0  0  0  0  0
   -0.4795   -8.1042   11.5649 C   0  0  0  0  0  0  0  0  0  0  0  0
   -0.0968   -6.8217   11.8731 C   0  0  0  0  0  0  0  0  0  0  0  0
   -0.9735   -5.6614   11.8049 C   0  0  0  0  0  0  0  0  0  0  0  0
   -1.9498   -5.5335   12.7770 C   0  0  0  0  0  0  0  0  0  0  0  0
   -2.7867   -4.4384   12.7233 C   0  0  0  0  0  0  0  0  0  0  0  0
   -2.6621   -3.4813   11.7230 C   0  0  0  0  0  0  0  0  0  0  0  0
   -1.6884   -3.5991   10.7447 C   0  0  0  0  0  0  0  0  0  0  0  0
   -0.8605   -4.6970   10.8111 C   0  0  0  0  0  0  0  0  0  0  0  0
   -1.6006   -2.5582    9.7101 C   0  0  0  0  0  0  0  0  0  0  0  0
   -1.3113   -1.2748   10.2314 O   0  0  0  0  0  0  0  0  0  0  0  0
   -0.0016   -0.8460   10.1871 C   0  0  0  0  0  0  0  0  0  0  0  0
    0.9863   -1.5761    9.6422 N   0  0  0  0  0  0  0  0  0  0  0  0
    2.2578   -1.1768    9.5919 C   0  0  0  0  0  0  0  0  0  0  0  0
    2.6175    0.0465   10.1177 C   0  0  0  0  0  0  0  0  0  0  0  0
    3.8438    0.7845   10.2876 C   0  0  0  0  0  0  0  0  0  0  0  0
    3.2314    2.1798    9.9313 C   0  0  0  0  0  0  0  0  0  0  0  0
    4.5464    1.8123    9.6365 C   0  0  0  0  0  0  0  0  0  0  0  0
    4.9657    1.5490    8.2369 C   0  0  0  0  0  0  0  0  0  0  0  0
    4.2270    0.9270    7.4497 O   0  0  0  0  0  0  0  0  0  0  0  0
    6.1934    1.9942    7.7820 O   0  0  0  0  0  0  0  0  0  0  0  0
    2.3147    2.1085   11.1248 C   0  0  0  0  0  0  0  0  0  0  0  0
    1.6274    0.8507   10.6969 C   0  0  0  0  0  0  0  0  0  0  0  0
    0.3343    0.3908   10.7229 C   0  0  0  0  0  0  0  0  0  0  0  0
   -1.8774   -8.3354   11.1321 C   0  0  0  0  0  0  0  0  0  0  0  0
    2.6351   -9.9620   12.1597 O   0  0  0  0  0  0  0  0  0  0  0  0
    2.2542  -11.3001   12.1742 C   0  0  0  0  0  0  0  0  0  0  0  0
    3.3644  -12.2820   12.2933 C   0  0  0  0  0  0  0  0  0  0  0  0
    3.5121  -12.9911   13.6020 C   0  0  0  0  0  0  0  0  0  0  0  0
    4.8111  -14.1579   13.6907 S   0  0  0  0  0  6  0  0  0  0  0  0
    5.3370  -14.1049   15.1301 O   0  0  0  0  0  0  0  0  0  0  0  0
    4.4718  -15.5425   13.3178 O   0  0  0  0  0  0  0  0  0  0  0  0
    6.1699  -13.5775   12.6791 C   0  0  0  0  0  0  0  0  0  0  0  0
  1  2  1  0
  2  3  2  0
  3  4  1  0
  4  5  2  0
  5  6  1  0
  6  7  2  0
  7  8  1  0
  8  9  2  0
  9 10  1  0
 10 11  2  0
 11 12  1  0
 12 13  2  0
 12 14  1  0
 14 15  1  0
 15 16  1  0
 16 17  2  0
 17 18  1  0
 18 19  2  0
 19 20  1  0
 20 21  1  0
 21 22  1  0
 22 23  1  0
 23 24  2  0
 23 25  1  0
 21 26  1  0
 26 27  1  0
 27 28  2  0
  6 29  1  0
  4 30  1  0
 30 31  1  0
 31 32  1  0
 32 33  1  0
 33 34  1  0
 34 35  2  0
 34 36  2  0
 34 37  1  0
  7  2  1  0
 13  8  1  0
 28 16  1  0
 27 19  1  0
 22 20  1  0
M  END
$$$$
