
     RDKit          3D

 37 41  0  0  0  0  0  0  0  0999 V2000
    8.1374  -11.6398   10.9487 C   0  0  0  0  0  0  0  0  0  0  0  0
    7.2193  -12.3186   10.0110 C   0  0  0  0  0  0  0  0  0  0  0  0
    7.7122  -13.2950    9.1678 C   0  0  0  0  0  0  0  0  0  0  0  0
    6.8914  -13.9541    8.2769 C   0  0  0  0  0  0  0  0  0  0  0  0
    5.5621  -13.6225    8.2392 C   0  0  0  0  0  0  0  0  0  0  0  0
    5.0765  -12.6402    9.0904 C   0  0  0  0  0  0  0  0  0  0  0  0
    5.8849  -11.9777    9.9812 C   0  0  0  0  0  0  0  0  0  0  0  0
    5.4278  -10.9408   10.8952 C   0  0  0  0  0  0  0  0  0  0  0  0
    5.4678  -11.2138   12.2511 C   0  0  0  0  0  0  0  0  0  0  0  0
    5.0373  -10.2394   13.1273 C   0  0  0  0  0  0  0  0  0  0  0  0
    4.5730   -9.0109   12.6716 C   0  0  0  0  0  0  0  0  0  0  0  0
    4.5286   -8.7268   11.3165 C   0  0  0  0  0  0  0  0  0  0  0  0
    4.9613   -9.7087   10.4540 C   0  0  0  0  0  0  0  0  0  0  0  0
    4.0286   -7.4119   10.8892 C   0  0  0  0  0  0  0  0  0  0  0  0
    4.9784   -6.6652   10.1522 O   0  0  0  0  0  0  0  0  0  0  0  0
    4.6685   -5.3563    9.8494 C   0  0  0  0  0  0  0  0  0  0  0  0
    3.6502   -4.6961   10.4267 N   0  0  0  0  0  0  0  0  0  0  0  0
    3.3365   -3.4309   10.1447 C   0  0  0  0  0  0  0  0  0  0  0  0
    4.0743   -2.7284    9.2149 C   0  0  0  0  0  0  0  0  0  0  0  0
    4.0257   -1.4125    8.6290 C   0  0  0  0  0  0  0  0  0  0  0  0
    5.5746   -1.1893    8.6294 C   0  0  0  0  0  0  0  0  0  0  0  0
    4.6435   -0.1633    8.8072 C   0  0  0  0  0  0  0  0  0  0  0  0
    4.4691    0.4827   10.1324 C   0  0  0  0  0  0  0  0  0  0  0  0
    4.5090   -0.1842   11.1840 O   0  0  0  0  0  0  0  0  0  0  0  0
    4.2577    1.8465   10.2202 O   0  0  0  0  0  0  0  0  0  0  0  0
    5.7650   -2.3445    7.6813 C   0  0  0  0  0  0  0  0  0  0  0  0
    5.1491   -3.3670    8.5829 C   0  0  0  0  0  0  0  0  0  0  0  0
    5.4280   -4.6707    8.9099 C   0  0  0  0  0  0  0  0  0  0  0  0
    3.6391  -12.2843    9.0470 C   0  0  0  0  0  0  0  0  0  0  0  0
    7.4716  -14.9126    7.4760 O   0  0  0  0  0  0  0  0  0  0  0  0
    6.7064  -15.6218    6.5554 C   0  0  0  0  0  0  0  0  0  0  0  0
    7.4433  -16.6332    5.7523 C   0  0  0  0  0  0  0  0  0  0  0  0
    7.7345  -16.2926    4.3253 C   0  0  0  0  0  0  0  0  0  0  0  0
    8.6169  -17.5011    3.4212 S   0  0  0  0  0  6  0  0  0  0  0  0
   10.0896  -17.3421    3.8175 O   0  0  0  0  0  0  0  0  0  0  0  0
    8.1835  -18.8978    3.6025 O   0  0  0  0  0  0  0  0  0  0  0  0
    8.5555  -17.0722    1.6838 C   0  0  0  0  0  0  0  0  0  0  0  0
  1  2  1  0
  2  3  2  0
  3  4  1  0
  4  5  2  0
  5  6  1  0
  6  7  2  0
  7  8  1  0
  8  9  2  0
  9 10  1  0
 10 11  2  0
 11 12  1  0
 12 13  2  0
 12 14  1  0
 14 15  1  0
 15 16  1  0
 16 17  2  0
 17 18  1  0
 18 19  2  0
 19 20  1  0
 20 21  1  0
 21 22  1  0
 22 23  1  0
 23 24  2  0
 23 25  1  0
 21 26  1  0
 26 27  1  0
 27 28  2  0
  6 29  1  0
  4 30  1  0
 30 31  1  0
 31 32  1  0
 32 33  1  0
 33 34  1  0
 34 35  2  0
 34 36  2  0
 34 37  1  0
  7  2  1  0
 13  8  1  0
 28 16  1  0
 27 19  1  0
 22 20  1  0
M  END
$$$$
