
     RDKit          3D

 37 41  0  0  0  0  0  0  0  0999 V2000
    7.4894  -11.2453    6.6309 C   0  0  0  0  0  0  0  0  0  0  0  0
    7.6356  -12.0369    7.8700 C   0  0  0  0  0  0  0  0  0  0  0  0
    8.7534  -12.8302    8.0390 C   0  0  0  0  0  0  0  0  0  0  0  0
    8.9308  -13.5853    9.1793 C   0  0  0  0  0  0  0  0  0  0  0  0
    7.9699  -13.5371   10.1554 C   0  0  0  0  0  0  0  0  0  0  0  0
    6.8506  -12.7371    9.9761 C   0  0  0  0  0  0  0  0  0  0  0  0
    6.6639  -11.9812    8.8448 C   0  0  0  0  0  0  0  0  0  0  0  0
    5.5101  -11.1261    8.6063 C   0  0  0  0  0  0  0  0  0  0  0  0
    4.2930  -11.7387    8.3655 C   0  0  0  0  0  0  0  0  0  0  0  0
    3.1921  -10.9394    8.1381 C   0  0  0  0  0  0  0  0  0  0  0  0
    3.2907   -9.5528    8.1480 C   0  0  0  0  0  0  0  0  0  0  0  0
    4.5040   -8.9288    8.3879 C   0  0  0  0  0  0  0  0  0  0  0  0
    5.5938   -9.7392    8.6132 C   0  0  0  0  0  0  0  0  0  0  0  0
    4.5520   -7.4594    8.3870 C   0  0  0  0  0  0  0  0  0  0  0  0
    4.9527   -6.9123    9.6291 O   0  0  0  0  0  0  0  0  0  0  0  0
    4.9287   -5.5403    9.7621 C   0  0  0  0  0  0  0  0  0  0  0  0
    3.9560   -4.7742    9.2394 N   0  0  0  0  0  0  0  0  0  0  0  0
    3.9181   -3.4464    9.3580 C   0  0  0  0  0  0  0  0  0  0  0  0
    4.9141   -2.7871   10.0477 C   0  0  0  0  0  0  0  0  0  0  0  0
    5.2377   -1.4148   10.3468 C   0  0  0  0  0  0  0  0  0  0  0  0
    5.7045   -1.6861   11.8156 C   0  0  0  0  0  0  0  0  0  0  0  0
    5.0752   -0.5077   11.4073 C   0  0  0  0  0  0  0  0  0  0  0  0
    3.6809   -0.2091   11.8202 C   0  0  0  0  0  0  0  0  0  0  0  0
    2.8966   -1.1207   12.1459 O   0  0  0  0  0  0  0  0  0  0  0  0
    3.2276    1.0971   11.8497 O   0  0  0  0  0  0  0  0  0  0  0  0
    6.8325   -2.5542   11.3218 C   0  0  0  0  0  0  0  0  0  0  0  0
    5.9527   -3.5364   10.6155 C   0  0  0  0  0  0  0  0  0  0  0  0
    5.9433   -4.9005   10.4625 C   0  0  0  0  0  0  0  0  0  0  0  0
    5.8139  -12.6873   11.0333 C   0  0  0  0  0  0  0  0  0  0  0  0
   10.0762  -14.3458    9.2596 O   0  0  0  0  0  0  0  0  0  0  0  0
   10.3528  -15.0880   10.4034 C   0  0  0  0  0  0  0  0  0  0  0  0
   11.5634  -15.9485   10.3329 C   0  0  0  0  0  0  0  0  0  0  0  0
   12.5598  -15.6395    9.2611 C   0  0  0  0  0  0  0  0  0  0  0  0
   14.0906  -16.4752    9.3840 S   0  0  0  0  0  6  0  0  0  0  0  0
   13.7685  -17.9724    9.3094 O   0  0  0  0  0  0  0  0  0  0  0  0
   15.1116  -16.1182    8.3833 O   0  0  0  0  0  0  0  0  0  0  0  0
   14.7476  -16.2240   11.0308 C   0  0  0  0  0  0  0  0  0  0  0  0
  1  2  1  0
  2  3  2  0
  3  4  1  0
  4  5  2  0
  5  6  1  0
  6  7  2  0
  7  8  1  0
  8  9  2  0
  9 10  1  0
 10 11  2  0
 11 12  1  0
 12 13  2  0
 12 14  1  0
 14 15  1  0
 15 16  1  0
 16 17  2  0
 17 18  1  0
 18 19  2  0
 19 20  1  0
 20 21  1  0
 21 22  1  0
 22 23  1  0
 23 24  2  0
 23 25  1  0
 21 26  1  0
 26 27  1  0
 27 28  2  0
  6 29  1  0
  4 30  1  0
 30 31  1  0
 31 32  1  0
 32 33  1  0
 33 34  1  0
 34 35  2  0
 34 36  2  0
 34 37  1  0
  7  2  1  0
 13  8  1  0
 28 16  1  0
 27 19  1  0
 22 20  1  0
M  END
$$$$
