
     RDKit          3D

 37 41  0  0  0  0  0  0  0  0999 V2000
   11.1769    5.0308   -5.8802 C   0  0  0  0  0  0  0  0  0  0  0  0
   12.1486    4.2356   -5.1014 C   0  0  0  0  0  0  0  0  0  0  0  0
   12.6865    4.7664   -3.9455 C   0  0  0  0  0  0  0  0  0  0  0  0
   13.5966    4.0595   -3.1878 C   0  0  0  0  0  0  0  0  0  0  0  0
   13.9648    2.8064   -3.6032 C   0  0  0  0  0  0  0  0  0  0  0  0
   13.4188    2.2820   -4.7660 C   0  0  0  0  0  0  0  0  0  0  0  0
   12.5120    2.9771   -5.5278 C   0  0  0  0  0  0  0  0  0  0  0  0
   11.9093    2.4747   -6.7542 C   0  0  0  0  0  0  0  0  0  0  0  0
   10.6757    1.8551   -6.6589 C   0  0  0  0  0  0  0  0  0  0  0  0
   10.0943    1.3748   -7.8138 C   0  0  0  0  0  0  0  0  0  0  0  0
   10.7219    1.5041   -9.0474 C   0  0  0  0  0  0  0  0  0  0  0  0
   11.9568    2.1225   -9.1545 C   0  0  0  0  0  0  0  0  0  0  0  0
   12.5249    2.5969   -7.9937 C   0  0  0  0  0  0  0  0  0  0  0  0
   12.5759    2.2324  -10.4835 C   0  0  0  0  0  0  0  0  0  0  0  0
   11.9442    1.4295  -11.4627 O   0  0  0  0  0  0  0  0  0  0  0  0
   11.2175    2.0695  -12.4441 C   0  0  0  0  0  0  0  0  0  0  0  0
   11.1978    3.4062  -12.5817 N   0  0  0  0  0  0  0  0  0  0  0  0
   10.5000    4.0411  -13.5244 C   0  0  0  0  0  0  0  0  0  0  0  0
    9.7449    3.3205  -14.4260 C   0  0  0  0  0  0  0  0  0  0  0  0
    8.8558    3.6290  -15.5176 C   0  0  0  0  0  0  0  0  0  0  0  0
    9.3500    2.4711  -16.4471 C   0  0  0  0  0  0  0  0  0  0  0  0
    8.9069    3.7088  -16.9194 C   0  0  0  0  0  0  0  0  0  0  0  0
    9.8624    4.6878  -17.4961 C   0  0  0  0  0  0  0  0  0  0  0  0
   10.5269    5.4465  -16.7645 O   0  0  0  0  0  0  0  0  0  0  0  0
   10.0307    4.7730  -18.8660 O   0  0  0  0  0  0  0  0  0  0  0  0
    8.8722    1.4408  -15.4571 C   0  0  0  0  0  0  0  0  0  0  0  0
    9.7299    1.9229  -14.3304 C   0  0  0  0  0  0  0  0  0  0  0  0
   10.4658    1.3206  -13.3404 C   0  0  0  0  0  0  0  0  0  0  0  0
   13.8191    0.9271   -5.2121 C   0  0  0  0  0  0  0  0  0  0  0  0
   14.0790    4.6694   -2.0511 O   0  0  0  0  0  0  0  0  0  0  0  0
   15.3601    4.3875   -1.5874 C   0  0  0  0  0  0  0  0  0  0  0  0
   15.5920    4.6510   -0.1425 C   0  0  0  0  0  0  0  0  0  0  0  0
   15.6079    6.0804    0.2975 C   0  0  0  0  0  0  0  0  0  0  0  0
   16.7506    6.4730    1.5611 S   0  0  0  0  0  6  0  0  0  0  0  0
   16.3486    5.6322    2.7787 O   0  0  0  0  0  0  0  0  0  0  0  0
   18.1742    6.2671    1.2412 O   0  0  0  0  0  0  0  0  0  0  0  0
   16.4857    8.1714    2.0629 C   0  0  0  0  0  0  0  0  0  0  0  0
  1  2  1  0
  2  3  2  0
  3  4  1  0
  4  5  2  0
  5  6  1  0
  6  7  2  0
  7  8  1  0
  8  9  2  0
  9 10  1  0
 10 11  2  0
 11 12  1  0
 12 13  2  0
 12 14  1  0
 14 15  1  0
 15 16  1  0
 16 17  2  0
 17 18  1  0
 18 19  2  0
 19 20  1  0
 20 21  1  0
 21 22  1  0
 22 23  1  0
 23 24  2  0
 23 25  1  0
 21 26  1  0
 26 27  1  0
 27 28  2  0
  6 29  1  0
  4 30  1  0
 30 31  1  0
 31 32  1  0
 32 33  1  0
 33 34  1  0
 34 35  2  0
 34 36  2  0
 34 37  1  0
  7  2  1  0
 13  8  1  0
 28 16  1  0
 27 19  1  0
 22 20  1  0
M  END
$$$$
