
     RDKit          3D

 37 41  0  0  0  0  0  0  0  0999 V2000
   10.2841    1.7729   -4.6906 C   0  0  0  0  0  0  0  0  0  0  0  0
    9.1171    2.6632   -4.8596 C   0  0  0  0  0  0  0  0  0  0  0  0
    8.0095    2.4887   -4.0534 C   0  0  0  0  0  0  0  0  0  0  0  0
    6.8986    3.2965   -4.1765 C   0  0  0  0  0  0  0  0  0  0  0  0
    6.9089    4.2881   -5.1226 C   0  0  0  0  0  0  0  0  0  0  0  0
    8.0264    4.4554   -5.9278 C   0  0  0  0  0  0  0  0  0  0  0  0
    9.1378    3.6568   -5.8136 C   0  0  0  0  0  0  0  0  0  0  0  0
   10.3350    3.7889   -6.6314 C   0  0  0  0  0  0  0  0  0  0  0  0
   11.4211    4.4469   -6.0821 C   0  0  0  0  0  0  0  0  0  0  0  0
   12.5613    4.5786   -6.8470 C   0  0  0  0  0  0  0  0  0  0  0  0
   12.6293    4.0674   -8.1379 C   0  0  0  0  0  0  0  0  0  0  0  0
   11.5481    3.4069   -8.6979 C   0  0  0  0  0  0  0  0  0  0  0  0
   10.4170    3.2831   -7.9229 C   0  0  0  0  0  0  0  0  0  0  0  0
   11.6738    2.8860  -10.0670 C   0  0  0  0  0  0  0  0  0  0  0  0
   10.9346    3.6290  -11.0180 O   0  0  0  0  0  0  0  0  0  0  0  0
   11.2076    3.4127  -12.3520 C   0  0  0  0  0  0  0  0  0  0  0  0
   11.9370    2.3712  -12.7872 N   0  0  0  0  0  0  0  0  0  0  0  0
   12.2109    2.1479  -14.0731 C   0  0  0  0  0  0  0  0  0  0  0  0
   11.7371    3.0111  -15.0389 C   0  0  0  0  0  0  0  0  0  0  0  0
   11.8491    3.1309  -16.4709 C   0  0  0  0  0  0  0  0  0  0  0  0
   10.3621    3.5594  -16.7036 C   0  0  0  0  0  0  0  0  0  0  0  0
   11.1001    2.7963  -17.6116 C   0  0  0  0  0  0  0  0  0  0  0  0
   10.8010    1.3563  -17.8127 C   0  0  0  0  0  0  0  0  0  0  0  0
   10.6667    0.5851  -16.8435 O   0  0  0  0  0  0  0  0  0  0  0  0
   10.6656    0.8447  -19.0903 O   0  0  0  0  0  0  0  0  0  0  0  0
   10.5743    4.8171  -15.9017 C   0  0  0  0  0  0  0  0  0  0  0  0
   10.9691    4.1134  -14.6421 C   0  0  0  0  0  0  0  0  0  0  0  0
   10.7177    4.2965  -13.3050 C   0  0  0  0  0  0  0  0  0  0  0  0
    8.0342    5.5282   -6.9494 C   0  0  0  0  0  0  0  0  0  0  0  0
    5.8416    3.0480   -3.3294 O   0  0  0  0  0  0  0  0  0  0  0  0
    4.7055    3.8505   -3.3627 C   0  0  0  0  0  0  0  0  0  0  0  0
    3.6748    3.5466   -2.3349 C   0  0  0  0  0  0  0  0  0  0  0  0
    3.3963    2.1046   -2.0520 C   0  0  0  0  0  0  0  0  0  0  0  0
    2.2387    1.7904   -0.7801 S   0  0  0  0  0  6  0  0  0  0  0  0
    0.9581    2.5370   -1.1722 O   0  0  0  0  0  0  0  0  0  0  0  0
    1.9432    0.3740   -0.5012 O   0  0  0  0  0  0  0  0  0  0  0  0
    2.8034    2.5939    0.7173 C   0  0  0  0  0  0  0  0  0  0  0  0
  1  2  1  0
  2  3  2  0
  3  4  1  0
  4  5  2  0
  5  6  1  0
  6  7  2  0
  7  8  1  0
  8  9  2  0
  9 10  1  0
 10 11  2  0
 11 12  1  0
 12 13  2  0
 12 14  1  0
 14 15  1  0
 15 16  1  0
 16 17  2  0
 17 18  1  0
 18 19  2  0
 19 20  1  0
 20 21  1  0
 21 22  1  0
 22 23  1  0
 23 24  2  0
 23 25  1  0
 21 26  1  0
 26 27  1  0
 27 28  2  0
  6 29  1  0
  4 30  1  0
 30 31  1  0
 31 32  1  0
 32 33  1  0
 33 34  1  0
 34 35  2  0
 34 36  2  0
 34 37  1  0
  7  2  1  0
 13  8  1  0
 28 16  1  0
 27 19  1  0
 22 20  1  0
M  END
$$$$
