
     RDKit          3D

 37 41  0  0  0  0  0  0  0  0999 V2000
    3.8242   -8.0561    9.7535 C   0  0  0  0  0  0  0  0  0  0  0  0
    4.2804   -6.9745    8.8562 C   0  0  0  0  0  0  0  0  0  0  0  0
    3.8201   -5.6880    9.0575 C   0  0  0  0  0  0  0  0  0  0  0  0
    4.2195   -4.6483    8.2443 C   0  0  0  0  0  0  0  0  0  0  0  0
    5.0910   -4.9125    7.2201 C   0  0  0  0  0  0  0  0  0  0  0  0
    5.5477   -6.2083    7.0261 C   0  0  0  0  0  0  0  0  0  0  0  0
    5.1565   -7.2509    7.8298 C   0  0  0  0  0  0  0  0  0  0  0  0
    5.6045   -8.6270    7.6706 C   0  0  0  0  0  0  0  0  0  0  0  0
    5.3007   -9.2702    6.4838 C   0  0  0  0  0  0  0  0  0  0  0  0
    5.7196  -10.5742    6.3209 C   0  0  0  0  0  0  0  0  0  0  0  0
    6.4294  -11.2356    7.3164 C   0  0  0  0  0  0  0  0  0  0  0  0
    6.7392  -10.6015    8.5084 C   0  0  0  0  0  0  0  0  0  0  0  0
    6.3146   -9.3003    8.6569 C   0  0  0  0  0  0  0  0  0  0  0  0
    7.4919  -11.3473    9.5276 C   0  0  0  0  0  0  0  0  0  0  0  0
    6.7958  -12.4756   10.0226 O   0  0  0  0  0  0  0  0  0  0  0  0
    7.3091  -13.1071   11.1355 C   0  0  0  0  0  0  0  0  0  0  0  0
    8.1985  -12.5255   11.9583 N   0  0  0  0  0  0  0  0  0  0  0  0
    8.7053  -13.1223   13.0379 C   0  0  0  0  0  0  0  0  0  0  0  0
    8.3199  -14.4066   13.3606 C   0  0  0  0  0  0  0  0  0  0  0  0
    8.6593  -15.3687   14.3788 C   0  0  0  0  0  0  0  0  0  0  0  0
    7.1985  -15.8892   14.5882 C   0  0  0  0  0  0  0  0  0  0  0  0
    8.1490  -15.8156   15.6092 C   0  0  0  0  0  0  0  0  0  0  0  0
    8.0284  -14.8023   16.6874 C   0  0  0  0  0  0  0  0  0  0  0  0
    7.4396  -13.7218   16.4925 O   0  0  0  0  0  0  0  0  0  0  0  0
    8.5728  -15.0447   17.9352 O   0  0  0  0  0  0  0  0  0  0  0  0
    7.1502  -16.3950   13.1699 C   0  0  0  0  0  0  0  0  0  0  0  0
    7.3932  -15.0608   12.5385 C   0  0  0  0  0  0  0  0  0  0  0  0
    6.9038  -14.4006   11.4390 C   0  0  0  0  0  0  0  0  0  0  0  0
    6.4897   -6.4904    5.9180 C   0  0  0  0  0  0  0  0  0  0  0  0
    3.7084   -3.3997    8.5211 O   0  0  0  0  0  0  0  0  0  0  0  0
    4.3713   -2.2540    8.0926 C   0  0  0  0  0  0  0  0  0  0  0  0
    3.7454   -0.9645    8.4883 C   0  0  0  0  0  0  0  0  0  0  0  0
    4.0004   -0.4799    9.8802 C   0  0  0  0  0  0  0  0  0  0  0  0
    2.6440    0.2798   10.6799 S   0  0  0  0  0  6  0  0  0  0  0  0
    3.2035    1.5193   11.3881 O   0  0  0  0  0  0  0  0  0  0  0  0
    1.5034    0.6482    9.8228 O   0  0  0  0  0  0  0  0  0  0  0  0
    2.0840   -0.7943   11.9987 C   0  0  0  0  0  0  0  0  0  0  0  0
  1  2  1  0
  2  3  2  0
  3  4  1  0
  4  5  2  0
  5  6  1  0
  6  7  2  0
  7  8  1  0
  8  9  2  0
  9 10  1  0
 10 11  2  0
 11 12  1  0
 12 13  2  0
 12 14  1  0
 14 15  1  0
 15 16  1  0
 16 17  2  0
 17 18  1  0
 18 19  2  0
 19 20  1  0
 20 21  1  0
 21 22  1  0
 22 23  1  0
 23 24  2  0
 23 25  1  0
 21 26  1  0
 26 27  1  0
 27 28  2  0
  6 29  1  0
  4 30  1  0
 30 31  1  0
 31 32  1  0
 32 33  1  0
 33 34  1  0
 34 35  2  0
 34 36  2  0
 34 37  1  0
  7  2  1  0
 13  8  1  0
 28 16  1  0
 27 19  1  0
 22 20  1  0
M  END
$$$$
