
     RDKit          3D

 37 41  0  0  0  0  0  0  0  0999 V2000
    6.3605    1.6140   -4.3257 C   0  0  0  0  0  0  0  0  0  0  0  0
    7.3538    1.8529   -3.2583 C   0  0  0  0  0  0  0  0  0  0  0  0
    6.9237    2.0098   -1.9554 C   0  0  0  0  0  0  0  0  0  0  0  0
    7.8158    2.2346   -0.9280 C   0  0  0  0  0  0  0  0  0  0  0  0
    9.1529    2.3010   -1.2216 C   0  0  0  0  0  0  0  0  0  0  0  0
    9.5751    2.1421   -2.5337 C   0  0  0  0  0  0  0  0  0  0  0  0
    8.6954    1.9179   -3.5642 C   0  0  0  0  0  0  0  0  0  0  0  0
    9.0842    1.7445   -4.9565 C   0  0  0  0  0  0  0  0  0  0  0  0
    9.0957    0.4584   -5.4667 C   0  0  0  0  0  0  0  0  0  0  0  0
    9.4623    0.2809   -6.7845 C   0  0  0  0  0  0  0  0  0  0  0  0
    9.8134    1.3588   -7.5891 C   0  0  0  0  0  0  0  0  0  0  0  0
    9.8055    2.6506   -7.0888 C   0  0  0  0  0  0  0  0  0  0  0  0
    9.4375    2.8124   -5.7721 C   0  0  0  0  0  0  0  0  0  0  0  0
   10.1855    3.7540   -7.9830 C   0  0  0  0  0  0  0  0  0  0  0  0
   11.1238    3.3742   -8.9720 O   0  0  0  0  0  0  0  0  0  0  0  0
   10.8101    3.6402  -10.2879 C   0  0  0  0  0  0  0  0  0  0  0  0
   11.0325    4.8342  -10.8633 N   0  0  0  0  0  0  0  0  0  0  0  0
   10.7344    5.1082  -12.1340 C   0  0  0  0  0  0  0  0  0  0  0  0
   10.1653    4.1388  -12.9332 C   0  0  0  0  0  0  0  0  0  0  0  0
    9.6788    4.0625  -14.2878 C   0  0  0  0  0  0  0  0  0  0  0  0
   10.2349    2.6267  -14.5676 C   0  0  0  0  0  0  0  0  0  0  0  0
   10.1361    3.6232  -15.5416 C   0  0  0  0  0  0  0  0  0  0  0  0
   11.3523    4.2857  -16.0762 C   0  0  0  0  0  0  0  0  0  0  0  0
   12.4714    3.7454  -15.9876 O   0  0  0  0  0  0  0  0  0  0  0  0
   11.2603    5.5234  -16.6859 O   0  0  0  0  0  0  0  0  0  0  0  0
    9.3464    2.0485  -13.4970 C   0  0  0  0  0  0  0  0  0  0  0  0
    9.9128    2.8742  -12.3858 C   0  0  0  0  0  0  0  0  0  0  0  0
   10.2385    2.6461  -11.0719 C   0  0  0  0  0  0  0  0  0  0  0  0
   11.0211    2.2145   -2.8475 C   0  0  0  0  0  0  0  0  0  0  0  0
    7.2948    2.3787    0.3387 O   0  0  0  0  0  0  0  0  0  0  0  0
    8.1369    2.4832    1.4414 C   0  0  0  0  0  0  0  0  0  0  0  0
    7.4576    2.6331    2.7556 C   0  0  0  0  0  0  0  0  0  0  0  0
    7.1188    1.3789    3.4967 C   0  0  0  0  0  0  0  0  0  0  0  0
    6.2435    1.5952    4.9946 S   0  0  0  0  0  6  0  0  0  0  0  0
    6.9929    2.6812    5.7757 O   0  0  0  0  0  0  0  0  0  0  0  0
    4.8164    1.9414    4.8729 O   0  0  0  0  0  0  0  0  0  0  0  0
    6.4211    0.1101    5.9793 C   0  0  0  0  0  0  0  0  0  0  0  0
  1  2  1  0
  2  3  2  0
  3  4  1  0
  4  5  2  0
  5  6  1  0
  6  7  2  0
  7  8  1  0
  8  9  2  0
  9 10  1  0
 10 11  2  0
 11 12  1  0
 12 13  2  0
 12 14  1  0
 14 15  1  0
 15 16  1  0
 16 17  2  0
 17 18  1  0
 18 19  2  0
 19 20  1  0
 20 21  1  0
 21 22  1  0
 22 23  1  0
 23 24  2  0
 23 25  1  0
 21 26  1  0
 26 27  1  0
 27 28  2  0
  6 29  1  0
  4 30  1  0
 30 31  1  0
 31 32  1  0
 32 33  1  0
 33 34  1  0
 34 35  2  0
 34 36  2  0
 34 37  1  0
  7  2  1  0
 13  8  1  0
 28 16  1  0
 27 19  1  0
 22 20  1  0
M  END
$$$$
