
     RDKit          3D

 37 41  0  0  0  0  0  0  0  0999 V2000
   12.6166    2.0352   -5.0106 C   0  0  0  0  0  0  0  0  0  0  0  0
   11.2298    2.1822   -4.5226 C   0  0  0  0  0  0  0  0  0  0  0  0
   10.9054    1.7324   -3.2578 C   0  0  0  0  0  0  0  0  0  0  0  0
    9.6238    1.8494   -2.7620 C   0  0  0  0  0  0  0  0  0  0  0  0
    8.6637    2.4258   -3.5522 C   0  0  0  0  0  0  0  0  0  0  0  0
    8.9995    2.8745   -4.8214 C   0  0  0  0  0  0  0  0  0  0  0  0
   10.2724    2.7630   -5.3249 C   0  0  0  0  0  0  0  0  0  0  0  0
   10.6779    3.2165   -6.6476 C   0  0  0  0  0  0  0  0  0  0  0  0
   11.0463    4.5426   -6.7891 C   0  0  0  0  0  0  0  0  0  0  0  0
   11.4326    4.9845   -8.0373 C   0  0  0  0  0  0  0  0  0  0  0  0
   11.4552    4.1287   -9.1325 C   0  0  0  0  0  0  0  0  0  0  0  0
   11.0885    2.7992   -9.0024 C   0  0  0  0  0  0  0  0  0  0  0  0
   10.7053    2.3724   -7.7509 C   0  0  0  0  0  0  0  0  0  0  0  0
   11.1306    1.9378  -10.1931 C   0  0  0  0  0  0  0  0  0  0  0  0
   10.1608    2.2800  -11.1653 O   0  0  0  0  0  0  0  0  0  0  0  0
   10.6083    2.8061  -12.3586 C   0  0  0  0  0  0  0  0  0  0  0  0
   11.9005    2.7813  -12.7271 N   0  0  0  0  0  0  0  0  0  0  0  0
   12.3500    3.2861  -13.8767 C   0  0  0  0  0  0  0  0  0  0  0  0
   11.4709    3.8742  -14.7620 C   0  0  0  0  0  0  0  0  0  0  0  0
   11.5699    4.5445  -16.0341 C   0  0  0  0  0  0  0  0  0  0  0  0
   10.2777    3.9055  -16.6429 C   0  0  0  0  0  0  0  0  0  0  0  0
   11.4069    4.2372  -17.3953 C   0  0  0  0  0  0  0  0  0  0  0  0
   12.2882    3.1787  -17.9490 C   0  0  0  0  0  0  0  0  0  0  0  0
   12.4548    2.1001  -17.3481 O   0  0  0  0  0  0  0  0  0  0  0  0
   12.9432    3.3757  -19.1509 O   0  0  0  0  0  0  0  0  0  0  0  0
    9.4259    4.5706  -15.5931 C   0  0  0  0  0  0  0  0  0  0  0  0
   10.1109    3.9262  -14.4299 C   0  0  0  0  0  0  0  0  0  0  0  0
    9.7022    3.3921  -13.2332 C   0  0  0  0  0  0  0  0  0  0  0  0
    7.9592    3.4971   -5.6729 C   0  0  0  0  0  0  0  0  0  0  0  0
    9.3941    1.3728   -1.4905 O   0  0  0  0  0  0  0  0  0  0  0  0
   10.4454    0.8953   -0.7142 C   0  0  0  0  0  0  0  0  0  0  0  0
   10.1144    0.6066    0.7064 C   0  0  0  0  0  0  0  0  0  0  0  0
    9.2312   -0.5699    0.9768 C   0  0  0  0  0  0  0  0  0  0  0  0
    9.2046   -1.1348    2.6311 S   0  0  0  0  0  6  0  0  0  0  0  0
   10.5415   -1.8495    2.8614 O   0  0  0  0  0  0  0  0  0  0  0  0
    8.9838   -0.1106    3.6674 O   0  0  0  0  0  0  0  0  0  0  0  0
    7.9627   -2.4165    2.7769 C   0  0  0  0  0  0  0  0  0  0  0  0
  1  2  1  0
  2  3  2  0
  3  4  1  0
  4  5  2  0
  5  6  1  0
  6  7  2  0
  7  8  1  0
  8  9  2  0
  9 10  1  0
 10 11  2  0
 11 12  1  0
 12 13  2  0
 12 14  1  0
 14 15  1  0
 15 16  1  0
 16 17  2  0
 17 18  1  0
 18 19  2  0
 19 20  1  0
 20 21  1  0
 21 22  1  0
 22 23  1  0
 23 24  2  0
 23 25  1  0
 21 26  1  0
 26 27  1  0
 27 28  2  0
  6 29  1  0
  4 30  1  0
 30 31  1  0
 31 32  1  0
 32 33  1  0
 33 34  1  0
 34 35  2  0
 34 36  2  0
 34 37  1  0
  7  2  1  0
 13  8  1  0
 28 16  1  0
 27 19  1  0
 22 20  1  0
M  END
$$$$
