
     RDKit          3D

 37 41  0  0  0  0  0  0  0  0999 V2000
   12.1177    1.1104   -4.1614 C   0  0  0  0  0  0  0  0  0  0  0  0
   13.1748    2.1253   -4.3498 C   0  0  0  0  0  0  0  0  0  0  0  0
   14.3983    1.9515   -3.7333 C   0  0  0  0  0  0  0  0  0  0  0  0
   15.4133    2.8733   -3.8817 C   0  0  0  0  0  0  0  0  0  0  0  0
   15.1882    3.9790   -4.6596 C   0  0  0  0  0  0  0  0  0  0  0  0
   13.9556    4.1446   -5.2748 C   0  0  0  0  0  0  0  0  0  0  0  0
   12.9381    3.2330   -5.1338 C   0  0  0  0  0  0  0  0  0  0  0  0
   11.6279    3.3578   -5.7561 C   0  0  0  0  0  0  0  0  0  0  0  0
   10.6762    4.1235   -5.1060 C   0  0  0  0  0  0  0  0  0  0  0  0
    9.4309    4.2495   -5.6854 C   0  0  0  0  0  0  0  0  0  0  0  0
    9.1280    3.6278   -6.8913 C   0  0  0  0  0  0  0  0  0  0  0  0
   10.0729    2.8589   -7.5508 C   0  0  0  0  0  0  0  0  0  0  0  0
   11.3112    2.7422   -6.9607 C   0  0  0  0  0  0  0  0  0  0  0  0
    9.6997    2.2237   -8.8232 C   0  0  0  0  0  0  0  0  0  0  0  0
    9.1203    3.1239   -9.7487 O   0  0  0  0  0  0  0  0  0  0  0  0
    9.5461    3.0581  -11.0583 C   0  0  0  0  0  0  0  0  0  0  0  0
    9.9730    1.9190  -11.6296 N   0  0  0  0  0  0  0  0  0  0  0  0
   10.3889    1.8382  -12.8942 C   0  0  0  0  0  0  0  0  0  0  0  0
   10.3959    2.9640  -13.6909 C   0  0  0  0  0  0  0  0  0  0  0  0
   10.7962    3.2808  -15.0388 C   0  0  0  0  0  0  0  0  0  0  0  0
    9.5898    4.2324  -15.3353 C   0  0  0  0  0  0  0  0  0  0  0  0
   10.1983    3.4279  -16.3017 C   0  0  0  0  0  0  0  0  0  0  0  0
    9.4989    2.2387  -16.8498 C   0  0  0  0  0  0  0  0  0  0  0  0
    8.5149    1.7449  -16.2665 O   0  0  0  0  0  0  0  0  0  0  0  0
    9.9330    1.6560  -18.0263 O   0  0  0  0  0  0  0  0  0  0  0  0
   10.0421    5.1808  -14.2556 C   0  0  0  0  0  0  0  0  0  0  0  0
    9.9593    4.1792  -13.1476 C   0  0  0  0  0  0  0  0  0  0  0  0
    9.5424    4.2064  -11.8400 C   0  0  0  0  0  0  0  0  0  0  0  0
   13.7156    5.3409   -6.1150 C   0  0  0  0  0  0  0  0  0  0  0  0
   16.5986    2.6160   -3.2294 O   0  0  0  0  0  0  0  0  0  0  0  0
   16.8244    1.3779   -2.6362 C   0  0  0  0  0  0  0  0  0  0  0  0
   18.1620    1.2000   -2.0114 C   0  0  0  0  0  0  0  0  0  0  0  0
   18.6609    2.3071   -1.1381 C   0  0  0  0  0  0  0  0  0  0  0  0
   20.0937    1.9488   -0.2026 S   0  0  0  0  0  6  0  0  0  0  0  0
   19.8036    0.6396    0.5411 O   0  0  0  0  0  0  0  0  0  0  0  0
   21.3559    1.8437   -0.9556 O   0  0  0  0  0  0  0  0  0  0  0  0
   20.2603    3.1847    1.0826 C   0  0  0  0  0  0  0  0  0  0  0  0
  1  2  1  0
  2  3  2  0
  3  4  1  0
  4  5  2  0
  5  6  1  0
  6  7  2  0
  7  8  1  0
  8  9  2  0
  9 10  1  0
 10 11  2  0
 11 12  1  0
 12 13  2  0
 12 14  1  0
 14 15  1  0
 15 16  1  0
 16 17  2  0
 17 18  1  0
 18 19  2  0
 19 20  1  0
 20 21  1  0
 21 22  1  0
 22 23  1  0
 23 24  2  0
 23 25  1  0
 21 26  1  0
 26 27  1  0
 27 28  2  0
  6 29  1  0
  4 30  1  0
 30 31  1  0
 31 32  1  0
 32 33  1  0
 33 34  1  0
 34 35  2  0
 34 36  2  0
 34 37  1  0
  7  2  1  0
 13  8  1  0
 28 16  1  0
 27 19  1  0
 22 20  1  0
M  END
$$$$
