
     RDKit          3D

 37 41  0  0  0  0  0  0  0  0999 V2000
   10.4610    1.3094   -4.6463 C   0  0  0  0  0  0  0  0  0  0  0  0
    9.3820    2.3188   -4.6451 C   0  0  0  0  0  0  0  0  0  0  0  0
    8.3334    2.1885   -3.7559 C   0  0  0  0  0  0  0  0  0  0  0  0
    7.3053    3.1069   -3.7202 C   0  0  0  0  0  0  0  0  0  0  0  0
    7.3388    4.1649   -4.5908 C   0  0  0  0  0  0  0  0  0  0  0  0
    8.3966    4.2871   -5.4803 C   0  0  0  0  0  0  0  0  0  0  0  0
    9.4254    3.3784   -5.5244 C   0  0  0  0  0  0  0  0  0  0  0  0
   10.5574    3.4590   -6.4362 C   0  0  0  0  0  0  0  0  0  0  0  0
   11.7253    4.0315   -5.9643 C   0  0  0  0  0  0  0  0  0  0  0  0
   12.8051    4.1137   -6.8187 C   0  0  0  0  0  0  0  0  0  0  0  0
   12.7336    3.6370   -8.1225 C   0  0  0  0  0  0  0  0  0  0  0  0
   11.5696    3.0619   -8.6056 C   0  0  0  0  0  0  0  0  0  0  0  0
   10.5003    2.9867   -7.7417 C   0  0  0  0  0  0  0  0  0  0  0  0
   11.5484    2.5741   -9.9924 C   0  0  0  0  0  0  0  0  0  0  0  0
   10.8716    3.4434  -10.8805 O   0  0  0  0  0  0  0  0  0  0  0  0
   10.9726    3.1846  -12.2310 C   0  0  0  0  0  0  0  0  0  0  0  0
   11.4642    2.0324  -12.7176 N   0  0  0  0  0  0  0  0  0  0  0  0
   11.5696    1.7664  -14.0201 C   0  0  0  0  0  0  0  0  0  0  0  0
   11.1621    2.7004  -14.9497 C   0  0  0  0  0  0  0  0  0  0  0  0
   11.1544    2.8008  -16.3875 C   0  0  0  0  0  0  0  0  0  0  0  0
    9.7491    3.4826  -16.4839 C   0  0  0  0  0  0  0  0  0  0  0  0
   10.2520    2.6037  -17.4462 C   0  0  0  0  0  0  0  0  0  0  0  0
    9.6889    1.2382  -17.5955 C   0  0  0  0  0  0  0  0  0  0  0  0
    9.3327    0.5765  -16.6018 O   0  0  0  0  0  0  0  0  0  0  0  0
    9.5502    0.6753  -18.8510 O   0  0  0  0  0  0  0  0  0  0  0  0
   10.2533    4.6828  -15.7255 C   0  0  0  0  0  0  0  0  0  0  0  0
   10.6395    3.9194  -14.4985 C   0  0  0  0  0  0  0  0  0  0  0  0
   10.5542    4.1417  -13.1466 C   0  0  0  0  0  0  0  0  0  0  0  0
    8.4297    5.4319   -6.4200 C   0  0  0  0  0  0  0  0  0  0  0  0
    6.3026    2.8949   -2.8002 O   0  0  0  0  0  0  0  0  0  0  0  0
    5.2510    3.7981   -2.6804 C   0  0  0  0  0  0  0  0  0  0  0  0
    4.2534    3.4849   -1.6232 C   0  0  0  0  0  0  0  0  0  0  0  0
    2.8354    3.2906   -2.0578 C   0  0  0  0  0  0  0  0  0  0  0  0
    1.7631    2.5995   -0.8623 S   0  0  0  0  0  6  0  0  0  0  0  0
    0.4089    2.4146   -1.5574 O   0  0  0  0  0  0  0  0  0  0  0  0
    2.2012    1.3353   -0.2451 O   0  0  0  0  0  0  0  0  0  0  0  0
    1.4666    3.8212    0.4128 C   0  0  0  0  0  0  0  0  0  0  0  0
  1  2  1  0
  2  3  2  0
  3  4  1  0
  4  5  2  0
  5  6  1  0
  6  7  2  0
  7  8  1  0
  8  9  2  0
  9 10  1  0
 10 11  2  0
 11 12  1  0
 12 13  2  0
 12 14  1  0
 14 15  1  0
 15 16  1  0
 16 17  2  0
 17 18  1  0
 18 19  2  0
 19 20  1  0
 20 21  1  0
 21 22  1  0
 22 23  1  0
 23 24  2  0
 23 25  1  0
 21 26  1  0
 26 27  1  0
 27 28  2  0
  6 29  1  0
  4 30  1  0
 30 31  1  0
 31 32  1  0
 32 33  1  0
 33 34  1  0
 34 35  2  0
 34 36  2  0
 34 37  1  0
  7  2  1  0
 13  8  1  0
 28 16  1  0
 27 19  1  0
 22 20  1  0
M  END
$$$$
