
     RDKit          3D

 37 41  0  0  0  0  0  0  0  0999 V2000
    7.5684    4.7625   -7.1259 C   0  0  0  0  0  0  0  0  0  0  0  0
    7.9154    3.9225   -5.9610 C   0  0  0  0  0  0  0  0  0  0  0  0
    7.2952    4.1552   -4.7492 C   0  0  0  0  0  0  0  0  0  0  0  0
    7.5884    3.3956   -3.6362 C   0  0  0  0  0  0  0  0  0  0  0  0
    8.5162    2.3933   -3.7505 C   0  0  0  0  0  0  0  0  0  0  0  0
    9.1339    2.1674   -4.9722 C   0  0  0  0  0  0  0  0  0  0  0  0
    8.8493    2.9177   -6.0868 C   0  0  0  0  0  0  0  0  0  0  0  0
    9.4671    2.7232   -7.3906 C   0  0  0  0  0  0  0  0  0  0  0  0
    8.8809    1.8128   -8.2519 C   0  0  0  0  0  0  0  0  0  0  0  0
    9.4568    1.6196   -9.4903 C   0  0  0  0  0  0  0  0  0  0  0  0
   10.5970    2.3160   -9.8742 C   0  0  0  0  0  0  0  0  0  0  0  0
   11.1923    3.2298   -9.0201 C   0  0  0  0  0  0  0  0  0  0  0  0
   10.6065    3.4122   -7.7877 C   0  0  0  0  0  0  0  0  0  0  0  0
   12.3966    3.9389   -9.4766 C   0  0  0  0  0  0  0  0  0  0  0  0
   12.1131    5.0246  -10.3388 O   0  0  0  0  0  0  0  0  0  0  0  0
   12.0512    4.7684  -11.6921 C   0  0  0  0  0  0  0  0  0  0  0  0
   12.5226    3.6363  -12.2418 N   0  0  0  0  0  0  0  0  0  0  0  0
   12.4714    3.3731  -13.5482 C   0  0  0  0  0  0  0  0  0  0  0  0
   11.9114    4.2887  -14.4145 C   0  0  0  0  0  0  0  0  0  0  0  0
   11.7161    4.3868  -15.8392 C   0  0  0  0  0  0  0  0  0  0  0  0
   10.2838    5.0112  -15.7529 C   0  0  0  0  0  0  0  0  0  0  0  0
   10.6946    4.1520  -16.7749 C   0  0  0  0  0  0  0  0  0  0  0  0
   10.1724    2.7648  -16.8564 C   0  0  0  0  0  0  0  0  0  0  0  0
    9.8452    2.1387  -15.8302 O   0  0  0  0  0  0  0  0  0  0  0  0
   10.0402    2.1411  -18.0835 O   0  0  0  0  0  0  0  0  0  0  0  0
   10.8320    6.2318  -15.0605 C   0  0  0  0  0  0  0  0  0  0  0  0
   11.4021    5.4861  -13.8957 C   0  0  0  0  0  0  0  0  0  0  0  0
   11.4812    5.7066  -12.5431 C   0  0  0  0  0  0  0  0  0  0  0  0
   10.1363    1.0832   -5.0922 C   0  0  0  0  0  0  0  0  0  0  0  0
    6.9201    3.7006   -2.4712 O   0  0  0  0  0  0  0  0  0  0  0  0
    6.7709    2.7447   -1.4713 C   0  0  0  0  0  0  0  0  0  0  0  0
    5.5515    2.8798   -0.6312 C   0  0  0  0  0  0  0  0  0  0  0  0
    4.3072    2.2089   -1.1200 C   0  0  0  0  0  0  0  0  0  0  0  0
    2.9509    2.2285   -0.0170 S   0  0  0  0  0  6  0  0  0  0  0  0
    2.5882    3.7039    0.1899 O   0  0  0  0  0  0  0  0  0  0  0  0
    1.7632    1.4597   -0.4287 O   0  0  0  0  0  0  0  0  0  0  0  0
    3.5104    1.6596    1.5861 C   0  0  0  0  0  0  0  0  0  0  0  0
  1  2  1  0
  2  3  2  0
  3  4  1  0
  4  5  2  0
  5  6  1  0
  6  7  2  0
  7  8  1  0
  8  9  2  0
  9 10  1  0
 10 11  2  0
 11 12  1  0
 12 13  2  0
 12 14  1  0
 14 15  1  0
 15 16  1  0
 16 17  2  0
 17 18  1  0
 18 19  2  0
 19 20  1  0
 20 21  1  0
 21 22  1  0
 22 23  1  0
 23 24  2  0
 23 25  1  0
 21 26  1  0
 26 27  1  0
 27 28  2  0
  6 29  1  0
  4 30  1  0
 30 31  1  0
 31 32  1  0
 32 33  1  0
 33 34  1  0
 34 35  2  0
 34 36  2  0
 34 37  1  0
  7  2  1  0
 13  8  1  0
 28 16  1  0
 27 19  1  0
 22 20  1  0
M  END
$$$$
