
     RDKit          3D

 37 41  0  0  0  0  0  0  0  0999 V2000
   13.4767    0.8209   -4.8831 C   0  0  0  0  0  0  0  0  0  0  0  0
   14.0223    2.1862   -4.7367 C   0  0  0  0  0  0  0  0  0  0  0  0
   15.2785    2.3586   -4.1895 C   0  0  0  0  0  0  0  0  0  0  0  0
   15.8267    3.6145   -4.0342 C   0  0  0  0  0  0  0  0  0  0  0  0
   15.0982    4.7037   -4.4358 C   0  0  0  0  0  0  0  0  0  0  0  0
   13.8370    4.5201   -4.9844 C   0  0  0  0  0  0  0  0  0  0  0  0
   13.2817    3.2741   -5.1436 C   0  0  0  0  0  0  0  0  0  0  0  0
   11.9649    3.0255   -5.7125 C   0  0  0  0  0  0  0  0  0  0  0  0
   10.8829    3.0105   -4.8501 C   0  0  0  0  0  0  0  0  0  0  0  0
    9.6299    2.7760   -5.3769 C   0  0  0  0  0  0  0  0  0  0  0  0
    9.4465    2.5590   -6.7377 C   0  0  0  0  0  0  0  0  0  0  0  0
   10.5224    2.5718   -7.6102 C   0  0  0  0  0  0  0  0  0  0  0  0
   11.7667    2.8071   -7.0702 C   0  0  0  0  0  0  0  0  0  0  0  0
   10.2721    2.3365   -9.0397 C   0  0  0  0  0  0  0  0  0  0  0  0
   10.7955    3.3530   -9.8737 O   0  0  0  0  0  0  0  0  0  0  0  0
   10.7241    3.1624  -11.2373 C   0  0  0  0  0  0  0  0  0  0  0  0
   10.4222    1.9765  -11.7927 N   0  0  0  0  0  0  0  0  0  0  0  0
   10.3498    1.7748  -13.1090 C   0  0  0  0  0  0  0  0  0  0  0  0
   10.5916    2.8163  -13.9803 C   0  0  0  0  0  0  0  0  0  0  0  0
   10.6506    2.9821  -15.4109 C   0  0  0  0  0  0  0  0  0  0  0  0
    9.9421    4.3773  -15.4308 C   0  0  0  0  0  0  0  0  0  0  0  0
    9.8156    3.4289  -16.4487 C   0  0  0  0  0  0  0  0  0  0  0  0
    8.5430    2.6900  -16.6441 C   0  0  0  0  0  0  0  0  0  0  0  0
    7.8775    2.2854  -15.6716 O   0  0  0  0  0  0  0  0  0  0  0  0
    8.0729    2.4375  -17.9199 O   0  0  0  0  0  0  0  0  0  0  0  0
   11.0661    4.9858  -14.6332 C   0  0  0  0  0  0  0  0  0  0  0  0
   10.9093    4.0760  -13.4562 C   0  0  0  0  0  0  0  0  0  0  0  0
   10.9711    4.2281  -12.0933 C   0  0  0  0  0  0  0  0  0  0  0  0
   13.0522    5.6996   -5.4175 C   0  0  0  0  0  0  0  0  0  0  0  0
   17.0850    3.6887   -3.4791 O   0  0  0  0  0  0  0  0  0  0  0  0
   17.7920    4.8869   -3.4888 C   0  0  0  0  0  0  0  0  0  0  0  0
   19.2113    4.7980   -3.0543 C   0  0  0  0  0  0  0  0  0  0  0  0
   19.7800    3.4293   -2.8535 C   0  0  0  0  0  0  0  0  0  0  0  0
   21.2228    3.3436   -1.8698 S   0  0  0  0  0  6  0  0  0  0  0  0
   20.7448    3.2260   -0.4176 O   0  0  0  0  0  0  0  0  0  0  0  0
   22.1678    2.2592   -2.1896 O   0  0  0  0  0  0  0  0  0  0  0  0
   22.0657    4.9213   -1.9539 C   0  0  0  0  0  0  0  0  0  0  0  0
  1  2  1  0
  2  3  2  0
  3  4  1  0
  4  5  2  0
  5  6  1  0
  6  7  2  0
  7  8  1  0
  8  9  2  0
  9 10  1  0
 10 11  2  0
 11 12  1  0
 12 13  2  0
 12 14  1  0
 14 15  1  0
 15 16  1  0
 16 17  2  0
 17 18  1  0
 18 19  2  0
 19 20  1  0
 20 21  1  0
 21 22  1  0
 22 23  1  0
 23 24  2  0
 23 25  1  0
 21 26  1  0
 26 27  1  0
 27 28  2  0
  6 29  1  0
  4 30  1  0
 30 31  1  0
 31 32  1  0
 32 33  1  0
 33 34  1  0
 34 35  2  0
 34 36  2  0
 34 37  1  0
  7  2  1  0
 13  8  1  0
 28 16  1  0
 27 19  1  0
 22 20  1  0
M  END
$$$$
