
     RDKit          3D

 37 41  0  0  0  0  0  0  0  0999 V2000
    6.8823    5.2410   -1.1619 C   0  0  0  0  0  0  0  0  0  0  0  0
    5.9613    4.1089   -0.9315 C   0  0  0  0  0  0  0  0  0  0  0  0
    5.7587    3.6515    0.3558 C   0  0  0  0  0  0  0  0  0  0  0  0
    4.9081    2.5978    0.6167 C   0  0  0  0  0  0  0  0  0  0  0  0
    4.2579    2.0028   -0.4328 C   0  0  0  0  0  0  0  0  0  0  0  0
    4.4681    2.4696   -1.7225 C   0  0  0  0  0  0  0  0  0  0  0  0
    5.3128    3.5180   -1.9935 C   0  0  0  0  0  0  0  0  0  0  0  0
    5.5689    4.0465   -3.3256 C   0  0  0  0  0  0  0  0  0  0  0  0
    4.6942    4.9975   -3.8207 C   0  0  0  0  0  0  0  0  0  0  0  0
    4.9261    5.5060   -5.0816 C   0  0  0  0  0  0  0  0  0  0  0  0
    6.0077    5.0817   -5.8449 C   0  0  0  0  0  0  0  0  0  0  0  0
    6.8897    4.1302   -5.3595 C   0  0  0  0  0  0  0  0  0  0  0  0
    6.6457    3.6318   -4.0996 C   0  0  0  0  0  0  0  0  0  0  0  0
    8.0168    3.7173   -6.2084 C   0  0  0  0  0  0  0  0  0  0  0  0
    8.2608    4.6039   -7.2841 O   0  0  0  0  0  0  0  0  0  0  0  0
    9.0224    4.1405   -8.3357 C   0  0  0  0  0  0  0  0  0  0  0  0
    9.5979    2.9261   -8.3393 N   0  0  0  0  0  0  0  0  0  0  0  0
   10.3380    2.4629   -9.3475 C   0  0  0  0  0  0  0  0  0  0  0  0
   10.5469    3.2439  -10.4650 C   0  0  0  0  0  0  0  0  0  0  0  0
   11.2904    3.1222  -11.6937 C   0  0  0  0  0  0  0  0  0  0  0  0
   10.1980    3.7843  -12.5977 C   0  0  0  0  0  0  0  0  0  0  0  0
   11.0510    2.7668  -13.0318 C   0  0  0  0  0  0  0  0  0  0  0  0
   10.5357    1.3959  -13.2745 C   0  0  0  0  0  0  0  0  0  0  0  0
    9.8586    0.8009  -12.4144 O   0  0  0  0  0  0  0  0  0  0  0  0
   10.8018    0.7531  -14.4696 O   0  0  0  0  0  0  0  0  0  0  0  0
   10.3353    5.0856  -11.8510 C   0  0  0  0  0  0  0  0  0  0  0  0
    9.9687    4.5189  -10.5161 C   0  0  0  0  0  0  0  0  0  0  0  0
    9.2167    4.9465   -9.4502 C   0  0  0  0  0  0  0  0  0  0  0  0
    3.7636    1.8241   -2.8547 C   0  0  0  0  0  0  0  0  0  0  0  0
    4.7689    2.2110    1.9312 O   0  0  0  0  0  0  0  0  0  0  0  0
    3.7780    1.3068    2.3004 C   0  0  0  0  0  0  0  0  0  0  0  0
    4.2542    0.0808    2.9941 C   0  0  0  0  0  0  0  0  0  0  0  0
    5.3012    0.2551    4.0480 C   0  0  0  0  0  0  0  0  0  0  0  0
    5.1551   -0.7887    5.4429 S   0  0  0  0  0  6  0  0  0  0  0  0
    5.9762   -0.1306    6.5583 O   0  0  0  0  0  0  0  0  0  0  0  0
    3.7854   -1.0680    5.9090 O   0  0  0  0  0  0  0  0  0  0  0  0
    5.9985   -2.3293    5.0940 C   0  0  0  0  0  0  0  0  0  0  0  0
  1  2  1  0
  2  3  2  0
  3  4  1  0
  4  5  2  0
  5  6  1  0
  6  7  2  0
  7  8  1  0
  8  9  2  0
  9 10  1  0
 10 11  2  0
 11 12  1  0
 12 13  2  0
 12 14  1  0
 14 15  1  0
 15 16  1  0
 16 17  2  0
 17 18  1  0
 18 19  2  0
 19 20  1  0
 20 21  1  0
 21 22  1  0
 22 23  1  0
 23 24  2  0
 23 25  1  0
 21 26  1  0
 26 27  1  0
 27 28  2  0
  6 29  1  0
  4 30  1  0
 30 31  1  0
 31 32  1  0
 32 33  1  0
 33 34  1  0
 34 35  2  0
 34 36  2  0
 34 37  1  0
  7  2  1  0
 13  8  1  0
 28 16  1  0
 27 19  1  0
 22 20  1  0
M  END
$$$$
