
     RDKit          3D

 37 41  0  0  0  0  0  0  0  0999 V2000
   11.2719    0.7636   -4.5223 C   0  0  0  0  0  0  0  0  0  0  0  0
   12.4347    1.6484   -4.3031 C   0  0  0  0  0  0  0  0  0  0  0  0
   13.5307    1.1683   -3.6135 C   0  0  0  0  0  0  0  0  0  0  0  0
   14.6374    1.9591   -3.3861 C   0  0  0  0  0  0  0  0  0  0  0  0
   14.6347    3.2451   -3.8601 C   0  0  0  0  0  0  0  0  0  0  0  0
   13.5288    3.7181   -4.5518 C   0  0  0  0  0  0  0  0  0  0  0  0
   12.4217    2.9393   -4.7838 C   0  0  0  0  0  0  0  0  0  0  0  0
   11.2367    3.3850   -5.5025 C   0  0  0  0  0  0  0  0  0  0  0  0
   10.2971    4.1206   -4.8022 C   0  0  0  0  0  0  0  0  0  0  0  0
    9.1699    4.5487   -5.4719 C   0  0  0  0  0  0  0  0  0  0  0  0
    8.9720    4.2547   -6.8161 C   0  0  0  0  0  0  0  0  0  0  0  0
    9.9058    3.5190   -7.5271 C   0  0  0  0  0  0  0  0  0  0  0  0
   11.0257    3.0986   -6.8456 C   0  0  0  0  0  0  0  0  0  0  0  0
    9.6467    3.2366   -8.9465 C   0  0  0  0  0  0  0  0  0  0  0  0
   10.0268    4.2950   -9.8056 O   0  0  0  0  0  0  0  0  0  0  0  0
   10.2530    3.9933  -11.1318 C   0  0  0  0  0  0  0  0  0  0  0  0
   10.1203    2.7523  -11.6299 N   0  0  0  0  0  0  0  0  0  0  0  0
   10.3360    2.4434  -12.9092 C   0  0  0  0  0  0  0  0  0  0  0  0
   10.7176    3.4244  -13.8005 C   0  0  0  0  0  0  0  0  0  0  0  0
   11.0719    3.4795  -15.1965 C   0  0  0  0  0  0  0  0  0  0  0  0
   10.3319    4.8272  -15.4874 C   0  0  0  0  0  0  0  0  0  0  0  0
   10.4594    3.7958  -16.4207 C   0  0  0  0  0  0  0  0  0  0  0  0
    9.2857    2.9743  -16.8098 C   0  0  0  0  0  0  0  0  0  0  0  0
    8.1243    3.4006  -16.6630 O   0  0  0  0  0  0  0  0  0  0  0  0
    9.4656    1.7122  -17.3457 O   0  0  0  0  0  0  0  0  0  0  0  0
   11.2377    5.5584  -14.5311 C   0  0  0  0  0  0  0  0  0  0  0  0
   10.8695    4.7374  -13.3361 C   0  0  0  0  0  0  0  0  0  0  0  0
   10.6356    5.0000  -12.0092 C   0  0  0  0  0  0  0  0  0  0  0  0
   13.5292    5.1086   -5.0629 C   0  0  0  0  0  0  0  0  0  0  0  0
   15.6827    1.3949   -2.6892 O   0  0  0  0  0  0  0  0  0  0  0  0
   15.6177    0.0706   -2.2675 C   0  0  0  0  0  0  0  0  0  0  0  0
   16.8383   -0.4499   -1.5964 C   0  0  0  0  0  0  0  0  0  0  0  0
   17.9143   -1.0083   -2.4724 C   0  0  0  0  0  0  0  0  0  0  0  0
   19.4453   -1.3212   -1.6884 S   0  0  0  0  0  6  0  0  0  0  0  0
   19.2264   -1.0462   -0.1958 O   0  0  0  0  0  0  0  0  0  0  0  0
   20.0172   -2.6649   -1.8853 O   0  0  0  0  0  0  0  0  0  0  0  0
   20.6230   -0.0816   -2.2201 C   0  0  0  0  0  0  0  0  0  0  0  0
  1  2  1  0
  2  3  2  0
  3  4  1  0
  4  5  2  0
  5  6  1  0
  6  7  2  0
  7  8  1  0
  8  9  2  0
  9 10  1  0
 10 11  2  0
 11 12  1  0
 12 13  2  0
 12 14  1  0
 14 15  1  0
 15 16  1  0
 16 17  2  0
 17 18  1  0
 18 19  2  0
 19 20  1  0
 20 21  1  0
 21 22  1  0
 22 23  1  0
 23 24  2  0
 23 25  1  0
 21 26  1  0
 26 27  1  0
 27 28  2  0
  6 29  1  0
  4 30  1  0
 30 31  1  0
 31 32  1  0
 32 33  1  0
 33 34  1  0
 34 35  2  0
 34 36  2  0
 34 37  1  0
  7  2  1  0
 13  8  1  0
 28 16  1  0
 27 19  1  0
 22 20  1  0
M  END
$$$$
