
     RDKit          3D

 37 41  0  0  0  0  0  0  0  0999 V2000
    6.3243   -6.5221    8.9879 C   0  0  0  0  0  0  0  0  0  0  0  0
    5.4431   -6.0047   10.0552 C   0  0  0  0  0  0  0  0  0  0  0  0
    5.4989   -6.5709   11.3136 C   0  0  0  0  0  0  0  0  0  0  0  0
    4.6949   -6.1197   12.3391 C   0  0  0  0  0  0  0  0  0  0  0  0
    3.8281   -5.0878   12.0891 C   0  0  0  0  0  0  0  0  0  0  0  0
    3.7795   -4.5256   10.8215 C   0  0  0  0  0  0  0  0  0  0  0  0
    4.5756   -4.9672    9.7932 C   0  0  0  0  0  0  0  0  0  0  0  0
    4.5647   -4.4138    8.4467 C   0  0  0  0  0  0  0  0  0  0  0  0
    4.2937   -5.2752    7.3983 C   0  0  0  0  0  0  0  0  0  0  0  0
    4.2805   -4.7630    6.1177 C   0  0  0  0  0  0  0  0  0  0  0  0
    4.5315   -3.4176    5.8743 C   0  0  0  0  0  0  0  0  0  0  0  0
    4.8039   -2.5462    6.9161 C   0  0  0  0  0  0  0  0  0  0  0  0
    4.8137   -3.0715    8.1886 C   0  0  0  0  0  0  0  0  0  0  0  0
    5.0622   -1.1332    6.6026 C   0  0  0  0  0  0  0  0  0  0  0  0
    4.1775   -0.6050    5.6326 O   0  0  0  0  0  0  0  0  0  0  0  0
    3.4277    0.4977    5.9828 C   0  0  0  0  0  0  0  0  0  0  0  0
    3.4269    1.0145    7.2233 N   0  0  0  0  0  0  0  0  0  0  0  0
    2.7073    2.0796    7.5789 C   0  0  0  0  0  0  0  0  0  0  0  0
    1.9077    2.7126    6.6502 C   0  0  0  0  0  0  0  0  0  0  0  0
    0.9858    3.8205    6.6557 C   0  0  0  0  0  0  0  0  0  0  0  0
    1.4257    4.3903    5.2663 C   0  0  0  0  0  0  0  0  0  0  0  0
    0.9882    5.1866    6.3274 C   0  0  0  0  0  0  0  0  0  0  0  0
    1.9397    6.0487    7.0725 C   0  0  0  0  0  0  0  0  0  0  0  0
    3.1483    5.7563    7.1501 O   0  0  0  0  0  0  0  0  0  0  0  0
    1.4949    7.1994    7.6971 O   0  0  0  0  0  0  0  0  0  0  0  0
    0.9654    3.1317    4.5780 C   0  0  0  0  0  0  0  0  0  0  0  0
    1.8713    2.2174    5.3403 C   0  0  0  0  0  0  0  0  0  0  0  0
    2.6312    1.1176    5.0284 C   0  0  0  0  0  0  0  0  0  0  0  0
    2.8414   -3.4105   10.5547 C   0  0  0  0  0  0  0  0  0  0  0  0
    4.8199   -6.7451   13.5598 O   0  0  0  0  0  0  0  0  0  0  0  0
    3.8764   -6.5360   14.5607 C   0  0  0  0  0  0  0  0  0  0  0  0
    4.1136   -7.2731   15.8302 C   0  0  0  0  0  0  0  0  0  0  0  0
    4.5661   -8.6945   15.7207 C   0  0  0  0  0  0  0  0  0  0  0  0
    4.5625   -9.6091   17.2107 S   0  0  0  0  0  6  0  0  0  0  0  0
    5.7574  -10.5665   17.1287 O   0  0  0  0  0  0  0  0  0  0  0  0
    4.6155   -8.8260   18.4578 O   0  0  0  0  0  0  0  0  0  0  0  0
    3.1195  -10.6694   17.2263 C   0  0  0  0  0  0  0  0  0  0  0  0
  1  2  1  0
  2  3  2  0
  3  4  1  0
  4  5  2  0
  5  6  1  0
  6  7  2  0
  7  8  1  0
  8  9  2  0
  9 10  1  0
 10 11  2  0
 11 12  1  0
 12 13  2  0
 12 14  1  0
 14 15  1  0
 15 16  1  0
 16 17  2  0
 17 18  1  0
 18 19  2  0
 19 20  1  0
 20 21  1  0
 21 22  1  0
 22 23  1  0
 23 24  2  0
 23 25  1  0
 21 26  1  0
 26 27  1  0
 27 28  2  0
  6 29  1  0
  4 30  1  0
 30 31  1  0
 31 32  1  0
 32 33  1  0
 33 34  1  0
 34 35  2  0
 34 36  2  0
 34 37  1  0
  7  2  1  0
 13  8  1  0
 28 16  1  0
 27 19  1  0
 22 20  1  0
M  END
$$$$
