
     RDKit          3D

 37 41  0  0  0  0  0  0  0  0999 V2000
   10.9056    1.0709   -6.3976 C   0  0  0  0  0  0  0  0  0  0  0  0
   10.0873    2.2088   -5.9299 C   0  0  0  0  0  0  0  0  0  0  0  0
    9.1161    1.9959   -4.9714 C   0  0  0  0  0  0  0  0  0  0  0  0
    8.3295    3.0286   -4.5061 C   0  0  0  0  0  0  0  0  0  0  0  0
    8.5274    4.2859   -5.0146 C   0  0  0  0  0  0  0  0  0  0  0  0
    9.5056    4.4895   -5.9773 C   0  0  0  0  0  0  0  0  0  0  0  0
   10.2944    3.4684   -6.4476 C   0  0  0  0  0  0  0  0  0  0  0  0
   11.3333    3.6268   -7.4551 C   0  0  0  0  0  0  0  0  0  0  0  0
   12.6508    3.5756   -7.0355 C   0  0  0  0  0  0  0  0  0  0  0  0
   13.6444    3.7244   -7.9805 C   0  0  0  0  0  0  0  0  0  0  0  0
   13.3421    3.9212   -9.3230 C   0  0  0  0  0  0  0  0  0  0  0  0
   12.0268    3.9742   -9.7543 C   0  0  0  0  0  0  0  0  0  0  0  0
   11.0459    3.8242   -8.8000 C   0  0  0  0  0  0  0  0  0  0  0  0
   11.7633    4.1845  -11.1854 C   0  0  0  0  0  0  0  0  0  0  0  0
   11.2993    3.0218  -11.8452 O   0  0  0  0  0  0  0  0  0  0  0  0
   11.0342    3.1143  -13.1951 C   0  0  0  0  0  0  0  0  0  0  0  0
   11.3048    4.2149  -13.9173 N   0  0  0  0  0  0  0  0  0  0  0  0
   11.0541    4.3212  -15.2228 C   0  0  0  0  0  0  0  0  0  0  0  0
   10.4865    3.2648  -15.9041 C   0  0  0  0  0  0  0  0  0  0  0  0
   10.0414    3.0166  -17.2523 C   0  0  0  0  0  0  0  0  0  0  0  0
   10.5697    1.5450  -17.3175 C   0  0  0  0  0  0  0  0  0  0  0  0
   10.5270    2.4029  -18.4192 C   0  0  0  0  0  0  0  0  0  0  0  0
   11.7758    2.9619  -18.9952 C   0  0  0  0  0  0  0  0  0  0  0  0
   12.6550    3.4590  -18.2657 O   0  0  0  0  0  0  0  0  0  0  0  0
   11.9837    2.9390  -20.3621 O   0  0  0  0  0  0  0  0  0  0  0  0
    9.6335    1.1350  -16.2107 C   0  0  0  0  0  0  0  0  0  0  0  0
   10.1849    2.0911  -15.2012 C   0  0  0  0  0  0  0  0  0  0  0  0
   10.4630    2.0356  -13.8581 C   0  0  0  0  0  0  0  0  0  0  0  0
    9.7168    5.8498   -6.5248 C   0  0  0  0  0  0  0  0  0  0  0  0
    7.3870    2.7215   -3.5500 O   0  0  0  0  0  0  0  0  0  0  0  0
    7.2262    1.4108   -3.1117 C   0  0  0  0  0  0  0  0  0  0  0  0
    6.2033    1.2097   -2.0514 C   0  0  0  0  0  0  0  0  0  0  0  0
    4.8142    1.6808   -2.3438 C   0  0  0  0  0  0  0  0  0  0  0  0
    3.5420    0.9092   -1.4258 S   0  0  0  0  0  6  0  0  0  0  0  0
    4.2396   -0.0025   -0.4093 O   0  0  0  0  0  0  0  0  0  0  0  0
    2.5918    1.8063   -0.7449 O   0  0  0  0  0  0  0  0  0  0  0  0
    2.6496   -0.2025   -2.5095 C   0  0  0  0  0  0  0  0  0  0  0  0
  1  2  1  0
  2  3  2  0
  3  4  1  0
  4  5  2  0
  5  6  1  0
  6  7  2  0
  7  8  1  0
  8  9  2  0
  9 10  1  0
 10 11  2  0
 11 12  1  0
 12 13  2  0
 12 14  1  0
 14 15  1  0
 15 16  1  0
 16 17  2  0
 17 18  1  0
 18 19  2  0
 19 20  1  0
 20 21  1  0
 21 22  1  0
 22 23  1  0
 23 24  2  0
 23 25  1  0
 21 26  1  0
 26 27  1  0
 27 28  2  0
  6 29  1  0
  4 30  1  0
 30 31  1  0
 31 32  1  0
 32 33  1  0
 33 34  1  0
 34 35  2  0
 34 36  2  0
 34 37  1  0
  7  2  1  0
 13  8  1  0
 28 16  1  0
 27 19  1  0
 22 20  1  0
M  END
$$$$
