
     RDKit          3D

 37 41  0  0  0  0  0  0  0  0999 V2000
    3.8524  -12.8709    8.1316 C   0  0  0  0  0  0  0  0  0  0  0  0
    5.1114  -13.4910    8.5936 C   0  0  0  0  0  0  0  0  0  0  0  0
    5.3680  -14.8128    8.2866 C   0  0  0  0  0  0  0  0  0  0  0  0
    6.5299  -15.4317    8.6973 C   0  0  0  0  0  0  0  0  0  0  0  0
    7.4387  -14.7075    9.4240 C   0  0  0  0  0  0  0  0  0  0  0  0
    7.1718  -13.3801    9.7273 C   0  0  0  0  0  0  0  0  0  0  0  0
    6.0181  -12.7540    9.3233 C   0  0  0  0  0  0  0  0  0  0  0  0
    5.6888  -11.3660    9.6138 C   0  0  0  0  0  0  0  0  0  0  0  0
    5.0310  -11.0946   10.8004 C   0  0  0  0  0  0  0  0  0  0  0  0
    4.7134   -9.7834   11.0871 C   0  0  0  0  0  0  0  0  0  0  0  0
    5.0407   -8.7524   10.2139 C   0  0  0  0  0  0  0  0  0  0  0  0
    5.6992   -9.0124    9.0232 C   0  0  0  0  0  0  0  0  0  0  0  0
    6.0097  -10.3257    8.7505 C   0  0  0  0  0  0  0  0  0  0  0  0
    6.0214   -7.8849    8.1363 C   0  0  0  0  0  0  0  0  0  0  0  0
    5.0464   -6.8595    8.1591 O   0  0  0  0  0  0  0  0  0  0  0  0
    5.3883   -5.6388    7.6170 C   0  0  0  0  0  0  0  0  0  0  0  0
    6.5504   -5.4255    6.9765 N   0  0  0  0  0  0  0  0  0  0  0  0
    6.8969   -4.2514    6.4473 C   0  0  0  0  0  0  0  0  0  0  0  0
    6.0421   -3.1731    6.5424 C   0  0  0  0  0  0  0  0  0  0  0  0
    6.0720   -1.7857    6.1531 C   0  0  0  0  0  0  0  0  0  0  0  0
    4.5774   -1.7253    5.6935 C   0  0  0  0  0  0  0  0  0  0  0  0
    5.6014   -0.9830    5.1004 C   0  0  0  0  0  0  0  0  0  0  0  0
    6.0904   -1.3165    3.7389 C   0  0  0  0  0  0  0  0  0  0  0  0
    5.9225   -2.4521    3.2548 O   0  0  0  0  0  0  0  0  0  0  0  0
    6.7454   -0.3631    2.9810 O   0  0  0  0  0  0  0  0  0  0  0  0
    4.1100   -2.0240    7.0942 C   0  0  0  0  0  0  0  0  0  0  0  0
    4.8154   -3.3390    7.1983 C   0  0  0  0  0  0  0  0  0  0  0  0
    4.5091   -4.5689    7.7255 C   0  0  0  0  0  0  0  0  0  0  0  0
    8.1563  -12.6001   10.5129 C   0  0  0  0  0  0  0  0  0  0  0  0
    6.6993  -16.7522    8.3445 O   0  0  0  0  0  0  0  0  0  0  0  0
    7.9114  -17.3952    8.5748 C   0  0  0  0  0  0  0  0  0  0  0  0
    7.9605  -18.8299    8.1871 C   0  0  0  0  0  0  0  0  0  0  0  0
    7.3026  -19.2126    6.8995 C   0  0  0  0  0  0  0  0  0  0  0  0
    7.8808  -20.6880    6.1609 S   0  0  0  0  0  6  0  0  0  0  0  0
    7.2612  -21.8395    6.9617 O   0  0  0  0  0  0  0  0  0  0  0  0
    7.6006  -20.8521    4.7236 O   0  0  0  0  0  0  0  0  0  0  0  0
    9.6432  -20.8185    6.4496 C   0  0  0  0  0  0  0  0  0  0  0  0
  1  2  1  0
  2  3  2  0
  3  4  1  0
  4  5  2  0
  5  6  1  0
  6  7  2  0
  7  8  1  0
  8  9  2  0
  9 10  1  0
 10 11  2  0
 11 12  1  0
 12 13  2  0
 12 14  1  0
 14 15  1  0
 15 16  1  0
 16 17  2  0
 17 18  1  0
 18 19  2  0
 19 20  1  0
 20 21  1  0
 21 22  1  0
 22 23  1  0
 23 24  2  0
 23 25  1  0
 21 26  1  0
 26 27  1  0
 27 28  2  0
  6 29  1  0
  4 30  1  0
 30 31  1  0
 31 32  1  0
 32 33  1  0
 33 34  1  0
 34 35  2  0
 34 36  2  0
 34 37  1  0
  7  2  1  0
 13  8  1  0
 28 16  1  0
 27 19  1  0
 22 20  1  0
M  END
$$$$
