
     RDKit          3D

 37 41  0  0  0  0  0  0  0  0999 V2000
    7.8706  -11.4087    8.5592 C   0  0  0  0  0  0  0  0  0  0  0  0
    7.3462  -11.8359    9.8728 C   0  0  0  0  0  0  0  0  0  0  0  0
    7.9353  -12.9024   10.5230 C   0  0  0  0  0  0  0  0  0  0  0  0
    7.4785  -13.3349   11.7503 C   0  0  0  0  0  0  0  0  0  0  0  0
    6.4179  -12.6831   12.3236 C   0  0  0  0  0  0  0  0  0  0  0  0
    5.8329  -11.6127   11.6624 C   0  0  0  0  0  0  0  0  0  0  0  0
    6.2797  -11.1739   10.4401 C   0  0  0  0  0  0  0  0  0  0  0  0
    5.7032  -10.0578    9.7043 C   0  0  0  0  0  0  0  0  0  0  0  0
    4.8754  -10.3501    8.6348 C   0  0  0  0  0  0  0  0  0  0  0  0
    4.3231   -9.3013    7.9296 C   0  0  0  0  0  0  0  0  0  0  0  0
    4.5841   -7.9803    8.2751 C   0  0  0  0  0  0  0  0  0  0  0  0
    5.4112   -7.6760    9.3438 C   0  0  0  0  0  0  0  0  0  0  0  0
    5.9553   -8.7329   10.0383 C   0  0  0  0  0  0  0  0  0  0  0  0
    5.6536   -6.2621    9.6659 C   0  0  0  0  0  0  0  0  0  0  0  0
    5.2989   -5.3810    8.6168 O   0  0  0  0  0  0  0  0  0  0  0  0
    4.6541   -4.2101    8.9545 C   0  0  0  0  0  0  0  0  0  0  0  0
    4.3088   -3.9062   10.2172 N   0  0  0  0  0  0  0  0  0  0  0  0
    3.6843   -2.7790   10.5607 C   0  0  0  0  0  0  0  0  0  0  0  0
    3.3583   -1.8496    9.5951 C   0  0  0  0  0  0  0  0  0  0  0  0
    2.6726   -0.5823    9.5620 C   0  0  0  0  0  0  0  0  0  0  0  0
    3.6435    0.0882    8.5341 C   0  0  0  0  0  0  0  0  0  0  0  0
    2.9978    0.7846    9.5585 C   0  0  0  0  0  0  0  0  0  0  0  0
    3.7578    1.2911   10.7288 C   0  0  0  0  0  0  0  0  0  0  0  0
    4.6527    0.6065   11.2606 O   0  0  0  0  0  0  0  0  0  0  0  0
    3.4815    2.5414   11.2508 O   0  0  0  0  0  0  0  0  0  0  0  0
    3.2583   -0.9162    7.4793 C   0  0  0  0  0  0  0  0  0  0  0  0
    3.6963   -2.1137    8.2615 C   0  0  0  0  0  0  0  0  0  0  0  0
    4.3379   -3.2900    7.9631 C   0  0  0  0  0  0  0  0  0  0  0  0
    4.6865  -10.9104   12.2849 C   0  0  0  0  0  0  0  0  0  0  0  0
    8.1281  -14.4059   12.3229 O   0  0  0  0  0  0  0  0  0  0  0  0
    7.7975  -14.8288   13.6064 C   0  0  0  0  0  0  0  0  0  0  0  0
    8.6027  -15.9611   14.1363 C   0  0  0  0  0  0  0  0  0  0  0  0
    8.3273  -17.3185   13.5716 C   0  0  0  0  0  0  0  0  0  0  0  0
    8.2889  -18.6285   14.7288 S   0  0  0  0  0  6  0  0  0  0  0  0
    8.6547  -18.0132   16.0847 O   0  0  0  0  0  0  0  0  0  0  0  0
    7.0226  -19.3754   14.8277 O   0  0  0  0  0  0  0  0  0  0  0  0
    9.6271  -19.7586   14.3565 C   0  0  0  0  0  0  0  0  0  0  0  0
  1  2  1  0
  2  3  2  0
  3  4  1  0
  4  5  2  0
  5  6  1  0
  6  7  2  0
  7  8  1  0
  8  9  2  0
  9 10  1  0
 10 11  2  0
 11 12  1  0
 12 13  2  0
 12 14  1  0
 14 15  1  0
 15 16  1  0
 16 17  2  0
 17 18  1  0
 18 19  2  0
 19 20  1  0
 20 21  1  0
 21 22  1  0
 22 23  1  0
 23 24  2  0
 23 25  1  0
 21 26  1  0
 26 27  1  0
 27 28  2  0
  6 29  1  0
  4 30  1  0
 30 31  1  0
 31 32  1  0
 32 33  1  0
 33 34  1  0
 34 35  2  0
 34 36  2  0
 34 37  1  0
  7  2  1  0
 13  8  1  0
 28 16  1  0
 27 19  1  0
 22 20  1  0
M  END
$$$$
