
     RDKit          3D

 37 41  0  0  0  0  0  0  0  0999 V2000
    8.7684    2.2165   -8.0001 C   0  0  0  0  0  0  0  0  0  0  0  0
    8.5228    3.1764   -6.9041 C   0  0  0  0  0  0  0  0  0  0  0  0
    7.4553    2.9730   -6.0519 C   0  0  0  0  0  0  0  0  0  0  0  0
    7.1890    3.8433   -5.0158 C   0  0  0  0  0  0  0  0  0  0  0  0
    8.0091    4.9274   -4.8412 C   0  0  0  0  0  0  0  0  0  0  0  0
    9.0790    5.1232   -5.7026 C   0  0  0  0  0  0  0  0  0  0  0  0
    9.3532    4.2628   -6.7374 C   0  0  0  0  0  0  0  0  0  0  0  0
   10.4608    4.4210   -7.6690 C   0  0  0  0  0  0  0  0  0  0  0  0
   11.6499    3.7792   -7.3710 C   0  0  0  0  0  0  0  0  0  0  0  0
   12.7068    3.9213   -8.2458 C   0  0  0  0  0  0  0  0  0  0  0  0
   12.5921    4.6871   -9.4003 C   0  0  0  0  0  0  0  0  0  0  0  0
   11.4066    5.3339   -9.7086 C   0  0  0  0  0  0  0  0  0  0  0  0
   10.3605    5.1831   -8.8264 C   0  0  0  0  0  0  0  0  0  0  0  0
   11.3398    6.1309  -10.9423 C   0  0  0  0  0  0  0  0  0  0  0  0
   10.3817    5.6510  -11.8667 O   0  0  0  0  0  0  0  0  0  0  0  0
   10.8469    5.0439  -13.0139 C   0  0  0  0  0  0  0  0  0  0  0  0
   12.1434    5.0505  -13.3676 N   0  0  0  0  0  0  0  0  0  0  0  0
   12.6097    4.4692  -14.4736 C   0  0  0  0  0  0  0  0  0  0  0  0
   11.7446    3.8157  -15.3263 C   0  0  0  0  0  0  0  0  0  0  0  0
   11.8509    3.1294  -16.5892 C   0  0  0  0  0  0  0  0  0  0  0  0
   10.8545    1.9802  -16.2212 C   0  0  0  0  0  0  0  0  0  0  0  0
   11.9601    1.8093  -17.0578 C   0  0  0  0  0  0  0  0  0  0  0  0
   13.1439    1.0374  -16.6035 C   0  0  0  0  0  0  0  0  0  0  0  0
   13.5491    1.1125  -15.4277 O   0  0  0  0  0  0  0  0  0  0  0  0
   13.8207    0.2160  -17.4865 O   0  0  0  0  0  0  0  0  0  0  0  0
    9.7272    2.9701  -16.0829 C   0  0  0  0  0  0  0  0  0  0  0  0
   10.3815    3.7759  -15.0059 C   0  0  0  0  0  0  0  0  0  0  0  0
    9.9549    4.3914  -13.8554 C   0  0  0  0  0  0  0  0  0  0  0  0
    9.9635    6.2961   -5.5110 C   0  0  0  0  0  0  0  0  0  0  0  0
    6.1031    3.5595   -4.2176 O   0  0  0  0  0  0  0  0  0  0  0  0
    5.3553    2.4049   -4.4264 C   0  0  0  0  0  0  0  0  0  0  0  0
    4.1987    2.2153   -3.5113 C   0  0  0  0  0  0  0  0  0  0  0  0
    4.4663    2.3118   -2.0428 C   0  0  0  0  0  0  0  0  0  0  0  0
    3.0694    2.1478   -1.0044 S   0  0  0  0  0  6  0  0  0  0  0  0
    1.8484    2.4678   -1.8750 O   0  0  0  0  0  0  0  0  0  0  0  0
    2.8994    0.8438   -0.3395 O   0  0  0  0  0  0  0  0  0  0  0  0
    3.1158    3.4490    0.2249 C   0  0  0  0  0  0  0  0  0  0  0  0
  1  2  1  0
  2  3  2  0
  3  4  1  0
  4  5  2  0
  5  6  1  0
  6  7  2  0
  7  8  1  0
  8  9  2  0
  9 10  1  0
 10 11  2  0
 11 12  1  0
 12 13  2  0
 12 14  1  0
 14 15  1  0
 15 16  1  0
 16 17  2  0
 17 18  1  0
 18 19  2  0
 19 20  1  0
 20 21  1  0
 21 22  1  0
 22 23  1  0
 23 24  2  0
 23 25  1  0
 21 26  1  0
 26 27  1  0
 27 28  2  0
  6 29  1  0
  4 30  1  0
 30 31  1  0
 31 32  1  0
 32 33  1  0
 33 34  1  0
 34 35  2  0
 34 36  2  0
 34 37  1  0
  7  2  1  0
 13  8  1  0
 28 16  1  0
 27 19  1  0
 22 20  1  0
M  END
$$$$
