
     RDKit          3D

 37 41  0  0  0  0  0  0  0  0999 V2000
    7.9900    2.9759   -4.3587 C   0  0  0  0  0  0  0  0  0  0  0  0
    9.0676    2.2730   -3.6323 C   0  0  0  0  0  0  0  0  0  0  0  0
    8.7438    1.4441   -2.5762 C   0  0  0  0  0  0  0  0  0  0  0  0
    9.7171    0.7686   -1.8703 C   0  0  0  0  0  0  0  0  0  0  0  0
   11.0277    0.9334   -2.2360 C   0  0  0  0  0  0  0  0  0  0  0  0
   11.3428    1.7683   -3.2984 C   0  0  0  0  0  0  0  0  0  0  0  0
   10.3817    2.4456   -4.0080 C   0  0  0  0  0  0  0  0  0  0  0  0
   10.6570    3.3326   -5.1292 C   0  0  0  0  0  0  0  0  0  0  0  0
   10.5610    4.6956   -4.9110 C   0  0  0  0  0  0  0  0  0  0  0  0
   10.8195    5.5465   -5.9654 C   0  0  0  0  0  0  0  0  0  0  0  0
   11.1685    5.0588   -7.2195 C   0  0  0  0  0  0  0  0  0  0  0  0
   11.2676    3.6963   -7.4493 C   0  0  0  0  0  0  0  0  0  0  0  0
   11.0068    2.8593   -6.3878 C   0  0  0  0  0  0  0  0  0  0  0  0
   11.6401    3.2347   -8.7945 C   0  0  0  0  0  0  0  0  0  0  0  0
   10.5262    3.0223   -9.6412 O   0  0  0  0  0  0  0  0  0  0  0  0
   10.6992    3.2352  -10.9923 C   0  0  0  0  0  0  0  0  0  0  0  0
   11.9013    3.4700  -11.5452 N   0  0  0  0  0  0  0  0  0  0  0  0
   12.0859    3.6786  -12.8494 C   0  0  0  0  0  0  0  0  0  0  0  0
   11.0082    3.6602  -13.7099 C   0  0  0  0  0  0  0  0  0  0  0  0
   10.8003    3.8750  -15.1199 C   0  0  0  0  0  0  0  0  0  0  0  0
    9.7551    2.7237  -15.2958 C   0  0  0  0  0  0  0  0  0  0  0  0
   10.6621    3.1055  -16.2873 C   0  0  0  0  0  0  0  0  0  0  0  0
   11.8062    2.2307  -16.6474 C   0  0  0  0  0  0  0  0  0  0  0  0
   12.2449    1.3825  -15.8472 O   0  0  0  0  0  0  0  0  0  0  0  0
   12.4074    2.3453  -17.8874 O   0  0  0  0  0  0  0  0  0  0  0  0
    8.7998    3.4160  -14.3589 C   0  0  0  0  0  0  0  0  0  0  0  0
    9.7308    3.4181  -13.1881 C   0  0  0  0  0  0  0  0  0  0  0  0
    9.5973    3.2105  -11.8378 C   0  0  0  0  0  0  0  0  0  0  0  0
   12.7605    1.9442   -3.6911 C   0  0  0  0  0  0  0  0  0  0  0  0
    9.2998   -0.0355   -0.8330 O   0  0  0  0  0  0  0  0  0  0  0  0
    7.9444   -0.2635   -0.6169 C   0  0  0  0  0  0  0  0  0  0  0  0
    7.6219   -1.3505    0.3451 C   0  0  0  0  0  0  0  0  0  0  0  0
    8.5968   -1.5940    1.4530 C   0  0  0  0  0  0  0  0  0  0  0  0
    7.9006   -1.8190    3.0408 S   0  0  0  0  0  6  0  0  0  0  0  0
    6.4631   -1.2921    2.9570 O   0  0  0  0  0  0  0  0  0  0  0  0
    7.9144   -3.1938    3.5710 O   0  0  0  0  0  0  0  0  0  0  0  0
    8.7298   -0.7226    4.1884 C   0  0  0  0  0  0  0  0  0  0  0  0
  1  2  1  0
  2  3  2  0
  3  4  1  0
  4  5  2  0
  5  6  1  0
  6  7  2  0
  7  8  1  0
  8  9  2  0
  9 10  1  0
 10 11  2  0
 11 12  1  0
 12 13  2  0
 12 14  1  0
 14 15  1  0
 15 16  1  0
 16 17  2  0
 17 18  1  0
 18 19  2  0
 19 20  1  0
 20 21  1  0
 21 22  1  0
 22 23  1  0
 23 24  2  0
 23 25  1  0
 21 26  1  0
 26 27  1  0
 27 28  2  0
  6 29  1  0
  4 30  1  0
 30 31  1  0
 31 32  1  0
 32 33  1  0
 33 34  1  0
 34 35  2  0
 34 36  2  0
 34 37  1  0
  7  2  1  0
 13  8  1  0
 28 16  1  0
 27 19  1  0
 22 20  1  0
M  END
$$$$
