
     RDKit          3D

 37 41  0  0  0  0  0  0  0  0999 V2000
    3.4640   -1.5039    5.4982 C   0  0  0  0  0  0  0  0  0  0  0  0
    2.5594   -0.3723    5.2076 C   0  0  0  0  0  0  0  0  0  0  0  0
    1.9328   -0.3043    3.9787 C   0  0  0  0  0  0  0  0  0  0  0  0
    1.0807    0.7337    3.6649 C   0  0  0  0  0  0  0  0  0  0  0  0
    0.8612    1.7097    4.6017 C   0  0  0  0  0  0  0  0  0  0  0  0
    1.4953    1.6324    5.8334 C   0  0  0  0  0  0  0  0  0  0  0  0
    2.3457    0.6034    6.1563 C   0  0  0  0  0  0  0  0  0  0  0  0
    3.0357    0.4740    7.4317 C   0  0  0  0  0  0  0  0  0  0  0  0
    3.9345    1.4662    7.7814 C   0  0  0  0  0  0  0  0  0  0  0  0
    4.5947    1.3551    8.9873 C   0  0  0  0  0  0  0  0  0  0  0  0
    4.3710    0.2785    9.8378 C   0  0  0  0  0  0  0  0  0  0  0  0
    3.4736   -0.7205    9.4979 C   0  0  0  0  0  0  0  0  0  0  0  0
    2.8221   -0.5963    8.2915 C   0  0  0  0  0  0  0  0  0  0  0  0
    3.2750   -1.8366   10.4341 C   0  0  0  0  0  0  0  0  0  0  0  0
    3.5680   -3.1001    9.8679 O   0  0  0  0  0  0  0  0  0  0  0  0
    4.0328   -4.0872   10.7108 C   0  0  0  0  0  0  0  0  0  0  0  0
    4.1911   -3.9021   12.0324 N   0  0  0  0  0  0  0  0  0  0  0  0
    4.6401   -4.8455   12.8614 C   0  0  0  0  0  0  0  0  0  0  0  0
    4.9706   -6.0922   12.3727 C   0  0  0  0  0  0  0  0  0  0  0  0
    5.5084   -7.3131   12.9182 C   0  0  0  0  0  0  0  0  0  0  0  0
    4.5957   -8.2684   12.0796 C   0  0  0  0  0  0  0  0  0  0  0  0
    5.0342   -8.5544   13.3747 C   0  0  0  0  0  0  0  0  0  0  0  0
    4.0898   -8.5260   14.5197 C   0  0  0  0  0  0  0  0  0  0  0  0
    3.0873   -7.7863   14.5093 O   0  0  0  0  0  0  0  0  0  0  0  0
    4.3106   -9.3273   15.6249 O   0  0  0  0  0  0  0  0  0  0  0  0
    5.2127   -7.7715   10.7981 C   0  0  0  0  0  0  0  0  0  0  0  0
    4.8234   -6.3417   11.0021 C   0  0  0  0  0  0  0  0  0  0  0  0
    4.3578   -5.3347   10.1936 C   0  0  0  0  0  0  0  0  0  0  0  0
    1.2558    2.6891    6.8437 C   0  0  0  0  0  0  0  0  0  0  0  0
    0.5015    0.7177    2.4155 O   0  0  0  0  0  0  0  0  0  0  0  0
   -0.4474    1.6728    2.0644 C   0  0  0  0  0  0  0  0  0  0  0  0
   -1.0504    1.5122    0.7147 C   0  0  0  0  0  0  0  0  0  0  0  0
   -2.5156    1.7830    0.5843 C   0  0  0  0  0  0  0  0  0  0  0  0
   -2.9597    3.0146   -0.5744 S   0  0  0  0  0  6  0  0  0  0  0  0
   -2.4220    2.5413   -1.9301 O   0  0  0  0  0  0  0  0  0  0  0  0
   -4.3954    3.3314   -0.6727 O   0  0  0  0  0  0  0  0  0  0  0  0
   -2.0381    4.5049   -0.2050 C   0  0  0  0  0  0  0  0  0  0  0  0
  1  2  1  0
  2  3  2  0
  3  4  1  0
  4  5  2  0
  5  6  1  0
  6  7  2  0
  7  8  1  0
  8  9  2  0
  9 10  1  0
 10 11  2  0
 11 12  1  0
 12 13  2  0
 12 14  1  0
 14 15  1  0
 15 16  1  0
 16 17  2  0
 17 18  1  0
 18 19  2  0
 19 20  1  0
 20 21  1  0
 21 22  1  0
 22 23  1  0
 23 24  2  0
 23 25  1  0
 21 26  1  0
 26 27  1  0
 27 28  2  0
  6 29  1  0
  4 30  1  0
 30 31  1  0
 31 32  1  0
 32 33  1  0
 33 34  1  0
 34 35  2  0
 34 36  2  0
 34 37  1  0
  7  2  1  0
 13  8  1  0
 28 16  1  0
 27 19  1  0
 22 20  1  0
M  END
$$$$
