
     RDKit          3D

 37 41  0  0  0  0  0  0  0  0999 V2000
   12.4781    1.1598   -7.1193 C   0  0  0  0  0  0  0  0  0  0  0  0
   12.6501    1.6470   -5.7350 C   0  0  0  0  0  0  0  0  0  0  0  0
   13.5671    1.0284   -4.9082 C   0  0  0  0  0  0  0  0  0  0  0  0
   13.7603    1.4500   -3.6095 C   0  0  0  0  0  0  0  0  0  0  0  0
   13.0199    2.5054   -3.1443 C   0  0  0  0  0  0  0  0  0  0  0  0
   12.1012    3.1203   -3.9827 C   0  0  0  0  0  0  0  0  0  0  0  0
   11.9009    2.7086   -5.2775 C   0  0  0  0  0  0  0  0  0  0  0  0
   10.9515    3.3173   -6.1981 C   0  0  0  0  0  0  0  0  0  0  0  0
    9.6051    3.2160   -5.8955 C   0  0  0  0  0  0  0  0  0  0  0  0
    8.6956    3.7886   -6.7600 C   0  0  0  0  0  0  0  0  0  0  0  0
    9.1091    4.4530   -7.9089 C   0  0  0  0  0  0  0  0  0  0  0  0
   10.4542    4.5605   -8.2218 C   0  0  0  0  0  0  0  0  0  0  0  0
   11.3503    3.9842   -7.3499 C   0  0  0  0  0  0  0  0  0  0  0  0
   10.8365    5.2739   -9.4492 C   0  0  0  0  0  0  0  0  0  0  0  0
   11.7200    4.5361  -10.2725 O   0  0  0  0  0  0  0  0  0  0  0  0
   11.2025    3.9625  -11.4144 C   0  0  0  0  0  0  0  0  0  0  0  0
    9.9818    4.2605  -11.8910 N   0  0  0  0  0  0  0  0  0  0  0  0
    9.4661    3.7146  -12.9930 C   0  0  0  0  0  0  0  0  0  0  0  0
   10.1953    2.7892  -13.7101 C   0  0  0  0  0  0  0  0  0  0  0  0
    9.9783    1.9760  -14.8803 C   0  0  0  0  0  0  0  0  0  0  0  0
   11.4203    2.1579  -15.4603 C   0  0  0  0  0  0  0  0  0  0  0  0
   10.2786    2.0140  -16.2523 C   0  0  0  0  0  0  0  0  0  0  0  0
    9.7376    3.1632  -17.0206 C   0  0  0  0  0  0  0  0  0  0  0  0
    9.8269    4.3275  -16.5861 O   0  0  0  0  0  0  0  0  0  0  0  0
    9.1209    2.9569  -18.2411 O   0  0  0  0  0  0  0  0  0  0  0  0
   12.0156    1.4692  -14.2599 C   0  0  0  0  0  0  0  0  0  0  0  0
   11.4756    2.4420  -13.2600 C   0  0  0  0  0  0  0  0  0  0  0  0
   11.9578    3.0337  -12.1191 C   0  0  0  0  0  0  0  0  0  0  0  0
   11.3025    4.2608   -3.4766 C   0  0  0  0  0  0  0  0  0  0  0  0
   14.6961    0.7727   -2.8596 O   0  0  0  0  0  0  0  0  0  0  0  0
   15.3776   -0.3155   -3.3953 C   0  0  0  0  0  0  0  0  0  0  0  0
   16.3475   -0.9776   -2.4831 C   0  0  0  0  0  0  0  0  0  0  0  0
   15.9518   -1.1132   -1.0470 C   0  0  0  0  0  0  0  0  0  0  0  0
   17.0220   -2.0733   -0.0523 S   0  0  0  0  0  6  0  0  0  0  0  0
   16.4798   -3.5068   -0.0993 O   0  0  0  0  0  0  0  0  0  0  0  0
   18.4492   -2.0510   -0.4185 O   0  0  0  0  0  0  0  0  0  0  0  0
   16.8298   -1.5608    1.6527 C   0  0  0  0  0  0  0  0  0  0  0  0
  1  2  1  0
  2  3  2  0
  3  4  1  0
  4  5  2  0
  5  6  1  0
  6  7  2  0
  7  8  1  0
  8  9  2  0
  9 10  1  0
 10 11  2  0
 11 12  1  0
 12 13  2  0
 12 14  1  0
 14 15  1  0
 15 16  1  0
 16 17  2  0
 17 18  1  0
 18 19  2  0
 19 20  1  0
 20 21  1  0
 21 22  1  0
 22 23  1  0
 23 24  2  0
 23 25  1  0
 21 26  1  0
 26 27  1  0
 27 28  2  0
  6 29  1  0
  4 30  1  0
 30 31  1  0
 31 32  1  0
 32 33  1  0
 33 34  1  0
 34 35  2  0
 34 36  2  0
 34 37  1  0
  7  2  1  0
 13  8  1  0
 28 16  1  0
 27 19  1  0
 22 20  1  0
M  END
$$$$
