
     RDKit          3D

 37 41  0  0  0  0  0  0  0  0999 V2000
   13.7120    9.7651   -9.5207 C   0  0  0  0  0  0  0  0  0  0  0  0
   13.4985    9.5241   -8.0787 C   0  0  0  0  0  0  0  0  0  0  0  0
   13.1308   10.5763   -7.2632 C   0  0  0  0  0  0  0  0  0  0  0  0
   12.9211   10.3969   -5.9120 C   0  0  0  0  0  0  0  0  0  0  0  0
   13.0848    9.1435   -5.3824 C   0  0  0  0  0  0  0  0  0  0  0  0
   13.4544    8.0929   -6.2099 C   0  0  0  0  0  0  0  0  0  0  0  0
   13.6657    8.2604   -7.5566 C   0  0  0  0  0  0  0  0  0  0  0  0
   14.0540    7.1941   -8.4686 C   0  0  0  0  0  0  0  0  0  0  0  0
   15.4057    6.9517   -8.6382 C   0  0  0  0  0  0  0  0  0  0  0  0
   15.7864    5.9441   -9.4997 C   0  0  0  0  0  0  0  0  0  0  0  0
   14.8453    5.1848  -10.1855 C   0  0  0  0  0  0  0  0  0  0  0  0
   13.4895    5.4187  -10.0233 C   0  0  0  0  0  0  0  0  0  0  0  0
   13.1245    6.4274   -9.1605 C   0  0  0  0  0  0  0  0  0  0  0  0
   12.5372    4.5862  -10.7728 C   0  0  0  0  0  0  0  0  0  0  0  0
   11.7547    3.7476   -9.9438 O   0  0  0  0  0  0  0  0  0  0  0  0
   10.9146    2.8435  -10.5584 C   0  0  0  0  0  0  0  0  0  0  0  0
   10.8449    2.7042  -11.8932 N   0  0  0  0  0  0  0  0  0  0  0  0
   10.0375    1.8357  -12.5035 C   0  0  0  0  0  0  0  0  0  0  0  0
    9.2140    1.0184  -11.7577 C   0  0  0  0  0  0  0  0  0  0  0  0
    8.2101    0.0223  -12.0358 C   0  0  0  0  0  0  0  0  0  0  0  0
    8.6380   -0.9489  -10.8858 C   0  0  0  0  0  0  0  0  0  0  0  0
    8.1157   -1.3776  -12.1085 C   0  0  0  0  0  0  0  0  0  0  0  0
    8.9805   -2.0522  -13.1089 C   0  0  0  0  0  0  0  0  0  0  0  0
   10.1228   -1.6256  -13.3645 O   0  0  0  0  0  0  0  0  0  0  0  0
    8.5270   -3.1742  -13.7781 O   0  0  0  0  0  0  0  0  0  0  0  0
    8.2919    0.0881   -9.8493 C   0  0  0  0  0  0  0  0  0  0  0  0
    9.2467    1.1197  -10.3609 C   0  0  0  0  0  0  0  0  0  0  0  0
   10.0959    2.0312   -9.7843 C   0  0  0  0  0  0  0  0  0  0  0  0
   13.6305    6.7392   -5.6342 C   0  0  0  0  0  0  0  0  0  0  0  0
   12.5569   11.5041   -5.1783 O   0  0  0  0  0  0  0  0  0  0  0  0
   12.0898   11.3657   -3.8751 C   0  0  0  0  0  0  0  0  0  0  0  0
   11.8071   12.6365   -3.1565 C   0  0  0  0  0  0  0  0  0  0  0  0
   10.7314   13.5127   -3.7152 C   0  0  0  0  0  0  0  0  0  0  0  0
    9.9447   14.5731   -2.5692 S   0  0  0  0  0  6  0  0  0  0  0  0
   10.9696   15.6571   -2.2148 O   0  0  0  0  0  0  0  0  0  0  0  0
    8.6790   15.1862   -3.0092 O   0  0  0  0  0  0  0  0  0  0  0  0
    9.6789   13.6707   -1.0455 C   0  0  0  0  0  0  0  0  0  0  0  0
  1  2  1  0
  2  3  2  0
  3  4  1  0
  4  5  2  0
  5  6  1  0
  6  7  2  0
  7  8  1  0
  8  9  2  0
  9 10  1  0
 10 11  2  0
 11 12  1  0
 12 13  2  0
 12 14  1  0
 14 15  1  0
 15 16  1  0
 16 17  2  0
 17 18  1  0
 18 19  2  0
 19 20  1  0
 20 21  1  0
 21 22  1  0
 22 23  1  0
 23 24  2  0
 23 25  1  0
 21 26  1  0
 26 27  1  0
 27 28  2  0
  6 29  1  0
  4 30  1  0
 30 31  1  0
 31 32  1  0
 32 33  1  0
 33 34  1  0
 34 35  2  0
 34 36  2  0
 34 37  1  0
  7  2  1  0
 13  8  1  0
 28 16  1  0
 27 19  1  0
 22 20  1  0
M  END
$$$$
