
     RDKit          3D

 37 41  0  0  0  0  0  0  0  0999 V2000
    9.0714    6.6777  -10.6809 C   0  0  0  0  0  0  0  0  0  0  0  0
   10.4935    6.7341  -11.0780 C   0  0  0  0  0  0  0  0  0  0  0  0
   10.8238    7.1282  -12.3597 C   0  0  0  0  0  0  0  0  0  0  0  0
   12.1378    7.1951  -12.7730 C   0  0  0  0  0  0  0  0  0  0  0  0
   13.1245    6.8607  -11.8826 C   0  0  0  0  0  0  0  0  0  0  0  0
   12.7825    6.4659  -10.5971 C   0  0  0  0  0  0  0  0  0  0  0  0
   11.4774    6.3958  -10.1752 C   0  0  0  0  0  0  0  0  0  0  0  0
   11.0639    5.9887   -8.8400 C   0  0  0  0  0  0  0  0  0  0  0  0
   11.0662    6.9491   -7.8440 C   0  0  0  0  0  0  0  0  0  0  0  0
   10.6764    6.5758   -6.5746 C   0  0  0  0  0  0  0  0  0  0  0  0
   10.2892    5.2711   -6.2913 C   0  0  0  0  0  0  0  0  0  0  0  0
   10.2831    4.3015   -7.2806 C   0  0  0  0  0  0  0  0  0  0  0  0
   10.6744    4.6886   -8.5424 C   0  0  0  0  0  0  0  0  0  0  0  0
    9.8646    2.9373   -6.9264 C   0  0  0  0  0  0  0  0  0  0  0  0
   10.9517    2.0591   -6.7039 O   0  0  0  0  0  0  0  0  0  0  0  0
   10.6709    0.7174   -6.5556 C   0  0  0  0  0  0  0  0  0  0  0  0
    9.5899    0.1343   -7.1010 N   0  0  0  0  0  0  0  0  0  0  0  0
    9.3032   -1.1612   -6.9667 C   0  0  0  0  0  0  0  0  0  0  0  0
   10.1382   -1.9798   -6.2352 C   0  0  0  0  0  0  0  0  0  0  0  0
   10.1492   -3.3656   -5.8392 C   0  0  0  0  0  0  0  0  0  0  0  0
   11.6867   -3.5701   -6.0469 C   0  0  0  0  0  0  0  0  0  0  0  0
   10.7357   -4.5707   -6.2609 C   0  0  0  0  0  0  0  0  0  0  0  0
   10.4079   -5.0253   -7.6355 C   0  0  0  0  0  0  0  0  0  0  0  0
   10.5005   -4.2526   -8.6084 O   0  0  0  0  0  0  0  0  0  0  0  0
    9.9912   -6.3249   -7.8587 O   0  0  0  0  0  0  0  0  0  0  0  0
   11.9903   -2.5581   -4.9730 C   0  0  0  0  0  0  0  0  0  0  0  0
   11.2815   -1.4254   -5.6455 C   0  0  0  0  0  0  0  0  0  0  0  0
   11.5286   -0.0857   -5.8147 C   0  0  0  0  0  0  0  0  0  0  0  0
   13.8516    6.1051   -9.6372 C   0  0  0  0  0  0  0  0  0  0  0  0
   12.3710    7.5987  -14.0690 O   0  0  0  0  0  0  0  0  0  0  0  0
   11.3119    7.9409  -14.9039 C   0  0  0  0  0  0  0  0  0  0  0  0
   11.5838    7.8339  -16.3619 C   0  0  0  0  0  0  0  0  0  0  0  0
   12.5438    6.7748  -16.8021 C   0  0  0  0  0  0  0  0  0  0  0  0
   12.9396    6.7694  -18.5050 S   0  0  0  0  0  6  0  0  0  0  0  0
   13.5433    8.1458  -18.8089 O   0  0  0  0  0  0  0  0  0  0  0  0
   13.8434    5.6991  -18.9620 O   0  0  0  0  0  0  0  0  0  0  0  0
   11.4165    6.7137  -19.4450 C   0  0  0  0  0  0  0  0  0  0  0  0
  1  2  1  0
  2  3  2  0
  3  4  1  0
  4  5  2  0
  5  6  1  0
  6  7  2  0
  7  8  1  0
  8  9  2  0
  9 10  1  0
 10 11  2  0
 11 12  1  0
 12 13  2  0
 12 14  1  0
 14 15  1  0
 15 16  1  0
 16 17  2  0
 17 18  1  0
 18 19  2  0
 19 20  1  0
 20 21  1  0
 21 22  1  0
 22 23  1  0
 23 24  2  0
 23 25  1  0
 21 26  1  0
 26 27  1  0
 27 28  2  0
  6 29  1  0
  4 30  1  0
 30 31  1  0
 31 32  1  0
 32 33  1  0
 33 34  1  0
 34 35  2  0
 34 36  2  0
 34 37  1  0
  7  2  1  0
 13  8  1  0
 28 16  1  0
 27 19  1  0
 22 20  1  0
M  END
$$$$
