
     RDKit          3D

 26 26  0  0  0  0  0  0  0  0999 V2000
   -7.6411   -4.4098   11.4588 C   0  0  0  0  0  0  0  0  0  0  0  0
   -7.0488   -3.0028   11.6268 C   0  0  0  0  0  0  0  0  0  0  0  0
   -5.5953   -3.0730   11.2517 C   0  0  0  0  0  0  0  0  0  0  0  0
   -4.7946   -1.8950   11.6894 C   0  0  0  0  0  0  0  0  0  0  0  0
   -3.3076   -2.0773   11.6557 C   0  0  0  0  0  0  0  0  0  0  0  0
   -2.9128   -3.3663   11.0118 C   0  0  0  0  0  0  0  0  0  0  0  0
   -2.7526   -0.9061   10.8146 C   0  0  0  0  0  0  0  0  0  0  0  0
   -2.9445   -1.2345    9.3896 C   0  0  0  0  0  0  0  0  0  0  0  0
   -2.4456   -0.5949    8.3555 C   0  0  0  0  0  0  0  0  0  0  0  0
   -2.7011   -0.9502    6.9942 C   0  0  0  0  0  0  0  0  0  0  0  0
   -1.8212   -0.2781    5.9396 C   0  0  0  0  0  0  0  0  0  0  0  0
   -2.4683   -0.7076    4.6140 C   0  0  0  0  0  0  0  0  0  0  0  0
   -3.7336   -1.3728    5.0128 C   0  0  0  0  0  0  0  0  0  0  0  0
   -4.4137   -2.1953    4.4451 O   0  0  0  0  0  0  0  0  0  0  0  0
   -4.0382   -0.7684    6.3953 C   0  0  0  0  0  0  0  0  0  0  0  0
   -4.5769    0.5702    6.0939 C   0  0  0  0  0  0  0  0  0  0  0  0
   -4.5980    1.6018    7.1789 C   0  0  0  0  0  0  0  0  0  0  0  0
   -5.3928    2.8030    6.6686 C   0  0  0  0  0  0  0  0  0  0  0  0
   -5.5446    3.8965    7.6641 C   0  0  0  0  0  0  0  0  0  0  0  0
   -5.5734    5.2710    7.0460 C   0  0  0  0  0  0  0  0  0  0  0  0
   -6.0129    6.3247    8.0513 C   0  0  0  0  0  0  0  0  0  0  0  0
   -4.9265    7.2639    8.3980 C   0  0  0  0  0  0  0  0  0  0  0  0
   -4.3387    7.2584    9.5185 O   0  0  0  0  0  0  0  0  0  0  0  0
   -4.4896    8.2210    7.4850 O   0  0  0  0  0  0  0  0  0  0  0  0
   -1.7373    1.0856    6.0767 O   0  0  0  0  0  0  0  0  0  0  0  0
   -2.7876   -1.9091   12.9284 O   0  0  0  0  0  0  0  0  0  0  0  0
  1  2  1  0
  2  3  1  0
  3  4  1  0
  4  5  1  0
  5  6  1  0
  5  7  1  0
  7  8  1  0
  8  9  2  3
  9 10  1  0
 10 11  1  0
 11 12  1  0
 12 13  1  0
 13 14  2  0
 13 15  1  0
 15 16  1  0
 16 17  1  0
 17 18  1  0
 18 19  1  0
 19 20  1  0
 20 21  1  0
 21 22  1  0
 22 23  2  0
 22 24  1  0
 11 25  1  0
  5 26  1  0
 15 10  1  0
M  END
$$$$
