
     RDKit          3D

 26 26  0  0  0  0  0  0  0  0999 V2000
    0.4330   -3.6841    5.6482 C   0  0  0  0  0  0  0  0  0  0  0  0
   -1.0653   -3.7831    5.3262 C   0  0  0  0  0  0  0  0  0  0  0  0
   -1.5216   -2.4287    4.8616 C   0  0  0  0  0  0  0  0  0  0  0  0
   -2.9022   -2.4089    4.3013 C   0  0  0  0  0  0  0  0  0  0  0  0
   -3.3261   -1.1146    3.6764 C   0  0  0  0  0  0  0  0  0  0  0  0
   -4.8094   -1.0224    3.5231 C   0  0  0  0  0  0  0  0  0  0  0  0
   -2.8512   -0.0009    4.6364 C   0  0  0  0  0  0  0  0  0  0  0  0
   -4.0257    0.4972    5.3764 C   0  0  0  0  0  0  0  0  0  0  0  0
   -4.1030    1.5975    6.0912 C   0  0  0  0  0  0  0  0  0  0  0  0
   -5.3248    2.1367    6.6023 C   0  0  0  0  0  0  0  0  0  0  0  0
   -5.5768    3.6211    6.3355 C   0  0  0  0  0  0  0  0  0  0  0  0
   -6.8352    3.9202    7.1645 C   0  0  0  0  0  0  0  0  0  0  0  0
   -7.0528    2.6937    7.9712 C   0  0  0  0  0  0  0  0  0  0  0  0
   -8.0519    2.2437    8.4817 O   0  0  0  0  0  0  0  0  0  0  0  0
   -5.6544    2.0542    8.0389 C   0  0  0  0  0  0  0  0  0  0  0  0
   -4.9378    2.8576    9.0458 C   0  0  0  0  0  0  0  0  0  0  0  0
   -3.9778    2.1719    9.9678 C   0  0  0  0  0  0  0  0  0  0  0  0
   -3.2802    3.2456   10.8018 C   0  0  0  0  0  0  0  0  0  0  0  0
   -4.0549    3.6878   11.9909 C   0  0  0  0  0  0  0  0  0  0  0  0
   -3.8272    2.8291   13.2087 C   0  0  0  0  0  0  0  0  0  0  0  0
   -2.9713    3.5449   14.2428 C   0  0  0  0  0  0  0  0  0  0  0  0
   -3.6378    4.7399   14.7998 C   0  0  0  0  0  0  0  0  0  0  0  0
   -3.7748    5.8195   14.1542 O   0  0  0  0  0  0  0  0  0  0  0  0
   -4.1584    4.7319   16.0919 O   0  0  0  0  0  0  0  0  0  0  0  0
   -4.5162    4.4297    6.6625 O   0  0  0  0  0  0  0  0  0  0  0  0
   -2.6314   -0.9170    2.4945 O   0  0  0  0  0  0  0  0  0  0  0  0
  1  2  1  0
  2  3  1  0
  3  4  1  0
  4  5  1  0
  5  6  1  0
  5  7  1  0
  7  8  1  0
  8  9  2  3
  9 10  1  0
 10 11  1  0
 11 12  1  0
 12 13  1  0
 13 14  2  0
 13 15  1  0
 15 16  1  0
 16 17  1  0
 17 18  1  0
 18 19  1  0
 19 20  1  0
 20 21  1  0
 21 22  1  0
 22 23  2  0
 22 24  1  0
 11 25  1  0
  5 26  1  0
 15 10  1  0
M  END
$$$$
