
     RDKit          3D

 26 26  0  0  0  0  0  0  0  0999 V2000
   -4.1399    4.3129    9.0018 C   0  0  0  0  0  0  0  0  0  0  0  0
   -5.2662    5.0320    8.2449 C   0  0  0  0  0  0  0  0  0  0  0  0
   -5.4863    4.2983    6.9519 C   0  0  0  0  0  0  0  0  0  0  0  0
   -6.6870    4.7474    6.1923 C   0  0  0  0  0  0  0  0  0  0  0  0
   -6.8271    4.1794    4.8127 C   0  0  0  0  0  0  0  0  0  0  0  0
   -5.6149    4.4281    3.9756 C   0  0  0  0  0  0  0  0  0  0  0  0
   -7.0070    2.6556    4.9942 C   0  0  0  0  0  0  0  0  0  0  0  0
   -5.6822    2.0674    5.2666 C   0  0  0  0  0  0  0  0  0  0  0  0
   -5.4046    0.7977    5.4618 C   0  0  0  0  0  0  0  0  0  0  0  0
   -4.1280    0.2078    5.2030 C   0  0  0  0  0  0  0  0  0  0  0  0
   -4.1276   -1.2749    4.8289 C   0  0  0  0  0  0  0  0  0  0  0  0
   -2.6342   -1.6354    4.8160 C   0  0  0  0  0  0  0  0  0  0  0  0
   -1.9553   -0.4403    5.3757 C   0  0  0  0  0  0  0  0  0  0  0  0
   -0.8234   -0.0353    5.2484 O   0  0  0  0  0  0  0  0  0  0  0  0
   -3.0532    0.2379    6.2146 C   0  0  0  0  0  0  0  0  0  0  0  0
   -3.1225   -0.5736    7.4433 C   0  0  0  0  0  0  0  0  0  0  0  0
   -3.5001    0.0934    8.7295 C   0  0  0  0  0  0  0  0  0  0  0  0
   -2.5232   -0.3770    9.8063 C   0  0  0  0  0  0  0  0  0  0  0  0
   -3.0082   -0.1713   11.1963 C   0  0  0  0  0  0  0  0  0  0  0  0
   -2.0368   -0.6451   12.2471 C   0  0  0  0  0  0  0  0  0  0  0  0
   -2.3397   -0.0283   13.6043 C   0  0  0  0  0  0  0  0  0  0  0  0
   -2.1151   -0.9728   14.7179 C   0  0  0  0  0  0  0  0  0  0  0  0
   -2.8820   -1.9491   14.9622 O   0  0  0  0  0  0  0  0  0  0  0  0
   -1.0224   -0.8278   15.5697 O   0  0  0  0  0  0  0  0  0  0  0  0
   -4.8603   -2.0612    5.6836 O   0  0  0  0  0  0  0  0  0  0  0  0
   -8.0027    4.6335    4.2379 O   0  0  0  0  0  0  0  0  0  0  0  0
  1  2  1  0
  2  3  1  0
  3  4  1  0
  4  5  1  0
  5  6  1  0
  5  7  1  0
  7  8  1  0
  8  9  2  3
  9 10  1  0
 10 11  1  0
 11 12  1  0
 12 13  1  0
 13 14  2  0
 13 15  1  0
 15 16  1  0
 16 17  1  0
 17 18  1  0
 18 19  1  0
 19 20  1  0
 20 21  1  0
 21 22  1  0
 22 23  2  0
 22 24  1  0
 11 25  1  0
  5 26  1  0
 15 10  1  0
M  END
$$$$
