
     RDKit          3D

 26 26  0  0  0  0  0  0  0  0999 V2000
   -6.3833   -1.4037    7.3992 C   0  0  0  0  0  0  0  0  0  0  0  0
   -4.8897   -1.5767    7.7119 C   0  0  0  0  0  0  0  0  0  0  0  0
   -4.1189   -1.1874    6.4820 C   0  0  0  0  0  0  0  0  0  0  0  0
   -2.6941   -1.6233    6.4914 C   0  0  0  0  0  0  0  0  0  0  0  0
   -1.8675   -1.1510    5.3342 C   0  0  0  0  0  0  0  0  0  0  0  0
   -2.4300   -1.5932    4.0226 C   0  0  0  0  0  0  0  0  0  0  0  0
   -1.8905    0.3927    5.3946 C   0  0  0  0  0  0  0  0  0  0  0  0
   -3.2986    0.8309    5.3713 C   0  0  0  0  0  0  0  0  0  0  0  0
   -3.7434    2.0675    5.3902 C   0  0  0  0  0  0  0  0  0  0  0  0
   -5.1288    2.4210    5.3685 C   0  0  0  0  0  0  0  0  0  0  0  0
   -5.4571    3.8592    4.9660 C   0  0  0  0  0  0  0  0  0  0  0  0
   -6.9664    3.9647    5.2328 C   0  0  0  0  0  0  0  0  0  0  0  0
   -7.3106    2.7070    5.9416 C   0  0  0  0  0  0  0  0  0  0  0  0
   -8.3581    2.1127    6.0449 O   0  0  0  0  0  0  0  0  0  0  0  0
   -5.9747    2.2700    6.5690 C   0  0  0  0  0  0  0  0  0  0  0  0
   -5.8206    3.1502    7.7413 C   0  0  0  0  0  0  0  0  0  0  0  0
   -5.1077    2.6266    8.9494 C   0  0  0  0  0  0  0  0  0  0  0  0
   -5.3734    3.5904   10.1051 C   0  0  0  0  0  0  0  0  0  0  0  0
   -4.7674    3.1706   11.3959 C   0  0  0  0  0  0  0  0  0  0  0  0
   -4.5066    4.3182   12.3379 C   0  0  0  0  0  0  0  0  0  0  0  0
   -3.0962    4.2637   12.9052 C   0  0  0  0  0  0  0  0  0  0  0  0
   -3.0378    3.5760   14.2114 C   0  0  0  0  0  0  0  0  0  0  0  0
   -3.3358    4.1401   15.3041 O   0  0  0  0  0  0  0  0  0  0  0  0
   -2.6427    2.2432   14.3012 O   0  0  0  0  0  0  0  0  0  0  0  0
   -4.7267    4.8038    5.6441 O   0  0  0  0  0  0  0  0  0  0  0  0
   -0.5453   -1.5175    5.5242 O   0  0  0  0  0  0  0  0  0  0  0  0
  1  2  1  0
  2  3  1  0
  3  4  1  0
  4  5  1  0
  5  6  1  0
  5  7  1  0
  7  8  1  0
  8  9  2  3
  9 10  1  0
 10 11  1  0
 11 12  1  0
 12 13  1  0
 13 14  2  0
 13 15  1  0
 15 16  1  0
 16 17  1  0
 17 18  1  0
 18 19  1  0
 19 20  1  0
 20 21  1  0
 21 22  1  0
 22 23  2  0
 22 24  1  0
 11 25  1  0
  5 26  1  0
 15 10  1  0
M  END
$$$$
