
     RDKit          3D

 26 26  0  0  0  0  0  0  0  0999 V2000
   -0.0581   -3.3119    5.3775 C   0  0  0  0  0  0  0  0  0  0  0  0
   -0.1212   -2.0144    4.5582 C   0  0  0  0  0  0  0  0  0  0  0  0
   -1.4856   -1.4166    4.7566 C   0  0  0  0  0  0  0  0  0  0  0  0
   -2.5756   -2.1307    4.0339 C   0  0  0  0  0  0  0  0  0  0  0  0
   -3.9548   -1.5837    4.2438 C   0  0  0  0  0  0  0  0  0  0  0  0
   -4.3191   -1.5149    5.6910 C   0  0  0  0  0  0  0  0  0  0  0  0
   -3.9399   -0.1524    3.6621 C   0  0  0  0  0  0  0  0  0  0  0  0
   -4.8338    0.6851    4.4835 C   0  0  0  0  0  0  0  0  0  0  0  0
   -4.4961    1.7259    5.2115 C   0  0  0  0  0  0  0  0  0  0  0  0
   -5.4322    2.5622    5.8964 C   0  0  0  0  0  0  0  0  0  0  0  0
   -5.1156    4.0580    5.9218 C   0  0  0  0  0  0  0  0  0  0  0  0
   -6.1753    4.6271    6.8776 C   0  0  0  0  0  0  0  0  0  0  0  0
   -6.8336    3.4320    7.4616 C   0  0  0  0  0  0  0  0  0  0  0  0
   -7.9294    3.2863    7.9508 O   0  0  0  0  0  0  0  0  0  0  0  0
   -5.7718    2.3275    7.3139 C   0  0  0  0  0  0  0  0  0  0  0  0
   -4.8106    2.6028    8.3970 C   0  0  0  0  0  0  0  0  0  0  0  0
   -4.6825    1.6176    9.5172 C   0  0  0  0  0  0  0  0  0  0  0  0
   -3.8944    2.2868   10.6425 C   0  0  0  0  0  0  0  0  0  0  0  0
   -4.7414    2.9977   11.6359 C   0  0  0  0  0  0  0  0  0  0  0  0
   -4.2231    2.8968   13.0478 C   0  0  0  0  0  0  0  0  0  0  0  0
   -4.9620    3.8437   13.9814 C   0  0  0  0  0  0  0  0  0  0  0  0
   -4.0713    4.8614   14.5760 C   0  0  0  0  0  0  0  0  0  0  0  0
   -3.3377    4.6358   15.5819 O   0  0  0  0  0  0  0  0  0  0  0  0
   -3.9970    6.1464   14.0431 O   0  0  0  0  0  0  0  0  0  0  0  0
   -3.8316    4.3450    6.3148 O   0  0  0  0  0  0  0  0  0  0  0  0
   -4.8613   -2.2951    3.4752 O   0  0  0  0  0  0  0  0  0  0  0  0
  1  2  1  0
  2  3  1  0
  3  4  1  0
  4  5  1  0
  5  6  1  0
  5  7  1  0
  7  8  1  0
  8  9  2  3
  9 10  1  0
 10 11  1  0
 11 12  1  0
 12 13  1  0
 13 14  2  0
 13 15  1  0
 15 16  1  0
 16 17  1  0
 17 18  1  0
 18 19  1  0
 19 20  1  0
 20 21  1  0
 21 22  1  0
 22 23  2  0
 22 24  1  0
 11 25  1  0
  5 26  1  0
 15 10  1  0
M  END
$$$$
