
     RDKit          3D

 26 26  0  0  0  0  0  0  0  0999 V2000
   -0.5479   -6.1187    6.2097 C   0  0  0  0  0  0  0  0  0  0  0  0
    0.0644   -4.8500    6.8214 C   0  0  0  0  0  0  0  0  0  0  0  0
    0.1744   -3.8248    5.7281 C   0  0  0  0  0  0  0  0  0  0  0  0
    0.1019   -2.4147    6.2043 C   0  0  0  0  0  0  0  0  0  0  0  0
    0.2329   -1.3673    5.1407 C   0  0  0  0  0  0  0  0  0  0  0  0
   -0.5130   -1.7301    3.8981 C   0  0  0  0  0  0  0  0  0  0  0  0
   -0.3778   -0.0778    5.7335 C   0  0  0  0  0  0  0  0  0  0  0  0
   -1.7975   -0.3401    6.0351 C   0  0  0  0  0  0  0  0  0  0  0  0
   -2.8012    0.4993    5.9123 C   0  0  0  0  0  0  0  0  0  0  0  0
   -4.1652    0.1614    6.1775 C   0  0  0  0  0  0  0  0  0  0  0  0
   -5.2238    0.9617    5.4177 C   0  0  0  0  0  0  0  0  0  0  0  0
   -6.5415    0.5051    6.0622 C   0  0  0  0  0  0  0  0  0  0  0  0
   -6.1248   -0.3106    7.2299 C   0  0  0  0  0  0  0  0  0  0  0  0
   -6.6987   -1.1856    7.8351 O   0  0  0  0  0  0  0  0  0  0  0  0
   -4.7120    0.2110    7.5479 C   0  0  0  0  0  0  0  0  0  0  0  0
   -4.9465    1.4896    8.2429 C   0  0  0  0  0  0  0  0  0  0  0  0
   -4.1107    1.8260    9.4388 C   0  0  0  0  0  0  0  0  0  0  0  0
   -4.9708    2.6512   10.3950 C   0  0  0  0  0  0  0  0  0  0  0  0
   -4.2594    3.0910   11.6239 C   0  0  0  0  0  0  0  0  0  0  0  0
   -5.1391    3.8428   12.5900 C   0  0  0  0  0  0  0  0  0  0  0  0
   -4.4581    4.0240   13.9382 C   0  0  0  0  0  0  0  0  0  0  0  0
   -4.9408    5.2193   14.6598 C   0  0  0  0  0  0  0  0  0  0  0  0
   -5.9945    5.2258   15.3603 O   0  0  0  0  0  0  0  0  0  0  0  0
   -4.2407    6.4222   14.6003 O   0  0  0  0  0  0  0  0  0  0  0  0
   -5.0403    2.3211    5.4808 O   0  0  0  0  0  0  0  0  0  0  0  0
    1.5719   -1.0869    4.9238 O   0  0  0  0  0  0  0  0  0  0  0  0
  1  2  1  0
  2  3  1  0
  3  4  1  0
  4  5  1  0
  5  6  1  0
  5  7  1  0
  7  8  1  0
  8  9  2  3
  9 10  1  0
 10 11  1  0
 11 12  1  0
 12 13  1  0
 13 14  2  0
 13 15  1  0
 15 16  1  0
 16 17  1  0
 17 18  1  0
 18 19  1  0
 19 20  1  0
 20 21  1  0
 21 22  1  0
 22 23  2  0
 22 24  1  0
 11 25  1  0
  5 26  1  0
 15 10  1  0
M  END
$$$$
