
     RDKit          3D

 26 26  0  0  0  0  0  0  0  0999 V2000
    0.2239   -3.2496    4.5922 C   0  0  0  0  0  0  0  0  0  0  0  0
   -0.2859   -1.8739    4.1380 C   0  0  0  0  0  0  0  0  0  0  0  0
   -1.7880   -1.9219    4.1393 C   0  0  0  0  0  0  0  0  0  0  0  0
   -2.4397   -0.6392    3.7518 C   0  0  0  0  0  0  0  0  0  0  0  0
   -3.9146   -0.5628    4.0055 C   0  0  0  0  0  0  0  0  0  0  0  0
   -4.6554   -1.6914    3.3657 C   0  0  0  0  0  0  0  0  0  0  0  0
   -4.0897   -0.6530    5.5380 C   0  0  0  0  0  0  0  0  0  0  0  0
   -4.8954    0.5023    5.9756 C   0  0  0  0  0  0  0  0  0  0  0  0
   -4.4621    1.7139    6.2430 C   0  0  0  0  0  0  0  0  0  0  0  0
   -5.2479    2.7225    6.8835 C   0  0  0  0  0  0  0  0  0  0  0  0
   -4.7529    4.1623    6.7410 C   0  0  0  0  0  0  0  0  0  0  0  0
   -5.6769    4.9482    7.6838 C   0  0  0  0  0  0  0  0  0  0  0  0
   -6.4376    3.9064    8.4176 C   0  0  0  0  0  0  0  0  0  0  0  0
   -7.5114    3.9466    8.9713 O   0  0  0  0  0  0  0  0  0  0  0  0
   -5.5271    2.6683    8.3321 C   0  0  0  0  0  0  0  0  0  0  0  0
   -4.4761    2.9225    9.3340 C   0  0  0  0  0  0  0  0  0  0  0  0
   -4.0759    1.8147   10.2584 C   0  0  0  0  0  0  0  0  0  0  0  0
   -3.7617    2.4314   11.6209 C   0  0  0  0  0  0  0  0  0  0  0  0
   -4.3637    3.7740   11.8318 C   0  0  0  0  0  0  0  0  0  0  0  0
   -4.5278    4.1364   13.2858 C   0  0  0  0  0  0  0  0  0  0  0  0
   -3.1813    4.2915   13.9765 C   0  0  0  0  0  0  0  0  0  0  0  0
   -3.3129    4.7366   15.3791 C   0  0  0  0  0  0  0  0  0  0  0  0
   -3.2291    3.9486   16.3656 O   0  0  0  0  0  0  0  0  0  0  0  0
   -3.5405    6.0761   15.6863 O   0  0  0  0  0  0  0  0  0  0  0  0
   -3.4223    4.3219    7.0404 O   0  0  0  0  0  0  0  0  0  0  0  0
   -4.3865    0.6882    3.6437 O   0  0  0  0  0  0  0  0  0  0  0  0
  1  2  1  0
  2  3  1  0
  3  4  1  0
  4  5  1  0
  5  6  1  0
  5  7  1  0
  7  8  1  0
  8  9  2  3
  9 10  1  0
 10 11  1  0
 11 12  1  0
 12 13  1  0
 13 14  2  0
 13 15  1  0
 15 16  1  0
 16 17  1  0
 17 18  1  0
 18 19  1  0
 19 20  1  0
 20 21  1  0
 21 22  1  0
 22 23  2  0
 22 24  1  0
 11 25  1  0
  5 26  1  0
 15 10  1  0
M  END
$$$$
