
     RDKit          3D

 26 26  0  0  0  0  0  0  0  0999 V2000
   -4.7377   -2.9728    1.9911 C   0  0  0  0  0  0  0  0  0  0  0  0
   -3.6543   -3.3613    3.0079 C   0  0  0  0  0  0  0  0  0  0  0  0
   -3.1623   -2.0969    3.6543 C   0  0  0  0  0  0  0  0  0  0  0  0
   -2.0749   -2.3047    4.6517 C   0  0  0  0  0  0  0  0  0  0  0  0
   -1.4857   -1.0555    5.2331 C   0  0  0  0  0  0  0  0  0  0  0  0
   -1.8957    0.1657    4.4763 C   0  0  0  0  0  0  0  0  0  0  0  0
   -2.0301   -0.9577    6.6757 C   0  0  0  0  0  0  0  0  0  0  0  0
   -3.2794   -0.1745    6.6415 C   0  0  0  0  0  0  0  0  0  0  0  0
   -3.5158    0.9662    7.2501 C   0  0  0  0  0  0  0  0  0  0  0  0
   -4.7962    1.6012    7.2926 C   0  0  0  0  0  0  0  0  0  0  0  0
   -4.9617    2.8558    6.4340 C   0  0  0  0  0  0  0  0  0  0  0  0
   -6.3406    3.3897    6.8510 C   0  0  0  0  0  0  0  0  0  0  0  0
   -6.7275    2.5578    8.0175 C   0  0  0  0  0  0  0  0  0  0  0  0
   -7.8120    2.2911    8.4802 O   0  0  0  0  0  0  0  0  0  0  0  0
   -5.3790    2.0609    8.5688 C   0  0  0  0  0  0  0  0  0  0  0  0
   -4.8352    3.2225    9.2953 C   0  0  0  0  0  0  0  0  0  0  0  0
   -3.6344    3.0310   10.1689 C   0  0  0  0  0  0  0  0  0  0  0  0
   -3.4608    4.2942   11.0111 C   0  0  0  0  0  0  0  0  0  0  0  0
   -4.4027    4.3928   12.1569 C   0  0  0  0  0  0  0  0  0  0  0  0
   -3.7528    4.8769   13.4280 C   0  0  0  0  0  0  0  0  0  0  0  0
   -4.7443    4.9145   14.5811 C   0  0  0  0  0  0  0  0  0  0  0  0
   -4.5921    6.1217   15.4191 C   0  0  0  0  0  0  0  0  0  0  0  0
   -3.6943    6.2418   16.3025 O   0  0  0  0  0  0  0  0  0  0  0  0
   -5.4509    7.2085   15.2707 O   0  0  0  0  0  0  0  0  0  0  0  0
   -3.9579    3.7775    6.6024 O   0  0  0  0  0  0  0  0  0  0  0  0
   -0.1135   -1.1995    5.3553 O   0  0  0  0  0  0  0  0  0  0  0  0
  1  2  1  0
  2  3  1  0
  3  4  1  0
  4  5  1  0
  5  6  1  0
  5  7  1  0
  7  8  1  0
  8  9  2  3
  9 10  1  0
 10 11  1  0
 11 12  1  0
 12 13  1  0
 13 14  2  0
 13 15  1  0
 15 16  1  0
 16 17  1  0
 17 18  1  0
 18 19  1  0
 19 20  1  0
 20 21  1  0
 21 22  1  0
 22 23  2  0
 22 24  1  0
 11 25  1  0
  5 26  1  0
 15 10  1  0
M  END
$$$$
