
     RDKit          3D

 26 26  0  0  0  0  0  0  0  0999 V2000
   -2.5023   -4.1400    4.5487 C   0  0  0  0  0  0  0  0  0  0  0  0
   -2.5097   -2.7061    3.9989 C   0  0  0  0  0  0  0  0  0  0  0  0
   -3.5065   -1.9165    4.7999 C   0  0  0  0  0  0  0  0  0  0  0  0
   -3.7611   -0.5451    4.2759 C   0  0  0  0  0  0  0  0  0  0  0  0
   -4.7298    0.2787    5.0687 C   0  0  0  0  0  0  0  0  0  0  0  0
   -6.0828   -0.3516    5.1348 C   0  0  0  0  0  0  0  0  0  0  0  0
   -4.1473    0.3662    6.4971 C   0  0  0  0  0  0  0  0  0  0  0  0
   -5.0812    1.1521    7.3251 C   0  0  0  0  0  0  0  0  0  0  0  0
   -4.9003    2.3707    7.7828 C   0  0  0  0  0  0  0  0  0  0  0  0
   -5.7605    3.0058    8.7322 C   0  0  0  0  0  0  0  0  0  0  0  0
   -5.7687    4.5349    8.7257 C   0  0  0  0  0  0  0  0  0  0  0  0
   -6.6134    4.8887    9.9593 C   0  0  0  0  0  0  0  0  0  0  0  0
   -6.8179    3.5950   10.6571 C   0  0  0  0  0  0  0  0  0  0  0  0
   -7.6777    3.2324   11.4256 O   0  0  0  0  0  0  0  0  0  0  0  0
   -5.6337    2.7363   10.1782 C   0  0  0  0  0  0  0  0  0  0  0  0
   -4.4875    3.2319   10.9613 C   0  0  0  0  0  0  0  0  0  0  0  0
   -3.2549    2.3867   11.0526 C   0  0  0  0  0  0  0  0  0  0  0  0
   -2.2220    3.1514   11.8793 C   0  0  0  0  0  0  0  0  0  0  0  0
   -2.3370    2.9331   13.3452 C   0  0  0  0  0  0  0  0  0  0  0  0
   -1.5984    1.7116   13.8297 C   0  0  0  0  0  0  0  0  0  0  0  0
   -0.5912    2.0634   14.9142 C   0  0  0  0  0  0  0  0  0  0  0  0
   -1.0602    1.6902   16.2645 C   0  0  0  0  0  0  0  0  0  0  0  0
   -1.6704    2.4911   17.0307 O   0  0  0  0  0  0  0  0  0  0  0  0
   -0.8466    0.4087   16.7672 O   0  0  0  0  0  0  0  0  0  0  0  0
   -4.5153    5.0949    8.7572 O   0  0  0  0  0  0  0  0  0  0  0  0
   -4.7439    1.5767    4.5855 O   0  0  0  0  0  0  0  0  0  0  0  0
  1  2  1  0
  2  3  1  0
  3  4  1  0
  4  5  1  0
  5  6  1  0
  5  7  1  0
  7  8  1  0
  8  9  2  3
  9 10  1  0
 10 11  1  0
 11 12  1  0
 12 13  1  0
 13 14  2  0
 13 15  1  0
 15 16  1  0
 16 17  1  0
 17 18  1  0
 18 19  1  0
 19 20  1  0
 20 21  1  0
 21 22  1  0
 22 23  2  0
 22 24  1  0
 11 25  1  0
  5 26  1  0
 15 10  1  0
M  END
$$$$
