
     RDKit          3D

 26 26  0  0  0  0  0  0  0  0999 V2000
    0.9766   -5.5673    6.7797 C   0  0  0  0  0  0  0  0  0  0  0  0
   -0.0921   -4.6023    7.3138 C   0  0  0  0  0  0  0  0  0  0  0  0
   -0.5728   -3.7706    6.1581 C   0  0  0  0  0  0  0  0  0  0  0  0
    0.2102   -2.5223    5.9373 C   0  0  0  0  0  0  0  0  0  0  0  0
   -0.4844   -1.4569    5.1448 C   0  0  0  0  0  0  0  0  0  0  0  0
   -1.6174   -2.0033    4.3386 C   0  0  0  0  0  0  0  0  0  0  0  0
   -1.0424   -0.4518    6.1770 C   0  0  0  0  0  0  0  0  0  0  0  0
   -2.5093   -0.4107    6.0293 C   0  0  0  0  0  0  0  0  0  0  0  0
   -3.3042    0.6006    6.2991 C   0  0  0  0  0  0  0  0  0  0  0  0
   -4.6108    0.4640    6.8639 C   0  0  0  0  0  0  0  0  0  0  0  0
   -5.6805    1.4242    6.3422 C   0  0  0  0  0  0  0  0  0  0  0  0
   -6.8766    1.1574    7.2688 C   0  0  0  0  0  0  0  0  0  0  0  0
   -6.3382    0.2704    8.3299 C   0  0  0  0  0  0  0  0  0  0  0  0
   -6.8876   -0.5196    9.0616 O   0  0  0  0  0  0  0  0  0  0  0  0
   -4.8288    0.5721    8.3200 C   0  0  0  0  0  0  0  0  0  0  0  0
   -4.7129    1.8600    9.0275 C   0  0  0  0  0  0  0  0  0  0  0  0
   -4.9039    1.8886   10.5123 C   0  0  0  0  0  0  0  0  0  0  0  0
   -4.0057    2.9870   11.0797 C   0  0  0  0  0  0  0  0  0  0  0  0
   -4.1195    3.1631   12.5513 C   0  0  0  0  0  0  0  0  0  0  0  0
   -5.3482    3.9292   12.9707 C   0  0  0  0  0  0  0  0  0  0  0  0
   -5.0517    5.4126   13.1317 C   0  0  0  0  0  0  0  0  0  0  0  0
   -4.6173    5.7574   14.5010 C   0  0  0  0  0  0  0  0  0  0  0  0
   -5.4265    5.9924   15.4448 O   0  0  0  0  0  0  0  0  0  0  0  0
   -3.2645    5.8413   14.8226 O   0  0  0  0  0  0  0  0  0  0  0  0
   -5.2888    2.7403    6.3400 O   0  0  0  0  0  0  0  0  0  0  0  0
    0.4434   -0.7533    4.3947 O   0  0  0  0  0  0  0  0  0  0  0  0
  1  2  1  0
  2  3  1  0
  3  4  1  0
  4  5  1  0
  5  6  1  0
  5  7  1  0
  7  8  1  0
  8  9  2  3
  9 10  1  0
 10 11  1  0
 11 12  1  0
 12 13  1  0
 13 14  2  0
 13 15  1  0
 15 16  1  0
 16 17  1  0
 17 18  1  0
 18 19  1  0
 19 20  1  0
 20 21  1  0
 21 22  1  0
 22 23  2  0
 22 24  1  0
 11 25  1  0
  5 26  1  0
 15 10  1  0
M  END
$$$$
