
     RDKit          3D

 26 26  0  0  0  0  0  0  0  0999 V2000
   -1.4415    4.7113   13.6069 C   0  0  0  0  0  0  0  0  0  0  0  0
   -2.0998    3.6037   12.7711 C   0  0  0  0  0  0  0  0  0  0  0  0
   -3.5186    4.0191   12.5014 C   0  0  0  0  0  0  0  0  0  0  0  0
   -4.3047    3.0294   11.7122 C   0  0  0  0  0  0  0  0  0  0  0  0
   -5.7243    3.4143   11.4258 C   0  0  0  0  0  0  0  0  0  0  0  0
   -5.8224    4.7455   10.7548 C   0  0  0  0  0  0  0  0  0  0  0  0
   -6.2768    2.3307   10.4730 C   0  0  0  0  0  0  0  0  0  0  0  0
   -5.9877    2.7481    9.0882 C   0  0  0  0  0  0  0  0  0  0  0  0
   -5.6619    1.9718    8.0790 C   0  0  0  0  0  0  0  0  0  0  0  0
   -5.5296    2.4256    6.7294 C   0  0  0  0  0  0  0  0  0  0  0  0
   -6.6253    1.9907    5.7555 C   0  0  0  0  0  0  0  0  0  0  0  0
   -6.0933    2.4604    4.3929 C   0  0  0  0  0  0  0  0  0  0  0  0
   -4.7032    2.9027    4.6655 C   0  0  0  0  0  0  0  0  0  0  0  0
   -3.9850    3.6781    4.0786 O   0  0  0  0  0  0  0  0  0  0  0  0
   -4.3205    2.1248    5.9374 C   0  0  0  0  0  0  0  0  0  0  0  0
   -4.0293    0.7629    5.4545 C   0  0  0  0  0  0  0  0  0  0  0  0
   -2.9248   -0.0129    6.1026 C   0  0  0  0  0  0  0  0  0  0  0  0
   -2.0919   -0.6573    4.9952 C   0  0  0  0  0  0  0  0  0  0  0  0
   -1.7321   -2.0760    5.2551 C   0  0  0  0  0  0  0  0  0  0  0  0
   -0.3309   -2.2529    5.7819 C   0  0  0  0  0  0  0  0  0  0  0  0
   -0.1144   -3.6559    6.3287 C   0  0  0  0  0  0  0  0  0  0  0  0
    0.6261   -4.5217    5.3881 C   0  0  0  0  0  0  0  0  0  0  0  0
    1.8842   -4.6536    5.4135 O   0  0  0  0  0  0  0  0  0  0  0  0
   -0.0436   -5.2497    4.4073 O   0  0  0  0  0  0  0  0  0  0  0  0
   -6.8934    0.6444    5.7898 O   0  0  0  0  0  0  0  0  0  0  0  0
   -6.4770    3.3187   12.5846 O   0  0  0  0  0  0  0  0  0  0  0  0
  1  2  1  0
  2  3  1  0
  3  4  1  0
  4  5  1  0
  5  6  1  0
  5  7  1  0
  7  8  1  0
  8  9  2  3
  9 10  1  0
 10 11  1  0
 11 12  1  0
 12 13  1  0
 13 14  2  0
 13 15  1  0
 15 16  1  0
 16 17  1  0
 17 18  1  0
 18 19  1  0
 19 20  1  0
 20 21  1  0
 21 22  1  0
 22 23  2  0
 22 24  1  0
 11 25  1  0
  5 26  1  0
 15 10  1  0
M  END
$$$$
