
     RDKit          3D

 26 26  0  0  0  0  0  0  0  0999 V2000
   -0.7666   -3.3040    5.7955 C   0  0  0  0  0  0  0  0  0  0  0  0
   -1.1121   -1.9353    5.1906 C   0  0  0  0  0  0  0  0  0  0  0  0
   -2.5681   -1.9563    4.8190 C   0  0  0  0  0  0  0  0  0  0  0  0
   -3.0796   -0.6635    4.2830 C   0  0  0  0  0  0  0  0  0  0  0  0
   -4.4885   -0.6889    3.7733 C   0  0  0  0  0  0  0  0  0  0  0  0
   -4.7546   -1.8810    2.9129 C   0  0  0  0  0  0  0  0  0  0  0  0
   -5.3939   -0.7607    5.0233 C   0  0  0  0  0  0  0  0  0  0  0  0
   -5.3416    0.5476    5.7022 C   0  0  0  0  0  0  0  0  0  0  0  0
   -5.4801    0.7780    6.9887 C   0  0  0  0  0  0  0  0  0  0  0  0
   -5.6799    2.0767    7.5529 C   0  0  0  0  0  0  0  0  0  0  0  0
   -4.7091    3.1695    7.1042 C   0  0  0  0  0  0  0  0  0  0  0  0
   -5.0606    4.3520    8.0199 C   0  0  0  0  0  0  0  0  0  0  0  0
   -6.0048    3.7869    9.0158 C   0  0  0  0  0  0  0  0  0  0  0  0
   -6.8524    4.3143    9.6976 O   0  0  0  0  0  0  0  0  0  0  0  0
   -5.6728    2.2839    9.0146 C   0  0  0  0  0  0  0  0  0  0  0  0
   -4.4325    2.1869    9.8051 C   0  0  0  0  0  0  0  0  0  0  0  0
   -4.3874    1.2423   10.9659 C   0  0  0  0  0  0  0  0  0  0  0  0
   -3.0006    1.3441   11.5998 C   0  0  0  0  0  0  0  0  0  0  0  0
   -2.9898    2.0064   12.9306 C   0  0  0  0  0  0  0  0  0  0  0  0
   -2.2461    3.3176   12.9423 C   0  0  0  0  0  0  0  0  0  0  0  0
   -2.8936    4.3167   13.8892 C   0  0  0  0  0  0  0  0  0  0  0  0
   -2.7517    3.9265   15.3070 C   0  0  0  0  0  0  0  0  0  0  0  0
   -3.2249    2.8523   15.7795 O   0  0  0  0  0  0  0  0  0  0  0  0
   -2.0740    4.7431   16.2095 O   0  0  0  0  0  0  0  0  0  0  0  0
   -3.3881    2.8037    7.1863 O   0  0  0  0  0  0  0  0  0  0  0  0
   -4.7851    0.5170    3.1599 O   0  0  0  0  0  0  0  0  0  0  0  0
  1  2  1  0
  2  3  1  0
  3  4  1  0
  4  5  1  0
  5  6  1  0
  5  7  1  0
  7  8  1  0
  8  9  2  3
  9 10  1  0
 10 11  1  0
 11 12  1  0
 12 13  1  0
 13 14  2  0
 13 15  1  0
 15 16  1  0
 16 17  1  0
 17 18  1  0
 18 19  1  0
 19 20  1  0
 20 21  1  0
 21 22  1  0
 22 23  2  0
 22 24  1  0
 11 25  1  0
  5 26  1  0
 15 10  1  0
M  END
$$$$
