
     RDKit          3D

 26 26  0  0  0  0  0  0  0  0999 V2000
   -0.5891   -2.0347    5.2978 C   0  0  0  0  0  0  0  0  0  0  0  0
   -1.5265   -1.2664    6.2409 C   0  0  0  0  0  0  0  0  0  0  0  0
   -2.9323   -1.4682    5.7493 C   0  0  0  0  0  0  0  0  0  0  0  0
   -3.3905   -0.4405    4.7725 C   0  0  0  0  0  0  0  0  0  0  0  0
   -4.7148   -0.7109    4.1255 C   0  0  0  0  0  0  0  0  0  0  0  0
   -5.5793   -1.5976    4.9612 C   0  0  0  0  0  0  0  0  0  0  0  0
   -5.4047    0.6633    3.9737 C   0  0  0  0  0  0  0  0  0  0  0  0
   -5.6665    1.1958    5.3240 C   0  0  0  0  0  0  0  0  0  0  0  0
   -5.0906    2.2316    5.8920 C   0  0  0  0  0  0  0  0  0  0  0  0
   -5.7740    3.1705    6.7263 C   0  0  0  0  0  0  0  0  0  0  0  0
   -5.3650    4.6364    6.5767 C   0  0  0  0  0  0  0  0  0  0  0  0
   -6.1189    5.3318    7.7206 C   0  0  0  0  0  0  0  0  0  0  0  0
   -6.6894    4.2214    8.5230 C   0  0  0  0  0  0  0  0  0  0  0  0
   -7.6387    4.1857    9.2706 O   0  0  0  0  0  0  0  0  0  0  0  0
   -5.7699    3.0311    8.1960 C   0  0  0  0  0  0  0  0  0  0  0  0
   -4.5566    3.2814    8.9948 C   0  0  0  0  0  0  0  0  0  0  0  0
   -4.6613    4.1364   10.2196 C   0  0  0  0  0  0  0  0  0  0  0  0
   -3.3277    4.0582   10.9615 C   0  0  0  0  0  0  0  0  0  0  0  0
   -3.2234    2.9114   11.9016 C   0  0  0  0  0  0  0  0  0  0  0  0
   -1.9052    2.8506   12.6301 C   0  0  0  0  0  0  0  0  0  0  0  0
   -1.8727    1.7029   13.6281 C   0  0  0  0  0  0  0  0  0  0  0  0
   -2.4747    2.0659   14.9275 C   0  0  0  0  0  0  0  0  0  0  0  0
   -1.8941    2.8019   15.7773 O   0  0  0  0  0  0  0  0  0  0  0  0
   -3.7392    1.6032   15.2844 O   0  0  0  0  0  0  0  0  0  0  0  0
   -4.0081    4.8401    6.6286 O   0  0  0  0  0  0  0  0  0  0  0  0
   -4.5180   -1.1799    2.8371 O   0  0  0  0  0  0  0  0  0  0  0  0
  1  2  1  0
  2  3  1  0
  3  4  1  0
  4  5  1  0
  5  6  1  0
  5  7  1  0
  7  8  1  0
  8  9  2  3
  9 10  1  0
 10 11  1  0
 11 12  1  0
 12 13  1  0
 13 14  2  0
 13 15  1  0
 15 16  1  0
 16 17  1  0
 17 18  1  0
 18 19  1  0
 19 20  1  0
 20 21  1  0
 21 22  1  0
 22 23  2  0
 22 24  1  0
 11 25  1  0
  5 26  1  0
 15 10  1  0
M  END
$$$$
