
     RDKit          3D

 26 26  0  0  0  0  0  0  0  0999 V2000
   -3.6583   -2.6893    9.9493 C   0  0  0  0  0  0  0  0  0  0  0  0
   -3.9171   -3.0464    8.4782 C   0  0  0  0  0  0  0  0  0  0  0  0
   -3.1280   -2.0878    7.6315 C   0  0  0  0  0  0  0  0  0  0  0  0
   -3.3066   -2.2798    6.1647 C   0  0  0  0  0  0  0  0  0  0  0  0
   -2.4455   -1.4184    5.2918 C   0  0  0  0  0  0  0  0  0  0  0  0
   -3.0439   -1.2119    3.9385 C   0  0  0  0  0  0  0  0  0  0  0  0
   -2.3421   -0.0531    6.0078 C   0  0  0  0  0  0  0  0  0  0  0  0
   -3.3263    0.8599    5.3971 C   0  0  0  0  0  0  0  0  0  0  0  0
   -3.7697    1.9931    5.8937 C   0  0  0  0  0  0  0  0  0  0  0  0
   -5.0442    2.5609    5.5803 C   0  0  0  0  0  0  0  0  0  0  0  0
   -5.0501    4.0348    5.1731 C   0  0  0  0  0  0  0  0  0  0  0  0
   -6.5464    4.3759    5.1035 C   0  0  0  0  0  0  0  0  0  0  0  0
   -7.2289    3.1850    5.6677 C   0  0  0  0  0  0  0  0  0  0  0  0
   -8.3511    2.7629    5.5129 O   0  0  0  0  0  0  0  0  0  0  0  0
   -6.1510    2.5396    6.5570 C   0  0  0  0  0  0  0  0  0  0  0  0
   -6.1317    3.3789    7.7686 C   0  0  0  0  0  0  0  0  0  0  0  0
   -5.0522    3.1594    8.7826 C   0  0  0  0  0  0  0  0  0  0  0  0
   -5.6914    2.5294   10.0194 C   0  0  0  0  0  0  0  0  0  0  0  0
   -4.8713    2.6496   11.2534 C   0  0  0  0  0  0  0  0  0  0  0  0
   -4.3276    4.0372   11.4796 C   0  0  0  0  0  0  0  0  0  0  0  0
   -3.1464    4.0231   12.4383 C   0  0  0  0  0  0  0  0  0  0  0  0
   -3.5660    3.9328   13.8519 C   0  0  0  0  0  0  0  0  0  0  0  0
   -4.3386    4.7723   14.3990 O   0  0  0  0  0  0  0  0  0  0  0  0
   -3.1194    2.8943   14.6658 O   0  0  0  0  0  0  0  0  0  0  0  0
   -4.3552    4.8491    6.0331 O   0  0  0  0  0  0  0  0  0  0  0  0
   -1.1576   -1.9269    5.2588 O   0  0  0  0  0  0  0  0  0  0  0  0
  1  2  1  0
  2  3  1  0
  3  4  1  0
  4  5  1  0
  5  6  1  0
  5  7  1  0
  7  8  1  0
  8  9  2  3
  9 10  1  0
 10 11  1  0
 11 12  1  0
 12 13  1  0
 13 14  2  0
 13 15  1  0
 15 16  1  0
 16 17  1  0
 17 18  1  0
 18 19  1  0
 19 20  1  0
 20 21  1  0
 21 22  1  0
 22 23  2  0
 22 24  1  0
 11 25  1  0
  5 26  1  0
 15 10  1  0
M  END
$$$$
