
     RDKit          3D

 26 26  0  0  0  0  0  0  0  0999 V2000
    0.4502   -4.9087    3.5787 C   0  0  0  0  0  0  0  0  0  0  0  0
   -0.7760   -3.9845    3.6091 C   0  0  0  0  0  0  0  0  0  0  0  0
   -0.4680   -2.8503    4.5458 C   0  0  0  0  0  0  0  0  0  0  0  0
   -1.6687   -2.2494    5.1919 C   0  0  0  0  0  0  0  0  0  0  0  0
   -1.3876   -1.2263    6.2501 C   0  0  0  0  0  0  0  0  0  0  0  0
   -0.9484    0.0783    5.6694 C   0  0  0  0  0  0  0  0  0  0  0  0
   -2.7189   -1.0160    7.0054 C   0  0  0  0  0  0  0  0  0  0  0  0
   -3.5944   -0.1774    6.1655 C   0  0  0  0  0  0  0  0  0  0  0  0
   -3.7089    1.1314    6.2012 C   0  0  0  0  0  0  0  0  0  0  0  0
   -4.9585    1.8267    6.1971 C   0  0  0  0  0  0  0  0  0  0  0  0
   -4.9825    3.1773    5.4804 C   0  0  0  0  0  0  0  0  0  0  0  0
   -6.3717    3.7353    5.8252 C   0  0  0  0  0  0  0  0  0  0  0  0
   -6.9093    2.7994    6.8439 C   0  0  0  0  0  0  0  0  0  0  0  0
   -8.0452    2.5419    7.1674 O   0  0  0  0  0  0  0  0  0  0  0  0
   -5.6456    2.1704    7.4577 C   0  0  0  0  0  0  0  0  0  0  0  0
   -5.1274    3.2110    8.3640 C   0  0  0  0  0  0  0  0  0  0  0  0
   -5.4471    3.1223    9.8240 C   0  0  0  0  0  0  0  0  0  0  0  0
   -4.2529    3.6761   10.6002 C   0  0  0  0  0  0  0  0  0  0  0  0
   -4.3502    3.4951   12.0724 C   0  0  0  0  0  0  0  0  0  0  0  0
   -3.1597    4.0347   12.8233 C   0  0  0  0  0  0  0  0  0  0  0  0
   -3.5610    4.5805   14.1854 C   0  0  0  0  0  0  0  0  0  0  0  0
   -4.2568    5.8803   14.0914 C   0  0  0  0  0  0  0  0  0  0  0  0
   -3.6609    6.9672   13.8373 O   0  0  0  0  0  0  0  0  0  0  0  0
   -5.6337    5.9703   14.2828 O   0  0  0  0  0  0  0  0  0  0  0  0
   -3.9615    4.0178    5.8502 O   0  0  0  0  0  0  0  0  0  0  0  0
   -0.5030   -1.7471    7.1800 O   0  0  0  0  0  0  0  0  0  0  0  0
  1  2  1  0
  2  3  1  0
  3  4  1  0
  4  5  1  0
  5  6  1  0
  5  7  1  0
  7  8  1  0
  8  9  2  3
  9 10  1  0
 10 11  1  0
 11 12  1  0
 12 13  1  0
 13 14  2  0
 13 15  1  0
 15 16  1  0
 16 17  1  0
 17 18  1  0
 18 19  1  0
 19 20  1  0
 20 21  1  0
 21 22  1  0
 22 23  2  0
 22 24  1  0
 11 25  1  0
  5 26  1  0
 15 10  1  0
M  END
$$$$
