
     RDKit          3D

 26 26  0  0  0  0  0  0  0  0999 V2000
   -0.9635   -3.2122    4.0022 C   0  0  0  0  0  0  0  0  0  0  0  0
   -1.4645   -1.7921    4.3037 C   0  0  0  0  0  0  0  0  0  0  0  0
   -2.9668   -1.8303    4.3067 C   0  0  0  0  0  0  0  0  0  0  0  0
   -3.6098   -0.5258    4.6308 C   0  0  0  0  0  0  0  0  0  0  0  0
   -5.0673   -0.4247    4.2977 C   0  0  0  0  0  0  0  0  0  0  0  0
   -5.8959   -1.3722    5.1025 C   0  0  0  0  0  0  0  0  0  0  0  0
   -5.4847    1.0226    4.6413 C   0  0  0  0  0  0  0  0  0  0  0  0
   -4.5800    1.5226    5.6933 C   0  0  0  0  0  0  0  0  0  0  0  0
   -4.8555    1.6708    6.9698 C   0  0  0  0  0  0  0  0  0  0  0  0
   -5.1641    2.9255    7.5823 C   0  0  0  0  0  0  0  0  0  0  0  0
   -4.1213    4.0330    7.4260 C   0  0  0  0  0  0  0  0  0  0  0  0
   -4.6498    5.1475    8.3419 C   0  0  0  0  0  0  0  0  0  0  0  0
   -5.7767    4.5238    9.0792 C   0  0  0  0  0  0  0  0  0  0  0  0
   -6.7441    5.0116    9.6152 O   0  0  0  0  0  0  0  0  0  0  0  0
   -5.4529    3.0199    9.0270 C   0  0  0  0  0  0  0  0  0  0  0  0
   -4.3985    2.8416   10.0415 C   0  0  0  0  0  0  0  0  0  0  0  0
   -4.4802    1.6704   10.9707 C   0  0  0  0  0  0  0  0  0  0  0  0
   -3.7576    2.0461   12.2637 C   0  0  0  0  0  0  0  0  0  0  0  0
   -4.3021    3.2569   12.9324 C   0  0  0  0  0  0  0  0  0  0  0  0
   -3.2357    4.1708   13.4799 C   0  0  0  0  0  0  0  0  0  0  0  0
   -3.3788    4.3560   14.9830 C   0  0  0  0  0  0  0  0  0  0  0  0
   -4.2565    5.4918   15.3322 C   0  0  0  0  0  0  0  0  0  0  0  0
   -5.4337    5.3464   15.7727 O   0  0  0  0  0  0  0  0  0  0  0  0
   -3.8171    6.8060   15.1890 O   0  0  0  0  0  0  0  0  0  0  0  0
   -2.8447    3.6396    7.7440 O   0  0  0  0  0  0  0  0  0  0  0  0
   -5.2439   -0.5550    2.9301 O   0  0  0  0  0  0  0  0  0  0  0  0
  1  2  1  0
  2  3  1  0
  3  4  1  0
  4  5  1  0
  5  6  1  0
  5  7  1  0
  7  8  1  0
  8  9  2  3
  9 10  1  0
 10 11  1  0
 11 12  1  0
 12 13  1  0
 13 14  2  0
 13 15  1  0
 15 16  1  0
 16 17  1  0
 17 18  1  0
 18 19  1  0
 19 20  1  0
 20 21  1  0
 21 22  1  0
 22 23  2  0
 22 24  1  0
 11 25  1  0
  5 26  1  0
 15 10  1  0
M  END
$$$$
