
     RDKit          3D

 26 26  0  0  0  0  0  0  0  0999 V2000
   -1.8054   -4.0578    4.7524 C   0  0  0  0  0  0  0  0  0  0  0  0
   -1.8978   -2.5367    4.9436 C   0  0  0  0  0  0  0  0  0  0  0  0
   -3.3086   -2.1235    4.6316 C   0  0  0  0  0  0  0  0  0  0  0  0
   -3.4508   -0.6971    4.2251 C   0  0  0  0  0  0  0  0  0  0  0  0
   -4.8404   -0.2632    3.8697 C   0  0  0  0  0  0  0  0  0  0  0  0
   -5.8757   -0.9647    4.6872 C   0  0  0  0  0  0  0  0  0  0  0  0
   -4.9053    1.2509    4.1706 C   0  0  0  0  0  0  0  0  0  0  0  0
   -5.3307    1.4213    5.5725 C   0  0  0  0  0  0  0  0  0  0  0  0
   -4.8522    2.2784    6.4465 C   0  0  0  0  0  0  0  0  0  0  0  0
   -5.6384    2.9157    7.4566 C   0  0  0  0  0  0  0  0  0  0  0  0
   -5.2661    4.3590    7.7981 C   0  0  0  0  0  0  0  0  0  0  0  0
   -6.1422    4.6698    9.0213 C   0  0  0  0  0  0  0  0  0  0  0  0
   -6.7458    3.3654    9.3910 C   0  0  0  0  0  0  0  0  0  0  0  0
   -7.7568    3.0997    9.9982 O   0  0  0  0  0  0  0  0  0  0  0  0
   -5.7619    2.3350    8.8083 C   0  0  0  0  0  0  0  0  0  0  0  0
   -4.6343    2.3347    9.7577 C   0  0  0  0  0  0  0  0  0  0  0  0
   -4.3200    1.0764   10.5059 C   0  0  0  0  0  0  0  0  0  0  0  0
   -3.1707    1.3770   11.4672 C   0  0  0  0  0  0  0  0  0  0  0  0
   -3.5276    2.3146   12.5641 C   0  0  0  0  0  0  0  0  0  0  0  0
   -2.4035    2.5523   13.5398 C   0  0  0  0  0  0  0  0  0  0  0  0
   -2.2854    4.0242   13.9056 C   0  0  0  0  0  0  0  0  0  0  0  0
   -3.1127    4.3848   15.0753 C   0  0  0  0  0  0  0  0  0  0  0  0
   -4.3145    4.0136   15.2133 O   0  0  0  0  0  0  0  0  0  0  0  0
   -2.5945    5.1684   16.1039 O   0  0  0  0  0  0  0  0  0  0  0  0
   -3.9268    4.5425    8.0389 O   0  0  0  0  0  0  0  0  0  0  0  0
   -5.0331   -0.3862    2.5036 O   0  0  0  0  0  0  0  0  0  0  0  0
  1  2  1  0
  2  3  1  0
  3  4  1  0
  4  5  1  0
  5  6  1  0
  5  7  1  0
  7  8  1  0
  8  9  2  3
  9 10  1  0
 10 11  1  0
 11 12  1  0
 12 13  1  0
 13 14  2  0
 13 15  1  0
 15 16  1  0
 16 17  1  0
 17 18  1  0
 18 19  1  0
 19 20  1  0
 20 21  1  0
 21 22  1  0
 22 23  2  0
 22 24  1  0
 11 25  1  0
  5 26  1  0
 15 10  1  0
M  END
$$$$
