
     RDKit          3D

 26 26  0  0  0  0  0  0  0  0999 V2000
   -1.2230   -3.3110    3.9649 C   0  0  0  0  0  0  0  0  0  0  0  0
   -1.3838   -1.7842    4.0068 C   0  0  0  0  0  0  0  0  0  0  0  0
   -2.8049   -1.4866    4.3948 C   0  0  0  0  0  0  0  0  0  0  0  0
   -3.0191   -0.1070    4.9155 C   0  0  0  0  0  0  0  0  0  0  0  0
   -4.1657    0.6413    4.3066 C   0  0  0  0  0  0  0  0  0  0  0  0
   -4.9089   -0.1833    3.3067 C   0  0  0  0  0  0  0  0  0  0  0  0
   -5.1159    0.9906    5.4739 C   0  0  0  0  0  0  0  0  0  0  0  0
   -4.5773    0.3767    6.7020 C   0  0  0  0  0  0  0  0  0  0  0  0
   -3.9210    0.9810    7.6671 C   0  0  0  0  0  0  0  0  0  0  0  0
   -3.6154    0.3786    8.9275 C   0  0  0  0  0  0  0  0  0  0  0  0
   -4.7693   -0.3268    9.6412 C   0  0  0  0  0  0  0  0  0  0  0  0
   -4.1742   -0.6768   11.0138 C   0  0  0  0  0  0  0  0  0  0  0  0
   -2.8663    0.0238   11.0449 C   0  0  0  0  0  0  0  0  0  0  0  0
   -1.8610   -0.1951   11.6796 O   0  0  0  0  0  0  0  0  0  0  0  0
   -3.0485    1.1719   10.0360 C   0  0  0  0  0  0  0  0  0  0  0  0
   -3.8519    2.1698   10.7649 C   0  0  0  0  0  0  0  0  0  0  0  0
   -3.4630    3.6132   10.6791 C   0  0  0  0  0  0  0  0  0  0  0  0
   -4.6842    4.4511   11.0554 C   0  0  0  0  0  0  0  0  0  0  0  0
   -4.8935    4.5936   12.5201 C   0  0  0  0  0  0  0  0  0  0  0  0
   -5.9985    5.5545   12.8778 C   0  0  0  0  0  0  0  0  0  0  0  0
   -6.1013    5.7499   14.3829 C   0  0  0  0  0  0  0  0  0  0  0  0
   -5.2182    6.8271   14.8753 C   0  0  0  0  0  0  0  0  0  0  0  0
   -5.3670    8.0428   14.5577 O   0  0  0  0  0  0  0  0  0  0  0  0
   -4.1564    6.5461   15.7321 O   0  0  0  0  0  0  0  0  0  0  0  0
   -5.9106    0.4315    9.7306 O   0  0  0  0  0  0  0  0  0  0  0  0
   -3.7194    1.8534    3.8064 O   0  0  0  0  0  0  0  0  0  0  0  0
  1  2  1  0
  2  3  1  0
  3  4  1  0
  4  5  1  0
  5  6  1  0
  5  7  1  0
  7  8  1  0
  8  9  2  3
  9 10  1  0
 10 11  1  0
 11 12  1  0
 12 13  1  0
 13 14  2  0
 13 15  1  0
 15 16  1  0
 16 17  1  0
 17 18  1  0
 18 19  1  0
 19 20  1  0
 20 21  1  0
 21 22  1  0
 22 23  2  0
 22 24  1  0
 11 25  1  0
  5 26  1  0
 15 10  1  0
M  END
$$$$
