
     RDKit          3D

 26 26  0  0  0  0  0  0  0  0999 V2000
    0.2535   -5.3833    3.7812 C   0  0  0  0  0  0  0  0  0  0  0  0
    0.5797   -4.7998    5.1639 C   0  0  0  0  0  0  0  0  0  0  0  0
   -0.0867   -3.4562    5.2597 C   0  0  0  0  0  0  0  0  0  0  0  0
    0.1874   -2.7285    6.5308 C   0  0  0  0  0  0  0  0  0  0  0  0
   -0.5104   -1.4111    6.6830 C   0  0  0  0  0  0  0  0  0  0  0  0
    0.0750   -0.3584    5.7992 C   0  0  0  0  0  0  0  0  0  0  0  0
   -1.9785   -1.6548    6.2678 C   0  0  0  0  0  0  0  0  0  0  0  0
   -2.8441   -0.8579    7.1572 C   0  0  0  0  0  0  0  0  0  0  0  0
   -3.3851    0.3112    6.8964 C   0  0  0  0  0  0  0  0  0  0  0  0
   -4.6687    0.7241    7.3724 C   0  0  0  0  0  0  0  0  0  0  0  0
   -5.3285    1.8852    6.6277 C   0  0  0  0  0  0  0  0  0  0  0  0
   -6.5608    2.2022    7.4887 C   0  0  0  0  0  0  0  0  0  0  0  0
   -6.3844    1.3810    8.7122 C   0  0  0  0  0  0  0  0  0  0  0  0
   -7.1879    0.9616    9.5120 O   0  0  0  0  0  0  0  0  0  0  0  0
   -4.8642    1.1474    8.7731 C   0  0  0  0  0  0  0  0  0  0  0  0
   -4.3226    2.4209    9.2807 C   0  0  0  0  0  0  0  0  0  0  0  0
   -3.2721    2.3856   10.3470 C   0  0  0  0  0  0  0  0  0  0  0  0
   -3.0676    3.8136   10.8513 C   0  0  0  0  0  0  0  0  0  0  0  0
   -3.4534    4.0154   12.2727 C   0  0  0  0  0  0  0  0  0  0  0  0
   -4.2053    5.2995   12.5138 C   0  0  0  0  0  0  0  0  0  0  0  0
   -5.3854    5.0865   13.4498 C   0  0  0  0  0  0  0  0  0  0  0  0
   -5.3381    5.9729   14.6308 C   0  0  0  0  0  0  0  0  0  0  0  0
   -6.3232    6.6688   15.0132 O   0  0  0  0  0  0  0  0  0  0  0  0
   -4.1789    6.0851   15.3951 O   0  0  0  0  0  0  0  0  0  0  0  0
   -4.5047    2.9698    6.4531 O   0  0  0  0  0  0  0  0  0  0  0  0
   -0.5495   -1.0553    8.0211 O   0  0  0  0  0  0  0  0  0  0  0  0
  1  2  1  0
  2  3  1  0
  3  4  1  0
  4  5  1  0
  5  6  1  0
  5  7  1  0
  7  8  1  0
  8  9  2  3
  9 10  1  0
 10 11  1  0
 11 12  1  0
 12 13  1  0
 13 14  2  0
 13 15  1  0
 15 16  1  0
 16 17  1  0
 17 18  1  0
 18 19  1  0
 19 20  1  0
 20 21  1  0
 21 22  1  0
 22 23  2  0
 22 24  1  0
 11 25  1  0
  5 26  1  0
 15 10  1  0
M  END
$$$$
