
     RDKit          3D

 26 26  0  0  0  0  0  0  0  0999 V2000
   -4.1064   -3.0096    4.9951 C   0  0  0  0  0  0  0  0  0  0  0  0
   -3.2191   -2.3242    3.9456 C   0  0  0  0  0  0  0  0  0  0  0  0
   -3.5272   -0.8537    3.9793 C   0  0  0  0  0  0  0  0  0  0  0  0
   -4.9642   -0.5366    4.2130 C   0  0  0  0  0  0  0  0  0  0  0  0
   -5.3615    0.8847    3.9531 C   0  0  0  0  0  0  0  0  0  0  0  0
   -6.8085    1.1257    4.2362 C   0  0  0  0  0  0  0  0  0  0  0  0
   -4.5124    1.7480    4.9127 C   0  0  0  0  0  0  0  0  0  0  0  0
   -5.1466    1.7115    6.2438 C   0  0  0  0  0  0  0  0  0  0  0  0
   -4.7361    2.3212    7.3334 C   0  0  0  0  0  0  0  0  0  0  0  0
   -5.6104    2.8385    8.3397 C   0  0  0  0  0  0  0  0  0  0  0  0
   -5.5740    4.3513    8.5596 C   0  0  0  0  0  0  0  0  0  0  0  0
   -6.4510    4.5482    9.8056 C   0  0  0  0  0  0  0  0  0  0  0  0
   -6.7173    3.1736   10.2975 C   0  0  0  0  0  0  0  0  0  0  0  0
   -7.6138    2.7312   10.9771 O   0  0  0  0  0  0  0  0  0  0  0  0
   -5.5424    2.3550    9.7329 C   0  0  0  0  0  0  0  0  0  0  0  0
   -4.4106    2.6909   10.6155 C   0  0  0  0  0  0  0  0  0  0  0  0
   -3.5274    1.5875   11.1098 C   0  0  0  0  0  0  0  0  0  0  0  0
   -2.5175    2.1951   12.0824 C   0  0  0  0  0  0  0  0  0  0  0  0
   -3.1031    2.6081   13.3848 C   0  0  0  0  0  0  0  0  0  0  0  0
   -2.3170    2.1246   14.5766 C   0  0  0  0  0  0  0  0  0  0  0  0
   -2.9675    2.5519   15.8836 C   0  0  0  0  0  0  0  0  0  0  0  0
   -2.4342    3.8337   16.3885 C   0  0  0  0  0  0  0  0  0  0  0  0
   -2.6822    4.2778   17.5471 O   0  0  0  0  0  0  0  0  0  0  0  0
   -1.6142    4.6306   15.5927 O   0  0  0  0  0  0  0  0  0  0  0  0
   -4.3068    4.8577    8.7120 O   0  0  0  0  0  0  0  0  0  0  0  0
   -4.9766    1.2508    2.6739 O   0  0  0  0  0  0  0  0  0  0  0  0
  1  2  1  0
  2  3  1  0
  3  4  1  0
  4  5  1  0
  5  6  1  0
  5  7  1  0
  7  8  1  0
  8  9  2  3
  9 10  1  0
 10 11  1  0
 11 12  1  0
 12 13  1  0
 13 14  2  0
 13 15  1  0
 15 16  1  0
 16 17  1  0
 17 18  1  0
 18 19  1  0
 19 20  1  0
 20 21  1  0
 21 22  1  0
 22 23  2  0
 22 24  1  0
 11 25  1  0
  5 26  1  0
 15 10  1  0
M  END
$$$$
