
     RDKit          3D

 26 26  0  0  0  0  0  0  0  0999 V2000
   -1.7229   -3.2130    5.4589 C   0  0  0  0  0  0  0  0  0  0  0  0
   -2.2789   -2.4013    4.2797 C   0  0  0  0  0  0  0  0  0  0  0  0
   -3.2748   -1.4204    4.8315 C   0  0  0  0  0  0  0  0  0  0  0  0
   -3.9151   -0.5557    3.8007 C   0  0  0  0  0  0  0  0  0  0  0  0
   -4.8484    0.4919    4.3269 C   0  0  0  0  0  0  0  0  0  0  0  0
   -6.0034   -0.1023    5.0651 C   0  0  0  0  0  0  0  0  0  0  0  0
   -4.0173    1.3520    5.3051 C   0  0  0  0  0  0  0  0  0  0  0  0
   -4.8249    1.5745    6.5189 C   0  0  0  0  0  0  0  0  0  0  0  0
   -4.5598    2.4008    7.5059 C   0  0  0  0  0  0  0  0  0  0  0  0
   -5.5128    2.8003    8.4943 C   0  0  0  0  0  0  0  0  0  0  0  0
   -5.5588    4.2912    8.8308 C   0  0  0  0  0  0  0  0  0  0  0  0
   -6.5133    4.3526   10.0332 C   0  0  0  0  0  0  0  0  0  0  0  0
   -6.7434    2.9335   10.4018 C   0  0  0  0  0  0  0  0  0  0  0  0
   -7.6556    2.4020   10.9905 O   0  0  0  0  0  0  0  0  0  0  0  0
   -5.5018    2.2116    9.8481 C   0  0  0  0  0  0  0  0  0  0  0  0
   -4.4386    2.5236   10.8203 C   0  0  0  0  0  0  0  0  0  0  0  0
   -3.0220    2.1817   10.4766 C   0  0  0  0  0  0  0  0  0  0  0  0
   -2.1904    2.2890   11.7541 C   0  0  0  0  0  0  0  0  0  0  0  0
   -2.8944    2.9548   12.8814 C   0  0  0  0  0  0  0  0  0  0  0  0
   -2.5992    2.3347   14.2233 C   0  0  0  0  0  0  0  0  0  0  0  0
   -1.4321    3.0261   14.9117 C   0  0  0  0  0  0  0  0  0  0  0  0
   -1.8728    4.0532   15.8778 C   0  0  0  0  0  0  0  0  0  0  0  0
   -2.0349    3.8190   17.1106 O   0  0  0  0  0  0  0  0  0  0  0  0
   -2.1361    5.3574   15.4651 O   0  0  0  0  0  0  0  0  0  0  0  0
   -4.3270    4.8363    9.0974 O   0  0  0  0  0  0  0  0  0  0  0  0
   -5.2229    1.3422    3.2997 O   0  0  0  0  0  0  0  0  0  0  0  0
  1  2  1  0
  2  3  1  0
  3  4  1  0
  4  5  1  0
  5  6  1  0
  5  7  1  0
  7  8  1  0
  8  9  2  3
  9 10  1  0
 10 11  1  0
 11 12  1  0
 12 13  1  0
 13 14  2  0
 13 15  1  0
 15 16  1  0
 16 17  1  0
 17 18  1  0
 18 19  1  0
 19 20  1  0
 20 21  1  0
 21 22  1  0
 22 23  2  0
 22 24  1  0
 11 25  1  0
  5 26  1  0
 15 10  1  0
M  END
$$$$
