
     RDKit          3D

 26 26  0  0  0  0  0  0  0  0999 V2000
   -5.6542   -4.0023    3.6465 C   0  0  0  0  0  0  0  0  0  0  0  0
   -4.9276   -2.7103    3.2446 C   0  0  0  0  0  0  0  0  0  0  0  0
   -5.4632   -1.6004    4.1047 C   0  0  0  0  0  0  0  0  0  0  0  0
   -4.9963   -0.2419    3.7087 C   0  0  0  0  0  0  0  0  0  0  0  0
   -5.8066    0.8998    4.2430 C   0  0  0  0  0  0  0  0  0  0  0  0
   -7.2395    0.5278    4.4443 C   0  0  0  0  0  0  0  0  0  0  0  0
   -5.1856    1.2611    5.6108 C   0  0  0  0  0  0  0  0  0  0  0  0
   -3.7338    1.0126    5.5346 C   0  0  0  0  0  0  0  0  0  0  0  0
   -2.8501    1.1815    6.4927 C   0  0  0  0  0  0  0  0  0  0  0  0
   -3.1593    1.1202    7.8875 C   0  0  0  0  0  0  0  0  0  0  0  0
   -2.5186    2.1894    8.7734 C   0  0  0  0  0  0  0  0  0  0  0  0
   -2.8788    1.7321   10.1952 C   0  0  0  0  0  0  0  0  0  0  0  0
   -3.4749    0.3849   10.0159 C   0  0  0  0  0  0  0  0  0  0  0  0
   -4.2420   -0.2443   10.7065 O   0  0  0  0  0  0  0  0  0  0  0  0
   -2.8838   -0.0955    8.6784 C   0  0  0  0  0  0  0  0  0  0  0  0
   -1.5088   -0.5047    9.0170 C   0  0  0  0  0  0  0  0  0  0  0  0
   -1.2108   -0.9499   10.4152 C   0  0  0  0  0  0  0  0  0  0  0  0
   -0.1871   -2.0819   10.3389 C   0  0  0  0  0  0  0  0  0  0  0  0
    1.1740   -1.7001   10.7985 C   0  0  0  0  0  0  0  0  0  0  0  0
    2.1787   -2.8190   10.6932 C   0  0  0  0  0  0  0  0  0  0  0  0
    3.0645   -2.8902   11.9279 C   0  0  0  0  0  0  0  0  0  0  0  0
    2.6000   -3.9011   12.9000 C   0  0  0  0  0  0  0  0  0  0  0  0
    2.8115   -5.1410   12.7628 O   0  0  0  0  0  0  0  0  0  0  0  0
    1.8913   -3.5258   14.0390 O   0  0  0  0  0  0  0  0  0  0  0  0
   -1.1658    2.3278    8.5826 O   0  0  0  0  0  0  0  0  0  0  0  0
   -5.6288    2.0145    3.4403 O   0  0  0  0  0  0  0  0  0  0  0  0
  1  2  1  0
  2  3  1  0
  3  4  1  0
  4  5  1  0
  5  6  1  0
  5  7  1  0
  7  8  1  0
  8  9  2  3
  9 10  1  0
 10 11  1  0
 11 12  1  0
 12 13  1  0
 13 14  2  0
 13 15  1  0
 15 16  1  0
 16 17  1  0
 17 18  1  0
 18 19  1  0
 19 20  1  0
 20 21  1  0
 21 22  1  0
 22 23  2  0
 22 24  1  0
 11 25  1  0
  5 26  1  0
 15 10  1  0
M  END
$$$$
