
     RDKit          3D

 26 26  0  0  0  0  0  0  0  0999 V2000
   -0.4456   -4.0044    3.6080 C   0  0  0  0  0  0  0  0  0  0  0  0
   -0.5552   -3.0053    4.7692 C   0  0  0  0  0  0  0  0  0  0  0  0
   -1.6794   -2.0599    4.4516 C   0  0  0  0  0  0  0  0  0  0  0  0
   -2.0573   -1.1609    5.5783 C   0  0  0  0  0  0  0  0  0  0  0  0
   -2.6880    0.1394    5.1822 C   0  0  0  0  0  0  0  0  0  0  0  0
   -4.1754    0.0377    5.0862 C   0  0  0  0  0  0  0  0  0  0  0  0
   -2.3252    1.1470    6.2959 C   0  0  0  0  0  0  0  0  0  0  0  0
   -2.9604    0.6942    7.5476 C   0  0  0  0  0  0  0  0  0  0  0  0
   -3.8684    1.3332    8.2509 C   0  0  0  0  0  0  0  0  0  0  0  0
   -4.2887    0.9423    9.5606 C   0  0  0  0  0  0  0  0  0  0  0  0
   -5.7297    0.4479    9.6928 C   0  0  0  0  0  0  0  0  0  0  0  0
   -5.9164    0.3061   11.2112 C   0  0  0  0  0  0  0  0  0  0  0  0
   -4.6971    0.9162   11.7973 C   0  0  0  0  0  0  0  0  0  0  0  0
   -4.1579    0.7479   12.8661 O   0  0  0  0  0  0  0  0  0  0  0  0
   -4.2125    1.8794   10.6988 C   0  0  0  0  0  0  0  0  0  0  0  0
   -5.1159    3.0387   10.8101 C   0  0  0  0  0  0  0  0  0  0  0  0
   -4.7130    4.3326   10.1734 C   0  0  0  0  0  0  0  0  0  0  0  0
   -5.2496    5.4698   11.0419 C   0  0  0  0  0  0  0  0  0  0  0  0
   -4.4819    5.6886   12.2959 C   0  0  0  0  0  0  0  0  0  0  0  0
   -4.9055    6.9225   13.0511 C   0  0  0  0  0  0  0  0  0  0  0  0
   -3.7038    7.7369   13.5062 C   0  0  0  0  0  0  0  0  0  0  0  0
   -3.5916    7.8061   14.9776 C   0  0  0  0  0  0  0  0  0  0  0  0
   -4.1725    8.6878   15.6749 O   0  0  0  0  0  0  0  0  0  0  0  0
   -2.8227    6.8815   15.6808 O   0  0  0  0  0  0  0  0  0  0  0  0
   -6.6556    1.2816    9.1156 O   0  0  0  0  0  0  0  0  0  0  0  0
   -2.0876    0.6175    4.0291 O   0  0  0  0  0  0  0  0  0  0  0  0
  1  2  1  0
  2  3  1  0
  3  4  1  0
  4  5  1  0
  5  6  1  0
  5  7  1  0
  7  8  1  0
  8  9  2  3
  9 10  1  0
 10 11  1  0
 11 12  1  0
 12 13  1  0
 13 14  2  0
 13 15  1  0
 15 16  1  0
 16 17  1  0
 17 18  1  0
 18 19  1  0
 19 20  1  0
 20 21  1  0
 21 22  1  0
 22 23  2  0
 22 24  1  0
 11 25  1  0
  5 26  1  0
 15 10  1  0
M  END
$$$$
