
     RDKit          3D

 26 26  0  0  0  0  0  0  0  0999 V2000
   -5.7220   -4.8843    5.2822 C   0  0  0  0  0  0  0  0  0  0  0  0
   -5.3754   -4.1109    4.0014 C   0  0  0  0  0  0  0  0  0  0  0  0
   -4.5226   -2.9377    4.3947 C   0  0  0  0  0  0  0  0  0  0  0  0
   -4.0968   -2.0823    3.2513 C   0  0  0  0  0  0  0  0  0  0  0  0
   -3.0770   -1.0333    3.5754 C   0  0  0  0  0  0  0  0  0  0  0  0
   -3.4141    0.2876    2.9640 C   0  0  0  0  0  0  0  0  0  0  0  0
   -3.0852   -0.8903    5.1138 C   0  0  0  0  0  0  0  0  0  0  0  0
   -4.1818    0.0242    5.4829 C   0  0  0  0  0  0  0  0  0  0  0  0
   -4.0698    1.2199    6.0168 C   0  0  0  0  0  0  0  0  0  0  0  0
   -5.1698    1.9714    6.5365 C   0  0  0  0  0  0  0  0  0  0  0  0
   -5.0687    3.4928    6.4208 C   0  0  0  0  0  0  0  0  0  0  0  0
   -6.2769    3.9895    7.2294 C   0  0  0  0  0  0  0  0  0  0  0  0
   -6.8104    2.7732    7.8916 C   0  0  0  0  0  0  0  0  0  0  0  0
   -7.9136    2.5155    8.3133 O   0  0  0  0  0  0  0  0  0  0  0  0
   -5.5959    1.8289    7.9428 C   0  0  0  0  0  0  0  0  0  0  0  0
   -4.7809    2.3481    9.0560 C   0  0  0  0  0  0  0  0  0  0  0  0
   -4.5090    1.4581   10.2289 C   0  0  0  0  0  0  0  0  0  0  0  0
   -3.7666    2.2817   11.2804 C   0  0  0  0  0  0  0  0  0  0  0  0
   -4.5158    3.4743   11.7560 C   0  0  0  0  0  0  0  0  0  0  0  0
   -3.9502    4.0743   13.0179 C   0  0  0  0  0  0  0  0  0  0  0  0
   -4.8503    5.1721   13.5647 C   0  0  0  0  0  0  0  0  0  0  0  0
   -4.2640    5.8527   14.7376 C   0  0  0  0  0  0  0  0  0  0  0  0
   -4.6772    5.6725   15.9199 O   0  0  0  0  0  0  0  0  0  0  0  0
   -3.2042    6.7448   14.5913 O   0  0  0  0  0  0  0  0  0  0  0  0
   -3.8766    4.0038    6.8719 O   0  0  0  0  0  0  0  0  0  0  0  0
   -1.8130   -1.4928    3.2446 O   0  0  0  0  0  0  0  0  0  0  0  0
  1  2  1  0
  2  3  1  0
  3  4  1  0
  4  5  1  0
  5  6  1  0
  5  7  1  0
  7  8  1  0
  8  9  2  3
  9 10  1  0
 10 11  1  0
 11 12  1  0
 12 13  1  0
 13 14  2  0
 13 15  1  0
 15 16  1  0
 16 17  1  0
 17 18  1  0
 18 19  1  0
 19 20  1  0
 20 21  1  0
 21 22  1  0
 22 23  2  0
 22 24  1  0
 11 25  1  0
  5 26  1  0
 15 10  1  0
M  END
$$$$
