
     RDKit          3D

 26 26  0  0  0  0  0  0  0  0999 V2000
    1.2610   -3.7324    3.3683 C   0  0  0  0  0  0  0  0  0  0  0  0
   -0.2451   -3.5048    3.5645 C   0  0  0  0  0  0  0  0  0  0  0  0
   -0.4199   -2.6363    4.7784 C   0  0  0  0  0  0  0  0  0  0  0  0
   -1.8351   -2.2711    5.0687 C   0  0  0  0  0  0  0  0  0  0  0  0
   -2.0638   -1.5573    6.3662 C   0  0  0  0  0  0  0  0  0  0  0  0
   -1.1102   -1.9993    7.4279 C   0  0  0  0  0  0  0  0  0  0  0  0
   -1.8307   -0.0578    6.0757 C   0  0  0  0  0  0  0  0  0  0  0  0
   -3.1083    0.6514    6.2757 C   0  0  0  0  0  0  0  0  0  0  0  0
   -3.3867    1.5332    7.2097 C   0  0  0  0  0  0  0  0  0  0  0  0
   -4.3866    2.5473    7.0816 C   0  0  0  0  0  0  0  0  0  0  0  0
   -3.8970    3.9950    7.1330 C   0  0  0  0  0  0  0  0  0  0  0  0
   -5.2004    4.8075    7.1702 C   0  0  0  0  0  0  0  0  0  0  0  0
   -6.2688    3.7939    7.3538 C   0  0  0  0  0  0  0  0  0  0  0  0
   -7.4462    3.8202    7.0813 O   0  0  0  0  0  0  0  0  0  0  0  0
   -5.5339    2.6105    8.0086 C   0  0  0  0  0  0  0  0  0  0  0  0
   -5.3718    3.0192    9.4155 C   0  0  0  0  0  0  0  0  0  0  0  0
   -5.7719    2.0635   10.4964 C   0  0  0  0  0  0  0  0  0  0  0  0
   -5.4622    2.7199   11.8412 C   0  0  0  0  0  0  0  0  0  0  0  0
   -5.4592    4.2060   11.8038 C   0  0  0  0  0  0  0  0  0  0  0  0
   -6.4682    4.8316   12.7326 C   0  0  0  0  0  0  0  0  0  0  0  0
   -5.8590    5.1368   14.0928 C   0  0  0  0  0  0  0  0  0  0  0  0
   -5.5769    6.5752   14.2766 C   0  0  0  0  0  0  0  0  0  0  0  0
   -6.3924    7.3762   14.8191 O   0  0  0  0  0  0  0  0  0  0  0  0
   -4.3712    7.1280   13.8507 O   0  0  0  0  0  0  0  0  0  0  0  0
   -3.0699    4.2617    8.1962 O   0  0  0  0  0  0  0  0  0  0  0  0
   -3.3949   -1.6693    6.7325 O   0  0  0  0  0  0  0  0  0  0  0  0
  1  2  1  0
  2  3  1  0
  3  4  1  0
  4  5  1  0
  5  6  1  0
  5  7  1  0
  7  8  1  0
  8  9  2  3
  9 10  1  0
 10 11  1  0
 11 12  1  0
 12 13  1  0
 13 14  2  0
 13 15  1  0
 15 16  1  0
 16 17  1  0
 17 18  1  0
 18 19  1  0
 19 20  1  0
 20 21  1  0
 21 22  1  0
 22 23  2  0
 22 24  1  0
 11 25  1  0
  5 26  1  0
 15 10  1  0
M  END
$$$$
