
     RDKit          3D

 26 26  0  0  0  0  0  0  0  0999 V2000
   -3.0823    2.9667   13.2737 C   0  0  0  0  0  0  0  0  0  0  0  0
   -3.4322    3.7539   12.0023 C   0  0  0  0  0  0  0  0  0  0  0  0
   -4.5460    3.0231   11.3065 C   0  0  0  0  0  0  0  0  0  0  0  0
   -5.0250    3.6849   10.0603 C   0  0  0  0  0  0  0  0  0  0  0  0
   -6.1825    3.0190    9.3804 C   0  0  0  0  0  0  0  0  0  0  0  0
   -6.5278    3.6759    8.0838 C   0  0  0  0  0  0  0  0  0  0  0  0
   -5.7366    1.5659    9.1031 C   0  0  0  0  0  0  0  0  0  0  0  0
   -4.8542    1.5753    7.9213 C   0  0  0  0  0  0  0  0  0  0  0  0
   -4.3044    0.5353    7.3354 C   0  0  0  0  0  0  0  0  0  0  0  0
   -3.7470    0.5593    6.0188 C   0  0  0  0  0  0  0  0  0  0  0  0
   -4.6253    0.0008    4.8985 C   0  0  0  0  0  0  0  0  0  0  0  0
   -3.6832   -0.0134    3.6850 C   0  0  0  0  0  0  0  0  0  0  0  0
   -2.3475    0.3128    4.2436 C   0  0  0  0  0  0  0  0  0  0  0  0
   -1.3639    0.7899    3.7277 O   0  0  0  0  0  0  0  0  0  0  0  0
   -2.4629   -0.1052    5.7205 C   0  0  0  0  0  0  0  0  0  0  0  0
   -2.3386   -1.5737    5.6915 C   0  0  0  0  0  0  0  0  0  0  0  0
   -2.5753   -2.3441    6.9533 C   0  0  0  0  0  0  0  0  0  0  0  0
   -1.5917   -3.5133    6.9805 C   0  0  0  0  0  0  0  0  0  0  0  0
   -0.3093   -3.2106    7.6687 C   0  0  0  0  0  0  0  0  0  0  0  0
    0.4923   -4.4402    8.0120 C   0  0  0  0  0  0  0  0  0  0  0  0
    1.9487   -4.2888    7.5995 C   0  0  0  0  0  0  0  0  0  0  0  0
    2.5246   -5.5478    7.0840 C   0  0  0  0  0  0  0  0  0  0  0  0
    2.6098   -6.6037    7.7759 O   0  0  0  0  0  0  0  0  0  0  0  0
    3.0115   -5.6313    5.7815 O   0  0  0  0  0  0  0  0  0  0  0  0
   -5.1580   -1.2339    5.1767 O   0  0  0  0  0  0  0  0  0  0  0  0
   -7.2496    2.9264   10.2586 O   0  0  0  0  0  0  0  0  0  0  0  0
  1  2  1  0
  2  3  1  0
  3  4  1  0
  4  5  1  0
  5  6  1  0
  5  7  1  0
  7  8  1  0
  8  9  2  3
  9 10  1  0
 10 11  1  0
 11 12  1  0
 12 13  1  0
 13 14  2  0
 13 15  1  0
 15 16  1  0
 16 17  1  0
 17 18  1  0
 18 19  1  0
 19 20  1  0
 20 21  1  0
 21 22  1  0
 22 23  2  0
 22 24  1  0
 11 25  1  0
  5 26  1  0
 15 10  1  0
M  END
$$$$
