
     RDKit          3D

 26 26  0  0  0  0  0  0  0  0999 V2000
   -0.8134   -5.0166    2.6028 C   0  0  0  0  0  0  0  0  0  0  0  0
   -1.4260   -4.5192    3.9204 C   0  0  0  0  0  0  0  0  0  0  0  0
   -0.6527   -3.3050    4.3521 C   0  0  0  0  0  0  0  0  0  0  0  0
   -1.1105   -2.7171    5.6425 C   0  0  0  0  0  0  0  0  0  0  0  0
   -0.2788   -1.5863    6.1671 C   0  0  0  0  0  0  0  0  0  0  0  0
    1.1831   -1.8248    5.9720 C   0  0  0  0  0  0  0  0  0  0  0  0
   -0.6956   -0.3381    5.3574 C   0  0  0  0  0  0  0  0  0  0  0  0
   -2.1378   -0.1148    5.5704 C   0  0  0  0  0  0  0  0  0  0  0  0
   -2.7140    0.9872    5.9959 C   0  0  0  0  0  0  0  0  0  0  0  0
   -4.1094    1.2670    5.8562 C   0  0  0  0  0  0  0  0  0  0  0  0
   -4.4769    2.6787    5.3977 C   0  0  0  0  0  0  0  0  0  0  0  0
   -6.0063    2.7096    5.5410 C   0  0  0  0  0  0  0  0  0  0  0  0
   -6.3420    1.4482    6.2472 C   0  0  0  0  0  0  0  0  0  0  0  0
   -7.3628    0.8016    6.2796 O   0  0  0  0  0  0  0  0  0  0  0  0
   -5.0406    1.0929    6.9884 C   0  0  0  0  0  0  0  0  0  0  0  0
   -5.0267    2.0004    8.1499 C   0  0  0  0  0  0  0  0  0  0  0  0
   -5.9205    1.6995    9.3129 C   0  0  0  0  0  0  0  0  0  0  0  0
   -5.0463    1.5973   10.5621 C   0  0  0  0  0  0  0  0  0  0  0  0
   -4.6033    2.9101   11.1008 C   0  0  0  0  0  0  0  0  0  0  0  0
   -5.3595    3.3395   12.3321 C   0  0  0  0  0  0  0  0  0  0  0  0
   -4.5031    4.2146   13.2348 C   0  0  0  0  0  0  0  0  0  0  0  0
   -4.5541    5.6411   12.8539 C   0  0  0  0  0  0  0  0  0  0  0  0
   -3.5353    6.2964   12.4885 O   0  0  0  0  0  0  0  0  0  0  0  0
   -5.7553    6.3461   12.8803 O   0  0  0  0  0  0  0  0  0  0  0  0
   -3.8527    3.6721    6.1112 O   0  0  0  0  0  0  0  0  0  0  0  0
   -0.6285   -1.3196    7.4805 O   0  0  0  0  0  0  0  0  0  0  0  0
  1  2  1  0
  2  3  1  0
  3  4  1  0
  4  5  1  0
  5  6  1  0
  5  7  1  0
  7  8  1  0
  8  9  2  3
  9 10  1  0
 10 11  1  0
 11 12  1  0
 12 13  1  0
 13 14  2  0
 13 15  1  0
 15 16  1  0
 16 17  1  0
 17 18  1  0
 18 19  1  0
 19 20  1  0
 20 21  1  0
 21 22  1  0
 22 23  2  0
 22 24  1  0
 11 25  1  0
  5 26  1  0
 15 10  1  0
M  END
$$$$
