
     RDKit          3D

 26 26  0  0  0  0  0  0  0  0999 V2000
   -0.6727   -3.0502    7.0206 C   0  0  0  0  0  0  0  0  0  0  0  0
   -1.2234   -3.2654    5.6032 C   0  0  0  0  0  0  0  0  0  0  0  0
   -2.2744   -2.2192    5.3594 C   0  0  0  0  0  0  0  0  0  0  0  0
   -2.9174   -2.3013    4.0178 C   0  0  0  0  0  0  0  0  0  0  0  0
   -3.5859   -1.0463    3.5451 C   0  0  0  0  0  0  0  0  0  0  0  0
   -5.0754   -1.1622    3.5586 C   0  0  0  0  0  0  0  0  0  0  0  0
   -3.1604    0.0627    4.5332 C   0  0  0  0  0  0  0  0  0  0  0  0
   -4.3552    0.4888    5.2855 C   0  0  0  0  0  0  0  0  0  0  0  0
   -4.4230    1.4370    6.1931 C   0  0  0  0  0  0  0  0  0  0  0  0
   -5.6466    1.9469    6.7291 C   0  0  0  0  0  0  0  0  0  0  0  0
   -5.8059    3.4678    6.7321 C   0  0  0  0  0  0  0  0  0  0  0  0
   -7.0987    3.6859    7.5330 C   0  0  0  0  0  0  0  0  0  0  0  0
   -7.4295    2.3475    8.0824 C   0  0  0  0  0  0  0  0  0  0  0  0
   -8.4808    1.8734    8.4446 O   0  0  0  0  0  0  0  0  0  0  0  0
   -6.0722    1.6218    8.1049 C   0  0  0  0  0  0  0  0  0  0  0  0
   -5.3828    2.1805    9.2819 C   0  0  0  0  0  0  0  0  0  0  0  0
   -4.0403    1.6356    9.6593 C   0  0  0  0  0  0  0  0  0  0  0  0
   -3.9710    1.5741   11.1846 C   0  0  0  0  0  0  0  0  0  0  0  0
   -3.4366    2.8085   11.8173 C   0  0  0  0  0  0  0  0  0  0  0  0
   -3.7878    2.9346   13.2778 C   0  0  0  0  0  0  0  0  0  0  0  0
   -4.2214    4.3506   13.6260 C   0  0  0  0  0  0  0  0  0  0  0  0
   -3.0855    5.2098   14.0183 C   0  0  0  0  0  0  0  0  0  0  0  0
   -2.5105    5.1260   15.1423 O   0  0  0  0  0  0  0  0  0  0  0  0
   -2.5839    6.1744   13.1473 O   0  0  0  0  0  0  0  0  0  0  0  0
   -4.7294    4.1356    7.2619 O   0  0  0  0  0  0  0  0  0  0  0  0
   -3.0680   -0.6762    2.3149 O   0  0  0  0  0  0  0  0  0  0  0  0
  1  2  1  0
  2  3  1  0
  3  4  1  0
  4  5  1  0
  5  6  1  0
  5  7  1  0
  7  8  1  0
  8  9  2  3
  9 10  1  0
 10 11  1  0
 11 12  1  0
 12 13  1  0
 13 14  2  0
 13 15  1  0
 15 16  1  0
 16 17  1  0
 17 18  1  0
 18 19  1  0
 19 20  1  0
 20 21  1  0
 21 22  1  0
 22 23  2  0
 22 24  1  0
 11 25  1  0
  5 26  1  0
 15 10  1  0
M  END
$$$$
