
     RDKit          3D

 32 34  0  0  0  0  0  0  0  0999 V2000
   -1.7049   18.2692    6.5392 O   0  0  0  0  0  0  0  0  0  0  0  0
   -2.6199   17.5778    6.0650 C   0  0  0  0  0  0  0  0  0  0  0  0
   -3.6594   17.0431    6.8696 N   0  0  0  0  0  0  0  0  0  0  0  0
   -3.8969   17.3565    8.2295 C   0  0  0  0  0  0  0  0  0  0  0  0
   -3.2997   18.3824    8.9216 C   0  0  0  0  0  0  0  0  0  0  0  0
   -3.5599   18.6563   10.2497 C   0  0  0  0  0  0  0  0  0  0  0  0
   -4.4675   17.8383   10.8736 C   0  0  0  0  0  0  0  0  0  0  0  0
   -5.0503   16.8358   10.1956 N   0  0  0  0  0  0  0  0  0  0  0  0
   -4.8176   16.5449    8.9041 C   0  0  0  0  0  0  0  0  0  0  0  0
   -5.4137   15.5249    8.2248 O   0  0  0  0  0  0  0  0  0  0  0  0
   -5.7628   14.3100    8.6959 C   0  0  0  0  0  0  0  0  0  0  0  0
   -5.2498   13.6393    9.7731 C   0  0  0  0  0  0  0  0  0  0  0  0
   -5.6752   12.3776   10.1899 C   0  0  0  0  0  0  0  0  0  0  0  0
   -6.6678   11.7604    9.4858 C   0  0  0  0  0  0  0  0  0  0  0  0
   -7.2113   12.3901    8.4026 C   0  0  0  0  0  0  0  0  0  0  0  0
   -6.7827   13.6371    7.9999 C   0  0  0  0  0  0  0  0  0  0  0  0
   -7.3848   14.2813    6.8300 C   0  0  0  0  0  0  0  0  0  0  0  0
   -8.0621   15.5945    7.2471 C   0  0  0  0  0  0  0  0  0  0  0  0
   -6.3015   14.6832    5.8553 C   0  0  0  0  0  0  0  0  0  0  0  0
   -8.4722   13.4471    6.1934 C   0  0  0  0  0  0  0  0  0  0  0  0
   -2.5607   17.3535    4.6537 N   0  0  0  0  0  0  0  0  0  0  0  0
   -1.7962   18.1862    3.7923 C   0  0  0  0  0  0  0  0  0  0  0  0
   -1.7558   18.0178    2.4251 C   0  0  0  0  0  0  0  0  0  0  0  0
   -0.9931   18.8576    1.6218 C   0  0  0  0  0  0  0  0  0  0  0  0
   -0.2529   19.8853    2.1646 C   0  0  0  0  0  0  0  0  0  0  0  0
   -0.2958   20.0506    3.5313 C   0  0  0  0  0  0  0  0  0  0  0  0
   -1.0555   19.2141    4.3322 C   0  0  0  0  0  0  0  0  0  0  0  0
    0.5019   20.7136    1.3516 O   0  0  0  0  0  0  0  0  0  0  0  0
    1.8264   20.3525    0.9407 C   0  0  0  0  0  0  0  0  0  0  0  0
    2.3656   21.3245    0.1372 F   0  0  0  0  0  0  0  0  0  0  0  0
    1.7091   19.1970    0.1821 F   0  0  0  0  0  0  0  0  0  0  0  0
    2.5580   20.0952    2.0625 F   0  0  0  0  0  0  0  0  0  0  0  0
  1  2  2  0
  2  3  1  0
  3  4  1  0
  4  5  2  0
  5  6  1  0
  6  7  2  0
  7  8  1  0
  8  9  2  0
  9 10  1  0
 10 11  1  0
 11 12  2  0
 12 13  1  0
 13 14  2  0
 14 15  1  0
 15 16  2  0
 16 17  1  0
 17 18  1  0
 17 19  1  0
 17 20  1  0
  2 21  1  0
 21 22  1  0
 22 23  2  0
 23 24  1  0
 24 25  2  0
 25 26  1  0
 26 27  2  0
 25 28  1  0
 28 29  1  0
 29 30  1  0
 29 31  1  0
 29 32  1  0
  9  4  1  0
 16 11  1  0
 27 22  1  0
M  END
$$$$
