
     RDKit          3D

 32 34  0  0  0  0  0  0  0  0999 V2000
   -3.9520   16.6312    8.9006 O   0  0  0  0  0  0  0  0  0  0  0  0
   -3.7616   16.7032    7.6764 C   0  0  0  0  0  0  0  0  0  0  0  0
   -3.3022   17.8911    7.0505 N   0  0  0  0  0  0  0  0  0  0  0  0
   -3.0475   19.1229    7.7001 C   0  0  0  0  0  0  0  0  0  0  0  0
   -3.2542   19.3712    9.0356 C   0  0  0  0  0  0  0  0  0  0  0  0
   -2.9917   20.5884    9.6322 C   0  0  0  0  0  0  0  0  0  0  0  0
   -2.5002   21.5740    8.8140 C   0  0  0  0  0  0  0  0  0  0  0  0
   -2.2989   21.3297    7.5087 N   0  0  0  0  0  0  0  0  0  0  0  0
   -2.5447   20.1567    6.9001 C   0  0  0  0  0  0  0  0  0  0  0  0
   -2.3377   19.9184    5.5744 O   0  0  0  0  0  0  0  0  0  0  0  0
   -1.2366   20.1959    4.8461 C   0  0  0  0  0  0  0  0  0  0  0  0
    0.0493   20.3626    5.2842 C   0  0  0  0  0  0  0  0  0  0  0  0
    1.1327   20.6493    4.4531 C   0  0  0  0  0  0  0  0  0  0  0  0
    0.9092   20.7745    3.1128 C   0  0  0  0  0  0  0  0  0  0  0  0
   -0.3577   20.6169    2.6279 C   0  0  0  0  0  0  0  0  0  0  0  0
   -1.4209   20.3337    3.4588 C   0  0  0  0  0  0  0  0  0  0  0  0
   -2.7678   20.1760    2.9049 C   0  0  0  0  0  0  0  0  0  0  0  0
   -3.8137   20.6062    3.9434 C   0  0  0  0  0  0  0  0  0  0  0  0
   -2.9530   21.1191    1.7381 C   0  0  0  0  0  0  0  0  0  0  0  0
   -3.0996   18.7418    2.5636 C   0  0  0  0  0  0  0  0  0  0  0  0
   -4.0350   15.5114    6.9346 N   0  0  0  0  0  0  0  0  0  0  0  0
   -4.6502   14.3787    7.5333 C   0  0  0  0  0  0  0  0  0  0  0  0
   -5.1863   13.3404    6.8027 C   0  0  0  0  0  0  0  0  0  0  0  0
   -5.7787   12.2519    7.4324 C   0  0  0  0  0  0  0  0  0  0  0  0
   -5.8498   12.1744    8.8063 C   0  0  0  0  0  0  0  0  0  0  0  0
   -5.3130   13.2140    9.5332 C   0  0  0  0  0  0  0  0  0  0  0  0
   -4.7227   14.2987    8.9063 C   0  0  0  0  0  0  0  0  0  0  0  0
   -6.4430   11.0839    9.4192 O   0  0  0  0  0  0  0  0  0  0  0  0
   -5.9551    9.7527    9.2108 C   0  0  0  0  0  0  0  0  0  0  0  0
   -6.9862    8.8488    9.2442 F   0  0  0  0  0  0  0  0  0  0  0  0
   -5.1095    9.4654   10.2724 F   0  0  0  0  0  0  0  0  0  0  0  0
   -5.2498    9.7424    8.0436 F   0  0  0  0  0  0  0  0  0  0  0  0
  1  2  2  0
  2  3  1  0
  3  4  1  0
  4  5  2  0
  5  6  1  0
  6  7  2  0
  7  8  1  0
  8  9  2  0
  9 10  1  0
 10 11  1  0
 11 12  2  0
 12 13  1  0
 13 14  2  0
 14 15  1  0
 15 16  2  0
 16 17  1  0
 17 18  1  0
 17 19  1  0
 17 20  1  0
  2 21  1  0
 21 22  1  0
 22 23  2  0
 23 24  1  0
 24 25  2  0
 25 26  1  0
 26 27  2  0
 25 28  1  0
 28 29  1  0
 29 30  1  0
 29 31  1  0
 29 32  1  0
  9  4  1  0
 16 11  1  0
 27 22  1  0
M  END
$$$$
