
     RDKit          3D

 32 34  0  0  0  0  0  0  0  0999 V2000
   -1.8938   18.5866    7.1082 O   0  0  0  0  0  0  0  0  0  0  0  0
   -2.6251   17.7284    6.5899 C   0  0  0  0  0  0  0  0  0  0  0  0
   -3.7067   17.1331    7.2896 N   0  0  0  0  0  0  0  0  0  0  0  0
   -4.1532   17.4939    8.5836 C   0  0  0  0  0  0  0  0  0  0  0  0
   -3.6200   18.4996    9.3533 C   0  0  0  0  0  0  0  0  0  0  0  0
   -4.0857   18.8215   10.6127 C   0  0  0  0  0  0  0  0  0  0  0  0
   -5.1362   18.0746   11.0827 C   0  0  0  0  0  0  0  0  0  0  0  0
   -5.6562   17.0919   10.3291 N   0  0  0  0  0  0  0  0  0  0  0  0
   -5.2248   16.7555    9.1013 C   0  0  0  0  0  0  0  0  0  0  0  0
   -5.7587   15.7559    8.3442 O   0  0  0  0  0  0  0  0  0  0  0  0
   -7.0519   15.5753    8.0056 C   0  0  0  0  0  0  0  0  0  0  0  0
   -7.9559   16.5120    7.5829 C   0  0  0  0  0  0  0  0  0  0  0  0
   -9.2821   16.2323    7.2518 C   0  0  0  0  0  0  0  0  0  0  0  0
   -9.7195   14.9436    7.3516 C   0  0  0  0  0  0  0  0  0  0  0  0
   -8.8540   13.9733    7.7691 C   0  0  0  0  0  0  0  0  0  0  0  0
   -7.5454   14.2615    8.0938 C   0  0  0  0  0  0  0  0  0  0  0  0
   -6.6456   13.1964    8.5431 C   0  0  0  0  0  0  0  0  0  0  0  0
   -5.8782   13.6527    9.7922 C   0  0  0  0  0  0  0  0  0  0  0  0
   -7.4544   11.9990    8.9871 C   0  0  0  0  0  0  0  0  0  0  0  0
   -5.5884   12.8488    7.5208 C   0  0  0  0  0  0  0  0  0  0  0  0
   -2.3086   17.3763    5.2403 N   0  0  0  0  0  0  0  0  0  0  0  0
   -1.4691   18.1875    4.4297 C   0  0  0  0  0  0  0  0  0  0  0  0
   -0.8756   19.3451    4.8847 C   0  0  0  0  0  0  0  0  0  0  0  0
   -0.0614   20.1071    4.0548 C   0  0  0  0  0  0  0  0  0  0  0  0
    0.1795   19.7313    2.7512 C   0  0  0  0  0  0  0  0  0  0  0  0
   -0.4154   18.5739    2.3000 C   0  0  0  0  0  0  0  0  0  0  0  0
   -1.2267   17.8143    3.1263 C   0  0  0  0  0  0  0  0  0  0  0  0
    0.9927   20.5006    1.9366 O   0  0  0  0  0  0  0  0  0  0  0  0
    0.9339   20.3957    0.5087 C   0  0  0  0  0  0  0  0  0  0  0  0
    1.3784   19.1657    0.0952 F   0  0  0  0  0  0  0  0  0  0  0  0
    1.8038   21.3497    0.0010 F   0  0  0  0  0  0  0  0  0  0  0  0
   -0.3415   20.6811    0.1194 F   0  0  0  0  0  0  0  0  0  0  0  0
  1  2  2  0
  2  3  1  0
  3  4  1  0
  4  5  2  0
  5  6  1  0
  6  7  2  0
  7  8  1  0
  8  9  2  0
  9 10  1  0
 10 11  1  0
 11 12  2  0
 12 13  1  0
 13 14  2  0
 14 15  1  0
 15 16  2  0
 16 17  1  0
 17 18  1  0
 17 19  1  0
 17 20  1  0
  2 21  1  0
 21 22  1  0
 22 23  2  0
 23 24  1  0
 24 25  2  0
 25 26  1  0
 26 27  2  0
 25 28  1  0
 28 29  1  0
 29 30  1  0
 29 31  1  0
 29 32  1  0
  9  4  1  0
 16 11  1  0
 27 22  1  0
M  END
$$$$
