
     RDKit          3D

 32 34  0  0  0  0  0  0  0  0999 V2000
   -1.6755   18.5129    7.0266 O   0  0  0  0  0  0  0  0  0  0  0  0
   -2.4597   17.6704    6.5625 C   0  0  0  0  0  0  0  0  0  0  0  0
   -3.5101   17.1086    7.3337 N   0  0  0  0  0  0  0  0  0  0  0  0
   -3.8846   17.5105    8.6384 C   0  0  0  0  0  0  0  0  0  0  0  0
   -3.3146   18.5435    9.3428 C   0  0  0  0  0  0  0  0  0  0  0  0
   -3.7099   18.9054   10.6153 C   0  0  0  0  0  0  0  0  0  0  0  0
   -4.7275   18.1702   11.1688 C   0  0  0  0  0  0  0  0  0  0  0  0
   -5.2835   17.1608   10.4790 N   0  0  0  0  0  0  0  0  0  0  0  0
   -4.9206   16.7854    9.2404 C   0  0  0  0  0  0  0  0  0  0  0  0
   -5.4906   15.7589    8.5485 O   0  0  0  0  0  0  0  0  0  0  0  0
   -6.7583   15.6696    8.0960 C   0  0  0  0  0  0  0  0  0  0  0  0
   -7.5835   16.6801    7.6822 C   0  0  0  0  0  0  0  0  0  0  0  0
   -8.8889   16.4931    7.2266 C   0  0  0  0  0  0  0  0  0  0  0  0
   -9.3881   15.2238    7.1859 C   0  0  0  0  0  0  0  0  0  0  0  0
   -8.6023   14.1821    7.5889 C   0  0  0  0  0  0  0  0  0  0  0  0
   -7.3135   14.3790    8.0374 C   0  0  0  0  0  0  0  0  0  0  0  0
   -6.5002   13.2387    8.4669 C   0  0  0  0  0  0  0  0  0  0  0  0
   -5.1811   13.7369    9.0745 C   0  0  0  0  0  0  0  0  0  0  0  0
   -7.2025   12.5042    9.5860 C   0  0  0  0  0  0  0  0  0  0  0  0
   -6.1049   12.3337    7.3231 C   0  0  0  0  0  0  0  0  0  0  0  0
   -2.2376   17.3007    5.1989 N   0  0  0  0  0  0  0  0  0  0  0  0
   -1.3300   18.0102    4.3667 C   0  0  0  0  0  0  0  0  0  0  0  0
   -0.6981   19.1698    4.7607 C   0  0  0  0  0  0  0  0  0  0  0  0
    0.1826   19.8301    3.9118 C   0  0  0  0  0  0  0  0  0  0  0  0
    0.4533   19.3481    2.6495 C   0  0  0  0  0  0  0  0  0  0  0  0
   -0.1800   18.1889    2.2593 C   0  0  0  0  0  0  0  0  0  0  0  0
   -1.0576   17.5307    3.1047 C   0  0  0  0  0  0  0  0  0  0  0  0
    1.3328   20.0168    1.8153 O   0  0  0  0  0  0  0  0  0  0  0  0
    0.8849   21.0550    0.9350 C   0  0  0  0  0  0  0  0  0  0  0  0
    0.2173   22.0278    1.6344 F   0  0  0  0  0  0  0  0  0  0  0  0
   -0.0182   20.4735    0.0571 F   0  0  0  0  0  0  0  0  0  0  0  0
    1.9673   21.5157    0.2450 F   0  0  0  0  0  0  0  0  0  0  0  0
  1  2  2  0
  2  3  1  0
  3  4  1  0
  4  5  2  0
  5  6  1  0
  6  7  2  0
  7  8  1  0
  8  9  2  0
  9 10  1  0
 10 11  1  0
 11 12  2  0
 12 13  1  0
 13 14  2  0
 14 15  1  0
 15 16  2  0
 16 17  1  0
 17 18  1  0
 17 19  1  0
 17 20  1  0
  2 21  1  0
 21 22  1  0
 22 23  2  0
 23 24  1  0
 24 25  2  0
 25 26  1  0
 26 27  2  0
 25 28  1  0
 28 29  1  0
 29 30  1  0
 29 31  1  0
 29 32  1  0
  9  4  1  0
 16 11  1  0
 27 22  1  0
M  END
$$$$
