
     RDKit          3D

 32 34  0  0  0  0  0  0  0  0999 V2000
   -1.7377   18.0492    6.7308 O   0  0  0  0  0  0  0  0  0  0  0  0
   -2.6865   17.3827    6.2882 C   0  0  0  0  0  0  0  0  0  0  0  0
   -3.7546   16.9456    7.1139 N   0  0  0  0  0  0  0  0  0  0  0  0
   -3.9943   17.3619    8.4456 C   0  0  0  0  0  0  0  0  0  0  0  0
   -3.1766   18.1907    9.1754 C   0  0  0  0  0  0  0  0  0  0  0  0
   -3.4469   18.5747   10.4738 C   0  0  0  0  0  0  0  0  0  0  0  0
   -4.6015   18.0813   11.0267 C   0  0  0  0  0  0  0  0  0  0  0  0
   -5.3997   17.2712   10.3120 N   0  0  0  0  0  0  0  0  0  0  0  0
   -5.1633   16.8802    9.0479 C   0  0  0  0  0  0  0  0  0  0  0  0
   -5.9792   16.0571    8.3309 O   0  0  0  0  0  0  0  0  0  0  0  0
   -7.2986   15.8399    8.5092 C   0  0  0  0  0  0  0  0  0  0  0  0
   -8.2942   16.7638    8.6780 C   0  0  0  0  0  0  0  0  0  0  0  0
   -9.6409   16.4455    8.8567 C   0  0  0  0  0  0  0  0  0  0  0  0
  -10.0026   15.1298    8.8658 C   0  0  0  0  0  0  0  0  0  0  0  0
   -9.0443   14.1708    8.7013 C   0  0  0  0  0  0  0  0  0  0  0  0
   -7.7163   14.4973    8.5255 C   0  0  0  0  0  0  0  0  0  0  0  0
   -6.7139   13.4424    8.3569 C   0  0  0  0  0  0  0  0  0  0  0  0
   -5.7928   13.3957    9.5844 C   0  0  0  0  0  0  0  0  0  0  0  0
   -7.3950   12.0934    8.3177 C   0  0  0  0  0  0  0  0  0  0  0  0
   -5.8036   13.6791    7.1742 C   0  0  0  0  0  0  0  0  0  0  0  0
   -2.6353   17.0825    4.8908 N   0  0  0  0  0  0  0  0  0  0  0  0
   -1.7375   17.7471    4.0122 C   0  0  0  0  0  0  0  0  0  0  0  0
   -1.5875   17.4000    2.6870 C   0  0  0  0  0  0  0  0  0  0  0  0
   -0.6961   18.0793    1.8646 C   0  0  0  0  0  0  0  0  0  0  0  0
    0.0666   19.1211    2.3461 C   0  0  0  0  0  0  0  0  0  0  0  0
   -0.0861   19.4652    3.6710 C   0  0  0  0  0  0  0  0  0  0  0  0
   -0.9741   18.7887    4.4908 C   0  0  0  0  0  0  0  0  0  0  0  0
    0.9502   19.7882    1.5149 O   0  0  0  0  0  0  0  0  0  0  0  0
    1.1613   21.2010    1.6285 C   0  0  0  0  0  0  0  0  0  0  0  0
    1.5685   21.5289    2.8966 F   0  0  0  0  0  0  0  0  0  0  0  0
   -0.0670   21.8081    1.4111 F   0  0  0  0  0  0  0  0  0  0  0  0
    2.0389   21.5737    0.6534 F   0  0  0  0  0  0  0  0  0  0  0  0
  1  2  2  0
  2  3  1  0
  3  4  1  0
  4  5  2  0
  5  6  1  0
  6  7  2  0
  7  8  1  0
  8  9  2  0
  9 10  1  0
 10 11  1  0
 11 12  2  0
 12 13  1  0
 13 14  2  0
 14 15  1  0
 15 16  2  0
 16 17  1  0
 17 18  1  0
 17 19  1  0
 17 20  1  0
  2 21  1  0
 21 22  1  0
 22 23  2  0
 23 24  1  0
 24 25  2  0
 25 26  1  0
 26 27  2  0
 25 28  1  0
 28 29  1  0
 29 30  1  0
 29 31  1  0
 29 32  1  0
  9  4  1  0
 16 11  1  0
 27 22  1  0
M  END
$$$$
