
     RDKit          3D

 32 34  0  0  0  0  0  0  0  0999 V2000
   -1.9949   18.8781    6.2549 O   0  0  0  0  0  0  0  0  0  0  0  0
   -3.0166   18.1897    6.1053 C   0  0  0  0  0  0  0  0  0  0  0  0
   -3.6995   17.6008    7.2011 N   0  0  0  0  0  0  0  0  0  0  0  0
   -3.6432   18.0428    8.5448 C   0  0  0  0  0  0  0  0  0  0  0  0
   -2.7900   19.0063    9.0262 C   0  0  0  0  0  0  0  0  0  0  0  0
   -2.7670   19.4108   10.3462 C   0  0  0  0  0  0  0  0  0  0  0  0
   -3.6580   18.7939   11.1876 C   0  0  0  0  0  0  0  0  0  0  0  0
   -4.4912   17.8522   10.7154 N   0  0  0  0  0  0  0  0  0  0  0  0
   -4.5369   17.4380    9.4375 C   0  0  0  0  0  0  0  0  0  0  0  0
   -5.3859   16.4809    8.9678 O   0  0  0  0  0  0  0  0  0  0  0  0
   -6.4023   15.8831    9.6230 C   0  0  0  0  0  0  0  0  0  0  0  0
   -7.0592   16.3156   10.7432 C   0  0  0  0  0  0  0  0  0  0  0  0
   -8.1066   15.6271   11.3561 C   0  0  0  0  0  0  0  0  0  0  0  0
   -8.5127   14.4431   10.8128 C   0  0  0  0  0  0  0  0  0  0  0  0
   -7.8874   13.9702    9.6946 C   0  0  0  0  0  0  0  0  0  0  0  0
   -6.8532   14.6593    9.0974 C   0  0  0  0  0  0  0  0  0  0  0  0
   -6.2017   14.1199    7.9013 C   0  0  0  0  0  0  0  0  0  0  0  0
   -6.6297   12.6613    7.6858 C   0  0  0  0  0  0  0  0  0  0  0  0
   -6.6868   14.8630    6.6775 C   0  0  0  0  0  0  0  0  0  0  0  0
   -4.6952   14.0891    8.0151 C   0  0  0  0  0  0  0  0  0  0  0  0
   -3.4633   18.0270    4.7565 N   0  0  0  0  0  0  0  0  0  0  0  0
   -2.7678   18.6049    3.6601 C   0  0  0  0  0  0  0  0  0  0  0  0
   -2.9587   18.2069    2.3546 C   0  0  0  0  0  0  0  0  0  0  0  0
   -2.2551   18.8017    1.3137 C   0  0  0  0  0  0  0  0  0  0  0  0
   -1.3443   19.8080    1.5518 C   0  0  0  0  0  0  0  0  0  0  0  0
   -1.1561   20.2031    2.8578 C   0  0  0  0  0  0  0  0  0  0  0  0
   -1.8568   19.6108    3.8952 C   0  0  0  0  0  0  0  0  0  0  0  0
   -0.6510   20.3909    0.5048 O   0  0  0  0  0  0  0  0  0  0  0  0
    0.5998   19.8602    0.0493 C   0  0  0  0  0  0  0  0  0  0  0  0
    0.4672   18.5401   -0.2988 F   0  0  0  0  0  0  0  0  0  0  0  0
    1.4770   19.9262    1.1220 F   0  0  0  0  0  0  0  0  0  0  0  0
    1.0490   20.6556   -0.9633 F   0  0  0  0  0  0  0  0  0  0  0  0
  1  2  2  0
  2  3  1  0
  3  4  1  0
  4  5  2  0
  5  6  1  0
  6  7  2  0
  7  8  1  0
  8  9  2  0
  9 10  1  0
 10 11  1  0
 11 12  2  0
 12 13  1  0
 13 14  2  0
 14 15  1  0
 15 16  2  0
 16 17  1  0
 17 18  1  0
 17 19  1  0
 17 20  1  0
  2 21  1  0
 21 22  1  0
 22 23  2  0
 23 24  1  0
 24 25  2  0
 25 26  1  0
 26 27  2  0
 25 28  1  0
 28 29  1  0
 29 30  1  0
 29 31  1  0
 29 32  1  0
  9  4  1  0
 16 11  1  0
 27 22  1  0
M  END
$$$$
