
     RDKit          3D

 32 34  0  0  0  0  0  0  0  0999 V2000
   -1.9637   19.3518    6.9366 O   0  0  0  0  0  0  0  0  0  0  0  0
   -2.7141   18.3745    6.7886 C   0  0  0  0  0  0  0  0  0  0  0  0
   -3.5934   17.9336    7.8114 N   0  0  0  0  0  0  0  0  0  0  0  0
   -4.0842   18.7248    8.8779 C   0  0  0  0  0  0  0  0  0  0  0  0
   -3.9472   20.0881    8.9805 C   0  0  0  0  0  0  0  0  0  0  0  0
   -4.4422   20.8246   10.0383 C   0  0  0  0  0  0  0  0  0  0  0  0
   -5.0982   20.1204   11.0162 C   0  0  0  0  0  0  0  0  0  0  0  0
   -5.2312   18.7878   10.9144 N   0  0  0  0  0  0  0  0  0  0  0  0
   -4.7606   18.0444    9.8982 C   0  0  0  0  0  0  0  0  0  0  0  0
   -4.9000   16.6920    9.8041 O   0  0  0  0  0  0  0  0  0  0  0  0
   -4.8860   15.9347    8.6879 C   0  0  0  0  0  0  0  0  0  0  0  0
   -3.8032   15.4316    8.0187 C   0  0  0  0  0  0  0  0  0  0  0  0
   -3.8842   14.6523    6.8642 C   0  0  0  0  0  0  0  0  0  0  0  0
   -5.1187   14.3653    6.3584 C   0  0  0  0  0  0  0  0  0  0  0  0
   -6.2296   14.8452    6.9914 C   0  0  0  0  0  0  0  0  0  0  0  0
   -6.1373   15.6146    8.1318 C   0  0  0  0  0  0  0  0  0  0  0  0
   -7.3500   16.1170    8.7822 C   0  0  0  0  0  0  0  0  0  0  0  0
   -8.2772   16.7548    7.7378 C   0  0  0  0  0  0  0  0  0  0  0  0
   -8.1349   14.9615    9.3599 C   0  0  0  0  0  0  0  0  0  0  0  0
   -7.0682   17.2039    9.7935 C   0  0  0  0  0  0  0  0  0  0  0  0
   -2.6368   17.7192    5.5196 N   0  0  0  0  0  0  0  0  0  0  0  0
   -1.8079   18.2056    4.4726 C   0  0  0  0  0  0  0  0  0  0  0  0
   -1.1304   19.4035    4.5449 C   0  0  0  0  0  0  0  0  0  0  0  0
   -0.3303   19.8389    3.4949 C   0  0  0  0  0  0  0  0  0  0  0  0
   -0.1879   19.0886    2.3479 C   0  0  0  0  0  0  0  0  0  0  0  0
   -0.8666   17.8920    2.2792 C   0  0  0  0  0  0  0  0  0  0  0  0
   -1.6638   17.4577    3.3251 C   0  0  0  0  0  0  0  0  0  0  0  0
    0.6125   19.5355    1.3104 O   0  0  0  0  0  0  0  0  0  0  0  0
    0.1375   20.4987    0.3616 C   0  0  0  0  0  0  0  0  0  0  0  0
    1.1408   20.8658   -0.4987 F   0  0  0  0  0  0  0  0  0  0  0  0
   -0.2300   21.6246    1.0839 F   0  0  0  0  0  0  0  0  0  0  0  0
   -0.9565   19.9718   -0.2591 F   0  0  0  0  0  0  0  0  0  0  0  0
  1  2  2  0
  2  3  1  0
  3  4  1  0
  4  5  2  0
  5  6  1  0
  6  7  2  0
  7  8  1  0
  8  9  2  0
  9 10  1  0
 10 11  1  0
 11 12  2  0
 12 13  1  0
 13 14  2  0
 14 15  1  0
 15 16  2  0
 16 17  1  0
 17 18  1  0
 17 19  1  0
 17 20  1  0
  2 21  1  0
 21 22  1  0
 22 23  2  0
 23 24  1  0
 24 25  2  0
 25 26  1  0
 26 27  2  0
 25 28  1  0
 28 29  1  0
 29 30  1  0
 29 31  1  0
 29 32  1  0
  9  4  1  0
 16 11  1  0
 27 22  1  0
M  END
$$$$
