
     RDKit          3D

 32 34  0  0  0  0  0  0  0  0999 V2000
   -1.5143   18.0341    6.6889 O   0  0  0  0  0  0  0  0  0  0  0  0
   -2.4976   17.4577    6.1979 C   0  0  0  0  0  0  0  0  0  0  0  0
   -3.5447   16.9323    6.9987 N   0  0  0  0  0  0  0  0  0  0  0  0
   -3.7630   17.2199    8.3675 C   0  0  0  0  0  0  0  0  0  0  0  0
   -2.9510   18.0041    9.1511 C   0  0  0  0  0  0  0  0  0  0  0  0
   -3.1998   18.2617   10.4845 C   0  0  0  0  0  0  0  0  0  0  0  0
   -4.3261   17.6860   11.0160 C   0  0  0  0  0  0  0  0  0  0  0  0
   -5.1187   16.9198   10.2487 N   0  0  0  0  0  0  0  0  0  0  0  0
   -4.9028   16.6512    8.9495 C   0  0  0  0  0  0  0  0  0  0  0  0
   -5.7128   15.8716    8.1791 O   0  0  0  0  0  0  0  0  0  0  0  0
   -7.0614   15.8402    8.1654 C   0  0  0  0  0  0  0  0  0  0  0  0
   -7.9332   16.8946    8.1289 C   0  0  0  0  0  0  0  0  0  0  0  0
   -9.3225   16.7667    8.1170 C   0  0  0  0  0  0  0  0  0  0  0  0
   -9.8606   15.5131    8.1432 C   0  0  0  0  0  0  0  0  0  0  0  0
   -9.0308   14.4290    8.1801 C   0  0  0  0  0  0  0  0  0  0  0  0
   -7.6591   14.5676    8.1916 C   0  0  0  0  0  0  0  0  0  0  0  0
   -6.7988   13.3827    8.2365 C   0  0  0  0  0  0  0  0  0  0  0  0
   -5.6892   13.5022    7.1821 C   0  0  0  0  0  0  0  0  0  0  0  0
   -6.0813   13.3235    9.5657 C   0  0  0  0  0  0  0  0  0  0  0  0
   -7.5375   12.1063    7.9066 C   0  0  0  0  0  0  0  0  0  0  0  0
   -2.5089   17.3561    4.7713 N   0  0  0  0  0  0  0  0  0  0  0  0
   -1.5342   18.0033    3.9646 C   0  0  0  0  0  0  0  0  0  0  0  0
   -1.3703   17.7348    2.6228 C   0  0  0  0  0  0  0  0  0  0  0  0
   -0.4026   18.3934    1.8731 C   0  0  0  0  0  0  0  0  0  0  0  0
    0.4242   19.3356    2.4453 C   0  0  0  0  0  0  0  0  0  0  0  0
    0.2574   19.6014    3.7864 C   0  0  0  0  0  0  0  0  0  0  0  0
   -0.7065   18.9455    4.5339 C   0  0  0  0  0  0  0  0  0  0  0  0
    1.3834   19.9833    1.6856 O   0  0  0  0  0  0  0  0  0  0  0  0
    2.6605   19.3867    1.4276 C   0  0  0  0  0  0  0  0  0  0  0  0
    2.5103   18.1627    0.8272 F   0  0  0  0  0  0  0  0  0  0  0  0
    3.2620   19.1795    2.6604 F   0  0  0  0  0  0  0  0  0  0  0  0
    3.3975   20.2725    0.6981 F   0  0  0  0  0  0  0  0  0  0  0  0
  1  2  2  0
  2  3  1  0
  3  4  1  0
  4  5  2  0
  5  6  1  0
  6  7  2  0
  7  8  1  0
  8  9  2  0
  9 10  1  0
 10 11  1  0
 11 12  2  0
 12 13  1  0
 13 14  2  0
 14 15  1  0
 15 16  2  0
 16 17  1  0
 17 18  1  0
 17 19  1  0
 17 20  1  0
  2 21  1  0
 21 22  1  0
 22 23  2  0
 23 24  1  0
 24 25  2  0
 25 26  1  0
 26 27  2  0
 25 28  1  0
 28 29  1  0
 29 30  1  0
 29 31  1  0
 29 32  1  0
  9  4  1  0
 16 11  1  0
 27 22  1  0
M  END
$$$$
