
     RDKit          3D

 32 34  0  0  0  0  0  0  0  0999 V2000
   -3.5627   19.1783    4.8414 O   0  0  0  0  0  0  0  0  0  0  0  0
   -3.2220   18.2736    5.6196 C   0  0  0  0  0  0  0  0  0  0  0  0
   -4.1685   17.4792    6.3174 N   0  0  0  0  0  0  0  0  0  0  0  0
   -5.5391   17.7877    6.4915 C   0  0  0  0  0  0  0  0  0  0  0  0
   -6.1824   18.8715    5.9440 C   0  0  0  0  0  0  0  0  0  0  0  0
   -7.5236   19.1371    6.1373 C   0  0  0  0  0  0  0  0  0  0  0  0
   -8.2131   18.2485    6.9230 C   0  0  0  0  0  0  0  0  0  0  0  0
   -7.5827   17.1897    7.4574 N   0  0  0  0  0  0  0  0  0  0  0  0
   -6.2801   16.9053    7.2875 C   0  0  0  0  0  0  0  0  0  0  0  0
   -5.6490   15.8284    7.8347 O   0  0  0  0  0  0  0  0  0  0  0  0
   -6.1076   14.5637    7.9351 C   0  0  0  0  0  0  0  0  0  0  0  0
   -6.7714   13.8258    6.9927 C   0  0  0  0  0  0  0  0  0  0  0  0
   -7.2110   12.5157    7.1855 C   0  0  0  0  0  0  0  0  0  0  0  0
   -6.9695   11.9190    8.3886 C   0  0  0  0  0  0  0  0  0  0  0  0
   -6.3103   12.6154    9.3609 C   0  0  0  0  0  0  0  0  0  0  0  0
   -5.8805   13.9099    9.1591 C   0  0  0  0  0  0  0  0  0  0  0  0
   -5.1806   14.6291   10.2263 C   0  0  0  0  0  0  0  0  0  0  0  0
   -4.8240   13.6602   11.3628 C   0  0  0  0  0  0  0  0  0  0  0  0
   -3.8561   15.1438    9.7106 C   0  0  0  0  0  0  0  0  0  0  0  0
   -6.0265   15.7079   10.8620 C   0  0  0  0  0  0  0  0  0  0  0  0
   -1.8127   18.0817    5.7691 N   0  0  0  0  0  0  0  0  0  0  0  0
   -0.8753   18.6790    4.8836 C   0  0  0  0  0  0  0  0  0  0  0  0
   -0.6830   20.0411    4.7993 C   0  0  0  0  0  0  0  0  0  0  0  0
    0.2462   20.5805    3.9174 C   0  0  0  0  0  0  0  0  0  0  0  0
    1.0053   19.7728    3.0988 C   0  0  0  0  0  0  0  0  0  0  0  0
    0.8104   18.4121    3.1857 C   0  0  0  0  0  0  0  0  0  0  0  0
   -0.1152   17.8741    4.0643 C   0  0  0  0  0  0  0  0  0  0  0  0
    1.9269   20.3248    2.2254 O   0  0  0  0  0  0  0  0  0  0  0  0
    1.5921   20.5956    0.8586 C   0  0  0  0  0  0  0  0  0  0  0  0
    2.6461   21.1873    0.2104 F   0  0  0  0  0  0  0  0  0  0  0  0
    0.5447   21.5051    0.8756 F   0  0  0  0  0  0  0  0  0  0  0  0
    1.1792   19.4274    0.2886 F   0  0  0  0  0  0  0  0  0  0  0  0
  1  2  2  0
  2  3  1  0
  3  4  1  0
  4  5  2  0
  5  6  1  0
  6  7  2  0
  7  8  1  0
  8  9  2  0
  9 10  1  0
 10 11  1  0
 11 12  2  0
 12 13  1  0
 13 14  2  0
 14 15  1  0
 15 16  2  0
 16 17  1  0
 17 18  1  0
 17 19  1  0
 17 20  1  0
  2 21  1  0
 21 22  1  0
 22 23  2  0
 23 24  1  0
 24 25  2  0
 25 26  1  0
 26 27  2  0
 25 28  1  0
 28 29  1  0
 29 30  1  0
 29 31  1  0
 29 32  1  0
  9  4  1  0
 16 11  1  0
 27 22  1  0
M  END
$$$$
