
     RDKit          3D

 32 34  0  0  0  0  0  0  0  0999 V2000
   -1.7562   18.4310    7.1075 O   0  0  0  0  0  0  0  0  0  0  0  0
   -2.5658   17.5504    6.7768 C   0  0  0  0  0  0  0  0  0  0  0  0
   -3.5648   17.0697    7.6626 N   0  0  0  0  0  0  0  0  0  0  0  0
   -3.8559   17.5952    8.9445 C   0  0  0  0  0  0  0  0  0  0  0  0
   -3.2163   18.6632    9.5262 C   0  0  0  0  0  0  0  0  0  0  0  0
   -3.5312   19.1467   10.7806 C   0  0  0  0  0  0  0  0  0  0  0  0
   -4.5406   18.4992   11.4470 C   0  0  0  0  0  0  0  0  0  0  0  0
   -5.1647   17.4554   10.8769 N   0  0  0  0  0  0  0  0  0  0  0  0
   -4.8807   16.9624    9.6591 C   0  0  0  0  0  0  0  0  0  0  0  0
   -5.5194   15.9020    9.0892 O   0  0  0  0  0  0  0  0  0  0  0  0
   -6.7456   15.8793    8.5273 C   0  0  0  0  0  0  0  0  0  0  0  0
   -7.5612   16.9376    8.2302 C   0  0  0  0  0  0  0  0  0  0  0  0
   -8.8223   16.8190    7.6452 C   0  0  0  0  0  0  0  0  0  0  0  0
   -9.2851   15.5710    7.3444 C   0  0  0  0  0  0  0  0  0  0  0  0
   -8.5071   14.4836    7.6223 C   0  0  0  0  0  0  0  0  0  0  0  0
   -7.2622   14.6129    8.2008 C   0  0  0  0  0  0  0  0  0  0  0  0
   -6.4565   13.4241    8.4897 C   0  0  0  0  0  0  0  0  0  0  0  0
   -7.2180   12.1606    8.0644 C   0  0  0  0  0  0  0  0  0  0  0  0
   -5.2040   13.4388    7.6434 C   0  0  0  0  0  0  0  0  0  0  0  0
   -6.1715   13.2503    9.9635 C   0  0  0  0  0  0  0  0  0  0  0  0
   -2.4281   17.0497    5.4442 N   0  0  0  0  0  0  0  0  0  0  0  0
   -1.5897   17.6826    4.4870 C   0  0  0  0  0  0  0  0  0  0  0  0
   -0.9365   18.8716    4.7292 C   0  0  0  0  0  0  0  0  0  0  0  0
   -0.1258   19.4540    3.7617 C   0  0  0  0  0  0  0  0  0  0  0  0
    0.0517   18.8629    2.5297 C   0  0  0  0  0  0  0  0  0  0  0  0
   -0.6027   17.6747    2.2912 C   0  0  0  0  0  0  0  0  0  0  0  0
   -1.4105   17.0940    3.2548 C   0  0  0  0  0  0  0  0  0  0  0  0
    0.8622   19.4550    1.5761 O   0  0  0  0  0  0  0  0  0  0  0  0
    0.4262   20.5983    0.8303 C   0  0  0  0  0  0  0  0  0  0  0  0
   -0.6209   20.2689    0.0079 F   0  0  0  0  0  0  0  0  0  0  0  0
    1.4893   20.9803    0.0252 F   0  0  0  0  0  0  0  0  0  0  0  0
    0.1391   21.5933    1.7177 F   0  0  0  0  0  0  0  0  0  0  0  0
  1  2  2  0
  2  3  1  0
  3  4  1  0
  4  5  2  0
  5  6  1  0
  6  7  2  0
  7  8  1  0
  8  9  2  0
  9 10  1  0
 10 11  1  0
 11 12  2  0
 12 13  1  0
 13 14  2  0
 14 15  1  0
 15 16  2  0
 16 17  1  0
 17 18  1  0
 17 19  1  0
 17 20  1  0
  2 21  1  0
 21 22  1  0
 22 23  2  0
 23 24  1  0
 24 25  2  0
 25 26  1  0
 26 27  2  0
 25 28  1  0
 28 29  1  0
 29 30  1  0
 29 31  1  0
 29 32  1  0
  9  4  1  0
 16 11  1  0
 27 22  1  0
M  END
$$$$
