
     RDKit          3D

 32 34  0  0  0  0  0  0  0  0999 V2000
   -1.7165   18.5641    6.6390 O   0  0  0  0  0  0  0  0  0  0  0  0
   -2.6037   17.8262    6.1824 C   0  0  0  0  0  0  0  0  0  0  0  0
   -3.5386   17.1608    7.0173 N   0  0  0  0  0  0  0  0  0  0  0  0
   -3.9701   17.6019    8.2914 C   0  0  0  0  0  0  0  0  0  0  0  0
   -3.4239   18.6492    8.9935 C   0  0  0  0  0  0  0  0  0  0  0  0
   -3.8751   19.0495   10.2355 C   0  0  0  0  0  0  0  0  0  0  0  0
   -4.9247   18.3386   10.7602 C   0  0  0  0  0  0  0  0  0  0  0  0
   -5.4574   17.3151   10.0726 N   0  0  0  0  0  0  0  0  0  0  0  0
   -5.0402   16.9025    8.8633 C   0  0  0  0  0  0  0  0  0  0  0  0
   -5.5870   15.8621    8.1735 O   0  0  0  0  0  0  0  0  0  0  0  0
   -5.8705   14.6248    8.6301 C   0  0  0  0  0  0  0  0  0  0  0  0
   -5.3131   13.9651    9.6919 C   0  0  0  0  0  0  0  0  0  0  0  0
   -5.6711   12.6780   10.0944 C   0  0  0  0  0  0  0  0  0  0  0  0
   -6.6397   12.0225    9.3915 C   0  0  0  0  0  0  0  0  0  0  0  0
   -7.2255   12.6399    8.3235 C   0  0  0  0  0  0  0  0  0  0  0  0
   -6.8635   13.9122    7.9348 C   0  0  0  0  0  0  0  0  0  0  0  0
   -7.5096   14.5424    6.7808 C   0  0  0  0  0  0  0  0  0  0  0  0
   -7.8771   15.9948    7.1163 C   0  0  0  0  0  0  0  0  0  0  0  0
   -6.5287   14.6337    5.6342 C   0  0  0  0  0  0  0  0  0  0  0  0
   -8.8083   13.8729    6.3952 C   0  0  0  0  0  0  0  0  0  0  0  0
   -2.6246   17.6883    4.7590 N   0  0  0  0  0  0  0  0  0  0  0  0
   -1.7078   18.3822    3.9238 C   0  0  0  0  0  0  0  0  0  0  0  0
   -0.8691   19.3725    4.3879 C   0  0  0  0  0  0  0  0  0  0  0  0
    0.0121   20.0243    3.5330 C   0  0  0  0  0  0  0  0  0  0  0  0
    0.0767   19.7029    2.1946 C   0  0  0  0  0  0  0  0  0  0  0  0
   -0.7630   18.7128    1.7344 C   0  0  0  0  0  0  0  0  0  0  0  0
   -1.6411   18.0630    2.5857 C   0  0  0  0  0  0  0  0  0  0  0  0
    0.9595   20.3610    1.3554 O   0  0  0  0  0  0  0  0  0  0  0  0
    2.3314   19.9602    1.2513 C   0  0  0  0  0  0  0  0  0  0  0  0
    2.4237   18.6296    0.9313 F   0  0  0  0  0  0  0  0  0  0  0  0
    2.8946   20.1306    2.5076 F   0  0  0  0  0  0  0  0  0  0  0  0
    2.9431   20.7870    0.3557 F   0  0  0  0  0  0  0  0  0  0  0  0
  1  2  2  0
  2  3  1  0
  3  4  1  0
  4  5  2  0
  5  6  1  0
  6  7  2  0
  7  8  1  0
  8  9  2  0
  9 10  1  0
 10 11  1  0
 11 12  2  0
 12 13  1  0
 13 14  2  0
 14 15  1  0
 15 16  2  0
 16 17  1  0
 17 18  1  0
 17 19  1  0
 17 20  1  0
  2 21  1  0
 21 22  1  0
 22 23  2  0
 23 24  1  0
 24 25  2  0
 25 26  1  0
 26 27  2  0
 25 28  1  0
 28 29  1  0
 29 30  1  0
 29 31  1  0
 29 32  1  0
  9  4  1  0
 16 11  1  0
 27 22  1  0
M  END
$$$$
