
     RDKit          3D

 32 34  0  0  0  0  0  0  0  0999 V2000
   -2.1939   18.8651    6.8691 O   0  0  0  0  0  0  0  0  0  0  0  0
   -2.3826   17.6613    6.6338 C   0  0  0  0  0  0  0  0  0  0  0  0
   -3.4285   16.9249    7.2483 N   0  0  0  0  0  0  0  0  0  0  0  0
   -3.9476   17.1512    8.5458 C   0  0  0  0  0  0  0  0  0  0  0  0
   -3.4819   18.0927    9.4317 C   0  0  0  0  0  0  0  0  0  0  0  0
   -4.0173   18.2831   10.6901 C   0  0  0  0  0  0  0  0  0  0  0  0
   -5.0672   17.4698   11.0345 C   0  0  0  0  0  0  0  0  0  0  0  0
   -5.5212   16.5500   10.1673 N   0  0  0  0  0  0  0  0  0  0  0  0
   -5.0211   16.3414    8.9372 C   0  0  0  0  0  0  0  0  0  0  0  0
   -5.4883   15.4048    8.0644 O   0  0  0  0  0  0  0  0  0  0  0  0
   -6.7723   15.0793    7.8094 C   0  0  0  0  0  0  0  0  0  0  0  0
   -7.7728   15.8847    7.3363 C   0  0  0  0  0  0  0  0  0  0  0  0
   -9.0804   15.4590    7.1007 C   0  0  0  0  0  0  0  0  0  0  0  0
   -9.3960   14.1560    7.3545 C   0  0  0  0  0  0  0  0  0  0  0  0
   -8.4311   13.3135    7.8279 C   0  0  0  0  0  0  0  0  0  0  0  0
   -7.1420   13.7454    8.0572 C   0  0  0  0  0  0  0  0  0  0  0  0
   -6.1331   12.8153    8.5703 C   0  0  0  0  0  0  0  0  0  0  0  0
   -4.7973   13.5472    8.7627 C   0  0  0  0  0  0  0  0  0  0  0  0
   -6.5309   12.3417    9.9496 C   0  0  0  0  0  0  0  0  0  0  0  0
   -5.8409   11.6795    7.6172 C   0  0  0  0  0  0  0  0  0  0  0  0
   -1.4779   17.0617    5.7024 N   0  0  0  0  0  0  0  0  0  0  0  0
   -0.8640   17.8115    4.6628 C   0  0  0  0  0  0  0  0  0  0  0  0
   -0.0796   17.2386    3.6852 C   0  0  0  0  0  0  0  0  0  0  0  0
    0.5010   18.0127    2.6871 C   0  0  0  0  0  0  0  0  0  0  0  0
    0.3120   19.3769    2.6416 C   0  0  0  0  0  0  0  0  0  0  0  0
   -0.4726   19.9458    3.6203 C   0  0  0  0  0  0  0  0  0  0  0  0
   -1.0512   19.1751    4.6150 C   0  0  0  0  0  0  0  0  0  0  0  0
    0.8967   20.1346    1.6413 O   0  0  0  0  0  0  0  0  0  0  0  0
    0.1858   20.4653    0.4419 C   0  0  0  0  0  0  0  0  0  0  0  0
   -0.0764   19.3366   -0.2919 F   0  0  0  0  0  0  0  0  0  0  0  0
    1.0260   21.2714   -0.3122 F   0  0  0  0  0  0  0  0  0  0  0  0
   -0.9300   21.1654    0.7952 F   0  0  0  0  0  0  0  0  0  0  0  0
  1  2  2  0
  2  3  1  0
  3  4  1  0
  4  5  2  0
  5  6  1  0
  6  7  2  0
  7  8  1  0
  8  9  2  0
  9 10  1  0
 10 11  1  0
 11 12  2  0
 12 13  1  0
 13 14  2  0
 14 15  1  0
 15 16  2  0
 16 17  1  0
 17 18  1  0
 17 19  1  0
 17 20  1  0
  2 21  1  0
 21 22  1  0
 22 23  2  0
 23 24  1  0
 24 25  2  0
 25 26  1  0
 26 27  2  0
 25 28  1  0
 28 29  1  0
 29 30  1  0
 29 31  1  0
 29 32  1  0
  9  4  1  0
 16 11  1  0
 27 22  1  0
M  END
$$$$
