
     RDKit          3D

 32 34  0  0  0  0  0  0  0  0999 V2000
   -1.6385   18.3669    6.4811 O   0  0  0  0  0  0  0  0  0  0  0  0
   -2.6240   17.7707    6.0191 C   0  0  0  0  0  0  0  0  0  0  0  0
   -3.6031   17.1687    6.8515 N   0  0  0  0  0  0  0  0  0  0  0  0
   -3.8636   17.5086    8.2009 C   0  0  0  0  0  0  0  0  0  0  0  0
   -3.2199   18.4961    8.9070 C   0  0  0  0  0  0  0  0  0  0  0  0
   -3.5046   18.7979   10.2240 C   0  0  0  0  0  0  0  0  0  0  0  0
   -4.4874   18.0498   10.8213 C   0  0  0  0  0  0  0  0  0  0  0  0
   -5.1156   17.0849   10.1296 N   0  0  0  0  0  0  0  0  0  0  0  0
   -4.8607   16.7683    8.8484 C   0  0  0  0  0  0  0  0  0  0  0  0
   -5.5032   15.7867    8.1549 O   0  0  0  0  0  0  0  0  0  0  0  0
   -5.7958   14.5368    8.5695 C   0  0  0  0  0  0  0  0  0  0  0  0
   -5.2140   13.8217    9.5812 C   0  0  0  0  0  0  0  0  0  0  0  0
   -5.5842   12.5258    9.9425 C   0  0  0  0  0  0  0  0  0  0  0  0
   -6.5915   11.9200    9.2495 C   0  0  0  0  0  0  0  0  0  0  0  0
   -7.2028   12.5937    8.2310 C   0  0  0  0  0  0  0  0  0  0  0  0
   -6.8285   13.8741    7.8827 C   0  0  0  0  0  0  0  0  0  0  0  0
   -7.5029   14.5654    6.7811 C   0  0  0  0  0  0  0  0  0  0  0  0
   -6.7127   15.8229    6.3914 C   0  0  0  0  0  0  0  0  0  0  0  0
   -7.4938   13.6906    5.5484 C   0  0  0  0  0  0  0  0  0  0  0  0
   -8.8852   15.0519    7.1500 C   0  0  0  0  0  0  0  0  0  0  0  0
   -2.7111   17.7285    4.5922 N   0  0  0  0  0  0  0  0  0  0  0  0
   -1.7990   18.4357    3.7630 C   0  0  0  0  0  0  0  0  0  0  0  0
   -1.7491   18.2779    2.3948 C   0  0  0  0  0  0  0  0  0  0  0  0
   -0.8391   18.9917    1.6236 C   0  0  0  0  0  0  0  0  0  0  0  0
    0.0425   19.8800    2.2003 C   0  0  0  0  0  0  0  0  0  0  0  0
   -0.0103   20.0351    3.5679 C   0  0  0  0  0  0  0  0  0  0  0  0
   -0.9167   19.3242    4.3367 C   0  0  0  0  0  0  0  0  0  0  0  0
    0.9431   20.5838    1.4191 O   0  0  0  0  0  0  0  0  0  0  0  0
    2.2699   20.0959    1.1848 C   0  0  0  0  0  0  0  0  0  0  0  0
    2.9687   20.9610    0.3819 F   0  0  0  0  0  0  0  0  0  0  0  0
    2.1403   18.8972    0.4987 F   0  0  0  0  0  0  0  0  0  0  0  0
    2.8548   19.8729    2.3964 F   0  0  0  0  0  0  0  0  0  0  0  0
  1  2  2  0
  2  3  1  0
  3  4  1  0
  4  5  2  0
  5  6  1  0
  6  7  2  0
  7  8  1  0
  8  9  2  0
  9 10  1  0
 10 11  1  0
 11 12  2  0
 12 13  1  0
 13 14  2  0
 14 15  1  0
 15 16  2  0
 16 17  1  0
 17 18  1  0
 17 19  1  0
 17 20  1  0
  2 21  1  0
 21 22  1  0
 22 23  2  0
 23 24  1  0
 24 25  2  0
 25 26  1  0
 26 27  2  0
 25 28  1  0
 28 29  1  0
 29 30  1  0
 29 31  1  0
 29 32  1  0
  9  4  1  0
 16 11  1  0
 27 22  1  0
M  END
$$$$
