
     RDKit          3D

 32 34  0  0  0  0  0  0  0  0999 V2000
   -2.6288   10.8933   11.4981 O   0  0  0  0  0  0  0  0  0  0  0  0
   -1.7225   10.4956   10.7494 C   0  0  0  0  0  0  0  0  0  0  0  0
   -0.9873    9.3110   11.0141 N   0  0  0  0  0  0  0  0  0  0  0  0
   -1.2987    8.3482   12.0041 C   0  0  0  0  0  0  0  0  0  0  0  0
   -2.1471    8.5503   13.0660 C   0  0  0  0  0  0  0  0  0  0  0  0
   -2.4260    7.5833   14.0112 C   0  0  0  0  0  0  0  0  0  0  0  0
   -1.8033    6.3721   13.8450 C   0  0  0  0  0  0  0  0  0  0  0  0
   -0.9743    6.1761   12.8066 N   0  0  0  0  0  0  0  0  0  0  0  0
   -0.6835    7.0970   11.8716 C   0  0  0  0  0  0  0  0  0  0  0  0
    0.1599    6.8889   10.8215 O   0  0  0  0  0  0  0  0  0  0  0  0
    0.6002    5.7103   10.3351 C   0  0  0  0  0  0  0  0  0  0  0  0
   -0.1349    4.6090    9.9885 C   0  0  0  0  0  0  0  0  0  0  0  0
    0.4093    3.4249    9.4899 C   0  0  0  0  0  0  0  0  0  0  0  0
    1.7625    3.3465    9.3328 C   0  0  0  0  0  0  0  0  0  0  0  0
    2.5384    4.4201    9.6652 C   0  0  0  0  0  0  0  0  0  0  0  0
    1.9894    5.5852   10.1571 C   0  0  0  0  0  0  0  0  0  0  0  0
    2.8523    6.7158   10.5083 C   0  0  0  0  0  0  0  0  0  0  0  0
    4.2989    6.4197   10.0874 C   0  0  0  0  0  0  0  0  0  0  0  0
    2.4463    7.9342    9.7109 C   0  0  0  0  0  0  0  0  0  0  0  0
    2.9067    6.9748   11.9961 C   0  0  0  0  0  0  0  0  0  0  0  0
   -1.4652   11.3079    9.6007 N   0  0  0  0  0  0  0  0  0  0  0  0
   -2.0722   12.5815    9.4304 C   0  0  0  0  0  0  0  0  0  0  0  0
   -3.0493   13.0673   10.2721 C   0  0  0  0  0  0  0  0  0  0  0  0
   -3.6148   14.3203   10.0661 C   0  0  0  0  0  0  0  0  0  0  0  0
   -3.2181   15.1178    9.0147 C   0  0  0  0  0  0  0  0  0  0  0  0
   -2.2414   14.6290    8.1755 C   0  0  0  0  0  0  0  0  0  0  0  0
   -1.6776   13.3807    8.3804 C   0  0  0  0  0  0  0  0  0  0  0  0
   -3.7906   16.3636    8.8223 O   0  0  0  0  0  0  0  0  0  0  0  0
   -4.8513   16.5610    7.8792 C   0  0  0  0  0  0  0  0  0  0  0  0
   -5.3009   17.8562    7.9208 F   0  0  0  0  0  0  0  0  0  0  0  0
   -5.8971   15.7399    8.2752 F   0  0  0  0  0  0  0  0  0  0  0  0
   -4.3994   16.1728    6.6525 F   0  0  0  0  0  0  0  0  0  0  0  0
  1  2  2  0
  2  3  1  0
  3  4  1  0
  4  5  2  0
  5  6  1  0
  6  7  2  0
  7  8  1  0
  8  9  2  0
  9 10  1  0
 10 11  1  0
 11 12  2  0
 12 13  1  0
 13 14  2  0
 14 15  1  0
 15 16  2  0
 16 17  1  0
 17 18  1  0
 17 19  1  0
 17 20  1  0
  2 21  1  0
 21 22  1  0
 22 23  2  0
 23 24  1  0
 24 25  2  0
 25 26  1  0
 26 27  2  0
 25 28  1  0
 28 29  1  0
 29 30  1  0
 29 31  1  0
 29 32  1  0
  9  4  1  0
 16 11  1  0
 27 22  1  0
M  END
$$$$
