
     RDKit          3D

 32 34  0  0  0  0  0  0  0  0999 V2000
   -1.8384   18.6955    6.5996 O   0  0  0  0  0  0  0  0  0  0  0  0
   -2.5462   17.7965    6.1190 C   0  0  0  0  0  0  0  0  0  0  0  0
   -3.5291   17.1165    6.8840 N   0  0  0  0  0  0  0  0  0  0  0  0
   -3.9261   17.4473    8.2020 C   0  0  0  0  0  0  0  0  0  0  0  0
   -3.5704   18.5931    8.8720 C   0  0  0  0  0  0  0  0  0  0  0  0
   -3.9802   18.8796   10.1590 C   0  0  0  0  0  0  0  0  0  0  0  0
   -4.7830   17.9461   10.7644 C   0  0  0  0  0  0  0  0  0  0  0  0
   -5.1297   16.8267   10.1081 N   0  0  0  0  0  0  0  0  0  0  0  0
   -4.7469   16.5203    8.8566 C   0  0  0  0  0  0  0  0  0  0  0  0
   -5.1035   15.3812    8.1990 O   0  0  0  0  0  0  0  0  0  0  0  0
   -5.6900   14.2796    8.7111 C   0  0  0  0  0  0  0  0  0  0  0  0
   -5.2806   13.5167    9.7712 C   0  0  0  0  0  0  0  0  0  0  0  0
   -5.9551   12.3865   10.2342 C   0  0  0  0  0  0  0  0  0  0  0  0
   -7.0999   12.0056    9.5968 C   0  0  0  0  0  0  0  0  0  0  0  0
   -7.5486   12.7354    8.5333 C   0  0  0  0  0  0  0  0  0  0  0  0
   -6.8736   13.8507    8.0844 C   0  0  0  0  0  0  0  0  0  0  0  0
   -7.3808   14.6073    6.9371 C   0  0  0  0  0  0  0  0  0  0  0  0
   -8.6237   13.9134    6.3617 C   0  0  0  0  0  0  0  0  0  0  0  0
   -7.8586   15.9669    7.3939 C   0  0  0  0  0  0  0  0  0  0  0  0
   -6.3918   14.6811    5.7970 C   0  0  0  0  0  0  0  0  0  0  0  0
   -2.3084   17.4883    4.7427 N   0  0  0  0  0  0  0  0  0  0  0  0
   -1.5141   18.3245    3.9123 C   0  0  0  0  0  0  0  0  0  0  0  0
   -1.1776   17.9961    2.6168 C   0  0  0  0  0  0  0  0  0  0  0  0
   -0.3976   18.8461    1.8414 C   0  0  0  0  0  0  0  0  0  0  0  0
    0.0649   20.0441    2.3412 C   0  0  0  0  0  0  0  0  0  0  0  0
   -0.2733   20.3690    3.6362 C   0  0  0  0  0  0  0  0  0  0  0  0
   -1.0505   19.5224    4.4092 C   0  0  0  0  0  0  0  0  0  0  0  0
    0.8409   20.8804    1.5568 O   0  0  0  0  0  0  0  0  0  0  0  0
    0.2662   21.9836    0.8454 C   0  0  0  0  0  0  0  0  0  0  0  0
    1.2407   22.7095    0.2093 F   0  0  0  0  0  0  0  0  0  0  0  0
   -0.3215   22.8086    1.7933 F   0  0  0  0  0  0  0  0  0  0  0  0
   -0.6899   21.4900    0.0075 F   0  0  0  0  0  0  0  0  0  0  0  0
  1  2  2  0
  2  3  1  0
  3  4  1  0
  4  5  2  0
  5  6  1  0
  6  7  2  0
  7  8  1  0
  8  9  2  0
  9 10  1  0
 10 11  1  0
 11 12  2  0
 12 13  1  0
 13 14  2  0
 14 15  1  0
 15 16  2  0
 16 17  1  0
 17 18  1  0
 17 19  1  0
 17 20  1  0
  2 21  1  0
 21 22  1  0
 22 23  2  0
 23 24  1  0
 24 25  2  0
 25 26  1  0
 26 27  2  0
 25 28  1  0
 28 29  1  0
 29 30  1  0
 29 31  1  0
 29 32  1  0
  9  4  1  0
 16 11  1  0
 27 22  1  0
M  END
$$$$
