
     RDKit          3D

 32 34  0  0  0  0  0  0  0  0999 V2000
   -2.1954   18.8549    7.1003 O   0  0  0  0  0  0  0  0  0  0  0  0
   -2.8967   17.8875    6.7647 C   0  0  0  0  0  0  0  0  0  0  0  0
   -3.7392   17.2089    7.6830 N   0  0  0  0  0  0  0  0  0  0  0  0
   -4.2639   17.7515    8.8807 C   0  0  0  0  0  0  0  0  0  0  0  0
   -3.6893   18.7653    9.6089 C   0  0  0  0  0  0  0  0  0  0  0  0
   -4.2342   19.2681   10.7737 C   0  0  0  0  0  0  0  0  0  0  0  0
   -5.4105   18.6984   11.1909 C   0  0  0  0  0  0  0  0  0  0  0  0
   -5.9708   17.7075   10.4780 N   0  0  0  0  0  0  0  0  0  0  0  0
   -5.4647   17.1977    9.3419 C   0  0  0  0  0  0  0  0  0  0  0  0
   -6.0404   16.1913    8.6256 O   0  0  0  0  0  0  0  0  0  0  0  0
   -5.9007   14.8619    8.8071 C   0  0  0  0  0  0  0  0  0  0  0  0
   -5.0926   14.2086    9.6979 C   0  0  0  0  0  0  0  0  0  0  0  0
   -5.0126   12.8207    9.8163 C   0  0  0  0  0  0  0  0  0  0  0  0
   -5.7858   12.0522    8.9956 C   0  0  0  0  0  0  0  0  0  0  0  0
   -6.6085   12.6586    8.0898 C   0  0  0  0  0  0  0  0  0  0  0  0
   -6.6793   14.0313    7.9817 C   0  0  0  0  0  0  0  0  0  0  0  0
   -7.5694   14.6482    6.9952 C   0  0  0  0  0  0  0  0  0  0  0  0
   -7.6885   13.7431    5.7607 C   0  0  0  0  0  0  0  0  0  0  0  0
   -8.9691   14.7406    7.5586 C   0  0  0  0  0  0  0  0  0  0  0  0
   -7.0511   15.9712    6.4809 C   0  0  0  0  0  0  0  0  0  0  0  0
   -2.8019   17.4990    5.3916 N   0  0  0  0  0  0  0  0  0  0  0  0
   -1.8021   18.0252    4.5295 C   0  0  0  0  0  0  0  0  0  0  0  0
   -1.4449   17.4281    3.3399 C   0  0  0  0  0  0  0  0  0  0  0  0
   -0.4603   17.9797    2.5283 C   0  0  0  0  0  0  0  0  0  0  0  0
    0.1907   19.1405    2.8853 C   0  0  0  0  0  0  0  0  0  0  0  0
   -0.1689   19.7345    4.0748 C   0  0  0  0  0  0  0  0  0  0  0  0
   -1.1498   19.1853    4.8838 C   0  0  0  0  0  0  0  0  0  0  0  0
    1.1693   19.6780    2.0665 O   0  0  0  0  0  0  0  0  0  0  0  0
    0.8377   20.5509    0.9796 C   0  0  0  0  0  0  0  0  0  0  0  0
    1.9742   21.0468    0.3933 F   0  0  0  0  0  0  0  0  0  0  0  0
    0.1435   21.6218    1.5235 F   0  0  0  0  0  0  0  0  0  0  0  0
    0.0289   19.8647    0.1223 F   0  0  0  0  0  0  0  0  0  0  0  0
  1  2  2  0
  2  3  1  0
  3  4  1  0
  4  5  2  0
  5  6  1  0
  6  7  2  0
  7  8  1  0
  8  9  2  0
  9 10  1  0
 10 11  1  0
 11 12  2  0
 12 13  1  0
 13 14  2  0
 14 15  1  0
 15 16  2  0
 16 17  1  0
 17 18  1  0
 17 19  1  0
 17 20  1  0
  2 21  1  0
 21 22  1  0
 22 23  2  0
 23 24  1  0
 24 25  2  0
 25 26  1  0
 26 27  2  0
 25 28  1  0
 28 29  1  0
 29 30  1  0
 29 31  1  0
 29 32  1  0
  9  4  1  0
 16 11  1  0
 27 22  1  0
M  END
$$$$
