
     RDKit          3D

 32 34  0  0  0  0  0  0  0  0999 V2000
   -2.2046   18.1301    7.2613 O   0  0  0  0  0  0  0  0  0  0  0  0
   -2.9921   17.2954    6.7887 C   0  0  0  0  0  0  0  0  0  0  0  0
   -4.1039   16.8044    7.5212 N   0  0  0  0  0  0  0  0  0  0  0  0
   -4.5271   17.2662    8.7908 C   0  0  0  0  0  0  0  0  0  0  0  0
   -3.7689   18.0236    9.6508 C   0  0  0  0  0  0  0  0  0  0  0  0
   -4.2195   18.4558   10.8823 C   0  0  0  0  0  0  0  0  0  0  0  0
   -5.4957   18.0883   11.2269 C   0  0  0  0  0  0  0  0  0  0  0  0
   -6.2354   17.3478   10.3851 N   0  0  0  0  0  0  0  0  0  0  0  0
   -5.8247   16.9127    9.1815 C   0  0  0  0  0  0  0  0  0  0  0  0
   -6.5827   16.1610    8.3343 O   0  0  0  0  0  0  0  0  0  0  0  0
   -7.8388   15.7090    8.5285 C   0  0  0  0  0  0  0  0  0  0  0  0
   -8.9813   16.4377    8.7212 C   0  0  0  0  0  0  0  0  0  0  0  0
  -10.2460   15.8813    8.9150 C   0  0  0  0  0  0  0  0  0  0  0  0
  -10.3657   14.5220    8.9147 C   0  0  0  0  0  0  0  0  0  0  0  0
   -9.2535   13.7521    8.7264 C   0  0  0  0  0  0  0  0  0  0  0  0
   -8.0085   14.3131    8.5359 C   0  0  0  0  0  0  0  0  0  0  0  0
   -6.8359   13.4567    8.3418 C   0  0  0  0  0  0  0  0  0  0  0  0
   -6.0383   13.9320    7.1190 C   0  0  0  0  0  0  0  0  0  0  0  0
   -5.8948   13.6073    9.5152 C   0  0  0  0  0  0  0  0  0  0  0  0
   -7.1988   12.0178    8.0564 C   0  0  0  0  0  0  0  0  0  0  0  0
   -2.7078   16.8586    5.4569 N   0  0  0  0  0  0  0  0  0  0  0  0
   -1.8067   17.5616    4.6122 C   0  0  0  0  0  0  0  0  0  0  0  0
   -1.4248   17.1005    3.3709 C   0  0  0  0  0  0  0  0  0  0  0  0
   -0.5399   17.8230    2.5789 C   0  0  0  0  0  0  0  0  0  0  0  0
   -0.0155   19.0230    3.0077 C   0  0  0  0  0  0  0  0  0  0  0  0
   -0.3993   19.4807    4.2488 C   0  0  0  0  0  0  0  0  0  0  0  0
   -1.2810   18.7612    5.0382 C   0  0  0  0  0  0  0  0  0  0  0  0
    0.8649   19.7313    2.2077 O   0  0  0  0  0  0  0  0  0  0  0  0
    0.4218   20.8262    1.3963 C   0  0  0  0  0  0  0  0  0  0  0  0
    1.4802   21.4023    0.7412 F   0  0  0  0  0  0  0  0  0  0  0  0
   -0.1061   21.7759    2.2589 F   0  0  0  0  0  0  0  0  0  0  0  0
   -0.5560   20.3638    0.5655 F   0  0  0  0  0  0  0  0  0  0  0  0
  1  2  2  0
  2  3  1  0
  3  4  1  0
  4  5  2  0
  5  6  1  0
  6  7  2  0
  7  8  1  0
  8  9  2  0
  9 10  1  0
 10 11  1  0
 11 12  2  0
 12 13  1  0
 13 14  2  0
 14 15  1  0
 15 16  2  0
 16 17  1  0
 17 18  1  0
 17 19  1  0
 17 20  1  0
  2 21  1  0
 21 22  1  0
 22 23  2  0
 23 24  1  0
 24 25  2  0
 25 26  1  0
 26 27  2  0
 25 28  1  0
 28 29  1  0
 29 30  1  0
 29 31  1  0
 29 32  1  0
  9  4  1  0
 16 11  1  0
 27 22  1  0
M  END
$$$$
