
     RDKit          3D

 32 34  0  0  0  0  0  0  0  0999 V2000
   -1.8610   17.9976    6.9686 O   0  0  0  0  0  0  0  0  0  0  0  0
   -2.8524   17.3823    6.5458 C   0  0  0  0  0  0  0  0  0  0  0  0
   -3.8349   16.8414    7.4152 N   0  0  0  0  0  0  0  0  0  0  0  0
   -4.0679   17.2440    8.7523 C   0  0  0  0  0  0  0  0  0  0  0  0
   -3.3297   18.1786    9.4378 C   0  0  0  0  0  0  0  0  0  0  0  0
   -3.5905   18.5450   10.7432 C   0  0  0  0  0  0  0  0  0  0  0  0
   -4.6499   17.9200   11.3510 C   0  0  0  0  0  0  0  0  0  0  0  0
   -5.3703   17.0066   10.6795 N   0  0  0  0  0  0  0  0  0  0  0  0
   -5.1409   16.6296    9.4099 C   0  0  0  0  0  0  0  0  0  0  0  0
   -5.8774   15.7011    8.7370 O   0  0  0  0  0  0  0  0  0  0  0  0
   -7.2160   15.6675    8.5731 C   0  0  0  0  0  0  0  0  0  0  0  0
   -8.1045   16.7063    8.6423 C   0  0  0  0  0  0  0  0  0  0  0  0
   -9.4815   16.5775    8.4576 C   0  0  0  0  0  0  0  0  0  0  0  0
   -9.9888   15.3394    8.1895 C   0  0  0  0  0  0  0  0  0  0  0  0
   -9.1414   14.2714    8.1106 C   0  0  0  0  0  0  0  0  0  0  0  0
   -7.7821   14.4107    8.2951 C   0  0  0  0  0  0  0  0  0  0  0  0
   -6.9028   13.2422    8.2083 C   0  0  0  0  0  0  0  0  0  0  0  0
   -7.7438   11.9609    8.1174 C   0  0  0  0  0  0  0  0  0  0  0  0
   -6.1129   13.2930    6.9204 C   0  0  0  0  0  0  0  0  0  0  0  0
   -6.0302   13.0702    9.4300 C   0  0  0  0  0  0  0  0  0  0  0  0
   -2.9423   17.2523    5.1244 N   0  0  0  0  0  0  0  0  0  0  0  0
   -2.0190   17.8896    4.2520 C   0  0  0  0  0  0  0  0  0  0  0  0
   -1.0477   18.7622    4.6928 C   0  0  0  0  0  0  0  0  0  0  0  0
   -0.1656   19.3625    3.8018 C   0  0  0  0  0  0  0  0  0  0  0  0
   -0.2325   19.1056    2.4496 C   0  0  0  0  0  0  0  0  0  0  0  0
   -1.2045   18.2330    2.0127 C   0  0  0  0  0  0  0  0  0  0  0  0
   -2.0836   17.6347    2.9001 C   0  0  0  0  0  0  0  0  0  0  0  0
    0.6530   19.7111    1.5744 O   0  0  0  0  0  0  0  0  0  0  0  0
    1.9997   19.2429    1.4309 C   0  0  0  0  0  0  0  0  0  0  0  0
    2.7089   20.0603    0.5882 F   0  0  0  0  0  0  0  0  0  0  0  0
    1.9272   17.9902    0.8393 F   0  0  0  0  0  0  0  0  0  0  0  0
    2.5407   19.1331    2.6780 F   0  0  0  0  0  0  0  0  0  0  0  0
  1  2  2  0
  2  3  1  0
  3  4  1  0
  4  5  2  0
  5  6  1  0
  6  7  2  0
  7  8  1  0
  8  9  2  0
  9 10  1  0
 10 11  1  0
 11 12  2  0
 12 13  1  0
 13 14  2  0
 14 15  1  0
 15 16  2  0
 16 17  1  0
 17 18  1  0
 17 19  1  0
 17 20  1  0
  2 21  1  0
 21 22  1  0
 22 23  2  0
 23 24  1  0
 24 25  2  0
 25 26  1  0
 26 27  2  0
 25 28  1  0
 28 29  1  0
 29 30  1  0
 29 31  1  0
 29 32  1  0
  9  4  1  0
 16 11  1  0
 27 22  1  0
M  END
$$$$
