
     RDKit          3D

 32 34  0  0  0  0  0  0  0  0999 V2000
   -4.3325   16.5378    8.8946 O   0  0  0  0  0  0  0  0  0  0  0  0
   -4.1796   16.9949    7.7509 C   0  0  0  0  0  0  0  0  0  0  0  0
   -3.5418   18.2399    7.5125 N   0  0  0  0  0  0  0  0  0  0  0  0
   -3.2229   19.2075    8.4955 C   0  0  0  0  0  0  0  0  0  0  0  0
   -3.5002   19.0947    9.8366 C   0  0  0  0  0  0  0  0  0  0  0  0
   -3.1711   20.0623   10.7650 C   0  0  0  0  0  0  0  0  0  0  0  0
   -2.5354   21.1781   10.2822 C   0  0  0  0  0  0  0  0  0  0  0  0
   -2.2651   21.2868    8.9710 N   0  0  0  0  0  0  0  0  0  0  0  0
   -2.5728   20.3630    8.0444 C   0  0  0  0  0  0  0  0  0  0  0  0
   -2.2949   20.4826    6.7155 O   0  0  0  0  0  0  0  0  0  0  0  0
   -1.1471   20.9030    6.1450 C   0  0  0  0  0  0  0  0  0  0  0  0
    0.1323   20.7590    6.6095 C   0  0  0  0  0  0  0  0  0  0  0  0
    1.2672   21.2288    5.9475 C   0  0  0  0  0  0  0  0  0  0  0  0
    1.1047   21.8763    4.7574 C   0  0  0  0  0  0  0  0  0  0  0  0
   -0.1533   22.0445    4.2531 C   0  0  0  0  0  0  0  0  0  0  0  0
   -1.2676   21.5760    4.9162 C   0  0  0  0  0  0  0  0  0  0  0  0
   -2.6027   21.7784    4.3484 C   0  0  0  0  0  0  0  0  0  0  0  0
   -3.4447   22.6506    5.2906 C   0  0  0  0  0  0  0  0  0  0  0  0
   -2.4961   22.5674    3.0633 C   0  0  0  0  0  0  0  0  0  0  0  0
   -3.3756   20.4899    4.1879 C   0  0  0  0  0  0  0  0  0  0  0  0
   -4.6876   16.1861    6.6863 N   0  0  0  0  0  0  0  0  0  0  0  0
   -5.1397   14.8563    6.9034 C   0  0  0  0  0  0  0  0  0  0  0  0
   -5.4800   14.0012    5.8776 C   0  0  0  0  0  0  0  0  0  0  0  0
   -5.9176   12.7077    6.1382 C   0  0  0  0  0  0  0  0  0  0  0  0
   -6.0257   12.2377    7.4290 C   0  0  0  0  0  0  0  0  0  0  0  0
   -5.6846   13.0951    8.4515 C   0  0  0  0  0  0  0  0  0  0  0  0
   -5.2486   14.3839    8.1925 C   0  0  0  0  0  0  0  0  0  0  0  0
   -6.4630   10.9469    7.6727 O   0  0  0  0  0  0  0  0  0  0  0  0
   -7.8182   10.6762    8.0520 C   0  0  0  0  0  0  0  0  0  0  0  0
   -8.6857   11.0828    7.0705 F   0  0  0  0  0  0  0  0  0  0  0  0
   -8.0768   11.4363    9.1832 F   0  0  0  0  0  0  0  0  0  0  0  0
   -7.9115    9.3501    8.3563 F   0  0  0  0  0  0  0  0  0  0  0  0
  1  2  2  0
  2  3  1  0
  3  4  1  0
  4  5  2  0
  5  6  1  0
  6  7  2  0
  7  8  1  0
  8  9  2  0
  9 10  1  0
 10 11  1  0
 11 12  2  0
 12 13  1  0
 13 14  2  0
 14 15  1  0
 15 16  2  0
 16 17  1  0
 17 18  1  0
 17 19  1  0
 17 20  1  0
  2 21  1  0
 21 22  1  0
 22 23  2  0
 23 24  1  0
 24 25  2  0
 25 26  1  0
 26 27  2  0
 25 28  1  0
 28 29  1  0
 29 30  1  0
 29 31  1  0
 29 32  1  0
  9  4  1  0
 16 11  1  0
 27 22  1  0
M  END
$$$$
