
     RDKit          3D

 32 34  0  0  0  0  0  0  0  0999 V2000
   -2.7335   16.9789    5.4652 O   0  0  0  0  0  0  0  0  0  0  0  0
   -2.6584   17.9054    6.2875 C   0  0  0  0  0  0  0  0  0  0  0  0
   -3.5263   17.9963    7.4065 N   0  0  0  0  0  0  0  0  0  0  0  0
   -4.3467   16.9552    7.9036 C   0  0  0  0  0  0  0  0  0  0  0  0
   -4.6486   15.7955    7.2312 C   0  0  0  0  0  0  0  0  0  0  0  0
   -5.4535   14.8020    7.7524 C   0  0  0  0  0  0  0  0  0  0  0  0
   -5.9575   15.0234    9.0091 C   0  0  0  0  0  0  0  0  0  0  0  0
   -5.6615   16.1575    9.6649 N   0  0  0  0  0  0  0  0  0  0  0  0
   -4.8821   17.1415    9.1843 C   0  0  0  0  0  0  0  0  0  0  0  0
   -4.5879   18.2895    9.8574 O   0  0  0  0  0  0  0  0  0  0  0  0
   -5.3245   18.9045   10.8054 C   0  0  0  0  0  0  0  0  0  0  0  0
   -5.5630   18.4972   12.0901 C   0  0  0  0  0  0  0  0  0  0  0  0
   -6.3428   19.2026   13.0072 C   0  0  0  0  0  0  0  0  0  0  0  0
   -6.9112   20.3777   12.6097 C   0  0  0  0  0  0  0  0  0  0  0  0
   -6.7021   20.8255   11.3366 C   0  0  0  0  0  0  0  0  0  0  0  0
   -5.9295   20.1199   10.4388 C   0  0  0  0  0  0  0  0  0  0  0  0
   -5.7304   20.6275    9.0791 C   0  0  0  0  0  0  0  0  0  0  0  0
   -4.2810   20.3813    8.6363 C   0  0  0  0  0  0  0  0  0  0  0  0
   -6.5826   19.8394    8.1107 C   0  0  0  0  0  0  0  0  0  0  0  0
   -5.9405   22.1200    8.9714 C   0  0  0  0  0  0  0  0  0  0  0  0
   -1.6401   18.8776    6.0356 N   0  0  0  0  0  0  0  0  0  0  0  0
   -1.0695   19.0506    4.7456 C   0  0  0  0  0  0  0  0  0  0  0  0
   -1.2035   18.1244    3.7340 C   0  0  0  0  0  0  0  0  0  0  0  0
   -0.6272   18.3366    2.4869 C   0  0  0  0  0  0  0  0  0  0  0  0
    0.0965   19.4786    2.2206 C   0  0  0  0  0  0  0  0  0  0  0  0
    0.2283   20.4020    3.2340 C   0  0  0  0  0  0  0  0  0  0  0  0
   -0.3457   20.1910    4.4767 C   0  0  0  0  0  0  0  0  0  0  0  0
    0.6647   19.6760    0.9736 O   0  0  0  0  0  0  0  0  0  0  0  0
    2.0736   19.5227    0.7616 C   0  0  0  0  0  0  0  0  0  0  0  0
    2.5002   20.3333   -0.2594 F   0  0  0  0  0  0  0  0  0  0  0  0
    2.2787   18.2082    0.3686 F   0  0  0  0  0  0  0  0  0  0  0  0
    2.7038   19.7527    1.9489 F   0  0  0  0  0  0  0  0  0  0  0  0
  1  2  2  0
  2  3  1  0
  3  4  1  0
  4  5  2  0
  5  6  1  0
  6  7  2  0
  7  8  1  0
  8  9  2  0
  9 10  1  0
 10 11  1  0
 11 12  2  0
 12 13  1  0
 13 14  2  0
 14 15  1  0
 15 16  2  0
 16 17  1  0
 17 18  1  0
 17 19  1  0
 17 20  1  0
  2 21  1  0
 21 22  1  0
 22 23  2  0
 23 24  1  0
 24 25  2  0
 25 26  1  0
 26 27  2  0
 25 28  1  0
 28 29  1  0
 29 30  1  0
 29 31  1  0
 29 32  1  0
  9  4  1  0
 16 11  1  0
 27 22  1  0
M  END
$$$$
