
     RDKit          3D

 32 34  0  0  0  0  0  0  0  0999 V2000
   -2.6653   17.3404    5.3776 O   0  0  0  0  0  0  0  0  0  0  0  0
   -2.6157   18.3745    6.0620 C   0  0  0  0  0  0  0  0  0  0  0  0
   -3.3457   18.5181    7.2704 N   0  0  0  0  0  0  0  0  0  0  0  0
   -4.3421   17.6314    7.7450 C   0  0  0  0  0  0  0  0  0  0  0  0
   -4.7112   16.4562    7.1362 C   0  0  0  0  0  0  0  0  0  0  0  0
   -5.6888   15.6170    7.6327 C   0  0  0  0  0  0  0  0  0  0  0  0
   -6.2986   16.0139    8.7959 C   0  0  0  0  0  0  0  0  0  0  0  0
   -5.9367   17.1631    9.3897 N   0  0  0  0  0  0  0  0  0  0  0  0
   -4.9899   17.9996    8.9309 C   0  0  0  0  0  0  0  0  0  0  0  0
   -4.6299   19.1642    9.5404 O   0  0  0  0  0  0  0  0  0  0  0  0
   -4.9388   19.5750   10.7876 C   0  0  0  0  0  0  0  0  0  0  0  0
   -4.7532   18.9096   11.9692 C   0  0  0  0  0  0  0  0  0  0  0  0
   -5.1053   19.4156   13.2208 C   0  0  0  0  0  0  0  0  0  0  0  0
   -5.6732   20.6547   13.2852 C   0  0  0  0  0  0  0  0  0  0  0  0
   -5.8787   21.3576   12.1325 C   0  0  0  0  0  0  0  0  0  0  0  0
   -5.5267   20.8473   10.9010 C   0  0  0  0  0  0  0  0  0  0  0  0
   -5.7663   21.6270    9.6841 C   0  0  0  0  0  0  0  0  0  0  0  0
   -6.5753   20.7934    8.6801 C   0  0  0  0  0  0  0  0  0  0  0  0
   -6.6377   22.8196   10.0060 C   0  0  0  0  0  0  0  0  0  0  0  0
   -4.4913   22.0037    8.9659 C   0  0  0  0  0  0  0  0  0  0  0  0
   -1.7749   19.4145    5.5550 N   0  0  0  0  0  0  0  0  0  0  0  0
   -1.0422   19.2657    4.3464 C   0  0  0  0  0  0  0  0  0  0  0  0
   -0.2667   20.2702    3.8089 C   0  0  0  0  0  0  0  0  0  0  0  0
    0.4331   20.0788    2.6231 C   0  0  0  0  0  0  0  0  0  0  0  0
    0.3751   18.8800    1.9461 C   0  0  0  0  0  0  0  0  0  0  0  0
   -0.4010   17.8785    2.4863 C   0  0  0  0  0  0  0  0  0  0  0  0
   -1.0984   18.0686    3.6677 C   0  0  0  0  0  0  0  0  0  0  0  0
    1.0776   18.7043    0.7662 O   0  0  0  0  0  0  0  0  0  0  0  0
    2.4029   18.1593    0.7596 C   0  0  0  0  0  0  0  0  0  0  0  0
    2.3967   16.8664    1.2173 F   0  0  0  0  0  0  0  0  0  0  0  0
    3.1516   18.9166    1.6486 F   0  0  0  0  0  0  0  0  0  0  0  0
    2.9064   18.2963   -0.5005 F   0  0  0  0  0  0  0  0  0  0  0  0
  1  2  2  0
  2  3  1  0
  3  4  1  0
  4  5  2  0
  5  6  1  0
  6  7  2  0
  7  8  1  0
  8  9  2  0
  9 10  1  0
 10 11  1  0
 11 12  2  0
 12 13  1  0
 13 14  2  0
 14 15  1  0
 15 16  2  0
 16 17  1  0
 17 18  1  0
 17 19  1  0
 17 20  1  0
  2 21  1  0
 21 22  1  0
 22 23  2  0
 23 24  1  0
 24 25  2  0
 25 26  1  0
 26 27  2  0
 25 28  1  0
 28 29  1  0
 29 30  1  0
 29 31  1  0
 29 32  1  0
  9  4  1  0
 16 11  1  0
 27 22  1  0
M  END
$$$$
