
     RDKit          3D

 32 34  0  0  0  0  0  0  0  0999 V2000
   -2.1133   18.0978    6.9241 O   0  0  0  0  0  0  0  0  0  0  0  0
   -2.9337   17.3517    6.3669 C   0  0  0  0  0  0  0  0  0  0  0  0
   -4.0172   16.7610    7.0675 N   0  0  0  0  0  0  0  0  0  0  0  0
   -4.2479   16.8506    8.4614 C   0  0  0  0  0  0  0  0  0  0  0  0
   -3.4361   17.5027    9.3580 C   0  0  0  0  0  0  0  0  0  0  0  0
   -3.6972   17.5682   10.7122 C   0  0  0  0  0  0  0  0  0  0  0  0
   -4.8361   16.9365   11.1438 C   0  0  0  0  0  0  0  0  0  0  0  0
   -5.6285   16.2994   10.2662 N   0  0  0  0  0  0  0  0  0  0  0  0
   -5.4008   16.2186    8.9439 C   0  0  0  0  0  0  0  0  0  0  0  0
   -6.2108   15.5691    8.0611 O   0  0  0  0  0  0  0  0  0  0  0  0
   -7.5493   15.6769    7.9329 C   0  0  0  0  0  0  0  0  0  0  0  0
   -8.3180   16.8077    7.9932 C   0  0  0  0  0  0  0  0  0  0  0  0
   -9.7056   16.8245    7.8482 C   0  0  0  0  0  0  0  0  0  0  0  0
  -10.3513   15.6421    7.6312 C   0  0  0  0  0  0  0  0  0  0  0  0
   -9.6269   14.4864    7.5631 C   0  0  0  0  0  0  0  0  0  0  0  0
   -8.2557   14.4820    7.7081 C   0  0  0  0  0  0  0  0  0  0  0  0
   -7.5107   13.2228    7.6343 C   0  0  0  0  0  0  0  0  0  0  0  0
   -8.4846   12.0488    7.4596 C   0  0  0  0  0  0  0  0  0  0  0  0
   -6.6475   13.2130    6.3934 C   0  0  0  0  0  0  0  0  0  0  0  0
   -6.7348   12.9232    8.8960 C   0  0  0  0  0  0  0  0  0  0  0  0
   -2.7180   17.1244    4.9715 N   0  0  0  0  0  0  0  0  0  0  0  0
   -1.7314   17.8375    4.2381 C   0  0  0  0  0  0  0  0  0  0  0  0
   -1.5229   17.6584    2.8876 C   0  0  0  0  0  0  0  0  0  0  0  0
   -0.5452   18.3791    2.2116 C   0  0  0  0  0  0  0  0  0  0  0  0
    0.2473   19.2955    2.8680 C   0  0  0  0  0  0  0  0  0  0  0  0
    0.0361   19.4719    4.2176 C   0  0  0  0  0  0  0  0  0  0  0  0
   -0.9379   18.7541    4.8916 C   0  0  0  0  0  0  0  0  0  0  0  0
    1.2171   20.0058    2.1811 O   0  0  0  0  0  0  0  0  0  0  0  0
    2.4368   19.3857    1.7555 C   0  0  0  0  0  0  0  0  0  0  0  0
    3.2028   20.2675    1.0365 F   0  0  0  0  0  0  0  0  0  0  0  0
    2.0829   18.3470    0.9068 F   0  0  0  0  0  0  0  0  0  0  0  0
    3.0610   18.8860    2.8604 F   0  0  0  0  0  0  0  0  0  0  0  0
  1  2  2  0
  2  3  1  0
  3  4  1  0
  4  5  2  0
  5  6  1  0
  6  7  2  0
  7  8  1  0
  8  9  2  0
  9 10  1  0
 10 11  1  0
 11 12  2  0
 12 13  1  0
 13 14  2  0
 14 15  1  0
 15 16  2  0
 16 17  1  0
 17 18  1  0
 17 19  1  0
 17 20  1  0
  2 21  1  0
 21 22  1  0
 22 23  2  0
 23 24  1  0
 24 25  2  0
 25 26  1  0
 26 27  2  0
 25 28  1  0
 28 29  1  0
 29 30  1  0
 29 31  1  0
 29 32  1  0
  9  4  1  0
 16 11  1  0
 27 22  1  0
M  END
$$$$
