
     RDKit          3D

 32 34  0  0  0  0  0  0  0  0999 V2000
   -1.7845   18.0432    6.7781 O   0  0  0  0  0  0  0  0  0  0  0  0
   -2.6520   17.3086    6.2800 C   0  0  0  0  0  0  0  0  0  0  0  0
   -3.6017   16.6137    7.0731 N   0  0  0  0  0  0  0  0  0  0  0  0
   -3.9045   16.8861    8.4289 C   0  0  0  0  0  0  0  0  0  0  0  0
   -3.1577   17.6836    9.2622 C   0  0  0  0  0  0  0  0  0  0  0  0
   -3.4883   17.9256   10.5808 C   0  0  0  0  0  0  0  0  0  0  0  0
   -4.6288   17.3194   11.0436 C   0  0  0  0  0  0  0  0  0  0  0  0
   -5.3576   16.5401   10.2278 N   0  0  0  0  0  0  0  0  0  0  0  0
   -5.0616   16.2861    8.9414 C   0  0  0  0  0  0  0  0  0  0  0  0
   -5.8073   15.4931    8.1214 O   0  0  0  0  0  0  0  0  0  0  0  0
   -7.1138   15.6210    7.8111 C   0  0  0  0  0  0  0  0  0  0  0  0
   -7.8323   16.7712    7.6267 C   0  0  0  0  0  0  0  0  0  0  0  0
   -9.1896   16.8080    7.3053 C   0  0  0  0  0  0  0  0  0  0  0  0
   -9.8566   15.6262    7.1625 C   0  0  0  0  0  0  0  0  0  0  0  0
   -9.1821   14.4516    7.3369 C   0  0  0  0  0  0  0  0  0  0  0  0
   -7.8406   14.4274    7.6545 C   0  0  0  0  0  0  0  0  0  0  0  0
   -7.1498   13.1489    7.8394 C   0  0  0  0  0  0  0  0  0  0  0  0
   -8.1317   11.9884    7.6244 C   0  0  0  0  0  0  0  0  0  0  0  0
   -6.0936   12.9809    6.7710 C   0  0  0  0  0  0  0  0  0  0  0  0
   -6.6082   12.9695    9.2387 C   0  0  0  0  0  0  0  0  0  0  0  0
   -2.6343   17.2065    4.8536 N   0  0  0  0  0  0  0  0  0  0  0  0
   -1.6764   17.8972    4.0630 C   0  0  0  0  0  0  0  0  0  0  0  0
   -0.7521   18.7704    4.5945 C   0  0  0  0  0  0  0  0  0  0  0  0
    0.1666   19.4241    3.7814 C   0  0  0  0  0  0  0  0  0  0  0  0
    0.1840   19.2214    2.4186 C   0  0  0  0  0  0  0  0  0  0  0  0
   -0.7412   18.3480    1.8910 C   0  0  0  0  0  0  0  0  0  0  0  0
   -1.6567   17.6965    2.7006 C   0  0  0  0  0  0  0  0  0  0  0  0
    1.1050   19.8797    1.6217 O   0  0  0  0  0  0  0  0  0  0  0  0
    2.3292   19.2524    1.2200 C   0  0  0  0  0  0  0  0  0  0  0  0
    3.1010   20.1204    0.4904 F   0  0  0  0  0  0  0  0  0  0  0  0
    1.9842   18.1964    0.3892 F   0  0  0  0  0  0  0  0  0  0  0  0
    2.9435   18.7758    2.3405 F   0  0  0  0  0  0  0  0  0  0  0  0
  1  2  2  0
  2  3  1  0
  3  4  1  0
  4  5  2  0
  5  6  1  0
  6  7  2  0
  7  8  1  0
  8  9  2  0
  9 10  1  0
 10 11  1  0
 11 12  2  0
 12 13  1  0
 13 14  2  0
 14 15  1  0
 15 16  2  0
 16 17  1  0
 17 18  1  0
 17 19  1  0
 17 20  1  0
  2 21  1  0
 21 22  1  0
 22 23  2  0
 23 24  1  0
 24 25  2  0
 25 26  1  0
 26 27  2  0
 25 28  1  0
 28 29  1  0
 29 30  1  0
 29 31  1  0
 29 32  1  0
  9  4  1  0
 16 11  1  0
 27 22  1  0
M  END
$$$$
