
     RDKit          3D

 32 34  0  0  0  0  0  0  0  0999 V2000
   -0.8104   19.5035    6.2685 O   0  0  0  0  0  0  0  0  0  0  0  0
   -1.5800   18.5423    6.1132 C   0  0  0  0  0  0  0  0  0  0  0  0
   -2.6402   18.2682    7.0157 N   0  0  0  0  0  0  0  0  0  0  0  0
   -3.0824   19.1208    8.0557 C   0  0  0  0  0  0  0  0  0  0  0  0
   -2.5535   20.3554    8.3461 C   0  0  0  0  0  0  0  0  0  0  0  0
   -3.0147   21.1583    9.3703 C   0  0  0  0  0  0  0  0  0  0  0  0
   -4.0559   20.6607   10.1124 C   0  0  0  0  0  0  0  0  0  0  0  0
   -4.5716   19.4537    9.8273 N   0  0  0  0  0  0  0  0  0  0  0  0
   -4.1444   18.6502    8.8380 C   0  0  0  0  0  0  0  0  0  0  0  0
   -4.6739   17.4263    8.5568 O   0  0  0  0  0  0  0  0  0  0  0  0
   -5.2664   16.5655    9.4098 C   0  0  0  0  0  0  0  0  0  0  0  0
   -5.2260   16.5655   10.7779 C   0  0  0  0  0  0  0  0  0  0  0  0
   -5.8743   15.6294   11.5842 C   0  0  0  0  0  0  0  0  0  0  0  0
   -6.6001   14.6434   10.9815 C   0  0  0  0  0  0  0  0  0  0  0  0
   -6.6701   14.6018    9.6183 C   0  0  0  0  0  0  0  0  0  0  0  0
   -6.0251   15.5323    8.8315 C   0  0  0  0  0  0  0  0  0  0  0  0
   -6.1178   15.4545    7.3716 C   0  0  0  0  0  0  0  0  0  0  0  0
   -7.0940   14.3401    6.9686 C   0  0  0  0  0  0  0  0  0  0  0  0
   -6.7226   16.7298    6.8303 C   0  0  0  0  0  0  0  0  0  0  0  0
   -4.8030   15.0999    6.7165 C   0  0  0  0  0  0  0  0  0  0  0  0
   -1.3306   17.7268    4.9651 N   0  0  0  0  0  0  0  0  0  0  0  0
   -0.4802   18.1552    3.9100 C   0  0  0  0  0  0  0  0  0  0  0  0
   -0.0518   17.3180    2.9026 C   0  0  0  0  0  0  0  0  0  0  0  0
    0.7804   17.7819    1.8904 C   0  0  0  0  0  0  0  0  0  0  0  0
    1.2045   19.0927    1.8602 C   0  0  0  0  0  0  0  0  0  0  0  0
    0.7743   19.9264    2.8686 C   0  0  0  0  0  0  0  0  0  0  0  0
   -0.0548   19.4647    3.8773 C   0  0  0  0  0  0  0  0  0  0  0  0
    2.0332   19.5401    0.8455 O   0  0  0  0  0  0  0  0  0  0  0  0
    1.5638   20.4517   -0.1555 C   0  0  0  0  0  0  0  0  0  0  0  0
    0.6744   19.8317   -0.9957 F   0  0  0  0  0  0  0  0  0  0  0  0
    2.6678   20.8209   -0.9101 F   0  0  0  0  0  0  0  0  0  0  0  0
    1.0529   21.5452    0.4794 F   0  0  0  0  0  0  0  0  0  0  0  0
  1  2  2  0
  2  3  1  0
  3  4  1  0
  4  5  2  0
  5  6  1  0
  6  7  2  0
  7  8  1  0
  8  9  2  0
  9 10  1  0
 10 11  1  0
 11 12  2  0
 12 13  1  0
 13 14  2  0
 14 15  1  0
 15 16  2  0
 16 17  1  0
 17 18  1  0
 17 19  1  0
 17 20  1  0
  2 21  1  0
 21 22  1  0
 22 23  2  0
 23 24  1  0
 24 25  2  0
 25 26  1  0
 26 27  2  0
 25 28  1  0
 28 29  1  0
 29 30  1  0
 29 31  1  0
 29 32  1  0
  9  4  1  0
 16 11  1  0
 27 22  1  0
M  END
$$$$
