
     RDKit          3D

 32 34  0  0  0  0  0  0  0  0999 V2000
   -1.8749   18.8916    6.9600 O   0  0  0  0  0  0  0  0  0  0  0  0
   -2.3207   17.7480    6.7767 C   0  0  0  0  0  0  0  0  0  0  0  0
   -3.4067   17.2295    7.5289 N   0  0  0  0  0  0  0  0  0  0  0  0
   -3.8142   17.6763    8.8089 C   0  0  0  0  0  0  0  0  0  0  0  0
   -3.2928   18.7611    9.4718 C   0  0  0  0  0  0  0  0  0  0  0  0
   -3.7193   19.1657   10.7212 C   0  0  0  0  0  0  0  0  0  0  0  0
   -4.7167   18.4188   11.2954 C   0  0  0  0  0  0  0  0  0  0  0  0
   -5.2252   17.3587   10.6460 N   0  0  0  0  0  0  0  0  0  0  0  0
   -4.8311   16.9410    9.4307 C   0  0  0  0  0  0  0  0  0  0  0  0
   -5.3529   15.8633    8.7799 O   0  0  0  0  0  0  0  0  0  0  0  0
   -6.5537   15.7650    8.1732 C   0  0  0  0  0  0  0  0  0  0  0  0
   -7.2919   16.7587    7.5893 C   0  0  0  0  0  0  0  0  0  0  0  0
   -8.5323   16.5635    6.9810 C   0  0  0  0  0  0  0  0  0  0  0  0
   -9.0554   15.3033    6.9601 C   0  0  0  0  0  0  0  0  0  0  0  0
   -8.3557   14.2785    7.5303 C   0  0  0  0  0  0  0  0  0  0  0  0
   -7.1305   14.4834    8.1288 C   0  0  0  0  0  0  0  0  0  0  0  0
   -6.4096   13.3616    8.7353 C   0  0  0  0  0  0  0  0  0  0  0  0
   -6.9431   12.0345    8.1772 C   0  0  0  0  0  0  0  0  0  0  0  0
   -4.9548   13.4099    8.3271 C   0  0  0  0  0  0  0  0  0  0  0  0
   -6.6007   13.2795   10.2320 C   0  0  0  0  0  0  0  0  0  0  0  0
   -1.6698   16.9841    5.7578 N   0  0  0  0  0  0  0  0  0  0  0  0
   -0.9587   17.6027    4.6941 C   0  0  0  0  0  0  0  0  0  0  0  0
   -0.3724   16.8927    3.6688 C   0  0  0  0  0  0  0  0  0  0  0  0
    0.3139   17.5414    2.6487 C   0  0  0  0  0  0  0  0  0  0  0  0
    0.4308   18.9143    2.6283 C   0  0  0  0  0  0  0  0  0  0  0  0
   -0.1565   19.6205    3.6547 C   0  0  0  0  0  0  0  0  0  0  0  0
   -0.8403   18.9747    4.6712 C   0  0  0  0  0  0  0  0  0  0  0  0
    1.1173   19.5462    1.6056 O   0  0  0  0  0  0  0  0  0  0  0  0
    0.4336   20.3266    0.6172 C   0  0  0  0  0  0  0  0  0  0  0  0
   -0.3181   19.5214   -0.2001 F   0  0  0  0  0  0  0  0  0  0  0  0
    1.4098   20.9259   -0.1654 F   0  0  0  0  0  0  0  0  0  0  0  0
   -0.2897   21.2840    1.2653 F   0  0  0  0  0  0  0  0  0  0  0  0
  1  2  2  0
  2  3  1  0
  3  4  1  0
  4  5  2  0
  5  6  1  0
  6  7  2  0
  7  8  1  0
  8  9  2  0
  9 10  1  0
 10 11  1  0
 11 12  2  0
 12 13  1  0
 13 14  2  0
 14 15  1  0
 15 16  2  0
 16 17  1  0
 17 18  1  0
 17 19  1  0
 17 20  1  0
  2 21  1  0
 21 22  1  0
 22 23  2  0
 23 24  1  0
 24 25  2  0
 25 26  1  0
 26 27  2  0
 25 28  1  0
 28 29  1  0
 29 30  1  0
 29 31  1  0
 29 32  1  0
  9  4  1  0
 16 11  1  0
 27 22  1  0
M  END
$$$$
