
     RDKit          3D

 32 34  0  0  0  0  0  0  0  0999 V2000
   -1.3838   18.3697    6.6550 O   0  0  0  0  0  0  0  0  0  0  0  0
   -2.1885   17.5352    6.2120 C   0  0  0  0  0  0  0  0  0  0  0  0
   -3.1762   16.9278    7.0300 N   0  0  0  0  0  0  0  0  0  0  0  0
   -3.5456   17.3478    8.3306 C   0  0  0  0  0  0  0  0  0  0  0  0
   -2.8625   18.2674    9.0894 C   0  0  0  0  0  0  0  0  0  0  0  0
   -3.2570   18.6517   10.3556 C   0  0  0  0  0  0  0  0  0  0  0  0
   -4.3947   18.0610   10.8443 C   0  0  0  0  0  0  0  0  0  0  0  0
   -5.0612   17.1621   10.1013 N   0  0  0  0  0  0  0  0  0  0  0  0
   -4.7022   16.7685    8.8672 C   0  0  0  0  0  0  0  0  0  0  0  0
   -5.3848   15.8549    8.1211 O   0  0  0  0  0  0  0  0  0  0  0  0
   -6.7211   15.6956    8.0278 C   0  0  0  0  0  0  0  0  0  0  0  0
   -7.6635   16.6267    7.6838 C   0  0  0  0  0  0  0  0  0  0  0  0
   -9.0332   16.3706    7.6126 C   0  0  0  0  0  0  0  0  0  0  0  0
   -9.4757   15.1128    7.9026 C   0  0  0  0  0  0  0  0  0  0  0  0
   -8.5729   14.1493    8.2512 C   0  0  0  0  0  0  0  0  0  0  0  0
   -7.2214   14.4140    8.3184 C   0  0  0  0  0  0  0  0  0  0  0  0
   -6.2815   13.3574    8.7009 C   0  0  0  0  0  0  0  0  0  0  0  0
   -6.0613   13.3787   10.2202 C   0  0  0  0  0  0  0  0  0  0  0  0
   -6.8869   12.0044    8.4044 C   0  0  0  0  0  0  0  0  0  0  0  0
   -4.9117   13.5386    8.0890 C   0  0  0  0  0  0  0  0  0  0  0  0
   -2.0574   17.2237    4.8223 N   0  0  0  0  0  0  0  0  0  0  0  0
   -1.2079   17.9707    3.9621 C   0  0  0  0  0  0  0  0  0  0  0  0
   -0.4835   19.0642    4.3850 C   0  0  0  0  0  0  0  0  0  0  0  0
    0.3353   19.7647    3.5069 C   0  0  0  0  0  0  0  0  0  0  0  0
    0.4502   19.3901    2.1858 C   0  0  0  0  0  0  0  0  0  0  0  0
   -0.2752   18.2968    1.7668 C   0  0  0  0  0  0  0  0  0  0  0  0
   -1.0912   17.5984    2.6412 C   0  0  0  0  0  0  0  0  0  0  0  0
    1.2697   20.0977    1.3231 O   0  0  0  0  0  0  0  0  0  0  0  0
    0.9407   21.4272    0.9018 C   0  0  0  0  0  0  0  0  0  0  0  0
   -0.1989   21.4248    0.1384 F   0  0  0  0  0  0  0  0  0  0  0  0
    1.9843   21.8623    0.0980 F   0  0  0  0  0  0  0  0  0  0  0  0
    0.8579   22.2114    2.0145 F   0  0  0  0  0  0  0  0  0  0  0  0
  1  2  2  0
  2  3  1  0
  3  4  1  0
  4  5  2  0
  5  6  1  0
  6  7  2  0
  7  8  1  0
  8  9  2  0
  9 10  1  0
 10 11  1  0
 11 12  2  0
 12 13  1  0
 13 14  2  0
 14 15  1  0
 15 16  2  0
 16 17  1  0
 17 18  1  0
 17 19  1  0
 17 20  1  0
  2 21  1  0
 21 22  1  0
 22 23  2  0
 23 24  1  0
 24 25  2  0
 25 26  1  0
 26 27  2  0
 25 28  1  0
 28 29  1  0
 29 30  1  0
 29 31  1  0
 29 32  1  0
  9  4  1  0
 16 11  1  0
 27 22  1  0
M  END
$$$$
