
     RDKit          3D

 25 28  0  0  0  0  0  0  0  0999 V2000
    3.2546   -0.4407    7.7599 C   0  0  0  0  0  0  0  0  0  0  0  0
    2.2414   -0.3320    6.8313 C   0  0  0  0  0  0  0  0  0  0  0  0
    1.5145    0.6934    7.1752 O   0  0  0  0  0  0  0  0  0  0  0  0
    1.9552    1.2831    8.2582 C   0  0  0  0  0  0  0  0  0  0  0  0
    3.0752    0.5807    8.6641 C   0  0  0  0  0  0  0  0  0  0  0  0
    1.3826    2.4632    8.9262 C   0  0  0  0  0  0  0  0  0  0  0  0
    0.2552    3.0941    8.5510 N   0  0  0  0  0  0  0  0  0  0  0  0
    0.0005    4.1205    9.3487 N   0  0  0  0  0  0  0  0  0  0  0  0
   -0.9940    5.0213    9.3609 C   0  0  0  0  0  0  0  0  0  0  0  0
   -0.9897    5.9724   10.3139 N   0  0  0  0  0  0  0  0  0  0  0  0
   -0.0250    6.0370   11.2385 C   0  0  0  0  0  0  0  0  0  0  0  0
    0.9557    5.1323   11.2101 N   0  0  0  0  0  0  0  0  0  0  0  0
    0.9995    4.1503   10.2691 C   0  0  0  0  0  0  0  0  0  0  0  0
    1.8370    3.1298    9.9969 N   0  0  0  0  0  0  0  0  0  0  0  0
   -0.0420    7.0367   12.2281 N   0  0  0  0  0  0  0  0  0  0  0  0
    0.6074    6.8766   13.5254 C   0  0  0  0  0  0  0  0  0  0  0  0
    1.9861    7.4866   13.5471 C   0  0  0  0  0  0  0  0  0  0  0  0
    3.0051    6.5720   14.0701 C   0  0  0  0  0  0  0  0  0  0  0  0
    2.8802    5.9241   15.2886 C   0  0  0  0  0  0  0  0  0  0  0  0
    3.8852    5.0816   15.7023 C   0  0  0  0  0  0  0  0  0  0  0  0
    5.0237    4.8611   14.9328 C   0  0  0  0  0  0  0  0  0  0  0  0
    5.1432    5.5058   13.7252 C   0  0  0  0  0  0  0  0  0  0  0  0
    4.1349    6.3515   13.3093 C   0  0  0  0  0  0  0  0  0  0  0  0
    6.0477    4.0147   15.3339 O   0  0  0  0  0  0  0  0  0  0  0  0
   -2.0321    4.9862    8.4009 N   0  0  0  0  0  0  0  0  0  0  0  0
  1  2  2  0
  2  3  1  0
  3  4  1  0
  4  5  2  0
  4  6  1  0
  6  7  2  0
  7  8  1  0
  8  9  1  0
  9 10  2  0
 10 11  1  0
 11 12  2  0
 12 13  1  0
 13 14  2  0
 11 15  1  0
 15 16  1  0
 16 17  1  0
 17 18  1  0
 18 19  2  0
 19 20  1  0
 20 21  2  0
 21 22  1  0
 22 23  2  0
 21 24  1  0
  9 25  1  0
  5  1  1  0
 14  6  1  0
 13  8  1  0
 23 18  1  0
M  END
$$$$
