
     RDKit          3D

 25 28  0  0  0  0  0  0  0  0999 V2000
    1.8467    0.3210    6.6198 C   0  0  0  0  0  0  0  0  0  0  0  0
    3.1059    0.0077    7.0855 C   0  0  0  0  0  0  0  0  0  0  0  0
    3.3381    0.7775    8.1110 O   0  0  0  0  0  0  0  0  0  0  0  0
    2.3390    1.5825    8.3733 C   0  0  0  0  0  0  0  0  0  0  0  0
    1.3595    1.3177    7.4336 C   0  0  0  0  0  0  0  0  0  0  0  0
    2.2580    2.5798    9.4528 C   0  0  0  0  0  0  0  0  0  0  0  0
    1.2553    3.4613    9.6187 N   0  0  0  0  0  0  0  0  0  0  0  0
    1.4689    4.2256   10.6793 N   0  0  0  0  0  0  0  0  0  0  0  0
    0.7558    5.2235   11.2237 C   0  0  0  0  0  0  0  0  0  0  0  0
    1.2344    5.8299   12.3264 N   0  0  0  0  0  0  0  0  0  0  0  0
    2.3933    5.4622   12.8842 C   0  0  0  0  0  0  0  0  0  0  0  0
    3.0885    4.4676   12.3285 N   0  0  0  0  0  0  0  0  0  0  0  0
    2.6506    3.8210   11.2140 C   0  0  0  0  0  0  0  0  0  0  0  0
    3.1207    2.8133   10.4521 N   0  0  0  0  0  0  0  0  0  0  0  0
    2.8731    6.1066   14.0390 N   0  0  0  0  0  0  0  0  0  0  0  0
    2.1279    7.1566   14.7262 C   0  0  0  0  0  0  0  0  0  0  0  0
    2.9139    8.4400   14.8190 C   0  0  0  0  0  0  0  0  0  0  0  0
    2.1649    9.6025   14.3332 C   0  0  0  0  0  0  0  0  0  0  0  0
    0.8781    9.5107   13.8273 C   0  0  0  0  0  0  0  0  0  0  0  0
    0.2485   10.6538   13.3937 C   0  0  0  0  0  0  0  0  0  0  0  0
    0.8662   11.8997   13.4483 C   0  0  0  0  0  0  0  0  0  0  0  0
    2.1423   11.9859   13.9507 C   0  0  0  0  0  0  0  0  0  0  0  0
    2.7748   10.8391   14.3861 C   0  0  0  0  0  0  0  0  0  0  0  0
    0.2466   13.0636   13.0156 O   0  0  0  0  0  0  0  0  0  0  0  0
   -0.4740    5.6411   10.6637 N   0  0  0  0  0  0  0  0  0  0  0  0
  1  2  2  0
  2  3  1  0
  3  4  1  0
  4  5  2  0
  4  6  1  0
  6  7  2  0
  7  8  1  0
  8  9  1  0
  9 10  2  0
 10 11  1  0
 11 12  2  0
 12 13  1  0
 13 14  2  0
 11 15  1  0
 15 16  1  0
 16 17  1  0
 17 18  1  0
 18 19  2  0
 19 20  1  0
 20 21  2  0
 21 22  1  0
 22 23  2  0
 21 24  1  0
  9 25  1  0
  5  1  1  0
 14  6  1  0
 13  8  1  0
 23 18  1  0
M  END
$$$$
