
     RDKit          3D

 25 28  0  0  0  0  0  0  0  0999 V2000
    1.9414    0.1180    6.4118 C   0  0  0  0  0  0  0  0  0  0  0  0
    3.1202   -0.2260    7.0384 C   0  0  0  0  0  0  0  0  0  0  0  0
    3.2553    0.5674    8.0634 O   0  0  0  0  0  0  0  0  0  0  0  0
    2.2648    1.4164    8.1776 C   0  0  0  0  0  0  0  0  0  0  0  0
    1.3983    1.1575    7.1314 C   0  0  0  0  0  0  0  0  0  0  0  0
    2.0920    2.4502    9.2111 C   0  0  0  0  0  0  0  0  0  0  0  0
    2.8224    2.5495   10.3364 N   0  0  0  0  0  0  0  0  0  0  0  0
    2.4283    3.5828   11.0656 N   0  0  0  0  0  0  0  0  0  0  0  0
    2.8550    4.0637   12.2435 C   0  0  0  0  0  0  0  0  0  0  0  0
    2.2490    5.1533   12.7517 N   0  0  0  0  0  0  0  0  0  0  0  0
    1.2417    5.7596   12.1136 C   0  0  0  0  0  0  0  0  0  0  0  0
    0.8313    5.2667   10.9432 N   0  0  0  0  0  0  0  0  0  0  0  0
    1.4086    4.1682   10.3849 C   0  0  0  0  0  0  0  0  0  0  0  0
    1.2150    3.4634    9.2523 N   0  0  0  0  0  0  0  0  0  0  0  0
    0.6253    6.8998   12.6605 N   0  0  0  0  0  0  0  0  0  0  0  0
    0.9994    7.4562   13.9569 C   0  0  0  0  0  0  0  0  0  0  0  0
    2.3982    8.0190   13.9486 C   0  0  0  0  0  0  0  0  0  0  0  0
    2.8950    8.3292   15.2922 C   0  0  0  0  0  0  0  0  0  0  0  0
    2.0555    8.5482   16.3727 C   0  0  0  0  0  0  0  0  0  0  0  0
    2.6076    8.8330   17.5995 C   0  0  0  0  0  0  0  0  0  0  0  0
    3.9846    8.9077   17.7871 C   0  0  0  0  0  0  0  0  0  0  0  0
    4.8131    8.6898   16.7128 C   0  0  0  0  0  0  0  0  0  0  0  0
    4.2597    8.4038   15.4812 C   0  0  0  0  0  0  0  0  0  0  0  0
    4.5595    9.1938   19.0174 O   0  0  0  0  0  0  0  0  0  0  0  0
    3.9171    3.4511   12.9485 N   0  0  0  0  0  0  0  0  0  0  0  0
  1  2  2  0
  2  3  1  0
  3  4  1  0
  4  5  2  0
  4  6  1  0
  6  7  2  0
  7  8  1  0
  8  9  1  0
  9 10  2  0
 10 11  1  0
 11 12  2  0
 12 13  1  0
 13 14  2  0
 11 15  1  0
 15 16  1  0
 16 17  1  0
 17 18  1  0
 18 19  2  0
 19 20  1  0
 20 21  2  0
 21 22  1  0
 22 23  2  0
 21 24  1  0
  9 25  1  0
  5  1  1  0
 14  6  1  0
 13  8  1  0
 23 18  1  0
M  END
$$$$
