
     RDKit          3D

 25 28  0  0  0  0  0  0  0  0999 V2000
    1.5549    1.0986    5.7522 C   0  0  0  0  0  0  0  0  0  0  0  0
    2.5627    0.3672    6.3437 C   0  0  0  0  0  0  0  0  0  0  0  0
    2.7272    0.8431    7.5457 O   0  0  0  0  0  0  0  0  0  0  0  0
    1.9132    1.8340    7.8111 C   0  0  0  0  0  0  0  0  0  0  0  0
    1.1423    2.0277    6.6794 C   0  0  0  0  0  0  0  0  0  0  0  0
    1.8231    2.6022    9.0635 C   0  0  0  0  0  0  0  0  0  0  0  0
    2.5624    2.3771   10.1645 N   0  0  0  0  0  0  0  0  0  0  0  0
    2.2508    3.2334   11.1260 N   0  0  0  0  0  0  0  0  0  0  0  0
    2.7166    3.3876   12.3749 C   0  0  0  0  0  0  0  0  0  0  0  0
    2.1973    4.3667   13.1395 N   0  0  0  0  0  0  0  0  0  0  0  0
    1.2373    5.1797   12.6847 C   0  0  0  0  0  0  0  0  0  0  0  0
    0.7868    5.0109   11.4398 N   0  0  0  0  0  0  0  0  0  0  0  0
    1.2767    4.0373   10.6251 C   0  0  0  0  0  0  0  0  0  0  0  0
    1.0263    3.6382    9.3621 N   0  0  0  0  0  0  0  0  0  0  0  0
    0.7116    6.1993   13.4991 N   0  0  0  0  0  0  0  0  0  0  0  0
    0.7312    7.6074   13.1153 C   0  0  0  0  0  0  0  0  0  0  0  0
    2.1346    8.1169   12.9051 C   0  0  0  0  0  0  0  0  0  0  0  0
    2.7971    8.4934   14.1572 C   0  0  0  0  0  0  0  0  0  0  0  0
    3.9363    7.8587   14.6259 C   0  0  0  0  0  0  0  0  0  0  0  0
    4.4933    8.2774   15.8114 C   0  0  0  0  0  0  0  0  0  0  0  0
    3.9462    9.3197   16.5537 C   0  0  0  0  0  0  0  0  0  0  0  0
    2.8165    9.9461   16.0850 C   0  0  0  0  0  0  0  0  0  0  0  0
    2.2569    9.5264   14.8952 C   0  0  0  0  0  0  0  0  0  0  0  0
    4.4944    9.7557   17.7517 O   0  0  0  0  0  0  0  0  0  0  0  0
    3.7309    2.5485   12.8921 N   0  0  0  0  0  0  0  0  0  0  0  0
  1  2  2  0
  2  3  1  0
  3  4  1  0
  4  5  2  0
  4  6  1  0
  6  7  2  0
  7  8  1  0
  8  9  1  0
  9 10  2  0
 10 11  1  0
 11 12  2  0
 12 13  1  0
 13 14  2  0
 11 15  1  0
 15 16  1  0
 16 17  1  0
 17 18  1  0
 18 19  2  0
 19 20  1  0
 20 21  2  0
 21 22  1  0
 22 23  2  0
 21 24  1  0
  9 25  1  0
  5  1  1  0
 14  6  1  0
 13  8  1  0
 23 18  1  0
M  END
$$$$
