
     RDKit          3D

 25 28  0  0  0  0  0  0  0  0999 V2000
    2.6060   -0.7875    7.2639 C   0  0  0  0  0  0  0  0  0  0  0  0
    1.4936   -0.2653    6.6391 C   0  0  0  0  0  0  0  0  0  0  0  0
    1.1751    0.8276    7.2736 O   0  0  0  0  0  0  0  0  0  0  0  0
    1.9814    1.0831    8.2733 C   0  0  0  0  0  0  0  0  0  0  0  0
    2.9165    0.0645    8.2987 C   0  0  0  0  0  0  0  0  0  0  0  0
    1.9190    2.2261    9.1987 C   0  0  0  0  0  0  0  0  0  0  0  0
    2.7478    2.4256   10.2394 N   0  0  0  0  0  0  0  0  0  0  0  0
    2.4383    3.5415   10.8826 N   0  0  0  0  0  0  0  0  0  0  0  0
    2.9759    4.1341   11.9598 C   0  0  0  0  0  0  0  0  0  0  0  0
    2.4368    5.2880   12.3962 N   0  0  0  0  0  0  0  0  0  0  0  0
    1.3878    5.8496   11.7848 C   0  0  0  0  0  0  0  0  0  0  0  0
    0.8668    5.2454   10.7149 N   0  0  0  0  0  0  0  0  0  0  0  0
    1.3728    4.0781   10.2323 C   0  0  0  0  0  0  0  0  0  0  0  0
    1.0673    3.2614    9.2044 N   0  0  0  0  0  0  0  0  0  0  0  0
    0.8426    7.0583   12.2549 N   0  0  0  0  0  0  0  0  0  0  0  0
    1.4699    7.8530   13.3061 C   0  0  0  0  0  0  0  0  0  0  0  0
    1.0944    7.3669   14.6831 C   0  0  0  0  0  0  0  0  0  0  0  0
    2.1296    7.6386   15.6846 C   0  0  0  0  0  0  0  0  0  0  0  0
    3.3536    6.9890   15.6966 C   0  0  0  0  0  0  0  0  0  0  0  0
    4.2678    7.3066   16.6736 C   0  0  0  0  0  0  0  0  0  0  0  0
    3.9993    8.2611   17.6501 C   0  0  0  0  0  0  0  0  0  0  0  0
    2.7842    8.9026   17.6342 C   0  0  0  0  0  0  0  0  0  0  0  0
    1.8662    8.5844   16.6540 C   0  0  0  0  0  0  0  0  0  0  0  0
    4.9094    8.5945   18.6434 O   0  0  0  0  0  0  0  0  0  0  0  0
    4.0852    3.5719   12.6334 N   0  0  0  0  0  0  0  0  0  0  0  0
  1  2  2  0
  2  3  1  0
  3  4  1  0
  4  5  2  0
  4  6  1  0
  6  7  2  0
  7  8  1  0
  8  9  1  0
  9 10  2  0
 10 11  1  0
 11 12  2  0
 12 13  1  0
 13 14  2  0
 11 15  1  0
 15 16  1  0
 16 17  1  0
 17 18  1  0
 18 19  2  0
 19 20  1  0
 20 21  2  0
 21 22  1  0
 22 23  2  0
 21 24  1  0
  9 25  1  0
  5  1  1  0
 14  6  1  0
 13  8  1  0
 23 18  1  0
M  END
$$$$
