
     RDKit          3D

 25 28  0  0  0  0  0  0  0  0999 V2000
    3.9471   -0.5269    7.9258 C   0  0  0  0  0  0  0  0  0  0  0  0
    3.1284   -0.2924    6.8417 C   0  0  0  0  0  0  0  0  0  0  0  0
    2.4190    0.7651    7.1185 O   0  0  0  0  0  0  0  0  0  0  0  0
    2.6931    1.2610    8.2991 C   0  0  0  0  0  0  0  0  0  0  0  0
    3.6732    0.4554    8.8496 C   0  0  0  0  0  0  0  0  0  0  0  0
    2.0864    2.4436    8.9317 C   0  0  0  0  0  0  0  0  0  0  0  0
    1.1502    3.2281    8.3682 N   0  0  0  0  0  0  0  0  0  0  0  0
    0.8037    4.2116    9.1853 N   0  0  0  0  0  0  0  0  0  0  0  0
   -0.0746    5.2177    9.0556 C   0  0  0  0  0  0  0  0  0  0  0  0
   -0.2163    6.0844   10.0762 N   0  0  0  0  0  0  0  0  0  0  0  0
    0.4927    5.9643   11.2043 C   0  0  0  0  0  0  0  0  0  0  0  0
    1.3613    4.9571   11.3148 N   0  0  0  0  0  0  0  0  0  0  0  0
    1.5436    4.0533   10.3139 C   0  0  0  0  0  0  0  0  0  0  0  0
    2.3233    2.9672   10.1430 N   0  0  0  0  0  0  0  0  0  0  0  0
    0.3259    6.8787   12.2604 N   0  0  0  0  0  0  0  0  0  0  0  0
    1.1395    6.8451   13.4716 C   0  0  0  0  0  0  0  0  0  0  0  0
    2.5323    7.3707   13.2322 C   0  0  0  0  0  0  0  0  0  0  0  0
    3.3807    7.2988   14.4253 C   0  0  0  0  0  0  0  0  0  0  0  0
    4.4859    6.4676   14.5135 C   0  0  0  0  0  0  0  0  0  0  0  0
    5.2273    6.4640   15.6717 C   0  0  0  0  0  0  0  0  0  0  0  0
    4.8997    7.2708   16.7573 C   0  0  0  0  0  0  0  0  0  0  0  0
    3.8029    8.0934   16.6653 C   0  0  0  0  0  0  0  0  0  0  0  0
    3.0583    8.0976   15.5032 C   0  0  0  0  0  0  0  0  0  0  0  0
    5.6360    7.2806   17.9337 O   0  0  0  0  0  0  0  0  0  0  0  0
   -0.8428    5.3783    7.8790 N   0  0  0  0  0  0  0  0  0  0  0  0
  1  2  2  0
  2  3  1  0
  3  4  1  0
  4  5  2  0
  4  6  1  0
  6  7  2  0
  7  8  1  0
  8  9  1  0
  9 10  2  0
 10 11  1  0
 11 12  2  0
 12 13  1  0
 13 14  2  0
 11 15  1  0
 15 16  1  0
 16 17  1  0
 17 18  1  0
 18 19  2  0
 19 20  1  0
 20 21  2  0
 21 22  1  0
 22 23  2  0
 21 24  1  0
  9 25  1  0
  5  1  1  0
 14  6  1  0
 13  8  1  0
 23 18  1  0
M  END
$$$$
