
     RDKit          3D

 25 28  0  0  0  0  0  0  0  0999 V2000
    4.5663    8.9637    7.8983 C   0  0  0  0  0  0  0  0  0  0  0  0
    4.9053    8.1535    6.8357 C   0  0  0  0  0  0  0  0  0  0  0  0
    4.1493    7.0942    6.9048 O   0  0  0  0  0  0  0  0  0  0  0  0
    3.3301    7.1254    7.9259 C   0  0  0  0  0  0  0  0  0  0  0  0
    3.5693    8.3148    8.5898 C   0  0  0  0  0  0  0  0  0  0  0  0
    2.3419    6.1032    8.3071 C   0  0  0  0  0  0  0  0  0  0  0  0
    2.0803    4.9820    7.6113 N   0  0  0  0  0  0  0  0  0  0  0  0
    1.1418    4.2632    8.2092 N   0  0  0  0  0  0  0  0  0  0  0  0
    0.5685    3.0930    7.8890 C   0  0  0  0  0  0  0  0  0  0  0  0
   -0.3791    2.5954    8.7058 N   0  0  0  0  0  0  0  0  0  0  0  0
   -0.7566    3.2366    9.8176 C   0  0  0  0  0  0  0  0  0  0  0  0
   -0.1749    4.3992   10.1194 N   0  0  0  0  0  0  0  0  0  0  0  0
    0.7879    4.9467    9.3288 C   0  0  0  0  0  0  0  0  0  0  0  0
    1.5312    6.0703    9.3744 N   0  0  0  0  0  0  0  0  0  0  0  0
   -1.7459    2.6966   10.6595 N   0  0  0  0  0  0  0  0  0  0  0  0
   -2.6208    1.6020   10.2511 C   0  0  0  0  0  0  0  0  0  0  0  0
   -1.8462    0.3505    9.9242 C   0  0  0  0  0  0  0  0  0  0  0  0
   -1.3133   -0.3167   11.1155 C   0  0  0  0  0  0  0  0  0  0  0  0
   -0.5234   -1.4534   11.0511 C   0  0  0  0  0  0  0  0  0  0  0  0
   -0.0650   -2.0144   12.2200 C   0  0  0  0  0  0  0  0  0  0  0  0
   -0.3716   -1.4737   13.4652 C   0  0  0  0  0  0  0  0  0  0  0  0
   -1.1553   -0.3465   13.5241 C   0  0  0  0  0  0  0  0  0  0  0  0
   -1.6157    0.2171   12.3514 C   0  0  0  0  0  0  0  0  0  0  0  0
    0.0820   -2.0259   14.6549 O   0  0  0  0  0  0  0  0  0  0  0  0
    0.9404    2.3849    6.7225 N   0  0  0  0  0  0  0  0  0  0  0  0
  1  2  2  0
  2  3  1  0
  3  4  1  0
  4  5  2  0
  4  6  1  0
  6  7  2  0
  7  8  1  0
  8  9  1  0
  9 10  2  0
 10 11  1  0
 11 12  2  0
 12 13  1  0
 13 14  2  0
 11 15  1  0
 15 16  1  0
 16 17  1  0
 17 18  1  0
 18 19  2  0
 19 20  1  0
 20 21  2  0
 21 22  1  0
 22 23  2  0
 21 24  1  0
  9 25  1  0
  5  1  1  0
 14  6  1  0
 13  8  1  0
 23 18  1  0
M  END
$$$$
