
     RDKit          3D

 25 28  0  0  0  0  0  0  0  0999 V2000
    1.3158    0.1393    6.4027 C   0  0  0  0  0  0  0  0  0  0  0  0
    2.5786   -0.1676    6.8628 C   0  0  0  0  0  0  0  0  0  0  0  0
    2.8648    0.6919    7.7996 O   0  0  0  0  0  0  0  0  0  0  0  0
    1.8987    1.5512    8.0074 C   0  0  0  0  0  0  0  0  0  0  0  0
    0.8835    1.2270    7.1260 C   0  0  0  0  0  0  0  0  0  0  0  0
    1.8804    2.6525    8.9839 C   0  0  0  0  0  0  0  0  0  0  0  0
    2.7578    2.8081    9.9916 N   0  0  0  0  0  0  0  0  0  0  0  0
    2.4792    3.8942   10.6971 N   0  0  0  0  0  0  0  0  0  0  0  0
    3.0675    4.4403   11.7723 C   0  0  0  0  0  0  0  0  0  0  0  0
    2.5497    5.5730   12.2840 N   0  0  0  0  0  0  0  0  0  0  0  0
    1.4728    6.1585   11.7483 C   0  0  0  0  0  0  0  0  0  0  0  0
    0.9014    5.6005   10.6790 N   0  0  0  0  0  0  0  0  0  0  0  0
    1.3840    4.4564   10.1223 C   0  0  0  0  0  0  0  0  0  0  0  0
    1.0299    3.6848    9.0753 N   0  0  0  0  0  0  0  0  0  0  0  0
    0.9505    7.3443   12.2962 N   0  0  0  0  0  0  0  0  0  0  0  0
    1.6046    8.0696   13.3808 C   0  0  0  0  0  0  0  0  0  0  0  0
    1.1783    7.5655   14.7363 C   0  0  0  0  0  0  0  0  0  0  0  0
    2.2049    7.7593   15.7644 C   0  0  0  0  0  0  0  0  0  0  0  0
    2.0362    7.3600   17.0806 C   0  0  0  0  0  0  0  0  0  0  0  0
    3.0528    7.5804   17.9801 C   0  0  0  0  0  0  0  0  0  0  0  0
    4.2455    8.1927   17.6068 C   0  0  0  0  0  0  0  0  0  0  0  0
    4.4082    8.5870   16.3006 C   0  0  0  0  0  0  0  0  0  0  0  0
    3.3884    8.3661   15.3972 C   0  0  0  0  0  0  0  0  0  0  0  0
    5.2820    8.4232   18.5004 O   0  0  0  0  0  0  0  0  0  0  0  0
    4.2077    3.8517   12.3672 N   0  0  0  0  0  0  0  0  0  0  0  0
  1  2  2  0
  2  3  1  0
  3  4  1  0
  4  5  2  0
  4  6  1  0
  6  7  2  0
  7  8  1  0
  8  9  1  0
  9 10  2  0
 10 11  1  0
 11 12  2  0
 12 13  1  0
 13 14  2  0
 11 15  1  0
 15 16  1  0
 16 17  1  0
 17 18  1  0
 18 19  2  0
 19 20  1  0
 20 21  2  0
 21 22  1  0
 22 23  2  0
 21 24  1  0
  9 25  1  0
  5  1  1  0
 14  6  1  0
 13  8  1  0
 23 18  1  0
M  END
$$$$
