
     RDKit          3D

 25 28  0  0  0  0  0  0  0  0999 V2000
    1.3245   -0.0187    6.7168 C   0  0  0  0  0  0  0  0  0  0  0  0
    2.5843   -0.3157    7.1915 C   0  0  0  0  0  0  0  0  0  0  0  0
    2.8745    0.5782    8.0943 O   0  0  0  0  0  0  0  0  0  0  0  0
    1.9139    1.4516    8.2658 C   0  0  0  0  0  0  0  0  0  0  0  0
    0.8983    1.0997    7.3956 C   0  0  0  0  0  0  0  0  0  0  0  0
    1.9013    2.5907    9.1978 C   0  0  0  0  0  0  0  0  0  0  0  0
    2.7717    2.7750   10.2068 N   0  0  0  0  0  0  0  0  0  0  0  0
    2.5009    3.8916   10.8663 N   0  0  0  0  0  0  0  0  0  0  0  0
    3.0868    4.4723   11.9246 C   0  0  0  0  0  0  0  0  0  0  0  0
    2.5791    5.6307   12.3864 N   0  0  0  0  0  0  0  0  0  0  0  0
    1.5146    6.2080   11.8181 C   0  0  0  0  0  0  0  0  0  0  0  0
    0.9455    5.6155   10.7664 N   0  0  0  0  0  0  0  0  0  0  0  0
    1.4181    4.4443   10.2596 C   0  0  0  0  0  0  0  0  0  0  0  0
    1.0633    3.6364    9.2406 N   0  0  0  0  0  0  0  0  0  0  0  0
    1.0028    7.4210   12.3140 N   0  0  0  0  0  0  0  0  0  0  0  0
    1.6351    8.1603   13.4021 C   0  0  0  0  0  0  0  0  0  0  0  0
    1.1143    7.7359   14.7519 C   0  0  0  0  0  0  0  0  0  0  0  0
    2.0860    7.9463   15.8289 C   0  0  0  0  0  0  0  0  0  0  0  0
    1.8202    7.6363   17.1531 C   0  0  0  0  0  0  0  0  0  0  0  0
    2.7908    7.8658   18.0998 C   0  0  0  0  0  0  0  0  0  0  0  0
    4.0318    8.4003   17.7664 C   0  0  0  0  0  0  0  0  0  0  0  0
    4.2908    8.7062   16.4521 C   0  0  0  0  0  0  0  0  0  0  0  0
    3.3171    8.4761   15.5014 C   0  0  0  0  0  0  0  0  0  0  0  0
    5.0232    8.6386   18.7079 O   0  0  0  0  0  0  0  0  0  0  0  0
    4.2140    3.8934   12.5528 N   0  0  0  0  0  0  0  0  0  0  0  0
  1  2  2  0
  2  3  1  0
  3  4  1  0
  4  5  2  0
  4  6  1  0
  6  7  2  0
  7  8  1  0
  8  9  1  0
  9 10  2  0
 10 11  1  0
 11 12  2  0
 12 13  1  0
 13 14  2  0
 11 15  1  0
 15 16  1  0
 16 17  1  0
 17 18  1  0
 18 19  2  0
 19 20  1  0
 20 21  2  0
 21 22  1  0
 22 23  2  0
 21 24  1  0
  9 25  1  0
  5  1  1  0
 14  6  1  0
 13  8  1  0
 23 18  1  0
M  END
$$$$
