
     RDKit          3D

 25 28  0  0  0  0  0  0  0  0999 V2000
    1.4994   -0.1979    6.9219 C   0  0  0  0  0  0  0  0  0  0  0  0
    2.7872   -0.3877    7.3762 C   0  0  0  0  0  0  0  0  0  0  0  0
    3.0221    0.5394    8.2613 O   0  0  0  0  0  0  0  0  0  0  0  0
    1.9988    1.3368    8.4397 C   0  0  0  0  0  0  0  0  0  0  0  0
    0.9986    0.8933    7.5939 C   0  0  0  0  0  0  0  0  0  0  0  0
    1.9131    2.4851    9.3567 C   0  0  0  0  0  0  0  0  0  0  0  0
    2.7973    2.7653   10.3310 N   0  0  0  0  0  0  0  0  0  0  0  0
    2.4473    3.8627   10.9853 N   0  0  0  0  0  0  0  0  0  0  0  0
    3.0133    4.5122   12.0140 C   0  0  0  0  0  0  0  0  0  0  0  0
    2.4168    5.6262   12.4787 N   0  0  0  0  0  0  0  0  0  0  0  0
    1.2841    6.0935   11.9420 C   0  0  0  0  0  0  0  0  0  0  0  0
    0.7361    5.4339   10.9194 N   0  0  0  0  0  0  0  0  0  0  0  0
    1.2974    4.3032   10.4111 C   0  0  0  0  0  0  0  0  0  0  0  0
    0.9837    3.4495    9.4163 N   0  0  0  0  0  0  0  0  0  0  0  0
    0.6796    7.2620   12.4403 N   0  0  0  0  0  0  0  0  0  0  0  0
    1.2738    8.0692   13.5013 C   0  0  0  0  0  0  0  0  0  0  0  0
    1.4968    7.2718   14.7613 C   0  0  0  0  0  0  0  0  0  0  0  0
    2.3388    7.9712   15.7361 C   0  0  0  0  0  0  0  0  0  0  0  0
    2.5838    9.3339   15.6779 C   0  0  0  0  0  0  0  0  0  0  0  0
    3.3862    9.9089   16.6353 C   0  0  0  0  0  0  0  0  0  0  0  0
    3.9591    9.1621   17.6604 C   0  0  0  0  0  0  0  0  0  0  0  0
    3.7135    7.8112   17.7140 C   0  0  0  0  0  0  0  0  0  0  0  0
    2.9082    7.2333   16.7535 C   0  0  0  0  0  0  0  0  0  0  0  0
    4.7712    9.7250   18.6349 O   0  0  0  0  0  0  0  0  0  0  0  0
    4.2106    4.0500   12.6083 N   0  0  0  0  0  0  0  0  0  0  0  0
  1  2  2  0
  2  3  1  0
  3  4  1  0
  4  5  2  0
  4  6  1  0
  6  7  2  0
  7  8  1  0
  8  9  1  0
  9 10  2  0
 10 11  1  0
 11 12  2  0
 12 13  1  0
 13 14  2  0
 11 15  1  0
 15 16  1  0
 16 17  1  0
 17 18  1  0
 18 19  2  0
 19 20  1  0
 20 21  2  0
 21 22  1  0
 22 23  2  0
 21 24  1  0
  9 25  1  0
  5  1  1  0
 14  6  1  0
 13  8  1  0
 23 18  1  0
M  END
$$$$
