
     RDKit          3D

 25 28  0  0  0  0  0  0  0  0999 V2000
    2.4897    0.6622    6.1957 C   0  0  0  0  0  0  0  0  0  0  0  0
    3.6224    0.3774    6.9282 C   0  0  0  0  0  0  0  0  0  0  0  0
    3.6233    1.1752    7.9586 O   0  0  0  0  0  0  0  0  0  0  0  0
    2.5848    1.9727    7.9795 C   0  0  0  0  0  0  0  0  0  0  0  0
    1.8314    1.6718    6.8594 C   0  0  0  0  0  0  0  0  0  0  0  0
    2.2664    2.9950    8.9895 C   0  0  0  0  0  0  0  0  0  0  0  0
    2.9104    3.1537   10.1599 N   0  0  0  0  0  0  0  0  0  0  0  0
    2.3923    4.1575   10.8518 N   0  0  0  0  0  0  0  0  0  0  0  0
    2.7020    4.6741   12.0509 C   0  0  0  0  0  0  0  0  0  0  0  0
    1.9837    5.7172   12.5077 N   0  0  0  0  0  0  0  0  0  0  0  0
    0.9789    6.2434   11.7985 C   0  0  0  0  0  0  0  0  0  0  0  0
    0.6857    5.7162   10.6080 N   0  0  0  0  0  0  0  0  0  0  0  0
    1.3796    4.6618   10.0994 C   0  0  0  0  0  0  0  0  0  0  0  0
    1.3154    3.9396    8.9630 N   0  0  0  0  0  0  0  0  0  0  0  0
    0.2438    7.3364   12.2927 N   0  0  0  0  0  0  0  0  0  0  0  0
    0.6199    8.0602   13.5030 C   0  0  0  0  0  0  0  0  0  0  0  0
    2.0135    8.6283   13.4124 C   0  0  0  0  0  0  0  0  0  0  0  0
    2.7595    8.5096   14.6685 C   0  0  0  0  0  0  0  0  0  0  0  0
    2.3053    9.0386   15.8661 C   0  0  0  0  0  0  0  0  0  0  0  0
    3.0697    8.8799   16.9981 C   0  0  0  0  0  0  0  0  0  0  0  0
    4.2859    8.2037   16.9757 C   0  0  0  0  0  0  0  0  0  0  0  0
    4.7322    7.6809   15.7859 C   0  0  0  0  0  0  0  0  0  0  0  0
    3.9655    7.8397   14.6493 C   0  0  0  0  0  0  0  0  0  0  0  0
    5.0705    8.0338   18.1077 O   0  0  0  0  0  0  0  0  0  0  0  0
    3.7573    4.1460   12.8306 N   0  0  0  0  0  0  0  0  0  0  0  0
  1  2  2  0
  2  3  1  0
  3  4  1  0
  4  5  2  0
  4  6  1  0
  6  7  2  0
  7  8  1  0
  8  9  1  0
  9 10  2  0
 10 11  1  0
 11 12  2  0
 12 13  1  0
 13 14  2  0
 11 15  1  0
 15 16  1  0
 16 17  1  0
 17 18  1  0
 18 19  2  0
 19 20  1  0
 20 21  2  0
 21 22  1  0
 22 23  2  0
 21 24  1  0
  9 25  1  0
  5  1  1  0
 14  6  1  0
 13  8  1  0
 23 18  1  0
M  END
$$$$
