
     RDKit          3D

 25 28  0  0  0  0  0  0  0  0999 V2000
    1.4159    0.5820    6.6578 C   0  0  0  0  0  0  0  0  0  0  0  0
    0.6399    1.6175    6.1823 C   0  0  0  0  0  0  0  0  0  0  0  0
    0.7406    2.5961    7.0370 O   0  0  0  0  0  0  0  0  0  0  0  0
    1.5202    2.3040    8.0479 C   0  0  0  0  0  0  0  0  0  0  0  0
    1.9740    1.0145    7.8388 C   0  0  0  0  0  0  0  0  0  0  0  0
    1.8580    3.1674    9.1912 C   0  0  0  0  0  0  0  0  0  0  0  0
    2.6702    2.8240   10.2071 N   0  0  0  0  0  0  0  0  0  0  0  0
    2.7769    3.8131   11.0817 N   0  0  0  0  0  0  0  0  0  0  0  0
    3.4634    3.9252   12.2292 C   0  0  0  0  0  0  0  0  0  0  0  0
    3.3772    5.0769   12.9213 N   0  0  0  0  0  0  0  0  0  0  0  0
    2.6296    6.1003   12.4931 C   0  0  0  0  0  0  0  0  0  0  0  0
    1.9541    5.9701   11.3496 N   0  0  0  0  0  0  0  0  0  0  0  0
    2.0059    4.8281   10.6112 C   0  0  0  0  0  0  0  0  0  0  0  0
    1.4505    4.4173    9.4538 N   0  0  0  0  0  0  0  0  0  0  0  0
    2.5570    7.2967   13.2297 N   0  0  0  0  0  0  0  0  0  0  0  0
    1.6744    8.3995   12.8623 C   0  0  0  0  0  0  0  0  0  0  0  0
    0.4018    8.3992   13.6709 C   0  0  0  0  0  0  0  0  0  0  0  0
    0.2428    9.6093   14.4825 C   0  0  0  0  0  0  0  0  0  0  0  0
   -0.1465    9.5776   15.8121 C   0  0  0  0  0  0  0  0  0  0  0  0
   -0.2702   10.7622   16.4994 C   0  0  0  0  0  0  0  0  0  0  0  0
   -0.0158   11.9914   15.8985 C   0  0  0  0  0  0  0  0  0  0  0  0
    0.3699   12.0179   14.5799 C   0  0  0  0  0  0  0  0  0  0  0  0
    0.4943   10.8294   13.8894 C   0  0  0  0  0  0  0  0  0  0  0  0
   -0.1353   13.1966   16.5762 O   0  0  0  0  0  0  0  0  0  0  0  0
    4.2650    2.8660   12.7149 N   0  0  0  0  0  0  0  0  0  0  0  0
  1  2  2  0
  2  3  1  0
  3  4  1  0
  4  5  2  0
  4  6  1  0
  6  7  2  0
  7  8  1  0
  8  9  1  0
  9 10  2  0
 10 11  1  0
 11 12  2  0
 12 13  1  0
 13 14  2  0
 11 15  1  0
 15 16  1  0
 16 17  1  0
 17 18  1  0
 18 19  2  0
 19 20  1  0
 20 21  2  0
 21 22  1  0
 22 23  2  0
 21 24  1  0
  9 25  1  0
  5  1  1  0
 14  6  1  0
 13  8  1  0
 23 18  1  0
M  END
$$$$
