
     RDKit          3D

 25 28  0  0  0  0  0  0  0  0999 V2000
    2.3670    0.1400    6.7420 C   0  0  0  0  0  0  0  0  0  0  0  0
    3.5421   -0.0056    7.4481 C   0  0  0  0  0  0  0  0  0  0  0  0
    3.5144    0.8606    8.4214 O   0  0  0  0  0  0  0  0  0  0  0  0
    2.4179    1.5764    8.4280 C   0  0  0  0  0  0  0  0  0  0  0  0
    1.6538    1.1410    7.3606 C   0  0  0  0  0  0  0  0  0  0  0  0
    2.0538    2.6401    9.3781 C   0  0  0  0  0  0  0  0  0  0  0  0
    2.7024    2.9082   10.5257 N   0  0  0  0  0  0  0  0  0  0  0  0
    2.1360    3.9223   11.1627 N   0  0  0  0  0  0  0  0  0  0  0  0
    2.4307    4.5297   12.3223 C   0  0  0  0  0  0  0  0  0  0  0  0
    1.6591    5.5569   12.7254 N   0  0  0  0  0  0  0  0  0  0  0  0
    0.6165    5.9795   12.0016 C   0  0  0  0  0  0  0  0  0  0  0  0
    0.3392    5.3629   10.8509 N   0  0  0  0  0  0  0  0  0  0  0  0
    1.0863    4.3199   10.3972 C   0  0  0  0  0  0  0  0  0  0  0  0
    1.0495    3.5256    9.3088 N   0  0  0  0  0  0  0  0  0  0  0  0
   -0.1742    7.0577   12.4393 N   0  0  0  0  0  0  0  0  0  0  0  0
    0.1554    7.8530   13.6178 C   0  0  0  0  0  0  0  0  0  0  0  0
    1.1595    8.9343   13.3079 C   0  0  0  0  0  0  0  0  0  0  0  0
    1.8200    9.4584   14.5068 C   0  0  0  0  0  0  0  0  0  0  0  0
    1.4653    9.0738   15.7900 C   0  0  0  0  0  0  0  0  0  0  0  0
    2.1392    9.6158   16.8592 C   0  0  0  0  0  0  0  0  0  0  0  0
    3.1667   10.5391   16.6897 C   0  0  0  0  0  0  0  0  0  0  0  0
    3.5148   10.9175   15.4155 C   0  0  0  0  0  0  0  0  0  0  0  0
    2.8390   10.3739   14.3419 C   0  0  0  0  0  0  0  0  0  0  0  0
    3.8577   11.0964   17.7564 O   0  0  0  0  0  0  0  0  0  0  0  0
    3.5246    4.1125   13.1157 N   0  0  0  0  0  0  0  0  0  0  0  0
  1  2  2  0
  2  3  1  0
  3  4  1  0
  4  5  2  0
  4  6  1  0
  6  7  2  0
  7  8  1  0
  8  9  1  0
  9 10  2  0
 10 11  1  0
 11 12  2  0
 12 13  1  0
 13 14  2  0
 11 15  1  0
 15 16  1  0
 16 17  1  0
 17 18  1  0
 18 19  2  0
 19 20  1  0
 20 21  2  0
 21 22  1  0
 22 23  2  0
 21 24  1  0
  9 25  1  0
  5  1  1  0
 14  6  1  0
 13  8  1  0
 23 18  1  0
M  END
$$$$
