
     RDKit          3D

 25 28  0  0  0  0  0  0  0  0999 V2000
    1.5339    0.5214    6.2411 C   0  0  0  0  0  0  0  0  0  0  0  0
    2.5060   -0.1014    6.9946 C   0  0  0  0  0  0  0  0  0  0  0  0
    2.7245    0.6508    8.0361 O   0  0  0  0  0  0  0  0  0  0  0  0
    1.9797    1.7278    8.0451 C   0  0  0  0  0  0  0  0  0  0  0  0
    1.1993    1.6796    6.9043 C   0  0  0  0  0  0  0  0  0  0  0  0
    1.9635    2.7916    9.0623 C   0  0  0  0  0  0  0  0  0  0  0  0
    2.8442    2.9104   10.0722 N   0  0  0  0  0  0  0  0  0  0  0  0
    2.5668    3.9688   10.8189 N   0  0  0  0  0  0  0  0  0  0  0  0
    3.1583    4.4749   11.9119 C   0  0  0  0  0  0  0  0  0  0  0  0
    2.6409    5.5868   12.4676 N   0  0  0  0  0  0  0  0  0  0  0  0
    1.5614    6.1906   11.9580 C   0  0  0  0  0  0  0  0  0  0  0  0
    0.9869    5.6725   10.8705 N   0  0  0  0  0  0  0  0  0  0  0  0
    1.4689    4.5508   10.2695 C   0  0  0  0  0  0  0  0  0  0  0  0
    1.1120    3.8186    9.1955 N   0  0  0  0  0  0  0  0  0  0  0  0
    1.0395    7.3543   12.5520 N   0  0  0  0  0  0  0  0  0  0  0  0
    1.7020    8.0452   13.6538 C   0  0  0  0  0  0  0  0  0  0  0  0
    1.2458    7.5353   14.9973 C   0  0  0  0  0  0  0  0  0  0  0  0
    2.1399    7.9301   16.0896 C   0  0  0  0  0  0  0  0  0  0  0  0
    2.7525    7.0133   16.9290 C   0  0  0  0  0  0  0  0  0  0  0  0
    3.5779    7.4719   17.9288 C   0  0  0  0  0  0  0  0  0  0  0  0
    3.8154    8.8295   18.1219 C   0  0  0  0  0  0  0  0  0  0  0  0
    3.2058    9.7348   17.2872 C   0  0  0  0  0  0  0  0  0  0  0  0
    2.3773    9.2754   16.2834 C   0  0  0  0  0  0  0  0  0  0  0  0
    4.6450    9.3105   19.1252 O   0  0  0  0  0  0  0  0  0  0  0  0
    4.3012    3.8658   12.4802 N   0  0  0  0  0  0  0  0  0  0  0  0
  1  2  2  0
  2  3  1  0
  3  4  1  0
  4  5  2  0
  4  6  1  0
  6  7  2  0
  7  8  1  0
  8  9  1  0
  9 10  2  0
 10 11  1  0
 11 12  2  0
 12 13  1  0
 13 14  2  0
 11 15  1  0
 15 16  1  0
 16 17  1  0
 17 18  1  0
 18 19  2  0
 19 20  1  0
 20 21  2  0
 21 22  1  0
 22 23  2  0
 21 24  1  0
  9 25  1  0
  5  1  1  0
 14  6  1  0
 13  8  1  0
 23 18  1  0
M  END
$$$$
