
     RDKit          3D

 25 28  0  0  0  0  0  0  0  0999 V2000
    1.9551    0.2150    6.1156 C   0  0  0  0  0  0  0  0  0  0  0  0
    3.1757   -0.1247    6.6590 C   0  0  0  0  0  0  0  0  0  0  0  0
    3.3917    0.6882    7.6545 O   0  0  0  0  0  0  0  0  0  0  0  0
    2.4172    1.5461    7.8252 C   0  0  0  0  0  0  0  0  0  0  0  0
    1.4732    1.2724    6.8523 C   0  0  0  0  0  0  0  0  0  0  0  0
    2.3281    2.6016    8.8472 C   0  0  0  0  0  0  0  0  0  0  0  0
    3.0895    2.6738    9.9539 N   0  0  0  0  0  0  0  0  0  0  0  0
    2.7723    3.7375   10.6770 N   0  0  0  0  0  0  0  0  0  0  0  0
    3.2536    4.2086   11.8376 C   0  0  0  0  0  0  0  0  0  0  0  0
    2.7228    5.3377   12.3438 N   0  0  0  0  0  0  0  0  0  0  0  0
    1.7367    5.9922   11.7203 C   0  0  0  0  0  0  0  0  0  0  0  0
    1.2712    5.5082   10.5670 N   0  0  0  0  0  0  0  0  0  0  0  0
    1.7717    4.3712   10.0114 C   0  0  0  0  0  0  0  0  0  0  0  0
    1.5114    3.6638    8.8940 N   0  0  0  0  0  0  0  0  0  0  0  0
    1.1993    7.1729   12.2647 N   0  0  0  0  0  0  0  0  0  0  0  0
    1.5321    7.6496   13.6034 C   0  0  0  0  0  0  0  0  0  0  0  0
    3.0125    7.8826   13.7691 C   0  0  0  0  0  0  0  0  0  0  0  0
    3.3619    8.4044   15.0935 C   0  0  0  0  0  0  0  0  0  0  0  0
    2.5860    9.3368   15.7634 C   0  0  0  0  0  0  0  0  0  0  0  0
    2.9887    9.7718   17.0043 C   0  0  0  0  0  0  0  0  0  0  0  0
    4.1525    9.3028   17.6063 C   0  0  0  0  0  0  0  0  0  0  0  0
    4.9187    8.3784   16.9382 C   0  0  0  0  0  0  0  0  0  0  0  0
    4.5153    7.9413   15.6928 C   0  0  0  0  0  0  0  0  0  0  0  0
    4.5744    9.7302   18.8575 O   0  0  0  0  0  0  0  0  0  0  0  0
    4.2956    3.5456   12.5268 N   0  0  0  0  0  0  0  0  0  0  0  0
  1  2  2  0
  2  3  1  0
  3  4  1  0
  4  5  2  0
  4  6  1  0
  6  7  2  0
  7  8  1  0
  8  9  1  0
  9 10  2  0
 10 11  1  0
 11 12  2  0
 12 13  1  0
 13 14  2  0
 11 15  1  0
 15 16  1  0
 16 17  1  0
 17 18  1  0
 18 19  2  0
 19 20  1  0
 20 21  2  0
 21 22  1  0
 22 23  2  0
 21 24  1  0
  9 25  1  0
  5  1  1  0
 14  6  1  0
 13  8  1  0
 23 18  1  0
M  END
$$$$
