
     RDKit          3D

 25 28  0  0  0  0  0  0  0  0999 V2000
    1.9833    0.5020    6.0191 C   0  0  0  0  0  0  0  0  0  0  0  0
    3.1896    0.1689    6.5974 C   0  0  0  0  0  0  0  0  0  0  0  0
    3.3462    0.9455    7.6321 O   0  0  0  0  0  0  0  0  0  0  0  0
    2.3449    1.7732    7.7972 C   0  0  0  0  0  0  0  0  0  0  0  0
    1.4469    1.5174    6.7770 C   0  0  0  0  0  0  0  0  0  0  0  0
    2.1896    2.7841    8.8558 C   0  0  0  0  0  0  0  0  0  0  0  0
    2.9355    2.8558    9.9731 N   0  0  0  0  0  0  0  0  0  0  0  0
    2.5550    3.8737   10.7306 N   0  0  0  0  0  0  0  0  0  0  0  0
    2.9991    4.3266   11.9130 C   0  0  0  0  0  0  0  0  0  0  0  0
    2.4039    5.4065   12.4536 N   0  0  0  0  0  0  0  0  0  0  0  0
    1.3902    6.0302   11.8430 C   0  0  0  0  0  0  0  0  0  0  0  0
    0.9623    5.5651   10.6675 N   0  0  0  0  0  0  0  0  0  0  0  0
    1.5282    4.4775   10.0769 C   0  0  0  0  0  0  0  0  0  0  0  0
    1.3169    3.7989    8.9316 N   0  0  0  0  0  0  0  0  0  0  0  0
    0.7852    7.1599   12.4236 N   0  0  0  0  0  0  0  0  0  0  0  0
    1.1841    7.6905   13.7235 C   0  0  0  0  0  0  0  0  0  0  0  0
    2.5599    8.3062   13.6851 C   0  0  0  0  0  0  0  0  0  0  0  0
    3.1219    8.5276   15.0206 C   0  0  0  0  0  0  0  0  0  0  0  0
    4.4187    8.9705   15.2271 C   0  0  0  0  0  0  0  0  0  0  0  0
    4.8644    9.1522   16.5152 C   0  0  0  0  0  0  0  0  0  0  0  0
    4.0511    8.9042   17.6170 C   0  0  0  0  0  0  0  0  0  0  0  0
    2.7660    8.4652   17.4073 C   0  0  0  0  0  0  0  0  0  0  0  0
    2.3179    8.2826   16.1147 C   0  0  0  0  0  0  0  0  0  0  0  0
    4.4835    9.0820   18.9236 O   0  0  0  0  0  0  0  0  0  0  0  0
    4.0685    3.6950   12.5896 N   0  0  0  0  0  0  0  0  0  0  0  0
  1  2  2  0
  2  3  1  0
  3  4  1  0
  4  5  2  0
  4  6  1  0
  6  7  2  0
  7  8  1  0
  8  9  1  0
  9 10  2  0
 10 11  1  0
 11 12  2  0
 12 13  1  0
 13 14  2  0
 11 15  1  0
 15 16  1  0
 16 17  1  0
 17 18  1  0
 18 19  2  0
 19 20  1  0
 20 21  2  0
 21 22  1  0
 22 23  2  0
 21 24  1  0
  9 25  1  0
  5  1  1  0
 14  6  1  0
 13  8  1  0
 23 18  1  0
M  END
$$$$
