
     RDKit          3D

 25 28  0  0  0  0  0  0  0  0999 V2000
    2.3310    0.4046    6.0430 C   0  0  0  0  0  0  0  0  0  0  0  0
    3.4868    0.0487    6.7048 C   0  0  0  0  0  0  0  0  0  0  0  0
    3.5779    0.8137    7.7558 O   0  0  0  0  0  0  0  0  0  0  0  0
    2.5789    1.6545    7.8553 C   0  0  0  0  0  0  0  0  0  0  0  0
    1.7547    1.4210    6.7696 C   0  0  0  0  0  0  0  0  0  0  0  0
    2.3605    2.6582    8.9096 C   0  0  0  0  0  0  0  0  0  0  0  0
    3.0596    2.7414   10.0559 N   0  0  0  0  0  0  0  0  0  0  0  0
    2.6280    3.7485   10.8004 N   0  0  0  0  0  0  0  0  0  0  0  0
    3.0152    4.2064   12.0008 C   0  0  0  0  0  0  0  0  0  0  0  0
    2.3765    5.2718   12.5202 N   0  0  0  0  0  0  0  0  0  0  0  0
    1.3751    5.8765   11.8713 C   0  0  0  0  0  0  0  0  0  0  0  0
    1.0042    5.4067   10.6785 N   0  0  0  0  0  0  0  0  0  0  0  0
    1.6158    4.3332   10.1080 C   0  0  0  0  0  0  0  0  0  0  0  0
    1.4644    3.6545    8.9533 N   0  0  0  0  0  0  0  0  0  0  0  0
    0.7241    6.9912   12.4304 N   0  0  0  0  0  0  0  0  0  0  0  0
    1.1124    7.5740   13.7110 C   0  0  0  0  0  0  0  0  0  0  0  0
    2.4453    8.2743   13.6328 C   0  0  0  0  0  0  0  0  0  0  0  0
    2.9720    8.6446   14.9496 C   0  0  0  0  0  0  0  0  0  0  0  0
    2.6458    9.8330   15.5833 C   0  0  0  0  0  0  0  0  0  0  0  0
    3.1856   10.0998   16.8196 C   0  0  0  0  0  0  0  0  0  0  0  0
    4.0497    9.2112   17.4524 C   0  0  0  0  0  0  0  0  0  0  0  0
    4.3703    8.0340   16.8202 C   0  0  0  0  0  0  0  0  0  0  0  0
    3.8289    7.7655   15.5794 C   0  0  0  0  0  0  0  0  0  0  0  0
    4.6038    9.4635   18.6995 O   0  0  0  0  0  0  0  0  0  0  0  0
    4.0697    3.5946   12.7179 N   0  0  0  0  0  0  0  0  0  0  0  0
  1  2  2  0
  2  3  1  0
  3  4  1  0
  4  5  2  0
  4  6  1  0
  6  7  2  0
  7  8  1  0
  8  9  1  0
  9 10  2  0
 10 11  1  0
 11 12  2  0
 12 13  1  0
 13 14  2  0
 11 15  1  0
 15 16  1  0
 16 17  1  0
 17 18  1  0
 18 19  2  0
 19 20  1  0
 20 21  2  0
 21 22  1  0
 22 23  2  0
 21 24  1  0
  9 25  1  0
  5  1  1  0
 14  6  1  0
 13  8  1  0
 23 18  1  0
M  END
$$$$
