
     RDKit          3D

 25 28  0  0  0  0  0  0  0  0999 V2000
    1.7319    0.3220    6.4801 C   0  0  0  0  0  0  0  0  0  0  0  0
    3.0304    0.1048    6.8894 C   0  0  0  0  0  0  0  0  0  0  0  0
    3.2822    0.9627    7.8375 O   0  0  0  0  0  0  0  0  0  0  0  0
    2.2604    1.7387    8.0994 C   0  0  0  0  0  0  0  0  0  0  0  0
    1.2426    1.3559    7.2449 C   0  0  0  0  0  0  0  0  0  0  0  0
    2.1915    2.8129    9.1034 C   0  0  0  0  0  0  0  0  0  0  0  0
    2.9872    2.9153   10.1833 N   0  0  0  0  0  0  0  0  0  0  0  0
    2.6807    3.9892   10.8957 N   0  0  0  0  0  0  0  0  0  0  0  0
    3.1933    4.4884   12.0309 C   0  0  0  0  0  0  0  0  0  0  0  0
    2.6656    5.6211   12.5323 N   0  0  0  0  0  0  0  0  0  0  0  0
    1.6522    6.2520   11.9286 C   0  0  0  0  0  0  0  0  0  0  0  0
    1.1557    5.7403   10.8004 N   0  0  0  0  0  0  0  0  0  0  0  0
    1.6516    4.5985   10.2509 C   0  0  0  0  0  0  0  0  0  0  0  0
    1.3640    3.8664    9.1562 N   0  0  0  0  0  0  0  0  0  0  0  0
    1.1185    7.4369   12.4674 N   0  0  0  0  0  0  0  0  0  0  0  0
    1.7306    8.1415   13.5895 C   0  0  0  0  0  0  0  0  0  0  0  0
    1.4779    7.4432   14.9017 C   0  0  0  0  0  0  0  0  0  0  0  0
    2.2948    7.9752   15.9962 C   0  0  0  0  0  0  0  0  0  0  0  0
    3.6346    8.2966   15.8475 C   0  0  0  0  0  0  0  0  0  0  0  0
    4.3259    8.7914   16.9283 C   0  0  0  0  0  0  0  0  0  0  0  0
    3.7191    8.9786   18.1667 C   0  0  0  0  0  0  0  0  0  0  0  0
    2.3904    8.6585   18.3094 C   0  0  0  0  0  0  0  0  0  0  0  0
    1.6959    8.1618   17.2251 C   0  0  0  0  0  0  0  0  0  0  0  0
    4.4006    9.4767   19.2682 O   0  0  0  0  0  0  0  0  0  0  0  0
    4.2648    3.8508   12.6986 N   0  0  0  0  0  0  0  0  0  0  0  0
  1  2  2  0
  2  3  1  0
  3  4  1  0
  4  5  2  0
  4  6  1  0
  6  7  2  0
  7  8  1  0
  8  9  1  0
  9 10  2  0
 10 11  1  0
 11 12  2  0
 12 13  1  0
 13 14  2  0
 11 15  1  0
 15 16  1  0
 16 17  1  0
 17 18  1  0
 18 19  2  0
 19 20  1  0
 20 21  2  0
 21 22  1  0
 22 23  2  0
 21 24  1  0
  9 25  1  0
  5  1  1  0
 14  6  1  0
 13  8  1  0
 23 18  1  0
M  END
$$$$
