
     RDKit          3D

 25 28  0  0  0  0  0  0  0  0999 V2000
    1.4710    0.0374    6.4666 C   0  0  0  0  0  0  0  0  0  0  0  0
    2.6286   -0.4070    7.0692 C   0  0  0  0  0  0  0  0  0  0  0  0
    2.8588    0.3783    8.0834 O   0  0  0  0  0  0  0  0  0  0  0  0
    1.9517    1.3139    8.2124 C   0  0  0  0  0  0  0  0  0  0  0  0
    1.0408    1.1268    7.1888 C   0  0  0  0  0  0  0  0  0  0  0  0
    1.8971    2.3665    9.2400 C   0  0  0  0  0  0  0  0  0  0  0  0
    2.6656    2.4119   10.3432 N   0  0  0  0  0  0  0  0  0  0  0  0
    2.3818    3.4804   11.0729 N   0  0  0  0  0  0  0  0  0  0  0  0
    2.8816    3.9322   12.2334 C   0  0  0  0  0  0  0  0  0  0  0  0
    2.3852    5.0732   12.7475 N   0  0  0  0  0  0  0  0  0  0  0  0
    1.4148    5.7581   12.1321 C   0  0  0  0  0  0  0  0  0  0  0  0
    0.9304    5.2931   10.9787 N   0  0  0  0  0  0  0  0  0  0  0  0
    1.3961    4.1452   10.4153 C   0  0  0  0  0  0  0  0  0  0  0  0
    1.1107    3.4509    9.2958 N   0  0  0  0  0  0  0  0  0  0  0  0
    0.9133    6.9507   12.6847 N   0  0  0  0  0  0  0  0  0  0  0  0
    1.2134    7.3784   14.0475 C   0  0  0  0  0  0  0  0  0  0  0  0
    2.6951    7.5365   14.2775 C   0  0  0  0  0  0  0  0  0  0  0  0
    3.0059    8.2289   15.5314 C   0  0  0  0  0  0  0  0  0  0  0  0
    2.0835    9.0118   16.2070 C   0  0  0  0  0  0  0  0  0  0  0  0
    2.4602    9.6254   17.3787 C   0  0  0  0  0  0  0  0  0  0  0  0
    3.7406    9.4828   17.9051 C   0  0  0  0  0  0  0  0  0  0  0  0
    4.6519    8.7055   17.2317 C   0  0  0  0  0  0  0  0  0  0  0  0
    4.2745    8.0894   16.0557 C   0  0  0  0  0  0  0  0  0  0  0  0
    4.1384   10.0942   19.0858 O   0  0  0  0  0  0  0  0  0  0  0  0
    3.9079    3.2369   12.9142 N   0  0  0  0  0  0  0  0  0  0  0  0
  1  2  2  0
  2  3  1  0
  3  4  1  0
  4  5  2  0
  4  6  1  0
  6  7  2  0
  7  8  1  0
  8  9  1  0
  9 10  2  0
 10 11  1  0
 11 12  2  0
 12 13  1  0
 13 14  2  0
 11 15  1  0
 15 16  1  0
 16 17  1  0
 17 18  1  0
 18 19  2  0
 19 20  1  0
 20 21  2  0
 21 22  1  0
 22 23  2  0
 21 24  1  0
  9 25  1  0
  5  1  1  0
 14  6  1  0
 13  8  1  0
 23 18  1  0
M  END
$$$$
