
     RDKit          3D

 25 28  0  0  0  0  0  0  0  0999 V2000
    1.9643   -0.0825    6.6527 C   0  0  0  0  0  0  0  0  0  0  0  0
    1.3761    0.9355    5.9328 C   0  0  0  0  0  0  0  0  0  0  0  0
    1.3227    1.9768    6.7145 O   0  0  0  0  0  0  0  0  0  0  0  0
    1.8264    1.7430    7.9005 C   0  0  0  0  0  0  0  0  0  0  0  0
    2.2501    0.4266    7.8986 C   0  0  0  0  0  0  0  0  0  0  0  0
    1.9293    2.6854    9.0265 C   0  0  0  0  0  0  0  0  0  0  0  0
    1.3246    3.8855    9.0892 N   0  0  0  0  0  0  0  0  0  0  0  0
    1.6095    4.4990   10.2282 N   0  0  0  0  0  0  0  0  0  0  0  0
    1.2403    5.6911   10.7212 C   0  0  0  0  0  0  0  0  0  0  0  0
    1.6974    6.0560   11.9339 N   0  0  0  0  0  0  0  0  0  0  0  0
    2.5031    5.2632   12.6494 C   0  0  0  0  0  0  0  0  0  0  0  0
    2.8594    4.0812   12.1425 N   0  0  0  0  0  0  0  0  0  0  0  0
    2.4262    3.6636   10.9219 C   0  0  0  0  0  0  0  0  0  0  0  0
    2.6123    2.5583   10.1732 N   0  0  0  0  0  0  0  0  0  0  0  0
    2.9659    5.6622   13.9166 N   0  0  0  0  0  0  0  0  0  0  0  0
    2.7364    6.9981   14.4580 C   0  0  0  0  0  0  0  0  0  0  0  0
    1.2842    7.2326   14.7887 C   0  0  0  0  0  0  0  0  0  0  0  0
    0.9642    8.6510   14.9732 C   0  0  0  0  0  0  0  0  0  0  0  0
   -0.3107    9.1640   14.7947 C   0  0  0  0  0  0  0  0  0  0  0  0
   -0.5220   10.5087   14.9898 C   0  0  0  0  0  0  0  0  0  0  0  0
    0.5071   11.3689   15.3611 C   0  0  0  0  0  0  0  0  0  0  0  0
    1.7696   10.8557   15.5368 C   0  0  0  0  0  0  0  0  0  0  0  0
    1.9825    9.5062   15.3412 C   0  0  0  0  0  0  0  0  0  0  0  0
    0.3125   12.7282   15.5624 O   0  0  0  0  0  0  0  0  0  0  0  0
    0.3897    6.5573    9.9955 N   0  0  0  0  0  0  0  0  0  0  0  0
  1  2  2  0
  2  3  1  0
  3  4  1  0
  4  5  2  0
  4  6  1  0
  6  7  2  0
  7  8  1  0
  8  9  1  0
  9 10  2  0
 10 11  1  0
 11 12  2  0
 12 13  1  0
 13 14  2  0
 11 15  1  0
 15 16  1  0
 16 17  1  0
 17 18  1  0
 18 19  2  0
 19 20  1  0
 20 21  2  0
 21 22  1  0
 22 23  2  0
 21 24  1  0
  9 25  1  0
  5  1  1  0
 14  6  1  0
 13  8  1  0
 23 18  1  0
M  END
$$$$
