
     RDKit          3D

 25 28  0  0  0  0  0  0  0  0999 V2000
    5.6988    5.8065   15.5178 C   0  0  0  0  0  0  0  0  0  0  0  0
    6.3318    4.5996   15.3103 C   0  0  0  0  0  0  0  0  0  0  0  0
    5.7188    4.0099   14.3230 O   0  0  0  0  0  0  0  0  0  0  0  0
    4.7260    4.7206   13.8497 C   0  0  0  0  0  0  0  0  0  0  0  0
    4.6820    5.8852   14.5943 C   0  0  0  0  0  0  0  0  0  0  0  0
    3.8237    4.3647   12.7425 C   0  0  0  0  0  0  0  0  0  0  0  0
    3.8133    3.1818   12.1021 N   0  0  0  0  0  0  0  0  0  0  0  0
    2.8888    3.1662   11.1534 N   0  0  0  0  0  0  0  0  0  0  0  0
    2.5210    2.2206   10.2753 C   0  0  0  0  0  0  0  0  0  0  0  0
    1.5267    2.4967    9.4105 N   0  0  0  0  0  0  0  0  0  0  0  0
    0.9049    3.6811    9.4088 C   0  0  0  0  0  0  0  0  0  0  0  0
    1.2846    4.6090   10.2897 N   0  0  0  0  0  0  0  0  0  0  0  0
    2.2836    4.3823   11.1855 C   0  0  0  0  0  0  0  0  0  0  0  0
    2.8669    5.1040   12.1631 N   0  0  0  0  0  0  0  0  0  0  0  0
   -0.1348    3.9473    8.4991 N   0  0  0  0  0  0  0  0  0  0  0  0
   -0.7949    5.2459    8.4103 C   0  0  0  0  0  0  0  0  0  0  0  0
   -2.0534    5.2987    9.2390 C   0  0  0  0  0  0  0  0  0  0  0  0
   -2.1639    6.5285   10.0287 C   0  0  0  0  0  0  0  0  0  0  0  0
   -3.0156    7.5672    9.6881 C   0  0  0  0  0  0  0  0  0  0  0  0
   -3.0563    8.6858   10.4871 C   0  0  0  0  0  0  0  0  0  0  0  0
   -2.2672    8.8045   11.6273 C   0  0  0  0  0  0  0  0  0  0  0  0
   -1.4242    7.7720   11.9610 C   0  0  0  0  0  0  0  0  0  0  0  0
   -1.3827    6.6491   11.1596 C   0  0  0  0  0  0  0  0  0  0  0  0
   -2.2951    9.9253   12.4452 O   0  0  0  0  0  0  0  0  0  0  0  0
    3.1537    0.9560   10.2459 N   0  0  0  0  0  0  0  0  0  0  0  0
  1  2  2  0
  2  3  1  0
  3  4  1  0
  4  5  2  0
  4  6  1  0
  6  7  2  0
  7  8  1  0
  8  9  1  0
  9 10  2  0
 10 11  1  0
 11 12  2  0
 12 13  1  0
 13 14  2  0
 11 15  1  0
 15 16  1  0
 16 17  1  0
 17 18  1  0
 18 19  2  0
 19 20  1  0
 20 21  2  0
 21 22  1  0
 22 23  2  0
 21 24  1  0
  9 25  1  0
  5  1  1  0
 14  6  1  0
 13  8  1  0
 23 18  1  0
M  END
$$$$
