
     RDKit          3D

 25 28  0  0  0  0  0  0  0  0999 V2000
    1.8712    0.1652    6.6205 C   0  0  0  0  0  0  0  0  0  0  0  0
    3.1120   -0.1122    7.1533 C   0  0  0  0  0  0  0  0  0  0  0  0
    3.3273    0.7593    8.0980 O   0  0  0  0  0  0  0  0  0  0  0  0
    2.3337    1.5997    8.2443 C   0  0  0  0  0  0  0  0  0  0  0  0
    1.3767    1.2486    7.3097 C   0  0  0  0  0  0  0  0  0  0  0  0
    2.2379    2.7069    9.2094 C   0  0  0  0  0  0  0  0  0  0  0  0
    3.0692    2.9017   10.2490 N   0  0  0  0  0  0  0  0  0  0  0  0
    2.7246    3.9822   10.9335 N   0  0  0  0  0  0  0  0  0  0  0  0
    3.2506    4.5573   12.0258 C   0  0  0  0  0  0  0  0  0  0  0  0
    2.6729    5.6743   12.5069 N   0  0  0  0  0  0  0  0  0  0  0  0
    1.5975    6.2165   11.9247 C   0  0  0  0  0  0  0  0  0  0  0  0
    1.0886    5.6302   10.8392 N   0  0  0  0  0  0  0  0  0  0  0  0
    1.6332    4.5002   10.3117 C   0  0  0  0  0  0  0  0  0  0  0  0
    1.3480    3.7085    9.2587 N   0  0  0  0  0  0  0  0  0  0  0  0
    1.0121    7.3867   12.4415 N   0  0  0  0  0  0  0  0  0  0  0  0
    1.6313    8.1809   13.4979 C   0  0  0  0  0  0  0  0  0  0  0  0
    1.5769    7.4851   14.8344 C   0  0  0  0  0  0  0  0  0  0  0  0
    2.4036    8.1409   15.8517 C   0  0  0  0  0  0  0  0  0  0  0  0
    2.6655    7.5736   17.0885 C   0  0  0  0  0  0  0  0  0  0  0  0
    3.4529    8.2590   17.9837 C   0  0  0  0  0  0  0  0  0  0  0  0
    3.9941    9.5055   17.6833 C   0  0  0  0  0  0  0  0  0  0  0  0
    3.7316   10.0642   16.4557 C   0  0  0  0  0  0  0  0  0  0  0  0
    2.9415    9.3768   15.5567 C   0  0  0  0  0  0  0  0  0  0  0  0
    4.7906   10.2116   18.5738 O   0  0  0  0  0  0  0  0  0  0  0  0
    4.3870    4.0147   12.6696 N   0  0  0  0  0  0  0  0  0  0  0  0
  1  2  2  0
  2  3  1  0
  3  4  1  0
  4  5  2  0
  4  6  1  0
  6  7  2  0
  7  8  1  0
  8  9  1  0
  9 10  2  0
 10 11  1  0
 11 12  2  0
 12 13  1  0
 13 14  2  0
 11 15  1  0
 15 16  1  0
 16 17  1  0
 17 18  1  0
 18 19  2  0
 19 20  1  0
 20 21  2  0
 21 22  1  0
 22 23  2  0
 21 24  1  0
  9 25  1  0
  5  1  1  0
 14  6  1  0
 13  8  1  0
 23 18  1  0
M  END
$$$$
