
     RDKit          3D

 25 28  0  0  0  0  0  0  0  0999 V2000
    2.0475    0.0830    6.3551 C   0  0  0  0  0  0  0  0  0  0  0  0
    3.1414   -0.3369    7.0817 C   0  0  0  0  0  0  0  0  0  0  0  0
    3.2274    0.4367    8.1268 O   0  0  0  0  0  0  0  0  0  0  0  0
    2.2818    1.3420    8.1630 C   0  0  0  0  0  0  0  0  0  0  0  0
    1.5020    1.1457    7.0379 C   0  0  0  0  0  0  0  0  0  0  0  0
    2.0749    2.3738    9.1921 C   0  0  0  0  0  0  0  0  0  0  0  0
    2.7695    2.4725   10.3400 N   0  0  0  0  0  0  0  0  0  0  0  0
    2.3510    3.5040   11.0581 N   0  0  0  0  0  0  0  0  0  0  0  0
    2.7397    3.9836   12.2496 C   0  0  0  0  0  0  0  0  0  0  0  0
    2.1163    5.0715   12.7402 N   0  0  0  0  0  0  0  0  0  0  0  0
    1.1286    5.6773   12.0717 C   0  0  0  0  0  0  0  0  0  0  0  0
    0.7559    5.1856   10.8883 N   0  0  0  0  0  0  0  0  0  0  0  0
    1.3523    4.0889   10.3466 C   0  0  0  0  0  0  0  0  0  0  0  0
    1.1954    3.3856    9.2074 N   0  0  0  0  0  0  0  0  0  0  0  0
    0.4934    6.8156   12.6008 N   0  0  0  0  0  0  0  0  0  0  0  0
    0.8957    7.4317   13.8612 C   0  0  0  0  0  0  0  0  0  0  0  0
    2.2269    8.1310   13.7496 C   0  0  0  0  0  0  0  0  0  0  0  0
    2.9143    8.2555   15.0381 C   0  0  0  0  0  0  0  0  0  0  0  0
    2.2444    8.4854   16.2291 C   0  0  0  0  0  0  0  0  0  0  0  0
    2.9692    8.5879   17.3933 C   0  0  0  0  0  0  0  0  0  0  0  0
    4.3556    8.4676   17.4097 C   0  0  0  0  0  0  0  0  0  0  0  0
    5.0156    8.2398   16.2262 C   0  0  0  0  0  0  0  0  0  0  0  0
    4.2889    8.1367   15.0575 C   0  0  0  0  0  0  0  0  0  0  0  0
    5.1034    8.5682   18.5745 O   0  0  0  0  0  0  0  0  0  0  0  0
    3.7801    3.3715   12.9866 N   0  0  0  0  0  0  0  0  0  0  0  0
  1  2  2  0
  2  3  1  0
  3  4  1  0
  4  5  2  0
  4  6  1  0
  6  7  2  0
  7  8  1  0
  8  9  1  0
  9 10  2  0
 10 11  1  0
 11 12  2  0
 12 13  1  0
 13 14  2  0
 11 15  1  0
 15 16  1  0
 16 17  1  0
 17 18  1  0
 18 19  2  0
 19 20  1  0
 20 21  2  0
 21 22  1  0
 22 23  2  0
 21 24  1  0
  9 25  1  0
  5  1  1  0
 14  6  1  0
 13  8  1  0
 23 18  1  0
M  END
$$$$
