
     RDKit          3D

 25 28  0  0  0  0  0  0  0  0999 V2000
    1.7978    0.2964    6.2126 C   0  0  0  0  0  0  0  0  0  0  0  0
    2.9598   -0.1224    6.8249 C   0  0  0  0  0  0  0  0  0  0  0  0
    3.1585    0.6613    7.8470 O   0  0  0  0  0  0  0  0  0  0  0  0
    2.2262    1.5723    7.9723 C   0  0  0  0  0  0  0  0  0  0  0  0
    1.3318    1.3691    6.9373 C   0  0  0  0  0  0  0  0  0  0  0  0
    2.1332    2.6158    9.0064 C   0  0  0  0  0  0  0  0  0  0  0  0
    2.8956    2.6791   10.1129 N   0  0  0  0  0  0  0  0  0  0  0  0
    2.5742    3.7330   10.8484 N   0  0  0  0  0  0  0  0  0  0  0  0
    3.0545    4.1933   12.0137 C   0  0  0  0  0  0  0  0  0  0  0  0
    2.5189    5.3141   12.5332 N   0  0  0  0  0  0  0  0  0  0  0  0
    1.5288    5.9707   11.9183 C   0  0  0  0  0  0  0  0  0  0  0  0
    1.0643    5.4976   10.7601 N   0  0  0  0  0  0  0  0  0  0  0  0
    1.5696    4.3694   10.1912 C   0  0  0  0  0  0  0  0  0  0  0  0
    1.3114    3.6734    9.0661 N   0  0  0  0  0  0  0  0  0  0  0  0
    0.9864    7.1426   12.4766 N   0  0  0  0  0  0  0  0  0  0  0  0
    1.3906    7.6578   13.7810 C   0  0  0  0  0  0  0  0  0  0  0  0
    2.7975    8.1995   13.7641 C   0  0  0  0  0  0  0  0  0  0  0  0
    3.2808    8.5705   15.0972 C   0  0  0  0  0  0  0  0  0  0  0  0
    3.6052    9.8722   15.4445 C   0  0  0  0  0  0  0  0  0  0  0  0
    4.0508   10.1312   16.7194 C   0  0  0  0  0  0  0  0  0  0  0  0
    4.1853    9.1242   17.6705 C   0  0  0  0  0  0  0  0  0  0  0  0
    3.8625    7.8349   17.3216 C   0  0  0  0  0  0  0  0  0  0  0  0
    3.4152    7.5742   16.0422 C   0  0  0  0  0  0  0  0  0  0  0  0
    4.6331    9.3668   18.9615 O   0  0  0  0  0  0  0  0  0  0  0  0
    4.1006    3.5277   12.6941 N   0  0  0  0  0  0  0  0  0  0  0  0
  1  2  2  0
  2  3  1  0
  3  4  1  0
  4  5  2  0
  4  6  1  0
  6  7  2  0
  7  8  1  0
  8  9  1  0
  9 10  2  0
 10 11  1  0
 11 12  2  0
 12 13  1  0
 13 14  2  0
 11 15  1  0
 15 16  1  0
 16 17  1  0
 17 18  1  0
 18 19  2  0
 19 20  1  0
 20 21  2  0
 21 22  1  0
 22 23  2  0
 21 24  1  0
  9 25  1  0
  5  1  1  0
 14  6  1  0
 13  8  1  0
 23 18  1  0
M  END
$$$$
