
     RDKit          3D

 25 28  0  0  0  0  0  0  0  0999 V2000
    2.2450    0.1730    6.3503 C   0  0  0  0  0  0  0  0  0  0  0  0
    3.4506   -0.0933    6.9638 C   0  0  0  0  0  0  0  0  0  0  0  0
    3.5487    0.7132    7.9827 O   0  0  0  0  0  0  0  0  0  0  0  0
    2.5088    1.4997    8.1049 C   0  0  0  0  0  0  0  0  0  0  0  0
    1.6472    1.1811    7.0711 C   0  0  0  0  0  0  0  0  0  0  0  0
    2.2847    2.5270    9.1350 C   0  0  0  0  0  0  0  0  0  0  0  0
    3.0286    2.6859   10.2445 N   0  0  0  0  0  0  0  0  0  0  0  0
    2.5779    3.6950   10.9749 N   0  0  0  0  0  0  0  0  0  0  0  0
    2.9932    4.2137   12.1407 C   0  0  0  0  0  0  0  0  0  0  0  0
    2.3228    5.2625   12.6540 N   0  0  0  0  0  0  0  0  0  0  0  0
    1.2631    5.7920   12.0327 C   0  0  0  0  0  0  0  0  0  0  0  0
    0.8649    5.2624   10.8742 N   0  0  0  0  0  0  0  0  0  0  0  0
    1.5064    4.2025   10.3113 C   0  0  0  0  0  0  0  0  0  0  0  0
    1.3400    3.4769    9.1875 N   0  0  0  0  0  0  0  0  0  0  0  0
    0.5795    6.8907   12.5847 N   0  0  0  0  0  0  0  0  0  0  0  0
    0.9935    7.5376   13.8257 C   0  0  0  0  0  0  0  0  0  0  0  0
    2.3036    8.2682   13.6731 C   0  0  0  0  0  0  0  0  0  0  0  0
    2.9896    8.4799   14.9510 C   0  0  0  0  0  0  0  0  0  0  0  0
    4.3422    8.2362   15.1282 C   0  0  0  0  0  0  0  0  0  0  0  0
    4.9049    8.4631   16.3622 C   0  0  0  0  0  0  0  0  0  0  0  0
    4.1554    8.9302   17.4379 C   0  0  0  0  0  0  0  0  0  0  0  0
    2.8146    9.1704   17.2575 C   0  0  0  0  0  0  0  0  0  0  0  0
    2.2491    8.9429   16.0192 C   0  0  0  0  0  0  0  0  0  0  0  0
    4.7060    9.1649   18.6900 O   0  0  0  0  0  0  0  0  0  0  0  0
    4.1094    3.6823   12.8278 N   0  0  0  0  0  0  0  0  0  0  0  0
  1  2  2  0
  2  3  1  0
  3  4  1  0
  4  5  2  0
  4  6  1  0
  6  7  2  0
  7  8  1  0
  8  9  1  0
  9 10  2  0
 10 11  1  0
 11 12  2  0
 12 13  1  0
 13 14  2  0
 11 15  1  0
 15 16  1  0
 16 17  1  0
 17 18  1  0
 18 19  2  0
 19 20  1  0
 20 21  2  0
 21 22  1  0
 22 23  2  0
 21 24  1  0
  9 25  1  0
  5  1  1  0
 14  6  1  0
 13  8  1  0
 23 18  1  0
M  END
$$$$
