
     RDKit          3D

 25 28  0  0  0  0  0  0  0  0999 V2000
    1.2822    0.5269    6.0883 C   0  0  0  0  0  0  0  0  0  0  0  0
    0.1459    1.3049    6.0246 C   0  0  0  0  0  0  0  0  0  0  0  0
    0.1997    2.1444    7.0199 O   0  0  0  0  0  0  0  0  0  0  0  0
    1.2782    1.9950    7.7475 C   0  0  0  0  0  0  0  0  0  0  0  0
    2.0004    0.9621    7.1782 C   0  0  0  0  0  0  0  0  0  0  0  0
    1.6622    2.7667    8.9407 C   0  0  0  0  0  0  0  0  0  0  0  0
    0.9248    3.7417    9.5023 N   0  0  0  0  0  0  0  0  0  0  0  0
    1.5379    4.2465   10.5625 N   0  0  0  0  0  0  0  0  0  0  0  0
    1.1909    5.2175   11.4211 C   0  0  0  0  0  0  0  0  0  0  0  0
    2.0347    5.5209   12.4255 N   0  0  0  0  0  0  0  0  0  0  0  0
    3.1989    4.8811   12.5832 C   0  0  0  0  0  0  0  0  0  0  0  0
    3.5267    3.9182   11.7193 N   0  0  0  0  0  0  0  0  0  0  0  0
    2.7107    3.5720   10.6867 C   0  0  0  0  0  0  0  0  0  0  0  0
    2.7718    2.6700    9.6868 N   0  0  0  0  0  0  0  0  0  0  0  0
    4.0641    5.2110   13.6424 N   0  0  0  0  0  0  0  0  0  0  0  0
    3.6532    6.0418   14.7699 C   0  0  0  0  0  0  0  0  0  0  0  0
    3.6964    7.5113   14.4352 C   0  0  0  0  0  0  0  0  0  0  0  0
    3.3349    8.3646   15.5707 C   0  0  0  0  0  0  0  0  0  0  0  0
    4.2536    8.7821   16.5205 C   0  0  0  0  0  0  0  0  0  0  0  0
    3.8276    9.5831   17.5539 C   0  0  0  0  0  0  0  0  0  0  0  0
    2.5009    9.9864   17.6734 C   0  0  0  0  0  0  0  0  0  0  0  0
    1.5935    9.5699   16.7293 C   0  0  0  0  0  0  0  0  0  0  0  0
    2.0203    8.7659   15.6918 C   0  0  0  0  0  0  0  0  0  0  0  0
    2.0530   10.7943   18.7090 O   0  0  0  0  0  0  0  0  0  0  0  0
   -0.0313    5.9168   11.2881 N   0  0  0  0  0  0  0  0  0  0  0  0
  1  2  2  0
  2  3  1  0
  3  4  1  0
  4  5  2  0
  4  6  1  0
  6  7  2  0
  7  8  1  0
  8  9  1  0
  9 10  2  0
 10 11  1  0
 11 12  2  0
 12 13  1  0
 13 14  2  0
 11 15  1  0
 15 16  1  0
 16 17  1  0
 17 18  1  0
 18 19  2  0
 19 20  1  0
 20 21  2  0
 21 22  1  0
 22 23  2  0
 21 24  1  0
  9 25  1  0
  5  1  1  0
 14  6  1  0
 13  8  1  0
 23 18  1  0
M  END
$$$$
