
     RDKit          3D

 32 34  0  0  0  0  0  0  0  0999 V2000
    0.8489    7.2490    9.4488 C   0  0  0  0  0  0  0  0  0  0  0  0
    0.6982    5.9111    8.7653 C   0  0  0  0  0  0  0  0  0  0  0  0
   -0.5887    5.3137    9.0024 N   0  0  0  0  0  0  0  0  0  0  0  0
   -1.7232    5.7361    8.2279 C   0  0  0  0  0  0  0  0  0  0  0  0
   -1.8448    5.1592    6.8892 C   0  0  0  0  0  0  0  0  0  0  0  0
   -1.0898    4.0841    6.4703 C   0  0  0  0  0  0  0  0  0  0  0  0
   -1.2146    3.5791    5.2398 N   0  0  0  0  0  0  0  0  0  0  0  0
   -2.0802    4.0985    4.3626 C   0  0  0  0  0  0  0  0  0  0  0  0
   -2.8649    5.1810    4.7335 C   0  0  0  0  0  0  0  0  0  0  0  0
   -2.7404    5.7021    5.9940 C   0  0  0  0  0  0  0  0  0  0  0  0
   -0.7573    4.3542   10.0116 C   0  0  0  0  0  0  0  0  0  0  0  0
   -1.7905    3.6566   10.1231 O   0  0  0  0  0  0  0  0  0  0  0  0
    0.3727    4.1900   10.9844 C   0  0  0  0  0  0  0  0  0  0  0  0
    1.2059    3.0763   10.7198 N   0  0  0  0  0  0  0  0  0  0  0  0
    0.5975    1.7653   10.6851 C   0  0  0  0  0  0  0  0  0  0  0  0
    0.2872    1.0789    9.5527 C   0  0  0  0  0  0  0  0  0  0  0  0
   -0.2908   -0.1317    9.6305 N   0  0  0  0  0  0  0  0  0  0  0  0
   -0.6043   -0.7524   10.8119 C   0  0  0  0  0  0  0  0  0  0  0  0
   -0.2877   -0.0540   11.9924 C   0  0  0  0  0  0  0  0  0  0  0  0
    0.2897    1.1559   11.9225 C   0  0  0  0  0  0  0  0  0  0  0  0
   -1.1715   -1.9233   10.9371 O   0  0  0  0  0  0  0  0  0  0  0  0
   -1.3950   -3.0743   10.2957 C   0  0  0  0  0  0  0  0  0  0  0  0
    2.8703    3.1582   10.3890 S   0  0  0  0  0  6  0  0  0  0  0  0
    3.4044    4.5746   10.5426 O   0  0  0  0  0  0  0  0  0  0  0  0
    3.0912    2.8821    8.8868 O   0  0  0  0  0  0  0  0  0  0  0  0
    3.8883    2.1101   11.3125 C   0  0  0  0  0  0  0  0  0  0  0  0
    4.2679    2.5296   12.5977 C   0  0  0  0  0  0  0  0  0  0  0  0
    5.1173    1.7557   13.3586 C   0  0  0  0  0  0  0  0  0  0  0  0
    5.6324    0.5609   12.9244 C   0  0  0  0  0  0  0  0  0  0  0  0
    5.2623    0.1288   11.6480 C   0  0  0  0  0  0  0  0  0  0  0  0
    4.4016    0.9314   10.8952 C   0  0  0  0  0  0  0  0  0  0  0  0
    4.0510    0.3361    9.5530 C   0  0  0  0  0  0  0  0  0  0  0  0
  1  2  1  0
  2  3  1  0
  3  4  1  0
  4  5  1  0
  5  6  2  0
  6  7  1  0
  7  8  2  0
  8  9  1  0
  9 10  2  0
  3 11  1  0
 11 12  2  0
 11 13  1  0
 13 14  1  0
 14 15  1  0
 15 16  2  0
 16 17  1  0
 17 18  2  0
 18 19  1  0
 19 20  2  0
 18 21  1  0
 21 22  1  0
 14 23  1  0
 23 24  2  0
 23 25  2  0
 23 26  1  0
 26 27  2  0
 27 28  1  0
 28 29  2  0
 29 30  1  0
 30 31  2  0
 31 32  1  0
 10  5  1  0
 20 15  1  0
 31 26  1  0
M  END
$$$$
