
     RDKit          3D

 32 34  0  0  0  0  0  0  0  0999 V2000
    0.9437    2.4302    6.6282 C   0  0  0  0  0  0  0  0  0  0  0  0
    0.8659    3.7050    7.4338 C   0  0  0  0  0  0  0  0  0  0  0  0
   -0.3952    3.8528    8.1098 N   0  0  0  0  0  0  0  0  0  0  0  0
   -1.6122    3.8884    7.3462 C   0  0  0  0  0  0  0  0  0  0  0  0
   -1.8552    5.1047    6.5707 C   0  0  0  0  0  0  0  0  0  0  0  0
   -0.9720    6.1633    6.5497 C   0  0  0  0  0  0  0  0  0  0  0  0
   -1.2198    7.2667    5.8385 N   0  0  0  0  0  0  0  0  0  0  0  0
   -2.3385    7.3882    5.1160 C   0  0  0  0  0  0  0  0  0  0  0  0
   -3.2608    6.3516    5.1018 C   0  0  0  0  0  0  0  0  0  0  0  0
   -3.0111    5.2185    5.8296 C   0  0  0  0  0  0  0  0  0  0  0  0
   -0.4468    4.0064    9.5030 C   0  0  0  0  0  0  0  0  0  0  0  0
   -1.5002    4.2830   10.1198 O   0  0  0  0  0  0  0  0  0  0  0  0
    0.8410    3.8277   10.2513 C   0  0  0  0  0  0  0  0  0  0  0  0
    0.9877    2.5548   10.8536 N   0  0  0  0  0  0  0  0  0  0  0  0
    0.0715    2.1941   11.9123 C   0  0  0  0  0  0  0  0  0  0  0  0
    0.1084    2.6894   13.1784 C   0  0  0  0  0  0  0  0  0  0  0  0
   -0.7842    2.2767   14.0942 N   0  0  0  0  0  0  0  0  0  0  0  0
   -1.7687    1.3575   13.8392 C   0  0  0  0  0  0  0  0  0  0  0  0
   -1.8197    0.8370   12.5322 C   0  0  0  0  0  0  0  0  0  0  0  0
   -0.9311    1.2445   11.6121 C   0  0  0  0  0  0  0  0  0  0  0  0
   -2.6530    0.9216   14.6972 O   0  0  0  0  0  0  0  0  0  0  0  0
   -3.2388    1.2080   15.8639 C   0  0  0  0  0  0  0  0  0  0  0  0
    2.1323    1.3848   10.3986 S   0  0  0  0  0  6  0  0  0  0  0  0
    2.7535    1.7029    9.0466 O   0  0  0  0  0  0  0  0  0  0  0  0
    1.3990    0.0554   10.1218 O   0  0  0  0  0  0  0  0  0  0  0  0
    3.4212    1.0982   11.5142 C   0  0  0  0  0  0  0  0  0  0  0  0
    3.3035    0.0029   12.3850 C   0  0  0  0  0  0  0  0  0  0  0  0
    4.2788   -0.2436   13.3271 C   0  0  0  0  0  0  0  0  0  0  0  0
    5.3948    0.5405   13.4721 C   0  0  0  0  0  0  0  0  0  0  0  0
    5.5273    1.6333   12.6114 C   0  0  0  0  0  0  0  0  0  0  0  0
    4.5249    1.8636   11.6660 C   0  0  0  0  0  0  0  0  0  0  0  0
    4.8046    3.0503   10.7758 C   0  0  0  0  0  0  0  0  0  0  0  0
  1  2  1  0
  2  3  1  0
  3  4  1  0
  4  5  1  0
  5  6  2  0
  6  7  1  0
  7  8  2  0
  8  9  1  0
  9 10  2  0
  3 11  1  0
 11 12  2  0
 11 13  1  0
 13 14  1  0
 14 15  1  0
 15 16  2  0
 16 17  1  0
 17 18  2  0
 18 19  1  0
 19 20  2  0
 18 21  1  0
 21 22  1  0
 14 23  1  0
 23 24  2  0
 23 25  2  0
 23 26  1  0
 26 27  2  0
 27 28  1  0
 28 29  2  0
 29 30  1  0
 30 31  2  0
 31 32  1  0
 10  5  1  0
 20 15  1  0
 31 26  1  0
M  END
$$$$
