
     RDKit          3D

 32 34  0  0  0  0  0  0  0  0999 V2000
   -1.1618   -0.4888    6.8544 C   0  0  0  0  0  0  0  0  0  0  0  0
   -1.3700    0.9427    7.2874 C   0  0  0  0  0  0  0  0  0  0  0  0
   -0.2126    1.7633    7.0504 N   0  0  0  0  0  0  0  0  0  0  0  0
   -0.0311    2.3843    5.7671 C   0  0  0  0  0  0  0  0  0  0  0  0
   -0.8714    3.5481    5.4859 C   0  0  0  0  0  0  0  0  0  0  0  0
   -0.7818    4.7221    6.2034 C   0  0  0  0  0  0  0  0  0  0  0  0
   -1.5654    5.7694    5.9315 N   0  0  0  0  0  0  0  0  0  0  0  0
   -2.4710    5.7200    4.9488 C   0  0  0  0  0  0  0  0  0  0  0  0
   -2.6018    4.5622    4.1953 C   0  0  0  0  0  0  0  0  0  0  0  0
   -1.8006    3.4859    4.4705 C   0  0  0  0  0  0  0  0  0  0  0  0
    0.7632    1.9287    8.0443 C   0  0  0  0  0  0  0  0  0  0  0  0
    1.7404    2.7007    7.9185 O   0  0  0  0  0  0  0  0  0  0  0  0
    0.5950    1.1226    9.2982 C   0  0  0  0  0  0  0  0  0  0  0  0
    1.1226    1.7405   10.4577 N   0  0  0  0  0  0  0  0  0  0  0  0
    2.3905    1.2649   10.9641 C   0  0  0  0  0  0  0  0  0  0  0  0
    3.5562    1.9646   10.9300 C   0  0  0  0  0  0  0  0  0  0  0  0
    4.6860    1.4241   11.4169 N   0  0  0  0  0  0  0  0  0  0  0  0
    4.7559    0.1706   11.9674 C   0  0  0  0  0  0  0  0  0  0  0  0
    3.5564   -0.5650   12.0104 C   0  0  0  0  0  0  0  0  0  0  0  0
    2.4239   -0.0315   11.5257 C   0  0  0  0  0  0  0  0  0  0  0  0
    5.8304   -0.3987   12.4466 O   0  0  0  0  0  0  0  0  0  0  0  0
    7.1518   -0.4992   12.2736 C   0  0  0  0  0  0  0  0  0  0  0  0
    0.4055    3.0399   11.2844 S   0  0  0  0  0  6  0  0  0  0  0  0
    1.2986    3.5549   12.4034 O   0  0  0  0  0  0  0  0  0  0  0  0
   -0.8248    2.5179   12.0562 O   0  0  0  0  0  0  0  0  0  0  0  0
   -0.0644    4.3961   10.3212 C   0  0  0  0  0  0  0  0  0  0  0  0
   -1.3514    4.3872    9.7597 C   0  0  0  0  0  0  0  0  0  0  0  0
   -1.7607    5.4200    8.9440 C   0  0  0  0  0  0  0  0  0  0  0  0
   -0.9625    6.4922    8.6361 C   0  0  0  0  0  0  0  0  0  0  0  0
    0.3206    6.5164    9.1891 C   0  0  0  0  0  0  0  0  0  0  0  0
    0.7131    5.4575   10.0113 C   0  0  0  0  0  0  0  0  0  0  0  0
    2.1047    5.6214   10.5730 C   0  0  0  0  0  0  0  0  0  0  0  0
  1  2  1  0
  2  3  1  0
  3  4  1  0
  4  5  1  0
  5  6  2  0
  6  7  1  0
  7  8  2  0
  8  9  1  0
  9 10  2  0
  3 11  1  0
 11 12  2  0
 11 13  1  0
 13 14  1  0
 14 15  1  0
 15 16  2  0
 16 17  1  0
 17 18  2  0
 18 19  1  0
 19 20  2  0
 18 21  1  0
 21 22  1  0
 14 23  1  0
 23 24  2  0
 23 25  2  0
 23 26  1  0
 26 27  2  0
 27 28  1  0
 28 29  2  0
 29 30  1  0
 30 31  2  0
 31 32  1  0
 10  5  1  0
 20 15  1  0
 31 26  1  0
M  END
$$$$
