
     RDKit          3D

 32 34  0  0  0  0  0  0  0  0999 V2000
    2.0882    0.0958    7.3877 C   0  0  0  0  0  0  0  0  0  0  0  0
    1.2192    0.5117    8.5504 C   0  0  0  0  0  0  0  0  0  0  0  0
    0.2595    1.5199    8.1872 N   0  0  0  0  0  0  0  0  0  0  0  0
   -0.8980    1.1561    7.4170 C   0  0  0  0  0  0  0  0  0  0  0  0
   -1.2711    2.0698    6.3373 C   0  0  0  0  0  0  0  0  0  0  0  0
   -0.5612    3.2174    6.0543 C   0  0  0  0  0  0  0  0  0  0  0  0
   -0.9262    4.0397    5.0666 N   0  0  0  0  0  0  0  0  0  0  0  0
   -1.9985    3.7809    4.3107 C   0  0  0  0  0  0  0  0  0  0  0  0
   -2.7479    2.6386    4.5530 C   0  0  0  0  0  0  0  0  0  0  0  0
   -2.3777    1.7927    5.5646 C   0  0  0  0  0  0  0  0  0  0  0  0
    0.4635    2.8621    8.5395 C   0  0  0  0  0  0  0  0  0  0  0  0
   -0.2468    3.7965    8.1047 O   0  0  0  0  0  0  0  0  0  0  0  0
    1.5972    3.1502    9.4786 C   0  0  0  0  0  0  0  0  0  0  0  0
    1.2006    3.7574   10.6945 N   0  0  0  0  0  0  0  0  0  0  0  0
    0.7942    5.1445   10.6607 C   0  0  0  0  0  0  0  0  0  0  0  0
    1.5888    6.1813   10.2821 C   0  0  0  0  0  0  0  0  0  0  0  0
    1.1164    7.4392   10.2997 N   0  0  0  0  0  0  0  0  0  0  0  0
   -0.1565    7.7702   10.6859 C   0  0  0  0  0  0  0  0  0  0  0  0
   -0.9908    6.7069   11.0794 C   0  0  0  0  0  0  0  0  0  0  0  0
   -0.5257    5.4476   11.0646 C   0  0  0  0  0  0  0  0  0  0  0  0
   -0.6575    8.9768   10.7257 O   0  0  0  0  0  0  0  0  0  0  0  0
   -0.4297   10.2118   11.1831 C   0  0  0  0  0  0  0  0  0  0  0  0
    1.1158    2.9700   12.1976 S   0  0  0  0  0  6  0  0  0  0  0  0
   -0.1623    2.1559   12.3337 O   0  0  0  0  0  0  0  0  0  0  0  0
    0.9516    4.0323   13.3050 O   0  0  0  0  0  0  0  0  0  0  0  0
    2.4421    1.9361   12.5976 C   0  0  0  0  0  0  0  0  0  0  0  0
    3.5698    2.5186   13.1983 C   0  0  0  0  0  0  0  0  0  0  0  0
    4.6745    1.7496   13.4942 C   0  0  0  0  0  0  0  0  0  0  0  0
    4.7436    0.4055   13.2298 C   0  0  0  0  0  0  0  0  0  0  0  0
    3.6283   -0.1893   12.6340 C   0  0  0  0  0  0  0  0  0  0  0  0
    2.5213    0.6112   12.3420 C   0  0  0  0  0  0  0  0  0  0  0  0
    1.3719   -0.1570   11.7354 C   0  0  0  0  0  0  0  0  0  0  0  0
  1  2  1  0
  2  3  1  0
  3  4  1  0
  4  5  1  0
  5  6  2  0
  6  7  1  0
  7  8  2  0
  8  9  1  0
  9 10  2  0
  3 11  1  0
 11 12  2  0
 11 13  1  0
 13 14  1  0
 14 15  1  0
 15 16  2  0
 16 17  1  0
 17 18  2  0
 18 19  1  0
 19 20  2  0
 18 21  1  0
 21 22  1  0
 14 23  1  0
 23 24  2  0
 23 25  2  0
 23 26  1  0
 26 27  2  0
 27 28  1  0
 28 29  2  0
 29 30  1  0
 30 31  2  0
 31 32  1  0
 10  5  1  0
 20 15  1  0
 31 26  1  0
M  END
$$$$
