
     RDKit          3D

 32 34  0  0  0  0  0  0  0  0999 V2000
   -3.4798    5.9366    8.1183 C   0  0  0  0  0  0  0  0  0  0  0  0
   -2.3518    5.0576    8.6028 C   0  0  0  0  0  0  0  0  0  0  0  0
   -1.0950    5.7551    8.6576 N   0  0  0  0  0  0  0  0  0  0  0  0
   -0.8009    6.7695    7.6830 C   0  0  0  0  0  0  0  0  0  0  0  0
   -0.6688    6.3183    6.2978 C   0  0  0  0  0  0  0  0  0  0  0  0
   -0.7384    4.9892    5.9378 C   0  0  0  0  0  0  0  0  0  0  0  0
   -0.6080    4.6015    4.6660 N   0  0  0  0  0  0  0  0  0  0  0  0
   -0.4043    5.4908    3.6883 C   0  0  0  0  0  0  0  0  0  0  0  0
   -0.3267    6.8416    3.9962 C   0  0  0  0  0  0  0  0  0  0  0  0
   -0.4597    7.2437    5.2987 C   0  0  0  0  0  0  0  0  0  0  0  0
   -0.1351    5.4255    9.6258 C   0  0  0  0  0  0  0  0  0  0  0  0
    1.0286    5.8864    9.6166 O   0  0  0  0  0  0  0  0  0  0  0  0
   -0.5599    4.4706   10.7018 C   0  0  0  0  0  0  0  0  0  0  0  0
    0.0184    3.1829   10.5933 N   0  0  0  0  0  0  0  0  0  0  0  0
    1.3682    3.0009   11.0782 C   0  0  0  0  0  0  0  0  0  0  0  0
    2.4957    3.2719   10.3675 C   0  0  0  0  0  0  0  0  0  0  0  0
    3.7066    3.0537   10.9077 N   0  0  0  0  0  0  0  0  0  0  0  0
    3.8997    2.5589   12.1714 C   0  0  0  0  0  0  0  0  0  0  0  0
    2.7414    2.2749   12.9193 C   0  0  0  0  0  0  0  0  0  0  0  0
    1.5283    2.4901   12.3860 C   0  0  0  0  0  0  0  0  0  0  0  0
    5.0550    2.3245   12.7360 O   0  0  0  0  0  0  0  0  0  0  0  0
    6.1799    2.9162   13.1492 C   0  0  0  0  0  0  0  0  0  0  0  0
   -0.7671    1.8079    9.9779 S   0  0  0  0  0  6  0  0  0  0  0  0
   -2.2684    2.0247    9.8596 O   0  0  0  0  0  0  0  0  0  0  0  0
   -0.6771    0.6762   11.0233 O   0  0  0  0  0  0  0  0  0  0  0  0
   -0.2002    1.2179    8.4553 C   0  0  0  0  0  0  0  0  0  0  0  0
   -0.9237    1.5706    7.3047 C   0  0  0  0  0  0  0  0  0  0  0  0
   -0.5444    1.0885    6.0705 C   0  0  0  0  0  0  0  0  0  0  0  0
    0.5319    0.2577    5.8898 C   0  0  0  0  0  0  0  0  0  0  0  0
    1.2634   -0.1007    7.0252 C   0  0  0  0  0  0  0  0  0  0  0  0
    0.8585    0.3991    8.2652 C   0  0  0  0  0  0  0  0  0  0  0  0
    1.7513   -0.0320    9.4035 C   0  0  0  0  0  0  0  0  0  0  0  0
  1  2  1  0
  2  3  1  0
  3  4  1  0
  4  5  1  0
  5  6  2  0
  6  7  1  0
  7  8  2  0
  8  9  1  0
  9 10  2  0
  3 11  1  0
 11 12  2  0
 11 13  1  0
 13 14  1  0
 14 15  1  0
 15 16  2  0
 16 17  1  0
 17 18  2  0
 18 19  1  0
 19 20  2  0
 18 21  1  0
 21 22  1  0
 14 23  1  0
 23 24  2  0
 23 25  2  0
 23 26  1  0
 26 27  2  0
 27 28  1  0
 28 29  2  0
 29 30  1  0
 30 31  2  0
 31 32  1  0
 10  5  1  0
 20 15  1  0
 31 26  1  0
M  END
$$$$
