
     RDKit          3D

 32 34  0  0  0  0  0  0  0  0999 V2000
   -1.6578    6.9927    8.4996 C   0  0  0  0  0  0  0  0  0  0  0  0
   -0.6210    6.1727    7.7699 C   0  0  0  0  0  0  0  0  0  0  0  0
   -1.0229    4.8020    7.6003 N   0  0  0  0  0  0  0  0  0  0  0  0
   -2.2491    4.4994    6.9145 C   0  0  0  0  0  0  0  0  0  0  0  0
   -2.1584    4.3447    5.4628 C   0  0  0  0  0  0  0  0  0  0  0  0
   -0.9664    4.4423    4.7766 C   0  0  0  0  0  0  0  0  0  0  0  0
   -0.9105    4.3037    3.4490 N   0  0  0  0  0  0  0  0  0  0  0  0
   -2.0127    4.0638    2.7308 C   0  0  0  0  0  0  0  0  0  0  0  0
   -3.2383    3.9557    3.3721 C   0  0  0  0  0  0  0  0  0  0  0  0
   -3.3006    4.0972    4.7331 C   0  0  0  0  0  0  0  0  0  0  0  0
   -0.2527    3.7589    8.1353 C   0  0  0  0  0  0  0  0  0  0  0  0
   -0.6023    2.5581    8.0847 O   0  0  0  0  0  0  0  0  0  0  0  0
    1.0398    4.1413    8.7937 C   0  0  0  0  0  0  0  0  0  0  0  0
    1.3282    3.4084    9.9701 N   0  0  0  0  0  0  0  0  0  0  0  0
    1.2769    1.9651    9.9015 C   0  0  0  0  0  0  0  0  0  0  0  0
    2.3601    1.1505    9.7883 C   0  0  0  0  0  0  0  0  0  0  0  0
    2.2019   -0.1821    9.7182 N   0  0  0  0  0  0  0  0  0  0  0  0
    0.9829   -0.8081    9.7535 C   0  0  0  0  0  0  0  0  0  0  0  0
   -0.1474    0.0227    9.8717 C   0  0  0  0  0  0  0  0  0  0  0  0
    0.0029    1.3549    9.9419 C   0  0  0  0  0  0  0  0  0  0  0  0
    0.7794   -2.0972    9.6821 O   0  0  0  0  0  0  0  0  0  0  0  0
    1.4017   -3.2674    9.5103 C   0  0  0  0  0  0  0  0  0  0  0  0
    1.7811    4.0895   11.4592 S   0  0  0  0  0  6  0  0  0  0  0  0
    3.2719    3.9314   11.7187 O   0  0  0  0  0  0  0  0  0  0  0  0
    1.1564    3.2544   12.5967 O   0  0  0  0  0  0  0  0  0  0  0  0
    1.3808    5.7546   11.6943 C   0  0  0  0  0  0  0  0  0  0  0  0
    0.3101    6.0571   12.5509 C   0  0  0  0  0  0  0  0  0  0  0  0
   -0.0828    7.3649   12.7368 C   0  0  0  0  0  0  0  0  0  0  0  0
    0.5273    8.4253   12.1166 C   0  0  0  0  0  0  0  0  0  0  0  0
    1.5960    8.1406   11.2624 C   0  0  0  0  0  0  0  0  0  0  0  0
    1.9746    6.8072   11.0888 C   0  0  0  0  0  0  0  0  0  0  0  0
    3.1622    6.6378   10.1723 C   0  0  0  0  0  0  0  0  0  0  0  0
  1  2  1  0
  2  3  1  0
  3  4  1  0
  4  5  1  0
  5  6  2  0
  6  7  1  0
  7  8  2  0
  8  9  1  0
  9 10  2  0
  3 11  1  0
 11 12  2  0
 11 13  1  0
 13 14  1  0
 14 15  1  0
 15 16  2  0
 16 17  1  0
 17 18  2  0
 18 19  1  0
 19 20  2  0
 18 21  1  0
 21 22  1  0
 14 23  1  0
 23 24  2  0
 23 25  2  0
 23 26  1  0
 26 27  2  0
 27 28  1  0
 28 29  2  0
 29 30  1  0
 30 31  2  0
 31 32  1  0
 10  5  1  0
 20 15  1  0
 31 26  1  0
M  END
$$$$
