
     RDKit          3D

 32 34  0  0  0  0  0  0  0  0999 V2000
    1.7869    6.9189    9.3722 C   0  0  0  0  0  0  0  0  0  0  0  0
    1.3611    5.9523    8.2931 C   0  0  0  0  0  0  0  0  0  0  0  0
    0.2803    5.1007    8.7123 N   0  0  0  0  0  0  0  0  0  0  0  0
   -1.0657    5.6046    8.7083 C   0  0  0  0  0  0  0  0  0  0  0  0
   -1.7461    5.6246    7.4136 C   0  0  0  0  0  0  0  0  0  0  0  0
   -3.0283    6.1058    7.2536 C   0  0  0  0  0  0  0  0  0  0  0  0
   -3.6309    6.1073    6.0613 N   0  0  0  0  0  0  0  0  0  0  0  0
   -3.0117    5.6404    4.9718 C   0  0  0  0  0  0  0  0  0  0  0  0
   -1.7199    5.1451    5.0774 C   0  0  0  0  0  0  0  0  0  0  0  0
   -1.0981    5.1415    6.2978 C   0  0  0  0  0  0  0  0  0  0  0  0
    0.5308    3.7974    9.1665 C   0  0  0  0  0  0  0  0  0  0  0  0
   -0.3793    3.0026    9.4929 O   0  0  0  0  0  0  0  0  0  0  0  0
    1.9679    3.3767    9.2554 C   0  0  0  0  0  0  0  0  0  0  0  0
    2.1516    1.9911    9.4811 N   0  0  0  0  0  0  0  0  0  0  0  0
    1.3342    1.0657    8.7290 C   0  0  0  0  0  0  0  0  0  0  0  0
    1.7381    0.3927    7.6182 C   0  0  0  0  0  0  0  0  0  0  0  0
    0.8929   -0.4367    6.9831 N   0  0  0  0  0  0  0  0  0  0  0  0
   -0.3974   -0.6653    7.3856 C   0  0  0  0  0  0  0  0  0  0  0  0
   -0.8290    0.0238    8.5348 C   0  0  0  0  0  0  0  0  0  0  0  0
    0.0097    0.8542    9.1743 C   0  0  0  0  0  0  0  0  0  0  0  0
   -1.2564   -1.4559    6.7979 O   0  0  0  0  0  0  0  0  0  0  0  0
   -1.3959   -2.3117    5.7808 C   0  0  0  0  0  0  0  0  0  0  0  0
    3.2979    1.3170   10.5383 S   0  0  0  0  0  6  0  0  0  0  0  0
    4.5585    2.1657   10.6149 O   0  0  0  0  0  0  0  0  0  0  0  0
    3.8218    0.0003    9.9272 O   0  0  0  0  0  0  0  0  0  0  0  0
    2.7670    1.0181   12.1559 C   0  0  0  0  0  0  0  0  0  0  0  0
    2.2600   -0.2568   12.4548 C   0  0  0  0  0  0  0  0  0  0  0  0
    1.7782   -0.5348   13.7157 C   0  0  0  0  0  0  0  0  0  0  0  0
    1.7625    0.3870   14.7312 C   0  0  0  0  0  0  0  0  0  0  0  0
    2.2657    1.6599   14.4500 C   0  0  0  0  0  0  0  0  0  0  0  0
    2.7469    1.9182   13.1641 C   0  0  0  0  0  0  0  0  0  0  0  0
    3.2948    3.3154   13.0008 C   0  0  0  0  0  0  0  0  0  0  0  0
  1  2  1  0
  2  3  1  0
  3  4  1  0
  4  5  1  0
  5  6  2  0
  6  7  1  0
  7  8  2  0
  8  9  1  0
  9 10  2  0
  3 11  1  0
 11 12  2  0
 11 13  1  0
 13 14  1  0
 14 15  1  0
 15 16  2  0
 16 17  1  0
 17 18  2  0
 18 19  1  0
 19 20  2  0
 18 21  1  0
 21 22  1  0
 14 23  1  0
 23 24  2  0
 23 25  2  0
 23 26  1  0
 26 27  2  0
 27 28  1  0
 28 29  2  0
 29 30  1  0
 30 31  2  0
 31 32  1  0
 10  5  1  0
 20 15  1  0
 31 26  1  0
M  END
$$$$
