
     RDKit          3D

 32 34  0  0  0  0  0  0  0  0999 V2000
   -0.8890    2.8178    5.1522 C   0  0  0  0  0  0  0  0  0  0  0  0
   -1.0601    4.2071    5.7182 C   0  0  0  0  0  0  0  0  0  0  0  0
   -0.5644    4.3181    7.0640 N   0  0  0  0  0  0  0  0  0  0  0  0
   -0.9087    5.4661    7.8570 C   0  0  0  0  0  0  0  0  0  0  0  0
   -1.9371    6.3489    7.3066 C   0  0  0  0  0  0  0  0  0  0  0  0
   -2.5753    6.0940    6.1113 C   0  0  0  0  0  0  0  0  0  0  0  0
   -3.5070    6.9195    5.6262 N   0  0  0  0  0  0  0  0  0  0  0  0
   -3.8586    8.0297    6.2835 C   0  0  0  0  0  0  0  0  0  0  0  0
   -3.2476    8.3330    7.4917 C   0  0  0  0  0  0  0  0  0  0  0  0
   -2.2917    7.4897    7.9930 C   0  0  0  0  0  0  0  0  0  0  0  0
    0.2874    3.3388    7.5959 C   0  0  0  0  0  0  0  0  0  0  0  0
    0.6539    2.3308    6.9508 O   0  0  0  0  0  0  0  0  0  0  0  0
    0.7547    3.5427    9.0067 C   0  0  0  0  0  0  0  0  0  0  0  0
    1.5304    2.4748    9.5187 N   0  0  0  0  0  0  0  0  0  0  0  0
    1.3729    1.1702    8.9158 C   0  0  0  0  0  0  0  0  0  0  0  0
    0.4984    0.2170    9.3358 C   0  0  0  0  0  0  0  0  0  0  0  0
    0.4403   -0.9719    8.7123 N   0  0  0  0  0  0  0  0  0  0  0  0
    1.2271   -1.3108    7.6421 C   0  0  0  0  0  0  0  0  0  0  0  0
    2.1363   -0.3334    7.1956 C   0  0  0  0  0  0  0  0  0  0  0  0
    2.2002    0.8566    7.8138 C   0  0  0  0  0  0  0  0  0  0  0  0
    1.2110   -2.4541    7.0089 O   0  0  0  0  0  0  0  0  0  0  0  0
    0.5510   -3.6126    6.9156 C   0  0  0  0  0  0  0  0  0  0  0  0
    2.6780    2.6103   10.7640 S   0  0  0  0  0  6  0  0  0  0  0  0
    2.7532    4.0299   11.3064 O   0  0  0  0  0  0  0  0  0  0  0  0
    4.0859    2.4097   10.1647 O   0  0  0  0  0  0  0  0  0  0  0  0
    2.4790    1.5439   12.1098 C   0  0  0  0  0  0  0  0  0  0  0  0
    1.6692    1.9742   13.1733 C   0  0  0  0  0  0  0  0  0  0  0  0
    1.5146    1.1847   14.2924 C   0  0  0  0  0  0  0  0  0  0  0  0
    2.1228   -0.0361   14.4371 C   0  0  0  0  0  0  0  0  0  0  0  0
    2.9304   -0.4791   13.3863 C   0  0  0  0  0  0  0  0  0  0  0  0
    3.0730    0.3395   12.2633 C   0  0  0  0  0  0  0  0  0  0  0  0
    3.9395   -0.2685   11.1870 C   0  0  0  0  0  0  0  0  0  0  0  0
  1  2  1  0
  2  3  1  0
  3  4  1  0
  4  5  1  0
  5  6  2  0
  6  7  1  0
  7  8  2  0
  8  9  1  0
  9 10  2  0
  3 11  1  0
 11 12  2  0
 11 13  1  0
 13 14  1  0
 14 15  1  0
 15 16  2  0
 16 17  1  0
 17 18  2  0
 18 19  1  0
 19 20  2  0
 18 21  1  0
 21 22  1  0
 14 23  1  0
 23 24  2  0
 23 25  2  0
 23 26  1  0
 26 27  2  0
 27 28  1  0
 28 29  2  0
 29 30  1  0
 30 31  2  0
 31 32  1  0
 10  5  1  0
 20 15  1  0
 31 26  1  0
M  END
$$$$
