
     RDKit          3D

 32 34  0  0  0  0  0  0  0  0999 V2000
   -0.7169    3.6978   13.5560 C   0  0  0  0  0  0  0  0  0  0  0  0
   -0.3894    2.7894   12.3952 C   0  0  0  0  0  0  0  0  0  0  0  0
    0.9746    2.9240   11.9588 N   0  0  0  0  0  0  0  0  0  0  0  0
    2.0334    2.9504   12.9302 C   0  0  0  0  0  0  0  0  0  0  0  0
    2.8410    1.7359   13.0415 C   0  0  0  0  0  0  0  0  0  0  0  0
    2.6924    0.6620   12.1895 C   0  0  0  0  0  0  0  0  0  0  0  0
    3.4379   -0.4393   12.3159 N   0  0  0  0  0  0  0  0  0  0  0  0
    4.3613   -0.5438   13.2774 C   0  0  0  0  0  0  0  0  0  0  0  0
    4.5521    0.5085   14.1614 C   0  0  0  0  0  0  0  0  0  0  0  0
    3.7900    1.6396   14.0358 C   0  0  0  0  0  0  0  0  0  0  0  0
    1.2792    3.0734   10.5977 C   0  0  0  0  0  0  0  0  0  0  0  0
    2.3853    2.7528   10.1075 O   0  0  0  0  0  0  0  0  0  0  0  0
    0.2058    3.6517    9.7239 C   0  0  0  0  0  0  0  0  0  0  0  0
    0.3059    3.2786    8.3618 N   0  0  0  0  0  0  0  0  0  0  0  0
    0.2492    1.8710    8.0367 C   0  0  0  0  0  0  0  0  0  0  0  0
    1.2922    1.0042    8.1386 C   0  0  0  0  0  0  0  0  0  0  0  0
    1.1374   -0.2861    7.7968 N   0  0  0  0  0  0  0  0  0  0  0  0
   -0.0391   -0.8165    7.3345 C   0  0  0  0  0  0  0  0  0  0  0  0
   -1.1279    0.0690    7.2249 C   0  0  0  0  0  0  0  0  0  0  0  0
   -0.9806    1.3595    7.5644 C   0  0  0  0  0  0  0  0  0  0  0  0
   -0.2354   -2.0604    6.9843 O   0  0  0  0  0  0  0  0  0  0  0  0
    0.3926   -3.2214    6.7752 C   0  0  0  0  0  0  0  0  0  0  0  0
    0.4403    4.3615    7.0597 S   0  0  0  0  0  6  0  0  0  0  0  0
    0.9144    3.6620    5.7943 O   0  0  0  0  0  0  0  0  0  0  0  0
    1.5957    5.3429    7.3485 O   0  0  0  0  0  0  0  0  0  0  0  0
   -0.9804    5.2618    6.6611 C   0  0  0  0  0  0  0  0  0  0  0  0
   -1.8815    4.6940    5.7460 C   0  0  0  0  0  0  0  0  0  0  0  0
   -3.0059    5.3889    5.3559 C   0  0  0  0  0  0  0  0  0  0  0  0
   -3.3101    6.6428    5.8213 C   0  0  0  0  0  0  0  0  0  0  0  0
   -2.4239    7.2206    6.7343 C   0  0  0  0  0  0  0  0  0  0  0  0
   -1.2903    6.4974    7.1132 C   0  0  0  0  0  0  0  0  0  0  0  0
   -0.4357    7.2155    8.1294 C   0  0  0  0  0  0  0  0  0  0  0  0
  1  2  1  0
  2  3  1  0
  3  4  1  0
  4  5  1  0
  5  6  2  0
  6  7  1  0
  7  8  2  0
  8  9  1  0
  9 10  2  0
  3 11  1  0
 11 12  2  0
 11 13  1  0
 13 14  1  0
 14 15  1  0
 15 16  2  0
 16 17  1  0
 17 18  2  0
 18 19  1  0
 19 20  2  0
 18 21  1  0
 21 22  1  0
 14 23  1  0
 23 24  2  0
 23 25  2  0
 23 26  1  0
 26 27  2  0
 27 28  1  0
 28 29  2  0
 29 30  1  0
 30 31  2  0
 31 32  1  0
 10  5  1  0
 20 15  1  0
 31 26  1  0
M  END
$$$$
