
     RDKit          3D

 32 34  0  0  0  0  0  0  0  0999 V2000
    1.3353    5.7620    6.5736 C   0  0  0  0  0  0  0  0  0  0  0  0
    1.2851    5.7471    8.0827 C   0  0  0  0  0  0  0  0  0  0  0  0
   -0.0502    5.5697    8.5872 N   0  0  0  0  0  0  0  0  0  0  0  0
   -1.1338    6.3182    8.0120 C   0  0  0  0  0  0  0  0  0  0  0  0
   -1.8431    5.6822    6.9019 C   0  0  0  0  0  0  0  0  0  0  0  0
   -2.5435    6.4009    5.9563 C   0  0  0  0  0  0  0  0  0  0  0  0
   -3.1890    5.7961    4.9552 N   0  0  0  0  0  0  0  0  0  0  0  0
   -3.1811    4.4648    4.8303 C   0  0  0  0  0  0  0  0  0  0  0  0
   -2.4908    3.6940    5.7547 C   0  0  0  0  0  0  0  0  0  0  0  0
   -1.8276    4.3096    6.7830 C   0  0  0  0  0  0  0  0  0  0  0  0
   -0.2995    4.7061    9.6640 C   0  0  0  0  0  0  0  0  0  0  0  0
   -1.4527    4.4403   10.0719 O   0  0  0  0  0  0  0  0  0  0  0  0
    0.8966    4.0971   10.3337 C   0  0  0  0  0  0  0  0  0  0  0  0
    0.7618    2.7157   10.6131 N   0  0  0  0  0  0  0  0  0  0  0  0
    0.4644    1.8257    9.5133 C   0  0  0  0  0  0  0  0  0  0  0  0
   -0.7849    1.4467    9.1322 C   0  0  0  0  0  0  0  0  0  0  0  0
   -0.9522    0.6013    8.1012 N   0  0  0  0  0  0  0  0  0  0  0  0
    0.0823    0.0702    7.3752 C   0  0  0  0  0  0  0  0  0  0  0  0
    1.3814    0.4546    7.7578 C   0  0  0  0  0  0  0  0  0  0  0  0
    1.5561    1.2987    8.7869 C   0  0  0  0  0  0  0  0  0  0  0  0
   -0.0305   -0.7589    6.3711 O   0  0  0  0  0  0  0  0  0  0  0  0
   -0.9239   -1.4227    5.6312 C   0  0  0  0  0  0  0  0  0  0  0  0
    0.9699    2.0032   12.1413 S   0  0  0  0  0  6  0  0  0  0  0  0
   -0.0487    0.9007   12.3903 O   0  0  0  0  0  0  0  0  0  0  0  0
    0.6073    3.0402   13.2252 O   0  0  0  0  0  0  0  0  0  0  0  0
    2.5369    1.3563   12.4790 C   0  0  0  0  0  0  0  0  0  0  0  0
    3.4794    2.2030   13.0843 C   0  0  0  0  0  0  0  0  0  0  0  0
    4.7587    1.7541   13.3320 C   0  0  0  0  0  0  0  0  0  0  0  0
    5.1831    0.4893   13.0133 C   0  0  0  0  0  0  0  0  0  0  0  0
    4.2560   -0.3660   12.4121 C   0  0  0  0  0  0  0  0  0  0  0  0
    2.9660    0.1124   12.1697 C   0  0  0  0  0  0  0  0  0  0  0  0
    2.0529   -0.9185   11.5513 C   0  0  0  0  0  0  0  0  0  0  0  0
  1  2  1  0
  2  3  1  0
  3  4  1  0
  4  5  1  0
  5  6  2  0
  6  7  1  0
  7  8  2  0
  8  9  1  0
  9 10  2  0
  3 11  1  0
 11 12  2  0
 11 13  1  0
 13 14  1  0
 14 15  1  0
 15 16  2  0
 16 17  1  0
 17 18  2  0
 18 19  1  0
 19 20  2  0
 18 21  1  0
 21 22  1  0
 14 23  1  0
 23 24  2  0
 23 25  2  0
 23 26  1  0
 26 27  2  0
 27 28  1  0
 28 29  2  0
 29 30  1  0
 30 31  2  0
 31 32  1  0
 10  5  1  0
 20 15  1  0
 31 26  1  0
M  END
$$$$
