
     RDKit          3D

 32 34  0  0  0  0  0  0  0  0999 V2000
   -1.3507    4.1268   11.0230 C   0  0  0  0  0  0  0  0  0  0  0  0
   -0.7298    5.4785   10.7634 C   0  0  0  0  0  0  0  0  0  0  0  0
    0.7079    5.4371   10.7851 N   0  0  0  0  0  0  0  0  0  0  0  0
    1.4596    6.5818   10.3493 C   0  0  0  0  0  0  0  0  0  0  0  0
    0.7017    7.6370    9.6772 C   0  0  0  0  0  0  0  0  0  0  0  0
   -0.6574    7.5547    9.4599 C   0  0  0  0  0  0  0  0  0  0  0  0
   -1.3263    8.5293    8.8375 N   0  0  0  0  0  0  0  0  0  0  0  0
   -0.7016    9.6273    8.3991 C   0  0  0  0  0  0  0  0  0  0  0  0
    0.6658    9.7609    8.5927 C   0  0  0  0  0  0  0  0  0  0  0  0
    1.3559    8.7643    9.2303 C   0  0  0  0  0  0  0  0  0  0  0  0
    1.3845    4.2756   11.1860 C   0  0  0  0  0  0  0  0  0  0  0  0
    2.6320    4.1749   11.1737 O   0  0  0  0  0  0  0  0  0  0  0  0
    0.5388    3.1224   11.6389 C   0  0  0  0  0  0  0  0  0  0  0  0
    0.6618    1.9642   10.8339 N   0  0  0  0  0  0  0  0  0  0  0  0
    1.9158    1.2453   10.8644 C   0  0  0  0  0  0  0  0  0  0  0  0
    2.0544   -0.0683   11.1880 C   0  0  0  0  0  0  0  0  0  0  0  0
    3.2708   -0.6392   11.1994 N   0  0  0  0  0  0  0  0  0  0  0  0
    4.4293    0.0286   10.8976 C   0  0  0  0  0  0  0  0  0  0  0  0
    4.3010    1.3890   10.5594 C   0  0  0  0  0  0  0  0  0  0  0  0
    3.0890    1.9662   10.5462 C   0  0  0  0  0  0  0  0  0  0  0  0
    5.6327   -0.4813   10.9015 O   0  0  0  0  0  0  0  0  0  0  0  0
    6.3079   -1.6207   11.0810 C   0  0  0  0  0  0  0  0  0  0  0  0
   -0.5707    1.3149    9.8616 S   0  0  0  0  0  6  0  0  0  0  0  0
   -1.9513    1.6559   10.4027 O   0  0  0  0  0  0  0  0  0  0  0  0
   -0.5384   -0.2233    9.9817 O   0  0  0  0  0  0  0  0  0  0  0  0
   -0.5394    1.7525    8.1896 C   0  0  0  0  0  0  0  0  0  0  0  0
   -1.3690    2.8055    7.7716 C   0  0  0  0  0  0  0  0  0  0  0  0
   -1.4196    3.1643    6.4419 C   0  0  0  0  0  0  0  0  0  0  0  0
   -0.6855    2.5359    5.4684 C   0  0  0  0  0  0  0  0  0  0  0  0
    0.1466    1.4871    5.8690 C   0  0  0  0  0  0  0  0  0  0  0  0
    0.1795    1.1408    7.2220 C   0  0  0  0  0  0  0  0  0  0  0  0
    1.1427    0.0196    7.5284 C   0  0  0  0  0  0  0  0  0  0  0  0
  1  2  1  0
  2  3  1  0
  3  4  1  0
  4  5  1  0
  5  6  2  0
  6  7  1  0
  7  8  2  0
  8  9  1  0
  9 10  2  0
  3 11  1  0
 11 12  2  0
 11 13  1  0
 13 14  1  0
 14 15  1  0
 15 16  2  0
 16 17  1  0
 17 18  2  0
 18 19  1  0
 19 20  2  0
 18 21  1  0
 21 22  1  0
 14 23  1  0
 23 24  2  0
 23 25  2  0
 23 26  1  0
 26 27  2  0
 27 28  1  0
 28 29  2  0
 29 30  1  0
 30 31  2  0
 31 32  1  0
 10  5  1  0
 20 15  1  0
 31 26  1  0
M  END
$$$$
