
     RDKit          3D

 32 34  0  0  0  0  0  0  0  0999 V2000
    1.1798    7.4056    9.0010 C   0  0  0  0  0  0  0  0  0  0  0  0
    0.8674    5.9734    8.6385 C   0  0  0  0  0  0  0  0  0  0  0  0
   -0.4269    5.5567    9.1078 N   0  0  0  0  0  0  0  0  0  0  0  0
   -1.6104    6.1668    8.5671 C   0  0  0  0  0  0  0  0  0  0  0  0
   -2.0581    5.6712    7.2657 C   0  0  0  0  0  0  0  0  0  0  0  0
   -1.5516    4.5247    6.6911 C   0  0  0  0  0  0  0  0  0  0  0  0
   -1.9722    4.0961    5.4978 N   0  0  0  0  0  0  0  0  0  0  0  0
   -2.9047    4.7646    4.8110 C   0  0  0  0  0  0  0  0  0  0  0  0
   -3.4482    5.9245    5.3443 C   0  0  0  0  0  0  0  0  0  0  0  0
   -3.0200    6.3680    6.5674 C   0  0  0  0  0  0  0  0  0  0  0  0
   -0.5450    4.5919   10.1191 C   0  0  0  0  0  0  0  0  0  0  0  0
   -1.6300    4.0407   10.4120 O   0  0  0  0  0  0  0  0  0  0  0  0
    0.7076    4.2350   10.8632 C   0  0  0  0  0  0  0  0  0  0  0  0
    1.3226    3.0393   10.4198 N   0  0  0  0  0  0  0  0  0  0  0  0
    0.5896    2.1987    9.4998 C   0  0  0  0  0  0  0  0  0  0  0  0
   -0.5762    1.5596    9.7865 C   0  0  0  0  0  0  0  0  0  0  0  0
   -1.1718    0.7881    8.8614 N   0  0  0  0  0  0  0  0  0  0  0  0
   -0.6736    0.5880    7.6001 C   0  0  0  0  0  0  0  0  0  0  0  0
    0.5322    1.2443    7.2888 C   0  0  0  0  0  0  0  0  0  0  0  0
    1.1330    2.0165    8.2080 C   0  0  0  0  0  0  0  0  0  0  0  0
   -1.2126   -0.1567    6.6710 O   0  0  0  0  0  0  0  0  0  0  0  0
   -2.3729   -0.6789    6.2621 C   0  0  0  0  0  0  0  0  0  0  0  0
    2.8859    2.5286   10.8459 S   0  0  0  0  0  6  0  0  0  0  0  0
    3.8238    3.7078   11.0575 O   0  0  0  0  0  0  0  0  0  0  0  0
    3.5209    1.8133    9.6348 O   0  0  0  0  0  0  0  0  0  0  0  0
    3.0068    1.5059   12.2342 C   0  0  0  0  0  0  0  0  0  0  0  0
    3.4125    2.0893   13.4453 C   0  0  0  0  0  0  0  0  0  0  0  0
    3.5722    1.3118   14.5719 C   0  0  0  0  0  0  0  0  0  0  0  0
    3.3521   -0.0420   14.5846 C   0  0  0  0  0  0  0  0  0  0  0  0
    2.9459   -0.6371   13.3874 C   0  0  0  0  0  0  0  0  0  0  0  0
    2.7926    0.1714   12.2585 C   0  0  0  0  0  0  0  0  0  0  0  0
    2.3157   -0.5849   11.0422 C   0  0  0  0  0  0  0  0  0  0  0  0
  1  2  1  0
  2  3  1  0
  3  4  1  0
  4  5  1  0
  5  6  2  0
  6  7  1  0
  7  8  2  0
  8  9  1  0
  9 10  2  0
  3 11  1  0
 11 12  2  0
 11 13  1  0
 13 14  1  0
 14 15  1  0
 15 16  2  0
 16 17  1  0
 17 18  2  0
 18 19  1  0
 19 20  2  0
 18 21  1  0
 21 22  1  0
 14 23  1  0
 23 24  2  0
 23 25  2  0
 23 26  1  0
 26 27  2  0
 27 28  1  0
 28 29  2  0
 29 30  1  0
 30 31  2  0
 31 32  1  0
 10  5  1  0
 20 15  1  0
 31 26  1  0
M  END
$$$$
