
     RDKit          3D

 32 34  0  0  0  0  0  0  0  0999 V2000
   -3.1249    5.5731   10.3817 C   0  0  0  0  0  0  0  0  0  0  0  0
   -2.4316    4.7132    9.3522 C   0  0  0  0  0  0  0  0  0  0  0  0
   -1.1894    5.2839    8.9047 N   0  0  0  0  0  0  0  0  0  0  0  0
   -1.2009    6.3311    7.9205 C   0  0  0  0  0  0  0  0  0  0  0  0
   -1.3171    5.9076    6.5252 C   0  0  0  0  0  0  0  0  0  0  0  0
   -1.4782    4.5883    6.1584 C   0  0  0  0  0  0  0  0  0  0  0  0
   -1.5753    4.2259    4.8762 N   0  0  0  0  0  0  0  0  0  0  0  0
   -1.5200    5.1320    3.8943 C   0  0  0  0  0  0  0  0  0  0  0  0
   -1.3596    6.4739    4.2087 C   0  0  0  0  0  0  0  0  0  0  0  0
   -1.2594    6.8502    5.5219 C   0  0  0  0  0  0  0  0  0  0  0  0
    0.0356    4.7994    9.3864 C   0  0  0  0  0  0  0  0  0  0  0  0
    1.1423    5.2191    8.9793 O   0  0  0  0  0  0  0  0  0  0  0  0
   -0.0259    3.7266   10.4331 C   0  0  0  0  0  0  0  0  0  0  0  0
    1.1829    3.0078   10.5958 N   0  0  0  0  0  0  0  0  0  0  0  0
    1.4062    1.8540    9.7536 C   0  0  0  0  0  0  0  0  0  0  0  0
    0.4373    1.1879    9.0700 C   0  0  0  0  0  0  0  0  0  0  0  0
    0.7497    0.1150    8.3236 N   0  0  0  0  0  0  0  0  0  0  0  0
    2.0217   -0.3792    8.1938 C   0  0  0  0  0  0  0  0  0  0  0  0
    3.0352    0.3011    8.8950 C   0  0  0  0  0  0  0  0  0  0  0  0
    2.7306    1.3735    9.6428 C   0  0  0  0  0  0  0  0  0  0  0  0
    2.3722   -1.4209    7.4864 O   0  0  0  0  0  0  0  0  0  0  0  0
    1.9482   -2.2523    6.5298 C   0  0  0  0  0  0  0  0  0  0  0  0
    2.4273    3.4206   11.6763 S   0  0  0  0  0  6  0  0  0  0  0  0
    2.0852    4.6689   12.4761 O   0  0  0  0  0  0  0  0  0  0  0  0
    3.6586    3.8745   10.8642 O   0  0  0  0  0  0  0  0  0  0  0  0
    2.9086    2.1949   12.7961 C   0  0  0  0  0  0  0  0  0  0  0  0
    3.9627    1.3447   12.4248 C   0  0  0  0  0  0  0  0  0  0  0  0
    4.3553    0.3200   13.2585 C   0  0  0  0  0  0  0  0  0  0  0  0
    3.7608    0.0702   14.4692 C   0  0  0  0  0  0  0  0  0  0  0  0
    2.7115    0.9091   14.8537 C   0  0  0  0  0  0  0  0  0  0  0  0
    2.3305    1.9397   13.9910 C   0  0  0  0  0  0  0  0  0  0  0  0
    1.2127    2.7941   14.5380 C   0  0  0  0  0  0  0  0  0  0  0  0
  1  2  1  0
  2  3  1  0
  3  4  1  0
  4  5  1  0
  5  6  2  0
  6  7  1  0
  7  8  2  0
  8  9  1  0
  9 10  2  0
  3 11  1  0
 11 12  2  0
 11 13  1  0
 13 14  1  0
 14 15  1  0
 15 16  2  0
 16 17  1  0
 17 18  2  0
 18 19  1  0
 19 20  2  0
 18 21  1  0
 21 22  1  0
 14 23  1  0
 23 24  2  0
 23 25  2  0
 23 26  1  0
 26 27  2  0
 27 28  1  0
 28 29  2  0
 29 30  1  0
 30 31  2  0
 31 32  1  0
 10  5  1  0
 20 15  1  0
 31 26  1  0
M  END
$$$$
