
     RDKit          3D

 32 34  0  0  0  0  0  0  0  0999 V2000
   -1.3203    6.7953   10.6997 C   0  0  0  0  0  0  0  0  0  0  0  0
   -0.2149    5.9134   10.1703 C   0  0  0  0  0  0  0  0  0  0  0  0
   -0.6407    5.1040    9.0600 N   0  0  0  0  0  0  0  0  0  0  0  0
   -1.8158    5.4729    8.3195 C   0  0  0  0  0  0  0  0  0  0  0  0
   -1.5907    6.1054    7.0199 C   0  0  0  0  0  0  0  0  0  0  0  0
   -0.3298    6.3242    6.5066 C   0  0  0  0  0  0  0  0  0  0  0  0
   -0.1500    6.9101    5.3195 N   0  0  0  0  0  0  0  0  0  0  0  0
   -1.1900    7.3087    4.5795 C   0  0  0  0  0  0  0  0  0  0  0  0
   -2.4806    7.1116    5.0491 C   0  0  0  0  0  0  0  0  0  0  0  0
   -2.6699    6.5115    6.2657 C   0  0  0  0  0  0  0  0  0  0  0  0
    0.0540    3.9340    8.7192 C   0  0  0  0  0  0  0  0  0  0  0  0
   -0.2569    3.2169    7.7415 O   0  0  0  0  0  0  0  0  0  0  0  0
    1.2131    3.5566    9.5934 C   0  0  0  0  0  0  0  0  0  0  0  0
    1.2043    2.2045   10.0132 N   0  0  0  0  0  0  0  0  0  0  0  0
    2.2401    1.7685   10.9227 C   0  0  0  0  0  0  0  0  0  0  0  0
    3.5738    1.7963   10.6574 C   0  0  0  0  0  0  0  0  0  0  0  0
    4.4559    1.3535   11.5693 N   0  0  0  0  0  0  0  0  0  0  0  0
    4.0995    0.8556   12.7958 C   0  0  0  0  0  0  0  0  0  0  0  0
    2.7222    0.8218   13.0847 C   0  0  0  0  0  0  0  0  0  0  0  0
    1.8351    1.2623   12.1784 C   0  0  0  0  0  0  0  0  0  0  0  0
    4.9190    0.4083   13.7105 O   0  0  0  0  0  0  0  0  0  0  0  0
    6.1931    0.0670   13.9263 C   0  0  0  0  0  0  0  0  0  0  0  0
    0.0380    1.0515    9.5700 S   0  0  0  0  0  6  0  0  0  0  0  0
   -1.1516    1.6953    8.8732 O   0  0  0  0  0  0  0  0  0  0  0  0
   -0.6007    0.4750   10.8511 O   0  0  0  0  0  0  0  0  0  0  0  0
    0.5868   -0.2516    8.5757 C   0  0  0  0  0  0  0  0  0  0  0  0
    0.7577   -1.5087    9.1775 C   0  0  0  0  0  0  0  0  0  0  0  0
    1.2389   -2.5709    8.4429 C   0  0  0  0  0  0  0  0  0  0  0  0
    1.5724   -2.4736    7.1160 C   0  0  0  0  0  0  0  0  0  0  0  0
    1.4059   -1.2293    6.5023 C   0  0  0  0  0  0  0  0  0  0  0  0
    0.9183   -0.1674    7.2680 C   0  0  0  0  0  0  0  0  0  0  0  0
    0.7503    1.1093    6.4803 C   0  0  0  0  0  0  0  0  0  0  0  0
  1  2  1  0
  2  3  1  0
  3  4  1  0
  4  5  1  0
  5  6  2  0
  6  7  1  0
  7  8  2  0
  8  9  1  0
  9 10  2  0
  3 11  1  0
 11 12  2  0
 11 13  1  0
 13 14  1  0
 14 15  1  0
 15 16  2  0
 16 17  1  0
 17 18  2  0
 18 19  1  0
 19 20  2  0
 18 21  1  0
 21 22  1  0
 14 23  1  0
 23 24  2  0
 23 25  2  0
 23 26  1  0
 26 27  2  0
 27 28  1  0
 28 29  2  0
 29 30  1  0
 30 31  2  0
 31 32  1  0
 10  5  1  0
 20 15  1  0
 31 26  1  0
M  END
$$$$
