
     RDKit          3D

 32 34  0  0  0  0  0  0  0  0999 V2000
    1.9661   -0.6156    9.7233 C   0  0  0  0  0  0  0  0  0  0  0  0
    1.2277    0.4816   10.4521 C   0  0  0  0  0  0  0  0  0  0  0  0
   -0.0980    0.6906    9.9346 N   0  0  0  0  0  0  0  0  0  0  0  0
   -0.8683   -0.4326    9.4757 C   0  0  0  0  0  0  0  0  0  0  0  0
   -0.8230   -0.7059    8.0394 C   0  0  0  0  0  0  0  0  0  0  0  0
   -0.1296   -1.7716    7.5057 C   0  0  0  0  0  0  0  0  0  0  0  0
   -0.0979   -1.9964    6.1892 N   0  0  0  0  0  0  0  0  0  0  0  0
   -0.7400   -1.1935    5.3340 C   0  0  0  0  0  0  0  0  0  0  0  0
   -1.4536   -0.1068    5.8187 C   0  0  0  0  0  0  0  0  0  0  0  0
   -1.4888    0.1278    7.1677 C   0  0  0  0  0  0  0  0  0  0  0  0
   -0.6307    1.9842    9.8324 C   0  0  0  0  0  0  0  0  0  0  0  0
   -1.6663    2.2453    9.1797 O   0  0  0  0  0  0  0  0  0  0  0  0
    0.1058    3.0775   10.5483 C   0  0  0  0  0  0  0  0  0  0  0  0
    0.6980    4.0342    9.6890 N   0  0  0  0  0  0  0  0  0  0  0  0
   -0.0828    4.5224    8.5744 C   0  0  0  0  0  0  0  0  0  0  0  0
    0.2209    4.3257    7.2634 C   0  0  0  0  0  0  0  0  0  0  0  0
   -0.5665    4.8352    6.3011 N   0  0  0  0  0  0  0  0  0  0  0  0
   -1.6981    5.5677    6.5503 C   0  0  0  0  0  0  0  0  0  0  0  0
   -2.0256    5.7784    7.9031 C   0  0  0  0  0  0  0  0  0  0  0  0
   -1.2434    5.2726    8.8699 C   0  0  0  0  0  0  0  0  0  0  0  0
   -2.4898    6.0879    5.6498 O   0  0  0  0  0  0  0  0  0  0  0  0
   -2.7575    6.0937    4.3404 C   0  0  0  0  0  0  0  0  0  0  0  0
    2.2487    4.6989    9.8883 S   0  0  0  0  0  6  0  0  0  0  0  0
    2.2564    6.1966    9.6201 O   0  0  0  0  0  0  0  0  0  0  0  0
    3.1671    4.1578    8.7723 O   0  0  0  0  0  0  0  0  0  0  0  0
    3.0048    4.4360   11.4203 C   0  0  0  0  0  0  0  0  0  0  0  0
    2.8723    5.4358   12.3973 C   0  0  0  0  0  0  0  0  0  0  0  0
    3.4948    5.3000   13.6193 C   0  0  0  0  0  0  0  0  0  0  0  0
    4.2615    4.2124   13.9522 C   0  0  0  0  0  0  0  0  0  0  0  0
    4.4012    3.2077   12.9911 C   0  0  0  0  0  0  0  0  0  0  0  0
    3.7622    3.3689   11.7593 C   0  0  0  0  0  0  0  0  0  0  0  0
    3.9614    2.1997   10.8254 C   0  0  0  0  0  0  0  0  0  0  0  0
  1  2  1  0
  2  3  1  0
  3  4  1  0
  4  5  1  0
  5  6  2  0
  6  7  1  0
  7  8  2  0
  8  9  1  0
  9 10  2  0
  3 11  1  0
 11 12  2  0
 11 13  1  0
 13 14  1  0
 14 15  1  0
 15 16  2  0
 16 17  1  0
 17 18  2  0
 18 19  1  0
 19 20  2  0
 18 21  1  0
 21 22  1  0
 14 23  1  0
 23 24  2  0
 23 25  2  0
 23 26  1  0
 26 27  2  0
 27 28  1  0
 28 29  2  0
 29 30  1  0
 30 31  2  0
 31 32  1  0
 10  5  1  0
 20 15  1  0
 31 26  1  0
M  END
$$$$
