
     RDKit          3D

 32 34  0  0  0  0  0  0  0  0999 V2000
   -1.5772    2.7521   12.9777 C   0  0  0  0  0  0  0  0  0  0  0  0
   -0.1529    3.2524   12.9450 C   0  0  0  0  0  0  0  0  0  0  0  0
   -0.0618    4.6272   12.5319 N   0  0  0  0  0  0  0  0  0  0  0  0
    0.1975    5.6484   13.5093 C   0  0  0  0  0  0  0  0  0  0  0  0
   -0.9541    6.1124   14.2827 C   0  0  0  0  0  0  0  0  0  0  0  0
   -2.0281    5.3001   14.5792 C   0  0  0  0  0  0  0  0  0  0  0  0
   -3.0717    5.7494   15.2820 N   0  0  0  0  0  0  0  0  0  0  0  0
   -3.1157    7.0095   15.7273 C   0  0  0  0  0  0  0  0  0  0  0  0
   -2.0604    7.8688   15.4572 C   0  0  0  0  0  0  0  0  0  0  0  0
   -0.9884    7.4127   14.7370 C   0  0  0  0  0  0  0  0  0  0  0  0
   -0.2666    4.9869   11.1917 C   0  0  0  0  0  0  0  0  0  0  0  0
   -0.0096    6.1277   10.7451 O   0  0  0  0  0  0  0  0  0  0  0  0
   -0.8247    3.9300   10.2853 C   0  0  0  0  0  0  0  0  0  0  0  0
   -0.1315    3.7959    9.0582 N   0  0  0  0  0  0  0  0  0  0  0  0
   -0.8197    4.1735    7.8440 C   0  0  0  0  0  0  0  0  0  0  0  0
   -1.0171    3.3583    6.7734 C   0  0  0  0  0  0  0  0  0  0  0  0
   -1.6595    3.8130    5.6843 N   0  0  0  0  0  0  0  0  0  0  0  0
   -2.1508    5.0873    5.5654 C   0  0  0  0  0  0  0  0  0  0  0  0
   -1.9547    5.9420    6.6666 C   0  0  0  0  0  0  0  0  0  0  0  0
   -1.3136    5.4948    7.7579 C   0  0  0  0  0  0  0  0  0  0  0  0
   -2.7750    5.5757    4.5261 O   0  0  0  0  0  0  0  0  0  0  0  0
   -3.2305    5.2600    3.3099 C   0  0  0  0  0  0  0  0  0  0  0  0
    1.4751    3.2679    8.8963 S   0  0  0  0  0  6  0  0  0  0  0  0
    2.2937    3.5699   10.1428 O   0  0  0  0  0  0  0  0  0  0  0  0
    2.1744    4.1298    7.8240 O   0  0  0  0  0  0  0  0  0  0  0  0
    1.6985    1.5972    8.5134 C   0  0  0  0  0  0  0  0  0  0  0  0
    1.7357    1.2345    7.1573 C   0  0  0  0  0  0  0  0  0  0  0  0
    1.8632   -0.0893    6.7955 C   0  0  0  0  0  0  0  0  0  0  0  0
    1.9592   -1.1089    7.7079 C   0  0  0  0  0  0  0  0  0  0  0  0
    1.9257   -0.7637    9.0616 C   0  0  0  0  0  0  0  0  0  0  0  0
    1.7942    0.5844    9.4035 C   0  0  0  0  0  0  0  0  0  0  0  0
    1.8079    0.8270   10.8934 C   0  0  0  0  0  0  0  0  0  0  0  0
  1  2  1  0
  2  3  1  0
  3  4  1  0
  4  5  1  0
  5  6  2  0
  6  7  1  0
  7  8  2  0
  8  9  1  0
  9 10  2  0
  3 11  1  0
 11 12  2  0
 11 13  1  0
 13 14  1  0
 14 15  1  0
 15 16  2  0
 16 17  1  0
 17 18  2  0
 18 19  1  0
 19 20  2  0
 18 21  1  0
 21 22  1  0
 14 23  1  0
 23 24  2  0
 23 25  2  0
 23 26  1  0
 26 27  2  0
 27 28  1  0
 28 29  2  0
 29 30  1  0
 30 31  2  0
 31 32  1  0
 10  5  1  0
 20 15  1  0
 31 26  1  0
M  END
$$$$
