
     RDKit          3D

 32 34  0  0  0  0  0  0  0  0999 V2000
    1.2752   -0.1998   10.7395 C   0  0  0  0  0  0  0  0  0  0  0  0
    0.9388    1.0389   11.5348 C   0  0  0  0  0  0  0  0  0  0  0  0
    1.9054    2.0887   11.3536 N   0  0  0  0  0  0  0  0  0  0  0  0
    3.2543    1.9013   11.8127 C   0  0  0  0  0  0  0  0  0  0  0  0
    3.4101    1.3063   13.1399 C   0  0  0  0  0  0  0  0  0  0  0  0
    2.3357    0.9662   13.9343 C   0  0  0  0  0  0  0  0  0  0  0  0
    2.5042    0.4299   15.1462 N   0  0  0  0  0  0  0  0  0  0  0  0
    3.7264    0.2008   15.6383 C   0  0  0  0  0  0  0  0  0  0  0  0
    4.8421    0.5240   14.8794 C   0  0  0  0  0  0  0  0  0  0  0  0
    4.6742    1.0742   13.6364 C   0  0  0  0  0  0  0  0  0  0  0  0
    1.5347    3.3105   10.7727 C   0  0  0  0  0  0  0  0  0  0  0  0
    2.2866    4.3109   10.7510 O   0  0  0  0  0  0  0  0  0  0  0  0
    0.1653    3.3825   10.1646 C   0  0  0  0  0  0  0  0  0  0  0  0
    0.1597    3.3626    8.7490 N   0  0  0  0  0  0  0  0  0  0  0  0
    0.0497    2.0816    8.0877 C   0  0  0  0  0  0  0  0  0  0  0  0
    0.9950    1.5402    7.2734 C   0  0  0  0  0  0  0  0  0  0  0  0
    0.7878    0.3451    6.6950 N   0  0  0  0  0  0  0  0  0  0  0  0
   -0.3496   -0.3998    6.8701 C   0  0  0  0  0  0  0  0  0  0  0  0
   -1.3365    0.1478    7.7115 C   0  0  0  0  0  0  0  0  0  0  0  0
   -1.1366    1.3414    8.2926 C   0  0  0  0  0  0  0  0  0  0  0  0
   -0.5984   -1.5612    6.3247 O   0  0  0  0  0  0  0  0  0  0  0  0
   -1.3695   -2.1714    5.4196 C   0  0  0  0  0  0  0  0  0  0  0  0
    0.2241    4.7369    7.7523 S   0  0  0  0  0  6  0  0  0  0  0  0
    1.2868    4.5981    6.6723 O   0  0  0  0  0  0  0  0  0  0  0  0
    0.7490    5.9271    8.5826 O   0  0  0  0  0  0  0  0  0  0  0  0
   -1.2531    5.1938    6.9797 C   0  0  0  0  0  0  0  0  0  0  0  0
   -1.9740    6.2679    7.5260 C   0  0  0  0  0  0  0  0  0  0  0  0
   -3.1820    6.6436    6.9793 C   0  0  0  0  0  0  0  0  0  0  0  0
   -3.7431    6.0125    5.8983 C   0  0  0  0  0  0  0  0  0  0  0  0
   -3.0367    4.9429    5.3421 C   0  0  0  0  0  0  0  0  0  0  0  0
   -1.8154    4.5798    5.9149 C   0  0  0  0  0  0  0  0  0  0  0  0
   -1.1369    3.4362    5.2002 C   0  0  0  0  0  0  0  0  0  0  0  0
  1  2  1  0
  2  3  1  0
  3  4  1  0
  4  5  1  0
  5  6  2  0
  6  7  1  0
  7  8  2  0
  8  9  1  0
  9 10  2  0
  3 11  1  0
 11 12  2  0
 11 13  1  0
 13 14  1  0
 14 15  1  0
 15 16  2  0
 16 17  1  0
 17 18  2  0
 18 19  1  0
 19 20  2  0
 18 21  1  0
 21 22  1  0
 14 23  1  0
 23 24  2  0
 23 25  2  0
 23 26  1  0
 26 27  2  0
 27 28  1  0
 28 29  2  0
 29 30  1  0
 30 31  2  0
 31 32  1  0
 10  5  1  0
 20 15  1  0
 31 26  1  0
M  END
$$$$
