
     RDKit          3D

 32 34  0  0  0  0  0  0  0  0999 V2000
   -1.1114    1.1190    7.6246 C   0  0  0  0  0  0  0  0  0  0  0  0
   -0.1031    2.2207    7.4026 C   0  0  0  0  0  0  0  0  0  0  0  0
   -0.6126    3.5152    7.7685 N   0  0  0  0  0  0  0  0  0  0  0  0
   -1.8510    3.9780    7.2049 C   0  0  0  0  0  0  0  0  0  0  0  0
   -1.8656    4.1880    5.7574 C   0  0  0  0  0  0  0  0  0  0  0  0
   -0.8104    3.8352    4.9430 C   0  0  0  0  0  0  0  0  0  0  0  0
   -0.8451    4.0436    3.6239 N   0  0  0  0  0  0  0  0  0  0  0  0
   -1.9089    4.6045    3.0391 C   0  0  0  0  0  0  0  0  0  0  0  0
   -2.9985    4.9778    3.8128 C   0  0  0  0  0  0  0  0  0  0  0  0
   -2.9674    4.7663    5.1657 C   0  0  0  0  0  0  0  0  0  0  0  0
    0.1082    4.3490    8.6360 C   0  0  0  0  0  0  0  0  0  0  0  0
   -0.1663    5.5586    8.8036 O   0  0  0  0  0  0  0  0  0  0  0  0
    1.2558    3.7263    9.3747 C   0  0  0  0  0  0  0  0  0  0  0  0
    0.9400    3.3145   10.6919 N   0  0  0  0  0  0  0  0  0  0  0  0
    1.1059    1.9175   11.0254 C   0  0  0  0  0  0  0  0  0  0  0  0
    0.1211    1.1049   11.4940 C   0  0  0  0  0  0  0  0  0  0  0  0
    0.3843   -0.1797   11.7876 N   0  0  0  0  0  0  0  0  0  0  0  0
    1.6196   -0.7566   11.6452 C   0  0  0  0  0  0  0  0  0  0  0  0
    2.6487    0.0724   11.1599 C   0  0  0  0  0  0  0  0  0  0  0  0
    2.3932    1.3568   10.8647 C   0  0  0  0  0  0  0  0  0  0  0  0
    1.9245   -1.9968   11.9232 O   0  0  0  0  0  0  0  0  0  0  0  0
    1.4022   -3.1587   12.3277 C   0  0  0  0  0  0  0  0  0  0  0  0
    0.4226    4.3444   11.9400 S   0  0  0  0  0  6  0  0  0  0  0  0
    1.1210    4.0289   13.2544 O   0  0  0  0  0  0  0  0  0  0  0  0
   -1.0526    4.0279   12.2643 O   0  0  0  0  0  0  0  0  0  0  0  0
    0.5870    6.0409   11.6521 C   0  0  0  0  0  0  0  0  0  0  0  0
    1.8569    6.6152   11.8235 C   0  0  0  0  0  0  0  0  0  0  0  0
    2.0347    7.9713   11.6543 C   0  0  0  0  0  0  0  0  0  0  0  0
    1.0144    8.8239   11.3175 C   0  0  0  0  0  0  0  0  0  0  0  0
   -0.2550    8.2671   11.1413 C   0  0  0  0  0  0  0  0  0  0  0  0
   -0.4106    6.8904   11.3200 C   0  0  0  0  0  0  0  0  0  0  0  0
   -1.8190    6.4103   11.0654 C   0  0  0  0  0  0  0  0  0  0  0  0
  1  2  1  0
  2  3  1  0
  3  4  1  0
  4  5  1  0
  5  6  2  0
  6  7  1  0
  7  8  2  0
  8  9  1  0
  9 10  2  0
  3 11  1  0
 11 12  2  0
 11 13  1  0
 13 14  1  0
 14 15  1  0
 15 16  2  0
 16 17  1  0
 17 18  2  0
 18 19  1  0
 19 20  2  0
 18 21  1  0
 21 22  1  0
 14 23  1  0
 23 24  2  0
 23 25  2  0
 23 26  1  0
 26 27  2  0
 27 28  1  0
 28 29  2  0
 29 30  1  0
 30 31  2  0
 31 32  1  0
 10  5  1  0
 20 15  1  0
 31 26  1  0
M  END
$$$$
