
     RDKit          3D

 32 34  0  0  0  0  0  0  0  0999 V2000
   -0.8132    1.6556    6.0650 C   0  0  0  0  0  0  0  0  0  0  0  0
   -1.1666    2.5621    7.2197 C   0  0  0  0  0  0  0  0  0  0  0  0
   -0.3865    3.7706    7.2295 N   0  0  0  0  0  0  0  0  0  0  0  0
   -0.5665    4.7425    6.1862 C   0  0  0  0  0  0  0  0  0  0  0  0
   -1.3345    5.9366    6.5385 C   0  0  0  0  0  0  0  0  0  0  0  0
   -1.8841    6.1264    7.7887 C   0  0  0  0  0  0  0  0  0  0  0  0
   -2.5874    7.2231    8.0842 N   0  0  0  0  0  0  0  0  0  0  0  0
   -2.7866    8.1837    7.1755 C   0  0  0  0  0  0  0  0  0  0  0  0
   -2.2544    8.0429    5.9018 C   0  0  0  0  0  0  0  0  0  0  0  0
   -1.5328    6.9201    5.5943 C   0  0  0  0  0  0  0  0  0  0  0  0
    0.5794    3.9911    8.2225 C   0  0  0  0  0  0  0  0  0  0  0  0
    0.5922    5.0122    8.9462 O   0  0  0  0  0  0  0  0  0  0  0  0
    1.6302    2.9339    8.3905 C   0  0  0  0  0  0  0  0  0  0  0  0
    1.3023    1.9391    9.3431 N   0  0  0  0  0  0  0  0  0  0  0  0
    1.0240    0.6040    8.8632 C   0  0  0  0  0  0  0  0  0  0  0  0
    1.3992    0.1169    7.6501 C   0  0  0  0  0  0  0  0  0  0  0  0
    1.0774   -1.1383    7.2943 N   0  0  0  0  0  0  0  0  0  0  0  0
    0.3712   -1.9998    8.0931 C   0  0  0  0  0  0  0  0  0  0  0  0
   -0.0230   -1.5096    9.3525 C   0  0  0  0  0  0  0  0  0  0  0  0
    0.2947   -0.2565    9.7146 C   0  0  0  0  0  0  0  0  0  0  0  0
    0.0298   -3.2241    7.7885 O   0  0  0  0  0  0  0  0  0  0  0  0
    0.0578   -4.1251    6.8017 C   0  0  0  0  0  0  0  0  0  0  0  0
    1.2549    2.1747   11.0249 S   0  0  0  0  0  6  0  0  0  0  0  0
   -0.1292    1.8962   11.5922 O   0  0  0  0  0  0  0  0  0  0  0  0
    1.4374    3.6785   11.3200 O   0  0  0  0  0  0  0  0  0  0  0  0
    2.3962    1.2724   11.9582 C   0  0  0  0  0  0  0  0  0  0  0  0
    1.9230    0.1663   12.6822 C   0  0  0  0  0  0  0  0  0  0  0  0
    2.7800   -0.5595   13.4810 C   0  0  0  0  0  0  0  0  0  0  0  0
    4.1113   -0.2589   13.6175 C   0  0  0  0  0  0  0  0  0  0  0  0
    4.5979    0.8381   12.9016 C   0  0  0  0  0  0  0  0  0  0  0  0
    3.7095    1.5592   12.1001 C   0  0  0  0  0  0  0  0  0  0  0  0
    4.3660    2.6949   11.3530 C   0  0  0  0  0  0  0  0  0  0  0  0
  1  2  1  0
  2  3  1  0
  3  4  1  0
  4  5  1  0
  5  6  2  0
  6  7  1  0
  7  8  2  0
  8  9  1  0
  9 10  2  0
  3 11  1  0
 11 12  2  0
 11 13  1  0
 13 14  1  0
 14 15  1  0
 15 16  2  0
 16 17  1  0
 17 18  2  0
 18 19  1  0
 19 20  2  0
 18 21  1  0
 21 22  1  0
 14 23  1  0
 23 24  2  0
 23 25  2  0
 23 26  1  0
 26 27  2  0
 27 28  1  0
 28 29  2  0
 29 30  1  0
 30 31  2  0
 31 32  1  0
 10  5  1  0
 20 15  1  0
 31 26  1  0
M  END
$$$$
