
     RDKit          3D

 32 34  0  0  0  0  0  0  0  0999 V2000
   -1.8957    5.2443    6.9107 C   0  0  0  0  0  0  0  0  0  0  0  0
   -1.6913    4.7830    8.3339 C   0  0  0  0  0  0  0  0  0  0  0  0
   -0.5250    5.3675    8.9398 N   0  0  0  0  0  0  0  0  0  0  0  0
   -0.1615    6.7215    8.6236 C   0  0  0  0  0  0  0  0  0  0  0  0
   -0.7445    7.7632    9.4690 C   0  0  0  0  0  0  0  0  0  0  0  0
   -1.5523    7.4796   10.5498 C   0  0  0  0  0  0  0  0  0  0  0  0
   -2.0784    8.4494   11.3030 N   0  0  0  0  0  0  0  0  0  0  0  0
   -1.8413    9.7384   11.0373 C   0  0  0  0  0  0  0  0  0  0  0  0
   -1.0343   10.0788    9.9612 C   0  0  0  0  0  0  0  0  0  0  0  0
   -0.4927    9.0880    9.1860 C   0  0  0  0  0  0  0  0  0  0  0  0
    0.2861    4.6159    9.8027 C   0  0  0  0  0  0  0  0  0  0  0  0
    1.2930    5.0890   10.3764 O   0  0  0  0  0  0  0  0  0  0  0  0
   -0.1012    3.1828   10.0180 C   0  0  0  0  0  0  0  0  0  0  0  0
    0.7349    2.2522    9.3552 N   0  0  0  0  0  0  0  0  0  0  0  0
    0.1237    1.3369    8.4176 C   0  0  0  0  0  0  0  0  0  0  0  0
    0.2393    1.4134    7.0647 C   0  0  0  0  0  0  0  0  0  0  0  0
   -0.3822    0.5174    6.2794 N   0  0  0  0  0  0  0  0  0  0  0  0
   -1.1550   -0.5090    6.7574 C   0  0  0  0  0  0  0  0  0  0  0  0
   -1.2826   -0.6012    8.1562 C   0  0  0  0  0  0  0  0  0  0  0  0
   -0.6648    0.2905    8.9471 C   0  0  0  0  0  0  0  0  0  0  0  0
   -1.7827   -1.3986    6.0342 O   0  0  0  0  0  0  0  0  0  0  0  0
   -2.2011   -1.6610    4.7924 C   0  0  0  0  0  0  0  0  0  0  0  0
    2.4211    2.1521    9.5361 S   0  0  0  0  0  6  0  0  0  0  0  0
    3.1046    3.4588    9.1614 O   0  0  0  0  0  0  0  0  0  0  0  0
    2.9757    1.1734    8.4796 O   0  0  0  0  0  0  0  0  0  0  0  0
    2.9987    1.6862   11.0972 C   0  0  0  0  0  0  0  0  0  0  0  0
    3.5814    2.6772   11.9036 C   0  0  0  0  0  0  0  0  0  0  0  0
    4.1020    2.3516   13.1374 C   0  0  0  0  0  0  0  0  0  0  0  0
    4.0860    1.0771   13.6441 C   0  0  0  0  0  0  0  0  0  0  0  0
    3.5076    0.0800   12.8543 C   0  0  0  0  0  0  0  0  0  0  0  0
    2.9883    0.4342   11.6067 C   0  0  0  0  0  0  0  0  0  0  0  0
    2.3606   -0.7244   10.8701 C   0  0  0  0  0  0  0  0  0  0  0  0
  1  2  1  0
  2  3  1  0
  3  4  1  0
  4  5  1  0
  5  6  2  0
  6  7  1  0
  7  8  2  0
  8  9  1  0
  9 10  2  0
  3 11  1  0
 11 12  2  0
 11 13  1  0
 13 14  1  0
 14 15  1  0
 15 16  2  0
 16 17  1  0
 17 18  2  0
 18 19  1  0
 19 20  2  0
 18 21  1  0
 21 22  1  0
 14 23  1  0
 23 24  2  0
 23 25  2  0
 23 26  1  0
 26 27  2  0
 27 28  1  0
 28 29  2  0
 29 30  1  0
 30 31  2  0
 31 32  1  0
 10  5  1  0
 20 15  1  0
 31 26  1  0
M  END
$$$$
