
     RDKit          3D

 32 34  0  0  0  0  0  0  0  0999 V2000
    0.1072   -0.7418   10.8400 C   0  0  0  0  0  0  0  0  0  0  0  0
   -0.0337    0.3599    9.8170 C   0  0  0  0  0  0  0  0  0  0  0  0
   -1.2462    1.1154    9.9852 N   0  0  0  0  0  0  0  0  0  0  0  0
   -2.4808    0.6078    9.4526 C   0  0  0  0  0  0  0  0  0  0  0  0
   -2.4997    0.3249    8.0176 C   0  0  0  0  0  0  0  0  0  0  0  0
   -3.6334   -0.0986    7.3569 C   0  0  0  0  0  0  0  0  0  0  0  0
   -3.6235   -0.3569    6.0463 N   0  0  0  0  0  0  0  0  0  0  0  0
   -2.5094   -0.2142    5.3207 C   0  0  0  0  0  0  0  0  0  0  0  0
   -1.3405    0.2101    5.9363 C   0  0  0  0  0  0  0  0  0  0  0  0
   -1.3458    0.4760    7.2799 C   0  0  0  0  0  0  0  0  0  0  0  0
   -1.2289    2.3633   10.6254 C   0  0  0  0  0  0  0  0  0  0  0  0
   -2.2016    3.1509   10.6099 O   0  0  0  0  0  0  0  0  0  0  0  0
    0.0324    2.7361   11.3466 C   0  0  0  0  0  0  0  0  0  0  0  0
    0.8446    3.6628   10.6494 N   0  0  0  0  0  0  0  0  0  0  0  0
    0.3744    4.1531    9.3732 C   0  0  0  0  0  0  0  0  0  0  0  0
   -0.4773    5.2000    9.2053 C   0  0  0  0  0  0  0  0  0  0  0  0
   -0.8647    5.5681    7.9724 N   0  0  0  0  0  0  0  0  0  0  0  0
   -0.4502    4.9434    6.8247 C   0  0  0  0  0  0  0  0  0  0  0  0
    0.4328    3.8586    6.9831 C   0  0  0  0  0  0  0  0  0  0  0  0
    0.8239    3.4850    8.2118 C   0  0  0  0  0  0  0  0  0  0  0  0
   -0.8041    5.2606    5.6072 O   0  0  0  0  0  0  0  0  0  0  0  0
   -1.1146    6.2969    4.8223 C   0  0  0  0  0  0  0  0  0  0  0  0
    2.3186    4.2896   11.2157 S   0  0  0  0  0  6  0  0  0  0  0  0
    2.1851    4.8547   12.6221 O   0  0  0  0  0  0  0  0  0  0  0  0
    2.6752    5.5422   10.3878 O   0  0  0  0  0  0  0  0  0  0  0  0
    3.6653    3.2060   11.2109 C   0  0  0  0  0  0  0  0  0  0  0  0
    4.4089    3.0893   10.0255 C   0  0  0  0  0  0  0  0  0  0  0  0
    5.4630    2.2045    9.9508 C   0  0  0  0  0  0  0  0  0  0  0  0
    5.8439    1.4039   10.9973 C   0  0  0  0  0  0  0  0  0  0  0  0
    5.1148    1.5099   12.1846 C   0  0  0  0  0  0  0  0  0  0  0  0
    4.0497    2.4125   12.2354 C   0  0  0  0  0  0  0  0  0  0  0  0
    3.3687    2.4578   13.5819 C   0  0  0  0  0  0  0  0  0  0  0  0
  1  2  1  0
  2  3  1  0
  3  4  1  0
  4  5  1  0
  5  6  2  0
  6  7  1  0
  7  8  2  0
  8  9  1  0
  9 10  2  0
  3 11  1  0
 11 12  2  0
 11 13  1  0
 13 14  1  0
 14 15  1  0
 15 16  2  0
 16 17  1  0
 17 18  2  0
 18 19  1  0
 19 20  2  0
 18 21  1  0
 21 22  1  0
 14 23  1  0
 23 24  2  0
 23 25  2  0
 23 26  1  0
 26 27  2  0
 27 28  1  0
 28 29  2  0
 29 30  1  0
 30 31  2  0
 31 32  1  0
 10  5  1  0
 20 15  1  0
 31 26  1  0
M  END
$$$$
