
     RDKit          3D

 32 34  0  0  0  0  0  0  0  0999 V2000
    0.2540    7.5208    9.5948 C   0  0  0  0  0  0  0  0  0  0  0  0
    0.2248    6.2118    8.8428 C   0  0  0  0  0  0  0  0  0  0  0  0
   -0.9579    5.4424    9.1228 N   0  0  0  0  0  0  0  0  0  0  0  0
   -2.1862    5.7530    8.4444 C   0  0  0  0  0  0  0  0  0  0  0  0
   -2.2874    5.3122    7.0533 C   0  0  0  0  0  0  0  0  0  0  0  0
   -1.3553    4.4839    6.4649 C   0  0  0  0  0  0  0  0  0  0  0  0
   -1.4664    4.1006    5.1899 N   0  0  0  0  0  0  0  0  0  0  0  0
   -2.4902    4.5066    4.4315 C   0  0  0  0  0  0  0  0  0  0  0  0
   -3.4568    5.3407    4.9748 C   0  0  0  0  0  0  0  0  0  0  0  0
   -3.3470    5.7365    6.2814 C   0  0  0  0  0  0  0  0  0  0  0  0
   -0.9361    4.4202   10.0830 C   0  0  0  0  0  0  0  0  0  0  0  0
   -1.8891    3.6275   10.2566 O   0  0  0  0  0  0  0  0  0  0  0  0
    0.3015    4.3078   10.9233 C   0  0  0  0  0  0  0  0  0  0  0  0
    1.1963    3.2948   10.5018 N   0  0  0  0  0  0  0  0  0  0  0  0
    0.6651    2.2014    9.7191 C   0  0  0  0  0  0  0  0  0  0  0  0
    0.7133    2.1174    8.3625 C   0  0  0  0  0  0  0  0  0  0  0  0
    0.1759    1.0612    7.7289 N   0  0  0  0  0  0  0  0  0  0  0  0
   -0.4421    0.0201    8.3718 C   0  0  0  0  0  0  0  0  0  0  0  0
   -0.4984    0.0929    9.7765 C   0  0  0  0  0  0  0  0  0  0  0  0
    0.0361    1.1452   10.4162 C   0  0  0  0  0  0  0  0  0  0  0  0
   -0.9839   -1.0226    7.7995 O   0  0  0  0  0  0  0  0  0  0  0  0
   -1.0522   -1.6896    6.6433 C   0  0  0  0  0  0  0  0  0  0  0  0
    2.8684    3.2816   10.8016 S   0  0  0  0  0  6  0  0  0  0  0  0
    3.3458    4.6060   11.3788 O   0  0  0  0  0  0  0  0  0  0  0  0
    3.6136    3.2208    9.4516 O   0  0  0  0  0  0  0  0  0  0  0  0
    3.4537    2.0201   11.8282 C   0  0  0  0  0  0  0  0  0  0  0  0
    3.4539    2.2489   13.2136 C   0  0  0  0  0  0  0  0  0  0  0  0
    3.9541    1.2965   14.0750 C   0  0  0  0  0  0  0  0  0  0  0  0
    4.4691    0.0986   13.6493 C   0  0  0  0  0  0  0  0  0  0  0  0
    4.4740   -0.1448   12.2733 C   0  0  0  0  0  0  0  0  0  0  0  0
    3.9632    0.8364   11.4201 C   0  0  0  0  0  0  0  0  0  0  0  0
    3.9922    0.4366    9.9647 C   0  0  0  0  0  0  0  0  0  0  0  0
  1  2  1  0
  2  3  1  0
  3  4  1  0
  4  5  1  0
  5  6  2  0
  6  7  1  0
  7  8  2  0
  8  9  1  0
  9 10  2  0
  3 11  1  0
 11 12  2  0
 11 13  1  0
 13 14  1  0
 14 15  1  0
 15 16  2  0
 16 17  1  0
 17 18  2  0
 18 19  1  0
 19 20  2  0
 18 21  1  0
 21 22  1  0
 14 23  1  0
 23 24  2  0
 23 25  2  0
 23 26  1  0
 26 27  2  0
 27 28  1  0
 28 29  2  0
 29 30  1  0
 30 31  2  0
 31 32  1  0
 10  5  1  0
 20 15  1  0
 31 26  1  0
M  END
$$$$
