
     RDKit          3D

 32 34  0  0  0  0  0  0  0  0999 V2000
   -1.1846    6.9889   11.2059 C   0  0  0  0  0  0  0  0  0  0  0  0
   -0.0888    6.3983   10.3512 C   0  0  0  0  0  0  0  0  0  0  0  0
   -0.5825    5.8814    9.1030 N   0  0  0  0  0  0  0  0  0  0  0  0
   -1.1439    6.7805    8.1324 C   0  0  0  0  0  0  0  0  0  0  0  0
   -1.6190    6.1761    6.8879 C   0  0  0  0  0  0  0  0  0  0  0  0
   -0.8334    6.0813    5.7588 C   0  0  0  0  0  0  0  0  0  0  0  0
   -1.2927    5.5306    4.6316 N   0  0  0  0  0  0  0  0  0  0  0  0
   -2.5372    5.0477    4.5539 C   0  0  0  0  0  0  0  0  0  0  0  0
   -3.3695    5.1174    5.6619 C   0  0  0  0  0  0  0  0  0  0  0  0
   -2.9031    5.6813    6.8197 C   0  0  0  0  0  0  0  0  0  0  0  0
   -0.5619    4.5036    8.8406 C   0  0  0  0  0  0  0  0  0  0  0  0
   -0.5729    4.0301    7.6820 O   0  0  0  0  0  0  0  0  0  0  0  0
   -0.5300    3.5891   10.0292 C   0  0  0  0  0  0  0  0  0  0  0  0
    0.6705    2.8496   10.1575 N   0  0  0  0  0  0  0  0  0  0  0  0
    0.8619    1.7085    9.2907 C   0  0  0  0  0  0  0  0  0  0  0  0
   -0.0238    0.6878    9.1377 C   0  0  0  0  0  0  0  0  0  0  0  0
    0.2573   -0.3362    8.3142 N   0  0  0  0  0  0  0  0  0  0  0  0
    1.4155   -0.4342    7.5874 C   0  0  0  0  0  0  0  0  0  0  0  0
    2.3412    0.6159    7.7349 C   0  0  0  0  0  0  0  0  0  0  0  0
    2.0673    1.6421    8.5561 C   0  0  0  0  0  0  0  0  0  0  0  0
    1.7353   -1.4116    6.7806 O   0  0  0  0  0  0  0  0  0  0  0  0
    1.3213   -2.5984    6.3262 C   0  0  0  0  0  0  0  0  0  0  0  0
    1.9393    3.2239   11.2235 S   0  0  0  0  0  6  0  0  0  0  0  0
    1.5147    4.2504   12.2634 O   0  0  0  0  0  0  0  0  0  0  0  0
    3.0366    3.9776   10.4428 O   0  0  0  0  0  0  0  0  0  0  0  0
    2.6547    1.8923   12.0619 C   0  0  0  0  0  0  0  0  0  0  0  0
    3.9000    1.4260   11.6106 C   0  0  0  0  0  0  0  0  0  0  0  0
    4.4933    0.3368   12.2115 C   0  0  0  0  0  0  0  0  0  0  0  0
    3.9243   -0.3431   13.2581 C   0  0  0  0  0  0  0  0  0  0  0  0
    2.6858    0.1103   13.7199 C   0  0  0  0  0  0  0  0  0  0  0  0
    2.1036    1.2150   13.0937 C   0  0  0  0  0  0  0  0  0  0  0  0
    0.7877    1.6257   13.7089 C   0  0  0  0  0  0  0  0  0  0  0  0
  1  2  1  0
  2  3  1  0
  3  4  1  0
  4  5  1  0
  5  6  2  0
  6  7  1  0
  7  8  2  0
  8  9  1  0
  9 10  2  0
  3 11  1  0
 11 12  2  0
 11 13  1  0
 13 14  1  0
 14 15  1  0
 15 16  2  0
 16 17  1  0
 17 18  2  0
 18 19  1  0
 19 20  2  0
 18 21  1  0
 21 22  1  0
 14 23  1  0
 23 24  2  0
 23 25  2  0
 23 26  1  0
 26 27  2  0
 27 28  1  0
 28 29  2  0
 29 30  1  0
 30 31  2  0
 31 32  1  0
 10  5  1  0
 20 15  1  0
 31 26  1  0
M  END
$$$$
