
     RDKit          3D

 32 34  0  0  0  0  0  0  0  0999 V2000
   -2.6319    4.9000    7.4621 C   0  0  0  0  0  0  0  0  0  0  0  0
   -1.1710    5.0033    7.8299 C   0  0  0  0  0  0  0  0  0  0  0  0
   -0.9668    5.1044    9.2502 N   0  0  0  0  0  0  0  0  0  0  0  0
   -1.0290    6.3906    9.8885 C   0  0  0  0  0  0  0  0  0  0  0  0
   -0.8616    7.5544    9.0184 C   0  0  0  0  0  0  0  0  0  0  0  0
   -0.7310    7.4484    7.6498 C   0  0  0  0  0  0  0  0  0  0  0  0
   -0.5725    8.5265    6.8770 N   0  0  0  0  0  0  0  0  0  0  0  0
   -0.5344    9.7556    7.4023 C   0  0  0  0  0  0  0  0  0  0  0  0
   -0.6619    9.9185    8.7743 C   0  0  0  0  0  0  0  0  0  0  0  0
   -0.8244    8.8161    9.5708 C   0  0  0  0  0  0  0  0  0  0  0  0
   -0.6644    3.9665   10.0126 C   0  0  0  0  0  0  0  0  0  0  0  0
   -0.3249    4.0227   11.2160 O   0  0  0  0  0  0  0  0  0  0  0  0
   -0.7595    2.6411    9.3166 C   0  0  0  0  0  0  0  0  0  0  0  0
    0.4651    1.9337    9.2506 N   0  0  0  0  0  0  0  0  0  0  0  0
    0.4407    0.5781    8.7486 C   0  0  0  0  0  0  0  0  0  0  0  0
    0.5017    0.2313    7.4349 C   0  0  0  0  0  0  0  0  0  0  0  0
    0.4578   -1.0618    7.0722 N   0  0  0  0  0  0  0  0  0  0  0  0
    0.3519   -2.0998    7.9613 C   0  0  0  0  0  0  0  0  0  0  0  0
    0.2889   -1.7559    9.3249 C   0  0  0  0  0  0  0  0  0  0  0  0
    0.3320   -0.4661    9.6947 C   0  0  0  0  0  0  0  0  0  0  0  0
    0.2991   -3.3697    7.6563 O   0  0  0  0  0  0  0  0  0  0  0  0
   -0.1053   -4.2237    6.7111 C   0  0  0  0  0  0  0  0  0  0  0  0
    1.9838    2.5682    9.6715 S   0  0  0  0  0  6  0  0  0  0  0  0
    1.8582    3.9303   10.3379 O   0  0  0  0  0  0  0  0  0  0  0  0
    2.7571    2.9022    8.3784 O   0  0  0  0  0  0  0  0  0  0  0  0
    2.9750    1.5778   10.6837 C   0  0  0  0  0  0  0  0  0  0  0  0
    4.0248    0.8670   10.0801 C   0  0  0  0  0  0  0  0  0  0  0  0
    4.8160    0.0251   10.8315 C   0  0  0  0  0  0  0  0  0  0  0  0
    4.6360   -0.1684   12.1775 C   0  0  0  0  0  0  0  0  0  0  0  0
    3.5964    0.5337   12.7931 C   0  0  0  0  0  0  0  0  0  0  0  0
    2.8071    1.3797   12.0103 C   0  0  0  0  0  0  0  0  0  0  0  0
    1.7448    2.1057   12.7998 C   0  0  0  0  0  0  0  0  0  0  0  0
  1  2  1  0
  2  3  1  0
  3  4  1  0
  4  5  1  0
  5  6  2  0
  6  7  1  0
  7  8  2  0
  8  9  1  0
  9 10  2  0
  3 11  1  0
 11 12  2  0
 11 13  1  0
 13 14  1  0
 14 15  1  0
 15 16  2  0
 16 17  1  0
 17 18  2  0
 18 19  1  0
 19 20  2  0
 18 21  1  0
 21 22  1  0
 14 23  1  0
 23 24  2  0
 23 25  2  0
 23 26  1  0
 26 27  2  0
 27 28  1  0
 28 29  2  0
 29 30  1  0
 30 31  2  0
 31 32  1  0
 10  5  1  0
 20 15  1  0
 31 26  1  0
M  END
$$$$
