
     RDKit          3D

 32 34  0  0  0  0  0  0  0  0999 V2000
    0.6098    7.1585    9.8416 C   0  0  0  0  0  0  0  0  0  0  0  0
   -0.1569    5.9281    9.4194 C   0  0  0  0  0  0  0  0  0  0  0  0
    0.4784    5.2289    8.3347 N   0  0  0  0  0  0  0  0  0  0  0  0
    0.3356    5.7188    6.9913 C   0  0  0  0  0  0  0  0  0  0  0  0
   -0.9818    5.5524    6.3776 C   0  0  0  0  0  0  0  0  0  0  0  0
   -2.0973    5.1811    7.0979 C   0  0  0  0  0  0  0  0  0  0  0  0
   -3.2887    5.0292    6.5130 N   0  0  0  0  0  0  0  0  0  0  0  0
   -3.4468    5.2320    5.2007 C   0  0  0  0  0  0  0  0  0  0  0  0
   -2.3564    5.6078    4.4293 C   0  0  0  0  0  0  0  0  0  0  0  0
   -1.1329    5.7647    5.0246 C   0  0  0  0  0  0  0  0  0  0  0  0
    1.2000    4.0490    8.5689 C   0  0  0  0  0  0  0  0  0  0  0  0
    1.3747    3.1717    7.6934 O   0  0  0  0  0  0  0  0  0  0  0  0
    1.7682    3.8654    9.9449 C   0  0  0  0  0  0  0  0  0  0  0  0
    1.4373    2.6273   10.5465 N   0  0  0  0  0  0  0  0  0  0  0  0
    1.0209    1.5430    9.6855 C   0  0  0  0  0  0  0  0  0  0  0  0
    1.8517    0.6089    9.1499 C   0  0  0  0  0  0  0  0  0  0  0  0
    1.3637   -0.3527    8.3482 N   0  0  0  0  0  0  0  0  0  0  0  0
    0.0389   -0.4684    8.0156 C   0  0  0  0  0  0  0  0  0  0  0  0
   -0.8332    0.4911    8.5637 C   0  0  0  0  0  0  0  0  0  0  0  0
   -0.3527    1.4548    9.3654 C   0  0  0  0  0  0  0  0  0  0  0  0
   -0.4803   -1.3804    7.2364 O   0  0  0  0  0  0  0  0  0  0  0  0
   -0.1653   -2.3854    6.4136 C   0  0  0  0  0  0  0  0  0  0  0  0
    1.5357    2.2916   12.2090 S   0  0  0  0  0  6  0  0  0  0  0  0
    0.1926    1.8532   12.7738 O   0  0  0  0  0  0  0  0  0  0  0  0
    1.7989    3.6104   12.9662 O   0  0  0  0  0  0  0  0  0  0  0  0
    2.7137    1.1203   12.6865 C   0  0  0  0  0  0  0  0  0  0  0  0
    2.2531   -0.0854   13.2395 C   0  0  0  0  0  0  0  0  0  0  0  0
    3.1495   -1.0343   13.6817 C   0  0  0  0  0  0  0  0  0  0  0  0
    4.5094   -0.8689   13.6130 C   0  0  0  0  0  0  0  0  0  0  0  0
    4.9835    0.3251   13.0632 C   0  0  0  0  0  0  0  0  0  0  0  0
    4.0554    1.2722   12.6236 C   0  0  0  0  0  0  0  0  0  0  0  0
    4.6945    2.4987   12.0186 C   0  0  0  0  0  0  0  0  0  0  0  0
  1  2  1  0
  2  3  1  0
  3  4  1  0
  4  5  1  0
  5  6  2  0
  6  7  1  0
  7  8  2  0
  8  9  1  0
  9 10  2  0
  3 11  1  0
 11 12  2  0
 11 13  1  0
 13 14  1  0
 14 15  1  0
 15 16  2  0
 16 17  1  0
 17 18  2  0
 18 19  1  0
 19 20  2  0
 18 21  1  0
 21 22  1  0
 14 23  1  0
 23 24  2  0
 23 25  2  0
 23 26  1  0
 26 27  2  0
 27 28  1  0
 28 29  2  0
 29 30  1  0
 30 31  2  0
 31 32  1  0
 10  5  1  0
 20 15  1  0
 31 26  1  0
M  END
$$$$
