
     RDKit          3D

 32 34  0  0  0  0  0  0  0  0999 V2000
    0.3388    7.8974    8.2416 C   0  0  0  0  0  0  0  0  0  0  0  0
    0.6570    6.5974    8.9406 C   0  0  0  0  0  0  0  0  0  0  0  0
   -0.3468    5.5918    8.7162 N   0  0  0  0  0  0  0  0  0  0  0  0
   -1.6269    5.9702    8.1838 C   0  0  0  0  0  0  0  0  0  0  0  0
   -1.8941    5.5796    6.7997 C   0  0  0  0  0  0  0  0  0  0  0  0
   -1.0649    4.7365    6.0906 C   0  0  0  0  0  0  0  0  0  0  0  0
   -1.3272    4.3997    4.8247 N   0  0  0  0  0  0  0  0  0  0  0  0
   -2.4085    4.8689    4.1931 C   0  0  0  0  0  0  0  0  0  0  0  0
   -3.2765    5.7206    4.8613 C   0  0  0  0  0  0  0  0  0  0  0  0
   -3.0116    6.0687    6.1592 C   0  0  0  0  0  0  0  0  0  0  0  0
   -0.1049    4.2516    9.0523 C   0  0  0  0  0  0  0  0  0  0  0  0
   -0.9750    3.3570    8.9560 O   0  0  0  0  0  0  0  0  0  0  0  0
    1.2700    3.9166    9.5499 C   0  0  0  0  0  0  0  0  0  0  0  0
    1.3480    2.6882   10.2497 N   0  0  0  0  0  0  0  0  0  0  0  0
    0.9704    1.4815    9.5487 C   0  0  0  0  0  0  0  0  0  0  0  0
    1.7990    0.7455    8.7603 C   0  0  0  0  0  0  0  0  0  0  0  0
    1.3435   -0.3563    8.1403 N   0  0  0  0  0  0  0  0  0  0  0  0
    0.0554   -0.8131    8.2462 C   0  0  0  0  0  0  0  0  0  0  0  0
   -0.8134   -0.0618    9.0601 C   0  0  0  0  0  0  0  0  0  0  0  0
   -0.3654    1.0401    9.6824 C   0  0  0  0  0  0  0  0  0  0  0  0
   -0.4341   -1.8730    7.6584 O   0  0  0  0  0  0  0  0  0  0  0  0
   -0.0978   -2.9314    6.9149 C   0  0  0  0  0  0  0  0  0  0  0  0
    1.8998    2.5067   11.8462 S   0  0  0  0  0  6  0  0  0  0  0  0
    0.7666    2.1427   12.7940 O   0  0  0  0  0  0  0  0  0  0  0  0
    2.3452    3.8859   12.3765 O   0  0  0  0  0  0  0  0  0  0  0  0
    3.1761    1.3671   12.0916 C   0  0  0  0  0  0  0  0  0  0  0  0
    4.4812    1.7617   11.7556 C   0  0  0  0  0  0  0  0  0  0  0  0
    5.5297    0.8767   11.8857 C   0  0  0  0  0  0  0  0  0  0  0  0
    5.3728   -0.4086   12.3380 C   0  0  0  0  0  0  0  0  0  0  0  0
    4.0801   -0.8156   12.6784 C   0  0  0  0  0  0  0  0  0  0  0  0
    3.0335    0.0987   12.5364 C   0  0  0  0  0  0  0  0  0  0  0  0
    1.6966   -0.4514   12.9713 C   0  0  0  0  0  0  0  0  0  0  0  0
  1  2  1  0
  2  3  1  0
  3  4  1  0
  4  5  1  0
  5  6  2  0
  6  7  1  0
  7  8  2  0
  8  9  1  0
  9 10  2  0
  3 11  1  0
 11 12  2  0
 11 13  1  0
 13 14  1  0
 14 15  1  0
 15 16  2  0
 16 17  1  0
 17 18  2  0
 18 19  1  0
 19 20  2  0
 18 21  1  0
 21 22  1  0
 14 23  1  0
 23 24  2  0
 23 25  2  0
 23 26  1  0
 26 27  2  0
 27 28  1  0
 28 29  2  0
 29 30  1  0
 30 31  2  0
 31 32  1  0
 10  5  1  0
 20 15  1  0
 31 26  1  0
M  END
$$$$
