
     RDKit          3D

 32 34  0  0  0  0  0  0  0  0999 V2000
   -1.1825    6.5030    9.7626 C   0  0  0  0  0  0  0  0  0  0  0  0
   -0.6733    5.6133    8.6540 C   0  0  0  0  0  0  0  0  0  0  0  0
   -1.3113    4.3242    8.6458 N   0  0  0  0  0  0  0  0  0  0  0  0
   -2.0091    3.8828    7.4694 C   0  0  0  0  0  0  0  0  0  0  0  0
   -1.7055    4.5974    6.2297 C   0  0  0  0  0  0  0  0  0  0  0  0
   -0.6830    5.5172    6.1317 C   0  0  0  0  0  0  0  0  0  0  0  0
   -0.4298    6.1620    4.9894 N   0  0  0  0  0  0  0  0  0  0  0  0
   -1.1608    5.9398    3.8919 C   0  0  0  0  0  0  0  0  0  0  0  0
   -2.2016    5.0233    3.9361 C   0  0  0  0  0  0  0  0  0  0  0  0
   -2.4651    4.3599    5.1050 C   0  0  0  0  0  0  0  0  0  0  0  0
   -1.2971    3.5112    9.7888 C   0  0  0  0  0  0  0  0  0  0  0  0
   -1.9126    2.4236    9.8595 O   0  0  0  0  0  0  0  0  0  0  0  0
   -0.5003    4.0048   10.9600 C   0  0  0  0  0  0  0  0  0  0  0  0
    0.3503    3.0288   11.5330 N   0  0  0  0  0  0  0  0  0  0  0  0
   -0.0956    1.6535   11.5316 C   0  0  0  0  0  0  0  0  0  0  0  0
   -0.7853    1.0580   10.5219 C   0  0  0  0  0  0  0  0  0  0  0  0
   -1.1661   -0.2265   10.6262 N   0  0  0  0  0  0  0  0  0  0  0  0
   -0.9016   -1.0139   11.7167 C   0  0  0  0  0  0  0  0  0  0  0  0
   -0.1872   -0.4111   12.7692 C   0  0  0  0  0  0  0  0  0  0  0  0
    0.1962    0.8718   12.6722 C   0  0  0  0  0  0  0  0  0  0  0  0
   -1.2563   -2.2630   11.8660 O   0  0  0  0  0  0  0  0  0  0  0  0
   -2.0912   -3.1976   11.4013 C   0  0  0  0  0  0  0  0  0  0  0  0
    1.8884    3.3354   12.1860 S   0  0  0  0  0  6  0  0  0  0  0  0
    1.8819    3.2446   13.7048 O   0  0  0  0  0  0  0  0  0  0  0  0
    2.2429    4.8178   11.9442 O   0  0  0  0  0  0  0  0  0  0  0  0
    3.1795    2.3431   11.6062 C   0  0  0  0  0  0  0  0  0  0  0  0
    3.7431    2.6620   10.3603 C   0  0  0  0  0  0  0  0  0  0  0  0
    4.7423    1.8760    9.8280 C   0  0  0  0  0  0  0  0  0  0  0  0
    5.2373    0.7642   10.4607 C   0  0  0  0  0  0  0  0  0  0  0  0
    4.6880    0.4349   11.7026 C   0  0  0  0  0  0  0  0  0  0  0  0
    3.6752    1.2458   12.2206 C   0  0  0  0  0  0  0  0  0  0  0  0
    3.1936    0.8043   13.5815 C   0  0  0  0  0  0  0  0  0  0  0  0
  1  2  1  0
  2  3  1  0
  3  4  1  0
  4  5  1  0
  5  6  2  0
  6  7  1  0
  7  8  2  0
  8  9  1  0
  9 10  2  0
  3 11  1  0
 11 12  2  0
 11 13  1  0
 13 14  1  0
 14 15  1  0
 15 16  2  0
 16 17  1  0
 17 18  2  0
 18 19  1  0
 19 20  2  0
 18 21  1  0
 21 22  1  0
 14 23  1  0
 23 24  2  0
 23 25  2  0
 23 26  1  0
 26 27  2  0
 27 28  1  0
 28 29  2  0
 29 30  1  0
 30 31  2  0
 31 32  1  0
 10  5  1  0
 20 15  1  0
 31 26  1  0
M  END
$$$$
