
     RDKit          3D

 32 34  0  0  0  0  0  0  0  0999 V2000
   -2.8653    5.0831    9.7503 C   0  0  0  0  0  0  0  0  0  0  0  0
   -1.6633    4.7235    8.9101 C   0  0  0  0  0  0  0  0  0  0  0  0
   -0.5381    5.5833    9.1626 N   0  0  0  0  0  0  0  0  0  0  0  0
   -0.2709    6.6840    8.2779 C   0  0  0  0  0  0  0  0  0  0  0  0
   -0.8040    6.5685    6.9207 C   0  0  0  0  0  0  0  0  0  0  0  0
   -1.2869    5.3829    6.4087 C   0  0  0  0  0  0  0  0  0  0  0  0
   -1.7628    5.3014    5.1630 N   0  0  0  0  0  0  0  0  0  0  0  0
   -1.7896    6.3709    4.3607 C   0  0  0  0  0  0  0  0  0  0  0  0
   -1.3161    7.5890    4.8267 C   0  0  0  0  0  0  0  0  0  0  0  0
   -0.8272    7.6773    6.1031 C   0  0  0  0  0  0  0  0  0  0  0  0
    0.3267    5.3332   10.2382 C   0  0  0  0  0  0  0  0  0  0  0  0
    1.2041    6.1446   10.6104 O   0  0  0  0  0  0  0  0  0  0  0  0
    0.1640    4.0206   10.9458 C   0  0  0  0  0  0  0  0  0  0  0  0
    1.1467    3.0579   10.6113 N   0  0  0  0  0  0  0  0  0  0  0  0
    1.8290    2.3797   11.6906 C   0  0  0  0  0  0  0  0  0  0  0  0
    1.4579    1.1822   12.2178 C   0  0  0  0  0  0  0  0  0  0  0  0
    2.1547    0.6428   13.2323 N   0  0  0  0  0  0  0  0  0  0  0  0
    3.2553    1.2314   13.7991 C   0  0  0  0  0  0  0  0  0  0  0  0
    3.6518    2.4710   13.2627 C   0  0  0  0  0  0  0  0  0  0  0  0
    2.9603    3.0161   12.2493 C   0  0  0  0  0  0  0  0  0  0  0  0
    3.9595    0.7494   14.7891 O   0  0  0  0  0  0  0  0  0  0  0  0
    4.0924   -0.3171   15.5836 C   0  0  0  0  0  0  0  0  0  0  0  0
    1.5615    2.5938    9.0305 S   0  0  0  0  0  6  0  0  0  0  0  0
    2.9302    3.1244    8.6304 O   0  0  0  0  0  0  0  0  0  0  0  0
    0.6238    3.3157    8.0399 O   0  0  0  0  0  0  0  0  0  0  0  0
    1.5381    0.8977    8.6980 C   0  0  0  0  0  0  0  0  0  0  0  0
    0.3118    0.3172    8.3362 C   0  0  0  0  0  0  0  0  0  0  0  0
    0.2259   -1.0391    8.1071 C   0  0  0  0  0  0  0  0  0  0  0  0
    1.2996   -1.8859    8.2140 C   0  0  0  0  0  0  0  0  0  0  0  0
    2.5276   -1.3228    8.5713 C   0  0  0  0  0  0  0  0  0  0  0  0
    2.5892    0.0539    8.8000 C   0  0  0  0  0  0  0  0  0  0  0  0
    3.9764    0.5412    9.1421 C   0  0  0  0  0  0  0  0  0  0  0  0
  1  2  1  0
  2  3  1  0
  3  4  1  0
  4  5  1  0
  5  6  2  0
  6  7  1  0
  7  8  2  0
  8  9  1  0
  9 10  2  0
  3 11  1  0
 11 12  2  0
 11 13  1  0
 13 14  1  0
 14 15  1  0
 15 16  2  0
 16 17  1  0
 17 18  2  0
 18 19  1  0
 19 20  2  0
 18 21  1  0
 21 22  1  0
 14 23  1  0
 23 24  2  0
 23 25  2  0
 23 26  1  0
 26 27  2  0
 27 28  1  0
 28 29  2  0
 29 30  1  0
 30 31  2  0
 31 32  1  0
 10  5  1  0
 20 15  1  0
 31 26  1  0
M  END
$$$$
