
     RDKit          3D

 32 34  0  0  0  0  0  0  0  0999 V2000
    0.9186    4.5626    6.7375 C   0  0  0  0  0  0  0  0  0  0  0  0
    0.2363    5.2642    7.8874 C   0  0  0  0  0  0  0  0  0  0  0  0
   -0.8868    4.5232    8.3960 N   0  0  0  0  0  0  0  0  0  0  0  0
   -2.1502    4.5883    7.7140 C   0  0  0  0  0  0  0  0  0  0  0  0
   -2.2767    5.6164    6.6813 C   0  0  0  0  0  0  0  0  0  0  0  0
   -1.2601    6.4976    6.3792 C   0  0  0  0  0  0  0  0  0  0  0  0
   -1.4026    7.4326    5.4357 N   0  0  0  0  0  0  0  0  0  0  0  0
   -2.5411    7.5510    4.7444 C   0  0  0  0  0  0  0  0  0  0  0  0
   -3.5957    6.6888    5.0084 C   0  0  0  0  0  0  0  0  0  0  0  0
   -3.4544    5.7287    5.9749 C   0  0  0  0  0  0  0  0  0  0  0  0
   -0.7739    3.7720    9.5752 C   0  0  0  0  0  0  0  0  0  0  0  0
   -1.6459    2.9559    9.9496 O   0  0  0  0  0  0  0  0  0  0  0  0
    0.4604    3.9888   10.3996 C   0  0  0  0  0  0  0  0  0  0  0  0
    1.2797    2.8411   10.5265 N   0  0  0  0  0  0  0  0  0  0  0  0
    0.6766    1.5470   10.2991 C   0  0  0  0  0  0  0  0  0  0  0  0
   -0.0136    0.8335   11.2288 C   0  0  0  0  0  0  0  0  0  0  0  0
   -0.5242   -0.3700   10.9182 N   0  0  0  0  0  0  0  0  0  0  0  0
   -0.3973   -0.9570    9.6860 C   0  0  0  0  0  0  0  0  0  0  0  0
    0.3138   -0.2294    8.7130 C   0  0  0  0  0  0  0  0  0  0  0  0
    0.8270    0.9735    9.0162 C   0  0  0  0  0  0  0  0  0  0  0  0
   -0.8698   -2.1255    9.3398 O   0  0  0  0  0  0  0  0  0  0  0  0
   -1.1390   -3.3483    9.8073 C   0  0  0  0  0  0  0  0  0  0  0  0
    2.9411    2.8611   10.8806 S   0  0  0  0  0  6  0  0  0  0  0  0
    3.4043    4.2411   11.3237 O   0  0  0  0  0  0  0  0  0  0  0  0
    3.7297    2.6519    9.5706 O   0  0  0  0  0  0  0  0  0  0  0  0
    3.4881    1.7204   12.0585 C   0  0  0  0  0  0  0  0  0  0  0  0
    3.8943    0.4545   11.6064 C   0  0  0  0  0  0  0  0  0  0  0  0
    4.2937   -0.5096   12.5066 C   0  0  0  0  0  0  0  0  0  0  0  0
    4.3202   -0.3029   13.8624 C   0  0  0  0  0  0  0  0  0  0  0  0
    3.9207    0.9527   14.3277 C   0  0  0  0  0  0  0  0  0  0  0  0
    3.5185    1.9129   13.3961 C   0  0  0  0  0  0  0  0  0  0  0  0
    3.1474    3.2350   14.0231 C   0  0  0  0  0  0  0  0  0  0  0  0
  1  2  1  0
  2  3  1  0
  3  4  1  0
  4  5  1  0
  5  6  2  0
  6  7  1  0
  7  8  2  0
  8  9  1  0
  9 10  2  0
  3 11  1  0
 11 12  2  0
 11 13  1  0
 13 14  1  0
 14 15  1  0
 15 16  2  0
 16 17  1  0
 17 18  2  0
 18 19  1  0
 19 20  2  0
 18 21  1  0
 21 22  1  0
 14 23  1  0
 23 24  2  0
 23 25  2  0
 23 26  1  0
 26 27  2  0
 27 28  1  0
 28 29  2  0
 29 30  1  0
 30 31  2  0
 31 32  1  0
 10  5  1  0
 20 15  1  0
 31 26  1  0
M  END
$$$$
