
     RDKit          3D

 32 34  0  0  0  0  0  0  0  0999 V2000
    1.9752    5.1518    7.1491 C   0  0  0  0  0  0  0  0  0  0  0  0
    0.9696    5.3567    8.2567 C   0  0  0  0  0  0  0  0  0  0  0  0
   -0.0717    4.3643    8.2452 N   0  0  0  0  0  0  0  0  0  0  0  0
   -0.8830    4.1974    7.0707 C   0  0  0  0  0  0  0  0  0  0  0  0
   -1.9396    5.1882    6.8671 C   0  0  0  0  0  0  0  0  0  0  0  0
   -2.3664    6.0377    7.8658 C   0  0  0  0  0  0  0  0  0  0  0  0
   -3.3384    6.9301    7.6568 N   0  0  0  0  0  0  0  0  0  0  0  0
   -3.9378    7.0350    6.4660 C   0  0  0  0  0  0  0  0  0  0  0  0
   -3.5458    6.2042    5.4261 C   0  0  0  0  0  0  0  0  0  0  0  0
   -2.5497    5.2877    5.6358 C   0  0  0  0  0  0  0  0  0  0  0  0
   -0.3324    3.5873    9.3835 C   0  0  0  0  0  0  0  0  0  0  0  0
   -1.2913    2.7862    9.4570 O   0  0  0  0  0  0  0  0  0  0  0  0
    0.6004    3.7562   10.5460 C   0  0  0  0  0  0  0  0  0  0  0  0
    1.2614    2.5660   10.9345 N   0  0  0  0  0  0  0  0  0  0  0  0
    0.6620    1.7654   11.9786 C   0  0  0  0  0  0  0  0  0  0  0  0
   -0.2001    0.7338   11.7730 C   0  0  0  0  0  0  0  0  0  0  0  0
   -0.7129    0.0604   12.8167 N   0  0  0  0  0  0  0  0  0  0  0  0
   -0.4215    0.3457   14.1255 C   0  0  0  0  0  0  0  0  0  0  0  0
    0.4706    1.4105   14.3534 C   0  0  0  0  0  0  0  0  0  0  0  0
    0.9866    2.0880   13.3157 C   0  0  0  0  0  0  0  0  0  0  0  0
   -0.8995   -0.2754   15.1715 O   0  0  0  0  0  0  0  0  0  0  0  0
   -2.0003   -0.8597   15.6543 C   0  0  0  0  0  0  0  0  0  0  0  0
    2.6902    1.9692   10.2355 S   0  0  0  0  0  6  0  0  0  0  0  0
    3.5183    3.0832    9.6123 O   0  0  0  0  0  0  0  0  0  0  0  0
    2.3199    1.1067    9.0104 O   0  0  0  0  0  0  0  0  0  0  0  0
    3.7304    1.0598   11.2741 C   0  0  0  0  0  0  0  0  0  0  0  0
    4.7366    1.7536   11.9654 C   0  0  0  0  0  0  0  0  0  0  0  0
    5.6242    1.0715   12.7693 C   0  0  0  0  0  0  0  0  0  0  0  0
    5.5849   -0.2886   12.9421 C   0  0  0  0  0  0  0  0  0  0  0  0
    4.5878   -0.9931   12.2622 C   0  0  0  0  0  0  0  0  0  0  0  0
    3.7010   -0.2799   11.4520 C   0  0  0  0  0  0  0  0  0  0  0  0
    2.6518   -1.1505   10.8039 C   0  0  0  0  0  0  0  0  0  0  0  0
  1  2  1  0
  2  3  1  0
  3  4  1  0
  4  5  1  0
  5  6  2  0
  6  7  1  0
  7  8  2  0
  8  9  1  0
  9 10  2  0
  3 11  1  0
 11 12  2  0
 11 13  1  0
 13 14  1  0
 14 15  1  0
 15 16  2  0
 16 17  1  0
 17 18  2  0
 18 19  1  0
 19 20  2  0
 18 21  1  0
 21 22  1  0
 14 23  1  0
 23 24  2  0
 23 25  2  0
 23 26  1  0
 26 27  2  0
 27 28  1  0
 28 29  2  0
 29 30  1  0
 30 31  2  0
 31 32  1  0
 10  5  1  0
 20 15  1  0
 31 26  1  0
M  END
$$$$
