
     RDKit          3D

 32 34  0  0  0  0  0  0  0  0999 V2000
   -0.4904    7.1840   10.3739 C   0  0  0  0  0  0  0  0  0  0  0  0
   -1.0412    5.9347    9.7289 C   0  0  0  0  0  0  0  0  0  0  0  0
   -0.3116    5.5576    8.5480 N   0  0  0  0  0  0  0  0  0  0  0  0
   -0.6095    6.1934    7.2939 C   0  0  0  0  0  0  0  0  0  0  0  0
   -1.5994    5.5264    6.4484 C   0  0  0  0  0  0  0  0  0  0  0  0
   -2.6970    4.8696    6.9633 C   0  0  0  0  0  0  0  0  0  0  0  0
   -3.5839    4.2621    6.1702 N   0  0  0  0  0  0  0  0  0  0  0  0
   -3.4416    4.2673    4.8406 C   0  0  0  0  0  0  0  0  0  0  0  0
   -2.3548    4.9147    4.2705 C   0  0  0  0  0  0  0  0  0  0  0  0
   -1.4428    5.5389    5.0796 C   0  0  0  0  0  0  0  0  0  0  0  0
    0.6575    4.5448    8.5983 C   0  0  0  0  0  0  0  0  0  0  0  0
    1.0582    3.9336    7.5821 O   0  0  0  0  0  0  0  0  0  0  0  0
    1.2109    4.2048    9.9504 C   0  0  0  0  0  0  0  0  0  0  0  0
    0.8938    2.8978   10.3929 N   0  0  0  0  0  0  0  0  0  0  0  0
    0.5727    1.9018    9.3954 C   0  0  0  0  0  0  0  0  0  0  0  0
    1.4839    1.1453    8.7266 C   0  0  0  0  0  0  0  0  0  0  0  0
    1.0801    0.2542    7.8055 N   0  0  0  0  0  0  0  0  0  0  0  0
   -0.2332    0.0410    7.4753 C   0  0  0  0  0  0  0  0  0  0  0  0
   -1.1877    0.8162    8.1605 C   0  0  0  0  0  0  0  0  0  0  0  0
   -0.7917    1.7087    9.0818 C   0  0  0  0  0  0  0  0  0  0  0  0
   -0.6727   -0.8078    6.5837 O   0  0  0  0  0  0  0  0  0  0  0  0
   -0.2811   -1.5995    5.5807 C   0  0  0  0  0  0  0  0  0  0  0  0
    0.9060    2.3849   12.0124 S   0  0  0  0  0  6  0  0  0  0  0  0
   -0.5038    2.1880   12.5498 O   0  0  0  0  0  0  0  0  0  0  0  0
    1.4384    3.5352   12.8927 O   0  0  0  0  0  0  0  0  0  0  0  0
    1.8039    0.9481   12.3551 C   0  0  0  0  0  0  0  0  0  0  0  0
    1.0852   -0.2393   12.5678 C   0  0  0  0  0  0  0  0  0  0  0  0
    1.7474   -1.4037   12.8921 C   0  0  0  0  0  0  0  0  0  0  0  0
    3.1106   -1.4777   13.0244 C   0  0  0  0  0  0  0  0  0  0  0  0
    3.8401   -0.3046   12.8137 C   0  0  0  0  0  0  0  0  0  0  0  0
    3.1464    0.8633   12.4878 C   0  0  0  0  0  0  0  0  0  0  0  0
    4.0505    2.0487   12.2506 C   0  0  0  0  0  0  0  0  0  0  0  0
  1  2  1  0
  2  3  1  0
  3  4  1  0
  4  5  1  0
  5  6  2  0
  6  7  1  0
  7  8  2  0
  8  9  1  0
  9 10  2  0
  3 11  1  0
 11 12  2  0
 11 13  1  0
 13 14  1  0
 14 15  1  0
 15 16  2  0
 16 17  1  0
 17 18  2  0
 18 19  1  0
 19 20  2  0
 18 21  1  0
 21 22  1  0
 14 23  1  0
 23 24  2  0
 23 25  2  0
 23 26  1  0
 26 27  2  0
 27 28  1  0
 28 29  2  0
 29 30  1  0
 30 31  2  0
 31 32  1  0
 10  5  1  0
 20 15  1  0
 31 26  1  0
M  END
$$$$
