
     RDKit          3D

 32 34  0  0  0  0  0  0  0  0999 V2000
    0.2890    7.9828    8.3946 C   0  0  0  0  0  0  0  0  0  0  0  0
   -0.3087    7.3357    9.6209 C   0  0  0  0  0  0  0  0  0  0  0  0
   -0.5377    5.9267    9.4436 N   0  0  0  0  0  0  0  0  0  0  0  0
   -1.7624    5.4747    8.8425 C   0  0  0  0  0  0  0  0  0  0  0  0
   -1.7938    5.4443    7.3804 C   0  0  0  0  0  0  0  0  0  0  0  0
   -0.6513    5.4911    6.6098 C   0  0  0  0  0  0  0  0  0  0  0  0
   -0.7066    5.4687    5.2752 N   0  0  0  0  0  0  0  0  0  0  0  0
   -1.8767    5.3995    4.6317 C   0  0  0  0  0  0  0  0  0  0  0  0
   -3.0569    5.3495    5.3595 C   0  0  0  0  0  0  0  0  0  0  0  0
   -3.0052    5.3724    6.7280 C   0  0  0  0  0  0  0  0  0  0  0  0
    0.4027    4.9869    9.8909 C   0  0  0  0  0  0  0  0  0  0  0  0
    1.0444    5.1192   10.9573 O   0  0  0  0  0  0  0  0  0  0  0  0
    0.6240    3.7850    9.0212 C   0  0  0  0  0  0  0  0  0  0  0  0
    0.4282    2.5487    9.6829 N   0  0  0  0  0  0  0  0  0  0  0  0
    0.0719    1.3985    8.8828 C   0  0  0  0  0  0  0  0  0  0  0  0
    0.9587    0.5321    8.3236 C   0  0  0  0  0  0  0  0  0  0  0  0
    0.5224   -0.5011    7.5835 N   0  0  0  0  0  0  0  0  0  0  0  0
   -0.8017   -0.7587    7.3393 C   0  0  0  0  0  0  0  0  0  0  0  0
   -1.7312    0.1293    7.9129 C   0  0  0  0  0  0  0  0  0  0  0  0
   -1.3027    1.1639    8.6533 C   0  0  0  0  0  0  0  0  0  0  0  0
   -1.2725   -1.7448    6.6222 O   0  0  0  0  0  0  0  0  0  0  0  0
   -0.9092   -2.8296    5.9312 C   0  0  0  0  0  0  0  0  0  0  0  0
    0.6261    2.2912   11.3505 S   0  0  0  0  0  6  0  0  0  0  0  0
   -0.2723    1.1722   11.8563 O   0  0  0  0  0  0  0  0  0  0  0  0
    0.0836    3.5204   12.1096 O   0  0  0  0  0  0  0  0  0  0  0  0
    2.2342    1.9577   11.8895 C   0  0  0  0  0  0  0  0  0  0  0  0
    3.0158    3.0382   12.3293 C   0  0  0  0  0  0  0  0  0  0  0  0
    4.3206    2.8365   12.7244 C   0  0  0  0  0  0  0  0  0  0  0  0
    4.9239    1.6047   12.7146 C   0  0  0  0  0  0  0  0  0  0  0  0
    4.1583    0.5189   12.2814 C   0  0  0  0  0  0  0  0  0  0  0  0
    2.8388    0.7488   11.8844 C   0  0  0  0  0  0  0  0  0  0  0  0
    2.1107   -0.5085   11.4744 C   0  0  0  0  0  0  0  0  0  0  0  0
  1  2  1  0
  2  3  1  0
  3  4  1  0
  4  5  1  0
  5  6  2  0
  6  7  1  0
  7  8  2  0
  8  9  1  0
  9 10  2  0
  3 11  1  0
 11 12  2  0
 11 13  1  0
 13 14  1  0
 14 15  1  0
 15 16  2  0
 16 17  1  0
 17 18  2  0
 18 19  1  0
 19 20  2  0
 18 21  1  0
 21 22  1  0
 14 23  1  0
 23 24  2  0
 23 25  2  0
 23 26  1  0
 26 27  2  0
 27 28  1  0
 28 29  2  0
 29 30  1  0
 30 31  2  0
 31 32  1  0
 10  5  1  0
 20 15  1  0
 31 26  1  0
M  END
$$$$
