
     RDKit          3D

 32 34  0  0  0  0  0  0  0  0999 V2000
   -1.3292    1.9410    8.0252 C   0  0  0  0  0  0  0  0  0  0  0  0
   -0.2861    2.9726    7.6677 C   0  0  0  0  0  0  0  0  0  0  0  0
   -0.4435    4.1947    8.4100 N   0  0  0  0  0  0  0  0  0  0  0  0
   -1.3890    5.1812    7.9647 C   0  0  0  0  0  0  0  0  0  0  0  0
   -1.5885    5.2812    6.5190 C   0  0  0  0  0  0  0  0  0  0  0  0
   -1.0192    4.3984    5.6259 C   0  0  0  0  0  0  0  0  0  0  0  0
   -1.2112    4.5149    4.3090 N   0  0  0  0  0  0  0  0  0  0  0  0
   -1.9661    5.4960    3.8033 C   0  0  0  0  0  0  0  0  0  0  0  0
   -2.5629    6.4113    4.6584 C   0  0  0  0  0  0  0  0  0  0  0  0
   -2.3689    6.2959    6.0094 C   0  0  0  0  0  0  0  0  0  0  0  0
    0.3472    4.4530    9.5394 C   0  0  0  0  0  0  0  0  0  0  0  0
    0.3686    5.5632   10.1171 O   0  0  0  0  0  0  0  0  0  0  0  0
    1.1949    3.3231   10.0444 C   0  0  0  0  0  0  0  0  0  0  0  0
    0.6707    2.6736   11.1880 N   0  0  0  0  0  0  0  0  0  0  0  0
   -0.3419    3.3623   11.9565 C   0  0  0  0  0  0  0  0  0  0  0  0
   -1.5445    2.8356   12.3115 C   0  0  0  0  0  0  0  0  0  0  0  0
   -2.4234    3.5671   13.0173 N   0  0  0  0  0  0  0  0  0  0  0  0
   -2.1907    4.8558   13.4229 C   0  0  0  0  0  0  0  0  0  0  0  0
   -0.9493    5.4137   13.0635 C   0  0  0  0  0  0  0  0  0  0  0  0
   -0.0664    4.6889   12.3582 C   0  0  0  0  0  0  0  0  0  0  0  0
   -3.0156    5.6072   14.1035 O   0  0  0  0  0  0  0  0  0  0  0  0
   -4.2578    5.6544   14.5944 C   0  0  0  0  0  0  0  0  0  0  0  0
    1.1027    1.1159   11.7107 S   0  0  0  0  0  6  0  0  0  0  0  0
    0.5722    0.0416   10.7729 O   0  0  0  0  0  0  0  0  0  0  0  0
    0.3535    0.8084   13.0244 O   0  0  0  0  0  0  0  0  0  0  0  0
    2.7910    0.8249   11.9409 C   0  0  0  0  0  0  0  0  0  0  0  0
    3.3185    1.0085   13.2293 C   0  0  0  0  0  0  0  0  0  0  0  0
    4.6665    0.8373   13.4590 C   0  0  0  0  0  0  0  0  0  0  0  0
    5.5551    0.4867   12.4746 C   0  0  0  0  0  0  0  0  0  0  0  0
    5.0450    0.2983   11.1874 C   0  0  0  0  0  0  0  0  0  0  0  0
    3.6756    0.4794   10.9791 C   0  0  0  0  0  0  0  0  0  0  0  0
    3.2471    0.2108    9.5567 C   0  0  0  0  0  0  0  0  0  0  0  0
  1  2  1  0
  2  3  1  0
  3  4  1  0
  4  5  1  0
  5  6  2  0
  6  7  1  0
  7  8  2  0
  8  9  1  0
  9 10  2  0
  3 11  1  0
 11 12  2  0
 11 13  1  0
 13 14  1  0
 14 15  1  0
 15 16  2  0
 16 17  1  0
 17 18  2  0
 18 19  1  0
 19 20  2  0
 18 21  1  0
 21 22  1  0
 14 23  1  0
 23 24  2  0
 23 25  2  0
 23 26  1  0
 26 27  2  0
 27 28  1  0
 28 29  2  0
 29 30  1  0
 30 31  2  0
 31 32  1  0
 10  5  1  0
 20 15  1  0
 31 26  1  0
M  END
$$$$
