
     RDKit          3D

 32 34  0  0  0  0  0  0  0  0999 V2000
    2.2370    4.7128    6.9321 C   0  0  0  0  0  0  0  0  0  0  0  0
    1.1491    5.1493    7.8839 C   0  0  0  0  0  0  0  0  0  0  0  0
    0.0008    4.2839    7.8414 N   0  0  0  0  0  0  0  0  0  0  0  0
   -0.6479    4.0231    6.5858 C   0  0  0  0  0  0  0  0  0  0  0  0
   -1.7001    4.9602    6.1931 C   0  0  0  0  0  0  0  0  0  0  0  0
   -1.9789    5.2576    4.8759 C   0  0  0  0  0  0  0  0  0  0  0  0
   -2.9411    6.1225    4.5428 N   0  0  0  0  0  0  0  0  0  0  0  0
   -3.6746    6.7360    5.4776 C   0  0  0  0  0  0  0  0  0  0  0  0
   -3.4355    6.4720    6.8186 C   0  0  0  0  0  0  0  0  0  0  0  0
   -2.4500    5.5861    7.1648 C   0  0  0  0  0  0  0  0  0  0  0  0
   -0.5192    3.7265    9.0188 C   0  0  0  0  0  0  0  0  0  0  0  0
   -1.6164    3.1256    9.0618 O   0  0  0  0  0  0  0  0  0  0  0  0
    0.3047    3.8829   10.2625 C   0  0  0  0  0  0  0  0  0  0  0  0
    1.1043    2.7561   10.5717 N   0  0  0  0  0  0  0  0  0  0  0  0
    0.9168    1.5545    9.7898 C   0  0  0  0  0  0  0  0  0  0  0  0
   -0.1626    0.7311    9.8715 C   0  0  0  0  0  0  0  0  0  0  0  0
   -0.2331   -0.3721    9.1075 N   0  0  0  0  0  0  0  0  0  0  0  0
    0.7392   -0.7458    8.2163 C   0  0  0  0  0  0  0  0  0  0  0  0
    1.8619    0.0979    8.1203 C   0  0  0  0  0  0  0  0  0  0  0  0
    1.9394    1.2016    8.8806 C   0  0  0  0  0  0  0  0  0  0  0  0
    0.7179   -1.8105    7.4585 O   0  0  0  0  0  0  0  0  0  0  0  0
    0.0268   -2.9262    7.2057 C   0  0  0  0  0  0  0  0  0  0  0  0
    2.3118    2.7131   11.7659 S   0  0  0  0  0  6  0  0  0  0  0  0
    2.0930    3.7838   12.8246 O   0  0  0  0  0  0  0  0  0  0  0  0
    3.6515    3.1431   11.1319 O   0  0  0  0  0  0  0  0  0  0  0  0
    2.5303    1.2050   12.5817 C   0  0  0  0  0  0  0  0  0  0  0  0
    1.4028    0.6064   13.1666 C   0  0  0  0  0  0  0  0  0  0  0  0
    1.5282   -0.5718   13.8706 C   0  0  0  0  0  0  0  0  0  0  0  0
    2.7260   -1.2180   14.0414 C   0  0  0  0  0  0  0  0  0  0  0  0
    3.8571   -0.6357   13.4634 C   0  0  0  0  0  0  0  0  0  0  0  0
    3.7050    0.5594   12.7562 C   0  0  0  0  0  0  0  0  0  0  0  0
    4.9930    1.0640   12.1517 C   0  0  0  0  0  0  0  0  0  0  0  0
  1  2  1  0
  2  3  1  0
  3  4  1  0
  4  5  1  0
  5  6  2  0
  6  7  1  0
  7  8  2  0
  8  9  1  0
  9 10  2  0
  3 11  1  0
 11 12  2  0
 11 13  1  0
 13 14  1  0
 14 15  1  0
 15 16  2  0
 16 17  1  0
 17 18  2  0
 18 19  1  0
 19 20  2  0
 18 21  1  0
 21 22  1  0
 14 23  1  0
 23 24  2  0
 23 25  2  0
 23 26  1  0
 26 27  2  0
 27 28  1  0
 28 29  2  0
 29 30  1  0
 30 31  2  0
 31 32  1  0
 10  5  1  0
 20 15  1  0
 31 26  1  0
M  END
$$$$
