
     RDKit          3D

 32 34  0  0  0  0  0  0  0  0999 V2000
   -2.6005    4.0562   10.4776 C   0  0  0  0  0  0  0  0  0  0  0  0
   -1.2011    4.6036   10.3290 C   0  0  0  0  0  0  0  0  0  0  0  0
   -0.6209    4.2914    9.0503 N   0  0  0  0  0  0  0  0  0  0  0  0
   -1.4675    4.1678    7.8956 C   0  0  0  0  0  0  0  0  0  0  0  0
   -1.6280    5.3703    7.0783 C   0  0  0  0  0  0  0  0  0  0  0  0
   -0.9623    6.5475    7.3468 C   0  0  0  0  0  0  0  0  0  0  0  0
   -1.1308    7.6347    6.5889 N   0  0  0  0  0  0  0  0  0  0  0  0
   -1.9549    7.6238    5.5359 C   0  0  0  0  0  0  0  0  0  0  0  0
   -2.6489    6.4643    5.2210 C   0  0  0  0  0  0  0  0  0  0  0  0
   -2.4794    5.3472    5.9953 C   0  0  0  0  0  0  0  0  0  0  0  0
    0.7575    4.0631    8.9264 C   0  0  0  0  0  0  0  0  0  0  0  0
    1.3575    4.0933    7.8283 O   0  0  0  0  0  0  0  0  0  0  0  0
    1.5106    3.7684   10.1898 C   0  0  0  0  0  0  0  0  0  0  0  0
    1.4510    2.4133   10.5955 N   0  0  0  0  0  0  0  0  0  0  0  0
    1.2524    1.4069    9.5767 C   0  0  0  0  0  0  0  0  0  0  0  0
    0.0983    0.7155    9.3774 C   0  0  0  0  0  0  0  0  0  0  0  0
    0.0223   -0.2119    8.4080 N   0  0  0  0  0  0  0  0  0  0  0  0
    1.0613   -0.5271    7.5712 C   0  0  0  0  0  0  0  0  0  0  0  0
    2.2621    0.1815    7.7652 C   0  0  0  0  0  0  0  0  0  0  0  0
    2.3455    1.1094    8.7318 C   0  0  0  0  0  0  0  0  0  0  0  0
    1.0368   -1.4239    6.6207 O   0  0  0  0  0  0  0  0  0  0  0  0
    0.2528   -1.9610    5.6809 C   0  0  0  0  0  0  0  0  0  0  0  0
    1.6431    1.8618   12.1909 S   0  0  0  0  0  6  0  0  0  0  0  0
    0.5691    0.8526   12.5694 O   0  0  0  0  0  0  0  0  0  0  0  0
    1.3552    3.0301   13.1572 O   0  0  0  0  0  0  0  0  0  0  0  0
    3.1770    1.1682   12.5831 C   0  0  0  0  0  0  0  0  0  0  0  0
    3.2489   -0.2270   12.7250 C   0  0  0  0  0  0  0  0  0  0  0  0
    4.4356   -0.8286   13.0842 C   0  0  0  0  0  0  0  0  0  0  0  0
    5.5899   -0.1261   13.3196 C   0  0  0  0  0  0  0  0  0  0  0  0
    5.5350    1.2633   13.1805 C   0  0  0  0  0  0  0  0  0  0  0  0
    4.3203    1.8501   12.8173 C   0  0  0  0  0  0  0  0  0  0  0  0
    4.4033    3.3497   12.6652 C   0  0  0  0  0  0  0  0  0  0  0  0
  1  2  1  0
  2  3  1  0
  3  4  1  0
  4  5  1  0
  5  6  2  0
  6  7  1  0
  7  8  2  0
  8  9  1  0
  9 10  2  0
  3 11  1  0
 11 12  2  0
 11 13  1  0
 13 14  1  0
 14 15  1  0
 15 16  2  0
 16 17  1  0
 17 18  2  0
 18 19  1  0
 19 20  2  0
 18 21  1  0
 21 22  1  0
 14 23  1  0
 23 24  2  0
 23 25  2  0
 23 26  1  0
 26 27  2  0
 27 28  1  0
 28 29  2  0
 29 30  1  0
 30 31  2  0
 31 32  1  0
 10  5  1  0
 20 15  1  0
 31 26  1  0
M  END
$$$$
