
     RDKit          3D

 32 34  0  0  0  0  0  0  0  0999 V2000
   -1.3235    8.3079    9.6343 C   0  0  0  0  0  0  0  0  0  0  0  0
   -0.8255    7.2437    8.6859 C   0  0  0  0  0  0  0  0  0  0  0  0
   -0.9812    5.9162    9.2173 N   0  0  0  0  0  0  0  0  0  0  0  0
   -2.1465    5.1461    8.8788 C   0  0  0  0  0  0  0  0  0  0  0  0
   -2.2955    4.7818    7.4700 C   0  0  0  0  0  0  0  0  0  0  0  0
   -1.3272    5.0486    6.5254 C   0  0  0  0  0  0  0  0  0  0  0  0
   -1.4898    4.7117    5.2429 N   0  0  0  0  0  0  0  0  0  0  0  0
   -2.6023    4.0998    4.8233 C   0  0  0  0  0  0  0  0  0  0  0  0
   -3.6081    3.8074    5.7333 C   0  0  0  0  0  0  0  0  0  0  0  0
   -3.4459    4.1511    7.0492 C   0  0  0  0  0  0  0  0  0  0  0  0
   -0.0289    5.3814   10.0975 C   0  0  0  0  0  0  0  0  0  0  0  0
    0.9466    6.0375   10.5271 O   0  0  0  0  0  0  0  0  0  0  0  0
   -0.2210    3.9537   10.5157 C   0  0  0  0  0  0  0  0  0  0  0  0
    0.8284    3.0893   10.1204 N   0  0  0  0  0  0  0  0  0  0  0  0
    0.5008    1.9681    9.2685 C   0  0  0  0  0  0  0  0  0  0  0  0
    0.8292    1.8659    7.9526 C   0  0  0  0  0  0  0  0  0  0  0  0
    0.4638    0.7839    7.2446 N   0  0  0  0  0  0  0  0  0  0  0  0
   -0.2432   -0.2671    7.7687 C   0  0  0  0  0  0  0  0  0  0  0  0
   -0.5891   -0.1756    9.1302 C   0  0  0  0  0  0  0  0  0  0  0  0
   -0.2277    0.9025    9.8438 C   0  0  0  0  0  0  0  0  0  0  0  0
   -0.6258   -1.3350    7.1194 O   0  0  0  0  0  0  0  0  0  0  0  0
   -0.2257   -2.2340    6.2150 C   0  0  0  0  0  0  0  0  0  0  0  0
    2.4652    3.2895   10.5288 S   0  0  0  0  0  6  0  0  0  0  0  0
    2.6705    4.4742   11.4612 O   0  0  0  0  0  0  0  0  0  0  0  0
    3.2415    3.7224    9.2672 O   0  0  0  0  0  0  0  0  0  0  0  0
    3.2520    1.9224   11.2359 C   0  0  0  0  0  0  0  0  0  0  0  0
    4.0351    1.1111   10.3991 C   0  0  0  0  0  0  0  0  0  0  0  0
    4.6455   -0.0186   10.8997 C   0  0  0  0  0  0  0  0  0  0  0  0
    4.5321   -0.4132   12.2085 C   0  0  0  0  0  0  0  0  0  0  0  0
    3.7576    0.3850   13.0544 C   0  0  0  0  0  0  0  0  0  0  0  0
    3.1475    1.5240   12.5233 C   0  0  0  0  0  0  0  0  0  0  0  0
    2.3712    2.3178   13.5462 C   0  0  0  0  0  0  0  0  0  0  0  0
  1  2  1  0
  2  3  1  0
  3  4  1  0
  4  5  1  0
  5  6  2  0
  6  7  1  0
  7  8  2  0
  8  9  1  0
  9 10  2  0
  3 11  1  0
 11 12  2  0
 11 13  1  0
 13 14  1  0
 14 15  1  0
 15 16  2  0
 16 17  1  0
 17 18  2  0
 18 19  1  0
 19 20  2  0
 18 21  1  0
 21 22  1  0
 14 23  1  0
 23 24  2  0
 23 25  2  0
 23 26  1  0
 26 27  2  0
 27 28  1  0
 28 29  2  0
 29 30  1  0
 30 31  2  0
 31 32  1  0
 10  5  1  0
 20 15  1  0
 31 26  1  0
M  END
$$$$
