
     RDKit          3D

 32 34  0  0  0  0  0  0  0  0999 V2000
    1.4422    6.0500    8.7244 C   0  0  0  0  0  0  0  0  0  0  0  0
    0.9706    6.1550   10.1549 C   0  0  0  0  0  0  0  0  0  0  0  0
   -0.3139    5.5399   10.3576 N   0  0  0  0  0  0  0  0  0  0  0  0
   -1.5112    6.2806   10.0690 C   0  0  0  0  0  0  0  0  0  0  0  0
   -1.3328    7.6891    9.7169 C   0  0  0  0  0  0  0  0  0  0  0  0
   -0.0935    8.2475    9.4853 C   0  0  0  0  0  0  0  0  0  0  0  0
    0.0439    9.5388    9.1715 N   0  0  0  0  0  0  0  0  0  0  0  0
   -1.0191   10.3435    9.0690 C   0  0  0  0  0  0  0  0  0  0  0  0
   -2.2896    9.8319    9.2914 C   0  0  0  0  0  0  0  0  0  0  0  0
   -2.4354    8.5087    9.6136 C   0  0  0  0  0  0  0  0  0  0  0  0
   -0.4112    4.2399   10.8752 C   0  0  0  0  0  0  0  0  0  0  0  0
   -1.4681    3.5703   10.8419 O   0  0  0  0  0  0  0  0  0  0  0  0
    0.8284    3.6631   11.4924 C   0  0  0  0  0  0  0  0  0  0  0  0
    1.1617    2.3707   11.0201 N   0  0  0  0  0  0  0  0  0  0  0  0
    0.8945    1.2419   11.8831 C   0  0  0  0  0  0  0  0  0  0  0  0
    1.8415    0.4147   12.4014 C   0  0  0  0  0  0  0  0  0  0  0  0
    1.4852   -0.6177   13.1842 N   0  0  0  0  0  0  0  0  0  0  0  0
    0.1875   -0.9125   13.5133 C   0  0  0  0  0  0  0  0  0  0  0  0
   -0.8036   -0.0640   12.9848 C   0  0  0  0  0  0  0  0  0  0  0  0
   -0.4550    0.9693   12.2017 C   0  0  0  0  0  0  0  0  0  0  0  0
   -0.2073   -1.9071   14.2639 O   0  0  0  0  0  0  0  0  0  0  0  0
    0.2368   -2.9424   14.9830 C   0  0  0  0  0  0  0  0  0  0  0  0
    1.8120    2.0279    9.4886 S   0  0  0  0  0  6  0  0  0  0  0  0
    3.3283    2.1546    9.4812 O   0  0  0  0  0  0  0  0  0  0  0  0
    1.3819    3.1388    8.5075 O   0  0  0  0  0  0  0  0  0  0  0  0
    1.4105    0.4889    8.8118 C   0  0  0  0  0  0  0  0  0  0  0  0
    2.3669   -0.5356    8.8988 C   0  0  0  0  0  0  0  0  0  0  0  0
    2.1186   -1.7678    8.3337 C   0  0  0  0  0  0  0  0  0  0  0  0
    0.9563   -2.0661    7.6692 C   0  0  0  0  0  0  0  0  0  0  0  0
   -0.0063   -1.0575    7.5759 C   0  0  0  0  0  0  0  0  0  0  0  0
    0.2691    0.1836    8.1551 C   0  0  0  0  0  0  0  0  0  0  0  0
   -0.8635    1.1719    8.0167 C   0  0  0  0  0  0  0  0  0  0  0  0
  1  2  1  0
  2  3  1  0
  3  4  1  0
  4  5  1  0
  5  6  2  0
  6  7  1  0
  7  8  2  0
  8  9  1  0
  9 10  2  0
  3 11  1  0
 11 12  2  0
 11 13  1  0
 13 14  1  0
 14 15  1  0
 15 16  2  0
 16 17  1  0
 17 18  2  0
 18 19  1  0
 19 20  2  0
 18 21  1  0
 21 22  1  0
 14 23  1  0
 23 24  2  0
 23 25  2  0
 23 26  1  0
 26 27  2  0
 27 28  1  0
 28 29  2  0
 29 30  1  0
 30 31  2  0
 31 32  1  0
 10  5  1  0
 20 15  1  0
 31 26  1  0
M  END
$$$$
