
     RDKit          3D

 32 34  0  0  0  0  0  0  0  0999 V2000
    0.5930    7.3108    9.4308 C   0  0  0  0  0  0  0  0  0  0  0  0
   -0.2656    6.1704    9.9229 C   0  0  0  0  0  0  0  0  0  0  0  0
   -0.7283    5.3281    8.8526 N   0  0  0  0  0  0  0  0  0  0  0  0
   -1.9554    5.6468    8.1756 C   0  0  0  0  0  0  0  0  0  0  0  0
   -1.9244    5.5842    6.7145 C   0  0  0  0  0  0  0  0  0  0  0  0
   -3.0601    5.6934    5.9403 C   0  0  0  0  0  0  0  0  0  0  0  0
   -3.0066    5.6264    4.6071 N   0  0  0  0  0  0  0  0  0  0  0  0
   -1.8449    5.4502    3.9687 C   0  0  0  0  0  0  0  0  0  0  0  0
   -0.6716    5.3350    4.7004 C   0  0  0  0  0  0  0  0  0  0  0  0
   -0.7216    5.4030    6.0675 C   0  0  0  0  0  0  0  0  0  0  0  0
   -0.0172    4.1744    8.4912 C   0  0  0  0  0  0  0  0  0  0  0  0
    0.7273    4.1192    7.4865 O   0  0  0  0  0  0  0  0  0  0  0  0
   -0.1867    2.9717    9.3716 C   0  0  0  0  0  0  0  0  0  0  0  0
    0.8623    2.7854   10.3040 N   0  0  0  0  0  0  0  0  0  0  0  0
    0.5164    2.6766   11.7035 C   0  0  0  0  0  0  0  0  0  0  0  0
   -0.3110    1.7353   12.2317 C   0  0  0  0  0  0  0  0  0  0  0  0
   -0.5792    1.7302   13.5485 N   0  0  0  0  0  0  0  0  0  0  0  0
   -0.0614    2.6381   14.4355 C   0  0  0  0  0  0  0  0  0  0  0  0
    0.7978    3.6178   13.9029 C   0  0  0  0  0  0  0  0  0  0  0  0
    1.0701    3.6293   12.5884 C   0  0  0  0  0  0  0  0  0  0  0  0
   -0.2979    2.6769   15.7203 O   0  0  0  0  0  0  0  0  0  0  0  0
   -0.7535    1.9478   16.7436 C   0  0  0  0  0  0  0  0  0  0  0  0
    2.5066    2.6296    9.9063 S   0  0  0  0  0  6  0  0  0  0  0  0
    3.3599    3.6595   10.6317 O   0  0  0  0  0  0  0  0  0  0  0  0
    2.6982    3.0236    8.4265 O   0  0  0  0  0  0  0  0  0  0  0  0
    3.2167    1.0766   10.1746 C   0  0  0  0  0  0  0  0  0  0  0  0
    4.0418    0.9183   11.2998 C   0  0  0  0  0  0  0  0  0  0  0  0
    4.6720   -0.2845   11.5355 C   0  0  0  0  0  0  0  0  0  0  0  0
    4.5392   -1.3733   10.7119 C   0  0  0  0  0  0  0  0  0  0  0  0
    3.7197   -1.2321    9.5889 C   0  0  0  0  0  0  0  0  0  0  0  0
    3.0930   -0.0028    9.3704 C   0  0  0  0  0  0  0  0  0  0  0  0
    2.2089    0.0079    8.1469 C   0  0  0  0  0  0  0  0  0  0  0  0
  1  2  1  0
  2  3  1  0
  3  4  1  0
  4  5  1  0
  5  6  2  0
  6  7  1  0
  7  8  2  0
  8  9  1  0
  9 10  2  0
  3 11  1  0
 11 12  2  0
 11 13  1  0
 13 14  1  0
 14 15  1  0
 15 16  2  0
 16 17  1  0
 17 18  2  0
 18 19  1  0
 19 20  2  0
 18 21  1  0
 21 22  1  0
 14 23  1  0
 23 24  2  0
 23 25  2  0
 23 26  1  0
 26 27  2  0
 27 28  1  0
 28 29  2  0
 29 30  1  0
 30 31  2  0
 31 32  1  0
 10  5  1  0
 20 15  1  0
 31 26  1  0
M  END
$$$$
