
     RDKit          3D

 32 34  0  0  0  0  0  0  0  0999 V2000
   -1.1572    3.9031   10.7788 C   0  0  0  0  0  0  0  0  0  0  0  0
   -1.1920    4.5161    9.3993 C   0  0  0  0  0  0  0  0  0  0  0  0
    0.0017    4.2422    8.6449 N   0  0  0  0  0  0  0  0  0  0  0  0
   -0.0292    4.3207    7.2102 C   0  0  0  0  0  0  0  0  0  0  0  0
   -1.2434    4.8819    6.6181 C   0  0  0  0  0  0  0  0  0  0  0  0
   -2.3152    5.3035    7.3761 C   0  0  0  0  0  0  0  0  0  0  0  0
   -3.4163    5.8067    6.8111 N   0  0  0  0  0  0  0  0  0  0  0  0
   -3.5225    5.9217    5.4830 C   0  0  0  0  0  0  0  0  0  0  0  0
   -2.4722    5.5128    4.6738 C   0  0  0  0  0  0  0  0  0  0  0  0
   -1.3413    4.9962    5.2486 C   0  0  0  0  0  0  0  0  0  0  0  0
    1.1848    3.8566    9.2923 C   0  0  0  0  0  0  0  0  0  0  0  0
    2.3019    3.8561    8.7276 O   0  0  0  0  0  0  0  0  0  0  0  0
    1.0632    3.4276   10.7246 C   0  0  0  0  0  0  0  0  0  0  0  0
    1.0267    2.0240   10.9064 N   0  0  0  0  0  0  0  0  0  0  0  0
    0.7448    1.1965    9.7549 C   0  0  0  0  0  0  0  0  0  0  0  0
   -0.4932    0.7760    9.3806 C   0  0  0  0  0  0  0  0  0  0  0  0
   -0.6455   -0.0046    8.2974 N   0  0  0  0  0  0  0  0  0  0  0  0
    0.3939   -0.4263    7.5093 C   0  0  0  0  0  0  0  0  0  0  0  0
    1.6813    0.0023    7.8841 C   0  0  0  0  0  0  0  0  0  0  0  0
    1.8411    0.7820    8.9652 C   0  0  0  0  0  0  0  0  0  0  0  0
    0.2958   -1.1894    6.4527 O   0  0  0  0  0  0  0  0  0  0  0  0
   -0.5464   -1.9843    5.7856 C   0  0  0  0  0  0  0  0  0  0  0  0
    1.3371    1.2202   12.3706 S   0  0  0  0  0  6  0  0  0  0  0  0
    0.3497    0.0875   12.6097 O   0  0  0  0  0  0  0  0  0  0  0  0
    1.0286    2.1807   13.5384 O   0  0  0  0  0  0  0  0  0  0  0  0
    2.9299    0.5793   12.5710 C   0  0  0  0  0  0  0  0  0  0  0  0
    3.1493   -0.7586   12.2054 C   0  0  0  0  0  0  0  0  0  0  0  0
    4.3877   -1.3349   12.3890 C   0  0  0  0  0  0  0  0  0  0  0  0
    5.4553   -0.6605   12.9246 C   0  0  0  0  0  0  0  0  0  0  0  0
    5.2533    0.6726   13.2916 C   0  0  0  0  0  0  0  0  0  0  0  0
    3.9889    1.2340   13.0973 C   0  0  0  0  0  0  0  0  0  0  0  0
    3.9123    2.6870   13.4995 C   0  0  0  0  0  0  0  0  0  0  0  0
  1  2  1  0
  2  3  1  0
  3  4  1  0
  4  5  1  0
  5  6  2  0
  6  7  1  0
  7  8  2  0
  8  9  1  0
  9 10  2  0
  3 11  1  0
 11 12  2  0
 11 13  1  0
 13 14  1  0
 14 15  1  0
 15 16  2  0
 16 17  1  0
 17 18  2  0
 18 19  1  0
 19 20  2  0
 18 21  1  0
 21 22  1  0
 14 23  1  0
 23 24  2  0
 23 25  2  0
 23 26  1  0
 26 27  2  0
 27 28  1  0
 28 29  2  0
 29 30  1  0
 30 31  2  0
 31 32  1  0
 10  5  1  0
 20 15  1  0
 31 26  1  0
M  END
$$$$
