
     RDKit          3D

 32 34  0  0  0  0  0  0  0  0999 V2000
   -3.0522    4.5896    9.0166 C   0  0  0  0  0  0  0  0  0  0  0  0
   -1.9143    5.4788    9.4576 C   0  0  0  0  0  0  0  0  0  0  0  0
   -0.6904    5.1945    8.7572 N   0  0  0  0  0  0  0  0  0  0  0  0
   -0.0226    6.2435    8.0367 C   0  0  0  0  0  0  0  0  0  0  0  0
   -0.3612    6.3733    6.6195 C   0  0  0  0  0  0  0  0  0  0  0  0
   -1.2478    5.5289    5.9854 C   0  0  0  0  0  0  0  0  0  0  0  0
   -1.5357    5.6640    4.6878 N   0  0  0  0  0  0  0  0  0  0  0  0
   -0.9732    6.6272    3.9503 C   0  0  0  0  0  0  0  0  0  0  0  0
   -0.0743    7.5046    4.5396 C   0  0  0  0  0  0  0  0  0  0  0  0
    0.2241    7.3699    5.8696 C   0  0  0  0  0  0  0  0  0  0  0  0
   -0.1647    3.8943    8.7337 C   0  0  0  0  0  0  0  0  0  0  0  0
    0.9257    3.6097    8.1889 O   0  0  0  0  0  0  0  0  0  0  0  0
   -0.9783    2.8236    9.3982 C   0  0  0  0  0  0  0  0  0  0  0  0
   -0.2067    1.7914    9.9846 N   0  0  0  0  0  0  0  0  0  0  0  0
   -0.1597    0.5123    9.3124 C   0  0  0  0  0  0  0  0  0  0  0  0
    0.8779    0.0669    8.5543 C   0  0  0  0  0  0  0  0  0  0  0  0
    0.8155   -1.1363    7.9593 N   0  0  0  0  0  0  0  0  0  0  0  0
   -0.2576   -1.9830    8.0623 C   0  0  0  0  0  0  0  0  0  0  0  0
   -1.3387   -1.5357    8.8450 C   0  0  0  0  0  0  0  0  0  0  0  0
   -1.2836   -0.3346    9.4422 C   0  0  0  0  0  0  0  0  0  0  0  0
   -0.3663   -3.1569    7.4979 O   0  0  0  0  0  0  0  0  0  0  0  0
    0.1930   -3.9579    6.5858 C   0  0  0  0  0  0  0  0  0  0  0  0
    0.7169    1.9470   11.4020 S   0  0  0  0  0  6  0  0  0  0  0  0
    0.1811    1.0661   12.5209 O   0  0  0  0  0  0  0  0  0  0  0  0
    0.5143    3.3667   11.9722 O   0  0  0  0  0  0  0  0  0  0  0  0
    2.4102    1.6339   11.2523 C   0  0  0  0  0  0  0  0  0  0  0  0
    2.9467    1.5330    9.9585 C   0  0  0  0  0  0  0  0  0  0  0  0
    4.2808    1.2368    9.7807 C   0  0  0  0  0  0  0  0  0  0  0  0
    5.1467    1.0273   10.8237 C   0  0  0  0  0  0  0  0  0  0  0  0
    4.6282    1.1262   12.1175 C   0  0  0  0  0  0  0  0  0  0  0  0
    3.2725    1.4258   12.2722 C   0  0  0  0  0  0  0  0  0  0  0  0
    2.8469    1.5400   13.7160 C   0  0  0  0  0  0  0  0  0  0  0  0
  1  2  1  0
  2  3  1  0
  3  4  1  0
  4  5  1  0
  5  6  2  0
  6  7  1  0
  7  8  2  0
  8  9  1  0
  9 10  2  0
  3 11  1  0
 11 12  2  0
 11 13  1  0
 13 14  1  0
 14 15  1  0
 15 16  2  0
 16 17  1  0
 17 18  2  0
 18 19  1  0
 19 20  2  0
 18 21  1  0
 21 22  1  0
 14 23  1  0
 23 24  2  0
 23 25  2  0
 23 26  1  0
 26 27  2  0
 27 28  1  0
 28 29  2  0
 29 30  1  0
 30 31  2  0
 31 32  1  0
 10  5  1  0
 20 15  1  0
 31 26  1  0
M  END
$$$$
