
     RDKit          3D

 32 34  0  0  0  0  0  0  0  0999 V2000
    0.1656    6.7053    7.0883 C   0  0  0  0  0  0  0  0  0  0  0  0
    0.1134    5.2249    6.7954 C   0  0  0  0  0  0  0  0  0  0  0  0
   -0.9065    4.5496    7.5523 N   0  0  0  0  0  0  0  0  0  0  0  0
   -2.2682    4.5760    7.0935 C   0  0  0  0  0  0  0  0  0  0  0  0
   -2.4703    4.9037    5.6823 C   0  0  0  0  0  0  0  0  0  0  0  0
   -1.5049    4.6871    4.7220 C   0  0  0  0  0  0  0  0  0  0  0  0
   -1.7111    5.0012    3.4399 N   0  0  0  0  0  0  0  0  0  0  0  0
   -2.8665    5.5399    3.0361 C   0  0  0  0  0  0  0  0  0  0  0  0
   -3.8720    5.7781    3.9621 C   0  0  0  0  0  0  0  0  0  0  0  0
   -3.6651    5.4578    5.2777 C   0  0  0  0  0  0  0  0  0  0  0  0
   -0.5935    3.9023    8.7566 C   0  0  0  0  0  0  0  0  0  0  0  0
   -1.4640    3.4408    9.5287 O   0  0  0  0  0  0  0  0  0  0  0  0
    0.8613    3.7819    9.1016 C   0  0  0  0  0  0  0  0  0  0  0  0
    1.1202    3.6877   10.4904 N   0  0  0  0  0  0  0  0  0  0  0  0
    1.3962    4.9081   11.2146 C   0  0  0  0  0  0  0  0  0  0  0  0
    0.4802    5.6161   11.9282 C   0  0  0  0  0  0  0  0  0  0  0  0
    0.8380    6.7492   12.5557 N   0  0  0  0  0  0  0  0  0  0  0  0
    2.1071    7.2667   12.5302 C   0  0  0  0  0  0  0  0  0  0  0  0
    3.0663    6.5437   11.7962 C   0  0  0  0  0  0  0  0  0  0  0  0
    2.7161    5.4110   11.1665 C   0  0  0  0  0  0  0  0  0  0  0  0
    2.5000    8.3660   13.1180 O   0  0  0  0  0  0  0  0  0  0  0  0
    2.0547    9.4478   13.7643 C   0  0  0  0  0  0  0  0  0  0  0  0
    1.0859    2.2502   11.3952 S   0  0  0  0  0  6  0  0  0  0  0  0
   -0.3384    1.7727   11.6370 O   0  0  0  0  0  0  0  0  0  0  0  0
    1.5811    2.5528   12.8252 O   0  0  0  0  0  0  0  0  0  0  0  0
    1.9844    0.9195   10.7552 C   0  0  0  0  0  0  0  0  0  0  0  0
    1.2961   -0.0193    9.9698 C   0  0  0  0  0  0  0  0  0  0  0  0
    1.9525   -1.1253    9.4743 C   0  0  0  0  0  0  0  0  0  0  0  0
    3.2808   -1.3747    9.7083 C   0  0  0  0  0  0  0  0  0  0  0  0
    3.9801   -0.4484   10.4866 C   0  0  0  0  0  0  0  0  0  0  0  0
    3.2927    0.6637   10.9789 C   0  0  0  0  0  0  0  0  0  0  0  0
    4.1677    1.6040   11.7720 C   0  0  0  0  0  0  0  0  0  0  0  0
  1  2  1  0
  2  3  1  0
  3  4  1  0
  4  5  1  0
  5  6  2  0
  6  7  1  0
  7  8  2  0
  8  9  1  0
  9 10  2  0
  3 11  1  0
 11 12  2  0
 11 13  1  0
 13 14  1  0
 14 15  1  0
 15 16  2  0
 16 17  1  0
 17 18  2  0
 18 19  1  0
 19 20  2  0
 18 21  1  0
 21 22  1  0
 14 23  1  0
 23 24  2  0
 23 25  2  0
 23 26  1  0
 26 27  2  0
 27 28  1  0
 28 29  2  0
 29 30  1  0
 30 31  2  0
 31 32  1  0
 10  5  1  0
 20 15  1  0
 31 26  1  0
M  END
$$$$
