
     RDKit          3D

 32 34  0  0  0  0  0  0  0  0999 V2000
    2.6276    5.7720    7.7752 C   0  0  0  0  0  0  0  0  0  0  0  0
    1.4962    4.9298    7.2362 C   0  0  0  0  0  0  0  0  0  0  0  0
    0.3611    4.9026    8.1194 N   0  0  0  0  0  0  0  0  0  0  0  0
   -0.6383    5.9312    8.0260 C   0  0  0  0  0  0  0  0  0  0  0  0
   -1.4602    5.9280    6.8160 C   0  0  0  0  0  0  0  0  0  0  0  0
   -1.8910    7.0868    6.2054 C   0  0  0  0  0  0  0  0  0  0  0  0
   -2.6469    7.0575    5.1042 N   0  0  0  0  0  0  0  0  0  0  0  0
   -3.0167    5.8987    4.5487 C   0  0  0  0  0  0  0  0  0  0  0  0
   -2.6097    4.7030    5.1230 C   0  0  0  0  0  0  0  0  0  0  0  0
   -1.8347    4.7280    6.2521 C   0  0  0  0  0  0  0  0  0  0  0  0
    0.2412    3.9071    9.1002 C   0  0  0  0  0  0  0  0  0  0  0  0
   -0.6904    3.8822    9.9358 O   0  0  0  0  0  0  0  0  0  0  0  0
    1.2998    2.8445    9.1184 C   0  0  0  0  0  0  0  0  0  0  0  0
    1.2687    2.0172   10.2670 N   0  0  0  0  0  0  0  0  0  0  0  0
    0.7470    0.6764   10.1249 C   0  0  0  0  0  0  0  0  0  0  0  0
   -0.5432    0.3127   10.3552 C   0  0  0  0  0  0  0  0  0  0  0  0
   -0.9236   -0.9675   10.2067 N   0  0  0  0  0  0  0  0  0  0  0  0
   -0.0762   -1.9754    9.8256 C   0  0  0  0  0  0  0  0  0  0  0  0
    1.2623   -1.6134    9.5827 C   0  0  0  0  0  0  0  0  0  0  0  0
    1.6497   -0.3364    9.7292 C   0  0  0  0  0  0  0  0  0  0  0  0
   -0.3980   -3.2332    9.6747 O   0  0  0  0  0  0  0  0  0  0  0  0
   -1.3474   -4.1320    9.9521 C   0  0  0  0  0  0  0  0  0  0  0  0
    1.8437    2.4574   11.8038 S   0  0  0  0  0  6  0  0  0  0  0  0
    0.7594    2.3379   12.8645 O   0  0  0  0  0  0  0  0  0  0  0  0
    2.1439    3.9711   11.8059 O   0  0  0  0  0  0  0  0  0  0  0  0
    3.2340    1.6042   12.3758 C   0  0  0  0  0  0  0  0  0  0  0  0
    4.4978    2.0648   11.9729 C   0  0  0  0  0  0  0  0  0  0  0  0
    5.6377    1.3937   12.3600 C   0  0  0  0  0  0  0  0  0  0  0  0
    5.6140    0.2661   13.1405 C   0  0  0  0  0  0  0  0  0  0  0  0
    4.3636   -0.2036   13.5512 C   0  0  0  0  0  0  0  0  0  0  0  0
    3.2227    0.4925   13.1447 C   0  0  0  0  0  0  0  0  0  0  0  0
    1.9408   -0.0945   13.6842 C   0  0  0  0  0  0  0  0  0  0  0  0
  1  2  1  0
  2  3  1  0
  3  4  1  0
  4  5  1  0
  5  6  2  0
  6  7  1  0
  7  8  2  0
  8  9  1  0
  9 10  2  0
  3 11  1  0
 11 12  2  0
 11 13  1  0
 13 14  1  0
 14 15  1  0
 15 16  2  0
 16 17  1  0
 17 18  2  0
 18 19  1  0
 19 20  2  0
 18 21  1  0
 21 22  1  0
 14 23  1  0
 23 24  2  0
 23 25  2  0
 23 26  1  0
 26 27  2  0
 27 28  1  0
 28 29  2  0
 29 30  1  0
 30 31  2  0
 31 32  1  0
 10  5  1  0
 20 15  1  0
 31 26  1  0
M  END
$$$$
