
     RDKit          3D

 32 34  0  0  0  0  0  0  0  0999 V2000
    0.5447   -0.7592   10.7949 C   0  0  0  0  0  0  0  0  0  0  0  0
    0.7456    0.4857   11.6253 C   0  0  0  0  0  0  0  0  0  0  0  0
    1.8654    1.2705   11.1787 N   0  0  0  0  0  0  0  0  0  0  0  0
    3.2025    0.7889   11.3924 C   0  0  0  0  0  0  0  0  0  0  0  0
    3.7560    0.9867   12.7319 C   0  0  0  0  0  0  0  0  0  0  0  0
    3.0850    1.6746   13.7208 C   0  0  0  0  0  0  0  0  0  0  0  0
    3.6148    1.8476   14.9349 N   0  0  0  0  0  0  0  0  0  0  0  0
    4.8214    1.3584   15.2401 C   0  0  0  0  0  0  0  0  0  0  0  0
    5.5389    0.6574   14.2814 C   0  0  0  0  0  0  0  0  0  0  0  0
    4.9998    0.4776   13.0352 C   0  0  0  0  0  0  0  0  0  0  0  0
    1.6676    2.5214   10.5756 C   0  0  0  0  0  0  0  0  0  0  0  0
    2.6035    3.3154   10.3302 O   0  0  0  0  0  0  0  0  0  0  0  0
    0.2554    2.8892   10.2284 C   0  0  0  0  0  0  0  0  0  0  0  0
    0.0766    3.2889    8.8820 N   0  0  0  0  0  0  0  0  0  0  0  0
   -0.3343    2.2868    7.9243 C   0  0  0  0  0  0  0  0  0  0  0  0
   -1.6202    1.9083    7.6942 C   0  0  0  0  0  0  0  0  0  0  0  0
   -1.8945    0.9541    6.7887 N   0  0  0  0  0  0  0  0  0  0  0  0
   -0.9383    0.3070    6.0496 C   0  0  0  0  0  0  0  0  0  0  0  0
    0.3973    0.6894    6.2764 C   0  0  0  0  0  0  0  0  0  0  0  0
    0.6789    1.6418    7.1797 C   0  0  0  0  0  0  0  0  0  0  0  0
   -1.1558   -0.6297    5.1644 O   0  0  0  0  0  0  0  0  0  0  0  0
   -2.1033   -1.4347    4.6740 C   0  0  0  0  0  0  0  0  0  0  0  0
    0.2601    4.8749    8.3012 S   0  0  0  0  0  6  0  0  0  0  0  0
    1.7236    5.2244    8.0754 O   0  0  0  0  0  0  0  0  0  0  0  0
   -0.1480    5.8612    9.4157 O   0  0  0  0  0  0  0  0  0  0  0  0
   -0.6024    5.2667    6.8553 C   0  0  0  0  0  0  0  0  0  0  0  0
    0.0985    5.2169    5.6396 C   0  0  0  0  0  0  0  0  0  0  0  0
   -0.5269    5.5661    4.4622 C   0  0  0  0  0  0  0  0  0  0  0  0
   -1.8354    5.9729    4.4016 C   0  0  0  0  0  0  0  0  0  0  0  0
   -2.5471    6.0257    5.6030 C   0  0  0  0  0  0  0  0  0  0  0  0
   -1.8910    5.6686    6.7836 C   0  0  0  0  0  0  0  0  0  0  0  0
   -2.7783    5.7330    8.0031 C   0  0  0  0  0  0  0  0  0  0  0  0
  1  2  1  0
  2  3  1  0
  3  4  1  0
  4  5  1  0
  5  6  2  0
  6  7  1  0
  7  8  2  0
  8  9  1  0
  9 10  2  0
  3 11  1  0
 11 12  2  0
 11 13  1  0
 13 14  1  0
 14 15  1  0
 15 16  2  0
 16 17  1  0
 17 18  2  0
 18 19  1  0
 19 20  2  0
 18 21  1  0
 21 22  1  0
 14 23  1  0
 23 24  2  0
 23 25  2  0
 23 26  1  0
 26 27  2  0
 27 28  1  0
 28 29  2  0
 29 30  1  0
 30 31  2  0
 31 32  1  0
 10  5  1  0
 20 15  1  0
 31 26  1  0
M  END
$$$$
