
     RDKit          3D

 25 28  0  0  0  0  0  0  0  0999 V2000
    1.8092    0.0972    6.7329 C   0  0  0  0  0  0  0  0  0  0  0  0
    3.0521   -0.1406    7.2829 C   0  0  0  0  0  0  0  0  0  0  0  0
    3.2653    0.7301    8.2321 O   0  0  0  0  0  0  0  0  0  0  0  0
    2.2607    1.5565    8.3823 C   0  0  0  0  0  0  0  0  0  0  0  0
    1.3178    1.1825    7.4450 C   0  0  0  0  0  0  0  0  0  0  0  0
    2.1230    2.6609    9.3323 C   0  0  0  0  0  0  0  0  0  0  0  0
    2.8747    2.9687   10.3990 N   0  0  0  0  0  0  0  0  0  0  0  0
    2.4381    4.0514   11.0244 N   0  0  0  0  0  0  0  0  0  0  0  0
    2.8510    4.7278   12.1111 C   0  0  0  0  0  0  0  0  0  0  0  0
    2.1875    5.8161   12.5119 N   0  0  0  0  0  0  0  0  0  0  0  0
    1.0961    6.2602   11.8423 C   0  0  0  0  0  0  0  0  0  0  0  0
    0.7283    5.5573   10.7752 N   0  0  0  0  0  0  0  0  0  0  0  0
    1.3480    4.4573   10.3185 C   0  0  0  0  0  0  0  0  0  0  0  0
    1.1683    3.6056    9.2956 N   0  0  0  0  0  0  0  0  0  0  0  0
    0.3979    7.4192   12.2777 N   0  0  0  0  0  0  0  0  0  0  0  0
    0.9261    8.3445   13.2351 C   0  0  0  0  0  0  0  0  0  0  0  0
    0.7360    7.8783   14.6607 C   0  0  0  0  0  0  0  0  0  0  0  0
    1.9172    8.2012   15.4995 C   0  0  0  0  0  0  0  0  0  0  0  0
    2.6006    9.3981   15.3005 C   0  0  0  0  0  0  0  0  0  0  0  0
    3.7068    9.7233   16.0754 C   0  0  0  0  0  0  0  0  0  0  0  0
    4.1409    8.8618   17.0524 C   0  0  0  0  0  0  0  0  0  0  0  0
    3.4906    7.6808   17.2705 C   0  0  0  0  0  0  0  0  0  0  0  0
    2.3873    7.3689   16.4893 C   0  0  0  0  0  0  0  0  0  0  0  0
    5.2471    9.1962   17.8211 O   0  0  0  0  0  0  0  0  0  0  0  0
    3.9813    4.3070   12.8432 N   0  0  0  0  0  0  0  0  0  0  0  0
  1  2  2  0
  2  3  1  0
  3  4  1  0
  4  5  2  0
  4  6  1  0
  6  7  2  0
  7  8  1  0
  8  9  1  0
  9 10  2  0
 10 11  1  0
 11 12  2  0
 12 13  1  0
 13 14  2  0
 11 15  1  0
 15 16  1  0
 16 17  1  0
 17 18  1  0
 18 19  2  0
 19 20  1  0
 20 21  2  0
 21 22  1  0
 22 23  2  0
 21 24  1  0
  9 25  1  0
  5  1  1  0
 14  6  1  0
 13  8  1  0
 23 18  1  0
M  END
$$$$
