
     RDKit          3D

 25 28  0  0  0  0  0  0  0  0999 V2000
    1.5612    0.1279    6.5249 C   0  0  0  0  0  0  0  0  0  0  0  0
    2.8361   -0.1047    6.9988 C   0  0  0  0  0  0  0  0  0  0  0  0
    3.1019    0.7658    7.9348 O   0  0  0  0  0  0  0  0  0  0  0  0
    2.1043    1.5871    8.1465 C   0  0  0  0  0  0  0  0  0  0  0  0
    1.1084    1.2098    7.2671 C   0  0  0  0  0  0  0  0  0  0  0  0
    2.0188    2.6895    9.1049 C   0  0  0  0  0  0  0  0  0  0  0  0
    2.8312    2.9989   10.1256 N   0  0  0  0  0  0  0  0  0  0  0  0
    2.4281    4.0789   10.7776 N   0  0  0  0  0  0  0  0  0  0  0  0
    2.9021    4.7554   11.8391 C   0  0  0  0  0  0  0  0  0  0  0  0
    2.2592    5.8405   12.2803 N   0  0  0  0  0  0  0  0  0  0  0  0
    1.1282    6.2809   11.6775 C   0  0  0  0  0  0  0  0  0  0  0  0
    0.7005    5.5781   10.6329 N   0  0  0  0  0  0  0  0  0  0  0  0
    1.2964    4.4813   10.1384 C   0  0  0  0  0  0  0  0  0  0  0  0
    1.0597    3.6304    9.1265 N   0  0  0  0  0  0  0  0  0  0  0  0
    0.4523    7.4364   12.1555 N   0  0  0  0  0  0  0  0  0  0  0  0
    1.0052    8.3248   13.1338 C   0  0  0  0  0  0  0  0  0  0  0  0
    0.8662    7.7964   14.5436 C   0  0  0  0  0  0  0  0  0  0  0  0
    2.0997    8.0310   15.3351 C   0  0  0  0  0  0  0  0  0  0  0  0
    2.2015    7.5181   16.6257 C   0  0  0  0  0  0  0  0  0  0  0  0
    3.3473    7.7221   17.3843 C   0  0  0  0  0  0  0  0  0  0  0  0
    4.3988    8.4367   16.8657 C   0  0  0  0  0  0  0  0  0  0  0  0
    4.3276    8.9518   15.6028 C   0  0  0  0  0  0  0  0  0  0  0  0
    3.1773    8.7403   14.8565 C   0  0  0  0  0  0  0  0  0  0  0  0
    5.5390    8.6349   17.6319 O   0  0  0  0  0  0  0  0  0  0  0  0
    4.0756    4.3383   12.5020 N   0  0  0  0  0  0  0  0  0  0  0  0
  1  2  2  0
  2  3  1  0
  3  4  1  0
  4  5  2  0
  4  6  1  0
  6  7  2  0
  7  8  1  0
  8  9  1  0
  9 10  2  0
 10 11  1  0
 11 12  2  0
 12 13  1  0
 13 14  2  0
 11 15  1  0
 15 16  1  0
 16 17  1  0
 17 18  1  0
 18 19  2  0
 19 20  1  0
 20 21  2  0
 21 22  1  0
 22 23  2  0
 21 24  1  0
  9 25  1  0
  5  1  1  0
 14  6  1  0
 13  8  1  0
 23 18  1  0
M  END
$$$$
