
     RDKit          3D

 25 28  0  0  0  0  0  0  0  0999 V2000
    3.7362   -0.3065    8.0097 C   0  0  0  0  0  0  0  0  0  0  0  0
    2.9512   -0.1454    6.8864 C   0  0  0  0  0  0  0  0  0  0  0  0
    2.1848    0.8979    7.0552 O   0  0  0  0  0  0  0  0  0  0  0  0
    2.3796    1.4745    8.2146 C   0  0  0  0  0  0  0  0  0  0  0  0
    3.3594    0.7345    8.8470 C   0  0  0  0  0  0  0  0  0  0  0  0
    1.7194    2.6579    8.7666 C   0  0  0  0  0  0  0  0  0  0  0  0
    0.7978    3.4584    8.2122 N   0  0  0  0  0  0  0  0  0  0  0  0
    0.4320    4.4391    9.0237 N   0  0  0  0  0  0  0  0  0  0  0  0
   -0.4366    5.4603    8.9159 C   0  0  0  0  0  0  0  0  0  0  0  0
   -0.5946    6.3123    9.9330 N   0  0  0  0  0  0  0  0  0  0  0  0
    0.1072    6.1710   11.0837 C   0  0  0  0  0  0  0  0  0  0  0  0
    0.9526    5.1463   11.1408 N   0  0  0  0  0  0  0  0  0  0  0  0
    1.1598    4.2548   10.1584 C   0  0  0  0  0  0  0  0  0  0  0  0
    1.9359    3.1717    9.9891 N   0  0  0  0  0  0  0  0  0  0  0  0
   -0.0689    7.0834   12.1593 N   0  0  0  0  0  0  0  0  0  0  0  0
    0.7932    7.1305   13.3022 C   0  0  0  0  0  0  0  0  0  0  0  0
    2.1290    7.7696   12.9971 C   0  0  0  0  0  0  0  0  0  0  0  0
    3.1097    7.5226   14.0835 C   0  0  0  0  0  0  0  0  0  0  0  0
    2.9617    8.1673   15.3089 C   0  0  0  0  0  0  0  0  0  0  0  0
    3.8652    7.9494   16.3415 C   0  0  0  0  0  0  0  0  0  0  0  0
    4.9210    7.0899   16.1632 C   0  0  0  0  0  0  0  0  0  0  0  0
    5.0917    6.4434   14.9724 C   0  0  0  0  0  0  0  0  0  0  0  0
    4.1818    6.6704   13.9499 C   0  0  0  0  0  0  0  0  0  0  0  0
    5.8180    6.8792   17.2012 O   0  0  0  0  0  0  0  0  0  0  0  0
   -1.1913    5.6515    7.7393 N   0  0  0  0  0  0  0  0  0  0  0  0
  1  2  2  0
  2  3  1  0
  3  4  1  0
  4  5  2  0
  4  6  1  0
  6  7  2  0
  7  8  1  0
  8  9  1  0
  9 10  2  0
 10 11  1  0
 11 12  2  0
 12 13  1  0
 13 14  2  0
 11 15  1  0
 15 16  1  0
 16 17  1  0
 17 18  1  0
 18 19  2  0
 19 20  1  0
 20 21  2  0
 21 22  1  0
 22 23  2  0
 21 24  1  0
  9 25  1  0
  5  1  1  0
 14  6  1  0
 13  8  1  0
 23 18  1  0
M  END
$$$$
