
     RDKit          3D

 25 28  0  0  0  0  0  0  0  0999 V2000
    2.1635    0.2143    6.4878 C   0  0  0  0  0  0  0  0  0  0  0  0
    3.3786    0.0112    7.1095 C   0  0  0  0  0  0  0  0  0  0  0  0
    3.4715    0.8244    8.1266 O   0  0  0  0  0  0  0  0  0  0  0  0
    2.4091    1.5786    8.2578 C   0  0  0  0  0  0  0  0  0  0  0  0
    1.5575    1.2168    7.2323 C   0  0  0  0  0  0  0  0  0  0  0  0
    2.1379    2.6040    9.2657 C   0  0  0  0  0  0  0  0  0  0  0  0
    2.8045    2.8909   10.3931 N   0  0  0  0  0  0  0  0  0  0  0  0
    2.2552    3.8958   11.0583 N   0  0  0  0  0  0  0  0  0  0  0  0
    2.5562    4.5245   12.2086 C   0  0  0  0  0  0  0  0  0  0  0  0
    1.7932    5.5343   12.6367 N   0  0  0  0  0  0  0  0  0  0  0  0
    0.7108    5.9451   11.9321 C   0  0  0  0  0  0  0  0  0  0  0  0
    0.4556    5.2919   10.8025 N   0  0  0  0  0  0  0  0  0  0  0  0
    1.1791    4.2712   10.3152 C   0  0  0  0  0  0  0  0  0  0  0  0
    1.1196    3.4800    9.2314 N   0  0  0  0  0  0  0  0  0  0  0  0
   -0.0940    7.0205   12.3972 N   0  0  0  0  0  0  0  0  0  0  0  0
    0.1829    7.7503   13.5982 C   0  0  0  0  0  0  0  0  0  0  0  0
    1.3063    8.7476   13.4268 C   0  0  0  0  0  0  0  0  0  0  0  0
    2.4353    8.4566   14.3454 C   0  0  0  0  0  0  0  0  0  0  0  0
    2.1772    8.0733   15.6590 C   0  0  0  0  0  0  0  0  0  0  0  0
    3.2175    7.7929   16.5360 C   0  0  0  0  0  0  0  0  0  0  0  0
    4.5202    7.8914   16.1136 C   0  0  0  0  0  0  0  0  0  0  0  0
    4.8039    8.2650   14.8309 C   0  0  0  0  0  0  0  0  0  0  0  0
    3.7552    8.5420   13.9659 C   0  0  0  0  0  0  0  0  0  0  0  0
    5.5522    7.6091   16.9977 O   0  0  0  0  0  0  0  0  0  0  0  0
    3.6721    4.1353   12.9792 N   0  0  0  0  0  0  0  0  0  0  0  0
  1  2  2  0
  2  3  1  0
  3  4  1  0
  4  5  2  0
  4  6  1  0
  6  7  2  0
  7  8  1  0
  8  9  1  0
  9 10  2  0
 10 11  1  0
 11 12  2  0
 12 13  1  0
 13 14  2  0
 11 15  1  0
 15 16  1  0
 16 17  1  0
 17 18  1  0
 18 19  2  0
 19 20  1  0
 20 21  2  0
 21 22  1  0
 22 23  2  0
 21 24  1  0
  9 25  1  0
  5  1  1  0
 14  6  1  0
 13  8  1  0
 23 18  1  0
M  END
$$$$
