
     RDKit          3D

 25 28  0  0  0  0  0  0  0  0999 V2000
    2.0035    0.1902    6.5538 C   0  0  0  0  0  0  0  0  0  0  0  0
    3.1345   -0.1663    7.2593 C   0  0  0  0  0  0  0  0  0  0  0  0
    3.2495    0.6206    8.2947 O   0  0  0  0  0  0  0  0  0  0  0  0
    2.2805    1.4988    8.3607 C   0  0  0  0  0  0  0  0  0  0  0  0
    1.4705    1.2535    7.2692 C   0  0  0  0  0  0  0  0  0  0  0  0
    2.0619    2.5413    9.3639 C   0  0  0  0  0  0  0  0  0  0  0  0
    2.6831    2.7438   10.5347 N   0  0  0  0  0  0  0  0  0  0  0  0
    2.2082    3.7995   11.1782 N   0  0  0  0  0  0  0  0  0  0  0  0
    2.5036    4.3825   12.3537 C   0  0  0  0  0  0  0  0  0  0  0  0
    1.8324    5.4687   12.7473 N   0  0  0  0  0  0  0  0  0  0  0  0
    0.8499    6.0033   11.9821 C   0  0  0  0  0  0  0  0  0  0  0  0
    0.5958    5.3906   10.8297 N   0  0  0  0  0  0  0  0  0  0  0  0
    1.2303    4.2984   10.3745 C   0  0  0  0  0  0  0  0  0  0  0  0
    1.1520    3.5264    9.2782 N   0  0  0  0  0  0  0  0  0  0  0  0
    0.1422    7.1591   12.4109 N   0  0  0  0  0  0  0  0  0  0  0  0
    0.3824    7.8110   13.6635 C   0  0  0  0  0  0  0  0  0  0  0  0
    1.6198    8.6794   13.6393 C   0  0  0  0  0  0  0  0  0  0  0  0
    2.3163    8.6685   14.9499 C   0  0  0  0  0  0  0  0  0  0  0  0
    3.6103    8.1622   15.0415 C   0  0  0  0  0  0  0  0  0  0  0  0
    4.2833    8.1445   16.2567 C   0  0  0  0  0  0  0  0  0  0  0  0
    3.6752    8.6296   17.3881 C   0  0  0  0  0  0  0  0  0  0  0  0
    2.4068    9.1323   17.3289 C   0  0  0  0  0  0  0  0  0  0  0  0
    1.7465    9.1438   16.1087 C   0  0  0  0  0  0  0  0  0  0  0  0
    4.3563    8.6073   18.5973 O   0  0  0  0  0  0  0  0  0  0  0  0
    3.5176    3.8651   13.1871 N   0  0  0  0  0  0  0  0  0  0  0  0
  1  2  2  0
  2  3  1  0
  3  4  1  0
  4  5  2  0
  4  6  1  0
  6  7  2  0
  7  8  1  0
  8  9  1  0
  9 10  2  0
 10 11  1  0
 11 12  2  0
 12 13  1  0
 13 14  2  0
 11 15  1  0
 15 16  1  0
 16 17  1  0
 17 18  1  0
 18 19  2  0
 19 20  1  0
 20 21  2  0
 21 22  1  0
 22 23  2  0
 21 24  1  0
  9 25  1  0
  5  1  1  0
 14  6  1  0
 13  8  1  0
 23 18  1  0
M  END
$$$$
