
     RDKit          3D

 25 28  0  0  0  0  0  0  0  0999 V2000
    0.7476    1.1919    6.7049 C   0  0  0  0  0  0  0  0  0  0  0  0
    1.9407    0.6027    7.0704 C   0  0  0  0  0  0  0  0  0  0  0  0
    2.3774    1.1773    8.1583 O   0  0  0  0  0  0  0  0  0  0  0  0
    1.5746    2.1237    8.5763 C   0  0  0  0  0  0  0  0  0  0  0  0
    0.5283    2.1596    7.6755 C   0  0  0  0  0  0  0  0  0  0  0  0
    1.7169    2.9880    9.7483 C   0  0  0  0  0  0  0  0  0  0  0  0
    2.6534    2.9789   10.7077 N   0  0  0  0  0  0  0  0  0  0  0  0
    2.4505    3.9218   11.6154 N   0  0  0  0  0  0  0  0  0  0  0  0
    3.1021    4.2938   12.7316 C   0  0  0  0  0  0  0  0  0  0  0  0
    2.6433    5.3127   13.4642 N   0  0  0  0  0  0  0  0  0  0  0  0
    1.5244    5.9881   13.1057 C   0  0  0  0  0  0  0  0  0  0  0  0
    0.9168    5.5822   11.9948 N   0  0  0  0  0  0  0  0  0  0  0  0
    1.3228    4.5685   11.2136 C   0  0  0  0  0  0  0  0  0  0  0  0
    0.8885    3.9924   10.0807 N   0  0  0  0  0  0  0  0  0  0  0  0
    1.0452    7.0705   13.8926 N   0  0  0  0  0  0  0  0  0  0  0  0
   -0.0632    7.8931   13.5100 C   0  0  0  0  0  0  0  0  0  0  0  0
    0.3160    8.9420   12.4892 C   0  0  0  0  0  0  0  0  0  0  0  0
    0.5610   10.2586   13.1291 C   0  0  0  0  0  0  0  0  0  0  0  0
   -0.1508   10.6158   14.2714 C   0  0  0  0  0  0  0  0  0  0  0  0
    0.0636   11.8414   14.8895 C   0  0  0  0  0  0  0  0  0  0  0  0
    0.9863   12.7194   14.3768 C   0  0  0  0  0  0  0  0  0  0  0  0
    1.6994   12.3965   13.2576 C   0  0  0  0  0  0  0  0  0  0  0  0
    1.4750   11.1692   12.6507 C   0  0  0  0  0  0  0  0  0  0  0  0
    1.1929   13.9413   15.0018 O   0  0  0  0  0  0  0  0  0  0  0  0
    4.2714    3.6232   13.1483 N   0  0  0  0  0  0  0  0  0  0  0  0
  1  2  2  0
  2  3  1  0
  3  4  1  0
  4  5  2  0
  4  6  1  0
  6  7  2  0
  7  8  1  0
  8  9  1  0
  9 10  2  0
 10 11  1  0
 11 12  2  0
 12 13  1  0
 13 14  2  0
 11 15  1  0
 15 16  1  0
 16 17  1  0
 17 18  1  0
 18 19  2  0
 19 20  1  0
 20 21  2  0
 21 22  1  0
 22 23  2  0
 21 24  1  0
  9 25  1  0
  5  1  1  0
 14  6  1  0
 13  8  1  0
 23 18  1  0
M  END
$$$$
