
     RDKit          3D

 25 28  0  0  0  0  0  0  0  0999 V2000
    1.7100    0.4317    6.1883 C   0  0  0  0  0  0  0  0  0  0  0  0
    2.9229    0.0378    6.7152 C   0  0  0  0  0  0  0  0  0  0  0  0
    3.1845    0.7719    7.7626 O   0  0  0  0  0  0  0  0  0  0  0  0
    2.2415    1.6482    8.0026 C   0  0  0  0  0  0  0  0  0  0  0  0
    1.2887    1.4594    7.0208 C   0  0  0  0  0  0  0  0  0  0  0  0
    2.1706    2.6400    9.0761 C   0  0  0  0  0  0  0  0  0  0  0  0
    2.9312    2.7676   10.1727 N   0  0  0  0  0  0  0  0  0  0  0  0
    2.5637    3.7968   10.9209 N   0  0  0  0  0  0  0  0  0  0  0  0
    3.0114    4.3105   12.0804 C   0  0  0  0  0  0  0  0  0  0  0  0
    2.4201    5.3874   12.6058 N   0  0  0  0  0  0  0  0  0  0  0  0
    1.3681    5.9813   11.9917 C   0  0  0  0  0  0  0  0  0  0  0  0
    0.9633    5.4359   10.8486 N   0  0  0  0  0  0  0  0  0  0  0  0
    1.5107    4.3571   10.2662 C   0  0  0  0  0  0  0  0  0  0  0  0
    1.2830    3.6461    9.1497 N   0  0  0  0  0  0  0  0  0  0  0  0
    0.7466    7.1265   12.5598 N   0  0  0  0  0  0  0  0  0  0  0  0
    1.1487    7.7044   13.8073 C   0  0  0  0  0  0  0  0  0  0  0  0
    2.5052    8.3677   13.7304 C   0  0  0  0  0  0  0  0  0  0  0  0
    2.9743    8.8008   15.0704 C   0  0  0  0  0  0  0  0  0  0  0  0
    2.1365    8.6640   16.1742 C   0  0  0  0  0  0  0  0  0  0  0  0
    2.5549    9.0594   17.4386 C   0  0  0  0  0  0  0  0  0  0  0  0
    3.8077    9.5929   17.6141 C   0  0  0  0  0  0  0  0  0  0  0  0
    4.6514    9.7391   16.5502 C   0  0  0  0  0  0  0  0  0  0  0  0
    4.2205    9.3400   15.2932 C   0  0  0  0  0  0  0  0  0  0  0  0
    4.2160    9.9848   18.8815 O   0  0  0  0  0  0  0  0  0  0  0  0
    4.1033    3.7296   12.7593 N   0  0  0  0  0  0  0  0  0  0  0  0
  1  2  2  0
  2  3  1  0
  3  4  1  0
  4  5  2  0
  4  6  1  0
  6  7  2  0
  7  8  1  0
  8  9  1  0
  9 10  2  0
 10 11  1  0
 11 12  2  0
 12 13  1  0
 13 14  2  0
 11 15  1  0
 15 16  1  0
 16 17  1  0
 17 18  1  0
 18 19  2  0
 19 20  1  0
 20 21  2  0
 21 22  1  0
 22 23  2  0
 21 24  1  0
  9 25  1  0
  5  1  1  0
 14  6  1  0
 13  8  1  0
 23 18  1  0
M  END
$$$$
