
     RDKit          3D

 25 28  0  0  0  0  0  0  0  0999 V2000
    4.1606   -0.2107    8.2008 C   0  0  0  0  0  0  0  0  0  0  0  0
    3.3814   -0.0624    7.0717 C   0  0  0  0  0  0  0  0  0  0  0  0
    2.5534    0.9293    7.2598 O   0  0  0  0  0  0  0  0  0  0  0  0
    2.7000    1.4818    8.4379 C   0  0  0  0  0  0  0  0  0  0  0  0
    3.7135    0.7816    9.0623 C   0  0  0  0  0  0  0  0  0  0  0  0
    1.9651    2.6081    9.0143 C   0  0  0  0  0  0  0  0  0  0  0  0
    0.9787    3.3454    8.4843 N   0  0  0  0  0  0  0  0  0  0  0  0
    0.5565    4.2882    9.3132 N   0  0  0  0  0  0  0  0  0  0  0  0
   -0.3855    5.2447    9.2314 C   0  0  0  0  0  0  0  0  0  0  0  0
   -0.5877    6.0721   10.2609 N   0  0  0  0  0  0  0  0  0  0  0  0
    0.1418    5.9698   11.3985 C   0  0  0  0  0  0  0  0  0  0  0  0
    1.0602    5.0088   11.4299 N   0  0  0  0  0  0  0  0  0  0  0  0
    1.3148    4.1452   10.4338 C   0  0  0  0  0  0  0  0  0  0  0  0
    2.1644    3.1233   10.2393 N   0  0  0  0  0  0  0  0  0  0  0  0
   -0.0818    6.8556   12.4875 N   0  0  0  0  0  0  0  0  0  0  0  0
    0.7916    6.9500   13.6189 C   0  0  0  0  0  0  0  0  0  0  0  0
    2.0310    7.7664   13.3304 C   0  0  0  0  0  0  0  0  0  0  0  0
    2.7823    8.0705   14.5738 C   0  0  0  0  0  0  0  0  0  0  0  0
    3.8696    7.2796   14.9361 C   0  0  0  0  0  0  0  0  0  0  0  0
    4.5898    7.5468   16.0936 C   0  0  0  0  0  0  0  0  0  0  0  0
    4.2345    8.6011   16.8981 C   0  0  0  0  0  0  0  0  0  0  0  0
    3.1727    9.3942   16.5684 C   0  0  0  0  0  0  0  0  0  0  0  0
    2.4624    9.1158   15.4096 C   0  0  0  0  0  0  0  0  0  0  0  0
    4.9606    8.8595   18.0525 O   0  0  0  0  0  0  0  0  0  0  0  0
   -1.1718    5.3931    8.0695 N   0  0  0  0  0  0  0  0  0  0  0  0
  1  2  2  0
  2  3  1  0
  3  4  1  0
  4  5  2  0
  4  6  1  0
  6  7  2  0
  7  8  1  0
  8  9  1  0
  9 10  2  0
 10 11  1  0
 11 12  2  0
 12 13  1  0
 13 14  2  0
 11 15  1  0
 15 16  1  0
 16 17  1  0
 17 18  1  0
 18 19  2  0
 19 20  1  0
 20 21  2  0
 21 22  1  0
 22 23  2  0
 21 24  1  0
  9 25  1  0
  5  1  1  0
 14  6  1  0
 13  8  1  0
 23 18  1  0
M  END
$$$$
