
     RDKit          3D

 25 28  0  0  0  0  0  0  0  0999 V2000
    2.1060    0.1613    6.3531 C   0  0  0  0  0  0  0  0  0  0  0  0
    3.3212   -0.1395    6.9337 C   0  0  0  0  0  0  0  0  0  0  0  0
    3.4822    0.6154    7.9867 O   0  0  0  0  0  0  0  0  0  0  0  0
    2.4671    1.4196    8.1808 C   0  0  0  0  0  0  0  0  0  0  0  0
    1.5741    1.1572    7.1604 C   0  0  0  0  0  0  0  0  0  0  0  0
    2.2765    2.4066    9.2440 C   0  0  0  0  0  0  0  0  0  0  0  0
    2.9809    2.5974   10.3687 N   0  0  0  0  0  0  0  0  0  0  0  0
    2.5047    3.5973   11.0950 N   0  0  0  0  0  0  0  0  0  0  0  0
    2.8647    4.1487   12.2677 C   0  0  0  0  0  0  0  0  0  0  0  0
    2.1708    5.1778   12.7623 N   0  0  0  0  0  0  0  0  0  0  0  0
    1.1007    5.6853   12.1035 C   0  0  0  0  0  0  0  0  0  0  0  0
    0.7853    5.1058   10.9491 N   0  0  0  0  0  0  0  0  0  0  0  0
    1.4379    4.0711   10.3958 C   0  0  0  0  0  0  0  0  0  0  0  0
    1.3108    3.3404    9.2760 N   0  0  0  0  0  0  0  0  0  0  0  0
    0.3696    6.7803   12.6392 N   0  0  0  0  0  0  0  0  0  0  0  0
    0.7320    7.4529   13.8508 C   0  0  0  0  0  0  0  0  0  0  0  0
    1.8653    8.4344   13.6545 C   0  0  0  0  0  0  0  0  0  0  0  0
    2.4059    8.9063   14.9538 C   0  0  0  0  0  0  0  0  0  0  0  0
    3.4345    9.8446   14.9753 C   0  0  0  0  0  0  0  0  0  0  0  0
    3.9542   10.3034   16.1792 C   0  0  0  0  0  0  0  0  0  0  0  0
    3.4555    9.8330   17.3688 C   0  0  0  0  0  0  0  0  0  0  0  0
    2.4467    8.9124   17.3789 C   0  0  0  0  0  0  0  0  0  0  0  0
    1.9371    8.4630   16.1692 C   0  0  0  0  0  0  0  0  0  0  0  0
    3.9818   10.2978   18.5661 O   0  0  0  0  0  0  0  0  0  0  0  0
    3.9709    3.6575   12.9927 N   0  0  0  0  0  0  0  0  0  0  0  0
  1  2  2  0
  2  3  1  0
  3  4  1  0
  4  5  2  0
  4  6  1  0
  6  7  2  0
  7  8  1  0
  8  9  1  0
  9 10  2  0
 10 11  1  0
 11 12  2  0
 12 13  1  0
 13 14  2  0
 11 15  1  0
 15 16  1  0
 16 17  1  0
 17 18  1  0
 18 19  2  0
 19 20  1  0
 20 21  2  0
 21 22  1  0
 22 23  2  0
 21 24  1  0
  9 25  1  0
  5  1  1  0
 14  6  1  0
 13  8  1  0
 23 18  1  0
M  END
$$$$
