
     RDKit          3D

 25 28  0  0  0  0  0  0  0  0999 V2000
    1.0066    1.2858    6.5727 C   0  0  0  0  0  0  0  0  0  0  0  0
    2.0491    0.5028    7.0246 C   0  0  0  0  0  0  0  0  0  0  0  0
    2.5326    1.0347    8.1144 O   0  0  0  0  0  0  0  0  0  0  0  0
    1.9022    2.1312    8.4535 C   0  0  0  0  0  0  0  0  0  0  0  0
    0.9260    2.3200    7.4950 C   0  0  0  0  0  0  0  0  0  0  0  0
    2.1472    3.0059    9.6007 C   0  0  0  0  0  0  0  0  0  0  0  0
    2.9526    2.8239   10.6569 N   0  0  0  0  0  0  0  0  0  0  0  0
    2.9114    3.8440   11.5006 N   0  0  0  0  0  0  0  0  0  0  0  0
    3.5254    4.1117   12.6668 C   0  0  0  0  0  0  0  0  0  0  0  0
    3.2744    5.2582   13.3056 N   0  0  0  0  0  0  0  0  0  0  0  0
    2.4062    6.1682   12.8010 C   0  0  0  0  0  0  0  0  0  0  0  0
    1.8253    5.8571   11.6461 N   0  0  0  0  0  0  0  0  0  0  0  0
    2.0316    4.7257   10.9531 C   0  0  0  0  0  0  0  0  0  0  0  0
    1.5758    4.2053    9.8018 N   0  0  0  0  0  0  0  0  0  0  0  0
    2.1467    7.3847   13.4890 N   0  0  0  0  0  0  0  0  0  0  0  0
    1.3559    8.4464   12.9421 C   0  0  0  0  0  0  0  0  0  0  0  0
   -0.0269    7.9910   12.5342 C   0  0  0  0  0  0  0  0  0  0  0  0
   -0.7323    9.0344   11.7489 C   0  0  0  0  0  0  0  0  0  0  0  0
   -0.1402   10.2815   11.5664 C   0  0  0  0  0  0  0  0  0  0  0  0
   -0.7800   11.2726   10.8326 C   0  0  0  0  0  0  0  0  0  0  0  0
   -2.0116   11.0310   10.2759 C   0  0  0  0  0  0  0  0  0  0  0  0
   -2.6169    9.8175   10.4381 C   0  0  0  0  0  0  0  0  0  0  0  0
   -1.9665    8.8369   11.1732 C   0  0  0  0  0  0  0  0  0  0  0  0
   -2.6424   12.0280    9.5446 O   0  0  0  0  0  0  0  0  0  0  0  0
    4.4377    3.1975   13.2346 N   0  0  0  0  0  0  0  0  0  0  0  0
  1  2  2  0
  2  3  1  0
  3  4  1  0
  4  5  2  0
  4  6  1  0
  6  7  2  0
  7  8  1  0
  8  9  1  0
  9 10  2  0
 10 11  1  0
 11 12  2  0
 12 13  1  0
 13 14  2  0
 11 15  1  0
 15 16  1  0
 16 17  1  0
 17 18  1  0
 18 19  2  0
 19 20  1  0
 20 21  2  0
 21 22  1  0
 22 23  2  0
 21 24  1  0
  9 25  1  0
  5  1  1  0
 14  6  1  0
 13  8  1  0
 23 18  1  0
M  END
$$$$
