
     RDKit          3D

 25 28  0  0  0  0  0  0  0  0999 V2000
    1.6801    1.2862    6.4594 C   0  0  0  0  0  0  0  0  0  0  0  0
    2.9474    0.8815    6.8258 C   0  0  0  0  0  0  0  0  0  0  0  0
    3.2984    1.5255    7.9059 O   0  0  0  0  0  0  0  0  0  0  0  0
    2.3671    2.3489    8.3175 C   0  0  0  0  0  0  0  0  0  0  0  0
    1.3244    2.2220    7.4208 C   0  0  0  0  0  0  0  0  0  0  0  0
    2.3848    3.2374    9.4800 C   0  0  0  0  0  0  0  0  0  0  0  0
    3.2828    3.3292   10.4713 N   0  0  0  0  0  0  0  0  0  0  0  0
    2.9591    4.2598   11.3564 N   0  0  0  0  0  0  0  0  0  0  0  0
    3.5321    4.7058   12.4885 C   0  0  0  0  0  0  0  0  0  0  0  0
    2.9529    5.6856   13.1885 N   0  0  0  0  0  0  0  0  0  0  0  0
    1.7890    6.2473   12.7808 C   0  0  0  0  0  0  0  0  0  0  0  0
    1.2628    5.7717   11.6560 N   0  0  0  0  0  0  0  0  0  0  0  0
    1.7907    4.7914   10.9056 C   0  0  0  0  0  0  0  0  0  0  0  0
    1.4538    4.1627    9.7675 N   0  0  0  0  0  0  0  0  0  0  0  0
    1.1816    7.2890   13.5334 N   0  0  0  0  0  0  0  0  0  0  0  0
    0.3485    8.2988   12.9521 C   0  0  0  0  0  0  0  0  0  0  0  0
    1.0947    9.5868   12.6871 C   0  0  0  0  0  0  0  0  0  0  0  0
    0.2838   10.5263   11.8729 C   0  0  0  0  0  0  0  0  0  0  0  0
   -1.0199   10.1877   11.5196 C   0  0  0  0  0  0  0  0  0  0  0  0
   -1.7990   11.0523   10.7609 C   0  0  0  0  0  0  0  0  0  0  0  0
   -1.2879   12.2581   10.3486 C   0  0  0  0  0  0  0  0  0  0  0  0
   -0.0125   12.6172   10.6799 C   0  0  0  0  0  0  0  0  0  0  0  0
    0.7542   11.7441   11.4381 C   0  0  0  0  0  0  0  0  0  0  0  0
   -2.0745   13.1146    9.5909 O   0  0  0  0  0  0  0  0  0  0  0  0
    4.7437    4.1546   12.9561 N   0  0  0  0  0  0  0  0  0  0  0  0
  1  2  2  0
  2  3  1  0
  3  4  1  0
  4  5  2  0
  4  6  1  0
  6  7  2  0
  7  8  1  0
  8  9  1  0
  9 10  2  0
 10 11  1  0
 11 12  2  0
 12 13  1  0
 13 14  2  0
 11 15  1  0
 15 16  1  0
 16 17  1  0
 17 18  1  0
 18 19  2  0
 19 20  1  0
 20 21  2  0
 21 22  1  0
 22 23  2  0
 21 24  1  0
  9 25  1  0
  5  1  1  0
 14  6  1  0
 13  8  1  0
 23 18  1  0
M  END
$$$$
