
     RDKit          3D

 25 28  0  0  0  0  0  0  0  0999 V2000
    1.0545    1.4016    6.3578 C   0  0  0  0  0  0  0  0  0  0  0  0
    2.1418    0.6551    6.7636 C   0  0  0  0  0  0  0  0  0  0  0  0
    2.6227    1.1748    7.8604 O   0  0  0  0  0  0  0  0  0  0  0  0
    1.9489    2.2289    8.2472 C   0  0  0  0  0  0  0  0  0  0  0  0
    0.9449    2.4012    7.3146 C   0  0  0  0  0  0  0  0  0  0  0  0
    2.1767    3.0776    9.4172 C   0  0  0  0  0  0  0  0  0  0  0  0
    3.0083    2.8985   10.4535 N   0  0  0  0  0  0  0  0  0  0  0  0
    2.9384    3.8894   11.3295 N   0  0  0  0  0  0  0  0  0  0  0  0
    3.5613    4.1475   12.4932 C   0  0  0  0  0  0  0  0  0  0  0  0
    3.2728    5.2617   13.1719 N   0  0  0  0  0  0  0  0  0  0  0  0
    2.3571    6.1481   12.7110 C   0  0  0  0  0  0  0  0  0  0  0  0
    1.7693    5.8476   11.5568 N   0  0  0  0  0  0  0  0  0  0  0  0
    2.0116    4.7483   10.8250 C   0  0  0  0  0  0  0  0  0  0  0  0
    1.5579    4.2442    9.6657 N   0  0  0  0  0  0  0  0  0  0  0  0
    2.0579    7.3302   13.4414 N   0  0  0  0  0  0  0  0  0  0  0  0
    1.4355    8.4809   12.8581 C   0  0  0  0  0  0  0  0  0  0  0  0
    0.2936    9.0114   13.6952 C   0  0  0  0  0  0  0  0  0  0  0  0
    0.0978   10.4677   13.4855 C   0  0  0  0  0  0  0  0  0  0  0  0
    0.0093   11.3191   14.5838 C   0  0  0  0  0  0  0  0  0  0  0  0
   -0.1708   12.6859   14.4122 C   0  0  0  0  0  0  0  0  0  0  0  0
   -0.2639   13.2152   13.1487 C   0  0  0  0  0  0  0  0  0  0  0  0
   -0.1806   12.4048   12.0526 C   0  0  0  0  0  0  0  0  0  0  0  0
   -0.0008   11.0418   12.2387 C   0  0  0  0  0  0  0  0  0  0  0  0
   -0.4438   14.5821   12.9882 O   0  0  0  0  0  0  0  0  0  0  0  0
    4.5224    3.2569   13.0164 N   0  0  0  0  0  0  0  0  0  0  0  0
  1  2  2  0
  2  3  1  0
  3  4  1  0
  4  5  2  0
  4  6  1  0
  6  7  2  0
  7  8  1  0
  8  9  1  0
  9 10  2  0
 10 11  1  0
 11 12  2  0
 12 13  1  0
 13 14  2  0
 11 15  1  0
 15 16  1  0
 16 17  1  0
 17 18  1  0
 18 19  2  0
 19 20  1  0
 20 21  2  0
 21 22  1  0
 22 23  2  0
 21 24  1  0
  9 25  1  0
  5  1  1  0
 14  6  1  0
 13  8  1  0
 23 18  1  0
M  END
$$$$
