
     RDKit          3D

 25 28  0  0  0  0  0  0  0  0999 V2000
    0.8611    1.3781    6.8024 C   0  0  0  0  0  0  0  0  0  0  0  0
    1.9066    0.5754    7.2106 C   0  0  0  0  0  0  0  0  0  0  0  0
    2.4208    1.0769    8.3008 O   0  0  0  0  0  0  0  0  0  0  0  0
    1.8088    2.1704    8.6808 C   0  0  0  0  0  0  0  0  0  0  0  0
    0.8120    2.3906    7.7506 C   0  0  0  0  0  0  0  0  0  0  0  0
    2.0891    3.0153    9.8421 C   0  0  0  0  0  0  0  0  0  0  0  0
    2.8540    2.7664   10.9148 N   0  0  0  0  0  0  0  0  0  0  0  0
    2.8665    3.7797   11.7675 N   0  0  0  0  0  0  0  0  0  0  0  0
    3.4704    3.9922   12.9504 C   0  0  0  0  0  0  0  0  0  0  0  0
    3.2877    5.1484   13.5948 N   0  0  0  0  0  0  0  0  0  0  0  0
    2.4998    6.1233   13.0796 C   0  0  0  0  0  0  0  0  0  0  0  0
    1.9255    5.8648   11.9085 N   0  0  0  0  0  0  0  0  0  0  0  0
    2.0659    4.7274   11.2090 C   0  0  0  0  0  0  0  0  0  0  0  0
    1.6012    4.2512   10.0422 N   0  0  0  0  0  0  0  0  0  0  0  0
    2.3125    7.3494   13.7738 N   0  0  0  0  0  0  0  0  0  0  0  0
    1.5423    8.4397   13.2545 C   0  0  0  0  0  0  0  0  0  0  0  0
    0.0560    8.2502   13.4571 C   0  0  0  0  0  0  0  0  0  0  0  0
   -0.7309    9.0746   12.5062 C   0  0  0  0  0  0  0  0  0  0  0  0
   -2.0210    8.6847   12.1559 C   0  0  0  0  0  0  0  0  0  0  0  0
   -2.7776    9.4419   11.2704 C   0  0  0  0  0  0  0  0  0  0  0  0
   -2.2575   10.5908   10.7275 C   0  0  0  0  0  0  0  0  0  0  0  0
   -0.9951   10.9982   11.0526 C   0  0  0  0  0  0  0  0  0  0  0  0
   -0.2507   10.2324   11.9382 C   0  0  0  0  0  0  0  0  0  0  0  0
   -3.0217   11.3401    9.8438 O   0  0  0  0  0  0  0  0  0  0  0  0
    4.3005    3.0095   13.5296 N   0  0  0  0  0  0  0  0  0  0  0  0
  1  2  2  0
  2  3  1  0
  3  4  1  0
  4  5  2  0
  4  6  1  0
  6  7  2  0
  7  8  1  0
  8  9  1  0
  9 10  2  0
 10 11  1  0
 11 12  2  0
 12 13  1  0
 13 14  2  0
 11 15  1  0
 15 16  1  0
 16 17  1  0
 17 18  1  0
 18 19  2  0
 19 20  1  0
 20 21  2  0
 21 22  1  0
 22 23  2  0
 21 24  1  0
  9 25  1  0
  5  1  1  0
 14  6  1  0
 13  8  1  0
 23 18  1  0
M  END
$$$$
