
     RDKit          3D

 25 28  0  0  0  0  0  0  0  0999 V2000
    1.5916    0.1876    6.5790 C   0  0  0  0  0  0  0  0  0  0  0  0
    2.8255   -0.1777    7.0771 C   0  0  0  0  0  0  0  0  0  0  0  0
    3.1446    0.6354    8.0473 O   0  0  0  0  0  0  0  0  0  0  0  0
    2.2222    1.5401    8.2605 C   0  0  0  0  0  0  0  0  0  0  0  0
    1.2207    1.2845    7.3445 C   0  0  0  0  0  0  0  0  0  0  0  0
    2.2127    2.6163    9.2518 C   0  0  0  0  0  0  0  0  0  0  0  0
    3.0243    2.8198   10.2993 N   0  0  0  0  0  0  0  0  0  0  0  0
    2.7041    3.9118   10.9769 N   0  0  0  0  0  0  0  0  0  0  0  0
    3.2108    4.5103   12.0696 C   0  0  0  0  0  0  0  0  0  0  0  0
    2.6575    5.6353   12.5316 N   0  0  0  0  0  0  0  0  0  0  0  0
    1.5858    6.1945   11.9188 C   0  0  0  0  0  0  0  0  0  0  0  0
    1.1224    5.5651   10.8431 N   0  0  0  0  0  0  0  0  0  0  0  0
    1.6292    4.4342   10.3266 C   0  0  0  0  0  0  0  0  0  0  0  0
    1.3419    3.6391    9.2829 N   0  0  0  0  0  0  0  0  0  0  0  0
    1.0051    7.3916   12.4190 N   0  0  0  0  0  0  0  0  0  0  0  0
    1.5976    8.1814   13.4567 C   0  0  0  0  0  0  0  0  0  0  0  0
    1.2143    7.7063   14.8400 C   0  0  0  0  0  0  0  0  0  0  0  0
    2.0870    8.3049   15.8807 C   0  0  0  0  0  0  0  0  0  0  0  0
    3.4445    8.4831   15.6266 C   0  0  0  0  0  0  0  0  0  0  0  0
    4.2802    9.0441   16.5841 C   0  0  0  0  0  0  0  0  0  0  0  0
    3.7727    9.4314   17.7996 C   0  0  0  0  0  0  0  0  0  0  0  0
    2.4453    9.2691   18.0773 C   0  0  0  0  0  0  0  0  0  0  0  0
    1.6223    8.7075   17.1118 C   0  0  0  0  0  0  0  0  0  0  0  0
    4.6161    9.9908   18.7494 O   0  0  0  0  0  0  0  0  0  0  0  0
    4.3254    3.9687   12.7441 N   0  0  0  0  0  0  0  0  0  0  0  0
  1  2  2  0
  2  3  1  0
  3  4  1  0
  4  5  2  0
  4  6  1  0
  6  7  2  0
  7  8  1  0
  8  9  1  0
  9 10  2  0
 10 11  1  0
 11 12  2  0
 12 13  1  0
 13 14  2  0
 11 15  1  0
 15 16  1  0
 16 17  1  0
 17 18  1  0
 18 19  2  0
 19 20  1  0
 20 21  2  0
 21 22  1  0
 22 23  2  0
 21 24  1  0
  9 25  1  0
  5  1  1  0
 14  6  1  0
 13  8  1  0
 23 18  1  0
M  END
$$$$
