
     RDKit          3D

 25 28  0  0  0  0  0  0  0  0999 V2000
    2.6667   10.0053   16.5503 C   0  0  0  0  0  0  0  0  0  0  0  0
    3.7658    9.2138   16.8141 C   0  0  0  0  0  0  0  0  0  0  0  0
    3.7515    8.1909   16.0030 O   0  0  0  0  0  0  0  0  0  0  0  0
    2.7221    8.2132   15.1940 C   0  0  0  0  0  0  0  0  0  0  0  0
    2.0116    9.3533   15.5147 C   0  0  0  0  0  0  0  0  0  0  0  0
    2.3605    7.2516   14.1521 C   0  0  0  0  0  0  0  0  0  0  0  0
    2.9282    6.0782   13.8385 N   0  0  0  0  0  0  0  0  0  0  0  0
    2.3185    5.4810   12.8257 N   0  0  0  0  0  0  0  0  0  0  0  0
    2.5179    4.3221   12.1729 C   0  0  0  0  0  0  0  0  0  0  0  0
    1.7151    3.9792   11.1614 N   0  0  0  0  0  0  0  0  0  0  0  0
    0.6932    4.7800   10.7727 C   0  0  0  0  0  0  0  0  0  0  0  0
    0.5378    5.9141   11.4493 N   0  0  0  0  0  0  0  0  0  0  0  0
    1.3062    6.3189   12.4732 C   0  0  0  0  0  0  0  0  0  0  0  0
    1.3430    7.3882   13.2851 N   0  0  0  0  0  0  0  0  0  0  0  0
   -0.1546    4.4052    9.6951 N   0  0  0  0  0  0  0  0  0  0  0  0
    0.0282    3.2100    8.9271 C   0  0  0  0  0  0  0  0  0  0  0  0
    1.3339    3.2024    8.1650 C   0  0  0  0  0  0  0  0  0  0  0  0
    1.6292    1.8590    7.6073 C   0  0  0  0  0  0  0  0  0  0  0  0
    0.6594    1.1894    6.8655 C   0  0  0  0  0  0  0  0  0  0  0  0
    0.9140   -0.0673    6.3310 C   0  0  0  0  0  0  0  0  0  0  0  0
    2.1331   -0.6666    6.5301 C   0  0  0  0  0  0  0  0  0  0  0  0
    3.1037   -0.0340    7.2534 C   0  0  0  0  0  0  0  0  0  0  0  0
    2.8358    1.2208    7.7813 C   0  0  0  0  0  0  0  0  0  0  0  0
    2.3774   -1.9224    5.9919 O   0  0  0  0  0  0  0  0  0  0  0  0
    3.5677    3.4533   12.5384 N   0  0  0  0  0  0  0  0  0  0  0  0
  1  2  2  0
  2  3  1  0
  3  4  1  0
  4  5  2  0
  4  6  1  0
  6  7  2  0
  7  8  1  0
  8  9  1  0
  9 10  2  0
 10 11  1  0
 11 12  2  0
 12 13  1  0
 13 14  2  0
 11 15  1  0
 15 16  1  0
 16 17  1  0
 17 18  1  0
 18 19  2  0
 19 20  1  0
 20 21  2  0
 21 22  1  0
 22 23  2  0
 21 24  1  0
  9 25  1  0
  5  1  1  0
 14  6  1  0
 13  8  1  0
 23 18  1  0
M  END
$$$$
