
     RDKit          3D

 25 28  0  0  0  0  0  0  0  0999 V2000
    1.8333   -0.0293    6.5271 C   0  0  0  0  0  0  0  0  0  0  0  0
    3.0316   -0.3686    7.1214 C   0  0  0  0  0  0  0  0  0  0  0  0
    3.2242    0.4085    8.1526 O   0  0  0  0  0  0  0  0  0  0  0  0
    2.2467    1.2639    8.3190 C   0  0  0  0  0  0  0  0  0  0  0  0
    1.3456    1.0133    7.3028 C   0  0  0  0  0  0  0  0  0  0  0  0
    2.0988    2.2893    9.3522 C   0  0  0  0  0  0  0  0  0  0  0  0
    2.8079    2.4802   10.4740 N   0  0  0  0  0  0  0  0  0  0  0  0
    2.3763    3.5218   11.1688 N   0  0  0  0  0  0  0  0  0  0  0  0
    2.7580    4.0900   12.3266 C   0  0  0  0  0  0  0  0  0  0  0  0
    2.1108    5.1641   12.7881 N   0  0  0  0  0  0  0  0  0  0  0  0
    1.0673    5.7009   12.1102 C   0  0  0  0  0  0  0  0  0  0  0  0
    0.7289    5.1031   10.9718 N   0  0  0  0  0  0  0  0  0  0  0  0
    1.3347    4.0236   10.4516 C   0  0  0  0  0  0  0  0  0  0  0  0
    1.1772    3.2672    9.3530 N   0  0  0  0  0  0  0  0  0  0  0  0
    0.3861    6.8437   12.6107 N   0  0  0  0  0  0  0  0  0  0  0  0
    0.7672    7.5257   13.8112 C   0  0  0  0  0  0  0  0  0  0  0  0
    2.0533    8.3050   13.6540 C   0  0  0  0  0  0  0  0  0  0  0  0
    2.5939    8.7313   14.9690 C   0  0  0  0  0  0  0  0  0  0  0  0
    3.7018    8.0803   15.5054 C   0  0  0  0  0  0  0  0  0  0  0  0
    4.2272    8.4637   16.7330 C   0  0  0  0  0  0  0  0  0  0  0  0
    3.6555    9.4960   17.4350 C   0  0  0  0  0  0  0  0  0  0  0  0
    2.5681   10.1531   16.9339 C   0  0  0  0  0  0  0  0  0  0  0  0
    2.0538    9.7596   15.7069 C   0  0  0  0  0  0  0  0  0  0  0  0
    4.1881    9.8712   18.6605 O   0  0  0  0  0  0  0  0  0  0  0  0
    3.8380    3.5697   13.0703 N   0  0  0  0  0  0  0  0  0  0  0  0
  1  2  2  0
  2  3  1  0
  3  4  1  0
  4  5  2  0
  4  6  1  0
  6  7  2  0
  7  8  1  0
  8  9  1  0
  9 10  2  0
 10 11  1  0
 11 12  2  0
 12 13  1  0
 13 14  2  0
 11 15  1  0
 15 16  1  0
 16 17  1  0
 17 18  1  0
 18 19  2  0
 19 20  1  0
 20 21  2  0
 21 22  1  0
 22 23  2  0
 21 24  1  0
  9 25  1  0
  5  1  1  0
 14  6  1  0
 13  8  1  0
 23 18  1  0
M  END
$$$$
