
     RDKit          3D

 25 28  0  0  0  0  0  0  0  0999 V2000
    3.2487    0.2951    6.8344 C   0  0  0  0  0  0  0  0  0  0  0  0
    2.0632    0.6693    6.2355 C   0  0  0  0  0  0  0  0  0  0  0  0
    1.5292    1.6379    6.9291 O   0  0  0  0  0  0  0  0  0  0  0  0
    2.2573    1.9648    7.9673 C   0  0  0  0  0  0  0  0  0  0  0  0
    3.3577    1.1308    7.9373 C   0  0  0  0  0  0  0  0  0  0  0  0
    1.9975    2.9929    8.9755 C   0  0  0  0  0  0  0  0  0  0  0  0
    2.6161    3.2199   10.1431 N   0  0  0  0  0  0  0  0  0  0  0  0
    2.0975    4.2507   10.7932 N   0  0  0  0  0  0  0  0  0  0  0  0
    2.3734    4.8429   11.9688 C   0  0  0  0  0  0  0  0  0  0  0  0
    1.6557    5.8960   12.3703 N   0  0  0  0  0  0  0  0  0  0  0  0
    0.6450    6.3875   11.6131 C   0  0  0  0  0  0  0  0  0  0  0  0
    0.4119    5.7675   10.4601 N   0  0  0  0  0  0  0  0  0  0  0  0
    1.0928    4.7070    9.9972 C   0  0  0  0  0  0  0  0  0  0  0  0
    1.0431    3.9357    8.8987 N   0  0  0  0  0  0  0  0  0  0  0  0
   -0.1121    7.5084   12.0501 N   0  0  0  0  0  0  0  0  0  0  0  0
    0.1691    8.2276   13.2565 C   0  0  0  0  0  0  0  0  0  0  0  0
    1.3200    9.1957   13.1015 C   0  0  0  0  0  0  0  0  0  0  0  0
    2.3017    9.0531   14.2057 C   0  0  0  0  0  0  0  0  0  0  0  0
    3.4224    9.8786   14.2459 C   0  0  0  0  0  0  0  0  0  0  0  0
    4.3531    9.7657   15.2711 C   0  0  0  0  0  0  0  0  0  0  0  0
    4.1763    8.8323   16.2623 C   0  0  0  0  0  0  0  0  0  0  0  0
    3.0868    8.0089   16.2492 C   0  0  0  0  0  0  0  0  0  0  0  0
    2.1653    8.1327   15.2194 C   0  0  0  0  0  0  0  0  0  0  0  0
    5.1121    8.7275   17.2821 O   0  0  0  0  0  0  0  0  0  0  0  0
    3.4152    4.3698   12.7943 N   0  0  0  0  0  0  0  0  0  0  0  0
  1  2  2  0
  2  3  1  0
  3  4  1  0
  4  5  2  0
  4  6  1  0
  6  7  2  0
  7  8  1  0
  8  9  1  0
  9 10  2  0
 10 11  1  0
 11 12  2  0
 12 13  1  0
 13 14  2  0
 11 15  1  0
 15 16  1  0
 16 17  1  0
 17 18  1  0
 18 19  2  0
 19 20  1  0
 20 21  2  0
 21 22  1  0
 22 23  2  0
 21 24  1  0
  9 25  1  0
  5  1  1  0
 14  6  1  0
 13  8  1  0
 23 18  1  0
M  END
$$$$
