
     RDKit          3D

 25 28  0  0  0  0  0  0  0  0999 V2000
    1.3260    9.5929   15.3112 C   0  0  0  0  0  0  0  0  0  0  0  0
    2.4839    8.9630   15.7192 C   0  0  0  0  0  0  0  0  0  0  0  0
    2.6529    7.8867   14.9998 O   0  0  0  0  0  0  0  0  0  0  0  0
    1.6964    7.7222   14.1207 C   0  0  0  0  0  0  0  0  0  0  0  0
    0.8360    8.7889   14.2913 C   0  0  0  0  0  0  0  0  0  0  0  0
    1.5330    6.6469   13.1419 C   0  0  0  0  0  0  0  0  0  0  0  0
    2.3112    5.5808   12.9064 N   0  0  0  0  0  0  0  0  0  0  0  0
    1.8366    4.8191   11.9323 N   0  0  0  0  0  0  0  0  0  0  0  0
    2.2552    3.6781   11.3562 C   0  0  0  0  0  0  0  0  0  0  0  0
    1.5440    3.1302   10.3665 N   0  0  0  0  0  0  0  0  0  0  0  0
    0.3982    3.7029    9.9240 C   0  0  0  0  0  0  0  0  0  0  0  0
    0.0272    4.8292   10.5256 N   0  0  0  0  0  0  0  0  0  0  0  0
    0.6929    5.4322   11.5235 C   0  0  0  0  0  0  0  0  0  0  0  0
    0.5207    6.5389   12.2649 N   0  0  0  0  0  0  0  0  0  0  0  0
   -0.3503    3.1114    8.8703 N   0  0  0  0  0  0  0  0  0  0  0  0
   -0.1552    3.4324    7.4881 C   0  0  0  0  0  0  0  0  0  0  0  0
    1.2792    3.2510    7.0457 C   0  0  0  0  0  0  0  0  0  0  0  0
    1.7310    1.8493    7.2304 C   0  0  0  0  0  0  0  0  0  0  0  0
    0.8014    0.8565    7.5295 C   0  0  0  0  0  0  0  0  0  0  0  0
    1.2003   -0.4628    7.7036 C   0  0  0  0  0  0  0  0  0  0  0  0
    2.5246   -0.8039    7.5818 C   0  0  0  0  0  0  0  0  0  0  0  0
    3.4590    0.1482    7.2891 C   0  0  0  0  0  0  0  0  0  0  0  0
    3.0465    1.4618    7.1177 C   0  0  0  0  0  0  0  0  0  0  0  0
    2.9127   -2.1249    7.7577 O   0  0  0  0  0  0  0  0  0  0  0  0
    3.4411    3.0422   11.7801 N   0  0  0  0  0  0  0  0  0  0  0  0
  1  2  2  0
  2  3  1  0
  3  4  1  0
  4  5  2  0
  4  6  1  0
  6  7  2  0
  7  8  1  0
  8  9  1  0
  9 10  2  0
 10 11  1  0
 11 12  2  0
 12 13  1  0
 13 14  2  0
 11 15  1  0
 15 16  1  0
 16 17  1  0
 17 18  1  0
 18 19  2  0
 19 20  1  0
 20 21  2  0
 21 22  1  0
 22 23  2  0
 21 24  1  0
  9 25  1  0
  5  1  1  0
 14  6  1  0
 13  8  1  0
 23 18  1  0
M  END
$$$$
