
     RDKit          3D

 25 28  0  0  0  0  0  0  0  0999 V2000
    1.9993    0.1612    6.5237 C   0  0  0  0  0  0  0  0  0  0  0  0
    3.1785   -0.1135    7.1855 C   0  0  0  0  0  0  0  0  0  0  0  0
    3.3045    0.7194    8.1830 O   0  0  0  0  0  0  0  0  0  0  0  0
    2.2983    1.5536    8.2632 C   0  0  0  0  0  0  0  0  0  0  0  0
    1.4501    1.2267    7.2234 C   0  0  0  0  0  0  0  0  0  0  0  0
    2.0775    2.6247    9.2353 C   0  0  0  0  0  0  0  0  0  0  0  0
    2.7336    2.8941   10.3731 N   0  0  0  0  0  0  0  0  0  0  0  0
    2.2431    3.9554   10.9953 N   0  0  0  0  0  0  0  0  0  0  0  0
    2.5595    4.5931   12.1365 C   0  0  0  0  0  0  0  0  0  0  0  0
    1.8624    5.6681   12.5157 N   0  0  0  0  0  0  0  0  0  0  0  0
    0.8326    6.1369   11.7698 C   0  0  0  0  0  0  0  0  0  0  0  0
    0.5594    5.4719   10.6512 N   0  0  0  0  0  0  0  0  0  0  0  0
    1.2177    4.3873   10.2122 C   0  0  0  0  0  0  0  0  0  0  0  0
    1.1283    3.5718    9.1487 N   0  0  0  0  0  0  0  0  0  0  0  0
    0.0978    7.2814   12.1829 N   0  0  0  0  0  0  0  0  0  0  0  0
    0.0642    7.7505   13.5359 C   0  0  0  0  0  0  0  0  0  0  0  0
    0.8462    9.0303   13.7272 C   0  0  0  0  0  0  0  0  0  0  0  0
    2.0281    8.8190   14.5998 C   0  0  0  0  0  0  0  0  0  0  0  0
    3.1630    9.6079   14.4305 C   0  0  0  0  0  0  0  0  0  0  0  0
    4.2799    9.4305   15.2373 C   0  0  0  0  0  0  0  0  0  0  0  0
    4.2764    8.4686   16.2170 C   0  0  0  0  0  0  0  0  0  0  0  0
    3.1777    7.6799   16.4065 C   0  0  0  0  0  0  0  0  0  0  0  0
    2.0692    7.8680   15.5936 C   0  0  0  0  0  0  0  0  0  0  0  0
    5.3975    8.2995   17.0177 O   0  0  0  0  0  0  0  0  0  0  0  0
    3.6227    4.1453   12.9487 N   0  0  0  0  0  0  0  0  0  0  0  0
  1  2  2  0
  2  3  1  0
  3  4  1  0
  4  5  2  0
  4  6  1  0
  6  7  2  0
  7  8  1  0
  8  9  1  0
  9 10  2  0
 10 11  1  0
 11 12  2  0
 12 13  1  0
 13 14  2  0
 11 15  1  0
 15 16  1  0
 16 17  1  0
 17 18  1  0
 18 19  2  0
 19 20  1  0
 20 21  2  0
 21 22  1  0
 22 23  2  0
 21 24  1  0
  9 25  1  0
  5  1  1  0
 14  6  1  0
 13  8  1  0
 23 18  1  0
M  END
$$$$
