
     RDKit          3D

 25 28  0  0  0  0  0  0  0  0999 V2000
    1.7554   -0.0774    6.7387 C   0  0  0  0  0  0  0  0  0  0  0  0
    3.0266   -0.3034    7.2255 C   0  0  0  0  0  0  0  0  0  0  0  0
    3.2910    0.5893    8.1407 O   0  0  0  0  0  0  0  0  0  0  0  0
    2.2959    1.4201    8.3260 C   0  0  0  0  0  0  0  0  0  0  0  0
    1.3033    1.0249    7.4508 C   0  0  0  0  0  0  0  0  0  0  0  0
    2.2101    2.5467    9.2557 C   0  0  0  0  0  0  0  0  0  0  0  0
    3.0136    2.8737   10.2779 N   0  0  0  0  0  0  0  0  0  0  0  0
    2.6135    3.9734   10.8982 N   0  0  0  0  0  0  0  0  0  0  0  0
    3.0817    4.6716   11.9480 C   0  0  0  0  0  0  0  0  0  0  0  0
    2.4443    5.7732   12.3547 N   0  0  0  0  0  0  0  0  0  0  0  0
    1.3247    6.2092   11.7279 C   0  0  0  0  0  0  0  0  0  0  0  0
    0.9022    5.4846   10.6960 N   0  0  0  0  0  0  0  0  0  0  0  0
    1.4932    4.3703   10.2359 C   0  0  0  0  0  0  0  0  0  0  0  0
    1.2600    3.4968    9.2426 N   0  0  0  0  0  0  0  0  0  0  0  0
    0.6546    7.3825   12.1691 N   0  0  0  0  0  0  0  0  0  0  0  0
    1.1478    8.2250   13.2173 C   0  0  0  0  0  0  0  0  0  0  0  0
    0.8949    7.6504   14.5928 C   0  0  0  0  0  0  0  0  0  0  0  0
    2.0555    7.8655   15.4927 C   0  0  0  0  0  0  0  0  0  0  0  0
    2.0078    7.4041   16.8056 C   0  0  0  0  0  0  0  0  0  0  0  0
    3.0830    7.5911   17.6653 C   0  0  0  0  0  0  0  0  0  0  0  0
    4.2119    8.2373   17.2260 C   0  0  0  0  0  0  0  0  0  0  0  0
    4.2876    8.7008   15.9436 C   0  0  0  0  0  0  0  0  0  0  0  0
    3.2064    8.5071   15.0959 C   0  0  0  0  0  0  0  0  0  0  0  0
    5.2806    8.4190   18.0929 O   0  0  0  0  0  0  0  0  0  0  0  0
    4.2433    4.2600   12.6349 N   0  0  0  0  0  0  0  0  0  0  0  0
  1  2  2  0
  2  3  1  0
  3  4  1  0
  4  5  2  0
  4  6  1  0
  6  7  2  0
  7  8  1  0
  8  9  1  0
  9 10  2  0
 10 11  1  0
 11 12  2  0
 12 13  1  0
 13 14  2  0
 11 15  1  0
 15 16  1  0
 16 17  1  0
 17 18  1  0
 18 19  2  0
 19 20  1  0
 20 21  2  0
 21 22  1  0
 22 23  2  0
 21 24  1  0
  9 25  1  0
  5  1  1  0
 14  6  1  0
 13  8  1  0
 23 18  1  0
M  END
$$$$
