
     RDKit          3D

 25 28  0  0  0  0  0  0  0  0999 V2000
    1.9045    0.1006    6.6888 C   0  0  0  0  0  0  0  0  0  0  0  0
    3.1531   -0.1502    7.2198 C   0  0  0  0  0  0  0  0  0  0  0  0
    3.3868    0.7134    8.1706 O   0  0  0  0  0  0  0  0  0  0  0  0
    2.3911    1.5470    8.3395 C   0  0  0  0  0  0  0  0  0  0  0  0
    1.4320    1.1858    7.4138 C   0  0  0  0  0  0  0  0  0  0  0  0
    2.2759    2.6471    9.2974 C   0  0  0  0  0  0  0  0  0  0  0  0
    3.0365    2.9347   10.3634 N   0  0  0  0  0  0  0  0  0  0  0  0
    2.6208    4.0206   10.9976 N   0  0  0  0  0  0  0  0  0  0  0  0
    3.0492    4.6824   12.0873 C   0  0  0  0  0  0  0  0  0  0  0  0
    2.4060    5.7793   12.4978 N   0  0  0  0  0  0  0  0  0  0  0  0
    1.3201    6.2465   11.8352 C   0  0  0  0  0  0  0  0  0  0  0  0
    0.9364    5.5573   10.7647 N   0  0  0  0  0  0  0  0  0  0  0  0
    1.5355    4.4499   10.2984 C   0  0  0  0  0  0  0  0  0  0  0  0
    1.3374    3.6084    9.2705 N   0  0  0  0  0  0  0  0  0  0  0  0
    0.6435    7.4145   12.2808 N   0  0  0  0  0  0  0  0  0  0  0  0
    1.1704    8.2991   13.2766 C   0  0  0  0  0  0  0  0  0  0  0  0
    0.7979    7.8816   14.6812 C   0  0  0  0  0  0  0  0  0  0  0  0
    1.8950    8.1637   15.6403 C   0  0  0  0  0  0  0  0  0  0  0  0
    3.2202    8.0580   15.2260 C   0  0  0  0  0  0  0  0  0  0  0  0
    4.2637    8.3202   16.1049 C   0  0  0  0  0  0  0  0  0  0  0  0
    3.9972    8.6888   17.4003 C   0  0  0  0  0  0  0  0  0  0  0  0
    2.7073    8.8008   17.8351 C   0  0  0  0  0  0  0  0  0  0  0  0
    1.6751    8.5361   16.9466 C   0  0  0  0  0  0  0  0  0  0  0  0
    5.0469    8.9485   18.2705 O   0  0  0  0  0  0  0  0  0  0  0  0
    4.1747    4.2373   12.8123 N   0  0  0  0  0  0  0  0  0  0  0  0
  1  2  2  0
  2  3  1  0
  3  4  1  0
  4  5  2  0
  4  6  1  0
  6  7  2  0
  7  8  1  0
  8  9  1  0
  9 10  2  0
 10 11  1  0
 11 12  2  0
 12 13  1  0
 13 14  2  0
 11 15  1  0
 15 16  1  0
 16 17  1  0
 17 18  1  0
 18 19  2  0
 19 20  1  0
 20 21  2  0
 21 22  1  0
 22 23  2  0
 21 24  1  0
  9 25  1  0
  5  1  1  0
 14  6  1  0
 13  8  1  0
 23 18  1  0
M  END
$$$$
