
     RDKit          3D

 25 28  0  0  0  0  0  0  0  0999 V2000
    4.1603   -0.5296    8.0125 C   0  0  0  0  0  0  0  0  0  0  0  0
    3.4342   -0.3814    6.8486 C   0  0  0  0  0  0  0  0  0  0  0  0
    2.6547    0.6590    6.9690 O   0  0  0  0  0  0  0  0  0  0  0  0
    2.7859    1.2454    8.1325 C   0  0  0  0  0  0  0  0  0  0  0  0
    3.7351    0.5155    8.8208 C   0  0  0  0  0  0  0  0  0  0  0  0
    2.0917    2.4293    8.6400 C   0  0  0  0  0  0  0  0  0  0  0  0
    1.1502    3.1836    8.0552 N   0  0  0  0  0  0  0  0  0  0  0  0
    0.7552    4.1824    8.8301 N   0  0  0  0  0  0  0  0  0  0  0  0
   -0.1408    5.1747    8.6837 C   0  0  0  0  0  0  0  0  0  0  0  0
   -0.3252    6.0582    9.6690 N   0  0  0  0  0  0  0  0  0  0  0  0
    0.3768    5.9778   10.8255 C   0  0  0  0  0  0  0  0  0  0  0  0
    1.2499    4.9795   10.9212 N   0  0  0  0  0  0  0  0  0  0  0  0
    1.4844    4.0592    9.9721 C   0  0  0  0  0  0  0  0  0  0  0  0
    2.2904    2.9926    9.8436 N   0  0  0  0  0  0  0  0  0  0  0  0
    0.1725    6.9233   11.8670 N   0  0  0  0  0  0  0  0  0  0  0  0
    0.9679    6.9688   13.0574 C   0  0  0  0  0  0  0  0  0  0  0  0
    2.3006    7.6493   12.8406 C   0  0  0  0  0  0  0  0  0  0  0  0
    3.1310    7.6208   14.0705 C   0  0  0  0  0  0  0  0  0  0  0  0
    3.8778    6.4855   14.3749 C   0  0  0  0  0  0  0  0  0  0  0  0
    4.6648    6.4369   15.5186 C   0  0  0  0  0  0  0  0  0  0  0  0
    4.7148    7.5153   16.3669 C   0  0  0  0  0  0  0  0  0  0  0  0
    3.9932    8.6424   16.0943 C   0  0  0  0  0  0  0  0  0  0  0  0
    3.2116    8.6772   14.9486 C   0  0  0  0  0  0  0  0  0  0  0  0
    5.5042    7.4565   17.5070 O   0  0  0  0  0  0  0  0  0  0  0  0
   -0.8969    5.3026    7.4994 N   0  0  0  0  0  0  0  0  0  0  0  0
  1  2  2  0
  2  3  1  0
  3  4  1  0
  4  5  2  0
  4  6  1  0
  6  7  2  0
  7  8  1  0
  8  9  1  0
  9 10  2  0
 10 11  1  0
 11 12  2  0
 12 13  1  0
 13 14  2  0
 11 15  1  0
 15 16  1  0
 16 17  1  0
 17 18  1  0
 18 19  2  0
 19 20  1  0
 20 21  2  0
 21 22  1  0
 22 23  2  0
 21 24  1  0
  9 25  1  0
  5  1  1  0
 14  6  1  0
 13  8  1  0
 23 18  1  0
M  END
$$$$
