
     RDKit          3D

 25 28  0  0  0  0  0  0  0  0999 V2000
    0.4844    1.9131    6.5031 C   0  0  0  0  0  0  0  0  0  0  0  0
    1.5817    1.1112    6.7417 C   0  0  0  0  0  0  0  0  0  0  0  0
    2.2230    1.5745    7.7802 O   0  0  0  0  0  0  0  0  0  0  0  0
    1.6514    2.6407    8.2815 C   0  0  0  0  0  0  0  0  0  0  0  0
    0.5434    2.8836    7.4936 C   0  0  0  0  0  0  0  0  0  0  0  0
    2.0658    3.4401    9.4349 C   0  0  0  0  0  0  0  0  0  0  0  0
    2.9205    3.1362   10.4221 N   0  0  0  0  0  0  0  0  0  0  0  0
    3.0445    4.1211   11.2989 N   0  0  0  0  0  0  0  0  0  0  0  0
    3.7635    4.2791   12.4244 C   0  0  0  0  0  0  0  0  0  0  0  0
    3.6780    5.4188   13.1166 N   0  0  0  0  0  0  0  0  0  0  0  0
    2.8752    6.4310   12.7073 C   0  0  0  0  0  0  0  0  0  0  0  0
    2.1853    6.2260   11.5893 N   0  0  0  0  0  0  0  0  0  0  0  0
    2.2241    5.1079   10.8468 C   0  0  0  0  0  0  0  0  0  0  0  0
    1.6371    4.6821    9.7163 N   0  0  0  0  0  0  0  0  0  0  0  0
    2.7919    7.6392   13.4515 N   0  0  0  0  0  0  0  0  0  0  0  0
    1.8716    8.6928   13.1438 C   0  0  0  0  0  0  0  0  0  0  0  0
    0.7234    8.7669   14.1247 C   0  0  0  0  0  0  0  0  0  0  0  0
    0.1438   10.1322   14.1796 C   0  0  0  0  0  0  0  0  0  0  0  0
    0.4800   11.0664   13.2031 C   0  0  0  0  0  0  0  0  0  0  0  0
   -0.0524   12.3492   13.2321 C   0  0  0  0  0  0  0  0  0  0  0  0
   -0.9219   12.7119   14.2309 C   0  0  0  0  0  0  0  0  0  0  0  0
   -1.2700   11.8171   15.2021 C   0  0  0  0  0  0  0  0  0  0  0  0
   -0.7308   10.5394   15.1609 C   0  0  0  0  0  0  0  0  0  0  0  0
   -1.4481   13.9961   14.2507 O   0  0  0  0  0  0  0  0  0  0  0  0
    4.6142    3.2558   12.8933 N   0  0  0  0  0  0  0  0  0  0  0  0
  1  2  2  0
  2  3  1  0
  3  4  1  0
  4  5  2  0
  4  6  1  0
  6  7  2  0
  7  8  1  0
  8  9  1  0
  9 10  2  0
 10 11  1  0
 11 12  2  0
 12 13  1  0
 13 14  2  0
 11 15  1  0
 15 16  1  0
 16 17  1  0
 17 18  1  0
 18 19  2  0
 19 20  1  0
 20 21  2  0
 21 22  1  0
 22 23  2  0
 21 24  1  0
  9 25  1  0
  5  1  1  0
 14  6  1  0
 13  8  1  0
 23 18  1  0
M  END
$$$$
