
     RDKit          3D

 25 28  0  0  0  0  0  0  0  0999 V2000
    1.1014    1.3097    6.6180 C   0  0  0  0  0  0  0  0  0  0  0  0
    2.3687    0.8299    6.8787 C   0  0  0  0  0  0  0  0  0  0  0  0
    2.8288    1.4181    7.9496 O   0  0  0  0  0  0  0  0  0  0  0  0
    1.9735    2.2725    8.4529 C   0  0  0  0  0  0  0  0  0  0  0  0
    0.8645    2.2286    7.6310 C   0  0  0  0  0  0  0  0  0  0  0  0
    2.1203    3.1186    9.6376 C   0  0  0  0  0  0  0  0  0  0  0  0
    3.0772    3.1148   10.5767 N   0  0  0  0  0  0  0  0  0  0  0  0
    2.8714    4.0359   11.5059 N   0  0  0  0  0  0  0  0  0  0  0  0
    3.5379    4.4032   12.6148 C   0  0  0  0  0  0  0  0  0  0  0  0
    3.0706    5.3972   13.3758 N   0  0  0  0  0  0  0  0  0  0  0  0
    1.9284    6.0516   13.0538 C   0  0  0  0  0  0  0  0  0  0  0  0
    1.3069    5.6512   11.9486 N   0  0  0  0  0  0  0  0  0  0  0  0
    1.7202    4.6621   11.1402 C   0  0  0  0  0  0  0  0  0  0  0  0
    1.2754    4.0963   10.0061 N   0  0  0  0  0  0  0  0  0  0  0  0
    1.4405    7.1075   13.8707 N   0  0  0  0  0  0  0  0  0  0  0  0
    0.3169    7.9227   13.5176 C   0  0  0  0  0  0  0  0  0  0  0  0
    0.7174    9.3272   13.1266 C   0  0  0  0  0  0  0  0  0  0  0  0
   -0.0849    9.8210   11.9796 C   0  0  0  0  0  0  0  0  0  0  0  0
    0.1018    9.2675   10.7155 C   0  0  0  0  0  0  0  0  0  0  0  0
   -0.6397    9.7112    9.6277 C   0  0  0  0  0  0  0  0  0  0  0  0
   -1.5708   10.7073    9.7889 C   0  0  0  0  0  0  0  0  0  0  0  0
   -1.7757   11.2690   11.0168 C   0  0  0  0  0  0  0  0  0  0  0  0
   -1.0283   10.8161   12.0943 C   0  0  0  0  0  0  0  0  0  0  0  0
   -2.3063   11.1435    8.6956 O   0  0  0  0  0  0  0  0  0  0  0  0
    4.7316    3.7540   12.9941 N   0  0  0  0  0  0  0  0  0  0  0  0
  1  2  2  0
  2  3  1  0
  3  4  1  0
  4  5  2  0
  4  6  1  0
  6  7  2  0
  7  8  1  0
  8  9  1  0
  9 10  2  0
 10 11  1  0
 11 12  2  0
 12 13  1  0
 13 14  2  0
 11 15  1  0
 15 16  1  0
 16 17  1  0
 17 18  1  0
 18 19  2  0
 19 20  1  0
 20 21  2  0
 21 22  1  0
 22 23  2  0
 21 24  1  0
  9 25  1  0
  5  1  1  0
 14  6  1  0
 13  8  1  0
 23 18  1  0
M  END
$$$$
