
     RDKit          3D

 25 28  0  0  0  0  0  0  0  0999 V2000
    2.8859   -1.0087    8.4841 C   0  0  0  0  0  0  0  0  0  0  0  0
    2.7868   -0.4750    7.2154 C   0  0  0  0  0  0  0  0  0  0  0  0
    2.4642    0.7862    7.3140 O   0  0  0  0  0  0  0  0  0  0  0  0
    2.3316    1.1688    8.5593 C   0  0  0  0  0  0  0  0  0  0  0  0
    2.5927    0.0524    9.3294 C   0  0  0  0  0  0  0  0  0  0  0  0
    1.9812    2.4930    9.0738 C   0  0  0  0  0  0  0  0  0  0  0  0
    1.7802    3.6410    8.4111 N   0  0  0  0  0  0  0  0  0  0  0  0
    1.4760    4.6421    9.2232 N   0  0  0  0  0  0  0  0  0  0  0  0
    1.1964    5.9435    9.0309 C   0  0  0  0  0  0  0  0  0  0  0  0
    0.9201    6.7284   10.0764 N   0  0  0  0  0  0  0  0  0  0  0  0
    0.9147    6.2393   11.3403 C   0  0  0  0  0  0  0  0  0  0  0  0
    1.1972    4.9473   11.4776 N   0  0  0  0  0  0  0  0  0  0  0  0
    1.4832    4.1039   10.4728 C   0  0  0  0  0  0  0  0  0  0  0  0
    1.7908    2.8007   10.3678 N   0  0  0  0  0  0  0  0  0  0  0  0
    0.6194    7.0835   12.4451 N   0  0  0  0  0  0  0  0  0  0  0  0
    0.9103    6.7346   13.8036 C   0  0  0  0  0  0  0  0  0  0  0  0
    2.3949    6.6504   14.0773 C   0  0  0  0  0  0  0  0  0  0  0  0
    2.8088    7.6141   15.1275 C   0  0  0  0  0  0  0  0  0  0  0  0
    1.8706    8.4848   15.6759 C   0  0  0  0  0  0  0  0  0  0  0  0
    2.2339    9.3933   16.6622 C   0  0  0  0  0  0  0  0  0  0  0  0
    3.5310    9.4423   17.1096 C   0  0  0  0  0  0  0  0  0  0  0  0
    4.4730    8.6007   16.5904 C   0  0  0  0  0  0  0  0  0  0  0  0
    4.0962    7.6985   15.6060 C   0  0  0  0  0  0  0  0  0  0  0  0
    3.8837   10.3537   18.0953 O   0  0  0  0  0  0  0  0  0  0  0  0
    1.1890    6.5017    7.7352 N   0  0  0  0  0  0  0  0  0  0  0  0
  1  2  2  0
  2  3  1  0
  3  4  1  0
  4  5  2  0
  4  6  1  0
  6  7  2  0
  7  8  1  0
  8  9  1  0
  9 10  2  0
 10 11  1  0
 11 12  2  0
 12 13  1  0
 13 14  2  0
 11 15  1  0
 15 16  1  0
 16 17  1  0
 17 18  1  0
 18 19  2  0
 19 20  1  0
 20 21  2  0
 21 22  1  0
 22 23  2  0
 21 24  1  0
  9 25  1  0
  5  1  1  0
 14  6  1  0
 13  8  1  0
 23 18  1  0
M  END
$$$$
