
     RDKit          3D

 25 28  0  0  0  0  0  0  0  0999 V2000
    3.1052   -0.0536    6.6829 C   0  0  0  0  0  0  0  0  0  0  0  0
    1.9638    0.4803    6.1207 C   0  0  0  0  0  0  0  0  0  0  0  0
    1.5482    1.4661    6.8690 O   0  0  0  0  0  0  0  0  0  0  0  0
    2.3178    1.6568    7.9112 C   0  0  0  0  0  0  0  0  0  0  0  0
    3.3175    0.7078    7.8238 C   0  0  0  0  0  0  0  0  0  0  0  0
    2.1843    2.6552    8.9725 C   0  0  0  0  0  0  0  0  0  0  0  0
    2.9224    2.8306   10.0779 N   0  0  0  0  0  0  0  0  0  0  0  0
    2.4954    3.8488   10.8095 N   0  0  0  0  0  0  0  0  0  0  0  0
    2.9016    4.3955   11.9692 C   0  0  0  0  0  0  0  0  0  0  0  0
    2.2521    5.4482   12.4745 N   0  0  0  0  0  0  0  0  0  0  0  0
    1.1816    5.9844   11.8395 C   0  0  0  0  0  0  0  0  0  0  0  0
    0.8196    5.4083   10.6971 N   0  0  0  0  0  0  0  0  0  0  0  0
    1.4263    4.3510   10.1343 C   0  0  0  0  0  0  0  0  0  0  0  0
    1.2487    3.6183    9.0228 N   0  0  0  0  0  0  0  0  0  0  0  0
    0.4980    7.1044   12.3863 N   0  0  0  0  0  0  0  0  0  0  0  0
    0.9792    7.8495   13.5111 C   0  0  0  0  0  0  0  0  0  0  0  0
    2.4887    7.8640   13.5962 C   0  0  0  0  0  0  0  0  0  0  0  0
    2.9533    8.3764   14.9095 C   0  0  0  0  0  0  0  0  0  0  0  0
    3.7044    7.5549   15.7462 C   0  0  0  0  0  0  0  0  0  0  0  0
    4.1529    8.0137   16.9784 C   0  0  0  0  0  0  0  0  0  0  0  0
    3.8582    9.2909   17.3869 C   0  0  0  0  0  0  0  0  0  0  0  0
    3.1234   10.1194   16.5876 C   0  0  0  0  0  0  0  0  0  0  0  0
    2.6821    9.6482   15.3595 C   0  0  0  0  0  0  0  0  0  0  0  0
    4.3110    9.7395   18.6199 O   0  0  0  0  0  0  0  0  0  0  0  0
    4.0103    3.8748   12.6694 N   0  0  0  0  0  0  0  0  0  0  0  0
  1  2  2  0
  2  3  1  0
  3  4  1  0
  4  5  2  0
  4  6  1  0
  6  7  2  0
  7  8  1  0
  8  9  1  0
  9 10  2  0
 10 11  1  0
 11 12  2  0
 12 13  1  0
 13 14  2  0
 11 15  1  0
 15 16  1  0
 16 17  1  0
 17 18  1  0
 18 19  2  0
 19 20  1  0
 20 21  2  0
 21 22  1  0
 22 23  2  0
 21 24  1  0
  9 25  1  0
  5  1  1  0
 14  6  1  0
 13  8  1  0
 23 18  1  0
M  END
$$$$
