
     RDKit          3D

 15 17  0  0  0  0  0  0  0  0999 V2000
    0.3106   -0.8028    8.5260 C   0  0  0  0  0  0  0  0  0  0  0  0
    0.4517    0.3125    7.6278 N   0  0  0  0  0  4  0  0  0  0  0  0
    0.1365   -0.1356    6.2857 C   0  0  0  0  0  0  0  0  0  0  0  0
    1.2714   -1.1077    5.9160 C   0  0  0  0  0  0  0  0  0  0  0  0
    1.0207   -2.2943    6.6845 N   0  0  0  0  0  0  0  0  0  0  0  0
    0.1849   -2.1351    7.8752 C   0  0  0  0  0  0  0  0  0  0  0  0
    1.5001   -3.5931    6.3982 C   0  0  0  0  0  0  0  0  0  0  0  0
    1.2947   -4.1460    5.1482 C   0  0  0  0  0  0  0  0  0  0  0  0
    1.7530   -5.4130    4.8308 C   0  0  0  0  0  0  0  0  0  0  0  0
    2.4244   -6.1465    5.7605 C   0  0  0  0  0  0  0  0  0  0  0  0
    2.6467   -5.6314    7.0100 C   0  0  0  0  0  0  0  0  0  0  0  0
    2.1814   -4.3528    7.3230 C   0  0  0  0  0  0  0  0  0  0  0  0
    2.5399   -4.1021    8.6225 C   0  0  0  0  0  0  0  0  0  0  0  0
    3.2101   -5.2132    9.0818 C   0  0  0  0  0  0  0  0  0  0  0  0
    3.2590   -6.1153    8.0920 N   0  0  0  0  0  0  0  0  0  0  0  0
  1  2  1  0
  2  3  1  0
  3  4  1  0
  4  5  1  0
  5  6  1  0
  5  7  1  0
  7  8  2  0
  8  9  1  0
  9 10  2  0
 10 11  1  0
 11 12  2  0
 12 13  1  0
 13 14  2  0
 14 15  1  0
  6  1  1  0
 12  7  1  0
 15 11  1  0
M  CHG  1   2   1
M  END
$$$$
