
     RDKit          3D

 15 17  0  0  0  0  0  0  0  0999 V2000
    0.2468   -0.3802    6.1427 C   0  0  0  0  0  0  0  0  0  0  0  0
   -0.4510   -0.1355    7.3771 N   0  0  0  0  0  4  0  0  0  0  0  0
    0.2245   -0.8568    8.4376 C   0  0  0  0  0  0  0  0  0  0  0  0
   -0.0130   -2.3440    8.1186 C   0  0  0  0  0  0  0  0  0  0  0  0
    0.8290   -2.6298    6.9912 N   0  0  0  0  0  0  0  0  0  0  0  0
    1.2438   -1.4843    6.1806 C   0  0  0  0  0  0  0  0  0  0  0  0
    1.2935   -3.9053    6.5964 C   0  0  0  0  0  0  0  0  0  0  0  0
    1.0470   -4.3652    5.3165 C   0  0  0  0  0  0  0  0  0  0  0  0
    1.4896   -5.6068    4.8936 C   0  0  0  0  0  0  0  0  0  0  0  0
    2.1862   -6.4075    5.7460 C   0  0  0  0  0  0  0  0  0  0  0  0
    2.4493   -5.9854    7.0222 C   0  0  0  0  0  0  0  0  0  0  0  0
    1.9997   -4.7319    7.4417 C   0  0  0  0  0  0  0  0  0  0  0  0
    2.3994   -4.5773    8.7442 C   0  0  0  0  0  0  0  0  0  0  0  0
    3.0785   -5.7204    9.1003 C   0  0  0  0  0  0  0  0  0  0  0  0
    3.0927   -6.5481    8.0464 N   0  0  0  0  0  0  0  0  0  0  0  0
  1  2  1  0
  2  3  1  0
  3  4  1  0
  4  5  1  0
  5  6  1  0
  5  7  1  0
  7  8  2  0
  8  9  1  0
  9 10  2  0
 10 11  1  0
 11 12  2  0
 12 13  1  0
 13 14  2  0
 14 15  1  0
  6  1  1  0
 12  7  1  0
 15 11  1  0
M  CHG  1   2   1
M  END
$$$$
