
     RDKit          3D

 15 17  0  0  0  0  0  0  0  0999 V2000
   -0.0919   -1.0167    8.3670 C   0  0  0  0  0  0  0  0  0  0  0  0
    0.1209    0.1201    7.5109 N   0  0  0  0  0  4  0  0  0  0  0  0
   -0.1038   -0.2895    6.1386 C   0  0  0  0  0  0  0  0  0  0  0  0
    1.0458   -1.2634    5.8228 C   0  0  0  0  0  0  0  0  0  0  0  0
    0.7320   -2.4670    6.5401 N   0  0  0  0  0  0  0  0  0  0  0  0
   -0.1833   -2.3302    7.6736 C   0  0  0  0  0  0  0  0  0  0  0  0
    1.2192   -3.7627    6.2531 C   0  0  0  0  0  0  0  0  0  0  0  0
    0.9955   -4.3261    5.0110 C   0  0  0  0  0  0  0  0  0  0  0  0
    1.4606   -5.5905    4.6931 C   0  0  0  0  0  0  0  0  0  0  0  0
    2.1572   -6.3108    5.6145 C   0  0  0  0  0  0  0  0  0  0  0  0
    2.3981   -5.7851    6.8561 C   0  0  0  0  0  0  0  0  0  0  0  0
    1.9259   -4.5091    7.1696 C   0  0  0  0  0  0  0  0  0  0  0  0
    2.3067   -4.2460    8.4602 C   0  0  0  0  0  0  0  0  0  0  0  0
    2.9970   -5.3472    8.9139 C   0  0  0  0  0  0  0  0  0  0  0  0
    3.0361   -6.2553    7.9292 N   0  0  0  0  0  0  0  0  0  0  0  0
  1  2  1  0
  2  3  1  0
  3  4  1  0
  4  5  1  0
  5  6  1  0
  5  7  1  0
  7  8  2  0
  8  9  1  0
  9 10  2  0
 10 11  1  0
 11 12  2  0
 12 13  1  0
 13 14  2  0
 14 15  1  0
  6  1  1  0
 12  7  1  0
 15 11  1  0
M  CHG  1   2   1
M  END
$$$$
