
     RDKit          3D

 15 17  0  0  0  0  0  0  0  0999 V2000
    0.3310   -0.2120    6.0532 C   0  0  0  0  0  0  0  0  0  0  0  0
   -0.3555    0.0357    7.2933 N   0  0  0  0  0  4  0  0  0  0  0  0
    0.3286   -0.6844    8.3492 C   0  0  0  0  0  0  0  0  0  0  0  0
    0.0867   -2.1719    8.0349 C   0  0  0  0  0  0  0  0  0  0  0  0
    0.9183   -2.4607    6.9007 N   0  0  0  0  0  0  0  0  0  0  0  0
    1.3271   -1.3171    6.0843 C   0  0  0  0  0  0  0  0  0  0  0  0
    1.3779   -3.7374    6.5040 C   0  0  0  0  0  0  0  0  0  0  0  0
    1.1184   -4.1999    5.2276 C   0  0  0  0  0  0  0  0  0  0  0  0
    1.5558   -5.4427    4.8030 C   0  0  0  0  0  0  0  0  0  0  0  0
    2.2603   -6.2421    5.6503 C   0  0  0  0  0  0  0  0  0  0  0  0
    2.5365   -5.8174    6.9228 C   0  0  0  0  0  0  0  0  0  0  0  0
    2.0920   -4.5626    7.3440 C   0  0  0  0  0  0  0  0  0  0  0  0
    2.5048   -4.4055    8.6421 C   0  0  0  0  0  0  0  0  0  0  0  0
    3.1867   -5.5484    8.9939 C   0  0  0  0  0  0  0  0  0  0  0  0
    3.1897   -6.3783    7.9418 N   0  0  0  0  0  0  0  0  0  0  0  0
  1  2  1  0
  2  3  1  0
  3  4  1  0
  4  5  1  0
  5  6  1  0
  5  7  1  0
  7  8  2  0
  8  9  1  0
  9 10  2  0
 10 11  1  0
 11 12  2  0
 12 13  1  0
 13 14  2  0
 14 15  1  0
  6  1  1  0
 12  7  1  0
 15 11  1  0
M  CHG  1   2   1
M  END
$$$$
