
     RDKit          3D

 15 17  0  0  0  0  0  0  0  0999 V2000
    0.0171   -0.2217    5.9459 C   0  0  0  0  0  0  0  0  0  0  0  0
   -0.5767    0.0757    7.2224 N   0  0  0  0  0  4  0  0  0  0  0  0
    0.2152   -0.5596    8.2570 C   0  0  0  0  0  0  0  0  0  0  0  0
    0.0033   -2.0698    8.0465 C   0  0  0  0  0  0  0  0  0  0  0  0
    0.7516   -2.3975    6.8658 N   0  0  0  0  0  0  0  0  0  0  0  0
    1.0521   -1.2909    5.9566 C   0  0  0  0  0  0  0  0  0  0  0  0
    1.2243   -3.6799    6.5042 C   0  0  0  0  0  0  0  0  0  0  0  0
    0.9928   -4.1688    5.2323 C   0  0  0  0  0  0  0  0  0  0  0  0
    1.4437   -5.4179    4.8416 C   0  0  0  0  0  0  0  0  0  0  0  0
    2.1337   -6.1973    5.7190 C   0  0  0  0  0  0  0  0  0  0  0  0
    2.3819   -5.7461    6.9881 C   0  0  0  0  0  0  0  0  0  0  0  0
    1.9241   -4.4852    7.3750 C   0  0  0  0  0  0  0  0  0  0  0  0
    2.3094   -4.3005    8.6779 C   0  0  0  0  0  0  0  0  0  0  0  0
    2.9883   -5.4332    9.0664 C   0  0  0  0  0  0  0  0  0  0  0  0
    3.0162   -6.2839    8.0313 N   0  0  0  0  0  0  0  0  0  0  0  0
  1  2  1  0
  2  3  1  0
  3  4  1  0
  4  5  1  0
  5  6  1  0
  5  7  1  0
  7  8  2  0
  8  9  1  0
  9 10  2  0
 10 11  1  0
 11 12  2  0
 12 13  1  0
 13 14  2  0
 14 15  1  0
  6  1  1  0
 12  7  1  0
 15 11  1  0
M  CHG  1   2   1
M  END
$$$$
