
     RDKit          3D

 15 17  0  0  0  0  0  0  0  0999 V2000
    0.6194    0.2121    6.0573 C   0  0  0  0  0  0  0  0  0  0  0  0
   -0.2761    0.4044    7.1670 N   0  0  0  0  0  4  0  0  0  0  0  0
    0.1900   -0.4008    8.2787 C   0  0  0  0  0  0  0  0  0  0  0  0
   -0.0202   -1.8577    7.8278 C   0  0  0  0  0  0  0  0  0  0  0  0
    0.9979   -2.1020    6.8453 N   0  0  0  0  0  0  0  0  0  0  0  0
    1.5710   -0.9237    6.1938 C   0  0  0  0  0  0  0  0  0  0  0  0
    1.4964   -3.3657    6.4541 C   0  0  0  0  0  0  0  0  0  0  0  0
    1.2601   -3.8369    5.1764 C   0  0  0  0  0  0  0  0  0  0  0  0
    1.7357   -5.0673    4.7569 C   0  0  0  0  0  0  0  0  0  0  0  0
    2.4558   -5.8455    5.6107 C   0  0  0  0  0  0  0  0  0  0  0  0
    2.7099   -5.4116    6.8848 C   0  0  0  0  0  0  0  0  0  0  0  0
    2.2269   -4.1695    7.3008 C   0  0  0  0  0  0  0  0  0  0  0  0
    2.6248   -3.9992    8.6019 C   0  0  0  0  0  0  0  0  0  0  0  0
    3.3358   -5.1220    8.9606 C   0  0  0  0  0  0  0  0  0  0  0  0
    3.3706   -5.9527    7.9097 N   0  0  0  0  0  0  0  0  0  0  0  0
  1  2  1  0
  2  3  1  0
  3  4  1  0
  4  5  1  0
  5  6  1  0
  5  7  1  0
  7  8  2  0
  8  9  1  0
  9 10  2  0
 10 11  1  0
 11 12  2  0
 12 13  1  0
 13 14  2  0
 14 15  1  0
  6  1  1  0
 12  7  1  0
 15 11  1  0
M  CHG  1   2   1
M  END
$$$$
