
     RDKit          3D

 15 17  0  0  0  0  0  0  0  0999 V2000
   -0.0169   -0.9131    8.4027 C   0  0  0  0  0  0  0  0  0  0  0  0
    0.1600    0.2056    7.5153 N   0  0  0  0  0  4  0  0  0  0  0  0
   -0.1083   -0.2353    6.1607 C   0  0  0  0  0  0  0  0  0  0  0  0
    1.0358   -1.2098    5.8275 C   0  0  0  0  0  0  0  0  0  0  0  0
    0.7536   -2.3989    6.5811 N   0  0  0  0  0  0  0  0  0  0  0  0
   -0.1238   -2.2420    7.7417 C   0  0  0  0  0  0  0  0  0  0  0  0
    1.2386   -3.6981    6.3063 C   0  0  0  0  0  0  0  0  0  0  0  0
    1.0456   -4.2584    5.0576 C   0  0  0  0  0  0  0  0  0  0  0  0
    1.5096   -5.5260    4.7512 C   0  0  0  0  0  0  0  0  0  0  0  0
    2.1745   -6.2528    5.6909 C   0  0  0  0  0  0  0  0  0  0  0  0
    2.3845   -5.7303    6.9395 C   0  0  0  0  0  0  0  0  0  0  0  0
    1.9135   -4.4510    7.2412 C   0  0  0  0  0  0  0  0  0  0  0  0
    2.2600   -4.1923    8.5424 C   0  0  0  0  0  0  0  0  0  0  0  0
    2.9287   -5.2993    9.0138 C   0  0  0  0  0  0  0  0  0  0  0  0
    2.9884   -6.2066    8.0295 N   0  0  0  0  0  0  0  0  0  0  0  0
  1  2  1  0
  2  3  1  0
  3  4  1  0
  4  5  1  0
  5  6  1  0
  5  7  1  0
  7  8  2  0
  8  9  1  0
  9 10  2  0
 10 11  1  0
 11 12  2  0
 12 13  1  0
 13 14  2  0
 14 15  1  0
  6  1  1  0
 12  7  1  0
 15 11  1  0
M  CHG  1   2   1
M  END
$$$$
