
     RDKit          3D

 15 17  0  0  0  0  0  0  0  0999 V2000
    0.0016   -0.8352    8.5061 C   0  0  0  0  0  0  0  0  0  0  0  0
    0.2010    0.2734    7.6106 N   0  0  0  0  0  4  0  0  0  0  0  0
   -0.0699   -0.1735    6.2585 C   0  0  0  0  0  0  0  0  0  0  0  0
    1.0586   -1.1702    5.9373 C   0  0  0  0  0  0  0  0  0  0  0  0
    0.7532   -2.3483    6.6991 N   0  0  0  0  0  0  0  0  0  0  0  0
   -0.1256   -2.1672    7.8551 C   0  0  0  0  0  0  0  0  0  0  0  0
    1.2168   -3.6577    6.4363 C   0  0  0  0  0  0  0  0  0  0  0  0
    1.0089   -4.2287    5.1949 C   0  0  0  0  0  0  0  0  0  0  0  0
    1.4519   -5.5066    4.9003 C   0  0  0  0  0  0  0  0  0  0  0  0
    2.1103   -6.2331    5.8446 C   0  0  0  0  0  0  0  0  0  0  0  0
    2.3346   -5.7002    7.0863 C   0  0  0  0  0  0  0  0  0  0  0  0
    1.8849   -4.4106    7.3762 C   0  0  0  0  0  0  0  0  0  0  0  0
    2.2418   -4.1429    8.6727 C   0  0  0  0  0  0  0  0  0  0  0  0
    2.8959   -5.2549    9.1530 C   0  0  0  0  0  0  0  0  0  0  0  0
    2.9367   -6.1738    8.1785 N   0  0  0  0  0  0  0  0  0  0  0  0
  1  2  1  0
  2  3  1  0
  3  4  1  0
  4  5  1  0
  5  6  1  0
  5  7  1  0
  7  8  2  0
  8  9  1  0
  9 10  2  0
 10 11  1  0
 11 12  2  0
 12 13  1  0
 13 14  2  0
 14 15  1  0
  6  1  1  0
 12  7  1  0
 15 11  1  0
M  CHG  1   2   1
M  END
$$$$
