
     RDKit          3D

 15 17  0  0  0  0  0  0  0  0999 V2000
    0.3378   -0.6809    8.5857 C   0  0  0  0  0  0  0  0  0  0  0  0
    0.5661    0.4469    7.7218 N   0  0  0  0  0  4  0  0  0  0  0  0
    0.2886    0.0442    6.3572 C   0  0  0  0  0  0  0  0  0  0  0  0
    1.3940   -0.9698    6.0110 C   0  0  0  0  0  0  0  0  0  0  0  0
    1.0585   -2.1609    6.7390 N   0  0  0  0  0  0  0  0  0  0  0  0
    0.1808   -1.9910    7.8976 C   0  0  0  0  0  0  0  0  0  0  0  0
    1.4916   -3.4732    6.4410 C   0  0  0  0  0  0  0  0  0  0  0  0
    1.2521   -4.0133    5.1915 C   0  0  0  0  0  0  0  0  0  0  0  0
    1.6647   -5.2931    4.8627 C   0  0  0  0  0  0  0  0  0  0  0  0
    2.3238   -6.0523    5.7804 C   0  0  0  0  0  0  0  0  0  0  0  0
    2.5790   -5.5506    7.0290 C   0  0  0  0  0  0  0  0  0  0  0  0
    2.1597   -4.2590    7.3535 C   0  0  0  0  0  0  0  0  0  0  0  0
    2.5431   -4.0261    8.6492 C   0  0  0  0  0  0  0  0  0  0  0  0
    3.1826   -5.1606    9.0950 C   0  0  0  0  0  0  0  0  0  0  0  0
    3.1892   -6.0591    8.1008 N   0  0  0  0  0  0  0  0  0  0  0  0
  1  2  1  0
  2  3  1  0
  3  4  1  0
  4  5  1  0
  5  6  1  0
  5  7  1  0
  7  8  2  0
  8  9  1  0
  9 10  2  0
 10 11  1  0
 11 12  2  0
 12 13  1  0
 13 14  2  0
 14 15  1  0
  6  1  1  0
 12  7  1  0
 15 11  1  0
M  CHG  1   2   1
M  END
$$$$
