
     RDKit          3D

 15 17  0  0  0  0  0  0  0  0999 V2000
    0.3469   -0.2941    6.0755 C   0  0  0  0  0  0  0  0  0  0  0  0
   -0.3578   -0.0764    7.3110 N   0  0  0  0  0  4  0  0  0  0  0  0
    0.3199   -0.8095    8.3620 C   0  0  0  0  0  0  0  0  0  0  0  0
    0.0970   -2.2931    8.0170 C   0  0  0  0  0  0  0  0  0  0  0  0
    0.9459   -2.5524    6.8884 N   0  0  0  0  0  0  0  0  0  0  0  0
    1.3536   -1.3897    6.0989 C   0  0  0  0  0  0  0  0  0  0  0  0
    1.4233   -3.8169    6.4741 C   0  0  0  0  0  0  0  0  0  0  0  0
    1.1689   -4.2658    5.1918 C   0  0  0  0  0  0  0  0  0  0  0  0
    1.6236   -5.4963    4.7500 C   0  0  0  0  0  0  0  0  0  0  0  0
    2.3405   -6.2969    5.5856 C   0  0  0  0  0  0  0  0  0  0  0  0
    2.6120   -5.8855    6.8635 C   0  0  0  0  0  0  0  0  0  0  0  0
    2.1501   -4.6431    7.3022 C   0  0  0  0  0  0  0  0  0  0  0  0
    2.5620   -4.4976    8.6019 C   0  0  0  0  0  0  0  0  0  0  0  0
    3.2606   -5.6353    8.9375 C   0  0  0  0  0  0  0  0  0  0  0  0
    3.2743   -6.4508    7.8742 N   0  0  0  0  0  0  0  0  0  0  0  0
  1  2  1  0
  2  3  1  0
  3  4  1  0
  4  5  1  0
  5  6  1  0
  5  7  1  0
  7  8  2  0
  8  9  1  0
  9 10  2  0
 10 11  1  0
 11 12  2  0
 12 13  1  0
 13 14  2  0
 14 15  1  0
  6  1  1  0
 12  7  1  0
 15 11  1  0
M  CHG  1   2   1
M  END
$$$$
