
     RDKit          3D

 15 17  0  0  0  0  0  0  0  0999 V2000
    0.2544   -0.1084    6.0356 C   0  0  0  0  0  0  0  0  0  0  0  0
   -0.4998    0.1355    7.2365 N   0  0  0  0  0  4  0  0  0  0  0  0
    0.1151   -0.6011    8.3231 C   0  0  0  0  0  0  0  0  0  0  0  0
   -0.1230   -2.0831    7.9815 C   0  0  0  0  0  0  0  0  0  0  0  0
    0.7695   -2.3706    6.8942 N   0  0  0  0  0  0  0  0  0  0  0  0
    1.2360   -1.2241    6.1135 C   0  0  0  0  0  0  0  0  0  0  0  0
    1.2385   -3.6485    6.5126 C   0  0  0  0  0  0  0  0  0  0  0  0
    0.9952   -4.1218    5.2370 C   0  0  0  0  0  0  0  0  0  0  0  0
    1.4421   -5.3661    4.8270 C   0  0  0  0  0  0  0  0  0  0  0  0
    2.1399   -6.1562    5.6882 C   0  0  0  0  0  0  0  0  0  0  0  0
    2.4001   -5.7207    6.9605 C   0  0  0  0  0  0  0  0  0  0  0  0
    1.9461   -4.4645    7.3670 C   0  0  0  0  0  0  0  0  0  0  0  0
    2.3436   -4.2958    8.6684 C   0  0  0  0  0  0  0  0  0  0  0  0
    3.0257   -5.4333    9.0367 C   0  0  0  0  0  0  0  0  0  0  0  0
    3.0438   -6.2712    7.9911 N   0  0  0  0  0  0  0  0  0  0  0  0
  1  2  1  0
  2  3  1  0
  3  4  1  0
  4  5  1  0
  5  6  1  0
  5  7  1  0
  7  8  2  0
  8  9  1  0
  9 10  2  0
 10 11  1  0
 11 12  2  0
 12 13  1  0
 13 14  2  0
 14 15  1  0
  6  1  1  0
 12  7  1  0
 15 11  1  0
M  CHG  1   2   1
M  END
$$$$
