
     RDKit          3D

 15 17  0  0  0  0  0  0  0  0999 V2000
    0.1869   -0.3132    6.0712 C   0  0  0  0  0  0  0  0  0  0  0  0
   -0.5220   -0.0638    7.2983 N   0  0  0  0  0  4  0  0  0  0  0  0
    0.1521   -0.7695    8.3702 C   0  0  0  0  0  0  0  0  0  0  0  0
   -0.0696   -2.2616    8.0628 C   0  0  0  0  0  0  0  0  0  0  0  0
    0.7831   -2.5498    6.9441 N   0  0  0  0  0  0  0  0  0  0  0  0
    1.1935   -1.4078    6.1263 C   0  0  0  0  0  0  0  0  0  0  0  0
    1.2620   -3.8245    6.5641 C   0  0  0  0  0  0  0  0  0  0  0  0
    1.0225   -4.3011    5.2890 C   0  0  0  0  0  0  0  0  0  0  0  0
    1.4791   -5.5424    4.8805 C   0  0  0  0  0  0  0  0  0  0  0  0
    2.1829   -6.3261    5.7428 C   0  0  0  0  0  0  0  0  0  0  0  0
    2.4394   -5.8871    7.0145 C   0  0  0  0  0  0  0  0  0  0  0  0
    1.9757   -4.6340    7.4195 C   0  0  0  0  0  0  0  0  0  0  0  0
    2.3717   -4.4607    8.7208 C   0  0  0  0  0  0  0  0  0  0  0  0
    3.0625   -5.5925    9.0905 C   0  0  0  0  0  0  0  0  0  0  0  0
    3.0872   -6.4315    8.0459 N   0  0  0  0  0  0  0  0  0  0  0  0
  1  2  1  0
  2  3  1  0
  3  4  1  0
  4  5  1  0
  5  6  1  0
  5  7  1  0
  7  8  2  0
  8  9  1  0
  9 10  2  0
 10 11  1  0
 11 12  2  0
 12 13  1  0
 13 14  2  0
 14 15  1  0
  6  1  1  0
 12  7  1  0
 15 11  1  0
M  CHG  1   2   1
M  END
$$$$
