
     RDKit          3D

 15 17  0  0  0  0  0  0  0  0999 V2000
   -0.4827   -0.3302    6.0712 C   0  0  0  0  0  0  0  0  0  0  0  0
   -0.5797    0.0849    7.4455 N   0  0  0  0  0  4  0  0  0  0  0  0
    0.6064   -0.3657    8.1465 C   0  0  0  0  0  0  0  0  0  0  0  0
    0.4927   -1.9007    8.1712 C   0  0  0  0  0  0  0  0  0  0  0  0
    0.7711   -2.3240    6.8278 N   0  0  0  0  0  0  0  0  0  0  0  0
    0.5873   -1.3218    5.7775 C   0  0  0  0  0  0  0  0  0  0  0  0
    1.2060   -3.6086    6.4289 C   0  0  0  0  0  0  0  0  0  0  0  0
    1.0444   -4.0173    5.1185 C   0  0  0  0  0  0  0  0  0  0  0  0
    1.4614   -5.2661    4.6909 C   0  0  0  0  0  0  0  0  0  0  0  0
    2.0470   -6.1255    5.5693 C   0  0  0  0  0  0  0  0  0  0  0  0
    2.2238   -5.7552    6.8761 C   0  0  0  0  0  0  0  0  0  0  0  0
    1.8006   -4.4941    7.3001 C   0  0  0  0  0  0  0  0  0  0  0  0
    2.0986   -4.3985    8.6350 C   0  0  0  0  0  0  0  0  0  0  0  0
    2.6916   -5.5840    9.0060 C   0  0  0  0  0  0  0  0  0  0  0  0
    2.7535   -6.3795    7.9293 N   0  0  0  0  0  0  0  0  0  0  0  0
  1  2  1  0
  2  3  1  0
  3  4  1  0
  4  5  1  0
  5  6  1  0
  5  7  1  0
  7  8  2  0
  8  9  1  0
  9 10  2  0
 10 11  1  0
 11 12  2  0
 12 13  1  0
 13 14  2  0
 14 15  1  0
  6  1  1  0
 12  7  1  0
 15 11  1  0
M  CHG  1   2   1
M  END
$$$$
