
     RDKit          3D

 15 17  0  0  0  0  0  0  0  0999 V2000
    0.6415    0.0407    6.1292 C   0  0  0  0  0  0  0  0  0  0  0  0
   -0.2801    0.2165    7.2202 N   0  0  0  0  0  4  0  0  0  0  0  0
    0.1308   -0.6440    8.3120 C   0  0  0  0  0  0  0  0  0  0  0  0
   -0.1072   -2.0757    7.7989 C   0  0  0  0  0  0  0  0  0  0  0  0
    0.9317   -2.3120    6.8364 N   0  0  0  0  0  0  0  0  0  0  0  0
    1.5564   -1.1268    6.2477 C   0  0  0  0  0  0  0  0  0  0  0  0
    1.4056   -3.5738    6.4100 C   0  0  0  0  0  0  0  0  0  0  0  0
    1.1449   -4.0124    5.1255 C   0  0  0  0  0  0  0  0  0  0  0  0
    1.5960   -5.2400    4.6721 C   0  0  0  0  0  0  0  0  0  0  0  0
    2.3156   -6.0479    5.4982 C   0  0  0  0  0  0  0  0  0  0  0  0
    2.5935   -5.6468    6.7780 C   0  0  0  0  0  0  0  0  0  0  0  0
    2.1351   -4.4073    7.2284 C   0  0  0  0  0  0  0  0  0  0  0  0
    2.5532   -4.2724    8.5273 C   0  0  0  0  0  0  0  0  0  0  0  0
    3.2518   -5.4135    8.8509 C   0  0  0  0  0  0  0  0  0  0  0  0
    3.2597   -6.2207    7.7813 N   0  0  0  0  0  0  0  0  0  0  0  0
  1  2  1  0
  2  3  1  0
  3  4  1  0
  4  5  1  0
  5  6  1  0
  5  7  1  0
  7  8  2  0
  8  9  1  0
  9 10  2  0
 10 11  1  0
 11 12  2  0
 12 13  1  0
 13 14  2  0
 14 15  1  0
  6  1  1  0
 12  7  1  0
 15 11  1  0
M  CHG  1   2   1
M  END
$$$$
