
     RDKit          3D

 15 17  0  0  0  0  0  0  0  0999 V2000
    0.3691   -0.7145    8.4386 C   0  0  0  0  0  0  0  0  0  0  0  0
    0.4879    0.3684    7.4984 N   0  0  0  0  0  4  0  0  0  0  0  0
    0.1032   -0.1167    6.1877 C   0  0  0  0  0  0  0  0  0  0  0  0
    1.2028   -1.1216    5.7990 C   0  0  0  0  0  0  0  0  0  0  0  0
    0.9672   -2.2778    6.6170 N   0  0  0  0  0  0  0  0  0  0  0  0
    0.1903   -2.0645    7.8386 C   0  0  0  0  0  0  0  0  0  0  0  0
    1.4102   -3.5939    6.3523 C   0  0  0  0  0  0  0  0  0  0  0  0
    1.1703   -4.1693    5.1187 C   0  0  0  0  0  0  0  0  0  0  0  0
    1.5924   -5.4539    4.8224 C   0  0  0  0  0  0  0  0  0  0  0  0
    2.2617   -6.1827    5.7573 C   0  0  0  0  0  0  0  0  0  0  0  0
    2.5176   -5.6457    6.9910 C   0  0  0  0  0  0  0  0  0  0  0  0
    2.0887   -4.3494    7.2826 C   0  0  0  0  0  0  0  0  0  0  0  0
    2.4753   -4.0787    8.5700 C   0  0  0  0  0  0  0  0  0  0  0  0
    3.1262   -5.1955    9.0432 C   0  0  0  0  0  0  0  0  0  0  0  0
    3.1364   -6.1202    8.0734 N   0  0  0  0  0  0  0  0  0  0  0  0
  1  2  1  0
  2  3  1  0
  3  4  1  0
  4  5  1  0
  5  6  1  0
  5  7  1  0
  7  8  2  0
  8  9  1  0
  9 10  2  0
 10 11  1  0
 11 12  2  0
 12 13  1  0
 13 14  2  0
 14 15  1  0
  6  1  1  0
 12  7  1  0
 15 11  1  0
M  CHG  1   2   1
M  END
$$$$
