
     RDKit          3D

 15 17  0  0  0  0  0  0  0  0999 V2000
    0.1913    0.0300    5.9810 C   0  0  0  0  0  0  0  0  0  0  0  0
   -0.7412    0.2050    7.0629 N   0  0  0  0  0  4  0  0  0  0  0  0
   -0.3037   -0.6054    8.1824 C   0  0  0  0  0  0  0  0  0  0  0  0
   -0.4861   -2.0602    7.7132 C   0  0  0  0  0  0  0  0  0  0  0  0
    0.5652   -2.2873    6.7621 N   0  0  0  0  0  0  0  0  0  0  0  0
    1.1483   -1.0985    6.1390 C   0  0  0  0  0  0  0  0  0  0  0  0
    1.0876   -3.5432    6.3769 C   0  0  0  0  0  0  0  0  0  0  0  0
    0.8740   -4.0176    5.0964 C   0  0  0  0  0  0  0  0  0  0  0  0
    1.3733   -5.2406    4.6827 C   0  0  0  0  0  0  0  0  0  0  0  0
    2.0945   -6.0080    5.5452 C   0  0  0  0  0  0  0  0  0  0  0  0
    2.3264   -5.5707    6.8223 C   0  0  0  0  0  0  0  0  0  0  0  0
    1.8197   -4.3361    7.2325 C   0  0  0  0  0  0  0  0  0  0  0  0
    2.1991   -4.1601    8.5383 C   0  0  0  0  0  0  0  0  0  0  0  0
    2.9226   -5.2721    8.9056 C   0  0  0  0  0  0  0  0  0  0  0  0
    2.9826   -6.1020    7.8551 N   0  0  0  0  0  0  0  0  0  0  0  0
  1  2  1  0
  2  3  1  0
  3  4  1  0
  4  5  1  0
  5  6  1  0
  5  7  1  0
  7  8  2  0
  8  9  1  0
  9 10  2  0
 10 11  1  0
 11 12  2  0
 12 13  1  0
 13 14  2  0
 14 15  1  0
  6  1  1  0
 12  7  1  0
 15 11  1  0
M  CHG  1   2   1
M  END
$$$$
