
     RDKit          3D

 15 17  0  0  0  0  0  0  0  0999 V2000
    0.4405   -0.8864    8.6330 C   0  0  0  0  0  0  0  0  0  0  0  0
    0.6064    0.2378    7.7502 N   0  0  0  0  0  4  0  0  0  0  0  0
    0.2746   -0.1827    6.4032 C   0  0  0  0  0  0  0  0  0  0  0  0
    1.3829   -1.1780    6.0148 C   0  0  0  0  0  0  0  0  0  0  0  0
    1.1051   -2.3688    6.7674 N   0  0  0  0  0  0  0  0  0  0  0  0
    0.2783   -2.2055    7.9637 C   0  0  0  0  0  0  0  0  0  0  0  0
    1.5501   -3.6750    6.4605 C   0  0  0  0  0  0  0  0  0  0  0  0
    1.2976   -4.2166    5.2142 C   0  0  0  0  0  0  0  0  0  0  0  0
    1.7213   -5.4905    4.8769 C   0  0  0  0  0  0  0  0  0  0  0  0
    2.4048   -6.2424    5.7828 C   0  0  0  0  0  0  0  0  0  0  0  0
    2.6734   -5.7390    7.0280 C   0  0  0  0  0  0  0  0  0  0  0  0
    2.2429   -4.4532    7.3610 C   0  0  0  0  0  0  0  0  0  0  0  0
    2.6440   -4.2171    8.6508 C   0  0  0  0  0  0  0  0  0  0  0  0
    3.3051   -5.3438    9.0846 C   0  0  0  0  0  0  0  0  0  0  0  0
    3.3073   -6.2409    8.0891 N   0  0  0  0  0  0  0  0  0  0  0  0
  1  2  1  0
  2  3  1  0
  3  4  1  0
  4  5  1  0
  5  6  1  0
  5  7  1  0
  7  8  2  0
  8  9  1  0
  9 10  2  0
 10 11  1  0
 11 12  2  0
 12 13  1  0
 13 14  2  0
 14 15  1  0
  6  1  1  0
 12  7  1  0
 15 11  1  0
M  CHG  1   2   1
M  END
$$$$
