
     RDKit          3D

 15 17  0  0  0  0  0  0  0  0999 V2000
    0.2904   -0.0768    6.0510 C   0  0  0  0  0  0  0  0  0  0  0  0
   -0.3956    0.1743    7.2907 N   0  0  0  0  0  4  0  0  0  0  0  0
    0.2952   -0.5343    8.3500 C   0  0  0  0  0  0  0  0  0  0  0  0
    0.0630   -2.0254    8.0458 C   0  0  0  0  0  0  0  0  0  0  0  0
    0.8945   -2.3159    6.9120 N   0  0  0  0  0  0  0  0  0  0  0  0
    1.2941   -1.1748    6.0875 C   0  0  0  0  0  0  0  0  0  0  0  0
    1.3622   -3.5920    6.5228 C   0  0  0  0  0  0  0  0  0  0  0  0
    1.1129   -4.0601    5.2465 C   0  0  0  0  0  0  0  0  0  0  0  0
    1.5583   -5.3024    4.8291 C   0  0  0  0  0  0  0  0  0  0  0  0
    2.2607   -6.0958    5.6837 C   0  0  0  0  0  0  0  0  0  0  0  0
    2.5268   -5.6655    6.9564 C   0  0  0  0  0  0  0  0  0  0  0  0
    2.0743   -4.4112    7.3704 C   0  0  0  0  0  0  0  0  0  0  0  0
    2.4780   -4.2477    8.6705 C   0  0  0  0  0  0  0  0  0  0  0  0
    3.1624   -5.3864    9.0308 C   0  0  0  0  0  0  0  0  0  0  0  0
    3.1758   -6.2200    7.9816 N   0  0  0  0  0  0  0  0  0  0  0  0
  1  2  1  0
  2  3  1  0
  3  4  1  0
  4  5  1  0
  5  6  1  0
  5  7  1  0
  7  8  2  0
  8  9  1  0
  9 10  2  0
 10 11  1  0
 11 12  2  0
 12 13  1  0
 13 14  2  0
 14 15  1  0
  6  1  1  0
 12  7  1  0
 15 11  1  0
M  CHG  1   2   1
M  END
$$$$
