
     RDKit          3D

 15 17  0  0  0  0  0  0  0  0999 V2000
   -0.9182   -0.5377    6.9718 C   0  0  0  0  0  0  0  0  0  0  0  0
   -0.1348    0.3561    7.7829 N   0  0  0  0  0  4  0  0  0  0  0  0
    1.2510    0.2565    7.3694 C   0  0  0  0  0  0  0  0  0  0  0  0
    1.6862   -1.1615    7.7816 C   0  0  0  0  0  0  0  0  0  0  0  0
    1.0412   -2.0428    6.8496 N   0  0  0  0  0  0  0  0  0  0  0  0
   -0.1398   -1.5158    6.1647 C   0  0  0  0  0  0  0  0  0  0  0  0
    1.4398   -3.3615    6.5323 C   0  0  0  0  0  0  0  0  0  0  0  0
    1.2211   -3.8636    5.2633 C   0  0  0  0  0  0  0  0  0  0  0  0
    1.6013   -5.1483    4.9155 C   0  0  0  0  0  0  0  0  0  0  0  0
    2.2066   -5.9508    5.8334 C   0  0  0  0  0  0  0  0  0  0  0  0
    2.4397   -5.4877    7.1012 C   0  0  0  0  0  0  0  0  0  0  0  0
    2.0534   -4.1907    7.4447 C   0  0  0  0  0  0  0  0  0  0  0  0
    2.4043   -4.0016    8.7567 C   0  0  0  0  0  0  0  0  0  0  0  0
    2.9922   -5.1672    9.1933 C   0  0  0  0  0  0  0  0  0  0  0  0
    2.9997   -6.0416    8.1778 N   0  0  0  0  0  0  0  0  0  0  0  0
  1  2  1  0
  2  3  1  0
  3  4  1  0
  4  5  1  0
  5  6  1  0
  5  7  1  0
  7  8  2  0
  8  9  1  0
  9 10  2  0
 10 11  1  0
 11 12  2  0
 12 13  1  0
 13 14  2  0
 14 15  1  0
  6  1  1  0
 12  7  1  0
 15 11  1  0
M  CHG  1   2   1
M  END
$$$$
