
     RDKit          3D

 15 17  0  0  0  0  0  0  0  0999 V2000
    0.3460   -0.2023    6.0717 C   0  0  0  0  0  0  0  0  0  0  0  0
   -0.3637    0.0119    7.3049 N   0  0  0  0  0  4  0  0  0  0  0  0
    0.3018   -0.7351    8.3539 C   0  0  0  0  0  0  0  0  0  0  0  0
    0.0682   -2.2140    7.9961 C   0  0  0  0  0  0  0  0  0  0  0  0
    0.9211   -2.4719    6.8703 N   0  0  0  0  0  0  0  0  0  0  0  0
    1.3431   -1.3067    6.0921 C   0  0  0  0  0  0  0  0  0  0  0  0
    1.3899   -3.7372    6.4487 C   0  0  0  0  0  0  0  0  0  0  0  0
    1.1293   -4.1786    5.1651 C   0  0  0  0  0  0  0  0  0  0  0  0
    1.5756   -5.4097    4.7163 C   0  0  0  0  0  0  0  0  0  0  0  0
    2.2902   -6.2183    5.5462 C   0  0  0  0  0  0  0  0  0  0  0  0
    2.5677   -5.8144    6.8252 C   0  0  0  0  0  0  0  0  0  0  0  0
    2.1142   -4.5714    7.2709 C   0  0  0  0  0  0  0  0  0  0  0  0
    2.5308   -4.4344    8.5700 C   0  0  0  0  0  0  0  0  0  0  0  0
    3.2236   -5.5776    8.8985 C   0  0  0  0  0  0  0  0  0  0  0  0
    3.2296   -6.3882    7.8314 N   0  0  0  0  0  0  0  0  0  0  0  0
  1  2  1  0
  2  3  1  0
  3  4  1  0
  4  5  1  0
  5  6  1  0
  5  7  1  0
  7  8  2  0
  8  9  1  0
  9 10  2  0
 10 11  1  0
 11 12  2  0
 12 13  1  0
 13 14  2  0
 14 15  1  0
  6  1  1  0
 12  7  1  0
 15 11  1  0
M  CHG  1   2   1
M  END
$$$$
