
     RDKit          3D

 15 17  0  0  0  0  0  0  0  0999 V2000
    0.2920   -0.1234    6.1083 C   0  0  0  0  0  0  0  0  0  0  0  0
   -0.4539    0.0916    7.3198 N   0  0  0  0  0  4  0  0  0  0  0  0
    0.1833   -0.6505    8.3897 C   0  0  0  0  0  0  0  0  0  0  0  0
   -0.0351   -2.1311    8.0293 C   0  0  0  0  0  0  0  0  0  0  0  0
    0.8509   -2.3891    6.9293 N   0  0  0  0  0  0  0  0  0  0  0  0
    1.2916   -1.2246    6.1606 C   0  0  0  0  0  0  0  0  0  0  0  0
    1.3358   -3.6540    6.5249 C   0  0  0  0  0  0  0  0  0  0  0  0
    1.0962   -4.1084    5.2418 C   0  0  0  0  0  0  0  0  0  0  0  0
    1.5587   -5.3394    4.8095 C   0  0  0  0  0  0  0  0  0  0  0  0
    2.2685   -6.1350    5.6558 C   0  0  0  0  0  0  0  0  0  0  0  0
    2.5254   -5.7181    6.9350 C   0  0  0  0  0  0  0  0  0  0  0  0
    2.0557   -4.4752    7.3639 C   0  0  0  0  0  0  0  0  0  0  0  0
    2.4535   -4.3237    8.6673 C   0  0  0  0  0  0  0  0  0  0  0  0
    3.1512   -5.4583    9.0148 C   0  0  0  0  0  0  0  0  0  0  0  0
    3.1783   -6.2778    7.9548 N   0  0  0  0  0  0  0  0  0  0  0  0
  1  2  1  0
  2  3  1  0
  3  4  1  0
  4  5  1  0
  5  6  1  0
  5  7  1  0
  7  8  2  0
  8  9  1  0
  9 10  2  0
 10 11  1  0
 11 12  2  0
 12 13  1  0
 13 14  2  0
 14 15  1  0
  6  1  1  0
 12  7  1  0
 15 11  1  0
M  CHG  1   2   1
M  END
$$$$
