
     RDKit          3D

 15 17  0  0  0  0  0  0  0  0999 V2000
    0.0743   -0.7705    8.5211 C   0  0  0  0  0  0  0  0  0  0  0  0
    0.3016    0.3329    7.6260 N   0  0  0  0  0  4  0  0  0  0  0  0
    0.0386   -0.1122    6.2717 C   0  0  0  0  0  0  0  0  0  0  0  0
    1.1543   -1.1275    5.9649 C   0  0  0  0  0  0  0  0  0  0  0  0
    0.8215   -2.2991    6.7253 N   0  0  0  0  0  0  0  0  0  0  0  0
   -0.0671   -2.1016    7.8710 C   0  0  0  0  0  0  0  0  0  0  0  0
    1.2668   -3.6163    6.4699 C   0  0  0  0  0  0  0  0  0  0  0  0
    1.0375   -4.1968    5.2367 C   0  0  0  0  0  0  0  0  0  0  0  0
    1.4622   -5.4826    4.9495 C   0  0  0  0  0  0  0  0  0  0  0  0
    2.1233   -6.2076    5.8932 C   0  0  0  0  0  0  0  0  0  0  0  0
    2.3685   -5.6653    7.1268 C   0  0  0  0  0  0  0  0  0  0  0  0
    1.9372   -4.3678    7.4093 C   0  0  0  0  0  0  0  0  0  0  0  0
    2.3126   -4.0917    8.6988 C   0  0  0  0  0  0  0  0  0  0  0  0
    2.9594   -5.2065    9.1823 C   0  0  0  0  0  0  0  0  0  0  0  0
    2.9780   -6.1352    8.2165 N   0  0  0  0  0  0  0  0  0  0  0  0
  1  2  1  0
  2  3  1  0
  3  4  1  0
  4  5  1  0
  5  6  1  0
  5  7  1  0
  7  8  2  0
  8  9  1  0
  9 10  2  0
 10 11  1  0
 11 12  2  0
 12 13  1  0
 13 14  2  0
 14 15  1  0
  6  1  1  0
 12  7  1  0
 15 11  1  0
M  CHG  1   2   1
M  END
$$$$
