
     RDKit          3D

 15 17  0  0  0  0  0  0  0  0999 V2000
    0.2168    0.0451    5.9149 C   0  0  0  0  0  0  0  0  0  0  0  0
   -0.5886    0.2504    7.0896 N   0  0  0  0  0  4  0  0  0  0  0  0
   -0.0044   -0.4993    8.1841 C   0  0  0  0  0  0  0  0  0  0  0  0
   -0.2029   -1.9773    7.8022 C   0  0  0  0  0  0  0  0  0  0  0  0
    0.7370   -2.2262    6.7456 N   0  0  0  0  0  0  0  0  0  0  0  0
    1.2139   -1.0555    6.0085 C   0  0  0  0  0  0  0  0  0  0  0  0
    1.2429   -3.4876    6.3563 C   0  0  0  0  0  0  0  0  0  0  0  0
    1.0222   -3.9554    5.0746 C   0  0  0  0  0  0  0  0  0  0  0  0
    1.5055   -5.1835    4.6569 C   0  0  0  0  0  0  0  0  0  0  0  0
    2.2176   -5.9626    5.5166 C   0  0  0  0  0  0  0  0  0  0  0  0
    2.4561   -5.5320    6.7947 C   0  0  0  0  0  0  0  0  0  0  0  0
    1.9655   -4.2922    7.2089 C   0  0  0  0  0  0  0  0  0  0  0  0
    2.3482   -4.1250    8.5149 C   0  0  0  0  0  0  0  0  0  0  0  0
    3.0577   -5.2472    8.8784 C   0  0  0  0  0  0  0  0  0  0  0  0
    3.1063   -6.0747    7.8254 N   0  0  0  0  0  0  0  0  0  0  0  0
  1  2  1  0
  2  3  1  0
  3  4  1  0
  4  5  1  0
  5  6  1  0
  5  7  1  0
  7  8  2  0
  8  9  1  0
  9 10  2  0
 10 11  1  0
 11 12  2  0
 12 13  1  0
 13 14  2  0
 14 15  1  0
  6  1  1  0
 12  7  1  0
 15 11  1  0
M  CHG  1   2   1
M  END
$$$$
