
     RDKit          3D

 15 17  0  0  0  0  0  0  0  0999 V2000
    0.3523   -0.7385    8.4704 C   0  0  0  0  0  0  0  0  0  0  0  0
    0.4909    0.3640    7.5562 N   0  0  0  0  0  4  0  0  0  0  0  0
    0.1512   -0.0974    6.2247 C   0  0  0  0  0  0  0  0  0  0  0  0
    1.2707   -1.0855    5.8504 C   0  0  0  0  0  0  0  0  0  0  0  0
    1.0198   -2.2599    6.6374 N   0  0  0  0  0  0  0  0  0  0  0  0
    0.2036   -2.0775    7.8382 C   0  0  0  0  0  0  0  0  0  0  0  0
    1.4820   -3.5669    6.3604 C   0  0  0  0  0  0  0  0  0  0  0  0
    1.2512   -4.1336    5.1210 C   0  0  0  0  0  0  0  0  0  0  0  0
    1.6921   -5.4091    4.8127 C   0  0  0  0  0  0  0  0  0  0  0  0
    2.3712   -6.1372    5.7411 C   0  0  0  0  0  0  0  0  0  0  0  0
    2.6184   -5.6085    6.9801 C   0  0  0  0  0  0  0  0  0  0  0  0
    2.1707   -4.3214    7.2839 C   0  0  0  0  0  0  0  0  0  0  0  0
    2.5524   -4.0576    8.5742 C   0  0  0  0  0  0  0  0  0  0  0  0
    3.2190   -5.1694    9.0372 C   0  0  0  0  0  0  0  0  0  0  0  0
    3.2433   -6.0845    8.0584 N   0  0  0  0  0  0  0  0  0  0  0  0
  1  2  1  0
  2  3  1  0
  3  4  1  0
  4  5  1  0
  5  6  1  0
  5  7  1  0
  7  8  2  0
  8  9  1  0
  9 10  2  0
 10 11  1  0
 11 12  2  0
 12 13  1  0
 13 14  2  0
 14 15  1  0
  6  1  1  0
 12  7  1  0
 15 11  1  0
M  CHG  1   2   1
M  END
$$$$
