
     RDKit          3D

 15 17  0  0  0  0  0  0  0  0999 V2000
    0.5636    0.0703    6.1019 C   0  0  0  0  0  0  0  0  0  0  0  0
   -0.1050    0.2887    7.3572 N   0  0  0  0  0  4  0  0  0  0  0  0
    0.6032   -0.4434    8.3886 C   0  0  0  0  0  0  0  0  0  0  0  0
    0.3708   -1.9274    8.0513 C   0  0  0  0  0  0  0  0  0  0  0  0
    1.1866   -2.1873    6.8988 N   0  0  0  0  0  0  0  0  0  0  0  0
    1.5708   -1.0251    6.0969 C   0  0  0  0  0  0  0  0  0  0  0  0
    1.6521   -3.4520    6.4716 C   0  0  0  0  0  0  0  0  0  0  0  0
    1.3838   -3.8904    5.1886 C   0  0  0  0  0  0  0  0  0  0  0  0
    1.8266   -5.1207    4.7344 C   0  0  0  0  0  0  0  0  0  0  0  0
    2.5453   -5.9317    5.5584 C   0  0  0  0  0  0  0  0  0  0  0  0
    2.8305   -5.5309    6.8366 C   0  0  0  0  0  0  0  0  0  0  0  0
    2.3806   -4.2886    7.2878 C   0  0  0  0  0  0  0  0  0  0  0  0
    2.8047   -4.1548    8.5848 C   0  0  0  0  0  0  0  0  0  0  0  0
    3.4986   -5.2992    8.9066 C   0  0  0  0  0  0  0  0  0  0  0  0
    3.4978   -6.1074    7.8377 N   0  0  0  0  0  0  0  0  0  0  0  0
  1  2  1  0
  2  3  1  0
  3  4  1  0
  4  5  1  0
  5  6  1  0
  5  7  1  0
  7  8  2  0
  8  9  1  0
  9 10  2  0
 10 11  1  0
 11 12  2  0
 12 13  1  0
 13 14  2  0
 14 15  1  0
  6  1  1  0
 12  7  1  0
 15 11  1  0
M  CHG  1   2   1
M  END
$$$$
