
     RDKit          3D

 15 17  0  0  0  0  0  0  0  0999 V2000
    0.4289   -0.1754    6.0133 C   0  0  0  0  0  0  0  0  0  0  0  0
   -0.3144    0.0317    7.2278 N   0  0  0  0  0  4  0  0  0  0  0  0
    0.3314   -0.7087    8.2938 C   0  0  0  0  0  0  0  0  0  0  0  0
    0.1217   -2.1899    7.9305 C   0  0  0  0  0  0  0  0  0  0  0  0
    1.0058   -2.4392    6.8270 N   0  0  0  0  0  0  0  0  0  0  0  0
    1.4361   -1.2699    6.0596 C   0  0  0  0  0  0  0  0  0  0  0  0
    1.4979   -3.6998    6.4179 C   0  0  0  0  0  0  0  0  0  0  0  0
    1.2569   -4.1528    5.1345 C   0  0  0  0  0  0  0  0  0  0  0  0
    1.7262   -5.3796    4.6978 C   0  0  0  0  0  0  0  0  0  0  0  0
    2.4445   -6.1724    5.5397 C   0  0  0  0  0  0  0  0  0  0  0  0
    2.7030   -5.7566    6.8189 C   0  0  0  0  0  0  0  0  0  0  0  0
    2.2264   -4.5180    7.2524 C   0  0  0  0  0  0  0  0  0  0  0  0
    2.6277   -4.3669    8.5548 C   0  0  0  0  0  0  0  0  0  0  0  0
    3.3344   -5.4975    8.8971 C   0  0  0  0  0  0  0  0  0  0  0  0
    3.3633   -6.3143    7.8351 N   0  0  0  0  0  0  0  0  0  0  0  0
  1  2  1  0
  2  3  1  0
  3  4  1  0
  4  5  1  0
  5  6  1  0
  5  7  1  0
  7  8  2  0
  8  9  1  0
  9 10  2  0
 10 11  1  0
 11 12  2  0
 12 13  1  0
 13 14  2  0
 14 15  1  0
  6  1  1  0
 12  7  1  0
 15 11  1  0
M  CHG  1   2   1
M  END
$$$$
