
     RDKit          3D

 15 17  0  0  0  0  0  0  0  0999 V2000
    0.1100   -0.8813    8.5796 C   0  0  0  0  0  0  0  0  0  0  0  0
    0.3280    0.2424    7.7077 N   0  0  0  0  0  4  0  0  0  0  0  0
    0.0791   -0.1793    6.3433 C   0  0  0  0  0  0  0  0  0  0  0  0
    1.2100   -1.1736    6.0237 C   0  0  0  0  0  0  0  0  0  0  0  0
    0.8882   -2.3642    6.7588 N   0  0  0  0  0  0  0  0  0  0  0  0
   -0.0098   -2.2011    7.9026 C   0  0  0  0  0  0  0  0  0  0  0  0
    1.3525   -3.6702    6.4805 C   0  0  0  0  0  0  0  0  0  0  0  0
    1.1409   -4.2282    5.2338 C   0  0  0  0  0  0  0  0  0  0  0  0
    1.5844   -5.5024    4.9242 C   0  0  0  0  0  0  0  0  0  0  0  0
    2.2471   -6.2380    5.8584 C   0  0  0  0  0  0  0  0  0  0  0  0
    2.4752   -5.7180    7.1049 C   0  0  0  0  0  0  0  0  0  0  0  0
    2.0249   -4.4321    7.4100 C   0  0  0  0  0  0  0  0  0  0  0  0
    2.3861   -4.1777    8.7080 C   0  0  0  0  0  0  0  0  0  0  0  0
    3.0433   -5.2938    9.1742 C   0  0  0  0  0  0  0  0  0  0  0  0
    3.0817   -6.2023    8.1899 N   0  0  0  0  0  0  0  0  0  0  0  0
  1  2  1  0
  2  3  1  0
  3  4  1  0
  4  5  1  0
  5  6  1  0
  5  7  1  0
  7  8  2  0
  8  9  1  0
  9 10  2  0
 10 11  1  0
 11 12  2  0
 12 13  1  0
 13 14  2  0
 14 15  1  0
  6  1  1  0
 12  7  1  0
 15 11  1  0
M  CHG  1   2   1
M  END
$$$$
