
     RDKit          3D

 15 17  0  0  0  0  0  0  0  0999 V2000
    1.4073    0.1285    6.8454 C   0  0  0  0  0  0  0  0  0  0  0  0
    0.0335    0.3433    7.2155 N   0  0  0  0  0  4  0  0  0  0  0  0
   -0.3902   -0.7517    8.0656 C   0  0  0  0  0  0  0  0  0  0  0  0
   -0.4000   -1.9861    7.1459 C   0  0  0  0  0  0  0  0  0  0  0  0
    0.9821   -2.3072    6.9261 N   0  0  0  0  0  0  0  0  0  0  0  0
    1.9447   -1.2267    7.1439 C   0  0  0  0  0  0  0  0  0  0  0  0
    1.4958   -3.5617    6.5249 C   0  0  0  0  0  0  0  0  0  0  0  0
    1.2132   -4.0535    5.2645 C   0  0  0  0  0  0  0  0  0  0  0  0
    1.7018   -5.2756    4.8359 C   0  0  0  0  0  0  0  0  0  0  0  0
    2.4813   -6.0248    5.6631 C   0  0  0  0  0  0  0  0  0  0  0  0
    2.7824   -5.5698    6.9194 C   0  0  0  0  0  0  0  0  0  0  0  0
    2.2860   -4.3362    7.3448 C   0  0  0  0  0  0  0  0  0  0  0  0
    2.7391   -4.1406    8.6241 C   0  0  0  0  0  0  0  0  0  0  0  0
    3.4959   -5.2401    8.9607 C   0  0  0  0  0  0  0  0  0  0  0  0
    3.5042   -6.0816    7.9178 N   0  0  0  0  0  0  0  0  0  0  0  0
  1  2  1  0
  2  3  1  0
  3  4  1  0
  4  5  1  0
  5  6  1  0
  5  7  1  0
  7  8  2  0
  8  9  1  0
  9 10  2  0
 10 11  1  0
 11 12  2  0
 12 13  1  0
 13 14  2  0
 14 15  1  0
  6  1  1  0
 12  7  1  0
 15 11  1  0
M  CHG  1   2   1
M  END
$$$$
