
     RDKit          3D

 15 17  0  0  0  0  0  0  0  0999 V2000
    0.1957   -0.7905    8.4949 C   0  0  0  0  0  0  0  0  0  0  0  0
    0.3685    0.2883    7.5585 N   0  0  0  0  0  4  0  0  0  0  0  0
    0.0309   -0.1943    6.2340 C   0  0  0  0  0  0  0  0  0  0  0  0
    1.1308   -1.2158    5.8925 C   0  0  0  0  0  0  0  0  0  0  0  0
    0.8452   -2.3666    6.7022 N   0  0  0  0  0  0  0  0  0  0  0  0
    0.0221   -2.1392    7.8905 C   0  0  0  0  0  0  0  0  0  0  0  0
    1.2796   -3.6896    6.4582 C   0  0  0  0  0  0  0  0  0  0  0  0
    1.0372   -4.2821    5.2332 C   0  0  0  0  0  0  0  0  0  0  0  0
    1.4509   -5.5739    4.9572 C   0  0  0  0  0  0  0  0  0  0  0  0
    2.1142   -6.2929    5.9039 C   0  0  0  0  0  0  0  0  0  0  0  0
    2.3724   -5.7387    7.1296 C   0  0  0  0  0  0  0  0  0  0  0  0
    1.9520   -4.4352    7.4008 C   0  0  0  0  0  0  0  0  0  0  0  0
    2.3390   -4.1475    8.6843 C   0  0  0  0  0  0  0  0  0  0  0  0
    2.9818   -5.2612    9.1754 C   0  0  0  0  0  0  0  0  0  0  0  0
    2.9868   -6.2007    8.2198 N   0  0  0  0  0  0  0  0  0  0  0  0
  1  2  1  0
  2  3  1  0
  3  4  1  0
  4  5  1  0
  5  6  1  0
  5  7  1  0
  7  8  2  0
  8  9  1  0
  9 10  2  0
 10 11  1  0
 11 12  2  0
 12 13  1  0
 13 14  2  0
 14 15  1  0
  6  1  1  0
 12  7  1  0
 15 11  1  0
M  CHG  1   2   1
M  END
$$$$
