
     RDKit          3D

 15 17  0  0  0  0  0  0  0  0999 V2000
    1.0850   -0.4852    8.0191 C   0  0  0  0  0  0  0  0  0  0  0  0
   -0.0260    0.1628    7.3740 N   0  0  0  0  0  4  0  0  0  0  0  0
   -1.0283   -0.8390    7.0686 C   0  0  0  0  0  0  0  0  0  0  0  0
   -0.3849   -1.7260    5.9873 C   0  0  0  0  0  0  0  0  0  0  0  0
    0.6050   -2.5060    6.6753 N   0  0  0  0  0  0  0  0  0  0  0  0
    1.0851   -1.9717    7.9502 C   0  0  0  0  0  0  0  0  0  0  0  0
    1.1524   -3.7346    6.2401 C   0  0  0  0  0  0  0  0  0  0  0  0
    0.9992   -4.1329    4.9255 C   0  0  0  0  0  0  0  0  0  0  0  0
    1.5246   -5.3270    4.4629 C   0  0  0  0  0  0  0  0  0  0  0  0
    2.2121   -6.1414    5.3098 C   0  0  0  0  0  0  0  0  0  0  0  0
    2.3840   -5.7798    6.6197 C   0  0  0  0  0  0  0  0  0  0  0  0
    1.8511   -4.5739    7.0792 C   0  0  0  0  0  0  0  0  0  0  0  0
    2.1710   -4.4744    8.4088 C   0  0  0  0  0  0  0  0  0  0  0  0
    2.8849   -5.6032    8.7416 C   0  0  0  0  0  0  0  0  0  0  0  0
    2.9973   -6.3689    7.6476 N   0  0  0  0  0  0  0  0  0  0  0  0
  1  2  1  0
  2  3  1  0
  3  4  1  0
  4  5  1  0
  5  6  1  0
  5  7  1  0
  7  8  2  0
  8  9  1  0
  9 10  2  0
 10 11  1  0
 11 12  2  0
 12 13  1  0
 13 14  2  0
 14 15  1  0
  6  1  1  0
 12  7  1  0
 15 11  1  0
M  CHG  1   2   1
M  END
$$$$
