
     RDKit          3D

 15 17  0  0  0  0  0  0  0  0999 V2000
    0.3034   -0.7169    8.4225 C   0  0  0  0  0  0  0  0  0  0  0  0
    0.4172    0.3933    7.5142 N   0  0  0  0  0  4  0  0  0  0  0  0
    0.0900   -0.0691    6.1799 C   0  0  0  0  0  0  0  0  0  0  0  0
    1.2330   -1.0287    5.8021 C   0  0  0  0  0  0  0  0  0  0  0  0
    1.0088   -2.2126    6.5827 N   0  0  0  0  0  0  0  0  0  0  0  0
    0.1871   -2.0557    7.7833 C   0  0  0  0  0  0  0  0  0  0  0  0
    1.5020   -3.5069    6.2996 C   0  0  0  0  0  0  0  0  0  0  0  0
    1.3070   -4.0630    5.0493 C   0  0  0  0  0  0  0  0  0  0  0  0
    1.7789   -5.3257    4.7349 C   0  0  0  0  0  0  0  0  0  0  0  0
    2.4536   -6.0518    5.6680 C   0  0  0  0  0  0  0  0  0  0  0  0
    2.6658   -5.5335    6.9179 C   0  0  0  0  0  0  0  0  0  0  0  0
    2.1869   -4.2591    7.2278 C   0  0  0  0  0  0  0  0  0  0  0  0
    2.5377   -4.0038    8.5285 C   0  0  0  0  0  0  0  0  0  0  0  0
    3.2168   -5.1080    8.9916 C   0  0  0  0  0  0  0  0  0  0  0  0
    3.2784   -6.0104    8.0028 N   0  0  0  0  0  0  0  0  0  0  0  0
  1  2  1  0
  2  3  1  0
  3  4  1  0
  4  5  1  0
  5  6  1  0
  5  7  1  0
  7  8  2  0
  8  9  1  0
  9 10  2  0
 10 11  1  0
 11 12  2  0
 12 13  1  0
 13 14  2  0
 14 15  1  0
  6  1  1  0
 12  7  1  0
 15 11  1  0
M  CHG  1   2   1
M  END
$$$$
