
     RDKit          3D

 43 49  0  0  0  0  0  0  0  0999 V2000
   -0.7826   -4.6585    9.5908 C   0  0  0  0  0  0  0  0  0  0  0  0
   -0.5210   -3.1456    9.6830 C   0  0  0  0  0  0  0  0  0  0  0  0
    0.2056   -2.8929   10.9575 C   0  0  0  0  0  0  0  0  0  0  0  0
    0.4588   -1.4062   11.2255 C   0  0  0  0  0  0  0  0  0  0  0  0
   -0.1435   -0.9859   12.4844 N   0  0  0  0  0  0  0  0  0  0  0  0
    0.2552   -1.3892   13.7314 C   0  0  0  0  0  0  0  0  0  0  0  0
   -0.5697   -0.8413   14.6727 C   0  0  0  0  0  0  0  0  0  0  0  0
   -1.4738   -0.0953   13.9662 N   0  0  0  0  0  0  0  0  0  0  0  0
   -1.2032   -0.1925   12.6623 C   0  0  0  0  0  0  0  0  0  0  0  0
   -1.9881    0.5108   11.6496 C   0  0  0  0  0  0  0  0  0  0  0  0
   -2.1415   -0.0034   10.3656 C   0  0  0  0  0  0  0  0  0  0  0  0
   -2.8661    0.6087    9.3783 C   0  0  0  0  0  0  0  0  0  0  0  0
   -3.4737    1.8035    9.6895 C   0  0  0  0  0  0  0  0  0  0  0  0
   -3.3411    2.3465   10.9643 C   0  0  0  0  0  0  0  0  0  0  0  0
   -2.6052    1.7003   11.9256 C   0  0  0  0  0  0  0  0  0  0  0  0
   -0.6303   -0.9871   16.1298 C   0  0  0  0  0  0  0  0  0  0  0  0
    0.5396   -0.6248   16.8379 C   0  0  0  0  0  0  0  0  0  0  0  0
    0.5971   -0.7502   18.1962 C   0  0  0  0  0  0  0  0  0  0  0  0
   -0.5141   -1.2390   18.8599 C   0  0  0  0  0  0  0  0  0  0  0  0
   -1.6507   -1.5928   18.1843 C   0  0  0  0  0  0  0  0  0  0  0  0
   -1.6907   -1.4607   16.8203 C   0  0  0  0  0  0  0  0  0  0  0  0
    1.3748   -2.3220   13.9991 C   0  0  0  0  0  0  0  0  0  0  0  0
    2.6722   -1.8851   13.7745 N   0  0  0  0  0  0  0  0  0  0  0  0
    3.8228   -2.6132   13.8490 C   0  0  0  0  0  0  0  0  0  0  0  0
    4.3634   -3.4027   12.7652 C   0  0  0  0  0  0  0  0  0  0  0  0
    5.4323   -2.8894   12.0265 C   0  0  0  0  0  0  0  0  0  0  0  0
    5.9959   -3.5763   10.9876 C   0  0  0  0  0  0  0  0  0  0  0  0
    5.5248   -4.8228   10.6210 C   0  0  0  0  0  0  0  0  0  0  0  0
    4.4843   -5.3470   11.3234 C   0  0  0  0  0  0  0  0  0  0  0  0
    3.9287   -4.6469   12.3631 C   0  0  0  0  0  0  0  0  0  0  0  0
    6.2898   -5.2811    9.5325 O   0  0  0  0  0  0  0  0  0  0  0  0
    7.4451   -4.4474    9.4338 C   0  0  0  0  0  0  0  0  0  0  0  0
    7.0444   -3.2648   10.1329 O   0  0  0  0  0  0  0  0  0  0  0  0
    2.7950   -0.4709   13.4892 C   0  0  0  0  0  0  0  0  0  0  0  0
    2.8249    0.3699   14.7025 C   0  0  0  0  0  0  0  0  0  0  0  0
    1.8430    1.3328   14.8961 C   0  0  0  0  0  0  0  0  0  0  0  0
    1.8232    2.1450   16.0004 C   0  0  0  0  0  0  0  0  0  0  0  0
    2.8035    2.0207   16.9686 C   0  0  0  0  0  0  0  0  0  0  0  0
    3.7912    1.0746   16.8048 C   0  0  0  0  0  0  0  0  0  0  0  0
    3.8105    0.2546   15.6894 C   0  0  0  0  0  0  0  0  0  0  0  0
    2.4850    2.9780   17.9265 O   0  0  0  0  0  0  0  0  0  0  0  0
    1.3015    3.6545   17.5988 C   0  0  0  0  0  0  0  0  0  0  0  0
    0.9301    3.1476   16.3525 O   0  0  0  0  0  0  0  0  0  0  0  0
  1  2  1  0
  2  3  1  0
  3  4  1  0
  4  5  1  0
  5  6  1  0
  6  7  2  0
  7  8  1  0
  8  9  2  0
  9 10  1  0
 10 11  2  0
 11 12  1  0
 12 13  2  0
 13 14  1  0
 14 15  2  0
  7 16  1  0
 16 17  2  0
 17 18  1  0
 18 19  2  0
 19 20  1  0
 20 21  2  0
  6 22  1  0
 22 23  1  0
 23 24  1  0
 24 25  1  0
 25 26  2  0
 26 27  1  0
 27 28  2  0
 28 29  1  0
 29 30  2  0
 28 31  1  0
 31 32  1  0
 32 33  1  0
 23 34  1  0
 34 35  1  0
 35 36  2  0
 36 37  1  0
 37 38  2  0
 38 39  1  0
 39 40  2  0
 38 41  1  0
 41 42  1  0
 42 43  1  0
  9  5  1  0
 15 10  1  0
 21 16  1  0
 30 25  1  0
 33 27  1  0
 40 35  1  0
 43 37  1  0
M  END
$$$$
