
     RDKit          3D

 43 49  0  0  0  0  0  0  0  0999 V2000
    8.1731   -3.1245    9.0373 C   0  0  0  0  0  0  0  0  0  0  0  0
    6.7674   -2.9581    8.4357 C   0  0  0  0  0  0  0  0  0  0  0  0
    5.7956   -2.9454    9.5633 C   0  0  0  0  0  0  0  0  0  0  0  0
    4.3354   -2.8929    9.1034 C   0  0  0  0  0  0  0  0  0  0  0  0
    3.4226   -2.9028   10.2397 N   0  0  0  0  0  0  0  0  0  0  0  0
    2.6800   -3.9765   10.6550 C   0  0  0  0  0  0  0  0  0  0  0  0
    1.8977   -3.6075   11.7125 C   0  0  0  0  0  0  0  0  0  0  0  0
    2.1869   -2.2874   11.9288 N   0  0  0  0  0  0  0  0  0  0  0  0
    3.0995   -1.8844   11.0413 C   0  0  0  0  0  0  0  0  0  0  0  0
    3.6256   -0.5208   11.0299 C   0  0  0  0  0  0  0  0  0  0  0  0
    4.9268   -0.2428   11.4372 C   0  0  0  0  0  0  0  0  0  0  0  0
    5.4739    1.0122   11.4453 C   0  0  0  0  0  0  0  0  0  0  0  0
    4.6769    2.0511   11.0223 C   0  0  0  0  0  0  0  0  0  0  0  0
    3.3703    1.8087   10.6080 C   0  0  0  0  0  0  0  0  0  0  0  0
    2.8602    0.5348   10.6154 C   0  0  0  0  0  0  0  0  0  0  0  0
    0.8883   -4.3341   12.4879 C   0  0  0  0  0  0  0  0  0  0  0  0
    0.3046   -3.6245   13.5637 C   0  0  0  0  0  0  0  0  0  0  0  0
   -0.6255   -4.2203   14.3664 C   0  0  0  0  0  0  0  0  0  0  0  0
   -0.9811   -5.5308   14.1015 C   0  0  0  0  0  0  0  0  0  0  0  0
   -0.4220   -6.2263   13.0636 C   0  0  0  0  0  0  0  0  0  0  0  0
    0.5107   -5.6125   12.2681 C   0  0  0  0  0  0  0  0  0  0  0  0
    2.6913   -5.3106   10.0105 C   0  0  0  0  0  0  0  0  0  0  0  0
    3.4306   -5.4814    8.8490 N   0  0  0  0  0  0  0  0  0  0  0  0
    3.5910   -6.6241    8.1222 C   0  0  0  0  0  0  0  0  0  0  0  0
    3.7707   -7.9395    8.6944 C   0  0  0  0  0  0  0  0  0  0  0  0
    3.3364   -9.0532    7.9714 C   0  0  0  0  0  0  0  0  0  0  0  0
    3.4712  -10.3279    8.4467 C   0  0  0  0  0  0  0  0  0  0  0  0
    4.0502  -10.5696    9.6780 C   0  0  0  0  0  0  0  0  0  0  0  0
    4.4823   -9.5032   10.4039 C   0  0  0  0  0  0  0  0  0  0  0  0
    4.3407   -8.2302    9.9148 C   0  0  0  0  0  0  0  0  0  0  0  0
    4.0531  -11.9594    9.8991 O   0  0  0  0  0  0  0  0  0  0  0  0
    3.7618  -12.5963    8.6545 C   0  0  0  0  0  0  0  0  0  0  0  0
    3.1182  -11.5580    7.9090 O   0  0  0  0  0  0  0  0  0  0  0  0
    4.1565   -4.3068    8.4139 C   0  0  0  0  0  0  0  0  0  0  0  0
    3.6932   -3.7809    7.1144 C   0  0  0  0  0  0  0  0  0  0  0  0
    3.6651   -2.4094    6.8981 C   0  0  0  0  0  0  0  0  0  0  0  0
    3.2400   -1.8645    5.7140 C   0  0  0  0  0  0  0  0  0  0  0  0
    2.8199   -2.6878    4.6848 C   0  0  0  0  0  0  0  0  0  0  0  0
    2.8361   -4.0528    4.8691 C   0  0  0  0  0  0  0  0  0  0  0  0
    3.2655   -4.6024    6.0651 C   0  0  0  0  0  0  0  0  0  0  0  0
    2.4655   -1.8221    3.6550 O   0  0  0  0  0  0  0  0  0  0  0  0
    2.7067   -0.4860    4.0049 C   0  0  0  0  0  0  0  0  0  0  0  0
    3.1466   -0.5342    5.3287 O   0  0  0  0  0  0  0  0  0  0  0  0
  1  2  1  0
  2  3  1  0
  3  4  1  0
  4  5  1  0
  5  6  1  0
  6  7  2  0
  7  8  1  0
  8  9  2  0
  9 10  1  0
 10 11  2  0
 11 12  1  0
 12 13  2  0
 13 14  1  0
 14 15  2  0
  7 16  1  0
 16 17  2  0
 17 18  1  0
 18 19  2  0
 19 20  1  0
 20 21  2  0
  6 22  1  0
 22 23  1  0
 23 24  1  0
 24 25  1  0
 25 26  2  0
 26 27  1  0
 27 28  2  0
 28 29  1  0
 29 30  2  0
 28 31  1  0
 31 32  1  0
 32 33  1  0
 23 34  1  0
 34 35  1  0
 35 36  2  0
 36 37  1  0
 37 38  2  0
 38 39  1  0
 39 40  2  0
 38 41  1  0
 41 42  1  0
 42 43  1  0
  9  5  1  0
 15 10  1  0
 21 16  1  0
 30 25  1  0
 33 27  1  0
 40 35  1  0
 43 37  1  0
M  END
$$$$
