
     RDKit          3D

 43 49  0  0  0  0  0  0  0  0999 V2000
   -3.8668   -1.4939   15.2187 C   0  0  0  0  0  0  0  0  0  0  0  0
   -2.4265   -1.6047   15.7469 C   0  0  0  0  0  0  0  0  0  0  0  0
   -1.5245   -1.0224   14.7157 C   0  0  0  0  0  0  0  0  0  0  0  0
   -0.0451   -1.0682   15.1100 C   0  0  0  0  0  0  0  0  0  0  0  0
    0.8007   -0.5273   14.0533 N   0  0  0  0  0  0  0  0  0  0  0  0
    1.3537   -1.2489   13.0285 C   0  0  0  0  0  0  0  0  0  0  0  0
    2.1309   -0.4282   12.2612 C   0  0  0  0  0  0  0  0  0  0  0  0
    2.0323    0.8063   12.8437 N   0  0  0  0  0  0  0  0  0  0  0  0
    1.2336    0.7281   13.9110 C   0  0  0  0  0  0  0  0  0  0  0  0
    0.9185    1.8937   14.7347 C   0  0  0  0  0  0  0  0  0  0  0  0
    0.6158    1.7649   16.0868 C   0  0  0  0  0  0  0  0  0  0  0  0
    0.3162    2.8192   16.9072 C   0  0  0  0  0  0  0  0  0  0  0  0
    0.3185    4.0759   16.3465 C   0  0  0  0  0  0  0  0  0  0  0  0
    0.6169    4.2411   14.9970 C   0  0  0  0  0  0  0  0  0  0  0  0
    0.9121    3.1569   14.2092 C   0  0  0  0  0  0  0  0  0  0  0  0
    2.9822   -0.6882   11.0968 C   0  0  0  0  0  0  0  0  0  0  0  0
    2.9613   -2.0116   10.5972 C   0  0  0  0  0  0  0  0  0  0  0  0
    3.7402   -2.3656    9.5332 C   0  0  0  0  0  0  0  0  0  0  0  0
    4.5475   -1.4003    8.9582 C   0  0  0  0  0  0  0  0  0  0  0  0
    4.5755   -0.1172    9.4342 C   0  0  0  0  0  0  0  0  0  0  0  0
    3.7871    0.2205   10.5037 C   0  0  0  0  0  0  0  0  0  0  0  0
    1.1739   -2.7060   12.8291 C   0  0  0  0  0  0  0  0  0  0  0  0
    1.7271   -3.5771   13.7563 N   0  0  0  0  0  0  0  0  0  0  0  0
    2.8819   -3.4194   14.4642 C   0  0  0  0  0  0  0  0  0  0  0  0
    4.1602   -3.9743   14.0793 C   0  0  0  0  0  0  0  0  0  0  0  0
    4.8904   -3.3447   13.0683 C   0  0  0  0  0  0  0  0  0  0  0  0
    6.1056   -3.8106   12.6496 C   0  0  0  0  0  0  0  0  0  0  0  0
    6.6683   -4.9381   13.2170 C   0  0  0  0  0  0  0  0  0  0  0  0
    5.9789   -5.5715   14.2041 C   0  0  0  0  0  0  0  0  0  0  0  0
    4.7610   -5.0931   14.6140 C   0  0  0  0  0  0  0  0  0  0  0  0
    7.9066   -5.1754   12.5921 O   0  0  0  0  0  0  0  0  0  0  0  0
    8.2518   -4.0016   11.8555 C   0  0  0  0  0  0  0  0  0  0  0  0
    6.9882   -3.3528   11.6810 O   0  0  0  0  0  0  0  0  0  0  0  0
    1.0044   -4.8199   13.9273 C   0  0  0  0  0  0  0  0  0  0  0  0
    1.0667   -5.7003   12.7437 C   0  0  0  0  0  0  0  0  0  0  0  0
   -0.0856   -5.9473   12.0090 C   0  0  0  0  0  0  0  0  0  0  0  0
   -0.0884   -6.7598   10.9047 C   0  0  0  0  0  0  0  0  0  0  0  0
    1.0834   -7.3655   10.4882 C   0  0  0  0  0  0  0  0  0  0  0  0
    2.2431   -7.1399   11.1965 C   0  0  0  0  0  0  0  0  0  0  0  0
    2.2453   -6.3193   12.3117 C   0  0  0  0  0  0  0  0  0  0  0  0
    0.7262   -8.1025    9.3636 O   0  0  0  0  0  0  0  0  0  0  0  0
   -0.6274   -7.9241    9.0447 C   0  0  0  0  0  0  0  0  0  0  0  0
   -1.1333   -7.1135   10.0621 O   0  0  0  0  0  0  0  0  0  0  0  0
  1  2  1  0
  2  3  1  0
  3  4  1  0
  4  5  1  0
  5  6  1  0
  6  7  2  0
  7  8  1  0
  8  9  2  0
  9 10  1  0
 10 11  2  0
 11 12  1  0
 12 13  2  0
 13 14  1  0
 14 15  2  0
  7 16  1  0
 16 17  2  0
 17 18  1  0
 18 19  2  0
 19 20  1  0
 20 21  2  0
  6 22  1  0
 22 23  1  0
 23 24  1  0
 24 25  1  0
 25 26  2  0
 26 27  1  0
 27 28  2  0
 28 29  1  0
 29 30  2  0
 28 31  1  0
 31 32  1  0
 32 33  1  0
 23 34  1  0
 34 35  1  0
 35 36  2  0
 36 37  1  0
 37 38  2  0
 38 39  1  0
 39 40  2  0
 38 41  1  0
 41 42  1  0
 42 43  1  0
  9  5  1  0
 15 10  1  0
 21 16  1  0
 30 25  1  0
 33 27  1  0
 40 35  1  0
 43 37  1  0
M  END
$$$$
