
     RDKit          3D

 43 49  0  0  0  0  0  0  0  0999 V2000
    1.0168   -4.5198   17.0067 C   0  0  0  0  0  0  0  0  0  0  0  0
    1.2280   -3.0065   16.8298 C   0  0  0  0  0  0  0  0  0  0  0  0
    0.7949   -2.6513   15.4506 C   0  0  0  0  0  0  0  0  0  0  0  0
    1.2739   -1.2669   15.0033 C   0  0  0  0  0  0  0  0  0  0  0  0
    0.7514   -0.9268   13.6858 N   0  0  0  0  0  0  0  0  0  0  0  0
    1.4522   -0.9914   12.5105 C   0  0  0  0  0  0  0  0  0  0  0  0
    0.6656   -0.5460   11.4861 C   0  0  0  0  0  0  0  0  0  0  0  0
   -0.5274   -0.2138   12.0687 N   0  0  0  0  0  0  0  0  0  0  0  0
   -0.4581   -0.4488   13.3814 C   0  0  0  0  0  0  0  0  0  0  0  0
   -1.5884   -0.2082   14.2762 C   0  0  0  0  0  0  0  0  0  0  0  0
   -2.2056    1.0371   14.3451 C   0  0  0  0  0  0  0  0  0  0  0  0
   -3.2681    1.3199   15.1610 C   0  0  0  0  0  0  0  0  0  0  0  0
   -3.7432    0.3012   15.9547 C   0  0  0  0  0  0  0  0  0  0  0  0
   -3.1495   -0.9570   15.9109 C   0  0  0  0  0  0  0  0  0  0  0  0
   -2.0856   -1.1986   15.0785 C   0  0  0  0  0  0  0  0  0  0  0  0
    0.9303   -0.3513   10.0578 C   0  0  0  0  0  0  0  0  0  0  0  0
    0.5565    0.9044    9.5240 C   0  0  0  0  0  0  0  0  0  0  0  0
    0.7337    1.1768    8.1979 C   0  0  0  0  0  0  0  0  0  0  0  0
    1.2862    0.1969    7.3926 C   0  0  0  0  0  0  0  0  0  0  0  0
    1.6508   -1.0214    7.8989 C   0  0  0  0  0  0  0  0  0  0  0  0
    1.4652   -1.2779    9.2328 C   0  0  0  0  0  0  0  0  0  0  0  0
    2.8639   -1.4252   12.3923 C   0  0  0  0  0  0  0  0  0  0  0  0
    3.1284   -2.7571   12.1082 N   0  0  0  0  0  0  0  0  0  0  0  0
    2.2965   -3.8258   12.2678 C   0  0  0  0  0  0  0  0  0  0  0  0
    2.6242   -5.0119   13.0267 C   0  0  0  0  0  0  0  0  0  0  0  0
    2.3974   -6.2640   12.4502 C   0  0  0  0  0  0  0  0  0  0  0  0
    2.6809   -7.4297   13.1057 C   0  0  0  0  0  0  0  0  0  0  0  0
    3.2104   -7.4165   14.3821 C   0  0  0  0  0  0  0  0  0  0  0  0
    3.4416   -6.2106   14.9681 C   0  0  0  0  0  0  0  0  0  0  0  0
    3.1524   -5.0494   14.2988 C   0  0  0  0  0  0  0  0  0  0  0  0
    3.3957   -8.7484   14.7968 O   0  0  0  0  0  0  0  0  0  0  0  0
    3.2753   -9.5817   13.6432 C   0  0  0  0  0  0  0  0  0  0  0  0
    2.5393   -8.7592   12.7324 O   0  0  0  0  0  0  0  0  0  0  0  0
    4.4749   -3.0231   11.6471 C   0  0  0  0  0  0  0  0  0  0  0  0
    4.6140   -2.9571   10.1787 C   0  0  0  0  0  0  0  0  0  0  0  0
    4.9606   -1.7559    9.5741 C   0  0  0  0  0  0  0  0  0  0  0  0
    5.0990   -1.6344    8.2155 C   0  0  0  0  0  0  0  0  0  0  0  0
    4.8916   -2.7309    7.3980 C   0  0  0  0  0  0  0  0  0  0  0  0
    4.5465   -3.9365    7.9682 C   0  0  0  0  0  0  0  0  0  0  0  0
    4.4069   -4.0584    9.3402 C   0  0  0  0  0  0  0  0  0  0  0  0
    5.1109   -2.2621    6.1066 O   0  0  0  0  0  0  0  0  0  0  0  0
    5.5005   -0.9153    6.1114 C   0  0  0  0  0  0  0  0  0  0  0  0
    5.4354   -0.5262    7.4503 O   0  0  0  0  0  0  0  0  0  0  0  0
  1  2  1  0
  2  3  1  0
  3  4  1  0
  4  5  1  0
  5  6  1  0
  6  7  2  0
  7  8  1  0
  8  9  2  0
  9 10  1  0
 10 11  2  0
 11 12  1  0
 12 13  2  0
 13 14  1  0
 14 15  2  0
  7 16  1  0
 16 17  2  0
 17 18  1  0
 18 19  2  0
 19 20  1  0
 20 21  2  0
  6 22  1  0
 22 23  1  0
 23 24  1  0
 24 25  1  0
 25 26  2  0
 26 27  1  0
 27 28  2  0
 28 29  1  0
 29 30  2  0
 28 31  1  0
 31 32  1  0
 32 33  1  0
 23 34  1  0
 34 35  1  0
 35 36  2  0
 36 37  1  0
 37 38  2  0
 38 39  1  0
 39 40  2  0
 38 41  1  0
 41 42  1  0
 42 43  1  0
  9  5  1  0
 15 10  1  0
 21 16  1  0
 30 25  1  0
 33 27  1  0
 40 35  1  0
 43 37  1  0
M  END
$$$$
