
     RDKit          3D

 43 49  0  0  0  0  0  0  0  0999 V2000
   -2.7984    1.0886   11.5494 C   0  0  0  0  0  0  0  0  0  0  0  0
   -1.5671    1.6466   12.2832 C   0  0  0  0  0  0  0  0  0  0  0  0
   -0.3771    0.8954   11.7978 C   0  0  0  0  0  0  0  0  0  0  0  0
    0.9367    1.3720   12.4247 C   0  0  0  0  0  0  0  0  0  0  0  0
    0.9593    1.1209   13.8603 N   0  0  0  0  0  0  0  0  0  0  0  0
    1.5511    0.0472   14.4714 C   0  0  0  0  0  0  0  0  0  0  0  0
    1.3261    0.1082   15.8175 C   0  0  0  0  0  0  0  0  0  0  0  0
    0.5876    1.2449   16.0062 N   0  0  0  0  0  0  0  0  0  0  0  0
    0.3795    1.8367   14.8274 C   0  0  0  0  0  0  0  0  0  0  0  0
   -0.3665    3.0877   14.7051 C   0  0  0  0  0  0  0  0  0  0  0  0
    0.0038    4.0652   13.7866 C   0  0  0  0  0  0  0  0  0  0  0  0
   -0.6576    5.2531   13.6257 C   0  0  0  0  0  0  0  0  0  0  0  0
   -1.7526    5.4796   14.4276 C   0  0  0  0  0  0  0  0  0  0  0  0
   -2.1509    4.5232   15.3571 C   0  0  0  0  0  0  0  0  0  0  0  0
   -1.4597    3.3448   15.4866 C   0  0  0  0  0  0  0  0  0  0  0  0
    1.6765   -0.7990   16.9140 C   0  0  0  0  0  0  0  0  0  0  0  0
    1.4288   -0.3165   18.2206 C   0  0  0  0  0  0  0  0  0  0  0  0
    1.7463   -1.0719   19.3127 C   0  0  0  0  0  0  0  0  0  0  0  0
    2.3143   -2.3170   19.1094 C   0  0  0  0  0  0  0  0  0  0  0  0
    2.5586   -2.7930   17.8495 C   0  0  0  0  0  0  0  0  0  0  0  0
    2.2339   -2.0207   16.7643 C   0  0  0  0  0  0  0  0  0  0  0  0
    2.2718   -1.0360   13.7625 C   0  0  0  0  0  0  0  0  0  0  0  0
    1.5342   -1.9657   13.0440 N   0  0  0  0  0  0  0  0  0  0  0  0
    0.6557   -2.8891   13.5289 C   0  0  0  0  0  0  0  0  0  0  0  0
   -0.6044   -2.5673   14.1603 C   0  0  0  0  0  0  0  0  0  0  0  0
   -1.2450   -3.5473   14.9225 C   0  0  0  0  0  0  0  0  0  0  0  0
   -2.4385   -3.3182   15.5488 C   0  0  0  0  0  0  0  0  0  0  0  0
   -3.0679   -2.0917   15.4519 C   0  0  0  0  0  0  0  0  0  0  0  0
   -2.4663   -1.1186   14.7157 C   0  0  0  0  0  0  0  0  0  0  0  0
   -1.2693   -1.3623   14.0930 C   0  0  0  0  0  0  0  0  0  0  0  0
   -4.2641   -2.1500   16.1908 O   0  0  0  0  0  0  0  0  0  0  0  0
   -4.2114   -3.3199   17.0082 C   0  0  0  0  0  0  0  0  0  0  0  0
   -3.2382   -4.1300   16.3414 O   0  0  0  0  0  0  0  0  0  0  0  0
    1.7935   -1.9755   11.6196 C   0  0  0  0  0  0  0  0  0  0  0  0
    3.0931   -2.5804   11.2659 C   0  0  0  0  0  0  0  0  0  0  0  0
    3.2710   -3.9517   11.3946 C   0  0  0  0  0  0  0  0  0  0  0  0
    4.4566   -4.5672   11.0860 C   0  0  0  0  0  0  0  0  0  0  0  0
    5.5266   -3.8188   10.6293 C   0  0  0  0  0  0  0  0  0  0  0  0
    5.3809   -2.4560   10.4911 C   0  0  0  0  0  0  0  0  0  0  0  0
    4.1834   -1.8350   10.8028 C   0  0  0  0  0  0  0  0  0  0  0  0
    6.5457   -4.7419   10.4179 O   0  0  0  0  0  0  0  0  0  0  0  0
    6.1140   -6.0492   10.6830 C   0  0  0  0  0  0  0  0  0  0  0  0
    4.8074   -5.9086   11.1533 O   0  0  0  0  0  0  0  0  0  0  0  0
  1  2  1  0
  2  3  1  0
  3  4  1  0
  4  5  1  0
  5  6  1  0
  6  7  2  0
  7  8  1  0
  8  9  2  0
  9 10  1  0
 10 11  2  0
 11 12  1  0
 12 13  2  0
 13 14  1  0
 14 15  2  0
  7 16  1  0
 16 17  2  0
 17 18  1  0
 18 19  2  0
 19 20  1  0
 20 21  2  0
  6 22  1  0
 22 23  1  0
 23 24  1  0
 24 25  1  0
 25 26  2  0
 26 27  1  0
 27 28  2  0
 28 29  1  0
 29 30  2  0
 28 31  1  0
 31 32  1  0
 32 33  1  0
 23 34  1  0
 34 35  1  0
 35 36  2  0
 36 37  1  0
 37 38  2  0
 38 39  1  0
 39 40  2  0
 38 41  1  0
 41 42  1  0
 42 43  1  0
  9  5  1  0
 15 10  1  0
 21 16  1  0
 30 25  1  0
 33 27  1  0
 40 35  1  0
 43 37  1  0
M  END
$$$$
