
     RDKit          3D

 43 49  0  0  0  0  0  0  0  0999 V2000
   -3.4237   -2.8231   12.1958 C   0  0  0  0  0  0  0  0  0  0  0  0
   -2.3480   -1.7782   11.8539 C   0  0  0  0  0  0  0  0  0  0  0  0
   -1.6464   -1.4263   13.1188 C   0  0  0  0  0  0  0  0  0  0  0  0
   -0.5710   -0.3510   12.9356 C   0  0  0  0  0  0  0  0  0  0  0  0
    0.1298   -0.0857   14.1857 N   0  0  0  0  0  0  0  0  0  0  0  0
    1.1213   -0.8634   14.7231 C   0  0  0  0  0  0  0  0  0  0  0  0
    1.5065   -0.3432   15.9262 C   0  0  0  0  0  0  0  0  0  0  0  0
    0.7274    0.7681   16.1021 N   0  0  0  0  0  0  0  0  0  0  0  0
   -0.0871    0.9066   15.0531 C   0  0  0  0  0  0  0  0  0  0  0  0
   -1.0317    2.0165   14.9418 C   0  0  0  0  0  0  0  0  0  0  0  0
   -1.2315    2.6795   13.7348 C   0  0  0  0  0  0  0  0  0  0  0  0
   -2.1035    3.7221   13.5703 C   0  0  0  0  0  0  0  0  0  0  0  0
   -2.8184    4.1273   14.6741 C   0  0  0  0  0  0  0  0  0  0  0  0
   -2.6433    3.4862   15.8971 C   0  0  0  0  0  0  0  0  0  0  0  0
   -1.7584    2.4445   16.0191 C   0  0  0  0  0  0  0  0  0  0  0  0
    2.4691   -0.8022   16.9316 C   0  0  0  0  0  0  0  0  0  0  0  0
    2.2580   -2.1045   17.4424 C   0  0  0  0  0  0  0  0  0  0  0  0
    3.0811   -2.6161   18.4041 C   0  0  0  0  0  0  0  0  0  0  0  0
    4.1232   -1.8311   18.8645 C   0  0  0  0  0  0  0  0  0  0  0  0
    4.3359   -0.5698   18.3773 C   0  0  0  0  0  0  0  0  0  0  0  0
    3.4992   -0.0719   17.4122 C   0  0  0  0  0  0  0  0  0  0  0  0
    1.6451   -2.1062   14.1098 C   0  0  0  0  0  0  0  0  0  0  0  0
    2.9154   -2.0882   13.5522 N   0  0  0  0  0  0  0  0  0  0  0  0
    4.0109   -2.7971   13.9483 C   0  0  0  0  0  0  0  0  0  0  0  0
    4.0988   -4.2401   13.9404 C   0  0  0  0  0  0  0  0  0  0  0  0
    4.8828   -4.8615   12.9653 C   0  0  0  0  0  0  0  0  0  0  0  0
    5.0140   -6.2204   12.8934 C   0  0  0  0  0  0  0  0  0  0  0  0
    4.3678   -7.0453   13.7943 C   0  0  0  0  0  0  0  0  0  0  0  0
    3.5974   -6.4670   14.7550 C   0  0  0  0  0  0  0  0  0  0  0  0
    3.4748   -5.1027   14.8152 C   0  0  0  0  0  0  0  0  0  0  0  0
    4.6857   -8.3792   13.4778 O   0  0  0  0  0  0  0  0  0  0  0  0
    5.7890   -8.3579   12.5714 C   0  0  0  0  0  0  0  0  0  0  0  0
    5.7265   -7.0365   12.0255 O   0  0  0  0  0  0  0  0  0  0  0  0
    3.0856   -1.1516   12.4613 C   0  0  0  0  0  0  0  0  0  0  0  0
    3.0136   -1.7854   11.1298 C   0  0  0  0  0  0  0  0  0  0  0  0
    4.0237   -1.5578   10.2043 C   0  0  0  0  0  0  0  0  0  0  0  0
    4.0071   -2.1154    8.9519 C   0  0  0  0  0  0  0  0  0  0  0  0
    2.9596   -2.9359    8.5736 C   0  0  0  0  0  0  0  0  0  0  0  0
    1.9424   -3.1807    9.4697 C   0  0  0  0  0  0  0  0  0  0  0  0
    1.9598   -2.6173   10.7343 C   0  0  0  0  0  0  0  0  0  0  0  0
    3.2572   -3.3194    7.2698 O   0  0  0  0  0  0  0  0  0  0  0  0
    4.4900   -2.7977    6.8527 C   0  0  0  0  0  0  0  0  0  0  0  0
    4.9201   -1.9982    7.9129 O   0  0  0  0  0  0  0  0  0  0  0  0
  1  2  1  0
  2  3  1  0
  3  4  1  0
  4  5  1  0
  5  6  1  0
  6  7  2  0
  7  8  1  0
  8  9  2  0
  9 10  1  0
 10 11  2  0
 11 12  1  0
 12 13  2  0
 13 14  1  0
 14 15  2  0
  7 16  1  0
 16 17  2  0
 17 18  1  0
 18 19  2  0
 19 20  1  0
 20 21  2  0
  6 22  1  0
 22 23  1  0
 23 24  1  0
 24 25  1  0
 25 26  2  0
 26 27  1  0
 27 28  2  0
 28 29  1  0
 29 30  2  0
 28 31  1  0
 31 32  1  0
 32 33  1  0
 23 34  1  0
 34 35  1  0
 35 36  2  0
 36 37  1  0
 37 38  2  0
 38 39  1  0
 39 40  2  0
 38 41  1  0
 41 42  1  0
 42 43  1  0
  9  5  1  0
 15 10  1  0
 21 16  1  0
 30 25  1  0
 33 27  1  0
 40 35  1  0
 43 37  1  0
M  END
$$$$
