
     RDKit          3D

 43 49  0  0  0  0  0  0  0  0999 V2000
    5.3214  -14.5306  -14.5587 C   0  0  0  0  0  0  0  0  0  0  0  0
    4.4923  -14.1980  -13.3066 C   0  0  0  0  0  0  0  0  0  0  0  0
    5.2274  -13.1497  -12.5473 C   0  0  0  0  0  0  0  0  0  0  0  0
    6.0576  -13.7112  -11.3890 C   0  0  0  0  0  0  0  0  0  0  0  0
    6.7413  -12.6475  -10.6641 N   0  0  0  0  0  0  0  0  0  0  0  0
    6.1648  -11.8149   -9.7415 C   0  0  0  0  0  0  0  0  0  0  0  0
    7.0880  -10.9053   -9.3093 C   0  0  0  0  0  0  0  0  0  0  0  0
    8.2361  -11.2092   -9.9893 N   0  0  0  0  0  0  0  0  0  0  0  0
    8.0106  -12.2521  -10.7922 C   0  0  0  0  0  0  0  0  0  0  0  0
    9.0564  -12.8240  -11.6380 C   0  0  0  0  0  0  0  0  0  0  0  0
    8.7768  -13.2953  -12.9171 C   0  0  0  0  0  0  0  0  0  0  0  0
    9.7146  -13.8376  -13.7543 C   0  0  0  0  0  0  0  0  0  0  0  0
   11.0073  -13.9144  -13.2888 C   0  0  0  0  0  0  0  0  0  0  0  0
   11.3222  -13.4523  -12.0142 C   0  0  0  0  0  0  0  0  0  0  0  0
   10.3515  -12.9153  -11.2064 C   0  0  0  0  0  0  0  0  0  0  0  0
    6.9913   -9.7706   -8.3866 C   0  0  0  0  0  0  0  0  0  0  0  0
    7.0413   -8.4860   -8.9771 C   0  0  0  0  0  0  0  0  0  0  0  0
    6.9882   -7.3624   -8.2031 C   0  0  0  0  0  0  0  0  0  0  0  0
    6.8846   -7.5120   -6.8316 C   0  0  0  0  0  0  0  0  0  0  0  0
    6.8360   -8.7503   -6.2503 C   0  0  0  0  0  0  0  0  0  0  0  0
    6.8910   -9.8676   -7.0428 C   0  0  0  0  0  0  0  0  0  0  0  0
    4.7429  -11.8682   -9.3285 C   0  0  0  0  0  0  0  0  0  0  0  0
    4.3799  -12.7317   -8.3051 N   0  0  0  0  0  0  0  0  0  0  0  0
    3.5878  -13.8386   -8.3886 C   0  0  0  0  0  0  0  0  0  0  0  0
    2.1450  -13.8213   -8.2986 C   0  0  0  0  0  0  0  0  0  0  0  0
    1.4201  -13.0957   -9.2471 C   0  0  0  0  0  0  0  0  0  0  0  0
    0.0547  -13.0314   -9.2269 C   0  0  0  0  0  0  0  0  0  0  0  0
   -0.6735  -13.6903   -8.2546 C   0  0  0  0  0  0  0  0  0  0  0  0
    0.0069  -14.4049   -7.3179 C   0  0  0  0  0  0  0  0  0  0  0  0
    1.3765  -14.4606   -7.3503 C   0  0  0  0  0  0  0  0  0  0  0  0
   -2.0400  -13.4455   -8.4848 O   0  0  0  0  0  0  0  0  0  0  0  0
   -2.1659  -12.8923   -9.7954 C   0  0  0  0  0  0  0  0  0  0  0  0
   -0.8534  -12.3835  -10.0530 O   0  0  0  0  0  0  0  0  0  0  0  0
    4.8627  -12.3544   -6.9934 C   0  0  0  0  0  0  0  0  0  0  0  0
    5.7715  -13.3526   -6.3953 C   0  0  0  0  0  0  0  0  0  0  0  0
    7.0504  -12.9737   -6.0087 C   0  0  0  0  0  0  0  0  0  0  0  0
    7.9384  -13.8583   -5.4530 C   0  0  0  0  0  0  0  0  0  0  0  0
    7.5717  -15.1782   -5.2607 C   0  0  0  0  0  0  0  0  0  0  0  0
    6.3095  -15.5845   -5.6342 C   0  0  0  0  0  0  0  0  0  0  0  0
    5.4133  -14.6907   -6.1953 C   0  0  0  0  0  0  0  0  0  0  0  0
    8.6879  -15.7810   -4.6896 O   0  0  0  0  0  0  0  0  0  0  0  0
    9.7166  -14.8527   -4.4760 C   0  0  0  0  0  0  0  0  0  0  0  0
    9.2395  -13.6562   -5.0137 O   0  0  0  0  0  0  0  0  0  0  0  0
  1  2  1  0
  2  3  1  0
  3  4  1  0
  4  5  1  0
  5  6  1  0
  6  7  2  0
  7  8  1  0
  8  9  2  0
  9 10  1  0
 10 11  2  0
 11 12  1  0
 12 13  2  0
 13 14  1  0
 14 15  2  0
  7 16  1  0
 16 17  2  0
 17 18  1  0
 18 19  2  0
 19 20  1  0
 20 21  2  0
  6 22  1  0
 22 23  1  0
 23 24  1  0
 24 25  1  0
 25 26  2  0
 26 27  1  0
 27 28  2  0
 28 29  1  0
 29 30  2  0
 28 31  1  0
 31 32  1  0
 32 33  1  0
 23 34  1  0
 34 35  1  0
 35 36  2  0
 36 37  1  0
 37 38  2  0
 38 39  1  0
 39 40  2  0
 38 41  1  0
 41 42  1  0
 42 43  1  0
  9  5  1  0
 15 10  1  0
 21 16  1  0
 30 25  1  0
 33 27  1  0
 40 35  1  0
 43 37  1  0
M  END
$$$$
