
     RDKit          3D

 43 49  0  0  0  0  0  0  0  0999 V2000
   -1.8386   -1.8933    9.8717 C   0  0  0  0  0  0  0  0  0  0  0  0
   -2.0394   -1.6650   11.3795 C   0  0  0  0  0  0  0  0  0  0  0  0
   -0.8796   -2.2768   12.0842 C   0  0  0  0  0  0  0  0  0  0  0  0
   -1.0442   -2.3081   13.6068 C   0  0  0  0  0  0  0  0  0  0  0  0
   -0.4956   -1.1064   14.2226 N   0  0  0  0  0  0  0  0  0  0  0  0
    0.8153   -0.9191   14.5736 C   0  0  0  0  0  0  0  0  0  0  0  0
    0.9561    0.2993   15.1753 C   0  0  0  0  0  0  0  0  0  0  0  0
   -0.2989    0.8453   15.1771 N   0  0  0  0  0  0  0  0  0  0  0  0
   -1.1518   -0.0072   14.6036 C   0  0  0  0  0  0  0  0  0  0  0  0
   -2.5710    0.3024   14.4410 C   0  0  0  0  0  0  0  0  0  0  0  0
   -3.4722    0.1425   15.4892 C   0  0  0  0  0  0  0  0  0  0  0  0
   -4.8099    0.4187   15.3964 C   0  0  0  0  0  0  0  0  0  0  0  0
   -5.2766    0.8817   14.1875 C   0  0  0  0  0  0  0  0  0  0  0  0
   -4.4027    1.0534   13.1178 C   0  0  0  0  0  0  0  0  0  0  0  0
   -3.0680    0.7645   13.2530 C   0  0  0  0  0  0  0  0  0  0  0  0
    2.1100    0.9657   15.7856 C   0  0  0  0  0  0  0  0  0  0  0  0
    2.4001    2.2648   15.3063 C   0  0  0  0  0  0  0  0  0  0  0  0
    3.4713    2.9607   15.7884 C   0  0  0  0  0  0  0  0  0  0  0  0
    4.2628    2.3650   16.7542 C   0  0  0  0  0  0  0  0  0  0  0  0
    3.9911    1.1085   17.2244 C   0  0  0  0  0  0  0  0  0  0  0  0
    2.9116    0.4240   16.7286 C   0  0  0  0  0  0  0  0  0  0  0  0
    1.8927   -1.9169   14.3766 C   0  0  0  0  0  0  0  0  0  0  0  0
    2.6546   -1.8527   13.2190 N   0  0  0  0  0  0  0  0  0  0  0  0
    2.2782   -1.3781   11.9972 C   0  0  0  0  0  0  0  0  0  0  0  0
    2.4374   -2.0994   10.7545 C   0  0  0  0  0  0  0  0  0  0  0  0
    3.3191   -1.5985    9.7936 C   0  0  0  0  0  0  0  0  0  0  0  0
    3.5220   -2.2238    8.5950 C   0  0  0  0  0  0  0  0  0  0  0  0
    2.8542   -3.3923    8.2811 C   0  0  0  0  0  0  0  0  0  0  0  0
    1.9892   -3.9029    9.1987 C   0  0  0  0  0  0  0  0  0  0  0  0
    1.7955   -3.2650   10.3968 C   0  0  0  0  0  0  0  0  0  0  0  0
    3.2593   -3.8008    6.9968 O   0  0  0  0  0  0  0  0  0  0  0  0
    4.4225   -3.0483    6.6501 C   0  0  0  0  0  0  0  0  0  0  0  0
    4.3344   -1.9107    7.5138 O   0  0  0  0  0  0  0  0  0  0  0  0
    3.9818   -2.4197   13.3343 C   0  0  0  0  0  0  0  0  0  0  0  0
    4.6067   -2.1826   14.6508 C   0  0  0  0  0  0  0  0  0  0  0  0
    4.5361   -3.1629   15.6320 C   0  0  0  0  0  0  0  0  0  0  0  0
    5.0933   -2.9960   16.8735 C   0  0  0  0  0  0  0  0  0  0  0  0
    5.7532   -1.8205   17.1836 C   0  0  0  0  0  0  0  0  0  0  0  0
    5.8400   -0.8291   16.2310 C   0  0  0  0  0  0  0  0  0  0  0  0
    5.2771   -0.9983   14.9775 C   0  0  0  0  0  0  0  0  0  0  0  0
    6.1847   -1.9866   18.4957 O   0  0  0  0  0  0  0  0  0  0  0  0
    5.8527   -3.2577   18.9855 C   0  0  0  0  0  0  0  0  0  0  0  0
    5.1184   -3.8578   17.9614 O   0  0  0  0  0  0  0  0  0  0  0  0
  1  2  1  0
  2  3  1  0
  3  4  1  0
  4  5  1  0
  5  6  1  0
  6  7  2  0
  7  8  1  0
  8  9  2  0
  9 10  1  0
 10 11  2  0
 11 12  1  0
 12 13  2  0
 13 14  1  0
 14 15  2  0
  7 16  1  0
 16 17  2  0
 17 18  1  0
 18 19  2  0
 19 20  1  0
 20 21  2  0
  6 22  1  0
 22 23  1  0
 23 24  1  0
 24 25  1  0
 25 26  2  0
 26 27  1  0
 27 28  2  0
 28 29  1  0
 29 30  2  0
 28 31  1  0
 31 32  1  0
 32 33  1  0
 23 34  1  0
 34 35  1  0
 35 36  2  0
 36 37  1  0
 37 38  2  0
 38 39  1  0
 39 40  2  0
 38 41  1  0
 41 42  1  0
 42 43  1  0
  9  5  1  0
 15 10  1  0
 21 16  1  0
 30 25  1  0
 33 27  1  0
 40 35  1  0
 43 37  1  0
M  END
$$$$
