
     RDKit          3D

 43 49  0  0  0  0  0  0  0  0999 V2000
    5.1354    9.5475   -8.7883 C   0  0  0  0  0  0  0  0  0  0  0  0
    4.3856   10.8119   -8.3357 C   0  0  0  0  0  0  0  0  0  0  0  0
    5.2642   11.5350   -7.3759 C   0  0  0  0  0  0  0  0  0  0  0  0
    4.5915   11.8085   -6.0272 C   0  0  0  0  0  0  0  0  0  0  0  0
    5.3933   12.7103   -5.2097 N   0  0  0  0  0  0  0  0  0  0  0  0
    6.3971   13.5212   -5.6694 C   0  0  0  0  0  0  0  0  0  0  0  0
    6.9656   14.1828   -4.6179 C   0  0  0  0  0  0  0  0  0  0  0  0
    6.2803   13.7557   -3.5130 N   0  0  0  0  0  0  0  0  0  0  0  0
    5.3452   12.8783   -3.8855 C   0  0  0  0  0  0  0  0  0  0  0  0
    4.4353   12.2555   -2.9260 C   0  0  0  0  0  0  0  0  0  0  0  0
    4.5159   10.8990   -2.6263 C   0  0  0  0  0  0  0  0  0  0  0  0
    3.6939   10.2626   -1.7354 C   0  0  0  0  0  0  0  0  0  0  0  0
    2.7354   11.0233   -1.1062 C   0  0  0  0  0  0  0  0  0  0  0  0
    2.6268   12.3833   -1.3823 C   0  0  0  0  0  0  0  0  0  0  0  0
    3.4713   12.9827   -2.2827 C   0  0  0  0  0  0  0  0  0  0  0  0
    8.0969   15.1111   -4.5377 C   0  0  0  0  0  0  0  0  0  0  0  0
    9.3427   14.6094   -4.9824 C   0  0  0  0  0  0  0  0  0  0  0  0
   10.4655   15.3840   -4.9229 C   0  0  0  0  0  0  0  0  0  0  0  0
   10.3540   16.6674   -4.4185 C   0  0  0  0  0  0  0  0  0  0  0  0
    9.1536   17.1622   -3.9851 C   0  0  0  0  0  0  0  0  0  0  0  0
    8.0365   16.3703   -4.0518 C   0  0  0  0  0  0  0  0  0  0  0  0
    6.8271   13.6128   -7.0843 C   0  0  0  0  0  0  0  0  0  0  0  0
    7.7361   12.6813   -7.5644 N   0  0  0  0  0  0  0  0  0  0  0  0
    7.5608   11.3355   -7.6971 C   0  0  0  0  0  0  0  0  0  0  0  0
    6.7814   10.7107   -8.7422 C   0  0  0  0  0  0  0  0  0  0  0  0
    6.6966   11.3402   -9.9865 C   0  0  0  0  0  0  0  0  0  0  0  0
    5.9785   10.8115  -11.0227 C   0  0  0  0  0  0  0  0  0  0  0  0
    5.2983    9.6171  -10.8793 C   0  0  0  0  0  0  0  0  0  0  0  0
    5.3635    8.9821   -9.6779 C   0  0  0  0  0  0  0  0  0  0  0  0
    6.0875    9.5240   -8.6473 C   0  0  0  0  0  0  0  0  0  0  0  0
    4.6571    9.3255  -12.0975 O   0  0  0  0  0  0  0  0  0  0  0  0
    5.2081   10.1874  -13.0940 C   0  0  0  0  0  0  0  0  0  0  0  0
    5.7605   11.2564  -12.3194 O   0  0  0  0  0  0  0  0  0  0  0  0
    9.0374   13.2206   -7.8992 C   0  0  0  0  0  0  0  0  0  0  0  0
    9.3297   13.1871   -9.3460 C   0  0  0  0  0  0  0  0  0  0  0  0
    9.1827   14.3414  -10.1042 C   0  0  0  0  0  0  0  0  0  0  0  0
    9.4349   14.3681  -11.4516 C   0  0  0  0  0  0  0  0  0  0  0  0
    9.8508   13.2195  -12.1007 C   0  0  0  0  0  0  0  0  0  0  0  0
   10.0059   12.0586  -11.3756 C   0  0  0  0  0  0  0  0  0  0  0  0
    9.7511   12.0323  -10.0150 C   0  0  0  0  0  0  0  0  0  0  0  0
   10.0106   13.5968  -13.4302 O   0  0  0  0  0  0  0  0  0  0  0  0
    9.7542   14.9637  -13.6077 C   0  0  0  0  0  0  0  0  0  0  0  0
    9.3419   15.4186  -12.3542 O   0  0  0  0  0  0  0  0  0  0  0  0
  1  2  1  0
  2  3  1  0
  3  4  1  0
  4  5  1  0
  5  6  1  0
  6  7  2  0
  7  8  1  0
  8  9  2  0
  9 10  1  0
 10 11  2  0
 11 12  1  0
 12 13  2  0
 13 14  1  0
 14 15  2  0
  7 16  1  0
 16 17  2  0
 17 18  1  0
 18 19  2  0
 19 20  1  0
 20 21  2  0
  6 22  1  0
 22 23  1  0
 23 24  1  0
 24 25  1  0
 25 26  2  0
 26 27  1  0
 27 28  2  0
 28 29  1  0
 29 30  2  0
 28 31  1  0
 31 32  1  0
 32 33  1  0
 23 34  1  0
 34 35  1  0
 35 36  2  0
 36 37  1  0
 37 38  2  0
 38 39  1  0
 39 40  2  0
 38 41  1  0
 41 42  1  0
 42 43  1  0
  9  5  1  0
 15 10  1  0
 21 16  1  0
 30 25  1  0
 33 27  1  0
 40 35  1  0
 43 37  1  0
M  END
$$$$
