
     RDKit          3D

 43 49  0  0  0  0  0  0  0  0999 V2000
    7.1490   -3.1466    6.5212 C   0  0  0  0  0  0  0  0  0  0  0  0
    6.2389   -2.3957    5.5344 C   0  0  0  0  0  0  0  0  0  0  0  0
    6.2117   -3.1757    4.2668 C   0  0  0  0  0  0  0  0  0  0  0  0
    5.3493   -2.5308    3.1775 C   0  0  0  0  0  0  0  0  0  0  0  0
    5.8732   -2.8194    1.8484 N   0  0  0  0  0  0  0  0  0  0  0  0
    5.3026   -3.6652    0.9342 C   0  0  0  0  0  0  0  0  0  0  0  0
    6.0945   -3.7362   -0.1768 C   0  0  0  0  0  0  0  0  0  0  0  0
    7.1548   -2.9116    0.0856 N   0  0  0  0  0  0  0  0  0  0  0  0
    7.0051   -2.3724    1.2980 C   0  0  0  0  0  0  0  0  0  0  0  0
    7.9727   -1.4296    1.8558 C   0  0  0  0  0  0  0  0  0  0  0  0
    9.3154   -1.7675    1.9962 C   0  0  0  0  0  0  0  0  0  0  0  0
   10.2661   -0.9260    2.5084 C   0  0  0  0  0  0  0  0  0  0  0  0
    9.8541    0.3260    2.9038 C   0  0  0  0  0  0  0  0  0  0  0  0
    8.5185    0.6970    2.7774 C   0  0  0  0  0  0  0  0  0  0  0  0
    7.5968   -0.1773    2.2585 C   0  0  0  0  0  0  0  0  0  0  0  0
    5.9900   -4.5235   -1.4086 C   0  0  0  0  0  0  0  0  0  0  0  0
    5.1614   -5.6683   -1.3437 C   0  0  0  0  0  0  0  0  0  0  0  0
    5.0187   -6.4858   -2.4280 C   0  0  0  0  0  0  0  0  0  0  0  0
    5.7028   -6.1668   -3.5875 C   0  0  0  0  0  0  0  0  0  0  0  0
    6.5073   -5.0619   -3.6606 C   0  0  0  0  0  0  0  0  0  0  0  0
    6.6393   -4.2524   -2.5620 C   0  0  0  0  0  0  0  0  0  0  0  0
    4.0490   -4.4237    1.1536 C   0  0  0  0  0  0  0  0  0  0  0  0
    2.9773   -3.7776    1.7525 N   0  0  0  0  0  0  0  0  0  0  0  0
    2.1126   -2.8908    1.1820 C   0  0  0  0  0  0  0  0  0  0  0  0
    2.0770   -2.5742   -0.2282 C   0  0  0  0  0  0  0  0  0  0  0  0
    2.2904   -1.2524   -0.6269 C   0  0  0  0  0  0  0  0  0  0  0  0
    2.2711   -0.8760   -1.9410 C   0  0  0  0  0  0  0  0  0  0  0  0
    2.0366   -1.8001   -2.9415 C   0  0  0  0  0  0  0  0  0  0  0  0
    1.8255   -3.0950   -2.5818 C   0  0  0  0  0  0  0  0  0  0  0  0
    1.8477   -3.4583   -1.2599 C   0  0  0  0  0  0  0  0  0  0  0  0
    2.0758   -1.1305   -4.1786 O   0  0  0  0  0  0  0  0  0  0  0  0
    2.6535    0.1564   -3.9562 C   0  0  0  0  0  0  0  0  0  0  0  0
    2.4541    0.3563   -2.5533 O   0  0  0  0  0  0  0  0  0  0  0  0
    2.8189   -4.0483    3.1659 C   0  0  0  0  0  0  0  0  0  0  0  0
    3.0270   -5.4674    3.5165 C   0  0  0  0  0  0  0  0  0  0  0  0
    2.8961   -5.8757    4.8374 C   0  0  0  0  0  0  0  0  0  0  0  0
    3.0825   -7.1785    5.2218 C   0  0  0  0  0  0  0  0  0  0  0  0
    3.4127   -8.1372    4.2808 C   0  0  0  0  0  0  0  0  0  0  0  0
    3.5497   -7.7629    2.9622 C   0  0  0  0  0  0  0  0  0  0  0  0
    3.3614   -6.4472    2.5747 C   0  0  0  0  0  0  0  0  0  0  0  0
    3.5240   -9.3226    5.0004 O   0  0  0  0  0  0  0  0  0  0  0  0
    3.2186   -9.1286    6.3549 C   0  0  0  0  0  0  0  0  0  0  0  0
    2.9937   -7.7568    6.4806 O   0  0  0  0  0  0  0  0  0  0  0  0
  1  2  1  0
  2  3  1  0
  3  4  1  0
  4  5  1  0
  5  6  1  0
  6  7  2  0
  7  8  1  0
  8  9  2  0
  9 10  1  0
 10 11  2  0
 11 12  1  0
 12 13  2  0
 13 14  1  0
 14 15  2  0
  7 16  1  0
 16 17  2  0
 17 18  1  0
 18 19  2  0
 19 20  1  0
 20 21  2  0
  6 22  1  0
 22 23  1  0
 23 24  1  0
 24 25  1  0
 25 26  2  0
 26 27  1  0
 27 28  2  0
 28 29  1  0
 29 30  2  0
 28 31  1  0
 31 32  1  0
 32 33  1  0
 23 34  1  0
 34 35  1  0
 35 36  2  0
 36 37  1  0
 37 38  2  0
 38 39  1  0
 39 40  2  0
 38 41  1  0
 41 42  1  0
 42 43  1  0
  9  5  1  0
 15 10  1  0
 21 16  1  0
 30 25  1  0
 33 27  1  0
 40 35  1  0
 43 37  1  0
M  END
$$$$
