
     RDKit          3D

 43 49  0  0  0  0  0  0  0  0999 V2000
    7.1853  -16.8028  -11.0228 C   0  0  0  0  0  0  0  0  0  0  0  0
    6.1955  -15.6396  -11.2042 C   0  0  0  0  0  0  0  0  0  0  0  0
    6.8307  -14.4178  -10.6387 C   0  0  0  0  0  0  0  0  0  0  0  0
    5.8698  -13.2296  -10.5327 C   0  0  0  0  0  0  0  0  0  0  0  0
    6.4971  -12.1010   -9.8565 N   0  0  0  0  0  0  0  0  0  0  0  0
    6.0285  -11.4919   -8.7225 C   0  0  0  0  0  0  0  0  0  0  0  0
    6.8366  -10.4371   -8.4050 C   0  0  0  0  0  0  0  0  0  0  0  0
    7.8059  -10.4247   -9.3711 N   0  0  0  0  0  0  0  0  0  0  0  0
    7.5878  -11.4254  -10.2279 C   0  0  0  0  0  0  0  0  0  0  0  0
    8.4696  -11.6833  -11.3647 C   0  0  0  0  0  0  0  0  0  0  0  0
    9.8456  -11.8098  -11.2002 C   0  0  0  0  0  0  0  0  0  0  0  0
   10.7191  -12.0539  -12.2258 C   0  0  0  0  0  0  0  0  0  0  0  0
   10.1895  -12.1793  -13.4897 C   0  0  0  0  0  0  0  0  0  0  0  0
    8.8174  -12.0586  -13.6902 C   0  0  0  0  0  0  0  0  0  0  0  0
    7.9761  -11.8136  -12.6341 C   0  0  0  0  0  0  0  0  0  0  0  0
    6.7631   -9.4280   -7.3446 C   0  0  0  0  0  0  0  0  0  0  0  0
    7.5882   -8.2912   -7.5129 C   0  0  0  0  0  0  0  0  0  0  0  0
    7.6158   -7.3060   -6.5681 C   0  0  0  0  0  0  0  0  0  0  0  0
    6.8189   -7.4474   -5.4460 C   0  0  0  0  0  0  0  0  0  0  0  0
    6.0174   -8.5435   -5.2732 C   0  0  0  0  0  0  0  0  0  0  0  0
    6.0026   -9.5233   -6.2320 C   0  0  0  0  0  0  0  0  0  0  0  0
    4.8006  -11.8911   -7.9958 C   0  0  0  0  0  0  0  0  0  0  0  0
    4.5875  -13.2380   -7.7406 N   0  0  0  0  0  0  0  0  0  0  0  0
    3.7785  -14.0988   -8.4218 C   0  0  0  0  0  0  0  0  0  0  0  0
    2.3665  -14.2721   -8.1644 C   0  0  0  0  0  0  0  0  0  0  0  0
    1.4462  -13.6873   -9.0378 C   0  0  0  0  0  0  0  0  0  0  0  0
    0.0960  -13.8064   -8.8597 C   0  0  0  0  0  0  0  0  0  0  0  0
   -0.4201  -14.5194   -7.7943 C   0  0  0  0  0  0  0  0  0  0  0  0
    0.4535  -15.0997   -6.9276 C   0  0  0  0  0  0  0  0  0  0  0  0
    1.8052  -14.9721   -7.1185 C   0  0  0  0  0  0  0  0  0  0  0  0
   -1.8244  -14.4695   -7.8688 O   0  0  0  0  0  0  0  0  0  0  0  0
   -2.1722  -13.9889   -9.1678 C   0  0  0  0  0  0  0  0  0  0  0  0
   -0.9799  -13.3185   -9.5885 O   0  0  0  0  0  0  0  0  0  0  0  0
    5.2696  -13.7488   -6.5701 C   0  0  0  0  0  0  0  0  0  0  0  0
    6.7290  -13.5270   -6.6003 C   0  0  0  0  0  0  0  0  0  0  0  0
    7.5411  -14.3919   -7.3223 C   0  0  0  0  0  0  0  0  0  0  0  0
    8.9021  -14.2380   -7.3820 C   0  0  0  0  0  0  0  0  0  0  0  0
    9.5107  -13.1938   -6.7090 C   0  0  0  0  0  0  0  0  0  0  0  0
    8.7317  -12.3190   -5.9840 C   0  0  0  0  0  0  0  0  0  0  0  0
    7.3573  -12.4751   -5.9241 C   0  0  0  0  0  0  0  0  0  0  0  0
   10.8679  -13.3349   -6.9800 O   0  0  0  0  0  0  0  0  0  0  0  0
   11.1065  -14.4103   -7.8474 C   0  0  0  0  0  0  0  0  0  0  0  0
    9.8558  -14.9972   -8.0459 O   0  0  0  0  0  0  0  0  0  0  0  0
  1  2  1  0
  2  3  1  0
  3  4  1  0
  4  5  1  0
  5  6  1  0
  6  7  2  0
  7  8  1  0
  8  9  2  0
  9 10  1  0
 10 11  2  0
 11 12  1  0
 12 13  2  0
 13 14  1  0
 14 15  2  0
  7 16  1  0
 16 17  2  0
 17 18  1  0
 18 19  2  0
 19 20  1  0
 20 21  2  0
  6 22  1  0
 22 23  1  0
 23 24  1  0
 24 25  1  0
 25 26  2  0
 26 27  1  0
 27 28  2  0
 28 29  1  0
 29 30  2  0
 28 31  1  0
 31 32  1  0
 32 33  1  0
 23 34  1  0
 34 35  1  0
 35 36  2  0
 36 37  1  0
 37 38  2  0
 38 39  1  0
 39 40  2  0
 38 41  1  0
 41 42  1  0
 42 43  1  0
  9  5  1  0
 15 10  1  0
 21 16  1  0
 30 25  1  0
 33 27  1  0
 40 35  1  0
 43 37  1  0
M  END
$$$$
