
     RDKit          3D

 43 49  0  0  0  0  0  0  0  0999 V2000
    2.9091    3.4289   16.4325 C   0  0  0  0  0  0  0  0  0  0  0  0
    2.9079    2.7977   15.0299 C   0  0  0  0  0  0  0  0  0  0  0  0
    1.6893    1.9496   14.9208 C   0  0  0  0  0  0  0  0  0  0  0  0
    1.6241    1.1485   13.6168 C   0  0  0  0  0  0  0  0  0  0  0  0
    0.5779    0.1351   13.6707 N   0  0  0  0  0  0  0  0  0  0  0  0
    0.7826   -1.2173   13.7471 C   0  0  0  0  0  0  0  0  0  0  0  0
   -0.4215   -1.8623   13.7220 C   0  0  0  0  0  0  0  0  0  0  0  0
   -1.3584   -0.8688   13.6319 N   0  0  0  0  0  0  0  0  0  0  0  0
   -0.7437    0.3163   13.6037 C   0  0  0  0  0  0  0  0  0  0  0  0
   -1.4827    1.5751   13.5279 C   0  0  0  0  0  0  0  0  0  0  0  0
   -0.8879    2.7364   13.0442 C   0  0  0  0  0  0  0  0  0  0  0  0
   -1.5304    3.9415   12.9475 C   0  0  0  0  0  0  0  0  0  0  0  0
   -2.8431    3.9917   13.3570 C   0  0  0  0  0  0  0  0  0  0  0  0
   -3.4692    2.8488   13.8461 C   0  0  0  0  0  0  0  0  0  0  0  0
   -2.7888    1.6598   13.9266 C   0  0  0  0  0  0  0  0  0  0  0  0
   -0.7735   -3.2850   13.7172 C   0  0  0  0  0  0  0  0  0  0  0  0
   -2.1204   -3.5890   13.4094 C   0  0  0  0  0  0  0  0  0  0  0  0
   -2.5583   -4.8822   13.4065 C   0  0  0  0  0  0  0  0  0  0  0  0
   -1.6541   -5.8841   13.7111 C   0  0  0  0  0  0  0  0  0  0  0  0
   -0.3490   -5.6008   14.0108 C   0  0  0  0  0  0  0  0  0  0  0  0
    0.0733   -4.2965   14.0095 C   0  0  0  0  0  0  0  0  0  0  0  0
    2.1127   -1.8684   13.7915 C   0  0  0  0  0  0  0  0  0  0  0  0
    2.8196   -2.0178   12.6071 N   0  0  0  0  0  0  0  0  0  0  0  0
    2.3409   -2.4163   11.3940 C   0  0  0  0  0  0  0  0  0  0  0  0
    2.4770   -3.7526   10.8593 C   0  0  0  0  0  0  0  0  0  0  0  0
    2.5052   -3.9233    9.4730 C   0  0  0  0  0  0  0  0  0  0  0  0
    2.6305   -5.1551    8.8934 C   0  0  0  0  0  0  0  0  0  0  0  0
    2.7358   -6.2964    9.6655 C   0  0  0  0  0  0  0  0  0  0  0  0
    2.7113   -6.1596   11.0189 C   0  0  0  0  0  0  0  0  0  0  0  0
    2.5850   -4.9180   11.5866 C   0  0  0  0  0  0  0  0  0  0  0  0
    2.8513   -7.4030    8.8039 O   0  0  0  0  0  0  0  0  0  0  0  0
    3.1382   -6.9055    7.4964 C   0  0  0  0  0  0  0  0  0  0  0  0
    2.6804   -5.5513    7.5640 O   0  0  0  0  0  0  0  0  0  0  0  0
    4.2427   -1.7744   12.7154 C   0  0  0  0  0  0  0  0  0  0  0  0
    4.6234   -1.0753   13.9588 C   0  0  0  0  0  0  0  0  0  0  0  0
    5.4088    0.0682   13.8920 C   0  0  0  0  0  0  0  0  0  0  0  0
    5.7968    0.7552   15.0131 C   0  0  0  0  0  0  0  0  0  0  0  0
    5.4058    0.3146   16.2647 C   0  0  0  0  0  0  0  0  0  0  0  0
    4.6264   -0.8170   16.3637 C   0  0  0  0  0  0  0  0  0  0  0  0
    4.2349   -1.5103   15.2311 C   0  0  0  0  0  0  0  0  0  0  0  0
    5.9634    1.2256   17.1562 O   0  0  0  0  0  0  0  0  0  0  0  0
    6.6452    2.2483   16.4817 C   0  0  0  0  0  0  0  0  0  0  0  0
    6.5707    1.9015   15.1317 O   0  0  0  0  0  0  0  0  0  0  0  0
  1  2  1  0
  2  3  1  0
  3  4  1  0
  4  5  1  0
  5  6  1  0
  6  7  2  0
  7  8  1  0
  8  9  2  0
  9 10  1  0
 10 11  2  0
 11 12  1  0
 12 13  2  0
 13 14  1  0
 14 15  2  0
  7 16  1  0
 16 17  2  0
 17 18  1  0
 18 19  2  0
 19 20  1  0
 20 21  2  0
  6 22  1  0
 22 23  1  0
 23 24  1  0
 24 25  1  0
 25 26  2  0
 26 27  1  0
 27 28  2  0
 28 29  1  0
 29 30  2  0
 28 31  1  0
 31 32  1  0
 32 33  1  0
 23 34  1  0
 34 35  1  0
 35 36  2  0
 36 37  1  0
 37 38  2  0
 38 39  1  0
 39 40  2  0
 38 41  1  0
 41 42  1  0
 42 43  1  0
  9  5  1  0
 15 10  1  0
 21 16  1  0
 30 25  1  0
 33 27  1  0
 40 35  1  0
 43 37  1  0
M  END
$$$$
