
     RDKit          3D

 43 49  0  0  0  0  0  0  0  0999 V2000
    0.4687    3.1815   15.2825 C   0  0  0  0  0  0  0  0  0  0  0  0
    1.8829    3.0339   14.6958 C   0  0  0  0  0  0  0  0  0  0  0  0
    2.2476    1.5921   14.7618 C   0  0  0  0  0  0  0  0  0  0  0  0
    1.0318    0.6607   14.7876 C   0  0  0  0  0  0  0  0  0  0  0  0
    1.4196   -0.7060   15.1133 N   0  0  0  0  0  0  0  0  0  0  0  0
    1.8462   -1.6481   14.2148 C   0  0  0  0  0  0  0  0  0  0  0  0
    2.0680   -2.8293   14.8643 C   0  0  0  0  0  0  0  0  0  0  0  0
    1.7688   -2.5787   16.1761 N   0  0  0  0  0  0  0  0  0  0  0  0
    1.3849   -1.3064   16.3059 C   0  0  0  0  0  0  0  0  0  0  0  0
    1.0160   -0.7324   17.5984 C   0  0  0  0  0  0  0  0  0  0  0  0
    1.8727   -0.8013   18.6928 C   0  0  0  0  0  0  0  0  0  0  0  0
    1.5826   -0.2799   19.9251 C   0  0  0  0  0  0  0  0  0  0  0  0
    0.3668    0.3470   20.0750 C   0  0  0  0  0  0  0  0  0  0  0  0
   -0.5144    0.4340   19.0011 C   0  0  0  0  0  0  0  0  0  0  0  0
   -0.1846   -0.1023   17.7818 C   0  0  0  0  0  0  0  0  0  0  0  0
    2.4688   -4.1544   14.3831 C   0  0  0  0  0  0  0  0  0  0  0  0
    3.2016   -4.1786   13.1732 C   0  0  0  0  0  0  0  0  0  0  0  0
    3.5981   -5.3641   12.6240 C   0  0  0  0  0  0  0  0  0  0  0  0
    3.2660   -6.5368   13.2787 C   0  0  0  0  0  0  0  0  0  0  0  0
    2.5569   -6.5244   14.4495 C   0  0  0  0  0  0  0  0  0  0  0  0
    2.1666   -5.3249   14.9864 C   0  0  0  0  0  0  0  0  0  0  0  0
    1.9857   -1.4222   12.7572 C   0  0  0  0  0  0  0  0  0  0  0  0
    0.8643   -1.0448   12.0327 N   0  0  0  0  0  0  0  0  0  0  0  0
   -0.1790   -0.2729   12.4513 C   0  0  0  0  0  0  0  0  0  0  0  0
   -1.2411   -0.7324   13.3179 C   0  0  0  0  0  0  0  0  0  0  0  0
   -1.4126   -2.1065   13.5021 C   0  0  0  0  0  0  0  0  0  0  0  0
   -2.3944   -2.6167   14.3050 C   0  0  0  0  0  0  0  0  0  0  0  0
   -3.2686   -1.7827   14.9759 C   0  0  0  0  0  0  0  0  0  0  0  0
   -3.1245   -0.4395   14.8148 C   0  0  0  0  0  0  0  0  0  0  0  0
   -2.1353    0.0582   14.0063 C   0  0  0  0  0  0  0  0  0  0  0  0
   -4.1599   -2.5812   15.7163 O   0  0  0  0  0  0  0  0  0  0  0  0
   -3.6280   -3.9062   15.7502 C   0  0  0  0  0  0  0  0  0  0  0  0
   -2.7413   -3.9216   14.6272 O   0  0  0  0  0  0  0  0  0  0  0  0
    0.7891   -1.6010   10.6981 C   0  0  0  0  0  0  0  0  0  0  0  0
    2.0425   -2.2488   10.2630 C   0  0  0  0  0  0  0  0  0  0  0  0
    3.1982   -1.4903   10.1298 C   0  0  0  0  0  0  0  0  0  0  0  0
    4.3886   -2.0367    9.7249 C   0  0  0  0  0  0  0  0  0  0  0  0
    4.4668   -3.3867    9.4333 C   0  0  0  0  0  0  0  0  0  0  0  0
    3.3372   -4.1655    9.5559 C   0  0  0  0  0  0  0  0  0  0  0  0
    2.1354   -3.6131    9.9648 C   0  0  0  0  0  0  0  0  0  0  0  0
    5.7912   -3.5976    9.0629 O   0  0  0  0  0  0  0  0  0  0  0  0
    6.5451   -2.4203    9.1697 C   0  0  0  0  0  0  0  0  0  0  0  0
    5.6265   -1.4366    9.5394 O   0  0  0  0  0  0  0  0  0  0  0  0
  1  2  1  0
  2  3  1  0
  3  4  1  0
  4  5  1  0
  5  6  1  0
  6  7  2  0
  7  8  1  0
  8  9  2  0
  9 10  1  0
 10 11  2  0
 11 12  1  0
 12 13  2  0
 13 14  1  0
 14 15  2  0
  7 16  1  0
 16 17  2  0
 17 18  1  0
 18 19  2  0
 19 20  1  0
 20 21  2  0
  6 22  1  0
 22 23  1  0
 23 24  1  0
 24 25  1  0
 25 26  2  0
 26 27  1  0
 27 28  2  0
 28 29  1  0
 29 30  2  0
 28 31  1  0
 31 32  1  0
 32 33  1  0
 23 34  1  0
 34 35  1  0
 35 36  2  0
 36 37  1  0
 37 38  2  0
 38 39  1  0
 39 40  2  0
 38 41  1  0
 41 42  1  0
 42 43  1  0
  9  5  1  0
 15 10  1  0
 21 16  1  0
 30 25  1  0
 33 27  1  0
 40 35  1  0
 43 37  1  0
M  END
$$$$
