
     RDKit          3D

 43 49  0  0  0  0  0  0  0  0999 V2000
  -15.0370  -11.3091    1.1854 C   0  0  0  0  0  0  0  0  0  0  0  0
  -14.1536  -12.2436    0.3414 C   0  0  0  0  0  0  0  0  0  0  0  0
  -13.5654  -11.4318   -0.7591 C   0  0  0  0  0  0  0  0  0  0  0  0
  -13.6026  -12.1373   -2.1182 C   0  0  0  0  0  0  0  0  0  0  0  0
  -12.4759  -11.7380   -2.9522 N   0  0  0  0  0  0  0  0  0  0  0  0
  -12.1698  -10.4529   -3.3146 C   0  0  0  0  0  0  0  0  0  0  0  0
  -11.0841  -10.4599   -4.1438 C   0  0  0  0  0  0  0  0  0  0  0  0
  -10.7392  -11.7781   -4.2716 N   0  0  0  0  0  0  0  0  0  0  0  0
  -11.5800  -12.5259   -3.5527 C   0  0  0  0  0  0  0  0  0  0  0  0
  -11.4566  -13.9803   -3.4749 C   0  0  0  0  0  0  0  0  0  0  0  0
  -11.6121  -14.6571   -2.2690 C   0  0  0  0  0  0  0  0  0  0  0  0
  -11.5107  -16.0160   -2.1362 C   0  0  0  0  0  0  0  0  0  0  0  0
  -11.2384  -16.7427   -3.2725 C   0  0  0  0  0  0  0  0  0  0  0  0
  -11.0770  -16.0979   -4.4954 C   0  0  0  0  0  0  0  0  0  0  0  0
  -11.1868  -14.7329   -4.5851 C   0  0  0  0  0  0  0  0  0  0  0  0
  -10.3866   -9.3865   -4.8577 C   0  0  0  0  0  0  0  0  0  0  0  0
  -10.6828   -8.0686   -4.4374 C   0  0  0  0  0  0  0  0  0  0  0  0
  -10.1084   -6.9957   -5.0563 C   0  0  0  0  0  0  0  0  0  0  0  0
   -9.2323   -7.2297   -6.1012 C   0  0  0  0  0  0  0  0  0  0  0  0
   -8.9393   -8.5008   -6.5159 C   0  0  0  0  0  0  0  0  0  0  0  0
   -9.5256   -9.5664   -5.8833 C   0  0  0  0  0  0  0  0  0  0  0  0
  -12.9411   -9.2548   -2.9085 C   0  0  0  0  0  0  0  0  0  0  0  0
  -13.0554   -8.9647   -1.5567 N   0  0  0  0  0  0  0  0  0  0  0  0
  -12.3156   -9.4707   -0.5289 C   0  0  0  0  0  0  0  0  0  0  0  0
  -10.8767   -9.6096   -0.5471 C   0  0  0  0  0  0  0  0  0  0  0  0
  -10.3027  -10.5585   -1.3966 C   0  0  0  0  0  0  0  0  0  0  0  0
   -8.9508  -10.7484   -1.4685 C   0  0  0  0  0  0  0  0  0  0  0  0
   -8.0857   -9.9995   -0.6935 C   0  0  0  0  0  0  0  0  0  0  0  0
   -8.6175   -9.0678    0.1432 C   0  0  0  0  0  0  0  0  0  0  0  0
   -9.9753   -8.8881    0.2051 C   0  0  0  0  0  0  0  0  0  0  0  0
   -6.7703  -10.4110   -0.9773 O   0  0  0  0  0  0  0  0  0  0  0  0
   -6.8103  -11.1982   -2.1682 C   0  0  0  0  0  0  0  0  0  0  0  0
   -8.1775  -11.6169   -2.2266 O   0  0  0  0  0  0  0  0  0  0  0  0
  -14.1359   -8.0619   -1.2194 C   0  0  0  0  0  0  0  0  0  0  0  0
  -13.6750   -6.7049   -0.8646 C   0  0  0  0  0  0  0  0  0  0  0  0
  -12.3260   -6.3896   -0.9615 C   0  0  0  0  0  0  0  0  0  0  0  0
  -11.8405   -5.1482   -0.6409 C   0  0  0  0  0  0  0  0  0  0  0  0
  -12.7034   -4.1593   -0.2036 C   0  0  0  0  0  0  0  0  0  0  0  0
  -14.0474   -4.4417   -0.0970 C   0  0  0  0  0  0  0  0  0  0  0  0
  -14.5371   -5.6955   -0.4210 C   0  0  0  0  0  0  0  0  0  0  0  0
  -11.8929   -3.0524    0.0274 O   0  0  0  0  0  0  0  0  0  0  0  0
  -10.5576   -3.3182   -0.3074 C   0  0  0  0  0  0  0  0  0  0  0  0
  -10.5401   -4.6639   -0.6775 O   0  0  0  0  0  0  0  0  0  0  0  0
  1  2  1  0
  2  3  1  0
  3  4  1  0
  4  5  1  0
  5  6  1  0
  6  7  2  0
  7  8  1  0
  8  9  2  0
  9 10  1  0
 10 11  2  0
 11 12  1  0
 12 13  2  0
 13 14  1  0
 14 15  2  0
  7 16  1  0
 16 17  2  0
 17 18  1  0
 18 19  2  0
 19 20  1  0
 20 21  2  0
  6 22  1  0
 22 23  1  0
 23 24  1  0
 24 25  1  0
 25 26  2  0
 26 27  1  0
 27 28  2  0
 28 29  1  0
 29 30  2  0
 28 31  1  0
 31 32  1  0
 32 33  1  0
 23 34  1  0
 34 35  1  0
 35 36  2  0
 36 37  1  0
 37 38  2  0
 38 39  1  0
 39 40  2  0
 38 41  1  0
 41 42  1  0
 42 43  1  0
  9  5  1  0
 15 10  1  0
 21 16  1  0
 30 25  1  0
 33 27  1  0
 40 35  1  0
 43 37  1  0
M  END
$$$$
