
     RDKit          3D

 43 49  0  0  0  0  0  0  0  0999 V2000
    1.5767   -2.2375   18.7792 C   0  0  0  0  0  0  0  0  0  0  0  0
    1.8345   -1.8649   17.3093 C   0  0  0  0  0  0  0  0  0  0  0  0
    2.0011   -0.3871   17.2439 C   0  0  0  0  0  0  0  0  0  0  0  0
    2.2914    0.1274   15.8305 C   0  0  0  0  0  0  0  0  0  0  0  0
    1.0609    0.4773   15.1321 N   0  0  0  0  0  0  0  0  0  0  0  0
    0.3720   -0.3397   14.2751 C   0  0  0  0  0  0  0  0  0  0  0  0
   -0.6988    0.3366   13.7630 C   0  0  0  0  0  0  0  0  0  0  0  0
   -0.6433    1.5797   14.3327 N   0  0  0  0  0  0  0  0  0  0  0  0
    0.4126    1.6449   15.1476 C   0  0  0  0  0  0  0  0  0  0  0  0
    0.7290    2.8464   15.9174 C   0  0  0  0  0  0  0  0  0  0  0  0
   -0.2407    3.8051   16.1954 C   0  0  0  0  0  0  0  0  0  0  0  0
   -0.0036    4.9468   16.9128 C   0  0  0  0  0  0  0  0  0  0  0  0
    1.2752    5.1443   17.3808 C   0  0  0  0  0  0  0  0  0  0  0  0
    2.2697    4.2055   17.1212 C   0  0  0  0  0  0  0  0  0  0  0  0
    1.9899    3.0737   16.3975 C   0  0  0  0  0  0  0  0  0  0  0  0
   -1.7141   -0.0361   12.7738 C   0  0  0  0  0  0  0  0  0  0  0  0
   -1.9368   -1.4231   12.6070 C   0  0  0  0  0  0  0  0  0  0  0  0
   -2.8409   -1.8769   11.6901 C   0  0  0  0  0  0  0  0  0  0  0  0
   -3.5313   -0.9487   10.9311 C   0  0  0  0  0  0  0  0  0  0  0  0
   -3.3229    0.3954   11.0843 C   0  0  0  0  0  0  0  0  0  0  0  0
   -2.4109    0.8332   12.0095 C   0  0  0  0  0  0  0  0  0  0  0  0
    0.7714   -1.7224   13.9231 C   0  0  0  0  0  0  0  0  0  0  0  0
    1.1191   -1.9998   12.6090 N   0  0  0  0  0  0  0  0  0  0  0  0
    0.6461   -3.0017   11.8141 C   0  0  0  0  0  0  0  0  0  0  0  0
    1.0983   -4.3738   11.8703 C   0  0  0  0  0  0  0  0  0  0  0  0
    2.1729   -4.7619   11.0663 C   0  0  0  0  0  0  0  0  0  0  0  0
    2.6561   -6.0407   11.0642 C   0  0  0  0  0  0  0  0  0  0  0  0
    2.0938   -7.0142   11.8679 C   0  0  0  0  0  0  0  0  0  0  0  0
    1.0457   -6.6641   12.6614 C   0  0  0  0  0  0  0  0  0  0  0  0
    0.5713   -5.3776   12.6533 C   0  0  0  0  0  0  0  0  0  0  0  0
    2.7910   -8.2181   11.6561 O   0  0  0  0  0  0  0  0  0  0  0  0
    3.9937   -7.9040   10.9530 C   0  0  0  0  0  0  0  0  0  0  0  0
    3.6935   -6.6366   10.3601 O   0  0  0  0  0  0  0  0  0  0  0  0
    2.1534   -1.1466   12.0624 C   0  0  0  0  0  0  0  0  0  0  0  0
    3.5181   -1.6598   12.2947 C   0  0  0  0  0  0  0  0  0  0  0  0
    4.2477   -2.1786   11.2329 C   0  0  0  0  0  0  0  0  0  0  0  0
    5.5166   -2.6733   11.3903 C   0  0  0  0  0  0  0  0  0  0  0  0
    6.1121   -2.6667   12.6389 C   0  0  0  0  0  0  0  0  0  0  0  0
    5.4135   -2.1586   13.7120 C   0  0  0  0  0  0  0  0  0  0  0  0
    4.1321   -1.6591   13.5524 C   0  0  0  0  0  0  0  0  0  0  0  0
    7.3690   -3.2289   12.4399 O   0  0  0  0  0  0  0  0  0  0  0  0
    7.5839   -3.5340   11.0885 C   0  0  0  0  0  0  0  0  0  0  0  0
    6.3808   -3.2226   10.4531 O   0  0  0  0  0  0  0  0  0  0  0  0
  1  2  1  0
  2  3  1  0
  3  4  1  0
  4  5  1  0
  5  6  1  0
  6  7  2  0
  7  8  1  0
  8  9  2  0
  9 10  1  0
 10 11  2  0
 11 12  1  0
 12 13  2  0
 13 14  1  0
 14 15  2  0
  7 16  1  0
 16 17  2  0
 17 18  1  0
 18 19  2  0
 19 20  1  0
 20 21  2  0
  6 22  1  0
 22 23  1  0
 23 24  1  0
 24 25  1  0
 25 26  2  0
 26 27  1  0
 27 28  2  0
 28 29  1  0
 29 30  2  0
 28 31  1  0
 31 32  1  0
 32 33  1  0
 23 34  1  0
 34 35  1  0
 35 36  2  0
 36 37  1  0
 37 38  2  0
 38 39  1  0
 39 40  2  0
 38 41  1  0
 41 42  1  0
 42 43  1  0
  9  5  1  0
 15 10  1  0
 21 16  1  0
 30 25  1  0
 33 27  1  0
 40 35  1  0
 43 37  1  0
M  END
$$$$
