
     RDKit          3D

 43 49  0  0  0  0  0  0  0  0999 V2000
   -4.1098   -4.7013   13.4623 C   0  0  0  0  0  0  0  0  0  0  0  0
   -3.4895   -3.3640   13.0234 C   0  0  0  0  0  0  0  0  0  0  0  0
   -2.7931   -2.7836   14.2041 C   0  0  0  0  0  0  0  0  0  0  0  0
   -2.1573   -1.4190   13.9215 C   0  0  0  0  0  0  0  0  0  0  0  0
   -1.2921   -1.0016   15.0177 N   0  0  0  0  0  0  0  0  0  0  0  0
   -0.0442   -1.5014   15.2816 C   0  0  0  0  0  0  0  0  0  0  0  0
    0.4489   -0.9201   16.4153 C   0  0  0  0  0  0  0  0  0  0  0  0
   -0.5281   -0.0554   16.8287 N   0  0  0  0  0  0  0  0  0  0  0  0
   -1.5588   -0.1167   15.9820 C   0  0  0  0  0  0  0  0  0  0  0  0
   -2.7537    0.7083   16.1489 C   0  0  0  0  0  0  0  0  0  0  0  0
   -3.0899    1.2552   17.3835 C   0  0  0  0  0  0  0  0  0  0  0  0
   -4.1933    2.0368   17.5987 C   0  0  0  0  0  0  0  0  0  0  0  0
   -5.0092    2.2879   16.5196 C   0  0  0  0  0  0  0  0  0  0  0  0
   -4.7027    1.7567   15.2700 C   0  0  0  0  0  0  0  0  0  0  0  0
   -3.5863    0.9777   15.0971 C   0  0  0  0  0  0  0  0  0  0  0  0
    1.6906   -1.1284   17.1655 C   0  0  0  0  0  0  0  0  0  0  0  0
    1.9868   -0.1610   18.1543 C   0  0  0  0  0  0  0  0  0  0  0  0
    3.1340   -0.2469   18.8896 C   0  0  0  0  0  0  0  0  0  0  0  0
    3.9962   -1.3006   18.6437 C   0  0  0  0  0  0  0  0  0  0  0  0
    3.7194   -2.2416   17.6890 C   0  0  0  0  0  0  0  0  0  0  0  0
    2.5630   -2.1394   16.9598 C   0  0  0  0  0  0  0  0  0  0  0  0
    0.6303   -2.5521   14.4839 C   0  0  0  0  0  0  0  0  0  0  0  0
    1.4751   -2.1651   13.4538 N   0  0  0  0  0  0  0  0  0  0  0  0
    2.7299   -2.6267   13.1854 C   0  0  0  0  0  0  0  0  0  0  0  0
    3.0200   -3.7688   12.3477 C   0  0  0  0  0  0  0  0  0  0  0  0
    4.3432   -4.0058   11.9673 C   0  0  0  0  0  0  0  0  0  0  0  0
    4.6951   -5.0640   11.1766 C   0  0  0  0  0  0  0  0  0  0  0  0
    3.7437   -5.9539   10.7154 C   0  0  0  0  0  0  0  0  0  0  0  0
    2.4468   -5.7472   11.0706 C   0  0  0  0  0  0  0  0  0  0  0  0
    2.1081   -4.6816   11.8642 C   0  0  0  0  0  0  0  0  0  0  0  0
    4.3926   -6.9281    9.9344 O   0  0  0  0  0  0  0  0  0  0  0  0
    5.7950   -6.8160   10.1797 C   0  0  0  0  0  0  0  0  0  0  0  0
    5.9237   -5.4835   10.6852 O   0  0  0  0  0  0  0  0  0  0  0  0
    0.9630   -1.1002   12.6171 C   0  0  0  0  0  0  0  0  0  0  0  0
    1.1783    0.2452   13.1858 C   0  0  0  0  0  0  0  0  0  0  0  0
    0.2373    1.2430   12.9668 C   0  0  0  0  0  0  0  0  0  0  0  0
    0.3869    2.5112   13.4658 C   0  0  0  0  0  0  0  0  0  0  0  0
    1.5040    2.8326   14.2157 C   0  0  0  0  0  0  0  0  0  0  0  0
    2.4553    1.8642   14.4501 C   0  0  0  0  0  0  0  0  0  0  0  0
    2.3036    0.5837   13.9460 C   0  0  0  0  0  0  0  0  0  0  0  0
    1.3358    4.1715   14.5541 O   0  0  0  0  0  0  0  0  0  0  0  0
    0.1158    4.6699   14.0756 C   0  0  0  0  0  0  0  0  0  0  0  0
   -0.4421    3.6182   13.3470 O   0  0  0  0  0  0  0  0  0  0  0  0
  1  2  1  0
  2  3  1  0
  3  4  1  0
  4  5  1  0
  5  6  1  0
  6  7  2  0
  7  8  1  0
  8  9  2  0
  9 10  1  0
 10 11  2  0
 11 12  1  0
 12 13  2  0
 13 14  1  0
 14 15  2  0
  7 16  1  0
 16 17  2  0
 17 18  1  0
 18 19  2  0
 19 20  1  0
 20 21  2  0
  6 22  1  0
 22 23  1  0
 23 24  1  0
 24 25  1  0
 25 26  2  0
 26 27  1  0
 27 28  2  0
 28 29  1  0
 29 30  2  0
 28 31  1  0
 31 32  1  0
 32 33  1  0
 23 34  1  0
 34 35  1  0
 35 36  2  0
 36 37  1  0
 37 38  2  0
 38 39  1  0
 39 40  2  0
 38 41  1  0
 41 42  1  0
 42 43  1  0
  9  5  1  0
 15 10  1  0
 21 16  1  0
 30 25  1  0
 33 27  1  0
 40 35  1  0
 43 37  1  0
M  END
$$$$
