
     RDKit          3D

 43 49  0  0  0  0  0  0  0  0999 V2000
    4.4040   -9.3095   -9.1460 C   0  0  0  0  0  0  0  0  0  0  0  0
    4.3519  -10.8421   -9.2657 C   0  0  0  0  0  0  0  0  0  0  0  0
    5.3360  -11.4012   -8.2987 C   0  0  0  0  0  0  0  0  0  0  0  0
    5.3626  -12.9326   -8.2793 C   0  0  0  0  0  0  0  0  0  0  0  0
    6.3687  -13.4322   -7.3505 N   0  0  0  0  0  0  0  0  0  0  0  0
    6.1513  -14.3561   -6.3627 C   0  0  0  0  0  0  0  0  0  0  0  0
    7.3032  -14.5430   -5.6524 C   0  0  0  0  0  0  0  0  0  0  0  0
    8.2224  -13.7135   -6.2355 N   0  0  0  0  0  0  0  0  0  0  0  0
    7.6472  -13.0595   -7.2477 C   0  0  0  0  0  0  0  0  0  0  0  0
    8.3832  -12.1091   -8.0791 C   0  0  0  0  0  0  0  0  0  0  0  0
    8.4055  -10.7503   -7.7798 C   0  0  0  0  0  0  0  0  0  0  0  0
    9.0788   -9.8153   -8.5193 C   0  0  0  0  0  0  0  0  0  0  0  0
    9.7707  -10.2613   -9.6220 C   0  0  0  0  0  0  0  0  0  0  0  0
    9.7698  -11.6139   -9.9505 C   0  0  0  0  0  0  0  0  0  0  0  0
    9.0814  -12.5188   -9.1821 C   0  0  0  0  0  0  0  0  0  0  0  0
    7.6089  -15.3594   -4.4742 C   0  0  0  0  0  0  0  0  0  0  0  0
    6.5877  -15.4469   -3.4991 C   0  0  0  0  0  0  0  0  0  0  0  0
    6.7821  -16.1590   -2.3505 C   0  0  0  0  0  0  0  0  0  0  0  0
    7.9990  -16.7906   -2.1655 C   0  0  0  0  0  0  0  0  0  0  0  0
    8.9938  -16.7118   -3.1023 C   0  0  0  0  0  0  0  0  0  0  0  0
    8.7815  -15.9920   -4.2496 C   0  0  0  0  0  0  0  0  0  0  0  0
    4.8475  -15.0019   -6.0831 C   0  0  0  0  0  0  0  0  0  0  0  0
    3.8891  -14.2875   -5.3790 N   0  0  0  0  0  0  0  0  0  0  0  0
    2.9220  -13.4682   -5.8820 C   0  0  0  0  0  0  0  0  0  0  0  0
    2.0627  -13.8038   -6.9952 C   0  0  0  0  0  0  0  0  0  0  0  0
    1.1724  -14.8719   -6.8602 C   0  0  0  0  0  0  0  0  0  0  0  0
    0.3295  -15.2492   -7.8682 C   0  0  0  0  0  0  0  0  0  0  0  0
    0.3240  -14.5805   -9.0776 C   0  0  0  0  0  0  0  0  0  0  0  0
    1.1810  -13.5360   -9.2368 C   0  0  0  0  0  0  0  0  0  0  0  0
    2.0209  -13.1686   -8.2172 C   0  0  0  0  0  0  0  0  0  0  0  0
   -0.6352  -15.1846   -9.9115 O   0  0  0  0  0  0  0  0  0  0  0  0
   -1.4477  -16.0293   -9.0955 C   0  0  0  0  0  0  0  0  0  0  0  0
   -0.6187  -16.2596   -7.9520 O   0  0  0  0  0  0  0  0  0  0  0  0
    3.9898  -14.3944   -3.9386 C   0  0  0  0  0  0  0  0  0  0  0  0
    4.5452  -13.1847   -3.2998 C   0  0  0  0  0  0  0  0  0  0  0  0
    4.9820  -13.2414   -1.9827 C   0  0  0  0  0  0  0  0  0  0  0  0
    5.5016  -12.1493   -1.3371 C   0  0  0  0  0  0  0  0  0  0  0  0
    5.6047  -10.9387   -1.9984 C   0  0  0  0  0  0  0  0  0  0  0  0
    5.1797  -10.8507   -3.3058 C   0  0  0  0  0  0  0  0  0  0  0  0
    4.6551  -11.9540   -3.9572 C   0  0  0  0  0  0  0  0  0  0  0  0
    6.1619  -10.0677   -1.0676 O   0  0  0  0  0  0  0  0  0  0  0  0
    6.4542  -10.7250    0.1359 C   0  0  0  0  0  0  0  0  0  0  0  0
    5.9806  -12.0261   -0.0401 O   0  0  0  0  0  0  0  0  0  0  0  0
  1  2  1  0
  2  3  1  0
  3  4  1  0
  4  5  1  0
  5  6  1  0
  6  7  2  0
  7  8  1  0
  8  9  2  0
  9 10  1  0
 10 11  2  0
 11 12  1  0
 12 13  2  0
 13 14  1  0
 14 15  2  0
  7 16  1  0
 16 17  2  0
 17 18  1  0
 18 19  2  0
 19 20  1  0
 20 21  2  0
  6 22  1  0
 22 23  1  0
 23 24  1  0
 24 25  1  0
 25 26  2  0
 26 27  1  0
 27 28  2  0
 28 29  1  0
 29 30  2  0
 28 31  1  0
 31 32  1  0
 32 33  1  0
 23 34  1  0
 34 35  1  0
 35 36  2  0
 36 37  1  0
 37 38  2  0
 38 39  1  0
 39 40  2  0
 38 41  1  0
 41 42  1  0
 42 43  1  0
  9  5  1  0
 15 10  1  0
 21 16  1  0
 30 25  1  0
 33 27  1  0
 40 35  1  0
 43 37  1  0
M  END
$$$$
