
     RDKit          3D

 43 49  0  0  0  0  0  0  0  0999 V2000
    6.3542   -9.1235  -10.9847 C   0  0  0  0  0  0  0  0  0  0  0  0
    7.4183   -9.9425  -10.2345 C   0  0  0  0  0  0  0  0  0  0  0  0
    6.8601  -11.3041  -10.0096 C   0  0  0  0  0  0  0  0  0  0  0  0
    7.8155  -12.2328   -9.2539 C   0  0  0  0  0  0  0  0  0  0  0  0
    7.7014  -13.6068   -9.7266 N   0  0  0  0  0  0  0  0  0  0  0  0
    7.0993  -14.6342   -9.0495 C   0  0  0  0  0  0  0  0  0  0  0  0
    7.2295  -15.7901   -9.7661 C   0  0  0  0  0  0  0  0  0  0  0  0
    7.9212  -15.4371  -10.8930 N   0  0  0  0  0  0  0  0  0  0  0  0
    8.1932  -14.1304  -10.8527 C   0  0  0  0  0  0  0  0  0  0  0  0
    8.9106  -13.4508  -11.9297 C   0  0  0  0  0  0  0  0  0  0  0  0
    8.4659  -13.5105  -13.2469 C   0  0  0  0  0  0  0  0  0  0  0  0
    9.0941  -12.8928  -14.2948 C   0  0  0  0  0  0  0  0  0  0  0  0
   10.2325  -12.1730  -14.0129 C   0  0  0  0  0  0  0  0  0  0  0  0
   10.7053  -12.0921  -12.7062 C   0  0  0  0  0  0  0  0  0  0  0  0
   10.0452  -12.7268  -11.6841 C   0  0  0  0  0  0  0  0  0  0  0  0
    6.8300  -17.1715   -9.4828 C   0  0  0  0  0  0  0  0  0  0  0  0
    6.1686  -17.3848   -8.2506 C   0  0  0  0  0  0  0  0  0  0  0  0
    5.7803  -18.6396   -7.8779 C   0  0  0  0  0  0  0  0  0  0  0  0
    6.0493  -19.6933   -8.7333 C   0  0  0  0  0  0  0  0  0  0  0  0
    6.6891  -19.4977   -9.9274 C   0  0  0  0  0  0  0  0  0  0  0  0
    7.0723  -18.2310  -10.2853 C   0  0  0  0  0  0  0  0  0  0  0  0
    6.4596  -14.5080   -7.7191 C   0  0  0  0  0  0  0  0  0  0  0  0
    5.2727  -13.7970   -7.6170 N   0  0  0  0  0  0  0  0  0  0  0  0
    4.3331  -13.5979   -8.5850 C   0  0  0  0  0  0  0  0  0  0  0  0
    2.9323  -13.9277   -8.4462 C   0  0  0  0  0  0  0  0  0  0  0  0
    2.2113  -14.2957   -9.5848 C   0  0  0  0  0  0  0  0  0  0  0  0
    0.8844  -14.6204   -9.5331 C   0  0  0  0  0  0  0  0  0  0  0  0
    0.1933  -14.5974   -8.3366 C   0  0  0  0  0  0  0  0  0  0  0  0
    0.8707  -14.2425   -7.2114 C   0  0  0  0  0  0  0  0  0  0  0  0
    2.2015  -13.9193   -7.2781 C   0  0  0  0  0  0  0  0  0  0  0  0
   -1.1390  -14.9734   -8.5892 O   0  0  0  0  0  0  0  0  0  0  0  0
   -1.1882  -15.5385   -9.8999 C   0  0  0  0  0  0  0  0  0  0  0  0
   -0.0125  -15.0076  -10.5193 O   0  0  0  0  0  0  0  0  0  0  0  0
    5.0618  -13.1491   -6.3395 C   0  0  0  0  0  0  0  0  0  0  0  0
    6.0102  -12.0481   -6.0785 C   0  0  0  0  0  0  0  0  0  0  0  0
    5.6514  -10.7431   -6.3897 C   0  0  0  0  0  0  0  0  0  0  0  0
    6.4928   -9.6823   -6.1740 C   0  0  0  0  0  0  0  0  0  0  0  0
    7.7467   -9.8932   -5.6292 C   0  0  0  0  0  0  0  0  0  0  0  0
    8.1316  -11.1767   -5.3100 C   0  0  0  0  0  0  0  0  0  0  0  0
    7.2815  -12.2475   -5.5280 C   0  0  0  0  0  0  0  0  0  0  0  0
    8.3205   -8.6283   -5.5496 O   0  0  0  0  0  0  0  0  0  0  0  0
    7.4306   -7.6355   -5.9832 C   0  0  0  0  0  0  0  0  0  0  0  0
    6.3020   -8.3298   -6.4216 O   0  0  0  0  0  0  0  0  0  0  0  0
  1  2  1  0
  2  3  1  0
  3  4  1  0
  4  5  1  0
  5  6  1  0
  6  7  2  0
  7  8  1  0
  8  9  2  0
  9 10  1  0
 10 11  2  0
 11 12  1  0
 12 13  2  0
 13 14  1  0
 14 15  2  0
  7 16  1  0
 16 17  2  0
 17 18  1  0
 18 19  2  0
 19 20  1  0
 20 21  2  0
  6 22  1  0
 22 23  1  0
 23 24  1  0
 24 25  1  0
 25 26  2  0
 26 27  1  0
 27 28  2  0
 28 29  1  0
 29 30  2  0
 28 31  1  0
 31 32  1  0
 32 33  1  0
 23 34  1  0
 34 35  1  0
 35 36  2  0
 36 37  1  0
 37 38  2  0
 38 39  1  0
 39 40  2  0
 38 41  1  0
 41 42  1  0
 42 43  1  0
  9  5  1  0
 15 10  1  0
 21 16  1  0
 30 25  1  0
 33 27  1  0
 40 35  1  0
 43 37  1  0
M  END
$$$$
