
     RDKit          3D

 43 49  0  0  0  0  0  0  0  0999 V2000
    5.6326   -3.7375   -1.1127 C   0  0  0  0  0  0  0  0  0  0  0  0
    4.4298   -3.3128   -0.2531 C   0  0  0  0  0  0  0  0  0  0  0  0
    4.8966   -3.2221    1.1576 C   0  0  0  0  0  0  0  0  0  0  0  0
    3.7875   -2.8283    2.1380 C   0  0  0  0  0  0  0  0  0  0  0  0
    4.3295   -2.5325    3.4583 N   0  0  0  0  0  0  0  0  0  0  0  0
    3.9375   -3.1233    4.6305 C   0  0  0  0  0  0  0  0  0  0  0  0
    4.6180   -2.5615    5.6734 C   0  0  0  0  0  0  0  0  0  0  0  0
    5.4323   -1.6201    5.1045 N   0  0  0  0  0  0  0  0  0  0  0  0
    5.2474   -1.6178    3.7821 C   0  0  0  0  0  0  0  0  0  0  0  0
    5.9921   -0.7280    2.8933 C   0  0  0  0  0  0  0  0  0  0  0  0
    6.0293    0.6462    3.1087 C   0  0  0  0  0  0  0  0  0  0  0  0
    6.7113    1.5269    2.3127 C   0  0  0  0  0  0  0  0  0  0  0  0
    7.3967    1.0068    1.2388 C   0  0  0  0  0  0  0  0  0  0  0  0
    7.3810   -0.3633    0.9938 C   0  0  0  0  0  0  0  0  0  0  0  0
    6.6843   -1.2120    1.8169 C   0  0  0  0  0  0  0  0  0  0  0  0
    4.5441   -2.7729    7.1219 C   0  0  0  0  0  0  0  0  0  0  0  0
    5.6989   -2.4206    7.8591 C   0  0  0  0  0  0  0  0  0  0  0  0
    5.7439   -2.6051    9.2112 C   0  0  0  0  0  0  0  0  0  0  0  0
    4.6351   -3.1434    9.8394 C   0  0  0  0  0  0  0  0  0  0  0  0
    3.5130   -3.4881    9.1354 C   0  0  0  0  0  0  0  0  0  0  0  0
    3.4855   -3.2964    7.7782 C   0  0  0  0  0  0  0  0  0  0  0  0
    2.8937   -4.1690    4.7408 C   0  0  0  0  0  0  0  0  0  0  0  0
    3.2489   -5.4898    4.5089 N   0  0  0  0  0  0  0  0  0  0  0  0
    2.8346   -6.2995    3.4928 C   0  0  0  0  0  0  0  0  0  0  0  0
    3.6296   -6.6258    2.3302 C   0  0  0  0  0  0  0  0  0  0  0  0
    2.9838   -6.8267    1.1078 C   0  0  0  0  0  0  0  0  0  0  0  0
    3.6673   -7.1387   -0.0342 C   0  0  0  0  0  0  0  0  0  0  0  0
    5.0430   -7.2698   -0.0257 C   0  0  0  0  0  0  0  0  0  0  0  0
    5.6981   -7.0796    1.1514 C   0  0  0  0  0  0  0  0  0  0  0  0
    4.9997   -6.7671    2.2892 C   0  0  0  0  0  0  0  0  0  0  0  0
    5.4638   -7.5913   -1.3295 O   0  0  0  0  0  0  0  0  0  0  0  0
    4.3682   -7.3432   -2.2114 C   0  0  0  0  0  0  0  0  0  0  0  0
    3.2390   -7.3770   -1.3330 O   0  0  0  0  0  0  0  0  0  0  0  0
    4.1143   -6.0706    5.5139 C   0  0  0  0  0  0  0  0  0  0  0  0
    3.3796   -6.7921    6.5720 C   0  0  0  0  0  0  0  0  0  0  0  0
    4.0838   -7.4459    7.5747 C   0  0  0  0  0  0  0  0  0  0  0  0
    3.4552   -8.1354    8.5792 C   0  0  0  0  0  0  0  0  0  0  0  0
    2.0738   -8.1968    8.6171 C   0  0  0  0  0  0  0  0  0  0  0  0
    1.3473   -7.5583    7.6362 C   0  0  0  0  0  0  0  0  0  0  0  0
    1.9827   -6.8622    6.6221 C   0  0  0  0  0  0  0  0  0  0  0  0
    1.7794   -8.9591    9.7430 O   0  0  0  0  0  0  0  0  0  0  0  0
    2.9449   -9.3255   10.4309 C   0  0  0  0  0  0  0  0  0  0  0  0
    3.9931   -8.8382    9.6486 O   0  0  0  0  0  0  0  0  0  0  0  0
  1  2  1  0
  2  3  1  0
  3  4  1  0
  4  5  1  0
  5  6  1  0
  6  7  2  0
  7  8  1  0
  8  9  2  0
  9 10  1  0
 10 11  2  0
 11 12  1  0
 12 13  2  0
 13 14  1  0
 14 15  2  0
  7 16  1  0
 16 17  2  0
 17 18  1  0
 18 19  2  0
 19 20  1  0
 20 21  2  0
  6 22  1  0
 22 23  1  0
 23 24  1  0
 24 25  1  0
 25 26  2  0
 26 27  1  0
 27 28  2  0
 28 29  1  0
 29 30  2  0
 28 31  1  0
 31 32  1  0
 32 33  1  0
 23 34  1  0
 34 35  1  0
 35 36  2  0
 36 37  1  0
 37 38  2  0
 38 39  1  0
 39 40  2  0
 38 41  1  0
 41 42  1  0
 42 43  1  0
  9  5  1  0
 15 10  1  0
 21 16  1  0
 30 25  1  0
 33 27  1  0
 40 35  1  0
 43 37  1  0
M  END
$$$$
