
     RDKit          3D

 43 49  0  0  0  0  0  0  0  0999 V2000
    5.7783   -9.4416   -2.4896 C   0  0  0  0  0  0  0  0  0  0  0  0
    5.2733   -9.2018   -3.9225 C   0  0  0  0  0  0  0  0  0  0  0  0
    5.6888  -10.3703   -4.7459 C   0  0  0  0  0  0  0  0  0  0  0  0
    5.1015  -10.3536   -6.1605 C   0  0  0  0  0  0  0  0  0  0  0  0
    5.9887  -11.0147   -7.1093 N   0  0  0  0  0  0  0  0  0  0  0  0
    5.8016  -12.2656   -7.6356 C   0  0  0  0  0  0  0  0  0  0  0  0
    6.8572  -12.5826   -8.4429 C   0  0  0  0  0  0  0  0  0  0  0  0
    7.6848  -11.4936   -8.3949 N   0  0  0  0  0  0  0  0  0  0  0  0
    7.1497  -10.5676   -7.5952 C   0  0  0  0  0  0  0  0  0  0  0  0
    7.7952   -9.2782   -7.3562 C   0  0  0  0  0  0  0  0  0  0  0  0
    8.0144   -8.8058   -6.0658 C   0  0  0  0  0  0  0  0  0  0  0  0
    8.6157   -7.6091   -5.7814 C   0  0  0  0  0  0  0  0  0  0  0  0
    9.0225   -6.8382   -6.8462 C   0  0  0  0  0  0  0  0  0  0  0  0
    8.8189   -7.2803   -8.1502 C   0  0  0  0  0  0  0  0  0  0  0  0
    8.2118   -8.4870   -8.3918 C   0  0  0  0  0  0  0  0  0  0  0  0
    7.1896  -13.7967   -9.1935 C   0  0  0  0  0  0  0  0  0  0  0  0
    8.5671  -14.1002   -9.3024 C   0  0  0  0  0  0  0  0  0  0  0  0
    8.9848  -15.1936  -10.0054 C   0  0  0  0  0  0  0  0  0  0  0  0
    8.0298  -15.9942  -10.6062 C   0  0  0  0  0  0  0  0  0  0  0  0
    6.6946  -15.7092  -10.5074 C   0  0  0  0  0  0  0  0  0  0  0  0
    6.2932  -14.6070   -9.7979 C   0  0  0  0  0  0  0  0  0  0  0  0
    4.6546  -13.1499   -7.3232 C   0  0  0  0  0  0  0  0  0  0  0  0
    4.6829  -13.8847   -6.1468 N   0  0  0  0  0  0  0  0  0  0  0  0
    5.5423  -13.7468   -5.0970 C   0  0  0  0  0  0  0  0  0  0  0  0
    5.1352  -13.6532   -3.7129 C   0  0  0  0  0  0  0  0  0  0  0  0
    4.1197  -12.7576   -3.3690 C   0  0  0  0  0  0  0  0  0  0  0  0
    3.6816  -12.6126   -2.0821 C   0  0  0  0  0  0  0  0  0  0  0  0
    4.2329  -13.3559   -1.0558 C   0  0  0  0  0  0  0  0  0  0  0  0
    5.2239  -14.2362   -1.3621 C   0  0  0  0  0  0  0  0  0  0  0  0
    5.6534  -14.3713   -2.6572 C   0  0  0  0  0  0  0  0  0  0  0  0
    3.5900  -12.9971    0.1435 O   0  0  0  0  0  0  0  0  0  0  0  0
    2.4170  -12.2578   -0.1985 C   0  0  0  0  0  0  0  0  0  0  0  0
    2.7050  -11.7997   -1.5233 O   0  0  0  0  0  0  0  0  0  0  0  0
    3.7138  -14.9582   -6.0789 C   0  0  0  0  0  0  0  0  0  0  0  0
    2.4199  -14.6184   -6.7036 C   0  0  0  0  0  0  0  0  0  0  0  0
    1.2974  -15.3860   -6.4215 C   0  0  0  0  0  0  0  0  0  0  0  0
    0.0720  -15.1205   -6.9760 C   0  0  0  0  0  0  0  0  0  0  0  0
   -0.0770  -14.0578   -7.8489 C   0  0  0  0  0  0  0  0  0  0  0  0
    1.0181  -13.2778   -8.1485 C   0  0  0  0  0  0  0  0  0  0  0  0
    2.2554  -13.5464   -7.5883 C   0  0  0  0  0  0  0  0  0  0  0  0
   -1.4196  -14.0783   -8.2131 O   0  0  0  0  0  0  0  0  0  0  0  0
   -2.1147  -15.0961   -7.5448 C   0  0  0  0  0  0  0  0  0  0  0  0
   -1.1413  -15.7738   -6.8089 O   0  0  0  0  0  0  0  0  0  0  0  0
  1  2  1  0
  2  3  1  0
  3  4  1  0
  4  5  1  0
  5  6  1  0
  6  7  2  0
  7  8  1  0
  8  9  2  0
  9 10  1  0
 10 11  2  0
 11 12  1  0
 12 13  2  0
 13 14  1  0
 14 15  2  0
  7 16  1  0
 16 17  2  0
 17 18  1  0
 18 19  2  0
 19 20  1  0
 20 21  2  0
  6 22  1  0
 22 23  1  0
 23 24  1  0
 24 25  1  0
 25 26  2  0
 26 27  1  0
 27 28  2  0
 28 29  1  0
 29 30  2  0
 28 31  1  0
 31 32  1  0
 32 33  1  0
 23 34  1  0
 34 35  1  0
 35 36  2  0
 36 37  1  0
 37 38  2  0
 38 39  1  0
 39 40  2  0
 38 41  1  0
 41 42  1  0
 42 43  1  0
  9  5  1  0
 15 10  1  0
 21 16  1  0
 30 25  1  0
 33 27  1  0
 40 35  1  0
 43 37  1  0
M  END
$$$$
