
     RDKit          3D

 43 49  0  0  0  0  0  0  0  0999 V2000
    7.5176  -10.3407   -8.6964 C   0  0  0  0  0  0  0  0  0  0  0  0
    6.9265  -11.1272   -9.8787 C   0  0  0  0  0  0  0  0  0  0  0  0
    6.9596  -12.5711   -9.5183 C   0  0  0  0  0  0  0  0  0  0  0  0
    5.8779  -13.3958  -10.2227 C   0  0  0  0  0  0  0  0  0  0  0  0
    5.9636  -14.8038   -9.8556 N   0  0  0  0  0  0  0  0  0  0  0  0
    5.4371  -15.3644   -8.7220 C   0  0  0  0  0  0  0  0  0  0  0  0
    5.7576  -16.6917   -8.6792 C   0  0  0  0  0  0  0  0  0  0  0  0
    6.4870  -16.9211   -9.8143 N   0  0  0  0  0  0  0  0  0  0  0  0
    6.5986  -15.7834  -10.5044 C   0  0  0  0  0  0  0  0  0  0  0  0
    7.3110  -15.7125  -11.7788 C   0  0  0  0  0  0  0  0  0  0  0  0
    7.2430  -16.7484  -12.7055 C   0  0  0  0  0  0  0  0  0  0  0  0
    7.8854  -16.7363  -13.9144 C   0  0  0  0  0  0  0  0  0  0  0  0
    8.6399  -15.6262  -14.2173 C   0  0  0  0  0  0  0  0  0  0  0  0
    8.7299  -14.5715  -13.3133 C   0  0  0  0  0  0  0  0  0  0  0  0
    8.0697  -14.6237  -12.1114 C   0  0  0  0  0  0  0  0  0  0  0  0
    5.5037  -17.7315   -7.6779 C   0  0  0  0  0  0  0  0  0  0  0  0
    6.4714  -18.7601   -7.5938 C   0  0  0  0  0  0  0  0  0  0  0  0
    6.3147  -19.7919   -6.7135 C   0  0  0  0  0  0  0  0  0  0  0  0
    5.1894  -19.8057   -5.9088 C   0  0  0  0  0  0  0  0  0  0  0  0
    4.2470  -18.8157   -5.9826 C   0  0  0  0  0  0  0  0  0  0  0  0
    4.4203  -17.7875   -6.8726 C   0  0  0  0  0  0  0  0  0  0  0  0
    4.6869  -14.6210   -7.6828 C   0  0  0  0  0  0  0  0  0  0  0  0
    4.9978  -13.2866   -7.4652 N   0  0  0  0  0  0  0  0  0  0  0  0
    6.1010  -12.7767   -6.8468 C   0  0  0  0  0  0  0  0  0  0  0  0
    6.1668  -11.4659   -6.2404 C   0  0  0  0  0  0  0  0  0  0  0  0
    6.7016  -10.4082   -6.9798 C   0  0  0  0  0  0  0  0  0  0  0  0
    6.7977   -9.1416   -6.4744 C   0  0  0  0  0  0  0  0  0  0  0  0
    6.3639   -8.8524   -5.1945 C   0  0  0  0  0  0  0  0  0  0  0  0
    5.8384   -9.8638   -4.4517 C   0  0  0  0  0  0  0  0  0  0  0  0
    5.7482  -11.1294   -4.9714 C   0  0  0  0  0  0  0  0  0  0  0  0
    6.5863   -7.4843   -4.9518 O   0  0  0  0  0  0  0  0  0  0  0  0
    6.8666   -6.8620   -6.2063 C   0  0  0  0  0  0  0  0  0  0  0  0
    7.2850   -7.9620   -7.0203 O   0  0  0  0  0  0  0  0  0  0  0  0
    3.9846  -12.3489   -7.9018 C   0  0  0  0  0  0  0  0  0  0  0  0
    2.6982  -12.9917   -8.2361 C   0  0  0  0  0  0  0  0  0  0  0  0
    2.3101  -14.1437   -7.5647 C   0  0  0  0  0  0  0  0  0  0  0  0
    1.1296  -14.7858   -7.8365 C   0  0  0  0  0  0  0  0  0  0  0  0
    0.2793  -14.2890   -8.8080 C   0  0  0  0  0  0  0  0  0  0  0  0
    0.6366  -13.1476   -9.4914 C   0  0  0  0  0  0  0  0  0  0  0  0
    1.8289  -12.4997   -9.2165 C   0  0  0  0  0  0  0  0  0  0  0  0
   -0.8005  -15.1661   -8.8223 O   0  0  0  0  0  0  0  0  0  0  0  0
   -0.6619  -16.1628   -7.8460 C   0  0  0  0  0  0  0  0  0  0  0  0
    0.5891  -15.9327   -7.2713 O   0  0  0  0  0  0  0  0  0  0  0  0
  1  2  1  0
  2  3  1  0
  3  4  1  0
  4  5  1  0
  5  6  1  0
  6  7  2  0
  7  8  1  0
  8  9  2  0
  9 10  1  0
 10 11  2  0
 11 12  1  0
 12 13  2  0
 13 14  1  0
 14 15  2  0
  7 16  1  0
 16 17  2  0
 17 18  1  0
 18 19  2  0
 19 20  1  0
 20 21  2  0
  6 22  1  0
 22 23  1  0
 23 24  1  0
 24 25  1  0
 25 26  2  0
 26 27  1  0
 27 28  2  0
 28 29  1  0
 29 30  2  0
 28 31  1  0
 31 32  1  0
 32 33  1  0
 23 34  1  0
 34 35  1  0
 35 36  2  0
 36 37  1  0
 37 38  2  0
 38 39  1  0
 39 40  2  0
 38 41  1  0
 41 42  1  0
 42 43  1  0
  9  5  1  0
 15 10  1  0
 21 16  1  0
 30 25  1  0
 33 27  1  0
 40 35  1  0
 43 37  1  0
M  END
$$$$
