
     RDKit          3D

 43 49  0  0  0  0  0  0  0  0999 V2000
   -0.7556   -1.2231   18.5660 C   0  0  0  0  0  0  0  0  0  0  0  0
   -0.3440   -1.6099   17.1353 C   0  0  0  0  0  0  0  0  0  0  0  0
   -0.6582   -0.4547   16.2504 C   0  0  0  0  0  0  0  0  0  0  0  0
   -0.4136   -0.7450   14.7664 C   0  0  0  0  0  0  0  0  0  0  0  0
    0.6135    0.1320   14.2184 N   0  0  0  0  0  0  0  0  0  0  0  0
    1.9510   -0.1555   14.1476 C   0  0  0  0  0  0  0  0  0  0  0  0
    2.6205    0.9166   13.6294 C   0  0  0  0  0  0  0  0  0  0  0  0
    1.6568    1.8573   13.3856 N   0  0  0  0  0  0  0  0  0  0  0  0
    0.4654    1.3711   13.7421 C   0  0  0  0  0  0  0  0  0  0  0  0
   -0.7680    2.1394   13.5846 C   0  0  0  0  0  0  0  0  0  0  0  0
   -0.7595    3.5310   13.5831 C   0  0  0  0  0  0  0  0  0  0  0  0
   -1.8811    4.3023   13.4367 C   0  0  0  0  0  0  0  0  0  0  0  0
   -3.0817    3.6479   13.2827 C   0  0  0  0  0  0  0  0  0  0  0  0
   -3.1266    2.2567   13.2795 C   0  0  0  0  0  0  0  0  0  0  0  0
   -1.9782    1.5205   13.4292 C   0  0  0  0  0  0  0  0  0  0  0  0
    4.0461    1.1652   13.3966 C   0  0  0  0  0  0  0  0  0  0  0  0
    4.8727    0.0188   13.3337 C   0  0  0  0  0  0  0  0  0  0  0  0
    6.2199    0.1422   13.1492 C   0  0  0  0  0  0  0  0  0  0  0  0
    6.7538    1.4126   13.0257 C   0  0  0  0  0  0  0  0  0  0  0  0
    5.9630    2.5281   13.0856 C   0  0  0  0  0  0  0  0  0  0  0  0
    4.6123    2.3855   13.2718 C   0  0  0  0  0  0  0  0  0  0  0  0
    2.5691   -1.4173   14.6179 C   0  0  0  0  0  0  0  0  0  0  0  0
    2.5989   -2.5043   13.7565 N   0  0  0  0  0  0  0  0  0  0  0  0
    2.9076   -2.5085   12.4282 C   0  0  0  0  0  0  0  0  0  0  0  0
    4.1538   -2.9941   11.8791 C   0  0  0  0  0  0  0  0  0  0  0  0
    4.3784   -2.8691   10.5060 C   0  0  0  0  0  0  0  0  0  0  0  0
    5.5309   -3.3051    9.9139 C   0  0  0  0  0  0  0  0  0  0  0  0
    6.5338   -3.8949   10.6597 C   0  0  0  0  0  0  0  0  0  0  0  0
    6.3418   -4.0295   11.9998 C   0  0  0  0  0  0  0  0  0  0  0  0
    5.1808   -3.5877   12.5802 C   0  0  0  0  0  0  0  0  0  0  0  0
    7.5861   -4.2381    9.7908 O   0  0  0  0  0  0  0  0  0  0  0  0
    7.3606   -3.5661    8.5511 C   0  0  0  0  0  0  0  0  0  0  0  0
    5.9585   -3.2829    8.5935 O   0  0  0  0  0  0  0  0  0  0  0  0
    2.1900   -3.7599   14.3501 C   0  0  0  0  0  0  0  0  0  0  0  0
    0.8773   -4.2344   13.8687 C   0  0  0  0  0  0  0  0  0  0  0  0
   -0.0545   -3.3185   13.3979 C   0  0  0  0  0  0  0  0  0  0  0  0
   -1.2902   -3.7008   12.9435 C   0  0  0  0  0  0  0  0  0  0  0  0
   -1.6446   -5.0380   12.9440 C   0  0  0  0  0  0  0  0  0  0  0  0
   -0.7416   -5.9705   13.4051 C   0  0  0  0  0  0  0  0  0  0  0  0
    0.5061   -5.5838   13.8638 C   0  0  0  0  0  0  0  0  0  0  0  0
   -2.9368   -5.0668   12.4293 O   0  0  0  0  0  0  0  0  0  0  0  0
   -3.3690   -3.7847   12.0618 C   0  0  0  0  0  0  0  0  0  0  0  0
   -2.3324   -2.9318   12.4441 O   0  0  0  0  0  0  0  0  0  0  0  0
  1  2  1  0
  2  3  1  0
  3  4  1  0
  4  5  1  0
  5  6  1  0
  6  7  2  0
  7  8  1  0
  8  9  2  0
  9 10  1  0
 10 11  2  0
 11 12  1  0
 12 13  2  0
 13 14  1  0
 14 15  2  0
  7 16  1  0
 16 17  2  0
 17 18  1  0
 18 19  2  0
 19 20  1  0
 20 21  2  0
  6 22  1  0
 22 23  1  0
 23 24  1  0
 24 25  1  0
 25 26  2  0
 26 27  1  0
 27 28  2  0
 28 29  1  0
 29 30  2  0
 28 31  1  0
 31 32  1  0
 32 33  1  0
 23 34  1  0
 34 35  1  0
 35 36  2  0
 36 37  1  0
 37 38  2  0
 38 39  1  0
 39 40  2  0
 38 41  1  0
 41 42  1  0
 42 43  1  0
  9  5  1  0
 15 10  1  0
 21 16  1  0
 30 25  1  0
 33 27  1  0
 40 35  1  0
 43 37  1  0
M  END
$$$$
