
     RDKit          3D

 43 49  0  0  0  0  0  0  0  0999 V2000
    2.3467   -3.3339   15.9100 C   0  0  0  0  0  0  0  0  0  0  0  0
    1.0205   -3.4982   15.1483 C   0  0  0  0  0  0  0  0  0  0  0  0
    1.3420   -3.5595   13.6961 C   0  0  0  0  0  0  0  0  0  0  0  0
    0.2035   -3.0580   12.8024 C   0  0  0  0  0  0  0  0  0  0  0  0
   -0.1921   -1.7018   13.1612 N   0  0  0  0  0  0  0  0  0  0  0  0
    0.4204   -0.5540   12.7323 C   0  0  0  0  0  0  0  0  0  0  0  0
   -0.1806    0.5271   13.3122 C   0  0  0  0  0  0  0  0  0  0  0  0
   -1.1723    0.0066   14.0988 N   0  0  0  0  0  0  0  0  0  0  0  0
   -1.1649   -1.3246   13.9951 C   0  0  0  0  0  0  0  0  0  0  0  0
   -2.1239   -2.1665   14.7078 C   0  0  0  0  0  0  0  0  0  0  0  0
   -1.7171   -3.3060   15.3952 C   0  0  0  0  0  0  0  0  0  0  0  0
   -2.5684   -4.1295   16.0818 C   0  0  0  0  0  0  0  0  0  0  0  0
   -3.9038   -3.7975   16.0832 C   0  0  0  0  0  0  0  0  0  0  0  0
   -4.3453   -2.6645   15.4059 C   0  0  0  0  0  0  0  0  0  0  0  0
   -3.4583   -1.8652   14.7295 C   0  0  0  0  0  0  0  0  0  0  0  0
    0.1089    1.9625   13.2498 C   0  0  0  0  0  0  0  0  0  0  0  0
    1.3629    2.3183   12.7001 C   0  0  0  0  0  0  0  0  0  0  0  0
    1.7420    3.6277   12.6229 C   0  0  0  0  0  0  0  0  0  0  0  0
    0.8713    4.5940   13.0943 C   0  0  0  0  0  0  0  0  0  0  0  0
   -0.3440    4.2604   13.6284 C   0  0  0  0  0  0  0  0  0  0  0  0
   -0.7081    2.9406   13.6984 C   0  0  0  0  0  0  0  0  0  0  0  0
    1.5903   -0.5104   11.8241 C   0  0  0  0  0  0  0  0  0  0  0  0
    2.7235   -1.2347   12.1646 N   0  0  0  0  0  0  0  0  0  0  0  0
    2.7833   -2.4782   12.7211 C   0  0  0  0  0  0  0  0  0  0  0  0
    2.6735   -3.7135   11.9780 C   0  0  0  0  0  0  0  0  0  0  0  0
    3.8428   -4.3583   11.5673 C   0  0  0  0  0  0  0  0  0  0  0  0
    3.8195   -5.5285   10.8609 C   0  0  0  0  0  0  0  0  0  0  0  0
    2.6224   -6.1290   10.5201 C   0  0  0  0  0  0  0  0  0  0  0  0
    1.4676   -5.5228   10.9073 C   0  0  0  0  0  0  0  0  0  0  0  0
    1.5060   -4.3493   11.6153 C   0  0  0  0  0  0  0  0  0  0  0  0
    2.9075   -7.3063    9.8039 O   0  0  0  0  0  0  0  0  0  0  0  0
    4.2946   -7.5958    9.9814 C   0  0  0  0  0  0  0  0  0  0  0  0
    4.8382   -6.3273   10.3600 O   0  0  0  0  0  0  0  0  0  0  0  0
    3.9750   -0.5392   11.9497 C   0  0  0  0  0  0  0  0  0  0  0  0
    4.5032    0.1044   13.1690 C   0  0  0  0  0  0  0  0  0  0  0  0
    5.4631   -0.5490   13.9308 C   0  0  0  0  0  0  0  0  0  0  0  0
    5.9855   -0.0022   15.0744 C   0  0  0  0  0  0  0  0  0  0  0  0
    5.5582    1.2411   15.5048 C   0  0  0  0  0  0  0  0  0  0  0  0
    4.6067    1.9141   14.7703 C   0  0  0  0  0  0  0  0  0  0  0  0
    4.0796    1.3614   13.6156 C   0  0  0  0  0  0  0  0  0  0  0  0
    6.2788    1.4846   16.6697 O   0  0  0  0  0  0  0  0  0  0  0  0
    7.1794    0.4446   16.9400 C   0  0  0  0  0  0  0  0  0  0  0  0
    6.9391   -0.5071   15.9477 O   0  0  0  0  0  0  0  0  0  0  0  0
  1  2  1  0
  2  3  1  0
  3  4  1  0
  4  5  1  0
  5  6  1  0
  6  7  2  0
  7  8  1  0
  8  9  2  0
  9 10  1  0
 10 11  2  0
 11 12  1  0
 12 13  2  0
 13 14  1  0
 14 15  2  0
  7 16  1  0
 16 17  2  0
 17 18  1  0
 18 19  2  0
 19 20  1  0
 20 21  2  0
  6 22  1  0
 22 23  1  0
 23 24  1  0
 24 25  1  0
 25 26  2  0
 26 27  1  0
 27 28  2  0
 28 29  1  0
 29 30  2  0
 28 31  1  0
 31 32  1  0
 32 33  1  0
 23 34  1  0
 34 35  1  0
 35 36  2  0
 36 37  1  0
 37 38  2  0
 38 39  1  0
 39 40  2  0
 38 41  1  0
 41 42  1  0
 42 43  1  0
  9  5  1  0
 15 10  1  0
 21 16  1  0
 30 25  1  0
 33 27  1  0
 40 35  1  0
 43 37  1  0
M  END
$$$$
