
     RDKit          3D

 43 49  0  0  0  0  0  0  0  0999 V2000
    0.7737   -2.6581    4.6175 C   0  0  0  0  0  0  0  0  0  0  0  0
    1.4998   -3.6415    5.5511 C   0  0  0  0  0  0  0  0  0  0  0  0
    2.0051   -2.8642    6.7159 C   0  0  0  0  0  0  0  0  0  0  0  0
    2.9020   -3.6846    7.6480 C   0  0  0  0  0  0  0  0  0  0  0  0
    3.6371   -2.8244    8.5666 N   0  0  0  0  0  0  0  0  0  0  0  0
    3.2858   -2.5610    9.8642 C   0  0  0  0  0  0  0  0  0  0  0  0
    4.1711   -1.6715   10.4041 C   0  0  0  0  0  0  0  0  0  0  0  0
    5.0671   -1.4059    9.4043 N   0  0  0  0  0  0  0  0  0  0  0  0
    4.7333   -2.1036    8.3158 C   0  0  0  0  0  0  0  0  0  0  0  0
    5.5151   -2.0433    7.0823 C   0  0  0  0  0  0  0  0  0  0  0  0
    5.7736   -3.1863    6.3318 C   0  0  0  0  0  0  0  0  0  0  0  0
    6.4960   -3.1903    5.1688 C   0  0  0  0  0  0  0  0  0  0  0  0
    6.9896   -1.9838    4.7281 C   0  0  0  0  0  0  0  0  0  0  0  0
    6.7498   -0.8207    5.4542 C   0  0  0  0  0  0  0  0  0  0  0  0
    6.0203   -0.8605    6.6158 C   0  0  0  0  0  0  0  0  0  0  0  0
    4.2296   -1.0165   11.7140 C   0  0  0  0  0  0  0  0  0  0  0  0
    3.0018   -0.5253   12.2165 C   0  0  0  0  0  0  0  0  0  0  0  0
    2.9520    0.1267   13.4151 C   0  0  0  0  0  0  0  0  0  0  0  0
    4.1289    0.2940   14.1229 C   0  0  0  0  0  0  0  0  0  0  0  0
    5.3221   -0.1769   13.6454 C   0  0  0  0  0  0  0  0  0  0  0  0
    5.3536   -0.8288   12.4398 C   0  0  0  0  0  0  0  0  0  0  0  0
    2.0939   -3.1179   10.5456 C   0  0  0  0  0  0  0  0  0  0  0  0
    2.1501   -4.4178   11.0269 N   0  0  0  0  0  0  0  0  0  0  0  0
    3.1524   -5.3272   10.8595 C   0  0  0  0  0  0  0  0  0  0  0  0
    3.1360   -6.3929    9.8827 C   0  0  0  0  0  0  0  0  0  0  0  0
    4.2138   -6.5160    9.0026 C   0  0  0  0  0  0  0  0  0  0  0  0
    4.2694   -7.4969    8.0520 C   0  0  0  0  0  0  0  0  0  0  0  0
    3.2481   -8.4187    7.9215 C   0  0  0  0  0  0  0  0  0  0  0  0
    2.1856   -8.3225    8.7658 C   0  0  0  0  0  0  0  0  0  0  0  0
    2.1432   -7.3335    9.7145 C   0  0  0  0  0  0  0  0  0  0  0  0
    3.5774   -9.2966    6.8722 O   0  0  0  0  0  0  0  0  0  0  0  0
    4.9590   -9.1056    6.5654 C   0  0  0  0  0  0  0  0  0  0  0  0
    5.2240   -7.8013    7.0912 O   0  0  0  0  0  0  0  0  0  0  0  0
    0.9647   -4.8544   11.7344 C   0  0  0  0  0  0  0  0  0  0  0  0
    1.1124   -4.8147   13.2029 C   0  0  0  0  0  0  0  0  0  0  0  0
    0.6705   -3.7032   13.9086 C   0  0  0  0  0  0  0  0  0  0  0  0
    0.7862   -3.6091   15.2715 C   0  0  0  0  0  0  0  0  0  0  0  0
    1.3588   -4.6429   15.9904 C   0  0  0  0  0  0  0  0  0  0  0  0
    1.8069   -5.7589   15.3186 C   0  0  0  0  0  0  0  0  0  0  0  0
    1.6897   -5.8533   13.9423 C   0  0  0  0  0  0  0  0  0  0  0  0
    1.3169   -4.2240   17.3164 O   0  0  0  0  0  0  0  0  0  0  0  0
    0.6839   -2.9790   17.4390 C   0  0  0  0  0  0  0  0  0  0  0  0
    0.4042   -2.5866   16.1291 O   0  0  0  0  0  0  0  0  0  0  0  0
  1  2  1  0
  2  3  1  0
  3  4  1  0
  4  5  1  0
  5  6  1  0
  6  7  2  0
  7  8  1  0
  8  9  2  0
  9 10  1  0
 10 11  2  0
 11 12  1  0
 12 13  2  0
 13 14  1  0
 14 15  2  0
  7 16  1  0
 16 17  2  0
 17 18  1  0
 18 19  2  0
 19 20  1  0
 20 21  2  0
  6 22  1  0
 22 23  1  0
 23 24  1  0
 24 25  1  0
 25 26  2  0
 26 27  1  0
 27 28  2  0
 28 29  1  0
 29 30  2  0
 28 31  1  0
 31 32  1  0
 32 33  1  0
 23 34  1  0
 34 35  1  0
 35 36  2  0
 36 37  1  0
 37 38  2  0
 38 39  1  0
 39 40  2  0
 38 41  1  0
 41 42  1  0
 42 43  1  0
  9  5  1  0
 15 10  1  0
 21 16  1  0
 30 25  1  0
 33 27  1  0
 40 35  1  0
 43 37  1  0
M  END
$$$$
