
     RDKit          3D

 43 49  0  0  0  0  0  0  0  0999 V2000
  -15.9591   17.2041   -4.8936 C   0  0  0  0  0  0  0  0  0  0  0  0
  -15.4651   15.8713   -5.4813 C   0  0  0  0  0  0  0  0  0  0  0  0
  -14.3254   16.1763   -6.3891 C   0  0  0  0  0  0  0  0  0  0  0  0
  -14.7669   16.6767   -7.7678 C   0  0  0  0  0  0  0  0  0  0  0  0
  -13.6195   16.9382   -8.6278 N   0  0  0  0  0  0  0  0  0  0  0  0
  -12.9995   16.0169   -9.4300 C   0  0  0  0  0  0  0  0  0  0  0  0
  -11.9289   16.5984  -10.0481 C   0  0  0  0  0  0  0  0  0  0  0  0
  -11.9180   17.8928   -9.6036 N   0  0  0  0  0  0  0  0  0  0  0  0
  -12.9347   18.0775   -8.7579 C   0  0  0  0  0  0  0  0  0  0  0  0
  -13.1978   19.3695   -8.1270 C   0  0  0  0  0  0  0  0  0  0  0  0
  -13.7948   20.4111   -8.8307 C   0  0  0  0  0  0  0  0  0  0  0  0
  -14.0678   21.6400   -8.2922 C   0  0  0  0  0  0  0  0  0  0  0  0
  -13.7256   21.8421   -6.9748 C   0  0  0  0  0  0  0  0  0  0  0  0
  -13.1270   20.8217   -6.2413 C   0  0  0  0  0  0  0  0  0  0  0  0
  -12.8705   19.6039   -6.8194 C   0  0  0  0  0  0  0  0  0  0  0  0
  -10.9047   16.0623  -10.9490 C   0  0  0  0  0  0  0  0  0  0  0  0
  -11.3813   15.3577  -12.0794 C   0  0  0  0  0  0  0  0  0  0  0  0
  -10.5093   14.7938  -12.9659 C   0  0  0  0  0  0  0  0  0  0  0  0
   -9.1525   14.9288  -12.7311 C   0  0  0  0  0  0  0  0  0  0  0  0
   -8.6810   15.6080  -11.6403 C   0  0  0  0  0  0  0  0  0  0  0  0
   -9.5710   16.1674  -10.7603 C   0  0  0  0  0  0  0  0  0  0  0  0
  -13.4044   14.5971   -9.5538 C   0  0  0  0  0  0  0  0  0  0  0  0
  -12.6380   13.6296   -8.9203 N   0  0  0  0  0  0  0  0  0  0  0  0
  -11.3019   13.6681   -8.6501 C   0  0  0  0  0  0  0  0  0  0  0  0
  -10.6761   13.0161   -7.5216 C   0  0  0  0  0  0  0  0  0  0  0  0
   -9.2841   13.0537   -7.4095 C   0  0  0  0  0  0  0  0  0  0  0  0
   -8.6208   12.4600   -6.3719 C   0  0  0  0  0  0  0  0  0  0  0  0
   -9.3095   11.7897   -5.3789 C   0  0  0  0  0  0  0  0  0  0  0  0
  -10.6664   11.7373   -5.4629 C   0  0  0  0  0  0  0  0  0  0  0  0
  -11.3185   12.3372   -6.5091 C   0  0  0  0  0  0  0  0  0  0  0  0
   -8.3742   11.2877   -4.4550 O   0  0  0  0  0  0  0  0  0  0  0  0
   -7.1237   11.9267   -4.7144 C   0  0  0  0  0  0  0  0  0  0  0  0
   -7.2696   12.3741   -6.0658 O   0  0  0  0  0  0  0  0  0  0  0  0
  -13.3546   12.4211   -8.5709 C   0  0  0  0  0  0  0  0  0  0  0  0
  -14.1100   11.8421   -9.6996 C   0  0  0  0  0  0  0  0  0  0  0  0
  -13.5229   10.8621  -10.4893 C   0  0  0  0  0  0  0  0  0  0  0  0
  -14.1744   10.2927  -11.5528 C   0  0  0  0  0  0  0  0  0  0  0  0
  -15.4607   10.6907  -11.8701 C   0  0  0  0  0  0  0  0  0  0  0  0
  -16.0700   11.6610  -11.1052 C   0  0  0  0  0  0  0  0  0  0  0  0
  -15.4115   12.2356  -10.0314 C   0  0  0  0  0  0  0  0  0  0  0  0
  -15.8098    9.9257  -12.9783 O   0  0  0  0  0  0  0  0  0  0  0  0
  -14.7895    9.0270  -13.3206 C   0  0  0  0  0  0  0  0  0  0  0  0
  -13.7464    9.3134  -12.4386 O   0  0  0  0  0  0  0  0  0  0  0  0
  1  2  1  0
  2  3  1  0
  3  4  1  0
  4  5  1  0
  5  6  1  0
  6  7  2  0
  7  8  1  0
  8  9  2  0
  9 10  1  0
 10 11  2  0
 11 12  1  0
 12 13  2  0
 13 14  1  0
 14 15  2  0
  7 16  1  0
 16 17  2  0
 17 18  1  0
 18 19  2  0
 19 20  1  0
 20 21  2  0
  6 22  1  0
 22 23  1  0
 23 24  1  0
 24 25  1  0
 25 26  2  0
 26 27  1  0
 27 28  2  0
 28 29  1  0
 29 30  2  0
 28 31  1  0
 31 32  1  0
 32 33  1  0
 23 34  1  0
 34 35  1  0
 35 36  2  0
 36 37  1  0
 37 38  2  0
 38 39  1  0
 39 40  2  0
 38 41  1  0
 41 42  1  0
 42 43  1  0
  9  5  1  0
 15 10  1  0
 21 16  1  0
 30 25  1  0
 33 27  1  0
 40 35  1  0
 43 37  1  0
M  END
$$$$
