
     RDKit          3D

 43 49  0  0  0  0  0  0  0  0999 V2000
    6.1954   -4.0876   11.4068 C   0  0  0  0  0  0  0  0  0  0  0  0
    5.2160   -2.9084   11.2796 C   0  0  0  0  0  0  0  0  0  0  0  0
    3.8396   -3.4726   11.2227 C   0  0  0  0  0  0  0  0  0  0  0  0
    2.8972   -2.6788   10.3127 C   0  0  0  0  0  0  0  0  0  0  0  0
    3.3303   -2.7384    8.9222 N   0  0  0  0  0  0  0  0  0  0  0  0
    2.8937   -3.6427    7.9904 C   0  0  0  0  0  0  0  0  0  0  0  0
    3.5539   -3.4373    6.8122 C   0  0  0  0  0  0  0  0  0  0  0  0
    4.3970   -2.3863    7.0523 N   0  0  0  0  0  0  0  0  0  0  0  0
    4.2489   -1.9816    8.3161 C   0  0  0  0  0  0  0  0  0  0  0  0
    5.0051   -0.8591    8.8680 C   0  0  0  0  0  0  0  0  0  0  0  0
    6.0281   -1.0582    9.7901 C   0  0  0  0  0  0  0  0  0  0  0  0
    6.7712   -0.0472   10.3380 C   0  0  0  0  0  0  0  0  0  0  0  0
    6.4773    1.2378    9.9431 C   0  0  0  0  0  0  0  0  0  0  0  0
    5.4603    1.4730    9.0222 C   0  0  0  0  0  0  0  0  0  0  0  0
    4.7389    0.4306    8.4969 C   0  0  0  0  0  0  0  0  0  0  0  0
    3.5170   -4.1453    5.5294 C   0  0  0  0  0  0  0  0  0  0  0  0
    4.7644   -4.3319    4.8887 C   0  0  0  0  0  0  0  0  0  0  0  0
    4.8368   -4.9542    3.6755 C   0  0  0  0  0  0  0  0  0  0  0  0
    3.6632   -5.3960    3.0912 C   0  0  0  0  0  0  0  0  0  0  0  0
    2.4512   -5.2200    3.7024 C   0  0  0  0  0  0  0  0  0  0  0  0
    2.3971   -4.5926    4.9202 C   0  0  0  0  0  0  0  0  0  0  0  0
    1.8999   -4.7102    8.2512 C   0  0  0  0  0  0  0  0  0  0  0  0
    2.3392   -5.9094    8.7931 N   0  0  0  0  0  0  0  0  0  0  0  0
    3.3609   -6.1020    9.6754 C   0  0  0  0  0  0  0  0  0  0  0  0
    3.1852   -6.3742   11.0844 C   0  0  0  0  0  0  0  0  0  0  0  0
    3.7754   -7.5179   11.6278 C   0  0  0  0  0  0  0  0  0  0  0  0
    3.6531   -7.8422   12.9502 C   0  0  0  0  0  0  0  0  0  0  0  0
    2.9311   -7.0412   13.8145 C   0  0  0  0  0  0  0  0  0  0  0  0
    2.3455   -5.9207   13.3122 C   0  0  0  0  0  0  0  0  0  0  0  0
    2.4764   -5.6077   11.9837 C   0  0  0  0  0  0  0  0  0  0  0  0
    2.9798   -7.6194   15.0965 O   0  0  0  0  0  0  0  0  0  0  0  0
    4.0044   -8.6142   15.0842 C   0  0  0  0  0  0  0  0  0  0  0  0
    4.1452   -8.9082   13.6907 O   0  0  0  0  0  0  0  0  0  0  0  0
    1.6541   -7.0852    8.2989 C   0  0  0  0  0  0  0  0  0  0  0  0
    2.4590   -7.8730    7.3442 C   0  0  0  0  0  0  0  0  0  0  0  0
    2.2033   -7.7731    5.9827 C   0  0  0  0  0  0  0  0  0  0  0  0
    2.9148   -8.4841    5.0512 C   0  0  0  0  0  0  0  0  0  0  0  0
    3.9264   -9.3365    5.4559 C   0  0  0  0  0  0  0  0  0  0  0  0
    4.2038   -9.4571    6.7998 C   0  0  0  0  0  0  0  0  0  0  0  0
    3.4849   -8.7388    7.7400 C   0  0  0  0  0  0  0  0  0  0  0  0
    4.4265   -9.8841    4.2788 O   0  0  0  0  0  0  0  0  0  0  0  0
    3.7830   -9.3502    3.1533 C   0  0  0  0  0  0  0  0  0  0  0  0
    2.7968   -8.5073    3.6683 O   0  0  0  0  0  0  0  0  0  0  0  0
  1  2  1  0
  2  3  1  0
  3  4  1  0
  4  5  1  0
  5  6  1  0
  6  7  2  0
  7  8  1  0
  8  9  2  0
  9 10  1  0
 10 11  2  0
 11 12  1  0
 12 13  2  0
 13 14  1  0
 14 15  2  0
  7 16  1  0
 16 17  2  0
 17 18  1  0
 18 19  2  0
 19 20  1  0
 20 21  2  0
  6 22  1  0
 22 23  1  0
 23 24  1  0
 24 25  1  0
 25 26  2  0
 26 27  1  0
 27 28  2  0
 28 29  1  0
 29 30  2  0
 28 31  1  0
 31 32  1  0
 32 33  1  0
 23 34  1  0
 34 35  1  0
 35 36  2  0
 36 37  1  0
 37 38  2  0
 38 39  1  0
 39 40  2  0
 38 41  1  0
 41 42  1  0
 42 43  1  0
  9  5  1  0
 15 10  1  0
 21 16  1  0
 30 25  1  0
 33 27  1  0
 40 35  1  0
 43 37  1  0
M  END
$$$$
