
     RDKit          3D

 43 49  0  0  0  0  0  0  0  0999 V2000
   -3.3689    1.4638   15.9202 C   0  0  0  0  0  0  0  0  0  0  0  0
   -2.9483    0.1411   15.2573 C   0  0  0  0  0  0  0  0  0  0  0  0
   -1.5668    0.3217   14.7330 C   0  0  0  0  0  0  0  0  0  0  0  0
   -1.4171   -0.0926   13.2659 C   0  0  0  0  0  0  0  0  0  0  0  0
   -0.0747    0.1872   12.7719 N   0  0  0  0  0  0  0  0  0  0  0  0
    1.0561   -0.5135   13.0988 C   0  0  0  0  0  0  0  0  0  0  0  0
    2.1388    0.0626   12.4969 C   0  0  0  0  0  0  0  0  0  0  0  0
    1.6361    1.1253   11.7962 N   0  0  0  0  0  0  0  0  0  0  0  0
    0.3136    1.1833   11.9712 C   0  0  0  0  0  0  0  0  0  0  0  0
   -0.5124    2.2054   11.3313 C   0  0  0  0  0  0  0  0  0  0  0  0
   -1.0897    1.9936   10.0830 C   0  0  0  0  0  0  0  0  0  0  0  0
   -1.8736    2.9117    9.4373 C   0  0  0  0  0  0  0  0  0  0  0  0
   -2.0952    4.1115   10.0736 C   0  0  0  0  0  0  0  0  0  0  0  0
   -1.5331    4.3567   11.3232 C   0  0  0  0  0  0  0  0  0  0  0  0
   -0.7528    3.4089   11.9363 C   0  0  0  0  0  0  0  0  0  0  0  0
    3.5716   -0.2406   12.5550 C   0  0  0  0  0  0  0  0  0  0  0  0
    3.9259   -1.5972   12.3664 C   0  0  0  0  0  0  0  0  0  0  0  0
    5.2319   -1.9901   12.4302 C   0  0  0  0  0  0  0  0  0  0  0  0
    6.1964   -1.0310   12.6830 C   0  0  0  0  0  0  0  0  0  0  0  0
    5.8642    0.2840   12.8674 C   0  0  0  0  0  0  0  0  0  0  0  0
    4.5477    0.6607   12.8004 C   0  0  0  0  0  0  0  0  0  0  0  0
    1.0919   -1.6798   14.0119 C   0  0  0  0  0  0  0  0  0  0  0  0
    0.7657   -2.9299   13.5064 N   0  0  0  0  0  0  0  0  0  0  0  0
    0.7569   -3.3264   12.2017 C   0  0  0  0  0  0  0  0  0  0  0  0
    1.8080   -4.0939   11.5724 C   0  0  0  0  0  0  0  0  0  0  0  0
    2.0127   -5.4148   11.9787 C   0  0  0  0  0  0  0  0  0  0  0  0
    2.9867   -6.2025   11.4313 C   0  0  0  0  0  0  0  0  0  0  0  0
    3.8193   -5.7177   10.4406 C   0  0  0  0  0  0  0  0  0  0  0  0
    3.6424   -4.4343   10.0253 C   0  0  0  0  0  0  0  0  0  0  0  0
    2.6615   -3.6556   10.5833 C   0  0  0  0  0  0  0  0  0  0  0  0
    4.7125   -6.7417   10.0746 O   0  0  0  0  0  0  0  0  0  0  0  0
    4.2170   -7.9643   10.6215 C   0  0  0  0  0  0  0  0  0  0  0  0
    3.3609   -7.5164   11.6772 O   0  0  0  0  0  0  0  0  0  0  0  0
    0.3276   -3.8895   14.4981 C   0  0  0  0  0  0  0  0  0  0  0  0
    0.1445   -3.3015   15.8400 C   0  0  0  0  0  0  0  0  0  0  0  0
    1.2125   -3.2669   16.7271 C   0  0  0  0  0  0  0  0  0  0  0  0
    1.0995   -2.7381   17.9869 C   0  0  0  0  0  0  0  0  0  0  0  0
   -0.1085   -2.2152   18.4123 C   0  0  0  0  0  0  0  0  0  0  0  0
   -1.1866   -2.2351   17.5549 C   0  0  0  0  0  0  0  0  0  0  0  0
   -1.0718   -2.7694   16.2828 C   0  0  0  0  0  0  0  0  0  0  0  0
    0.1286   -1.7743   19.7103 O   0  0  0  0  0  0  0  0  0  0  0  0
    1.4682   -1.9645   20.0777 C   0  0  0  0  0  0  0  0  0  0  0  0
    2.0495   -2.6221   18.9924 O   0  0  0  0  0  0  0  0  0  0  0  0
  1  2  1  0
  2  3  1  0
  3  4  1  0
  4  5  1  0
  5  6  1  0
  6  7  2  0
  7  8  1  0
  8  9  2  0
  9 10  1  0
 10 11  2  0
 11 12  1  0
 12 13  2  0
 13 14  1  0
 14 15  2  0
  7 16  1  0
 16 17  2  0
 17 18  1  0
 18 19  2  0
 19 20  1  0
 20 21  2  0
  6 22  1  0
 22 23  1  0
 23 24  1  0
 24 25  1  0
 25 26  2  0
 26 27  1  0
 27 28  2  0
 28 29  1  0
 29 30  2  0
 28 31  1  0
 31 32  1  0
 32 33  1  0
 23 34  1  0
 34 35  1  0
 35 36  2  0
 36 37  1  0
 37 38  2  0
 38 39  1  0
 39 40  2  0
 38 41  1  0
 41 42  1  0
 42 43  1  0
  9  5  1  0
 15 10  1  0
 21 16  1  0
 30 25  1  0
 33 27  1  0
 40 35  1  0
 43 37  1  0
M  END
$$$$
