
     RDKit          3D

 43 49  0  0  0  0  0  0  0  0999 V2000
   -0.1853    2.6852   13.2990 C   0  0  0  0  0  0  0  0  0  0  0  0
    0.4829    1.7035   14.2765 C   0  0  0  0  0  0  0  0  0  0  0  0
    0.2282    0.3260   13.7729 C   0  0  0  0  0  0  0  0  0  0  0  0
    0.8056   -0.7661   14.6786 C   0  0  0  0  0  0  0  0  0  0  0  0
    0.5343   -2.0946   14.1439 N   0  0  0  0  0  0  0  0  0  0  0  0
    1.4649   -2.9377   13.5963 C   0  0  0  0  0  0  0  0  0  0  0  0
    0.8460   -4.0707   13.1494 C   0  0  0  0  0  0  0  0  0  0  0  0
   -0.4793   -3.8943   13.4422 N   0  0  0  0  0  0  0  0  0  0  0  0
   -0.6462   -2.7102   14.0364 C   0  0  0  0  0  0  0  0  0  0  0  0
   -1.9558   -2.2426   14.4864 C   0  0  0  0  0  0  0  0  0  0  0  0
   -3.1325   -2.7678   13.9610 C   0  0  0  0  0  0  0  0  0  0  0  0
   -4.3853   -2.3714   14.3455 C   0  0  0  0  0  0  0  0  0  0  0  0
   -4.4700   -1.3942   15.3105 C   0  0  0  0  0  0  0  0  0  0  0  0
   -3.3130   -0.8469   15.8576 C   0  0  0  0  0  0  0  0  0  0  0  0
   -2.0757   -1.2727   15.4440 C   0  0  0  0  0  0  0  0  0  0  0  0
    1.3499   -5.2508   12.4413 C   0  0  0  0  0  0  0  0  0  0  0  0
    2.4674   -5.8930   13.0245 C   0  0  0  0  0  0  0  0  0  0  0  0
    3.0316   -6.9842   12.4286 C   0  0  0  0  0  0  0  0  0  0  0  0
    2.4843   -7.4441   11.2441 C   0  0  0  0  0  0  0  0  0  0  0  0
    1.4036   -6.8298   10.6712 C   0  0  0  0  0  0  0  0  0  0  0  0
    0.8500   -5.7349   11.2832 C   0  0  0  0  0  0  0  0  0  0  0  0
    2.9082   -2.6302   13.4641 C   0  0  0  0  0  0  0  0  0  0  0  0
    3.3715   -2.1196   12.2602 N   0  0  0  0  0  0  0  0  0  0  0  0
    2.8105   -2.2558   11.0247 C   0  0  0  0  0  0  0  0  0  0  0  0
    3.5541   -2.5152    9.8123 C   0  0  0  0  0  0  0  0  0  0  0  0
    2.8985   -3.1194    8.7368 C   0  0  0  0  0  0  0  0  0  0  0  0
    3.5347   -3.3968    7.5590 C   0  0  0  0  0  0  0  0  0  0  0  0
    4.8697   -3.0866    7.3822 C   0  0  0  0  0  0  0  0  0  0  0  0
    5.5332   -2.4974    8.4134 C   0  0  0  0  0  0  0  0  0  0  0  0
    4.8825   -2.2249    9.5892 C   0  0  0  0  0  0  0  0  0  0  0  0
    5.2471   -3.4835    6.0859 O   0  0  0  0  0  0  0  0  0  0  0  0
    4.0526   -3.7499    5.3498 C   0  0  0  0  0  0  0  0  0  0  0  0
    3.0883   -3.9811    6.3816 O   0  0  0  0  0  0  0  0  0  0  0  0
    4.6337   -1.4155   12.3457 C   0  0  0  0  0  0  0  0  0  0  0  0
    5.5549   -1.9863   13.3484 C   0  0  0  0  0  0  0  0  0  0  0  0
    6.2705   -3.1381   13.0480 C   0  0  0  0  0  0  0  0  0  0  0  0
    7.1358   -3.7150   13.9412 C   0  0  0  0  0  0  0  0  0  0  0  0
    7.3196   -3.1498   15.1904 C   0  0  0  0  0  0  0  0  0  0  0  0
    6.6239   -2.0069   15.5179 C   0  0  0  0  0  0  0  0  0  0  0  0
    5.7502   -1.4247   14.6154 C   0  0  0  0  0  0  0  0  0  0  0  0
    8.2439   -3.9739   15.8245 O   0  0  0  0  0  0  0  0  0  0  0  0
    8.6750   -5.0046   14.9773 C   0  0  0  0  0  0  0  0  0  0  0  0
    7.9226   -4.8512   13.8117 O   0  0  0  0  0  0  0  0  0  0  0  0
  1  2  1  0
  2  3  1  0
  3  4  1  0
  4  5  1  0
  5  6  1  0
  6  7  2  0
  7  8  1  0
  8  9  2  0
  9 10  1  0
 10 11  2  0
 11 12  1  0
 12 13  2  0
 13 14  1  0
 14 15  2  0
  7 16  1  0
 16 17  2  0
 17 18  1  0
 18 19  2  0
 19 20  1  0
 20 21  2  0
  6 22  1  0
 22 23  1  0
 23 24  1  0
 24 25  1  0
 25 26  2  0
 26 27  1  0
 27 28  2  0
 28 29  1  0
 29 30  2  0
 28 31  1  0
 31 32  1  0
 32 33  1  0
 23 34  1  0
 34 35  1  0
 35 36  2  0
 36 37  1  0
 37 38  2  0
 38 39  1  0
 39 40  2  0
 38 41  1  0
 41 42  1  0
 42 43  1  0
  9  5  1  0
 15 10  1  0
 21 16  1  0
 30 25  1  0
 33 27  1  0
 40 35  1  0
 43 37  1  0
M  END
$$$$
