
     RDKit          3D

 43 49  0  0  0  0  0  0  0  0999 V2000
    2.0919    1.5857   17.7437 C   0  0  0  0  0  0  0  0  0  0  0  0
    1.8877    0.1534   17.2217 C   0  0  0  0  0  0  0  0  0  0  0  0
    1.0934    0.2427   15.9658 C   0  0  0  0  0  0  0  0  0  0  0  0
    0.8019   -1.1226   15.3355 C   0  0  0  0  0  0  0  0  0  0  0  0
    0.0984   -0.9799   14.0670 N   0  0  0  0  0  0  0  0  0  0  0  0
    0.6902   -0.8122   12.8429 C   0  0  0  0  0  0  0  0  0  0  0  0
   -0.2744   -0.6569   11.8881 C   0  0  0  0  0  0  0  0  0  0  0  0
   -1.4626   -0.7378   12.5625 N   0  0  0  0  0  0  0  0  0  0  0  0
   -1.2204   -0.9318   13.8613 C   0  0  0  0  0  0  0  0  0  0  0  0
   -2.2957   -1.0771   14.8406 C   0  0  0  0  0  0  0  0  0  0  0  0
   -2.2202   -2.0151   15.8657 C   0  0  0  0  0  0  0  0  0  0  0  0
   -3.1936   -2.1940   16.8117 C   0  0  0  0  0  0  0  0  0  0  0  0
   -4.3077   -1.3904   16.7311 C   0  0  0  0  0  0  0  0  0  0  0  0
   -4.4159   -0.4415   15.7184 C   0  0  0  0  0  0  0  0  0  0  0  0
   -3.4167   -0.2944   14.7894 C   0  0  0  0  0  0  0  0  0  0  0  0
   -0.1978   -0.3903   10.4489 C   0  0  0  0  0  0  0  0  0  0  0  0
    0.8945   -0.9768    9.7675 C   0  0  0  0  0  0  0  0  0  0  0  0
    1.0738   -0.7667    8.4304 C   0  0  0  0  0  0  0  0  0  0  0  0
    0.1631    0.0316    7.7615 C   0  0  0  0  0  0  0  0  0  0  0  0
   -0.8968    0.6042    8.4114 C   0  0  0  0  0  0  0  0  0  0  0  0
   -1.0611    0.3828    9.7544 C   0  0  0  0  0  0  0  0  0  0  0  0
    2.1528   -0.7530   12.6135 C   0  0  0  0  0  0  0  0  0  0  0  0
    2.8293   -1.9304   12.3296 N   0  0  0  0  0  0  0  0  0  0  0  0
    2.9458   -3.0371   13.1179 C   0  0  0  0  0  0  0  0  0  0  0  0
    2.5355   -4.3671   12.7271 C   0  0  0  0  0  0  0  0  0  0  0  0
    2.6829   -5.4130   13.6415 C   0  0  0  0  0  0  0  0  0  0  0  0
    2.3187   -6.6967   13.3445 C   0  0  0  0  0  0  0  0  0  0  0  0
    1.7828   -7.0162   12.1114 C   0  0  0  0  0  0  0  0  0  0  0  0
    1.6279   -6.0170   11.2012 C   0  0  0  0  0  0  0  0  0  0  0  0
    1.9976   -4.7339   11.5127 C   0  0  0  0  0  0  0  0  0  0  0  0
    1.5073   -8.3960   12.0940 O   0  0  0  0  0  0  0  0  0  0  0  0
    1.5799   -8.8689   13.4396 C   0  0  0  0  0  0  0  0  0  0  0  0
    2.3747   -7.8693   14.0854 O   0  0  0  0  0  0  0  0  0  0  0  0
    3.5374   -1.9336   11.0667 C   0  0  0  0  0  0  0  0  0  0  0  0
    4.9282   -1.4502   11.1749 C   0  0  0  0  0  0  0  0  0  0  0  0
    5.9075   -1.9820   10.3461 C   0  0  0  0  0  0  0  0  0  0  0  0
    7.2154   -1.5752   10.4054 C   0  0  0  0  0  0  0  0  0  0  0  0
    7.5976   -0.6038   11.3131 C   0  0  0  0  0  0  0  0  0  0  0  0
    6.6489   -0.0571   12.1490 C   0  0  0  0  0  0  0  0  0  0  0  0
    5.3282   -0.4683   12.0885 C   0  0  0  0  0  0  0  0  0  0  0  0
    8.9631   -0.4368   11.1061 O   0  0  0  0  0  0  0  0  0  0  0  0
    9.4231   -1.2439   10.0560 C   0  0  0  0  0  0  0  0  0  0  0  0
    8.3121   -1.9922    9.6636 O   0  0  0  0  0  0  0  0  0  0  0  0
  1  2  1  0
  2  3  1  0
  3  4  1  0
  4  5  1  0
  5  6  1  0
  6  7  2  0
  7  8  1  0
  8  9  2  0
  9 10  1  0
 10 11  2  0
 11 12  1  0
 12 13  2  0
 13 14  1  0
 14 15  2  0
  7 16  1  0
 16 17  2  0
 17 18  1  0
 18 19  2  0
 19 20  1  0
 20 21  2  0
  6 22  1  0
 22 23  1  0
 23 24  1  0
 24 25  1  0
 25 26  2  0
 26 27  1  0
 27 28  2  0
 28 29  1  0
 29 30  2  0
 28 31  1  0
 31 32  1  0
 32 33  1  0
 23 34  1  0
 34 35  1  0
 35 36  2  0
 36 37  1  0
 37 38  2  0
 38 39  1  0
 39 40  2  0
 38 41  1  0
 41 42  1  0
 42 43  1  0
  9  5  1  0
 15 10  1  0
 21 16  1  0
 30 25  1  0
 33 27  1  0
 40 35  1  0
 43 37  1  0
M  END
$$$$
