
     RDKit          3D

 43 49  0  0  0  0  0  0  0  0999 V2000
   -1.7163   -5.0459   10.6210 C   0  0  0  0  0  0  0  0  0  0  0  0
   -0.2410   -5.1212   11.0497 C   0  0  0  0  0  0  0  0  0  0  0  0
    0.2827   -3.7287   11.1010 C   0  0  0  0  0  0  0  0  0  0  0  0
    1.7793   -3.6562   11.4195 C   0  0  0  0  0  0  0  0  0  0  0  0
    2.2292   -2.2746   11.5339 N   0  0  0  0  0  0  0  0  0  0  0  0
    1.8909   -1.4079   12.5394 C   0  0  0  0  0  0  0  0  0  0  0  0
    2.4475   -0.1848   12.2929 C   0  0  0  0  0  0  0  0  0  0  0  0
    3.1323   -0.3331   11.1173 N   0  0  0  0  0  0  0  0  0  0  0  0
    2.9917   -1.5868   10.6798 C   0  0  0  0  0  0  0  0  0  0  0  0
    3.6256   -2.0581    9.4500 C   0  0  0  0  0  0  0  0  0  0  0  0
    3.8907   -1.1919    8.3936 C   0  0  0  0  0  0  0  0  0  0  0  0
    4.4840   -1.5753    7.2208 C   0  0  0  0  0  0  0  0  0  0  0  0
    4.8335   -2.9001    7.0938 C   0  0  0  0  0  0  0  0  0  0  0  0
    4.5830   -3.7940    8.1309 C   0  0  0  0  0  0  0  0  0  0  0  0
    3.9859   -3.3683    9.2909 C   0  0  0  0  0  0  0  0  0  0  0  0
    2.3590    1.0952   13.0013 C   0  0  0  0  0  0  0  0  0  0  0  0
    1.1058    1.3948   13.5853 C   0  0  0  0  0  0  0  0  0  0  0  0
    0.9095    2.5750   14.2432 C   0  0  0  0  0  0  0  0  0  0  0  0
    1.9639    3.4670   14.3238 C   0  0  0  0  0  0  0  0  0  0  0  0
    3.1802    3.1871   13.7619 C   0  0  0  0  0  0  0  0  0  0  0  0
    3.3594    1.9975   13.1046 C   0  0  0  0  0  0  0  0  0  0  0  0
    1.0093   -1.7433   13.6820 C   0  0  0  0  0  0  0  0  0  0  0  0
    1.5131   -2.5419   14.6983 N   0  0  0  0  0  0  0  0  0  0  0  0
    2.8206   -2.8040   14.9836 C   0  0  0  0  0  0  0  0  0  0  0  0
    3.6145   -3.8178   14.3262 C   0  0  0  0  0  0  0  0  0  0  0  0
    4.7934   -3.4363   13.6810 C   0  0  0  0  0  0  0  0  0  0  0  0
    5.5956   -4.3369   13.0375 C   0  0  0  0  0  0  0  0  0  0  0  0
    5.2685   -5.6791   12.9986 C   0  0  0  0  0  0  0  0  0  0  0  0
    4.1256   -6.0788   13.6188 C   0  0  0  0  0  0  0  0  0  0  0  0
    3.3304   -5.1645   14.2605 C   0  0  0  0  0  0  0  0  0  0  0  0
    6.2680   -6.3561   12.2753 O   0  0  0  0  0  0  0  0  0  0  0  0
    7.3803   -5.4705   12.1412 C   0  0  0  0  0  0  0  0  0  0  0  0
    6.7882   -4.1835   12.3439 O   0  0  0  0  0  0  0  0  0  0  0  0
    0.5089   -3.2129   15.4967 C   0  0  0  0  0  0  0  0  0  0  0  0
   -0.5117   -2.2967   16.0435 C   0  0  0  0  0  0  0  0  0  0  0  0
   -1.8188   -2.3677   15.5796 C   0  0  0  0  0  0  0  0  0  0  0  0
   -2.8064   -1.5395   16.0470 C   0  0  0  0  0  0  0  0  0  0  0  0
   -2.5162   -0.5930   17.0132 C   0  0  0  0  0  0  0  0  0  0  0  0
   -1.2285   -0.4982   17.4932 C   0  0  0  0  0  0  0  0  0  0  0  0
   -0.2316   -1.3348   17.0208 C   0  0  0  0  0  0  0  0  0  0  0  0
   -3.7222    0.0588   17.2504 O   0  0  0  0  0  0  0  0  0  0  0  0
   -4.7616   -0.4981   16.4921 C   0  0  0  0  0  0  0  0  0  0  0  0
   -4.1490   -1.4715   15.7012 O   0  0  0  0  0  0  0  0  0  0  0  0
  1  2  1  0
  2  3  1  0
  3  4  1  0
  4  5  1  0
  5  6  1  0
  6  7  2  0
  7  8  1  0
  8  9  2  0
  9 10  1  0
 10 11  2  0
 11 12  1  0
 12 13  2  0
 13 14  1  0
 14 15  2  0
  7 16  1  0
 16 17  2  0
 17 18  1  0
 18 19  2  0
 19 20  1  0
 20 21  2  0
  6 22  1  0
 22 23  1  0
 23 24  1  0
 24 25  1  0
 25 26  2  0
 26 27  1  0
 27 28  2  0
 28 29  1  0
 29 30  2  0
 28 31  1  0
 31 32  1  0
 32 33  1  0
 23 34  1  0
 34 35  1  0
 35 36  2  0
 36 37  1  0
 37 38  2  0
 38 39  1  0
 39 40  2  0
 38 41  1  0
 41 42  1  0
 42 43  1  0
  9  5  1  0
 15 10  1  0
 21 16  1  0
 30 25  1  0
 33 27  1  0
 40 35  1  0
 43 37  1  0
M  END
$$$$
