
     RDKit          3D

 43 49  0  0  0  0  0  0  0  0999 V2000
    4.3163  -17.9327   -3.4257 C   0  0  0  0  0  0  0  0  0  0  0  0
    3.4927  -16.7161   -3.8812 C   0  0  0  0  0  0  0  0  0  0  0  0
    4.3921  -15.5302   -3.8546 C   0  0  0  0  0  0  0  0  0  0  0  0
    3.6854  -14.2258   -4.2362 C   0  0  0  0  0  0  0  0  0  0  0  0
    4.6306  -13.1203   -4.3300 N   0  0  0  0  0  0  0  0  0  0  0  0
    5.4400  -12.8538   -5.4026 C   0  0  0  0  0  0  0  0  0  0  0  0
    6.2328  -11.7780   -5.1187 C   0  0  0  0  0  0  0  0  0  0  0  0
    5.8818  -11.3986   -3.8515 N   0  0  0  0  0  0  0  0  0  0  0  0
    4.9236  -12.2102   -3.3973 C   0  0  0  0  0  0  0  0  0  0  0  0
    4.3272  -12.0461   -2.0731 C   0  0  0  0  0  0  0  0  0  0  0  0
    5.1036  -11.7274   -0.9631 C   0  0  0  0  0  0  0  0  0  0  0  0
    4.6006  -11.5587    0.2990 C   0  0  0  0  0  0  0  0  0  0  0  0
    3.2438  -11.7169    0.4642 C   0  0  0  0  0  0  0  0  0  0  0  0
    2.4373  -12.0357   -0.6246 C   0  0  0  0  0  0  0  0  0  0  0  0
    2.9819  -12.1962   -1.8739 C   0  0  0  0  0  0  0  0  0  0  0  0
    7.3012  -11.1186   -5.8750 C   0  0  0  0  0  0  0  0  0  0  0  0
    8.5379  -11.8037   -5.9259 C   0  0  0  0  0  0  0  0  0  0  0  0
    9.6065  -11.2618   -6.5806 C   0  0  0  0  0  0  0  0  0  0  0  0
    9.4493  -10.0301   -7.1907 C   0  0  0  0  0  0  0  0  0  0  0  0
    8.2573   -9.3587   -7.1468 C   0  0  0  0  0  0  0  0  0  0  0  0
    7.1949   -9.9176   -6.4846 C   0  0  0  0  0  0  0  0  0  0  0  0
    5.4792  -13.6529   -6.6496 C   0  0  0  0  0  0  0  0  0  0  0  0
    4.8282  -13.1642   -7.7730 N   0  0  0  0  0  0  0  0  0  0  0  0
    5.1869  -13.3200   -9.0794 C   0  0  0  0  0  0  0  0  0  0  0  0
    6.1297  -12.4737   -9.7758 C   0  0  0  0  0  0  0  0  0  0  0  0
    7.4188  -12.9564  -10.0147 C   0  0  0  0  0  0  0  0  0  0  0  0
    8.3650  -12.2149  -10.6657 C   0  0  0  0  0  0  0  0  0  0  0  0
    8.0809  -10.9411  -11.1200 C   0  0  0  0  0  0  0  0  0  0  0  0
    6.8330  -10.4456  -10.9010 C   0  0  0  0  0  0  0  0  0  0  0  0
    5.8938  -11.2004  -10.2466 C   0  0  0  0  0  0  0  0  0  0  0  0
    9.2332  -10.4278  -11.7437 O   0  0  0  0  0  0  0  0  0  0  0  0
   10.1331  -11.5166  -11.9539 C   0  0  0  0  0  0  0  0  0  0  0  0
    9.6828  -12.4889  -11.0053 O   0  0  0  0  0  0  0  0  0  0  0  0
    3.6686  -12.3438   -7.4931 C   0  0  0  0  0  0  0  0  0  0  0  0
    2.4051  -12.9309   -7.9818 C   0  0  0  0  0  0  0  0  0  0  0  0
    1.9708  -14.1484   -7.4739 C   0  0  0  0  0  0  0  0  0  0  0  0
    0.8091  -14.7431   -7.8937 C   0  0  0  0  0  0  0  0  0  0  0  0
    0.0256  -14.1296   -8.8547 C   0  0  0  0  0  0  0  0  0  0  0  0
    0.4300  -12.9211   -9.3778 C   0  0  0  0  0  0  0  0  0  0  0  0
    1.6033  -12.3211   -8.9534 C   0  0  0  0  0  0  0  0  0  0  0  0
   -1.0531  -14.9884   -9.0398 O   0  0  0  0  0  0  0  0  0  0  0  0
   -0.9815  -16.0918   -8.1777 C   0  0  0  0  0  0  0  0  0  0  0  0
    0.2297  -15.9417   -7.5005 O   0  0  0  0  0  0  0  0  0  0  0  0
  1  2  1  0
  2  3  1  0
  3  4  1  0
  4  5  1  0
  5  6  1  0
  6  7  2  0
  7  8  1  0
  8  9  2  0
  9 10  1  0
 10 11  2  0
 11 12  1  0
 12 13  2  0
 13 14  1  0
 14 15  2  0
  7 16  1  0
 16 17  2  0
 17 18  1  0
 18 19  2  0
 19 20  1  0
 20 21  2  0
  6 22  1  0
 22 23  1  0
 23 24  1  0
 24 25  1  0
 25 26  2  0
 26 27  1  0
 27 28  2  0
 28 29  1  0
 29 30  2  0
 28 31  1  0
 31 32  1  0
 32 33  1  0
 23 34  1  0
 34 35  1  0
 35 36  2  0
 36 37  1  0
 37 38  2  0
 38 39  1  0
 39 40  2  0
 38 41  1  0
 41 42  1  0
 42 43  1  0
  9  5  1  0
 15 10  1  0
 21 16  1  0
 30 25  1  0
 33 27  1  0
 40 35  1  0
 43 37  1  0
M  END
$$$$
