
     RDKit          3D

 30 34  0  0  0  0  0  0  0  0999 V2000
    0.4499   -4.9892   13.7477 C   0  0  0  0  0  0  0  0  0  0  0  0
   -0.7610   -4.4322   14.3890 C   0  0  0  0  0  0  0  0  0  0  0  0
   -1.8106   -3.8853   13.6821 C   0  0  0  0  0  0  0  0  0  0  0  0
   -2.8790   -3.4008   14.4065 C   0  0  0  0  0  0  0  0  0  0  0  0
   -3.8579   -2.8911   13.7634 O   0  0  0  0  0  0  0  0  0  0  0  0
   -2.9535   -3.4309   15.7378 N   0  0  0  0  0  0  0  0  0  0  0  0
   -4.1420   -2.8866   16.3859 C   0  0  0  0  0  0  0  0  0  0  0  0
   -4.2371   -3.1873   17.8357 C   0  0  0  0  0  0  0  0  0  0  0  0
   -3.3323   -4.2905   18.3208 C   0  0  0  0  0  0  0  0  0  0  0  0
   -1.9180   -4.0427   17.9017 C   0  0  0  0  0  0  0  0  0  0  0  0
   -1.9201   -3.9678   16.4017 C   0  0  0  0  0  0  0  0  0  0  0  0
   -0.8638   -4.4490   15.7310 N   0  0  0  0  0  0  0  0  0  0  0  0
   -1.7576   -3.8377   12.1976 C   0  0  0  0  0  0  0  0  0  0  0  0
   -1.7269   -2.3986   11.7586 C   0  0  0  0  0  0  0  0  0  0  0  0
   -0.7599   -2.0649   10.7950 N   0  0  0  0  0  0  0  0  0  0  0  0
    0.5288   -1.6711   11.2276 C   0  0  0  0  0  0  0  0  0  0  0  0
    0.9591   -0.4743   10.3757 C   0  0  0  0  0  0  0  0  0  0  0  0
    0.3054   -0.6251    8.9858 C   0  0  0  0  0  0  0  0  0  0  0  0
    0.3106   -2.0776    8.6715 C   0  0  0  0  0  0  0  0  0  0  0  0
   -0.7320   -2.7940    9.5798 C   0  0  0  0  0  0  0  0  0  0  0  0
    0.9385    0.3079    8.0837 C   0  0  0  0  0  0  0  0  0  0  0  0
    1.3246   -0.0502    6.8024 N   0  0  0  0  0  0  0  0  0  0  0  0
    1.8672    0.9362    6.1962 O   0  0  0  0  0  0  0  0  0  0  0  0
    1.8801    1.9853    7.0045 C   0  0  0  0  0  0  0  0  0  0  0  0
    1.2966    1.6127    8.2068 C   0  0  0  0  0  0  0  0  0  0  0  0
    1.1710    2.5052    9.2454 C   0  0  0  0  0  0  0  0  0  0  0  0
    1.6457    3.7938    9.0569 C   0  0  0  0  0  0  0  0  0  0  0  0
    2.2324    4.2171    7.8869 C   0  0  0  0  0  0  0  0  0  0  0  0
    2.3335    3.2758    6.8727 C   0  0  0  0  0  0  0  0  0  0  0  0
    2.6881    5.4947    7.7386 F   0  0  0  0  0  0  0  0  0  0  0  0
  1  2  1  0
  2  3  2  0
  3  4  1  0
  4  5  2  0
  4  6  1  0
  6  7  1  0
  7  8  1  0
  8  9  1  0
  9 10  1  0
 10 11  1  0
 11 12  2  0
  3 13  1  0
 13 14  1  0
 14 15  1  0
 15 16  1  0
 16 17  1  0
 17 18  1  0
 18 19  1  0
 19 20  1  0
 18 21  1  0
 21 22  2  0
 22 23  1  0
 23 24  1  0
 24 25  2  0
 25 26  1  0
 26 27  2  0
 27 28  1  0
 28 29  2  0
 28 30  1  0
 12  2  1  0
 11  6  1  0
 20 15  1  0
 25 21  1  0
 29 24  1  0
M  END
$$$$
