
     RDKit          3D

 30 34  0  0  0  0  0  0  0  0999 V2000
   -1.1618   -5.3361   13.4892 C   0  0  0  0  0  0  0  0  0  0  0  0
   -0.6294   -4.4615   14.5568 C   0  0  0  0  0  0  0  0  0  0  0  0
   -0.9612   -3.1293   14.6821 C   0  0  0  0  0  0  0  0  0  0  0  0
   -0.3909   -2.4291   15.7240 C   0  0  0  0  0  0  0  0  0  0  0  0
   -0.6899   -1.1937   15.8510 O   0  0  0  0  0  0  0  0  0  0  0  0
    0.4542   -2.9618   16.6075 N   0  0  0  0  0  0  0  0  0  0  0  0
    0.9875   -2.1128   17.6675 C   0  0  0  0  0  0  0  0  0  0  0  0
    1.7147   -2.8495   18.7304 C   0  0  0  0  0  0  0  0  0  0  0  0
    1.4705   -4.3363   18.7598 C   0  0  0  0  0  0  0  0  0  0  0  0
    1.7044   -4.9414   17.4120 C   0  0  0  0  0  0  0  0  0  0  0  0
    0.7607   -4.2589   16.4638 C   0  0  0  0  0  0  0  0  0  0  0  0
    0.2256   -4.9719   15.4625 N   0  0  0  0  0  0  0  0  0  0  0  0
   -1.9008   -2.5067   13.7134 C   0  0  0  0  0  0  0  0  0  0  0  0
   -1.3142   -2.6120   12.3316 C   0  0  0  0  0  0  0  0  0  0  0  0
   -0.4837   -1.5523   11.9284 N   0  0  0  0  0  0  0  0  0  0  0  0
   -0.5888   -0.3091   12.5963 C   0  0  0  0  0  0  0  0  0  0  0  0
   -0.5401    0.7936   11.5358 C   0  0  0  0  0  0  0  0  0  0  0  0
    0.3309    0.2861   10.3671 C   0  0  0  0  0  0  0  0  0  0  0  0
    1.4291   -0.5108   10.9733 C   0  0  0  0  0  0  0  0  0  0  0  0
    0.8415   -1.8456   11.5196 C   0  0  0  0  0  0  0  0  0  0  0  0
    0.6434    1.4086    9.5142 C   0  0  0  0  0  0  0  0  0  0  0  0
    0.8515    2.6825   10.0170 N   0  0  0  0  0  0  0  0  0  0  0  0
    1.1058    3.5095    9.0755 O   0  0  0  0  0  0  0  0  0  0  0  0
    1.0855    2.8656    7.9183 C   0  0  0  0  0  0  0  0  0  0  0  0
    0.7950    1.5324    8.1698 C   0  0  0  0  0  0  0  0  0  0  0  0
    0.7077    0.6165    7.1477 C   0  0  0  0  0  0  0  0  0  0  0  0
    0.9191    1.0642    5.8531 C   0  0  0  0  0  0  0  0  0  0  0  0
    1.2099    2.3733    5.5465 C   0  0  0  0  0  0  0  0  0  0  0  0
    1.2857    3.2543    6.6156 C   0  0  0  0  0  0  0  0  0  0  0  0
    1.4117    2.7767    4.2587 F   0  0  0  0  0  0  0  0  0  0  0  0
  1  2  1  0
  2  3  2  0
  3  4  1  0
  4  5  2  0
  4  6  1  0
  6  7  1  0
  7  8  1  0
  8  9  1  0
  9 10  1  0
 10 11  1  0
 11 12  2  0
  3 13  1  0
 13 14  1  0
 14 15  1  0
 15 16  1  0
 16 17  1  0
 17 18  1  0
 18 19  1  0
 19 20  1  0
 18 21  1  0
 21 22  2  0
 22 23  1  0
 23 24  1  0
 24 25  2  0
 25 26  1  0
 26 27  2  0
 27 28  1  0
 28 29  2  0
 28 30  1  0
 12  2  1  0
 11  6  1  0
 20 15  1  0
 25 21  1  0
 29 24  1  0
M  END
$$$$
