
     RDKit          3D

 30 34  0  0  0  0  0  0  0  0999 V2000
   -1.6344   -0.1908   15.6354 C   0  0  0  0  0  0  0  0  0  0  0  0
   -2.2790   -1.5202   15.5625 C   0  0  0  0  0  0  0  0  0  0  0  0
   -2.5156   -2.1846   14.3781 C   0  0  0  0  0  0  0  0  0  0  0  0
   -3.1259   -3.4187   14.4543 C   0  0  0  0  0  0  0  0  0  0  0  0
   -3.3511   -4.0447   13.3639 O   0  0  0  0  0  0  0  0  0  0  0  0
   -3.4961   -3.9993   15.5964 N   0  0  0  0  0  0  0  0  0  0  0  0
   -4.1321   -5.3113   15.5419 C   0  0  0  0  0  0  0  0  0  0  0  0
   -4.2796   -5.9723   16.8620 C   0  0  0  0  0  0  0  0  0  0  0  0
   -3.4373   -5.3889   17.9671 C   0  0  0  0  0  0  0  0  0  0  0  0
   -3.6386   -3.9100   18.0664 C   0  0  0  0  0  0  0  0  0  0  0  0
   -3.2548   -3.3327   16.7341 C   0  0  0  0  0  0  0  0  0  0  0  0
   -2.6632   -2.1302   16.6992 N   0  0  0  0  0  0  0  0  0  0  0  0
   -2.1142   -1.5640   13.0887 C   0  0  0  0  0  0  0  0  0  0  0  0
   -0.7291   -2.0335   12.7342 C   0  0  0  0  0  0  0  0  0  0  0  0
   -0.3600   -1.9118   11.3836 N   0  0  0  0  0  0  0  0  0  0  0  0
    0.8051   -2.5755   10.9308 C   0  0  0  0  0  0  0  0  0  0  0  0
    1.5612   -1.6121   10.0126 C   0  0  0  0  0  0  0  0  0  0  0  0
    0.5216   -0.7027    9.3241 C   0  0  0  0  0  0  0  0  0  0  0  0
   -0.6685   -1.5506    9.0534 C   0  0  0  0  0  0  0  0  0  0  0  0
   -1.3814   -1.8646   10.4019 C   0  0  0  0  0  0  0  0  0  0  0  0
    1.1738   -0.0110    8.2371 C   0  0  0  0  0  0  0  0  0  0  0  0
    1.5747   -0.6626    7.0823 N   0  0  0  0  0  0  0  0  0  0  0  0
    2.1329    0.1509    6.2689 O   0  0  0  0  0  0  0  0  0  0  0  0
    2.1424    1.3610    6.8073 C   0  0  0  0  0  0  0  0  0  0  0  0
    1.5398    1.2846    8.0547 C   0  0  0  0  0  0  0  0  0  0  0  0
    1.4066    2.3972    8.8518 C   0  0  0  0  0  0  0  0  0  0  0  0
    1.8933    3.6032    8.3721 C   0  0  0  0  0  0  0  0  0  0  0  0
    2.4990    3.7365    7.1443 C   0  0  0  0  0  0  0  0  0  0  0  0
    2.6070    2.5822    6.3820 C   0  0  0  0  0  0  0  0  0  0  0  0
    2.9661    4.9413    6.7060 F   0  0  0  0  0  0  0  0  0  0  0  0
  1  2  1  0
  2  3  2  0
  3  4  1  0
  4  5  2  0
  4  6  1  0
  6  7  1  0
  7  8  1  0
  8  9  1  0
  9 10  1  0
 10 11  1  0
 11 12  2  0
  3 13  1  0
 13 14  1  0
 14 15  1  0
 15 16  1  0
 16 17  1  0
 17 18  1  0
 18 19  1  0
 19 20  1  0
 18 21  1  0
 21 22  2  0
 22 23  1  0
 23 24  1  0
 24 25  2  0
 25 26  1  0
 26 27  2  0
 27 28  1  0
 28 29  2  0
 28 30  1  0
 12  2  1  0
 11  6  1  0
 20 15  1  0
 25 21  1  0
 29 24  1  0
M  END
$$$$
