
     RDKit          3D

 30 34  0  0  0  0  0  0  0  0999 V2000
    0.0232   -1.0013   16.5245 C   0  0  0  0  0  0  0  0  0  0  0  0
   -0.7727   -2.2480   16.5445 C   0  0  0  0  0  0  0  0  0  0  0  0
   -1.5686   -2.6568   15.4958 C   0  0  0  0  0  0  0  0  0  0  0  0
   -2.2586   -3.8409   15.6474 C   0  0  0  0  0  0  0  0  0  0  0  0
   -3.0000   -4.2308   14.6831 O   0  0  0  0  0  0  0  0  0  0  0  0
   -2.2001   -4.6045   16.7393 N   0  0  0  0  0  0  0  0  0  0  0  0
   -2.9783   -5.8382   16.7745 C   0  0  0  0  0  0  0  0  0  0  0  0
   -2.6571   -6.7289   17.9168 C   0  0  0  0  0  0  0  0  0  0  0  0
   -1.3605   -6.4231   18.6214 C   0  0  0  0  0  0  0  0  0  0  0  0
   -1.2937   -4.9808   19.0122 C   0  0  0  0  0  0  0  0  0  0  0  0
   -1.4191   -4.1849   17.7448 C   0  0  0  0  0  0  0  0  0  0  0  0
   -0.7332   -3.0384   17.6333 N   0  0  0  0  0  0  0  0  0  0  0  0
   -1.6543   -1.8279   14.2652 C   0  0  0  0  0  0  0  0  0  0  0  0
   -0.3917   -2.0114   13.4671 C   0  0  0  0  0  0  0  0  0  0  0  0
   -0.5050   -1.8323   12.0778 N   0  0  0  0  0  0  0  0  0  0  0  0
    0.0696   -2.7959   11.2152 C   0  0  0  0  0  0  0  0  0  0  0  0
    0.7655   -2.0447   10.0775 C   0  0  0  0  0  0  0  0  0  0  0  0
   -0.0079   -0.7309    9.8371 C   0  0  0  0  0  0  0  0  0  0  0  0
   -1.4464   -1.0437   10.0413 C   0  0  0  0  0  0  0  0  0  0  0  0
   -1.7014   -1.2759   11.5599 C   0  0  0  0  0  0  0  0  0  0  0  0
    0.4344   -0.1677    8.5832 C   0  0  0  0  0  0  0  0  0  0  0  0
    0.1638   -0.7716    7.3662 N   0  0  0  0  0  0  0  0  0  0  0  0
    0.6597   -0.0960    6.4005 O   0  0  0  0  0  0  0  0  0  0  0  0
    1.2748    0.9697    6.8905 C   0  0  0  0  0  0  0  0  0  0  0  0
    1.1457    0.9471    8.2717 C   0  0  0  0  0  0  0  0  0  0  0  0
    1.6900    1.9377    9.0551 C   0  0  0  0  0  0  0  0  0  0  0  0
    2.3743    2.9644    8.4236 C   0  0  0  0  0  0  0  0  0  0  0  0
    2.5326    3.0368    7.0590 C   0  0  0  0  0  0  0  0  0  0  0  0
    1.9636    2.0115    6.3174 C   0  0  0  0  0  0  0  0  0  0  0  0
    3.2134    4.0640    6.4731 F   0  0  0  0  0  0  0  0  0  0  0  0
  1  2  1  0
  2  3  2  0
  3  4  1  0
  4  5  2  0
  4  6  1  0
  6  7  1  0
  7  8  1  0
  8  9  1  0
  9 10  1  0
 10 11  1  0
 11 12  2  0
  3 13  1  0
 13 14  1  0
 14 15  1  0
 15 16  1  0
 16 17  1  0
 17 18  1  0
 18 19  1  0
 19 20  1  0
 18 21  1  0
 21 22  2  0
 22 23  1  0
 23 24  1  0
 24 25  2  0
 25 26  1  0
 26 27  2  0
 27 28  1  0
 28 29  2  0
 28 30  1  0
 12  2  1  0
 11  6  1  0
 20 15  1  0
 25 21  1  0
 29 24  1  0
M  END
$$$$
