
     RDKit          3D

 30 34  0  0  0  0  0  0  0  0999 V2000
   -3.6289   -4.3296   14.2510 C   0  0  0  0  0  0  0  0  0  0  0  0
   -2.2528   -4.0456   14.7132 C   0  0  0  0  0  0  0  0  0  0  0  0
   -1.1625   -4.0054   13.8705 C   0  0  0  0  0  0  0  0  0  0  0  0
    0.0652   -3.7299   14.4345 C   0  0  0  0  0  0  0  0  0  0  0  0
    1.0836   -3.6901   13.6646 O   0  0  0  0  0  0  0  0  0  0  0  0
    0.2553   -3.5027   15.7349 N   0  0  0  0  0  0  0  0  0  0  0  0
    1.6066   -3.2197   16.2069 C   0  0  0  0  0  0  0  0  0  0  0  0
    1.6745   -2.7432   17.6103 C   0  0  0  0  0  0  0  0  0  0  0  0
    0.3658   -2.2710   18.1896 C   0  0  0  0  0  0  0  0  0  0  0  0
   -0.7001   -3.3049   18.0102 C   0  0  0  0  0  0  0  0  0  0  0  0
   -0.8208   -3.5475   16.5330 C   0  0  0  0  0  0  0  0  0  0  0  0
   -2.0308   -3.8125   16.0202 N   0  0  0  0  0  0  0  0  0  0  0  0
   -1.3420   -4.2538   12.4163 C   0  0  0  0  0  0  0  0  0  0  0  0
   -1.6302   -2.9449   11.7319 C   0  0  0  0  0  0  0  0  0  0  0  0
   -0.6041   -2.4302   10.9212 N   0  0  0  0  0  0  0  0  0  0  0  0
    0.3359   -1.5391   11.4915 C   0  0  0  0  0  0  0  0  0  0  0  0
    0.5703   -0.4067   10.4887 C   0  0  0  0  0  0  0  0  0  0  0  0
    0.3803   -0.9854    9.0706 C   0  0  0  0  0  0  0  0  0  0  0  0
    0.9257   -2.3675    9.1014 C   0  0  0  0  0  0  0  0  0  0  0  0
   -0.0341   -3.2701    9.9318 C   0  0  0  0  0  0  0  0  0  0  0  0
    0.8961   -0.0301    8.1185 C   0  0  0  0  0  0  0  0  0  0  0  0
    1.6625   -0.4129    7.0299 N   0  0  0  0  0  0  0  0  0  0  0  0
    2.0090    0.6031    6.3351 O   0  0  0  0  0  0  0  0  0  0  0  0
    1.5141    1.6972    6.8939 C   0  0  0  0  0  0  0  0  0  0  0  0
    0.8043    1.3222    8.0255 C   0  0  0  0  0  0  0  0  0  0  0  0
    0.1745    2.2561    8.8143 C   0  0  0  0  0  0  0  0  0  0  0  0
    0.2686    3.5890    8.4457 C   0  0  0  0  0  0  0  0  0  0  0  0
    0.9585    4.0167    7.3351 C   0  0  0  0  0  0  0  0  0  0  0  0
    1.5746    3.0326    6.5756 C   0  0  0  0  0  0  0  0  0  0  0  0
    1.0290    5.3386    7.0041 F   0  0  0  0  0  0  0  0  0  0  0  0
  1  2  1  0
  2  3  2  0
  3  4  1  0
  4  5  2  0
  4  6  1  0
  6  7  1  0
  7  8  1  0
  8  9  1  0
  9 10  1  0
 10 11  1  0
 11 12  2  0
  3 13  1  0
 13 14  1  0
 14 15  1  0
 15 16  1  0
 16 17  1  0
 17 18  1  0
 18 19  1  0
 19 20  1  0
 18 21  1  0
 21 22  2  0
 22 23  1  0
 23 24  1  0
 24 25  2  0
 25 26  1  0
 26 27  2  0
 27 28  1  0
 28 29  2  0
 28 30  1  0
 12  2  1  0
 11  6  1  0
 20 15  1  0
 25 21  1  0
 29 24  1  0
M  END
$$$$
