
     RDKit          3D

 30 34  0  0  0  0  0  0  0  0999 V2000
   -2.1970   -5.1869   13.4940 C   0  0  0  0  0  0  0  0  0  0  0  0
   -1.5250   -4.4344   14.5758 C   0  0  0  0  0  0  0  0  0  0  0  0
   -1.3434   -3.0681   14.5499 C   0  0  0  0  0  0  0  0  0  0  0  0
   -0.6992   -2.4935   15.6250 C   0  0  0  0  0  0  0  0  0  0  0  0
   -0.5243   -1.2283   15.6132 O   0  0  0  0  0  0  0  0  0  0  0  0
   -0.2467   -3.1774   16.6769 N   0  0  0  0  0  0  0  0  0  0  0  0
    0.4174   -2.4497   17.7532 C   0  0  0  0  0  0  0  0  0  0  0  0
    0.6603   -3.2563   18.9746 C   0  0  0  0  0  0  0  0  0  0  0  0
   -0.1284   -4.5374   19.0624 C   0  0  0  0  0  0  0  0  0  0  0  0
    0.0416   -5.3539   17.8207 C   0  0  0  0  0  0  0  0  0  0  0  0
   -0.4358   -4.5045   16.6779 C   0  0  0  0  0  0  0  0  0  0  0  0
   -1.0582   -5.0983   15.6496 N   0  0  0  0  0  0  0  0  0  0  0  0
   -1.8369   -2.2780   13.3918 C   0  0  0  0  0  0  0  0  0  0  0  0
   -1.0999   -2.7167   12.1553 C   0  0  0  0  0  0  0  0  0  0  0  0
   -0.2046   -1.7843   11.6037 N   0  0  0  0  0  0  0  0  0  0  0  0
    0.1648   -0.6544   12.3716 C   0  0  0  0  0  0  0  0  0  0  0  0
    0.1534    0.5623   11.4428 C   0  0  0  0  0  0  0  0  0  0  0  0
    0.5190    0.0765   10.0243 C   0  0  0  0  0  0  0  0  0  0  0  0
    1.5381   -0.9920   10.1929 C   0  0  0  0  0  0  0  0  0  0  0  0
    0.8489   -2.2581   10.7821 C   0  0  0  0  0  0  0  0  0  0  0  0
    0.8171    1.2327    9.2122 C   0  0  0  0  0  0  0  0  0  0  0  0
    0.8923    2.5094    9.7446 N   0  0  0  0  0  0  0  0  0  0  0  0
    1.1609    3.3682    8.8362 O   0  0  0  0  0  0  0  0  0  0  0  0
    1.2794    2.7443    7.6739 C   0  0  0  0  0  0  0  0  0  0  0  0
    1.0664    1.3898    7.8859 C   0  0  0  0  0  0  0  0  0  0  0  0
    1.1270    0.4876    6.8498 C   0  0  0  0  0  0  0  0  0  0  0  0
    1.4084    0.9712    5.5817 C   0  0  0  0  0  0  0  0  0  0  0  0
    1.6279    2.3026    5.3144 C   0  0  0  0  0  0  0  0  0  0  0  0
    1.5546    3.1684    6.3961 C   0  0  0  0  0  0  0  0  0  0  0  0
    1.9024    2.7412    4.0518 F   0  0  0  0  0  0  0  0  0  0  0  0
  1  2  1  0
  2  3  2  0
  3  4  1  0
  4  5  2  0
  4  6  1  0
  6  7  1  0
  7  8  1  0
  8  9  1  0
  9 10  1  0
 10 11  1  0
 11 12  2  0
  3 13  1  0
 13 14  1  0
 14 15  1  0
 15 16  1  0
 16 17  1  0
 17 18  1  0
 18 19  1  0
 19 20  1  0
 18 21  1  0
 21 22  2  0
 22 23  1  0
 23 24  1  0
 24 25  2  0
 25 26  1  0
 26 27  2  0
 27 28  1  0
 28 29  2  0
 28 30  1  0
 12  2  1  0
 11  6  1  0
 20 15  1  0
 25 21  1  0
 29 24  1  0
M  END
$$$$
