
     RDKit          3D

 30 34  0  0  0  0  0  0  0  0999 V2000
   -1.7099   -5.5468   13.7870 C   0  0  0  0  0  0  0  0  0  0  0  0
   -2.1050   -4.3122   14.4995 C   0  0  0  0  0  0  0  0  0  0  0  0
   -1.5913   -3.0677   14.2031 C   0  0  0  0  0  0  0  0  0  0  0  0
   -2.0466   -2.0000   14.9473 C   0  0  0  0  0  0  0  0  0  0  0  0
   -1.5783   -0.8415   14.6828 O   0  0  0  0  0  0  0  0  0  0  0  0
   -2.9458   -2.1022   15.9269 N   0  0  0  0  0  0  0  0  0  0  0  0
   -3.3473   -0.8936   16.6389 C   0  0  0  0  0  0  0  0  0  0  0  0
   -4.5188   -1.0728   17.5314 C   0  0  0  0  0  0  0  0  0  0  0  0
   -5.3250   -2.3222   17.2856 C   0  0  0  0  0  0  0  0  0  0  0  0
   -4.4452   -3.5319   17.2823 C   0  0  0  0  0  0  0  0  0  0  0  0
   -3.4298   -3.3231   16.1956 C   0  0  0  0  0  0  0  0  0  0  0  0
   -3.0105   -4.3850   15.4928 N   0  0  0  0  0  0  0  0  0  0  0  0
   -0.5880   -2.9212   13.1165 C   0  0  0  0  0  0  0  0  0  0  0  0
   -1.2881   -2.4544   11.8688 C   0  0  0  0  0  0  0  0  0  0  0  0
   -0.4655   -2.1744   10.7643 N   0  0  0  0  0  0  0  0  0  0  0  0
    0.9035   -1.8921   10.9856 C   0  0  0  0  0  0  0  0  0  0  0  0
    1.2857   -0.7129   10.0875 C   0  0  0  0  0  0  0  0  0  0  0  0
    0.4064   -0.7801    8.8209 C   0  0  0  0  0  0  0  0  0  0  0  0
    0.2441   -2.2209    8.4949 C   0  0  0  0  0  0  0  0  0  0  0  0
   -0.6926   -2.8751    9.5532 C   0  0  0  0  0  0  0  0  0  0  0  0
    0.9587    0.1217    7.8376 C   0  0  0  0  0  0  0  0  0  0  0  0
    1.1520   -0.2532    6.5181 N   0  0  0  0  0  0  0  0  0  0  0  0
    1.6569    0.7058    5.8398 O   0  0  0  0  0  0  0  0  0  0  0  0
    1.8296    1.7518    6.6337 C   0  0  0  0  0  0  0  0  0  0  0  0
    1.3941    1.4069    7.9051 C   0  0  0  0  0  0  0  0  0  0  0  0
    1.4527    2.3030    8.9465 C   0  0  0  0  0  0  0  0  0  0  0  0
    1.9610    3.5667    8.6898 C   0  0  0  0  0  0  0  0  0  0  0  0
    2.4064    3.9620    7.4497 C   0  0  0  0  0  0  0  0  0  0  0  0
    2.3245    3.0184    6.4359 C   0  0  0  0  0  0  0  0  0  0  0  0
    2.9009    5.2156    7.2353 F   0  0  0  0  0  0  0  0  0  0  0  0
  1  2  1  0
  2  3  2  0
  3  4  1  0
  4  5  2  0
  4  6  1  0
  6  7  1  0
  7  8  1  0
  8  9  1  0
  9 10  1  0
 10 11  1  0
 11 12  2  0
  3 13  1  0
 13 14  1  0
 14 15  1  0
 15 16  1  0
 16 17  1  0
 17 18  1  0
 18 19  1  0
 19 20  1  0
 18 21  1  0
 21 22  2  0
 22 23  1  0
 23 24  1  0
 24 25  2  0
 25 26  1  0
 26 27  2  0
 27 28  1  0
 28 29  2  0
 28 30  1  0
 12  2  1  0
 11  6  1  0
 20 15  1  0
 25 21  1  0
 29 24  1  0
M  END
$$$$
