
     RDKit          3D

 30 34  0  0  0  0  0  0  0  0999 V2000
    1.3071   -1.7985   14.3808 C   0  0  0  0  0  0  0  0  0  0  0  0
    0.2546   -2.8098   14.6208 C   0  0  0  0  0  0  0  0  0  0  0  0
   -0.8380   -2.9779   13.7971 C   0  0  0  0  0  0  0  0  0  0  0  0
   -1.7449   -3.9586   14.1389 C   0  0  0  0  0  0  0  0  0  0  0  0
   -2.7619   -4.1244   13.3840 O   0  0  0  0  0  0  0  0  0  0  0  0
   -1.6261   -4.7449   15.2095 N   0  0  0  0  0  0  0  0  0  0  0  0
   -2.6552   -5.7485   15.4599 C   0  0  0  0  0  0  0  0  0  0  0  0
   -2.3090   -6.7243   16.5225 C   0  0  0  0  0  0  0  0  0  0  0  0
   -0.8505   -6.7696   16.8988 C   0  0  0  0  0  0  0  0  0  0  0  0
   -0.3407   -5.4008   17.2211 C   0  0  0  0  0  0  0  0  0  0  0  0
   -0.5550   -4.5614   15.9943 C   0  0  0  0  0  0  0  0  0  0  0  0
    0.3481   -3.6173   15.6937 N   0  0  0  0  0  0  0  0  0  0  0  0
   -0.9982   -2.1174   12.5960 C   0  0  0  0  0  0  0  0  0  0  0  0
   -0.1077   -2.6406   11.5014 C   0  0  0  0  0  0  0  0  0  0  0  0
   -0.3947   -2.1916   10.2010 N   0  0  0  0  0  0  0  0  0  0  0  0
    0.2802   -2.7858    9.1081 C   0  0  0  0  0  0  0  0  0  0  0  0
    0.6849   -1.6650    8.1473 C   0  0  0  0  0  0  0  0  0  0  0  0
   -0.3674   -0.5420    8.2623 C   0  0  0  0  0  0  0  0  0  0  0  0
   -1.6801   -1.2110    8.4570 C   0  0  0  0  0  0  0  0  0  0  0  0
   -1.7272   -1.8225    9.8884 C   0  0  0  0  0  0  0  0  0  0  0  0
   -0.1813    0.3682    7.1568 C   0  0  0  0  0  0  0  0  0  0  0  0
   -1.1011    0.4762    6.1265 N   0  0  0  0  0  0  0  0  0  0  0  0
   -0.7198    1.3378    5.2620 O   0  0  0  0  0  0  0  0  0  0  0  0
    0.4419    1.8469    5.6435 C   0  0  0  0  0  0  0  0  0  0  0  0
    0.8041    1.2488    6.8418 C   0  0  0  0  0  0  0  0  0  0  0  0
    1.9749    1.5837    7.4807 C   0  0  0  0  0  0  0  0  0  0  0  0
    2.7870    2.5401    6.8916 C   0  0  0  0  0  0  0  0  0  0  0  0
    2.4774    3.1647    5.7057 C   0  0  0  0  0  0  0  0  0  0  0  0
    1.2848    2.7888    5.1044 C   0  0  0  0  0  0  0  0  0  0  0  0
    3.3027    4.1021    5.1561 F   0  0  0  0  0  0  0  0  0  0  0  0
  1  2  1  0
  2  3  2  0
  3  4  1  0
  4  5  2  0
  4  6  1  0
  6  7  1  0
  7  8  1  0
  8  9  1  0
  9 10  1  0
 10 11  1  0
 11 12  2  0
  3 13  1  0
 13 14  1  0
 14 15  1  0
 15 16  1  0
 16 17  1  0
 17 18  1  0
 18 19  1  0
 19 20  1  0
 18 21  1  0
 21 22  2  0
 22 23  1  0
 23 24  1  0
 24 25  2  0
 25 26  1  0
 26 27  2  0
 27 28  1  0
 28 29  2  0
 28 30  1  0
 12  2  1  0
 11  6  1  0
 20 15  1  0
 25 21  1  0
 29 24  1  0
M  END
$$$$
