
     RDKit          3D

 30 34  0  0  0  0  0  0  0  0999 V2000
   -0.2793   -2.5899   14.7766 C   0  0  0  0  0  0  0  0  0  0  0  0
   -1.3857   -3.5649   14.6603 C   0  0  0  0  0  0  0  0  0  0  0  0
   -2.2395   -3.6181   13.5792 C   0  0  0  0  0  0  0  0  0  0  0  0
   -3.2298   -4.5772   13.5999 C   0  0  0  0  0  0  0  0  0  0  0  0
   -4.0278   -4.6368   12.6043 O   0  0  0  0  0  0  0  0  0  0  0  0
   -3.4065   -5.4466   14.5957 N   0  0  0  0  0  0  0  0  0  0  0  0
   -4.4926   -6.4157   14.4958 C   0  0  0  0  0  0  0  0  0  0  0  0
   -4.4525   -7.4841   15.5245 C   0  0  0  0  0  0  0  0  0  0  0  0
   -3.1377   -7.6273   16.2470 C   0  0  0  0  0  0  0  0  0  0  0  0
   -2.6883   -6.3126   16.8010 C   0  0  0  0  0  0  0  0  0  0  0  0
   -2.5632   -5.3741   15.6352 C   0  0  0  0  0  0  0  0  0  0  0  0
   -1.5879   -4.4543   15.6501 N   0  0  0  0  0  0  0  0  0  0  0  0
   -2.0680   -2.6630   12.4535 C   0  0  0  0  0  0  0  0  0  0  0  0
   -1.8936   -3.4422   11.1779 C   0  0  0  0  0  0  0  0  0  0  0  0
   -0.9682   -2.9234   10.2562 N   0  0  0  0  0  0  0  0  0  0  0  0
    0.3083   -2.5251   10.7197 C   0  0  0  0  0  0  0  0  0  0  0  0
    0.6560   -1.1983   10.0402 C   0  0  0  0  0  0  0  0  0  0  0  0
   -0.0217   -1.1864    8.6537 C   0  0  0  0  0  0  0  0  0  0  0  0
    0.0511   -2.5774    8.1356 C   0  0  0  0  0  0  0  0  0  0  0  0
   -0.9314   -3.4708    8.9492 C   0  0  0  0  0  0  0  0  0  0  0  0
    0.5408   -0.1021    7.8836 C   0  0  0  0  0  0  0  0  0  0  0  0
    0.9751   -0.2707    6.5790 N   0  0  0  0  0  0  0  0  0  0  0  0
    1.4387    0.8234    6.1068 O   0  0  0  0  0  0  0  0  0  0  0  0
    1.3485    1.7658    7.0330 C   0  0  0  0  0  0  0  0  0  0  0  0
    0.7822    1.2042    8.1683 C   0  0  0  0  0  0  0  0  0  0  0  0
    0.5643    1.9525    9.3013 C   0  0  0  0  0  0  0  0  0  0  0  0
    0.9278    3.2899    9.2776 C   0  0  0  0  0  0  0  0  0  0  0  0
    1.4923    3.8980    8.1805 C   0  0  0  0  0  0  0  0  0  0  0  0
    1.6897    3.0965    7.0653 C   0  0  0  0  0  0  0  0  0  0  0  0
    1.8373    5.2181    8.1949 F   0  0  0  0  0  0  0  0  0  0  0  0
  1  2  1  0
  2  3  2  0
  3  4  1  0
  4  5  2  0
  4  6  1  0
  6  7  1  0
  7  8  1  0
  8  9  1  0
  9 10  1  0
 10 11  1  0
 11 12  2  0
  3 13  1  0
 13 14  1  0
 14 15  1  0
 15 16  1  0
 16 17  1  0
 17 18  1  0
 18 19  1  0
 19 20  1  0
 18 21  1  0
 21 22  2  0
 22 23  1  0
 23 24  1  0
 24 25  2  0
 25 26  1  0
 26 27  2  0
 27 28  1  0
 28 29  2  0
 28 30  1  0
 12  2  1  0
 11  6  1  0
 20 15  1  0
 25 21  1  0
 29 24  1  0
M  END
$$$$
