
     RDKit          3D

 30 34  0  0  0  0  0  0  0  0999 V2000
    1.2937   -4.6367   14.3538 C   0  0  0  0  0  0  0  0  0  0  0  0
   -0.1805   -4.6305   14.4755 C   0  0  0  0  0  0  0  0  0  0  0  0
   -0.9583   -3.5218   14.2180 C   0  0  0  0  0  0  0  0  0  0  0  0
   -2.3220   -3.6542   14.3720 C   0  0  0  0  0  0  0  0  0  0  0  0
   -3.0540   -2.6342   14.1367 O   0  0  0  0  0  0  0  0  0  0  0  0
   -2.9244   -4.7819   14.7518 N   0  0  0  0  0  0  0  0  0  0  0  0
   -4.3782   -4.7927   14.8755 C   0  0  0  0  0  0  0  0  0  0  0  0
   -4.9639   -6.1432   15.0611 C   0  0  0  0  0  0  0  0  0  0  0  0
   -4.0479   -7.2901   14.7193 C   0  0  0  0  0  0  0  0  0  0  0  0
   -2.7383   -7.1558   15.4294 C   0  0  0  0  0  0  0  0  0  0  0  0
   -2.1459   -5.8454   14.9961 C   0  0  0  0  0  0  0  0  0  0  0  0
   -0.8156   -5.7542   14.8571 N   0  0  0  0  0  0  0  0  0  0  0  0
   -0.3166   -2.2506   13.7924 C   0  0  0  0  0  0  0  0  0  0  0  0
   -1.1721   -1.6046   12.7362 C   0  0  0  0  0  0  0  0  0  0  0  0
   -0.6951   -1.6859   11.4168 N   0  0  0  0  0  0  0  0  0  0  0  0
    0.6375   -2.1084   11.1965 C   0  0  0  0  0  0  0  0  0  0  0  0
    1.2392   -1.2041   10.1179 C   0  0  0  0  0  0  0  0  0  0  0  0
    0.0958   -0.7637    9.1796 C   0  0  0  0  0  0  0  0  0  0  0  0
   -0.8201   -1.9274    9.0542 C   0  0  0  0  0  0  0  0  0  0  0  0
   -1.5828   -2.1162   10.3989 C   0  0  0  0  0  0  0  0  0  0  0  0
    0.6807   -0.1785    7.9962 C   0  0  0  0  0  0  0  0  0  0  0  0
    0.7507   -0.8606    6.7925 N   0  0  0  0  0  0  0  0  0  0  0  0
    1.3137   -0.1458    5.8942 O   0  0  0  0  0  0  0  0  0  0  0  0
    1.6471    1.0235    6.4193 C   0  0  0  0  0  0  0  0  0  0  0  0
    1.2560    1.0275    7.7505 C   0  0  0  0  0  0  0  0  0  0  0  0
    1.4753    2.1211    8.5549 C   0  0  0  0  0  0  0  0  0  0  0  0
    2.1006    3.2248    7.9962 C   0  0  0  0  0  0  0  0  0  0  0  0
    2.5089    3.2754    6.6836 C   0  0  0  0  0  0  0  0  0  0  0  0
    2.2630    2.1449    5.9178 C   0  0  0  0  0  0  0  0  0  0  0  0
    3.1220    4.3805    6.1690 F   0  0  0  0  0  0  0  0  0  0  0  0
  1  2  1  0
  2  3  2  0
  3  4  1  0
  4  5  2  0
  4  6  1  0
  6  7  1  0
  7  8  1  0
  8  9  1  0
  9 10  1  0
 10 11  1  0
 11 12  2  0
  3 13  1  0
 13 14  1  0
 14 15  1  0
 15 16  1  0
 16 17  1  0
 17 18  1  0
 18 19  1  0
 19 20  1  0
 18 21  1  0
 21 22  2  0
 22 23  1  0
 23 24  1  0
 24 25  2  0
 25 26  1  0
 26 27  2  0
 27 28  1  0
 28 29  2  0
 28 30  1  0
 12  2  1  0
 11  6  1  0
 20 15  1  0
 25 21  1  0
 29 24  1  0
M  END
$$$$
