
     RDKit          3D

 30 34  0  0  0  0  0  0  0  0999 V2000
   -2.6683   -3.9972   12.5248 C   0  0  0  0  0  0  0  0  0  0  0  0
   -2.4794   -2.8374   13.4233 C   0  0  0  0  0  0  0  0  0  0  0  0
   -1.3120   -2.5963   14.1158 C   0  0  0  0  0  0  0  0  0  0  0  0
   -1.2715   -1.4774   14.9205 C   0  0  0  0  0  0  0  0  0  0  0  0
   -0.1957   -1.2428   15.5678 O   0  0  0  0  0  0  0  0  0  0  0  0
   -2.2868   -0.6247   15.0651 N   0  0  0  0  0  0  0  0  0  0  0  0
   -2.1162    0.5252   15.9469 C   0  0  0  0  0  0  0  0  0  0  0  0
   -3.1999    1.5339   15.8493 C   0  0  0  0  0  0  0  0  0  0  0  0
   -4.0754    1.4160   14.6283 C   0  0  0  0  0  0  0  0  0  0  0  0
   -4.6042    0.0243   14.4843 C   0  0  0  0  0  0  0  0  0  0  0  0
   -3.4107   -0.8815   14.3811 C   0  0  0  0  0  0  0  0  0  0  0  0
   -3.4869   -1.9602   13.5888 N   0  0  0  0  0  0  0  0  0  0  0  0
   -0.1626   -3.5279   13.9751 C   0  0  0  0  0  0  0  0  0  0  0  0
    0.7433   -3.0204   12.8857 C   0  0  0  0  0  0  0  0  0  0  0  0
    0.4825   -1.7211   12.4178 N   0  0  0  0  0  0  0  0  0  0  0  0
   -0.7066   -1.4831   11.6882 C   0  0  0  0  0  0  0  0  0  0  0  0
   -0.3526   -0.5786   10.5052 C   0  0  0  0  0  0  0  0  0  0  0  0
    0.8281    0.3182   10.9336 C   0  0  0  0  0  0  0  0  0  0  0  0
    0.6070    0.6531   12.3646 C   0  0  0  0  0  0  0  0  0  0  0  0
    0.8608   -0.6195   13.2256 C   0  0  0  0  0  0  0  0  0  0  0  0
    0.9696    1.3762    9.9612 C   0  0  0  0  0  0  0  0  0  0  0  0
    0.8229    2.7122   10.2970 N   0  0  0  0  0  0  0  0  0  0  0  0
    0.9857    3.4612    9.2736 O   0  0  0  0  0  0  0  0  0  0  0  0
    1.2436    2.7017    8.2196 C   0  0  0  0  0  0  0  0  0  0  0  0
    1.2393    1.3763    8.6296 C   0  0  0  0  0  0  0  0  0  0  0  0
    1.4794    0.3542    7.7414 C   0  0  0  0  0  0  0  0  0  0  0  0
    1.7272    0.6864    6.4188 C   0  0  0  0  0  0  0  0  0  0  0  0
    1.7436    1.9824    5.9577 C   0  0  0  0  0  0  0  0  0  0  0  0
    1.4950    2.9735    6.8963 C   0  0  0  0  0  0  0  0  0  0  0  0
    1.9915    2.2705    4.6472 F   0  0  0  0  0  0  0  0  0  0  0  0
  1  2  1  0
  2  3  2  0
  3  4  1  0
  4  5  2  0
  4  6  1  0
  6  7  1  0
  7  8  1  0
  8  9  1  0
  9 10  1  0
 10 11  1  0
 11 12  2  0
  3 13  1  0
 13 14  1  0
 14 15  1  0
 15 16  1  0
 16 17  1  0
 17 18  1  0
 18 19  1  0
 19 20  1  0
 18 21  1  0
 21 22  2  0
 22 23  1  0
 23 24  1  0
 24 25  2  0
 25 26  1  0
 26 27  2  0
 27 28  1  0
 28 29  2  0
 28 30  1  0
 12  2  1  0
 11  6  1  0
 20 15  1  0
 25 21  1  0
 29 24  1  0
M  END
$$$$
