
     RDKit          3D

 30 34  0  0  0  0  0  0  0  0999 V2000
   -3.0345   -5.3645    9.5778 C   0  0  0  0  0  0  0  0  0  0  0  0
   -2.5742   -5.1282   10.9636 C   0  0  0  0  0  0  0  0  0  0  0  0
   -1.2455   -5.0109   11.3121 C   0  0  0  0  0  0  0  0  0  0  0  0
   -0.9558   -4.7924   12.6423 C   0  0  0  0  0  0  0  0  0  0  0  0
    0.2716   -4.6822   12.9785 O   0  0  0  0  0  0  0  0  0  0  0  0
   -1.8780   -4.6894   13.6002 N   0  0  0  0  0  0  0  0  0  0  0  0
   -1.4405   -4.4551   14.9723 C   0  0  0  0  0  0  0  0  0  0  0  0
   -2.5371   -4.1134   15.9115 C   0  0  0  0  0  0  0  0  0  0  0  0
   -3.8302   -3.6953   15.2601 C   0  0  0  0  0  0  0  0  0  0  0  0
   -4.2676   -4.7055   14.2474 C   0  0  0  0  0  0  0  0  0  0  0  0
   -3.1626   -4.8072   13.2354 C   0  0  0  0  0  0  0  0  0  0  0  0
   -3.4825   -5.0201   11.9510 N   0  0  0  0  0  0  0  0  0  0  0  0
   -0.1943   -5.1205   10.2673 C   0  0  0  0  0  0  0  0  0  0  0  0
    0.7492   -3.9560   10.4036 C   0  0  0  0  0  0  0  0  0  0  0  0
    0.3884   -2.7825    9.7196 N   0  0  0  0  0  0  0  0  0  0  0  0
    0.6685   -2.6842    8.3359 C   0  0  0  0  0  0  0  0  0  0  0  0
    1.2108   -1.2776    8.0705 C   0  0  0  0  0  0  0  0  0  0  0  0
    0.5621   -0.3211    9.0933 C   0  0  0  0  0  0  0  0  0  0  0  0
   -0.8351   -0.7903    9.2839 C   0  0  0  0  0  0  0  0  0  0  0  0
   -0.8139   -2.1261   10.0843 C   0  0  0  0  0  0  0  0  0  0  0  0
    0.8131    1.0356    8.6674 C   0  0  0  0  0  0  0  0  0  0  0  0
    1.0130    1.3669    7.3372 N   0  0  0  0  0  0  0  0  0  0  0  0
    1.2226    2.6213    7.2052 O   0  0  0  0  0  0  0  0  0  0  0  0
    1.1784    3.1942    8.3986 C   0  0  0  0  0  0  0  0  0  0  0  0
    0.9198    2.2102    9.3419 C   0  0  0  0  0  0  0  0  0  0  0  0
    0.8175    2.5136   10.6792 C   0  0  0  0  0  0  0  0  0  0  0  0
    0.9804    3.8361   11.0607 C   0  0  0  0  0  0  0  0  0  0  0  0
    1.2379    4.8514   10.1689 C   0  0  0  0  0  0  0  0  0  0  0  0
    1.3311    4.4889    8.8328 C   0  0  0  0  0  0  0  0  0  0  0  0
    1.3924    6.1425   10.5825 F   0  0  0  0  0  0  0  0  0  0  0  0
  1  2  1  0
  2  3  2  0
  3  4  1  0
  4  5  2  0
  4  6  1  0
  6  7  1  0
  7  8  1  0
  8  9  1  0
  9 10  1  0
 10 11  1  0
 11 12  2  0
  3 13  1  0
 13 14  1  0
 14 15  1  0
 15 16  1  0
 16 17  1  0
 17 18  1  0
 18 19  1  0
 19 20  1  0
 18 21  1  0
 21 22  2  0
 22 23  1  0
 23 24  1  0
 24 25  2  0
 25 26  1  0
 26 27  2  0
 27 28  1  0
 28 29  2  0
 28 30  1  0
 12  2  1  0
 11  6  1  0
 20 15  1  0
 25 21  1  0
 29 24  1  0
M  END
$$$$
