
     RDKit          3D

 30 34  0  0  0  0  0  0  0  0999 V2000
   -0.4324   -4.8859   15.0604 C   0  0  0  0  0  0  0  0  0  0  0  0
   -0.1109   -3.6128   15.7415 C   0  0  0  0  0  0  0  0  0  0  0  0
   -0.7088   -2.4114   15.4259 C   0  0  0  0  0  0  0  0  0  0  0  0
   -0.3144   -1.2998   16.1400 C   0  0  0  0  0  0  0  0  0  0  0  0
   -0.8605   -0.1803   15.8571 O   0  0  0  0  0  0  0  0  0  0  0  0
    0.6028   -1.3210   17.1080 N   0  0  0  0  0  0  0  0  0  0  0  0
    0.9306   -0.0739   17.7907 C   0  0  0  0  0  0  0  0  0  0  0  0
    1.7699   -0.2447   19.0021 C   0  0  0  0  0  0  0  0  0  0  0  0
    1.8321   -1.6495   19.5443 C   0  0  0  0  0  0  0  0  0  0  0  0
    2.2120   -2.6188   18.4702 C   0  0  0  0  0  0  0  0  0  0  0  0
    1.1692   -2.5014   17.3957 C   0  0  0  0  0  0  0  0  0  0  0  0
    0.8109   -3.6039   16.7223 N   0  0  0  0  0  0  0  0  0  0  0  0
   -1.7350   -2.3553   14.3523 C   0  0  0  0  0  0  0  0  0  0  0  0
   -1.5228   -1.1047   13.5425 C   0  0  0  0  0  0  0  0  0  0  0  0
   -0.7149   -1.2356   12.4000 N   0  0  0  0  0  0  0  0  0  0  0  0
    0.6330   -0.8090   12.4634 C   0  0  0  0  0  0  0  0  0  0  0  0
    0.9445   -0.0597   11.1654 C   0  0  0  0  0  0  0  0  0  0  0  0
    0.0760   -0.6728   10.0466 C   0  0  0  0  0  0  0  0  0  0  0  0
    0.0049   -2.1322   10.3183 C   0  0  0  0  0  0  0  0  0  0  0  0
   -0.8934   -2.3694   11.5682 C   0  0  0  0  0  0  0  0  0  0  0  0
    0.5748   -0.2015    8.7761 C   0  0  0  0  0  0  0  0  0  0  0  0
    0.7792   -1.0519    7.7018 N   0  0  0  0  0  0  0  0  0  0  0  0
    1.2297   -0.4112    6.6911 O   0  0  0  0  0  0  0  0  0  0  0  0
    1.3528    0.8682    7.0110 C   0  0  0  0  0  0  0  0  0  0  0  0
    0.9436    1.0266    8.3272 C   0  0  0  0  0  0  0  0  0  0  0  0
    0.9620    2.2594    8.9362 C   0  0  0  0  0  0  0  0  0  0  0  0
    1.4027    3.3447    8.1952 C   0  0  0  0  0  0  0  0  0  0  0  0
    1.8194    3.2453    6.8880 C   0  0  0  0  0  0  0  0  0  0  0  0
    1.7803    1.9785    6.3234 C   0  0  0  0  0  0  0  0  0  0  0  0
    2.2470    4.3372    6.1902 F   0  0  0  0  0  0  0  0  0  0  0  0
  1  2  1  0
  2  3  2  0
  3  4  1  0
  4  5  2  0
  4  6  1  0
  6  7  1  0
  7  8  1  0
  8  9  1  0
  9 10  1  0
 10 11  1  0
 11 12  2  0
  3 13  1  0
 13 14  1  0
 14 15  1  0
 15 16  1  0
 16 17  1  0
 17 18  1  0
 18 19  1  0
 19 20  1  0
 18 21  1  0
 21 22  2  0
 22 23  1  0
 23 24  1  0
 24 25  2  0
 25 26  1  0
 26 27  2  0
 27 28  1  0
 28 29  2  0
 28 30  1  0
 12  2  1  0
 11  6  1  0
 20 15  1  0
 25 21  1  0
 29 24  1  0
M  END
$$$$
