
     RDKit          3D

 30 34  0  0  0  0  0  0  0  0999 V2000
    1.0093   -2.2962   15.5655 C   0  0  0  0  0  0  0  0  0  0  0  0
   -0.4688   -2.2592   15.5235 C   0  0  0  0  0  0  0  0  0  0  0  0
   -1.2126   -2.8061   14.4997 C   0  0  0  0  0  0  0  0  0  0  0  0
   -2.5847   -2.6999   14.5858 C   0  0  0  0  0  0  0  0  0  0  0  0
   -3.2854   -3.2022   13.6434 O   0  0  0  0  0  0  0  0  0  0  0  0
   -3.2256   -2.1046   15.5925 N   0  0  0  0  0  0  0  0  0  0  0  0
   -4.6838   -2.0606   15.5668 C   0  0  0  0  0  0  0  0  0  0  0  0
   -5.3021   -1.6021   16.8352 C   0  0  0  0  0  0  0  0  0  0  0  0
   -4.3902   -1.6213   18.0349 C   0  0  0  0  0  0  0  0  0  0  0  0
   -3.1166   -0.8913   17.7478 C   0  0  0  0  0  0  0  0  0  0  0  0
   -2.4796   -1.5809   16.5755 C   0  0  0  0  0  0  0  0  0  0  0  0
   -1.1425   -1.6649   16.5258 N   0  0  0  0  0  0  0  0  0  0  0  0
   -0.5275   -3.4767   13.3640 C   0  0  0  0  0  0  0  0  0  0  0  0
   -1.0008   -2.8569   12.0769 C   0  0  0  0  0  0  0  0  0  0  0  0
   -0.4292   -1.6185   11.7383 N   0  0  0  0  0  0  0  0  0  0  0  0
   -1.2627   -0.4768   11.6694 C   0  0  0  0  0  0  0  0  0  0  0  0
   -0.8595    0.3182   10.4250 C   0  0  0  0  0  0  0  0  0  0  0  0
    0.6476    0.0874   10.1855 C   0  0  0  0  0  0  0  0  0  0  0  0
    1.2832    0.0182   11.5271 C   0  0  0  0  0  0  0  0  0  0  0  0
    0.8733   -1.3196   12.2109 C   0  0  0  0  0  0  0  0  0  0  0  0
    1.1072    1.0594    9.2215 C   0  0  0  0  0  0  0  0  0  0  0  0
    1.6881    2.2583    9.6013 N   0  0  0  0  0  0  0  0  0  0  0  0
    2.0072    2.9558    8.5783 O   0  0  0  0  0  0  0  0  0  0  0  0
    1.6723    2.2923    7.4820 C   0  0  0  0  0  0  0  0  0  0  0  0
    1.1003    1.0871    7.8632 C   0  0  0  0  0  0  0  0  0  0  0  0
    0.6527    0.1829    6.9287 C   0  0  0  0  0  0  0  0  0  0  0  0
    0.7895    0.5105    5.5888 C   0  0  0  0  0  0  0  0  0  0  0  0
    1.3484    1.6901    5.1548 C   0  0  0  0  0  0  0  0  0  0  0  0
    1.7828    2.5653    6.1399 C   0  0  0  0  0  0  0  0  0  0  0  0
    1.4661    1.9777    3.8261 F   0  0  0  0  0  0  0  0  0  0  0  0
  1  2  1  0
  2  3  2  0
  3  4  1  0
  4  5  2  0
  4  6  1  0
  6  7  1  0
  7  8  1  0
  8  9  1  0
  9 10  1  0
 10 11  1  0
 11 12  2  0
  3 13  1  0
 13 14  1  0
 14 15  1  0
 15 16  1  0
 16 17  1  0
 17 18  1  0
 18 19  1  0
 19 20  1  0
 18 21  1  0
 21 22  2  0
 22 23  1  0
 23 24  1  0
 24 25  2  0
 25 26  1  0
 26 27  2  0
 27 28  1  0
 28 29  2  0
 28 30  1  0
 12  2  1  0
 11  6  1  0
 20 15  1  0
 25 21  1  0
 29 24  1  0
M  END
$$$$
