
     RDKit          3D

 30 34  0  0  0  0  0  0  0  0999 V2000
   -1.5640   -3.7389   15.1613 C   0  0  0  0  0  0  0  0  0  0  0  0
   -1.0650   -2.5905   15.9489 C   0  0  0  0  0  0  0  0  0  0  0  0
   -0.7397   -1.3723   15.3915 C   0  0  0  0  0  0  0  0  0  0  0  0
   -0.2849   -0.3869   16.2419 C   0  0  0  0  0  0  0  0  0  0  0  0
    0.0202    0.7464   15.7379 O   0  0  0  0  0  0  0  0  0  0  0  0
   -0.1434   -0.5441   17.5587 N   0  0  0  0  0  0  0  0  0  0  0  0
    0.3465    0.5795   18.3502 C   0  0  0  0  0  0  0  0  0  0  0  0
    0.2353    0.3860   19.8170 C   0  0  0  0  0  0  0  0  0  0  0  0
   -0.6838   -0.7280   20.2474 C   0  0  0  0  0  0  0  0  0  0  0  0
   -0.3376   -2.0043   19.5485 C   0  0  0  0  0  0  0  0  0  0  0  0
   -0.4664   -1.7378   18.0760 C   0  0  0  0  0  0  0  0  0  0  0  0
   -0.9121   -2.7201   17.2799 N   0  0  0  0  0  0  0  0  0  0  0  0
   -0.8871   -1.1659   13.9271 C   0  0  0  0  0  0  0  0  0  0  0  0
    0.4714   -1.2518   13.2853 C   0  0  0  0  0  0  0  0  0  0  0  0
    0.4884   -1.4324   11.8917 N   0  0  0  0  0  0  0  0  0  0  0  0
    1.7333   -1.5942   11.2384 C   0  0  0  0  0  0  0  0  0  0  0  0
    1.6966   -0.7599    9.9556 C   0  0  0  0  0  0  0  0  0  0  0  0
    0.2352   -0.7186    9.4612 C   0  0  0  0  0  0  0  0  0  0  0  0
   -0.3480   -2.0538    9.7540 C   0  0  0  0  0  0  0  0  0  0  0  0
   -0.5488   -2.1903   11.2923 C   0  0  0  0  0  0  0  0  0  0  0  0
    0.2285   -0.2120    8.1090 C   0  0  0  0  0  0  0  0  0  0  0  0
   -0.4626   -0.8430    7.0876 N   0  0  0  0  0  0  0  0  0  0  0  0
   -0.3163   -0.2172    5.9822 O   0  0  0  0  0  0  0  0  0  0  0  0
    0.4569    0.8392    6.1834 C   0  0  0  0  0  0  0  0  0  0  0  0
    0.8149    0.8647    7.5236 C   0  0  0  0  0  0  0  0  0  0  0  0
    1.6216    1.8579    8.0275 C   0  0  0  0  0  0  0  0  0  0  0  0
    2.0693    2.8377    7.1553 C   0  0  0  0  0  0  0  0  0  0  0  0
    1.7458    2.8614    5.8184 C   0  0  0  0  0  0  0  0  0  0  0  0
    0.9295    1.8357    5.3638 C   0  0  0  0  0  0  0  0  0  0  0  0
    2.2061    3.8432    4.9901 F   0  0  0  0  0  0  0  0  0  0  0  0
  1  2  1  0
  2  3  2  0
  3  4  1  0
  4  5  2  0
  4  6  1  0
  6  7  1  0
  7  8  1  0
  8  9  1  0
  9 10  1  0
 10 11  1  0
 11 12  2  0
  3 13  1  0
 13 14  1  0
 14 15  1  0
 15 16  1  0
 16 17  1  0
 17 18  1  0
 18 19  1  0
 19 20  1  0
 18 21  1  0
 21 22  2  0
 22 23  1  0
 23 24  1  0
 24 25  2  0
 25 26  1  0
 26 27  2  0
 27 28  1  0
 28 29  2  0
 28 30  1  0
 12  2  1  0
 11  6  1  0
 20 15  1  0
 25 21  1  0
 29 24  1  0
M  END
$$$$
