
     RDKit          3D

 30 34  0  0  0  0  0  0  0  0999 V2000
   -2.9947   -5.0811   12.1246 C   0  0  0  0  0  0  0  0  0  0  0  0
   -2.4718   -4.3234   13.2824 C   0  0  0  0  0  0  0  0  0  0  0  0
   -1.1697   -3.8798   13.3735 C   0  0  0  0  0  0  0  0  0  0  0  0
   -0.8144   -3.1853   14.5103 C   0  0  0  0  0  0  0  0  0  0  0  0
    0.3893   -2.7690   14.6072 O   0  0  0  0  0  0  0  0  0  0  0  0
   -1.6500   -2.9214   15.5157 N   0  0  0  0  0  0  0  0  0  0  0  0
   -1.1503   -2.1738   16.6648 C   0  0  0  0  0  0  0  0  0  0  0  0
   -2.2062   -1.7233   17.6046 C   0  0  0  0  0  0  0  0  0  0  0  0
   -3.6098   -1.7652   17.0575 C   0  0  0  0  0  0  0  0  0  0  0  0
   -3.9192   -3.1128   16.4870 C   0  0  0  0  0  0  0  0  0  0  0  0
   -2.9105   -3.3635   15.4029 C   0  0  0  0  0  0  0  0  0  0  0  0
   -3.2923   -4.0426   14.3119 N   0  0  0  0  0  0  0  0  0  0  0  0
   -0.2147   -4.1577   12.2692 C   0  0  0  0  0  0  0  0  0  0  0  0
    0.7692   -3.0223   12.1808 C   0  0  0  0  0  0  0  0  0  0  0  0
    0.2818   -1.8204   11.6394 N   0  0  0  0  0  0  0  0  0  0  0  0
   -0.6139   -1.8772   10.5451 C   0  0  0  0  0  0  0  0  0  0  0  0
   -0.1952   -0.7959    9.5458 C   0  0  0  0  0  0  0  0  0  0  0  0
    0.4349    0.3654   10.3434 C   0  0  0  0  0  0  0  0  0  0  0  0
   -0.3358    0.4759   11.6093 C   0  0  0  0  0  0  0  0  0  0  0  0
    0.0083   -0.7416   12.5173 C   0  0  0  0  0  0  0  0  0  0  0  0
    0.5469    1.5082    9.4678 C   0  0  0  0  0  0  0  0  0  0  0  0
   -0.0412    2.7266    9.7653 N   0  0  0  0  0  0  0  0  0  0  0  0
    0.1879    3.5819    8.8428 O   0  0  0  0  0  0  0  0  0  0  0  0
    0.9202    3.0118    7.8978 C   0  0  0  0  0  0  0  0  0  0  0  0
    1.1614    1.6974    8.2710 C   0  0  0  0  0  0  0  0  0  0  0  0
    1.9026    0.8550    7.4760 C   0  0  0  0  0  0  0  0  0  0  0  0
    2.4048    1.3577    6.2859 C   0  0  0  0  0  0  0  0  0  0  0  0
    2.1967    2.6514    5.8670 C   0  0  0  0  0  0  0  0  0  0  0  0
    1.4422    3.4573    6.7074 C   0  0  0  0  0  0  0  0  0  0  0  0
    2.7075    3.1106    4.6880 F   0  0  0  0  0  0  0  0  0  0  0  0
  1  2  1  0
  2  3  2  0
  3  4  1  0
  4  5  2  0
  4  6  1  0
  6  7  1  0
  7  8  1  0
  8  9  1  0
  9 10  1  0
 10 11  1  0
 11 12  2  0
  3 13  1  0
 13 14  1  0
 14 15  1  0
 15 16  1  0
 16 17  1  0
 17 18  1  0
 18 19  1  0
 19 20  1  0
 18 21  1  0
 21 22  2  0
 22 23  1  0
 23 24  1  0
 24 25  2  0
 25 26  1  0
 26 27  2  0
 27 28  1  0
 28 29  2  0
 28 30  1  0
 12  2  1  0
 11  6  1  0
 20 15  1  0
 25 21  1  0
 29 24  1  0
M  END
$$$$
