
     RDKit          3D

 30 34  0  0  0  0  0  0  0  0999 V2000
   -3.7198   -4.0659   14.1575 C   0  0  0  0  0  0  0  0  0  0  0  0
   -3.6682   -2.7984   14.9183 C   0  0  0  0  0  0  0  0  0  0  0  0
   -2.5504   -1.9936   14.9767 C   0  0  0  0  0  0  0  0  0  0  0  0
   -2.6390   -0.8385   15.7245 C   0  0  0  0  0  0  0  0  0  0  0  0
   -1.6101   -0.0842   15.7870 O   0  0  0  0  0  0  0  0  0  0  0  0
   -3.7329   -0.4602   16.3871 N   0  0  0  0  0  0  0  0  0  0  0  0
   -3.6988    0.7883   17.1415 C   0  0  0  0  0  0  0  0  0  0  0  0
   -5.0238    1.2391   17.6338 C   0  0  0  0  0  0  0  0  0  0  0  0
   -6.2086    0.5763   16.9795 C   0  0  0  0  0  0  0  0  0  0  0  0
   -6.0805   -0.9132   17.0293 C   0  0  0  0  0  0  0  0  0  0  0  0
   -4.8061   -1.2600   16.3143 C   0  0  0  0  0  0  0  0  0  0  0  0
   -4.7572   -2.3914   15.5968 N   0  0  0  0  0  0  0  0  0  0  0  0
   -1.3162   -2.3877   14.2486 C   0  0  0  0  0  0  0  0  0  0  0  0
   -1.5059   -2.1051   12.7827 C   0  0  0  0  0  0  0  0  0  0  0  0
   -0.5116   -1.3251   12.1680 N   0  0  0  0  0  0  0  0  0  0  0  0
   -0.2077   -0.0536   12.7102 C   0  0  0  0  0  0  0  0  0  0  0  0
   -0.0503    0.9236   11.5426 C   0  0  0  0  0  0  0  0  0  0  0  0
    0.4843    0.1300   10.3317 C   0  0  0  0  0  0  0  0  0  0  0  0
    1.4322   -0.8788   10.8726 C   0  0  0  0  0  0  0  0  0  0  0  0
    0.6247   -1.9767   11.6262 C   0  0  0  0  0  0  0  0  0  0  0  0
    0.9304    1.0728    9.3331 C   0  0  0  0  0  0  0  0  0  0  0  0
    1.4772    2.3005    9.6689 N   0  0  0  0  0  0  0  0  0  0  0  0
    1.7903    2.9633    8.6212 O   0  0  0  0  0  0  0  0  0  0  0  0
    1.4840    2.2471    7.5500 C   0  0  0  0  0  0  0  0  0  0  0  0
    0.9378    1.0445    7.9748 C   0  0  0  0  0  0  0  0  0  0  0  0
    0.5231    0.0919    7.0740 C   0  0  0  0  0  0  0  0  0  0  0  0
    0.6665    0.3675    5.7232 C   0  0  0  0  0  0  0  0  0  0  0  0
    1.2008    1.5421    5.2464 C   0  0  0  0  0  0  0  0  0  0  0  0
    1.6026    2.4676    6.1988 C   0  0  0  0  0  0  0  0  0  0  0  0
    1.3260    1.7777    3.9082 F   0  0  0  0  0  0  0  0  0  0  0  0
  1  2  1  0
  2  3  2  0
  3  4  1  0
  4  5  2  0
  4  6  1  0
  6  7  1  0
  7  8  1  0
  8  9  1  0
  9 10  1  0
 10 11  1  0
 11 12  2  0
  3 13  1  0
 13 14  1  0
 14 15  1  0
 15 16  1  0
 16 17  1  0
 17 18  1  0
 18 19  1  0
 19 20  1  0
 18 21  1  0
 21 22  2  0
 22 23  1  0
 23 24  1  0
 24 25  2  0
 25 26  1  0
 26 27  2  0
 27 28  1  0
 28 29  2  0
 28 30  1  0
 12  2  1  0
 11  6  1  0
 20 15  1  0
 25 21  1  0
 29 24  1  0
M  END
$$$$
