
     RDKit          3D

 30 34  0  0  0  0  0  0  0  0999 V2000
    2.7371    2.7630    8.0343 C   0  0  0  0  0  0  0  0  0  0  0  0
    1.8452    1.8015    7.3500 C   0  0  0  0  0  0  0  0  0  0  0  0
    0.8500    1.0985    7.9949 C   0  0  0  0  0  0  0  0  0  0  0  0
    0.0913    0.2327    7.2359 C   0  0  0  0  0  0  0  0  0  0  0  0
   -0.8339   -0.4250    7.8215 O   0  0  0  0  0  0  0  0  0  0  0  0
    0.2640    0.0393    5.9277 N   0  0  0  0  0  0  0  0  0  0  0  0
   -0.6083   -0.9049    5.2375 C   0  0  0  0  0  0  0  0  0  0  0  0
   -0.5000   -0.8653    3.7583 C   0  0  0  0  0  0  0  0  0  0  0  0
    0.1779    0.3590    3.1991 C   0  0  0  0  0  0  0  0  0  0  0  0
    1.5043    0.5795    3.8543 C   0  0  0  0  0  0  0  0  0  0  0  0
    1.2382    0.7348    5.3242 C   0  0  0  0  0  0  0  0  0  0  0  0
    1.9964    1.5859    6.0300 N   0  0  0  0  0  0  0  0  0  0  0  0
    0.6324    1.2926    9.4522 C   0  0  0  0  0  0  0  0  0  0  0  0
    1.3248    0.1843   10.1985 C   0  0  0  0  0  0  0  0  0  0  0  0
    0.5735   -0.4510   11.2020 N   0  0  0  0  0  0  0  0  0  0  0  0
   -0.7117    0.0520   11.5156 C   0  0  0  0  0  0  0  0  0  0  0  0
   -0.8521    0.0497   13.0399 C   0  0  0  0  0  0  0  0  0  0  0  0
   -0.0049   -1.1170   13.5900 C   0  0  0  0  0  0  0  0  0  0  0  0
   -0.1330   -2.2299   12.6134 C   0  0  0  0  0  0  0  0  0  0  0  0
    0.6555   -1.8610   11.3221 C   0  0  0  0  0  0  0  0  0  0  0  0
   -0.3672   -1.3279   14.9719 C   0  0  0  0  0  0  0  0  0  0  0  0
   -0.7689   -2.5648   15.4493 N   0  0  0  0  0  0  0  0  0  0  0  0
   -1.0441   -2.5057   16.6966 O   0  0  0  0  0  0  0  0  0  0  0  0
   -0.8514   -1.2666   17.1229 C   0  0  0  0  0  0  0  0  0  0  0  0
   -0.4218   -0.5011   16.0485 C   0  0  0  0  0  0  0  0  0  0  0  0
   -0.1403    0.8371   16.1936 C   0  0  0  0  0  0  0  0  0  0  0  0
   -0.2983    1.4028   17.4492 C   0  0  0  0  0  0  0  0  0  0  0  0
   -0.7208    0.6916   18.5483 C   0  0  0  0  0  0  0  0  0  0  0  0
   -0.9906   -0.6541   18.3450 C   0  0  0  0  0  0  0  0  0  0  0  0
   -0.8646    1.2837   19.7692 F   0  0  0  0  0  0  0  0  0  0  0  0
  1  2  1  0
  2  3  2  0
  3  4  1  0
  4  5  2  0
  4  6  1  0
  6  7  1  0
  7  8  1  0
  8  9  1  0
  9 10  1  0
 10 11  1  0
 11 12  2  0
  3 13  1  0
 13 14  1  0
 14 15  1  0
 15 16  1  0
 16 17  1  0
 17 18  1  0
 18 19  1  0
 19 20  1  0
 18 21  1  0
 21 22  2  0
 22 23  1  0
 23 24  1  0
 24 25  2  0
 25 26  1  0
 26 27  2  0
 27 28  1  0
 28 29  2  0
 28 30  1  0
 12  2  1  0
 11  6  1  0
 20 15  1  0
 25 21  1  0
 29 24  1  0
M  END
$$$$
