
     RDKit          3D

 30 34  0  0  0  0  0  0  0  0999 V2000
   -0.8457   -4.9238   13.8042 C   0  0  0  0  0  0  0  0  0  0  0  0
   -0.8508   -3.4648   14.0479 C   0  0  0  0  0  0  0  0  0  0  0  0
   -1.2849   -2.5422   13.1200 C   0  0  0  0  0  0  0  0  0  0  0  0
   -1.2346   -1.2115   13.4775 C   0  0  0  0  0  0  0  0  0  0  0  0
   -1.6337   -0.3464   12.6267 O   0  0  0  0  0  0  0  0  0  0  0  0
   -0.7945   -0.7714   14.6571 N   0  0  0  0  0  0  0  0  0  0  0  0
   -0.7942    0.6649   14.9137 C   0  0  0  0  0  0  0  0  0  0  0  0
   -0.5226    1.0316   16.3255 C   0  0  0  0  0  0  0  0  0  0  0  0
   -0.6668   -0.0936   17.3177 C   0  0  0  0  0  0  0  0  0  0  0  0
    0.1344   -1.2835   16.8940 C   0  0  0  0  0  0  0  0  0  0  0  0
   -0.3780   -1.6885   15.5416 C   0  0  0  0  0  0  0  0  0  0  0  0
   -0.4121   -2.9918   15.2292 N   0  0  0  0  0  0  0  0  0  0  0  0
   -1.7817   -3.0014   11.7967 C   0  0  0  0  0  0  0  0  0  0  0  0
   -0.6021   -3.3462   10.9281 C   0  0  0  0  0  0  0  0  0  0  0  0
   -0.4752   -2.6135    9.7356 N   0  0  0  0  0  0  0  0  0  0  0  0
    0.6467   -2.8477    8.9054 C   0  0  0  0  0  0  0  0  0  0  0  0
    1.1593   -1.4885    8.4227 C   0  0  0  0  0  0  0  0  0  0  0  0
   -0.0500   -0.5342    8.3297 C   0  0  0  0  0  0  0  0  0  0  0  0
   -1.1973   -1.3506    7.8543 C   0  0  0  0  0  0  0  0  0  0  0  0
   -1.6471   -2.3042    9.0005 C   0  0  0  0  0  0  0  0  0  0  0  0
    0.3538    0.6381    7.5894 C   0  0  0  0  0  0  0  0  0  0  0  0
   -0.3030    1.0485    6.4408 N   0  0  0  0  0  0  0  0  0  0  0  0
    0.2360    2.1028    5.9583 O   0  0  0  0  0  0  0  0  0  0  0  0
    1.2555    2.4566    6.7262 C   0  0  0  0  0  0  0  0  0  0  0  0
    1.3504    1.5441    7.7670 C   0  0  0  0  0  0  0  0  0  0  0  0
    2.3253    1.6597    8.7300 C   0  0  0  0  0  0  0  0  0  0  0  0
    3.2148    2.7182    8.6317 C   0  0  0  0  0  0  0  0  0  0  0  0
    3.1669    3.6513    7.6220 C   0  0  0  0  0  0  0  0  0  0  0  0
    2.1637    3.4866    6.6779 C   0  0  0  0  0  0  0  0  0  0  0  0
    4.0607    4.6804    7.5585 F   0  0  0  0  0  0  0  0  0  0  0  0
  1  2  1  0
  2  3  2  0
  3  4  1  0
  4  5  2  0
  4  6  1  0
  6  7  1  0
  7  8  1  0
  8  9  1  0
  9 10  1  0
 10 11  1  0
 11 12  2  0
  3 13  1  0
 13 14  1  0
 14 15  1  0
 15 16  1  0
 16 17  1  0
 17 18  1  0
 18 19  1  0
 19 20  1  0
 18 21  1  0
 21 22  2  0
 22 23  1  0
 23 24  1  0
 24 25  2  0
 25 26  1  0
 26 27  2  0
 27 28  1  0
 28 29  2  0
 28 30  1  0
 12  2  1  0
 11  6  1  0
 20 15  1  0
 25 21  1  0
 29 24  1  0
M  END
$$$$
