
     RDKit          3D

 30 34  0  0  0  0  0  0  0  0999 V2000
   -1.2234   -1.9790   16.4825 C   0  0  0  0  0  0  0  0  0  0  0  0
   -2.0551   -3.0711   15.9313 C   0  0  0  0  0  0  0  0  0  0  0  0
   -2.5028   -3.0998   14.6278 C   0  0  0  0  0  0  0  0  0  0  0  0
   -3.2721   -4.1783   14.2452 C   0  0  0  0  0  0  0  0  0  0  0  0
   -3.6936   -4.2168   13.0400 O   0  0  0  0  0  0  0  0  0  0  0  0
   -3.6037   -5.1839   15.0560 N   0  0  0  0  0  0  0  0  0  0  0  0
   -4.4227   -6.2697   14.5275 C   0  0  0  0  0  0  0  0  0  0  0  0
   -4.5285   -7.4459   15.4256 C   0  0  0  0  0  0  0  0  0  0  0  0
   -3.5040   -7.5020   16.5294 C   0  0  0  0  0  0  0  0  0  0  0  0
   -3.4812   -6.2207   17.3008 C   0  0  0  0  0  0  0  0  0  0  0  0
   -3.1559   -5.1323   16.3184 C   0  0  0  0  0  0  0  0  0  0  0  0
   -2.4053   -4.0991   16.7265 N   0  0  0  0  0  0  0  0  0  0  0  0
   -2.1496   -1.9941   13.6997 C   0  0  0  0  0  0  0  0  0  0  0  0
   -0.8832   -2.3567   12.9720 C   0  0  0  0  0  0  0  0  0  0  0  0
   -0.8551   -2.0706   11.5964 N   0  0  0  0  0  0  0  0  0  0  0  0
   -0.3718   -3.0561   10.7030 C   0  0  0  0  0  0  0  0  0  0  0  0
    0.5224   -2.3548    9.6774 C   0  0  0  0  0  0  0  0  0  0  0  0
   -0.0131   -0.9199    9.4874 C   0  0  0  0  0  0  0  0  0  0  0  0
   -1.4945   -1.0074    9.5675 C   0  0  0  0  0  0  0  0  0  0  0  0
   -1.9038   -1.2943   11.0424 C   0  0  0  0  0  0  0  0  0  0  0  0
    0.6113   -0.3548    8.3144 C   0  0  0  0  0  0  0  0  0  0  0  0
    0.6388   -1.0202    7.0996 N   0  0  0  0  0  0  0  0  0  0  0  0
    1.2492   -0.3291    6.2138 O   0  0  0  0  0  0  0  0  0  0  0  0
    1.6576    0.8070    6.7586 C   0  0  0  0  0  0  0  0  0  0  0  0
    1.2650    0.8147    8.0893 C   0  0  0  0  0  0  0  0  0  0  0  0
    1.5539    1.8781    8.9119 C   0  0  0  0  0  0  0  0  0  0  0  0
    2.2514    2.9475    8.3722 C   0  0  0  0  0  0  0  0  0  0  0  0
    2.6648    2.9928    7.0609 C   0  0  0  0  0  0  0  0  0  0  0  0
    2.3467    1.8936    6.2763 C   0  0  0  0  0  0  0  0  0  0  0  0
    3.3500    4.0636    6.5653 F   0  0  0  0  0  0  0  0  0  0  0  0
  1  2  1  0
  2  3  2  0
  3  4  1  0
  4  5  2  0
  4  6  1  0
  6  7  1  0
  7  8  1  0
  8  9  1  0
  9 10  1  0
 10 11  1  0
 11 12  2  0
  3 13  1  0
 13 14  1  0
 14 15  1  0
 15 16  1  0
 16 17  1  0
 17 18  1  0
 18 19  1  0
 19 20  1  0
 18 21  1  0
 21 22  2  0
 22 23  1  0
 23 24  1  0
 24 25  2  0
 25 26  1  0
 26 27  2  0
 27 28  1  0
 28 29  2  0
 28 30  1  0
 12  2  1  0
 11  6  1  0
 20 15  1  0
 25 21  1  0
 29 24  1  0
M  END
$$$$
