
     RDKit          3D

 30 34  0  0  0  0  0  0  0  0999 V2000
   -1.2060   -5.5804   13.4255 C   0  0  0  0  0  0  0  0  0  0  0  0
   -1.6928   -4.4927   14.3020 C   0  0  0  0  0  0  0  0  0  0  0  0
   -0.9349   -3.3906   14.6357 C   0  0  0  0  0  0  0  0  0  0  0  0
   -1.5122   -2.4511   15.4635 C   0  0  0  0  0  0  0  0  0  0  0  0
   -0.8203   -1.4253   15.7806 O   0  0  0  0  0  0  0  0  0  0  0  0
   -2.7485   -2.5475   15.9542 N   0  0  0  0  0  0  0  0  0  0  0  0
   -3.2443   -1.4823   16.8194 C   0  0  0  0  0  0  0  0  0  0  0  0
   -4.6974   -1.5594   17.1092 C   0  0  0  0  0  0  0  0  0  0  0  0
   -5.4853   -2.4607   16.1937 C   0  0  0  0  0  0  0  0  0  0  0  0
   -4.8655   -3.8201   16.1217 C   0  0  0  0  0  0  0  0  0  0  0  0
   -3.4648   -3.6286   15.6148 C   0  0  0  0  0  0  0  0  0  0  0  0
   -2.9366   -4.5632   14.8118 N   0  0  0  0  0  0  0  0  0  0  0  0
    0.4463   -3.2542   14.1043 C   0  0  0  0  0  0  0  0  0  0  0  0
    0.5793   -1.9124   13.4361 C   0  0  0  0  0  0  0  0  0  0  0  0
    0.2267   -1.8592   12.0767 N   0  0  0  0  0  0  0  0  0  0  0  0
    0.7275   -2.8519   11.2012 C   0  0  0  0  0  0  0  0  0  0  0  0
    1.1661   -2.1549    9.9109 C   0  0  0  0  0  0  0  0  0  0  0  0
    0.2617   -0.9204    9.7106 C   0  0  0  0  0  0  0  0  0  0  0  0
   -1.0945   -1.3097   10.1772 C   0  0  0  0  0  0  0  0  0  0  0  0
   -1.0787   -1.4292   11.7299 C   0  0  0  0  0  0  0  0  0  0  0  0
    0.4470   -0.4369    8.3626 C   0  0  0  0  0  0  0  0  0  0  0  0
    0.0263   -1.1562    7.2559 N   0  0  0  0  0  0  0  0  0  0  0  0
    0.3032   -0.5335    6.1740 O   0  0  0  0  0  0  0  0  0  0  0  0
    0.9075    0.6061    6.4745 C   0  0  0  0  0  0  0  0  0  0  0  0
    1.0101    0.6907    7.8555 C   0  0  0  0  0  0  0  0  0  0  0  0
    1.5988    1.7756    8.4618 C   0  0  0  0  0  0  0  0  0  0  0  0
    2.0893    2.7872    7.6510 C   0  0  0  0  0  0  0  0  0  0  0  0
    2.0145    2.7554    6.2778 C   0  0  0  0  0  0  0  0  0  0  0  0
    1.4109    1.6379    5.7193 C   0  0  0  0  0  0  0  0  0  0  0  0
    2.5091    3.7711    5.5125 F   0  0  0  0  0  0  0  0  0  0  0  0
  1  2  1  0
  2  3  2  0
  3  4  1  0
  4  5  2  0
  4  6  1  0
  6  7  1  0
  7  8  1  0
  8  9  1  0
  9 10  1  0
 10 11  1  0
 11 12  2  0
  3 13  1  0
 13 14  1  0
 14 15  1  0
 15 16  1  0
 16 17  1  0
 17 18  1  0
 18 19  1  0
 19 20  1  0
 18 21  1  0
 21 22  2  0
 22 23  1  0
 23 24  1  0
 24 25  2  0
 25 26  1  0
 26 27  2  0
 27 28  1  0
 28 29  2  0
 28 30  1  0
 12  2  1  0
 11  6  1  0
 20 15  1  0
 25 21  1  0
 29 24  1  0
M  END
$$$$
