
     RDKit          3D

 30 34  0  0  0  0  0  0  0  0999 V2000
   -1.7467   -3.6389   14.9613 C   0  0  0  0  0  0  0  0  0  0  0  0
   -1.3971   -2.3303   15.5558 C   0  0  0  0  0  0  0  0  0  0  0  0
   -1.1528   -1.1982   14.8079 C   0  0  0  0  0  0  0  0  0  0  0  0
   -0.8359   -0.0432   15.4909 C   0  0  0  0  0  0  0  0  0  0  0  0
   -0.6069    1.0128   14.8097 O   0  0  0  0  0  0  0  0  0  0  0  0
   -0.7532    0.0398   16.8195 N   0  0  0  0  0  0  0  0  0  0  0  0
   -0.4106    1.3238   17.4217 C   0  0  0  0  0  0  0  0  0  0  0  0
   -0.5841    1.3718   18.8944 C   0  0  0  0  0  0  0  0  0  0  0  0
   -1.4214    0.2620   19.4763 C   0  0  0  0  0  0  0  0  0  0  0  0
   -0.9238   -1.0741   19.0239 C   0  0  0  0  0  0  0  0  0  0  0  0
   -0.9952   -1.0749   17.5237 C   0  0  0  0  0  0  0  0  0  0  0  0
   -1.3063   -2.2168   16.8940 N   0  0  0  0  0  0  0  0  0  0  0  0
   -1.2377   -1.2584   13.3254 C   0  0  0  0  0  0  0  0  0  0  0  0
    0.1472   -1.4445   12.7668 C   0  0  0  0  0  0  0  0  0  0  0  0
    0.2479   -1.5040   11.3663 N   0  0  0  0  0  0  0  0  0  0  0  0
    1.4900   -1.8527   10.7844 C   0  0  0  0  0  0  0  0  0  0  0  0
    1.7229   -0.9202    9.5931 C   0  0  0  0  0  0  0  0  0  0  0  0
    0.3438   -0.5473    9.0091 C   0  0  0  0  0  0  0  0  0  0  0  0
   -0.5067   -1.7604    9.1257 C   0  0  0  0  0  0  0  0  0  0  0  0
   -0.8601   -1.9865   10.6254 C   0  0  0  0  0  0  0  0  0  0  0  0
    0.5492    0.0653    7.7177 C   0  0  0  0  0  0  0  0  0  0  0  0
    0.0728   -0.5021    6.5472 N   0  0  0  0  0  0  0  0  0  0  0  0
    0.3811    0.2140    5.5337 O   0  0  0  0  0  0  0  0  0  0  0  0
    1.0617    1.2732    5.9447 C   0  0  0  0  0  0  0  0  0  0  0  0
    1.1812    1.2021    7.3252 C   0  0  0  0  0  0  0  0  0  0  0  0
    1.8452    2.1752    8.0346 C   0  0  0  0  0  0  0  0  0  0  0  0
    2.3945    3.2343    7.3290 C   0  0  0  0  0  0  0  0  0  0  0  0
    2.3062    3.3552    5.9615 C   0  0  0  0  0  0  0  0  0  0  0  0
    1.6257    2.3455    5.2964 C   0  0  0  0  0  0  0  0  0  0  0  0
    2.8603    4.4131    5.3014 F   0  0  0  0  0  0  0  0  0  0  0  0
  1  2  1  0
  2  3  2  0
  3  4  1  0
  4  5  2  0
  4  6  1  0
  6  7  1  0
  7  8  1  0
  8  9  1  0
  9 10  1  0
 10 11  1  0
 11 12  2  0
  3 13  1  0
 13 14  1  0
 14 15  1  0
 15 16  1  0
 16 17  1  0
 17 18  1  0
 18 19  1  0
 19 20  1  0
 18 21  1  0
 21 22  2  0
 22 23  1  0
 23 24  1  0
 24 25  2  0
 25 26  1  0
 26 27  2  0
 27 28  1  0
 28 29  2  0
 28 30  1  0
 12  2  1  0
 11  6  1  0
 20 15  1  0
 25 21  1  0
 29 24  1  0
M  END
$$$$
