
     RDKit          3D

 30 34  0  0  0  0  0  0  0  0999 V2000
    0.3397   -3.4227   16.1802 C   0  0  0  0  0  0  0  0  0  0  0  0
   -0.8228   -2.5220   16.0205 C   0  0  0  0  0  0  0  0  0  0  0  0
   -1.2193   -2.0030   14.8064 C   0  0  0  0  0  0  0  0  0  0  0  0
   -2.3214   -1.1744   14.8004 C   0  0  0  0  0  0  0  0  0  0  0  0
   -2.6989   -0.6867   13.6819 O   0  0  0  0  0  0  0  0  0  0  0  0
   -3.0175   -0.8501   15.8908 N   0  0  0  0  0  0  0  0  0  0  0  0
   -4.1678    0.0364   15.7501 C   0  0  0  0  0  0  0  0  0  0  0  0
   -5.0119    0.1370   16.9662 C   0  0  0  0  0  0  0  0  0  0  0  0
   -4.7864   -0.9433   17.9925 C   0  0  0  0  0  0  0  0  0  0  0  0
   -3.3352   -1.0559   18.3374 C   0  0  0  0  0  0  0  0  0  0  0  0
   -2.6116   -1.3677   17.0588 C   0  0  0  0  0  0  0  0  0  0  0  0
   -1.5440   -2.1774   17.1035 N   0  0  0  0  0  0  0  0  0  0  0  0
   -0.4643   -2.3462   13.5731 C   0  0  0  0  0  0  0  0  0  0  0  0
   -0.1598   -1.0785   12.8215 C   0  0  0  0  0  0  0  0  0  0  0  0
    0.0146   -1.2077   11.4330 N   0  0  0  0  0  0  0  0  0  0  0  0
    1.3004   -1.5214   10.9318 C   0  0  0  0  0  0  0  0  0  0  0  0
    1.5467   -0.6433    9.7024 C   0  0  0  0  0  0  0  0  0  0  0  0
    0.1822   -0.3753    9.0330 C   0  0  0  0  0  0  0  0  0  0  0  0
   -0.6117   -1.6234    9.1768 C   0  0  0  0  0  0  0  0  0  0  0  0
   -1.0290   -1.7868   10.6683 C   0  0  0  0  0  0  0  0  0  0  0  0
    0.4220    0.1770    7.7205 C   0  0  0  0  0  0  0  0  0  0  0  0
   -0.0750   -0.4122    6.5695 N   0  0  0  0  0  0  0  0  0  0  0  0
    0.2712    0.2494    5.5315 O   0  0  0  0  0  0  0  0  0  0  0  0
    0.9987    1.2907    5.9061 C   0  0  0  0  0  0  0  0  0  0  0  0
    1.1083    1.2672    7.2890 C   0  0  0  0  0  0  0  0  0  0  0  0
    1.8139    2.2348    7.9651 C   0  0  0  0  0  0  0  0  0  0  0  0
    2.4154    3.2393    7.2231 C   0  0  0  0  0  0  0  0  0  0  0  0
    2.3393    3.3115    5.8515 C   0  0  0  0  0  0  0  0  0  0  0  0
    1.6153    2.3099    5.2210 C   0  0  0  0  0  0  0  0  0  0  0  0
    2.9453    4.3163    5.1551 F   0  0  0  0  0  0  0  0  0  0  0  0
  1  2  1  0
  2  3  2  0
  3  4  1  0
  4  5  2  0
  4  6  1  0
  6  7  1  0
  7  8  1  0
  8  9  1  0
  9 10  1  0
 10 11  1  0
 11 12  2  0
  3 13  1  0
 13 14  1  0
 14 15  1  0
 15 16  1  0
 16 17  1  0
 17 18  1  0
 18 19  1  0
 19 20  1  0
 18 21  1  0
 21 22  2  0
 22 23  1  0
 23 24  1  0
 24 25  2  0
 25 26  1  0
 26 27  2  0
 27 28  1  0
 28 29  2  0
 28 30  1  0
 12  2  1  0
 11  6  1  0
 20 15  1  0
 25 21  1  0
 29 24  1  0
M  END
$$$$
