
     RDKit          3D

 30 34  0  0  0  0  0  0  0  0999 V2000
   -0.9524    1.0850   15.8749 C   0  0  0  0  0  0  0  0  0  0  0  0
   -1.9476    0.0403   16.2007 C   0  0  0  0  0  0  0  0  0  0  0  0
   -2.0023   -1.1806   15.5629 C   0  0  0  0  0  0  0  0  0  0  0  0
   -2.9827   -2.0628   15.9651 C   0  0  0  0  0  0  0  0  0  0  0  0
   -3.0445   -3.1975   15.3818 O   0  0  0  0  0  0  0  0  0  0  0  0
   -3.8712   -1.8044   16.9256 N   0  0  0  0  0  0  0  0  0  0  0  0
   -4.8589   -2.8250   17.2599 C   0  0  0  0  0  0  0  0  0  0  0  0
   -5.6340   -2.5420   18.4930 C   0  0  0  0  0  0  0  0  0  0  0  0
   -5.0448   -1.4843   19.3903 C   0  0  0  0  0  0  0  0  0  0  0  0
   -4.7569   -0.2337   18.6219 C   0  0  0  0  0  0  0  0  0  0  0  0
   -3.7967   -0.6103   17.5302 C   0  0  0  0  0  0  0  0  0  0  0  0
   -2.8567    0.2732   17.1657 N   0  0  0  0  0  0  0  0  0  0  0  0
   -1.0257   -1.4986   14.4887 C   0  0  0  0  0  0  0  0  0  0  0  0
   -1.6605   -1.2119   13.1547 C   0  0  0  0  0  0  0  0  0  0  0  0
   -0.8194   -1.3129   12.0334 N   0  0  0  0  0  0  0  0  0  0  0  0
    0.5489   -0.9792   12.1730 C   0  0  0  0  0  0  0  0  0  0  0  0
    0.9551   -0.1612   10.9446 C   0  0  0  0  0  0  0  0  0  0  0  0
    0.0937   -0.6362    9.7554 C   0  0  0  0  0  0  0  0  0  0  0  0
   -0.0775   -2.1036    9.9168 C   0  0  0  0  0  0  0  0  0  0  0  0
   -1.0355   -2.3709   11.1152 C   0  0  0  0  0  0  0  0  0  0  0  0
    0.6686   -0.1088    8.5403 C   0  0  0  0  0  0  0  0  0  0  0  0
    0.8675   -0.8937    7.4163 N   0  0  0  0  0  0  0  0  0  0  0  0
    1.3933   -0.2127    6.4705 O   0  0  0  0  0  0  0  0  0  0  0  0
    1.5754    1.0321    6.8847 C   0  0  0  0  0  0  0  0  0  0  0  0
    1.1236    1.1234    8.1933 C   0  0  0  0  0  0  0  0  0  0  0  0
    1.1871    2.3081    8.8887 C   0  0  0  0  0  0  0  0  0  0  0  0
    1.7175    3.4140    8.2429 C   0  0  0  0  0  0  0  0  0  0  0  0
    2.1799    3.3804    6.9477 C   0  0  0  0  0  0  0  0  0  0  0  0
    2.0919    2.1600    6.2936 C   0  0  0  0  0  0  0  0  0  0  0  0
    2.6958    4.4906    6.3451 F   0  0  0  0  0  0  0  0  0  0  0  0
  1  2  1  0
  2  3  2  0
  3  4  1  0
  4  5  2  0
  4  6  1  0
  6  7  1  0
  7  8  1  0
  8  9  1  0
  9 10  1  0
 10 11  1  0
 11 12  2  0
  3 13  1  0
 13 14  1  0
 14 15  1  0
 15 16  1  0
 16 17  1  0
 17 18  1  0
 18 19  1  0
 19 20  1  0
 18 21  1  0
 21 22  2  0
 22 23  1  0
 23 24  1  0
 24 25  2  0
 25 26  1  0
 26 27  2  0
 27 28  1  0
 28 29  2  0
 28 30  1  0
 12  2  1  0
 11  6  1  0
 20 15  1  0
 25 21  1  0
 29 24  1  0
M  END
$$$$
