
     RDKit          3D

 30 34  0  0  0  0  0  0  0  0999 V2000
   -2.1900   -2.9256   15.9558 C   0  0  0  0  0  0  0  0  0  0  0  0
   -2.3503   -1.4618   16.0963 C   0  0  0  0  0  0  0  0  0  0  0  0
   -2.2405   -0.5818   15.0407 C   0  0  0  0  0  0  0  0  0  0  0  0
   -2.4121    0.7590   15.3125 C   0  0  0  0  0  0  0  0  0  0  0  0
   -2.3125    1.5849   14.3432 O   0  0  0  0  0  0  0  0  0  0  0  0
   -2.6753    1.2472   16.5253 N   0  0  0  0  0  0  0  0  0  0  0  0
   -2.8375    2.6889   16.6807 C   0  0  0  0  0  0  0  0  0  0  0  0
   -3.3656    3.1036   18.0037 C   0  0  0  0  0  0  0  0  0  0  0  0
   -3.9956    2.0010   18.8151 C   0  0  0  0  0  0  0  0  0  0  0  0
   -3.0705    0.8316   18.9337 C   0  0  0  0  0  0  0  0  0  0  0  0
   -2.7771    0.3709   17.5347 C   0  0  0  0  0  0  0  0  0  0  0  0
   -2.6163   -0.9407   17.3084 N   0  0  0  0  0  0  0  0  0  0  0  0
   -1.9483   -1.0952   13.6770 C   0  0  0  0  0  0  0  0  0  0  0  0
   -0.5609   -0.6652   13.2831 C   0  0  0  0  0  0  0  0  0  0  0  0
   -0.1746   -0.9518   11.9626 N   0  0  0  0  0  0  0  0  0  0  0  0
    1.2010   -1.1160   11.6731 C   0  0  0  0  0  0  0  0  0  0  0  0
    1.4897   -0.3849   10.3596 C   0  0  0  0  0  0  0  0  0  0  0  0
    0.2096   -0.4374    9.4991 C   0  0  0  0  0  0  0  0  0  0  0  0
   -0.4081   -1.7673    9.7409 C   0  0  0  0  0  0  0  0  0  0  0  0
   -1.0046   -1.7924   11.1792 C   0  0  0  0  0  0  0  0  0  0  0  0
    0.5509   -0.0371    8.1544 C   0  0  0  0  0  0  0  0  0  0  0  0
    0.2408   -0.8153    7.0511 N   0  0  0  0  0  0  0  0  0  0  0  0
    0.6466   -0.2614    5.9725 O   0  0  0  0  0  0  0  0  0  0  0  0
    1.2357    0.8864    6.2719 C   0  0  0  0  0  0  0  0  0  0  0  0
    1.1876    1.0514    7.6487 C   0  0  0  0  0  0  0  0  0  0  0  0
    1.7266    2.1629    8.2530 C   0  0  0  0  0  0  0  0  0  0  0  0
    2.3222    3.1185    7.4447 C   0  0  0  0  0  0  0  0  0  0  0  0
    2.3981    3.0063    6.0757 C   0  0  0  0  0  0  0  0  0  0  0  0
    1.8385    1.8652    5.5191 C   0  0  0  0  0  0  0  0  0  0  0  0
    2.9929    3.9685    5.3127 F   0  0  0  0  0  0  0  0  0  0  0  0
  1  2  1  0
  2  3  2  0
  3  4  1  0
  4  5  2  0
  4  6  1  0
  6  7  1  0
  7  8  1  0
  8  9  1  0
  9 10  1  0
 10 11  1  0
 11 12  2  0
  3 13  1  0
 13 14  1  0
 14 15  1  0
 15 16  1  0
 16 17  1  0
 17 18  1  0
 18 19  1  0
 19 20  1  0
 18 21  1  0
 21 22  2  0
 22 23  1  0
 23 24  1  0
 24 25  2  0
 25 26  1  0
 26 27  2  0
 27 28  1  0
 28 29  2  0
 28 30  1  0
 12  2  1  0
 11  6  1  0
 20 15  1  0
 25 21  1  0
 29 24  1  0
M  END
$$$$
