
     RDKit          3D

 30 34  0  0  0  0  0  0  0  0999 V2000
   -1.5748   -5.1386   14.2105 C   0  0  0  0  0  0  0  0  0  0  0  0
   -2.0243   -3.9936   15.0321 C   0  0  0  0  0  0  0  0  0  0  0  0
   -1.4638   -2.7366   14.9528 C   0  0  0  0  0  0  0  0  0  0  0  0
   -1.9790   -1.7593   15.7779 C   0  0  0  0  0  0  0  0  0  0  0  0
   -1.4682   -0.5903   15.7144 O   0  0  0  0  0  0  0  0  0  0  0  0
   -2.9777   -1.9594   16.6388 N   0  0  0  0  0  0  0  0  0  0  0  0
   -3.4338   -0.8398   17.4558 C   0  0  0  0  0  0  0  0  0  0  0  0
   -4.6954   -1.0976   18.1929 C   0  0  0  0  0  0  0  0  0  0  0  0
   -5.4897   -2.2824   17.7068 C   0  0  0  0  0  0  0  0  0  0  0  0
   -4.6325   -3.5063   17.6377 C   0  0  0  0  0  0  0  0  0  0  0  0
   -3.5054   -3.1903   16.6967 C   0  0  0  0  0  0  0  0  0  0  0  0
   -3.0303   -4.1660   15.9096 N   0  0  0  0  0  0  0  0  0  0  0  0
   -0.3497   -2.4820   14.0027 C   0  0  0  0  0  0  0  0  0  0  0  0
   -0.3563   -1.0251   13.6256 C   0  0  0  0  0  0  0  0  0  0  0  0
   -0.7740   -0.7252   12.3177 N   0  0  0  0  0  0  0  0  0  0  0  0
   -1.1139   -1.7886   11.4479 C   0  0  0  0  0  0  0  0  0  0  0  0
   -0.5113   -1.4771   10.0757 C   0  0  0  0  0  0  0  0  0  0  0  0
   -0.4749    0.0572    9.9137 C   0  0  0  0  0  0  0  0  0  0  0  0
   -1.7058    0.5801   10.5618 C   0  0  0  0  0  0  0  0  0  0  0  0
   -1.5650    0.4317   12.1056 C   0  0  0  0  0  0  0  0  0  0  0  0
   -0.2082    0.3603    8.5272 C   0  0  0  0  0  0  0  0  0  0  0  0
   -1.0145   -0.1050    7.5014 N   0  0  0  0  0  0  0  0  0  0  0  0
   -0.5780    0.2846    6.3645 O   0  0  0  0  0  0  0  0  0  0  0  0
    0.5133    1.0124    6.5475 C   0  0  0  0  0  0  0  0  0  0  0  0
    0.7681    1.0755    7.9099 C   0  0  0  0  0  0  0  0  0  0  0  0
    1.8479    1.7705    8.4020 C   0  0  0  0  0  0  0  0  0  0  0  0
    2.6785    2.4096    7.4949 C   0  0  0  0  0  0  0  0  0  0  0  0
    2.4735    2.3803    6.1350 C   0  0  0  0  0  0  0  0  0  0  0  0
    1.3698    1.6647    5.6936 C   0  0  0  0  0  0  0  0  0  0  0  0
    3.3138    3.0222    5.2726 F   0  0  0  0  0  0  0  0  0  0  0  0
  1  2  1  0
  2  3  2  0
  3  4  1  0
  4  5  2  0
  4  6  1  0
  6  7  1  0
  7  8  1  0
  8  9  1  0
  9 10  1  0
 10 11  1  0
 11 12  2  0
  3 13  1  0
 13 14  1  0
 14 15  1  0
 15 16  1  0
 16 17  1  0
 17 18  1  0
 18 19  1  0
 19 20  1  0
 18 21  1  0
 21 22  2  0
 22 23  1  0
 23 24  1  0
 24 25  2  0
 25 26  1  0
 26 27  2  0
 27 28  1  0
 28 29  2  0
 28 30  1  0
 12  2  1  0
 11  6  1  0
 20 15  1  0
 25 21  1  0
 29 24  1  0
M  END
$$$$
