
     RDKit          3D

 30 34  0  0  0  0  0  0  0  0999 V2000
   -1.1561   -6.2445   12.4209 C   0  0  0  0  0  0  0  0  0  0  0  0
   -1.6534   -5.2666   13.4131 C   0  0  0  0  0  0  0  0  0  0  0  0
   -0.9549   -4.1361   13.7800 C   0  0  0  0  0  0  0  0  0  0  0  0
   -1.5349   -3.3089   14.7184 C   0  0  0  0  0  0  0  0  0  0  0  0
   -0.8978   -2.2582   15.0672 O   0  0  0  0  0  0  0  0  0  0  0  0
   -2.7202   -3.5383   15.2849 N   0  0  0  0  0  0  0  0  0  0  0  0
   -3.2256   -2.5826   16.2648 C   0  0  0  0  0  0  0  0  0  0  0  0
   -4.6431   -2.7950   16.6481 C   0  0  0  0  0  0  0  0  0  0  0  0
   -5.4300   -3.6850   15.7209 C   0  0  0  0  0  0  0  0  0  0  0  0
   -4.7199   -4.9823   15.4976 C   0  0  0  0  0  0  0  0  0  0  0  0
   -3.3793   -4.6442   14.9111 C   0  0  0  0  0  0  0  0  0  0  0  0
   -2.8465   -5.4722   14.0012 N   0  0  0  0  0  0  0  0  0  0  0  0
    0.3686   -3.8525   13.1661 C   0  0  0  0  0  0  0  0  0  0  0  0
    0.2635   -4.0410   11.6767 C   0  0  0  0  0  0  0  0  0  0  0  0
   -0.0258   -2.8894   10.9250 N   0  0  0  0  0  0  0  0  0  0  0  0
   -0.8757   -3.0036    9.7991 C   0  0  0  0  0  0  0  0  0  0  0  0
   -0.2677   -2.1661    8.6714 C   0  0  0  0  0  0  0  0  0  0  0  0
    0.4885   -0.9851    9.3157 C   0  0  0  0  0  0  0  0  0  0  0  0
   -0.3089   -0.5671   10.4981 C   0  0  0  0  0  0  0  0  0  0  0  0
   -0.1782   -1.6550   11.6048 C   0  0  0  0  0  0  0  0  0  0  0  0
    0.7971   -0.0261    8.2812 C   0  0  0  0  0  0  0  0  0  0  0  0
    0.7373   -0.3473    6.9350 N   0  0  0  0  0  0  0  0  0  0  0  0
    1.0583    0.6565    6.2109 O   0  0  0  0  0  0  0  0  0  0  0  0
    1.3447    1.6824    6.9981 C   0  0  0  0  0  0  0  0  0  0  0  0
    1.1862    1.2752    8.3149 C   0  0  0  0  0  0  0  0  0  0  0  0
    1.4164    2.1378    9.3608 C   0  0  0  0  0  0  0  0  0  0  0  0
    1.8130    3.4319    9.0617 C   0  0  0  0  0  0  0  0  0  0  0  0
    1.9856    3.8888    7.7757 C   0  0  0  0  0  0  0  0  0  0  0  0
    1.7398    2.9767    6.7595 C   0  0  0  0  0  0  0  0  0  0  0  0
    2.3774    5.1707    7.5204 F   0  0  0  0  0  0  0  0  0  0  0  0
  1  2  1  0
  2  3  2  0
  3  4  1  0
  4  5  2  0
  4  6  1  0
  6  7  1  0
  7  8  1  0
  8  9  1  0
  9 10  1  0
 10 11  1  0
 11 12  2  0
  3 13  1  0
 13 14  1  0
 14 15  1  0
 15 16  1  0
 16 17  1  0
 17 18  1  0
 18 19  1  0
 19 20  1  0
 18 21  1  0
 21 22  2  0
 22 23  1  0
 23 24  1  0
 24 25  2  0
 25 26  1  0
 26 27  2  0
 27 28  1  0
 28 29  2  0
 28 30  1  0
 12  2  1  0
 11  6  1  0
 20 15  1  0
 25 21  1  0
 29 24  1  0
M  END
$$$$
