
     RDKit          3D

 30 34  0  0  0  0  0  0  0  0999 V2000
    0.4192   -4.2029   15.6331 C   0  0  0  0  0  0  0  0  0  0  0  0
   -0.9715   -4.4086   15.1728 C   0  0  0  0  0  0  0  0  0  0  0  0
   -1.7714   -3.3917   14.6969 C   0  0  0  0  0  0  0  0  0  0  0  0
   -3.0500   -3.7229   14.3013 C   0  0  0  0  0  0  0  0  0  0  0  0
   -3.8015   -2.7897   13.8586 O   0  0  0  0  0  0  0  0  0  0  0  0
   -3.5510   -4.9579   14.3526 N   0  0  0  0  0  0  0  0  0  0  0  0
   -4.9209   -5.1779   13.9011 C   0  0  0  0  0  0  0  0  0  0  0  0
   -5.2963   -6.6071   13.7675 C   0  0  0  0  0  0  0  0  0  0  0  0
   -4.1395   -7.5727   13.7438 C   0  0  0  0  0  0  0  0  0  0  0  0
   -3.2342   -7.3484   14.9131 C   0  0  0  0  0  0  0  0  0  0  0  0
   -2.7531   -5.9287   14.8192 C   0  0  0  0  0  0  0  0  0  0  0  0
   -1.5037   -5.6443   15.2132 N   0  0  0  0  0  0  0  0  0  0  0  0
   -1.2416   -2.0049   14.6269 C   0  0  0  0  0  0  0  0  0  0  0  0
   -0.1025   -1.9691   13.6440 C   0  0  0  0  0  0  0  0  0  0  0  0
   -0.4290   -1.5918   12.3302 N   0  0  0  0  0  0  0  0  0  0  0  0
   -0.6998   -2.6015   11.3763 C   0  0  0  0  0  0  0  0  0  0  0  0
   -0.0041   -2.2062   10.0713 C   0  0  0  0  0  0  0  0  0  0  0  0
    0.0333   -0.6647   10.0048 C   0  0  0  0  0  0  0  0  0  0  0  0
   -1.2437   -0.1850   10.5945 C   0  0  0  0  0  0  0  0  0  0  0  0
   -1.2110   -0.4261   12.1327 C   0  0  0  0  0  0  0  0  0  0  0  0
    0.3950   -0.2778    8.6614 C   0  0  0  0  0  0  0  0  0  0  0  0
    0.0317   -1.0270    7.5542 N   0  0  0  0  0  0  0  0  0  0  0  0
    0.4685   -0.4928    6.4778 O   0  0  0  0  0  0  0  0  0  0  0  0
    1.1312    0.6127    6.7826 C   0  0  0  0  0  0  0  0  0  0  0  0
    1.0984    0.7710    8.1606 C   0  0  0  0  0  0  0  0  0  0  0  0
    1.7098    1.8414    8.7702 C   0  0  0  0  0  0  0  0  0  0  0  0
    2.3627    2.7624    7.9660 C   0  0  0  0  0  0  0  0  0  0  0  0
    2.4265    2.6550    6.5960 C   0  0  0  0  0  0  0  0  0  0  0  0
    1.7929    1.5561    6.0340 C   0  0  0  0  0  0  0  0  0  0  0  0
    3.0792    3.5823    5.8372 F   0  0  0  0  0  0  0  0  0  0  0  0
  1  2  1  0
  2  3  2  0
  3  4  1  0
  4  5  2  0
  4  6  1  0
  6  7  1  0
  7  8  1  0
  8  9  1  0
  9 10  1  0
 10 11  1  0
 11 12  2  0
  3 13  1  0
 13 14  1  0
 14 15  1  0
 15 16  1  0
 16 17  1  0
 17 18  1  0
 18 19  1  0
 19 20  1  0
 18 21  1  0
 21 22  2  0
 22 23  1  0
 23 24  1  0
 24 25  2  0
 25 26  1  0
 26 27  2  0
 27 28  1  0
 28 29  2  0
 28 30  1  0
 12  2  1  0
 11  6  1  0
 20 15  1  0
 25 21  1  0
 29 24  1  0
M  END
$$$$
