
     RDKit          3D

 30 34  0  0  0  0  0  0  0  0999 V2000
   -3.7947   -1.3678   14.1542 C   0  0  0  0  0  0  0  0  0  0  0  0
   -3.1917   -2.7132   14.2746 C   0  0  0  0  0  0  0  0  0  0  0  0
   -1.8357   -2.9285   14.3984 C   0  0  0  0  0  0  0  0  0  0  0  0
   -1.4079   -4.2353   14.5011 C   0  0  0  0  0  0  0  0  0  0  0  0
   -0.1538   -4.4485   14.6160 O   0  0  0  0  0  0  0  0  0  0  0  0
   -2.2229   -5.2909   14.4875 N   0  0  0  0  0  0  0  0  0  0  0  0
   -1.6441   -6.6249   14.6065 C   0  0  0  0  0  0  0  0  0  0  0  0
   -2.6390   -7.7033   14.8270 C   0  0  0  0  0  0  0  0  0  0  0  0
   -4.0029   -7.2355   15.2652 C   0  0  0  0  0  0  0  0  0  0  0  0
   -4.5276   -6.1831   14.3407 C   0  0  0  0  0  0  0  0  0  0  0  0
   -3.5369   -5.0547   14.3661 C   0  0  0  0  0  0  0  0  0  0  0  0
   -3.9898   -3.7970   14.2637 N   0  0  0  0  0  0  0  0  0  0  0  0
   -0.9018   -1.7726   14.4173 C   0  0  0  0  0  0  0  0  0  0  0  0
    0.2386   -2.0542   13.4766 C   0  0  0  0  0  0  0  0  0  0  0  0
   -0.0543   -1.9701   12.1047 N   0  0  0  0  0  0  0  0  0  0  0  0
    0.6684   -2.7841   11.2003 C   0  0  0  0  0  0  0  0  0  0  0  0
    1.0238   -1.9250    9.9842 C   0  0  0  0  0  0  0  0  0  0  0  0
   -0.0912   -0.8726    9.8080 C   0  0  0  0  0  0  0  0  0  0  0  0
   -1.3671   -1.5441   10.1681 C   0  0  0  0  0  0  0  0  0  0  0  0
   -1.4006   -1.7708   11.7085 C   0  0  0  0  0  0  0  0  0  0  0  0
    0.0596   -0.2663    8.5061 C   0  0  0  0  0  0  0  0  0  0  0  0
   -0.7410   -0.6166    7.4313 N   0  0  0  0  0  0  0  0  0  0  0  0
   -0.4184    0.0456    6.3862 O   0  0  0  0  0  0  0  0  0  0  0  0
    0.5863    0.8564    6.6820 C   0  0  0  0  0  0  0  0  0  0  0  0
    0.9072    0.6776    8.0199 C   0  0  0  0  0  0  0  0  0  0  0  0
    1.9216    1.3931    8.6117 C   0  0  0  0  0  0  0  0  0  0  0  0
    2.6179    2.3024    7.8309 C   0  0  0  0  0  0  0  0  0  0  0  0
    2.3423    2.5198    6.5008 C   0  0  0  0  0  0  0  0  0  0  0  0
    1.3096    1.7711    5.9551 C   0  0  0  0  0  0  0  0  0  0  0  0
    3.0503    3.4241    5.7639 F   0  0  0  0  0  0  0  0  0  0  0  0
  1  2  1  0
  2  3  2  0
  3  4  1  0
  4  5  2  0
  4  6  1  0
  6  7  1  0
  7  8  1  0
  8  9  1  0
  9 10  1  0
 10 11  1  0
 11 12  2  0
  3 13  1  0
 13 14  1  0
 14 15  1  0
 15 16  1  0
 16 17  1  0
 17 18  1  0
 18 19  1  0
 19 20  1  0
 18 21  1  0
 21 22  2  0
 22 23  1  0
 23 24  1  0
 24 25  2  0
 25 26  1  0
 26 27  2  0
 27 28  1  0
 28 29  2  0
 28 30  1  0
 12  2  1  0
 11  6  1  0
 20 15  1  0
 25 21  1  0
 29 24  1  0
M  END
$$$$
