
     RDKit          3D

 30 34  0  0  0  0  0  0  0  0999 V2000
   -1.1544    1.7084   13.0458 C   0  0  0  0  0  0  0  0  0  0  0  0
   -1.9328    0.7316   13.8383 C   0  0  0  0  0  0  0  0  0  0  0  0
   -1.5386   -0.5753   14.0308 C   0  0  0  0  0  0  0  0  0  0  0  0
   -2.3603   -1.3800   14.7914 C   0  0  0  0  0  0  0  0  0  0  0  0
   -2.0066   -2.5932   14.9771 O   0  0  0  0  0  0  0  0  0  0  0  0
   -3.5022   -0.9699   15.3451 N   0  0  0  0  0  0  0  0  0  0  0  0
   -4.2813   -1.9208   16.1310 C   0  0  0  0  0  0  0  0  0  0  0  0
   -5.3932   -1.3093   16.8997 C   0  0  0  0  0  0  0  0  0  0  0  0
   -5.3159    0.1876   17.0554 C   0  0  0  0  0  0  0  0  0  0  0  0
   -5.1334    0.8525   15.7280 C   0  0  0  0  0  0  0  0  0  0  0  0
   -3.8631    0.3052   15.1430 C   0  0  0  0  0  0  0  0  0  0  0  0
   -3.0894    1.1173   14.4088 N   0  0  0  0  0  0  0  0  0  0  0  0
   -0.2708   -1.0621   13.4271 C   0  0  0  0  0  0  0  0  0  0  0  0
   -0.5809   -2.2133   12.5088 C   0  0  0  0  0  0  0  0  0  0  0  0
   -0.1949   -2.0569   11.1665 N   0  0  0  0  0  0  0  0  0  0  0  0
    1.1731   -1.8508   10.8682 C   0  0  0  0  0  0  0  0  0  0  0  0
    1.2559   -0.7573    9.8002 C   0  0  0  0  0  0  0  0  0  0  0  0
   -0.0184   -0.8462    8.9341 C   0  0  0  0  0  0  0  0  0  0  0  0
   -0.3416   -2.2910    8.8045 C   0  0  0  0  0  0  0  0  0  0  0  0
   -0.8649   -2.8156   10.1742 C   0  0  0  0  0  0  0  0  0  0  0  0
    0.1822   -0.0453    7.7494 C   0  0  0  0  0  0  0  0  0  0  0  0
   -0.1672   -0.4947    6.4865 N   0  0  0  0  0  0  0  0  0  0  0  0
    0.1097    0.3811    5.5970 O   0  0  0  0  0  0  0  0  0  0  0  0
    0.6452    1.4399    6.1857 C   0  0  0  0  0  0  0  0  0  0  0  0
    0.7015    1.1942    7.5500 C   0  0  0  0  0  0  0  0  0  0  0  0
    1.2151    2.1257    8.4217 C   0  0  0  0  0  0  0  0  0  0  0  0
    1.6770    3.3226    7.8970 C   0  0  0  0  0  0  0  0  0  0  0  0
    1.6453    3.6188    6.5540 C   0  0  0  0  0  0  0  0  0  0  0  0
    1.1172    2.6435    5.7203 C   0  0  0  0  0  0  0  0  0  0  0  0
    2.1097    4.8089    6.0746 F   0  0  0  0  0  0  0  0  0  0  0  0
  1  2  1  0
  2  3  2  0
  3  4  1  0
  4  5  2  0
  4  6  1  0
  6  7  1  0
  7  8  1  0
  8  9  1  0
  9 10  1  0
 10 11  1  0
 11 12  2  0
  3 13  1  0
 13 14  1  0
 14 15  1  0
 15 16  1  0
 16 17  1  0
 17 18  1  0
 18 19  1  0
 19 20  1  0
 18 21  1  0
 21 22  2  0
 22 23  1  0
 23 24  1  0
 24 25  2  0
 25 26  1  0
 26 27  2  0
 27 28  1  0
 28 29  2  0
 28 30  1  0
 12  2  1  0
 11  6  1  0
 20 15  1  0
 25 21  1  0
 29 24  1  0
M  END
$$$$
