
     RDKit          3D

 30 34  0  0  0  0  0  0  0  0999 V2000
   -0.8803   -1.3818   16.7361 C   0  0  0  0  0  0  0  0  0  0  0  0
   -1.6736   -2.4318   16.0607 C   0  0  0  0  0  0  0  0  0  0  0  0
   -1.2152   -3.1494   14.9764 C   0  0  0  0  0  0  0  0  0  0  0  0
   -2.0595   -4.0996   14.4421 C   0  0  0  0  0  0  0  0  0  0  0  0
   -1.6469   -4.7712   13.4370 O   0  0  0  0  0  0  0  0  0  0  0  0
   -3.2809   -4.3607   14.9098 N   0  0  0  0  0  0  0  0  0  0  0  0
   -4.0758   -5.3946   14.2555 C   0  0  0  0  0  0  0  0  0  0  0  0
   -5.3050   -5.7764   14.9935 C   0  0  0  0  0  0  0  0  0  0  0  0
   -5.3472   -5.3395   16.4352 C   0  0  0  0  0  0  0  0  0  0  0  0
   -5.0645   -3.8757   16.5568 C   0  0  0  0  0  0  0  0  0  0  0  0
   -3.7030   -3.6493   15.9647 C   0  0  0  0  0  0  0  0  0  0  0  0
   -2.9097   -2.7168   16.5108 N   0  0  0  0  0  0  0  0  0  0  0  0
    0.1417   -2.8820   14.4324 C   0  0  0  0  0  0  0  0  0  0  0  0
    0.1237   -1.5623   13.7094 C   0  0  0  0  0  0  0  0  0  0  0  0
   -0.0611   -1.6205   12.3174 N   0  0  0  0  0  0  0  0  0  0  0  0
    0.7519   -2.4934   11.5558 C   0  0  0  0  0  0  0  0  0  0  0  0
    1.1807   -1.7441   10.2918 C   0  0  0  0  0  0  0  0  0  0  0  0
    0.0568   -0.7511    9.9276 C   0  0  0  0  0  0  0  0  0  0  0  0
   -1.2262   -1.4269   10.2533 C   0  0  0  0  0  0  0  0  0  0  0  0
   -1.3763   -1.5052   11.8014 C   0  0  0  0  0  0  0  0  0  0  0  0
    0.2951   -0.2684    8.5877 C   0  0  0  0  0  0  0  0  0  0  0  0
   -0.0572   -1.0004    7.4656 N   0  0  0  0  0  0  0  0  0  0  0  0
    0.2572   -0.3756    6.3952 O   0  0  0  0  0  0  0  0  0  0  0  0
    0.8221    0.7778    6.7188 C   0  0  0  0  0  0  0  0  0  0  0  0
    0.8573    0.8694    8.1028 C   0  0  0  0  0  0  0  0  0  0  0  0
    1.3934    1.9688    8.7313 C   0  0  0  0  0  0  0  0  0  0  0  0
    1.8999    2.9880    7.9401 C   0  0  0  0  0  0  0  0  0  0  0  0
    1.8908    2.9498    6.5651 C   0  0  0  0  0  0  0  0  0  0  0  0
    1.3384    1.8176    5.9837 C   0  0  0  0  0  0  0  0  0  0  0  0
    2.3992    3.9733    5.8194 F   0  0  0  0  0  0  0  0  0  0  0  0
  1  2  1  0
  2  3  2  0
  3  4  1  0
  4  5  2  0
  4  6  1  0
  6  7  1  0
  7  8  1  0
  8  9  1  0
  9 10  1  0
 10 11  1  0
 11 12  2  0
  3 13  1  0
 13 14  1  0
 14 15  1  0
 15 16  1  0
 16 17  1  0
 17 18  1  0
 18 19  1  0
 19 20  1  0
 18 21  1  0
 21 22  2  0
 22 23  1  0
 23 24  1  0
 24 25  2  0
 25 26  1  0
 26 27  2  0
 27 28  1  0
 28 29  2  0
 28 30  1  0
 12  2  1  0
 11  6  1  0
 20 15  1  0
 25 21  1  0
 29 24  1  0
M  END
$$$$
