
     RDKit          3D

 30 34  0  0  0  0  0  0  0  0999 V2000
   -1.2054    1.2487   13.1024 C   0  0  0  0  0  0  0  0  0  0  0  0
   -1.1129    0.4286   14.3300 C   0  0  0  0  0  0  0  0  0  0  0  0
   -1.4368   -0.9107   14.3738 C   0  0  0  0  0  0  0  0  0  0  0  0
   -1.3055   -1.5555   15.5855 C   0  0  0  0  0  0  0  0  0  0  0  0
   -1.6027   -2.7966   15.6396 O   0  0  0  0  0  0  0  0  0  0  0  0
   -0.8875   -0.9633   16.7050 N   0  0  0  0  0  0  0  0  0  0  0  0
   -0.7895   -1.7586   17.9243 C   0  0  0  0  0  0  0  0  0  0  0  0
   -0.0889   -1.0780   19.0411 C   0  0  0  0  0  0  0  0  0  0  0  0
    0.7234    0.1283   18.6461 C   0  0  0  0  0  0  0  0  0  0  0  0
   -0.1008    1.0874   17.8472 C   0  0  0  0  0  0  0  0  0  0  0  0
   -0.5789    0.3394   16.6358 C   0  0  0  0  0  0  0  0  0  0  0  0
   -0.6943    0.9996   15.4748 N   0  0  0  0  0  0  0  0  0  0  0  0
   -1.9051   -1.5992   13.1428 C   0  0  0  0  0  0  0  0  0  0  0  0
   -0.7807   -2.4380   12.5978 C   0  0  0  0  0  0  0  0  0  0  0  0
   -0.3563   -2.1336   11.2931 N   0  0  0  0  0  0  0  0  0  0  0  0
    0.9877   -2.3927   10.9334 C   0  0  0  0  0  0  0  0  0  0  0  0
    1.4903   -1.1962   10.1218 C   0  0  0  0  0  0  0  0  0  0  0  0
    0.2847   -0.5991    9.3656 C   0  0  0  0  0  0  0  0  0  0  0  0
   -0.5677   -1.7457    8.9564 C   0  0  0  0  0  0  0  0  0  0  0  0
   -1.2604   -2.3356   10.2203 C   0  0  0  0  0  0  0  0  0  0  0  0
    0.7844    0.3173    8.3678 C   0  0  0  0  0  0  0  0  0  0  0  0
    1.1587   -0.1020    7.1016 N   0  0  0  0  0  0  0  0  0  0  0  0
    1.5738    0.8821    6.3985 O   0  0  0  0  0  0  0  0  0  0  0  0
    1.5072    1.9887    7.1231 C   0  0  0  0  0  0  0  0  0  0  0  0
    1.0096    1.6571    8.3751 C   0  0  0  0  0  0  0  0  0  0  0  0
    0.8299    2.6131    9.3472 C   0  0  0  0  0  0  0  0  0  0  0  0
    1.1613    3.9235    9.0402 C   0  0  0  0  0  0  0  0  0  0  0  0
    1.6580    4.3082    7.8164 C   0  0  0  0  0  0  0  0  0  0  0  0
    1.8192    3.3034    6.8734 C   0  0  0  0  0  0  0  0  0  0  0  0
    1.9731    5.6091    7.5512 F   0  0  0  0  0  0  0  0  0  0  0  0
  1  2  1  0
  2  3  2  0
  3  4  1  0
  4  5  2  0
  4  6  1  0
  6  7  1  0
  7  8  1  0
  8  9  1  0
  9 10  1  0
 10 11  1  0
 11 12  2  0
  3 13  1  0
 13 14  1  0
 14 15  1  0
 15 16  1  0
 16 17  1  0
 17 18  1  0
 18 19  1  0
 19 20  1  0
 18 21  1  0
 21 22  2  0
 22 23  1  0
 23 24  1  0
 24 25  2  0
 25 26  1  0
 26 27  2  0
 27 28  1  0
 28 29  2  0
 28 30  1  0
 12  2  1  0
 11  6  1  0
 20 15  1  0
 25 21  1  0
 29 24  1  0
M  END
$$$$
