
     RDKit          3D

 30 34  0  0  0  0  0  0  0  0999 V2000
   -0.9864   -2.7672   15.6437 C   0  0  0  0  0  0  0  0  0  0  0  0
   -1.7749   -3.7886   14.9203 C   0  0  0  0  0  0  0  0  0  0  0  0
   -2.1823   -3.6456   13.6111 C   0  0  0  0  0  0  0  0  0  0  0  0
   -2.9137   -4.6756   13.0585 C   0  0  0  0  0  0  0  0  0  0  0  0
   -3.2976   -4.5553   11.8462 O   0  0  0  0  0  0  0  0  0  0  0  0
   -3.2456   -5.7899   13.7118 N   0  0  0  0  0  0  0  0  0  0  0  0
   -4.0221   -6.8079   13.0121 C   0  0  0  0  0  0  0  0  0  0  0  0
   -4.1269   -8.0988   13.7359 C   0  0  0  0  0  0  0  0  0  0  0  0
   -3.1352   -8.2871   14.8548 C   0  0  0  0  0  0  0  0  0  0  0  0
   -3.1662   -7.1245   15.7955 C   0  0  0  0  0  0  0  0  0  0  0  0
   -2.8374   -5.9046   14.9835 C   0  0  0  0  0  0  0  0  0  0  0  0
   -2.1243   -4.9233   15.5544 N   0  0  0  0  0  0  0  0  0  0  0  0
   -1.8277   -2.4155   12.8561 C   0  0  0  0  0  0  0  0  0  0  0  0
   -0.4616   -2.5942   12.2506 C   0  0  0  0  0  0  0  0  0  0  0  0
   -0.3532   -2.3254   10.8754 N   0  0  0  0  0  0  0  0  0  0  0  0
    0.6194   -3.0202   10.1177 C   0  0  0  0  0  0  0  0  0  0  0  0
    1.2833   -2.0114    9.1773 C   0  0  0  0  0  0  0  0  0  0  0  0
    0.2367   -0.9323    8.8280 C   0  0  0  0  0  0  0  0  0  0  0  0
   -1.0701   -1.6311    8.7169 C   0  0  0  0  0  0  0  0  0  0  0  0
   -1.5354   -2.0600   10.1399 C   0  0  0  0  0  0  0  0  0  0  0  0
    0.7361   -0.1603    7.7145 C   0  0  0  0  0  0  0  0  0  0  0  0
    0.5589   -0.5603    6.4002 N   0  0  0  0  0  0  0  0  0  0  0  0
    1.0907    0.2759    5.5923 O   0  0  0  0  0  0  0  0  0  0  0  0
    1.6411    1.2588    6.2889 C   0  0  0  0  0  0  0  0  0  0  0  0
    1.4295    1.0055    7.6365 C   0  0  0  0  0  0  0  0  0  0  0  0
    1.8937    1.8642    8.6051 C   0  0  0  0  0  0  0  0  0  0  0  0
    2.5822    2.9955    8.1958 C   0  0  0  0  0  0  0  0  0  0  0  0
    2.8205    3.2958    6.8747 C   0  0  0  0  0  0  0  0  0  0  0  0
    2.3301    2.3953    5.9400 C   0  0  0  0  0  0  0  0  0  0  0  0
    3.5028    4.4199    6.5103 F   0  0  0  0  0  0  0  0  0  0  0  0
  1  2  1  0
  2  3  2  0
  3  4  1  0
  4  5  2  0
  4  6  1  0
  6  7  1  0
  7  8  1  0
  8  9  1  0
  9 10  1  0
 10 11  1  0
 11 12  2  0
  3 13  1  0
 13 14  1  0
 14 15  1  0
 15 16  1  0
 16 17  1  0
 17 18  1  0
 18 19  1  0
 19 20  1  0
 18 21  1  0
 21 22  2  0
 22 23  1  0
 23 24  1  0
 24 25  2  0
 25 26  1  0
 26 27  2  0
 27 28  1  0
 28 29  2  0
 28 30  1  0
 12  2  1  0
 11  6  1  0
 20 15  1  0
 25 21  1  0
 29 24  1  0
M  END
$$$$
