
     RDKit          3D

 30 34  0  0  0  0  0  0  0  0999 V2000
    1.1103   -2.1992   15.1499 C   0  0  0  0  0  0  0  0  0  0  0  0
   -0.0555   -3.1086   15.1020 C   0  0  0  0  0  0  0  0  0  0  0  0
   -1.1160   -2.9376   14.2380 C   0  0  0  0  0  0  0  0  0  0  0  0
   -2.1392   -3.8598   14.2996 C   0  0  0  0  0  0  0  0  0  0  0  0
   -3.1280   -3.7125   13.5046 O   0  0  0  0  0  0  0  0  0  0  0  0
   -2.1604   -4.8964   15.1385 N   0  0  0  0  0  0  0  0  0  0  0  0
   -3.3026   -5.8036   15.1031 C   0  0  0  0  0  0  0  0  0  0  0  0
   -3.1179   -7.0469   15.8913 C   0  0  0  0  0  0  0  0  0  0  0  0
   -1.6938   -7.3543   16.2768 C   0  0  0  0  0  0  0  0  0  0  0  0
   -1.0575   -6.1780   16.9469 C   0  0  0  0  0  0  0  0  0  0  0  0
   -1.1174   -5.0404   15.9682 C   0  0  0  0  0  0  0  0  0  0  0  0
   -0.1042   -4.1631   15.9371 N   0  0  0  0  0  0  0  0  0  0  0  0
   -1.1214   -1.7924   13.2908 C   0  0  0  0  0  0  0  0  0  0  0  0
   -1.7240   -2.2429   11.9875 C   0  0  0  0  0  0  0  0  0  0  0  0
   -0.9087   -2.1138   10.8501 N   0  0  0  0  0  0  0  0  0  0  0  0
    0.4905   -1.9901   11.0224 C   0  0  0  0  0  0  0  0  0  0  0  0
    0.9831   -0.9068   10.0597 C   0  0  0  0  0  0  0  0  0  0  0  0
    0.0629   -0.9226    8.8208 C   0  0  0  0  0  0  0  0  0  0  0  0
   -0.2813   -2.3461    8.5680 C   0  0  0  0  0  0  0  0  0  0  0  0
   -1.2561   -2.8345    9.6800 C   0  0  0  0  0  0  0  0  0  0  0  0
    0.6883   -0.1387    7.7818 C   0  0  0  0  0  0  0  0  0  0  0  0
    1.0665   -0.6891    6.5681 N   0  0  0  0  0  0  0  0  0  0  0  0
    1.6034    0.1928    5.8139 O   0  0  0  0  0  0  0  0  0  0  0  0
    1.6198    1.3537    6.4514 C   0  0  0  0  0  0  0  0  0  0  0  0
    1.0449    1.1697    7.7006 C   0  0  0  0  0  0  0  0  0  0  0  0
    0.9246    2.2111    8.5906 C   0  0  0  0  0  0  0  0  0  0  0  0
    1.3958    3.4558    8.2033 C   0  0  0  0  0  0  0  0  0  0  0  0
    1.9739    3.6948    6.9781 C   0  0  0  0  0  0  0  0  0  0  0  0
    2.0700    2.6089    6.1198 C   0  0  0  0  0  0  0  0  0  0  0  0
    2.4264    4.9348    6.6323 F   0  0  0  0  0  0  0  0  0  0  0  0
  1  2  1  0
  2  3  2  0
  3  4  1  0
  4  5  2  0
  4  6  1  0
  6  7  1  0
  7  8  1  0
  8  9  1  0
  9 10  1  0
 10 11  1  0
 11 12  2  0
  3 13  1  0
 13 14  1  0
 14 15  1  0
 15 16  1  0
 16 17  1  0
 17 18  1  0
 18 19  1  0
 19 20  1  0
 18 21  1  0
 21 22  2  0
 22 23  1  0
 23 24  1  0
 24 25  2  0
 25 26  1  0
 26 27  2  0
 27 28  1  0
 28 29  2  0
 28 30  1  0
 12  2  1  0
 11  6  1  0
 20 15  1  0
 25 21  1  0
 29 24  1  0
M  END
$$$$
