
     RDKit          3D

 30 34  0  0  0  0  0  0  0  0999 V2000
    0.2367   -1.2646   17.0935 C   0  0  0  0  0  0  0  0  0  0  0  0
   -0.9758   -1.9786   16.6370 C   0  0  0  0  0  0  0  0  0  0  0  0
   -1.6024   -1.7189   15.4369 C   0  0  0  0  0  0  0  0  0  0  0  0
   -2.7264   -2.4585   15.1353 C   0  0  0  0  0  0  0  0  0  0  0  0
   -3.3166   -2.2274   14.0263 O   0  0  0  0  0  0  0  0  0  0  0  0
   -3.2358   -3.4004   15.9303 N   0  0  0  0  0  0  0  0  0  0  0  0
   -4.4308   -4.1149   15.4941 C   0  0  0  0  0  0  0  0  0  0  0  0
   -4.7707   -5.2971   16.3236 C   0  0  0  0  0  0  0  0  0  0  0  0
   -3.6629   -5.7907   17.2182 C   0  0  0  0  0  0  0  0  0  0  0  0
   -3.1120   -4.6754   18.0488 C   0  0  0  0  0  0  0  0  0  0  0  0
   -2.6080   -3.6337   17.0915 C   0  0  0  0  0  0  0  0  0  0  0  0
   -1.5122   -2.9341   17.4187 N   0  0  0  0  0  0  0  0  0  0  0  0
   -1.0585   -0.6756   14.5288 C   0  0  0  0  0  0  0  0  0  0  0  0
   -0.1042   -1.3229   13.5618 C   0  0  0  0  0  0  0  0  0  0  0  0
   -0.4201   -1.1932   12.1986 N   0  0  0  0  0  0  0  0  0  0  0  0
   -0.4151   -2.3495   11.3827 C   0  0  0  0  0  0  0  0  0  0  0  0
    0.2625   -1.9820   10.0602 C   0  0  0  0  0  0  0  0  0  0  0  0
   -0.0177   -0.4894    9.7854 C   0  0  0  0  0  0  0  0  0  0  0  0
   -1.4006   -0.2243   10.2607 C   0  0  0  0  0  0  0  0  0  0  0  0
   -1.4138   -0.2568   11.8176 C   0  0  0  0  0  0  0  0  0  0  0  0
    0.3380   -0.2065    8.4147 C   0  0  0  0  0  0  0  0  0  0  0  0
   -0.1949   -0.9173    7.3519 N   0  0  0  0  0  0  0  0  0  0  0  0
    0.2716   -0.4939    6.2392 O   0  0  0  0  0  0  0  0  0  0  0  0
    1.1197    0.4957    6.4754 C   0  0  0  0  0  0  0  0  0  0  0  0
    1.1788    0.6971    7.8468 C   0  0  0  0  0  0  0  0  0  0  0  0
    1.9851    1.6693    8.3907 C   0  0  0  0  0  0  0  0  0  0  0  0
    2.7407    2.4463    7.5267 C   0  0  0  0  0  0  0  0  0  0  0  0
    2.7209    2.2902    6.1601 C   0  0  0  0  0  0  0  0  0  0  0  0
    1.8902    1.2949    5.6657 C   0  0  0  0  0  0  0  0  0  0  0  0
    3.4795    3.0749    5.3412 F   0  0  0  0  0  0  0  0  0  0  0  0
  1  2  1  0
  2  3  2  0
  3  4  1  0
  4  5  2  0
  4  6  1  0
  6  7  1  0
  7  8  1  0
  8  9  1  0
  9 10  1  0
 10 11  1  0
 11 12  2  0
  3 13  1  0
 13 14  1  0
 14 15  1  0
 15 16  1  0
 16 17  1  0
 17 18  1  0
 18 19  1  0
 19 20  1  0
 18 21  1  0
 21 22  2  0
 22 23  1  0
 23 24  1  0
 24 25  2  0
 25 26  1  0
 26 27  2  0
 27 28  1  0
 28 29  2  0
 28 30  1  0
 12  2  1  0
 11  6  1  0
 20 15  1  0
 25 21  1  0
 29 24  1  0
M  END
$$$$
