
     RDKit          3D

 30 34  0  0  0  0  0  0  0  0999 V2000
    1.5522   -2.0931   15.1321 C   0  0  0  0  0  0  0  0  0  0  0  0
    0.0870   -1.8910   15.1532 C   0  0  0  0  0  0  0  0  0  0  0  0
   -0.7740   -2.4866   14.2562 C   0  0  0  0  0  0  0  0  0  0  0  0
   -2.1184   -2.2108   14.3889 C   0  0  0  0  0  0  0  0  0  0  0  0
   -2.9268   -2.7562   13.5639 O   0  0  0  0  0  0  0  0  0  0  0  0
   -2.6272   -1.4092   15.3256 N   0  0  0  0  0  0  0  0  0  0  0  0
   -4.0708   -1.2003   15.3608 C   0  0  0  0  0  0  0  0  0  0  0  0
   -4.5555   -0.4989   16.5751 C   0  0  0  0  0  0  0  0  0  0  0  0
   -3.5781   -0.4547   17.7212 C   0  0  0  0  0  0  0  0  0  0  0  0
   -2.2534    0.0748   17.2716 C   0  0  0  0  0  0  0  0  0  0  0  0
   -1.7691   -0.8424   16.1854 C   0  0  0  0  0  0  0  0  0  0  0  0
   -0.4547   -1.0872   16.0871 N   0  0  0  0  0  0  0  0  0  0  0  0
   -0.2376   -3.3855   13.2013 C   0  0  0  0  0  0  0  0  0  0  0  0
    0.7550   -2.6195   12.3690 C   0  0  0  0  0  0  0  0  0  0  0  0
    0.2391   -1.9585   11.2412 N   0  0  0  0  0  0  0  0  0  0  0  0
   -0.2692   -2.7304   10.1695 C   0  0  0  0  0  0  0  0  0  0  0  0
    0.2217   -2.0956    8.8660 C   0  0  0  0  0  0  0  0  0  0  0  0
    0.3680   -0.5781    9.1061 C   0  0  0  0  0  0  0  0  0  0  0  0
   -0.7476   -0.1827   10.0049 C   0  0  0  0  0  0  0  0  0  0  0  0
   -0.4711   -0.7464   11.4300 C   0  0  0  0  0  0  0  0  0  0  0  0
    0.5236    0.0704    7.8253 C   0  0  0  0  0  0  0  0  0  0  0  0
   -0.0742   -0.4158    6.6741 N   0  0  0  0  0  0  0  0  0  0  0  0
    0.2110    0.3177    5.6663 O   0  0  0  0  0  0  0  0  0  0  0  0
    0.9927    1.3107    6.0627 C   0  0  0  0  0  0  0  0  0  0  0  0
    1.2050    1.1763    7.4272 C   0  0  0  0  0  0  0  0  0  0  0  0
    1.9854    2.0725    8.1192 C   0  0  0  0  0  0  0  0  0  0  0  0
    2.5567    3.1191    7.4124 C   0  0  0  0  0  0  0  0  0  0  0  0
    2.3798    3.3005    6.0603 C   0  0  0  0  0  0  0  0  0  0  0  0
    1.5836    2.3672    5.4124 C   0  0  0  0  0  0  0  0  0  0  0  0
    2.9590    4.3438    5.3985 F   0  0  0  0  0  0  0  0  0  0  0  0
  1  2  1  0
  2  3  2  0
  3  4  1  0
  4  5  2  0
  4  6  1  0
  6  7  1  0
  7  8  1  0
  8  9  1  0
  9 10  1  0
 10 11  1  0
 11 12  2  0
  3 13  1  0
 13 14  1  0
 14 15  1  0
 15 16  1  0
 16 17  1  0
 17 18  1  0
 18 19  1  0
 19 20  1  0
 18 21  1  0
 21 22  2  0
 22 23  1  0
 23 24  1  0
 24 25  2  0
 25 26  1  0
 26 27  2  0
 27 28  1  0
 28 29  2  0
 28 30  1  0
 12  2  1  0
 11  6  1  0
 20 15  1  0
 25 21  1  0
 29 24  1  0
M  END
$$$$
