
     RDKit          3D

 30 34  0  0  0  0  0  0  0  0999 V2000
   -2.0138   -4.9127   14.1623 C   0  0  0  0  0  0  0  0  0  0  0  0
   -1.5211   -3.8744   15.0935 C   0  0  0  0  0  0  0  0  0  0  0  0
   -1.4720   -2.5334   14.7775 C   0  0  0  0  0  0  0  0  0  0  0  0
   -0.9887   -1.6724   15.7399 C   0  0  0  0  0  0  0  0  0  0  0  0
   -0.9378   -0.4272   15.4595 O   0  0  0  0  0  0  0  0  0  0  0  0
   -0.5706   -2.0594   16.9457 N   0  0  0  0  0  0  0  0  0  0  0  0
   -0.0826   -1.0473   17.8766 C   0  0  0  0  0  0  0  0  0  0  0  0
    0.1243   -1.5413   19.2603 C   0  0  0  0  0  0  0  0  0  0  0  0
   -0.5404   -2.8565   19.5760 C   0  0  0  0  0  0  0  0  0  0  0  0
   -0.1778   -3.8938   18.5612 C   0  0  0  0  0  0  0  0  0  0  0  0
   -0.6285   -3.3685   17.2283 C   0  0  0  0  0  0  0  0  0  0  0  0
   -1.0926   -4.2356   16.3173 N   0  0  0  0  0  0  0  0  0  0  0  0
   -1.9314   -2.0708   13.4419 C   0  0  0  0  0  0  0  0  0  0  0  0
   -0.8391   -2.3239   12.4381 C   0  0  0  0  0  0  0  0  0  0  0  0
   -0.1775   -1.1875   11.9423 N   0  0  0  0  0  0  0  0  0  0  0  0
   -0.7334    0.0900   12.1907 C   0  0  0  0  0  0  0  0  0  0  0  0
   -0.6251    0.9030   10.8983 C   0  0  0  0  0  0  0  0  0  0  0  0
    0.6296    0.4198   10.1406 C   0  0  0  0  0  0  0  0  0  0  0  0
    1.6558    0.1169   11.1720 C   0  0  0  0  0  0  0  0  0  0  0  0
    1.2399   -1.1770   11.9325 C   0  0  0  0  0  0  0  0  0  0  0  0
    0.9212    1.3710    9.0940 C   0  0  0  0  0  0  0  0  0  0  0  0
    1.3060    2.6736    9.3664 N   0  0  0  0  0  0  0  0  0  0  0  0
    1.5023    3.3276    8.2853 O   0  0  0  0  0  0  0  0  0  0  0  0
    1.2698    2.5327    7.2517 C   0  0  0  0  0  0  0  0  0  0  0  0
    0.9004    1.2870    7.7381 C   0  0  0  0  0  0  0  0  0  0  0  0
    0.5962    0.2506    6.8870 C   0  0  0  0  0  0  0  0  0  0  0  0
    0.6694    0.4860    5.5230 C   0  0  0  0  0  0  0  0  0  0  0  0
    1.0297    1.7002    4.9862 C   0  0  0  0  0  0  0  0  0  0  0  0
    1.3258    2.7101    5.8903 C   0  0  0  0  0  0  0  0  0  0  0  0
    1.0905    1.8941    3.6369 F   0  0  0  0  0  0  0  0  0  0  0  0
  1  2  1  0
  2  3  2  0
  3  4  1  0
  4  5  2  0
  4  6  1  0
  6  7  1  0
  7  8  1  0
  8  9  1  0
  9 10  1  0
 10 11  1  0
 11 12  2  0
  3 13  1  0
 13 14  1  0
 14 15  1  0
 15 16  1  0
 16 17  1  0
 17 18  1  0
 18 19  1  0
 19 20  1  0
 18 21  1  0
 21 22  2  0
 22 23  1  0
 23 24  1  0
 24 25  2  0
 25 26  1  0
 26 27  2  0
 27 28  1  0
 28 29  2  0
 28 30  1  0
 12  2  1  0
 11  6  1  0
 20 15  1  0
 25 21  1  0
 29 24  1  0
M  END
$$$$
