
     RDKit          3D

 30 34  0  0  0  0  0  0  0  0999 V2000
    0.2559   -4.7907   13.1696 C   0  0  0  0  0  0  0  0  0  0  0  0
   -0.7934   -4.0573   13.9107 C   0  0  0  0  0  0  0  0  0  0  0  0
   -0.8333   -2.6827   14.0082 C   0  0  0  0  0  0  0  0  0  0  0  0
   -1.8678   -2.1280   14.7315 C   0  0  0  0  0  0  0  0  0  0  0  0
   -1.9161   -0.8554   14.8298 O   0  0  0  0  0  0  0  0  0  0  0  0
   -2.8215   -2.8383   15.3354 N   0  0  0  0  0  0  0  0  0  0  0  0
   -3.8646   -2.1299   16.0695 C   0  0  0  0  0  0  0  0  0  0  0  0
   -5.0011   -2.9854   16.4912 C   0  0  0  0  0  0  0  0  0  0  0  0
   -5.0922   -4.3178   15.7931 C   0  0  0  0  0  0  0  0  0  0  0  0
   -3.7913   -5.0516   15.8737 C   0  0  0  0  0  0  0  0  0  0  0  0
   -2.7602   -4.1729   15.2255 C   0  0  0  0  0  0  0  0  0  0  0  0
   -1.7686   -4.7479   14.5302 N   0  0  0  0  0  0  0  0  0  0  0  0
    0.2149   -1.8634   13.3458 C   0  0  0  0  0  0  0  0  0  0  0  0
    0.5453   -2.4817   12.0141 C   0  0  0  0  0  0  0  0  0  0  0  0
   -0.0391   -1.8773   10.8880 N   0  0  0  0  0  0  0  0  0  0  0  0
   -0.5688   -2.7021    9.8671 C   0  0  0  0  0  0  0  0  0  0  0  0
   -0.1546   -2.1002    8.5220 C   0  0  0  0  0  0  0  0  0  0  0  0
   -0.0455   -0.5714    8.7027 C   0  0  0  0  0  0  0  0  0  0  0  0
   -1.1332   -0.1773    9.6356 C   0  0  0  0  0  0  0  0  0  0  0  0
   -0.7781   -0.6809   11.0659 C   0  0  0  0  0  0  0  0  0  0  0  0
    0.0345    0.0349    7.3946 C   0  0  0  0  0  0  0  0  0  0  0  0
   -0.8371   -0.2997    6.3712 N   0  0  0  0  0  0  0  0  0  0  0  0
   -0.5688    0.3592    5.3087 O   0  0  0  0  0  0  0  0  0  0  0  0
    0.4658    1.1523    5.5424 C   0  0  0  0  0  0  0  0  0  0  0  0
    0.8661    0.9655    6.8577 C   0  0  0  0  0  0  0  0  0  0  0  0
    1.9271    1.6626    7.3861 C   0  0  0  0  0  0  0  0  0  0  0  0
    2.5889    2.5617    6.5645 C   0  0  0  0  0  0  0  0  0  0  0  0
    2.2351    2.7864    5.2542 C   0  0  0  0  0  0  0  0  0  0  0  0
    1.1579    2.0563    4.7730 C   0  0  0  0  0  0  0  0  0  0  0  0
    2.9111    3.6802    4.4758 F   0  0  0  0  0  0  0  0  0  0  0  0
  1  2  1  0
  2  3  2  0
  3  4  1  0
  4  5  2  0
  4  6  1  0
  6  7  1  0
  7  8  1  0
  8  9  1  0
  9 10  1  0
 10 11  1  0
 11 12  2  0
  3 13  1  0
 13 14  1  0
 14 15  1  0
 15 16  1  0
 16 17  1  0
 17 18  1  0
 18 19  1  0
 19 20  1  0
 18 21  1  0
 21 22  2  0
 22 23  1  0
 23 24  1  0
 24 25  2  0
 25 26  1  0
 26 27  2  0
 27 28  1  0
 28 29  2  0
 28 30  1  0
 12  2  1  0
 11  6  1  0
 20 15  1  0
 25 21  1  0
 29 24  1  0
M  END
$$$$
