
     RDKit          3D

 30 35  0  0  0  0  0  0  0  0999 V2000
    0.8615  -10.9412   -7.0603 C   0  0  0  0  0  0  0  0  0  0  0  0
    1.4680   -9.6368   -6.5504 C   0  0  0  0  0  0  0  0  0  0  0  0
    1.4473   -9.6840   -5.0601 C   0  0  0  0  0  0  0  0  0  0  0  0
    0.0741   -9.3939   -4.4691 C   0  0  0  0  0  0  0  0  0  0  0  0
   -0.4734   -8.1161   -4.9874 C   0  0  0  0  0  0  0  0  0  0  0  0
   -0.7837   -7.3029   -3.7777 C   0  0  0  0  0  0  0  0  0  0  0  0
   -0.4286   -8.1964   -2.6401 C   0  0  0  0  0  0  0  0  0  0  0  0
    0.1991   -9.3205   -3.1116 O   0  0  0  0  0  0  0  0  0  0  0  0
   -1.7500   -8.6533   -2.0122 C   0  0  0  0  0  0  0  0  0  0  0  0
   -2.1982   -7.6094   -0.9685 C   0  0  0  0  0  0  0  0  0  0  0  0
   -1.2498   -7.7893    0.1572 C   0  0  0  0  0  0  0  0  0  0  0  0
   -1.4112   -7.0256    1.3741 C   0  0  0  0  0  0  0  0  0  0  0  0
   -2.6807   -6.2674    1.6148 C   0  0  0  0  0  0  0  0  0  0  0  0
   -2.5714   -5.8108    3.0248 C   0  0  0  0  0  0  0  0  0  0  0  0
   -1.4325   -5.4206    3.5371 C   0  0  0  0  0  0  0  0  0  0  0  0
   -1.4125   -4.9743    4.9774 C   0  0  0  0  0  0  0  0  0  0  0  0
   -0.2053   -5.5928    5.6547 C   0  0  0  0  0  0  0  0  0  0  0  0
    1.0127   -5.1681    4.8798 C   0  0  0  0  0  0  0  0  0  0  0  0
    0.9963   -5.8976    3.5539 C   0  0  0  0  0  0  0  0  0  0  0  0
   -0.1827   -5.4111    2.7340 C   0  0  0  0  0  0  0  0  0  0  0  0
   -0.3043   -5.9725    1.3953 C   0  0  0  0  0  0  0  0  0  0  0  0
    0.8408   -6.7904    0.8535 C   0  0  0  0  0  0  0  0  0  0  0  0
    0.1169   -7.3843   -0.3467 C   0  0  0  0  0  0  0  0  0  0  0  0
    0.4564   -7.5890   -1.6120 C   0  0  0  0  0  0  0  0  0  0  0  0
    1.8589   -7.1693   -1.9682 C   0  0  0  0  0  0  0  0  0  0  0  0
    0.1075   -3.9025    2.5429 C   0  0  0  0  0  0  0  0  0  0  0  0
   -0.1198   -5.1268    6.9580 O   0  0  0  0  0  0  0  0  0  0  0  0
   -0.1724   -5.9355   -3.7503 C   0  0  0  0  0  0  0  0  0  0  0  0
    0.4793   -7.5123   -5.8957 N   0  0  0  0  0  0  0  0  0  0  0  0
    0.6558   -8.4472   -7.0071 C   0  0  0  0  0  0  0  0  0  0  0  0
  1  2  1  0
  2  3  1  0
  3  4  1  0
  4  5  1  0
  5  6  1  0
  6  7  1  0
  7  8  1  0
  7  9  1  0
  9 10  1  0
 10 11  1  0
 11 12  1  0
 12 13  1  0
 13 14  1  0
 14 15  2  0
 15 16  1  0
 16 17  1  0
 17 18  1  0
 18 19  1  0
 19 20  1  0
 20 21  1  0
 21 22  1  0
 22 23  1  0
 23 24  2  0
 24 25  1  0
 20 26  1  0
 17 27  1  0
  6 28  1  0
  5 29  1  0
 29 30  1  0
 30  2  1  0
  8  4  1  0
 24  7  1  0
 23 11  1  0
 21 12  1  0
 20 15  1  0
M  END
$$$$
