
     RDKit          3D

 30 35  0  0  0  0  0  0  0  0999 V2000
    4.8563   -7.0405    4.6076 C   0  0  0  0  0  0  0  0  0  0  0  0
    3.8715   -6.0540    3.9858 C   0  0  0  0  0  0  0  0  0  0  0  0
    2.9419   -6.8335    3.1187 C   0  0  0  0  0  0  0  0  0  0  0  0
    3.5538   -7.2220    1.7793 C   0  0  0  0  0  0  0  0  0  0  0  0
    4.0997   -6.0357    1.0751 C   0  0  0  0  0  0  0  0  0  0  0  0
    3.4343   -6.0306   -0.2584 C   0  0  0  0  0  0  0  0  0  0  0  0
    2.5781   -7.2492   -0.2404 C   0  0  0  0  0  0  0  0  0  0  0  0
    2.5807   -7.7994    1.0154 O   0  0  0  0  0  0  0  0  0  0  0  0
    3.2431   -8.2662   -1.1746 C   0  0  0  0  0  0  0  0  0  0  0  0
    2.7521   -8.0209   -2.6163 C   0  0  0  0  0  0  0  0  0  0  0  0
    1.3460   -8.4919   -2.6074 C   0  0  0  0  0  0  0  0  0  0  0  0
    0.5716   -8.4948   -3.8283 C   0  0  0  0  0  0  0  0  0  0  0  0
    1.2567   -8.2945   -5.1453 C   0  0  0  0  0  0  0  0  0  0  0  0
    0.2025   -8.5820   -6.1526 C   0  0  0  0  0  0  0  0  0  0  0  0
   -1.0433   -8.2280   -5.9673 C   0  0  0  0  0  0  0  0  0  0  0  0
   -2.0480   -8.5611   -7.0415 C   0  0  0  0  0  0  0  0  0  0  0  0
   -3.2946   -9.1130   -6.3779 C   0  0  0  0  0  0  0  0  0  0  0  0
   -3.7827   -8.0759   -5.4030 C   0  0  0  0  0  0  0  0  0  0  0  0
   -2.8100   -8.0346   -4.2444 C   0  0  0  0  0  0  0  0  0  0  0  0
   -1.4731   -7.5154   -4.7366 C   0  0  0  0  0  0  0  0  0  0  0  0
   -0.4390   -7.3536   -3.7235 C   0  0  0  0  0  0  0  0  0  0  0  0
   -0.8287   -7.4859   -2.2729 C   0  0  0  0  0  0  0  0  0  0  0  0
    0.5756   -7.5682   -1.6913 C   0  0  0  0  0  0  0  0  0  0  0  0
    1.1602   -7.0311   -0.6293 C   0  0  0  0  0  0  0  0  0  0  0  0
    0.2663   -6.1591    0.2135 C   0  0  0  0  0  0  0  0  0  0  0  0
   -1.8032   -6.0912   -5.2455 C   0  0  0  0  0  0  0  0  0  0  0  0
   -4.2641   -9.3459   -7.3418 O   0  0  0  0  0  0  0  0  0  0  0  0
    2.7445   -4.7525   -0.6257 C   0  0  0  0  0  0  0  0  0  0  0  0
    3.8688   -4.8488    1.8723 N   0  0  0  0  0  0  0  0  0  0  0  0
    4.5910   -5.0370    3.1307 C   0  0  0  0  0  0  0  0  0  0  0  0
  1  2  1  0
  2  3  1  0
  3  4  1  0
  4  5  1  0
  5  6  1  0
  6  7  1  0
  7  8  1  0
  7  9  1  0
  9 10  1  0
 10 11  1  0
 11 12  1  0
 12 13  1  0
 13 14  1  0
 14 15  2  0
 15 16  1  0
 16 17  1  0
 17 18  1  0
 18 19  1  0
 19 20  1  0
 20 21  1  0
 21 22  1  0
 22 23  1  0
 23 24  2  0
 24 25  1  0
 20 26  1  0
 17 27  1  0
  6 28  1  0
  5 29  1  0
 29 30  1  0
 30  2  1  0
  8  4  1  0
 24  7  1  0
 23 11  1  0
 21 12  1  0
 20 15  1  0
M  END
$$$$
