
     RDKit          3D

 30 35  0  0  0  0  0  0  0  0999 V2000
    0.5772   -4.4197   19.1233 C   0  0  0  0  0  0  0  0  0  0  0  0
    1.7066   -4.3653   18.0982 C   0  0  0  0  0  0  0  0  0  0  0  0
    1.1023   -4.0085   16.7824 C   0  0  0  0  0  0  0  0  0  0  0  0
    0.4068   -5.1808   16.1033 C   0  0  0  0  0  0  0  0  0  0  0  0
    1.3122   -6.3511   15.9944 C   0  0  0  0  0  0  0  0  0  0  0  0
    1.3322   -6.6980   14.5452 C   0  0  0  0  0  0  0  0  0  0  0  0
    0.3952   -5.7198   13.9259 C   0  0  0  0  0  0  0  0  0  0  0  0
    0.0198   -4.7845   14.8555 O   0  0  0  0  0  0  0  0  0  0  0  0
   -0.8666   -6.5019   13.5449 C   0  0  0  0  0  0  0  0  0  0  0  0
   -0.6760   -7.1109   12.1404 C   0  0  0  0  0  0  0  0  0  0  0  0
   -0.7532   -5.9468   11.2250 C   0  0  0  0  0  0  0  0  0  0  0  0
   -0.6984   -6.1417    9.7935 C   0  0  0  0  0  0  0  0  0  0  0  0
   -0.8472   -7.5189    9.2230 C   0  0  0  0  0  0  0  0  0  0  0  0
   -0.9647   -7.2965    7.7584 C   0  0  0  0  0  0  0  0  0  0  0  0
   -0.2738   -6.3710    7.1436 C   0  0  0  0  0  0  0  0  0  0  0  0
   -0.4561   -6.2136    5.6549 C   0  0  0  0  0  0  0  0  0  0  0  0
   -0.5739   -4.7353    5.3396 C   0  0  0  0  0  0  0  0  0  0  0  0
    0.6653   -4.0625    5.8650 C   0  0  0  0  0  0  0  0  0  0  0  0
    0.5871   -4.0620    7.3764 C   0  0  0  0  0  0  0  0  0  0  0  0
    0.6704   -5.4903    7.8785 C   0  0  0  0  0  0  0  0  0  0  0  0
    0.6737   -5.6591    9.3253 C   0  0  0  0  0  0  0  0  0  0  0  0
    0.8255   -4.4334   10.1904 C   0  0  0  0  0  0  0  0  0  0  0  0
    0.4452   -5.0729   11.5184 C   0  0  0  0  0  0  0  0  0  0  0  0
    0.9325   -4.9885   12.7486 C   0  0  0  0  0  0  0  0  0  0  0  0
    2.1052   -4.0555   12.9036 C   0  0  0  0  0  0  0  0  0  0  0  0
    2.0589   -5.9663    7.3868 C   0  0  0  0  0  0  0  0  0  0  0  0
   -0.6564   -4.5630    3.9660 O   0  0  0  0  0  0  0  0  0  0  0  0
    2.6933   -6.7822   13.9250 C   0  0  0  0  0  0  0  0  0  0  0  0
    2.6051   -6.0189   16.5562 N   0  0  0  0  0  0  0  0  0  0  0  0
    2.3858   -5.7089   17.9691 C   0  0  0  0  0  0  0  0  0  0  0  0
  1  2  1  0
  2  3  1  0
  3  4  1  0
  4  5  1  0
  5  6  1  0
  6  7  1  0
  7  8  1  0
  7  9  1  0
  9 10  1  0
 10 11  1  0
 11 12  1  0
 12 13  1  0
 13 14  1  0
 14 15  2  0
 15 16  1  0
 16 17  1  0
 17 18  1  0
 18 19  1  0
 19 20  1  0
 20 21  1  0
 21 22  1  0
 22 23  1  0
 23 24  2  0
 24 25  1  0
 20 26  1  0
 17 27  1  0
  6 28  1  0
  5 29  1  0
 29 30  1  0
 30  2  1  0
  8  4  1  0
 24  7  1  0
 23 11  1  0
 21 12  1  0
 20 15  1  0
M  END
$$$$
