
     RDKit          3D

 30 35  0  0  0  0  0  0  0  0999 V2000
   -0.1743   -3.3463    9.6571 C   0  0  0  0  0  0  0  0  0  0  0  0
    0.6756   -4.4370    9.0108 C   0  0  0  0  0  0  0  0  0  0  0  0
    0.6635   -4.2025    7.5383 C   0  0  0  0  0  0  0  0  0  0  0  0
   -0.6223   -4.6662    6.8668 C   0  0  0  0  0  0  0  0  0  0  0  0
   -0.9222   -6.0800    7.2020 C   0  0  0  0  0  0  0  0  0  0  0  0
   -1.0578   -6.7738    5.8900 C   0  0  0  0  0  0  0  0  0  0  0  0
   -0.8663   -5.6904    4.8861 C   0  0  0  0  0  0  0  0  0  0  0  0
   -0.4699   -4.5390    5.5161 O   0  0  0  0  0  0  0  0  0  0  0  0
   -2.2432   -5.4123    4.2729 C   0  0  0  0  0  0  0  0  0  0  0  0
   -2.4722   -6.3781    3.0919 C   0  0  0  0  0  0  0  0  0  0  0  0
   -1.5624   -5.8797    2.0322 C   0  0  0  0  0  0  0  0  0  0  0  0
   -1.5612   -6.4966    0.7246 C   0  0  0  0  0  0  0  0  0  0  0  0
   -2.6601   -7.4418    0.3460 C   0  0  0  0  0  0  0  0  0  0  0  0
   -2.4494   -7.6840   -1.1050 C   0  0  0  0  0  0  0  0  0  0  0  0
   -1.2512   -7.7842   -1.6207 C   0  0  0  0  0  0  0  0  0  0  0  0
   -1.1298   -8.0292   -3.1038 C   0  0  0  0  0  0  0  0  0  0  0  0
   -0.0548   -7.1130   -3.6550 C   0  0  0  0  0  0  0  0  0  0  0  0
    1.2128   -7.3982   -2.8958 C   0  0  0  0  0  0  0  0  0  0  0  0
    1.0422   -6.8621   -1.4909 C   0  0  0  0  0  0  0  0  0  0  0  0
   -0.0319   -7.6628   -0.7807 C   0  0  0  0  0  0  0  0  0  0  0  0
   -0.2737   -7.3117    0.6122 C   0  0  0  0  0  0  0  0  0  0  0  0
    0.6881   -6.3705    1.2923 C   0  0  0  0  0  0  0  0  0  0  0  0
   -0.1495   -6.0828    2.5304 C   0  0  0  0  0  0  0  0  0  0  0  0
    0.1301   -5.9832    3.8227 C   0  0  0  0  0  0  0  0  0  0  0  0
    1.5826   -6.1749    4.1739 C   0  0  0  0  0  0  0  0  0  0  0  0
    0.5383   -9.1020   -0.7687 C   0  0  0  0  0  0  0  0  0  0  0  0
    0.1330   -7.3826   -5.0023 O   0  0  0  0  0  0  0  0  0  0  0  0
   -0.1968   -7.9872    5.7146 C   0  0  0  0  0  0  0  0  0  0  0  0
    0.1176   -6.6066    8.0616 N   0  0  0  0  0  0  0  0  0  0  0  0
    0.0998   -5.8065    9.2864 C   0  0  0  0  0  0  0  0  0  0  0  0
  1  2  1  0
  2  3  1  0
  3  4  1  0
  4  5  1  0
  5  6  1  0
  6  7  1  0
  7  8  1  0
  7  9  1  0
  9 10  1  0
 10 11  1  0
 11 12  1  0
 12 13  1  0
 13 14  1  0
 14 15  2  0
 15 16  1  0
 16 17  1  0
 17 18  1  0
 18 19  1  0
 19 20  1  0
 20 21  1  0
 21 22  1  0
 22 23  1  0
 23 24  2  0
 24 25  1  0
 20 26  1  0
 17 27  1  0
  6 28  1  0
  5 29  1  0
 29 30  1  0
 30  2  1  0
  8  4  1  0
 24  7  1  0
 23 11  1  0
 21 12  1  0
 20 15  1  0
M  END
$$$$
