
     RDKit          3D

 30 35  0  0  0  0  0  0  0  0999 V2000
   -0.1902   -3.2193   11.9669 C   0  0  0  0  0  0  0  0  0  0  0  0
    0.9185   -3.4104   10.9355 C   0  0  0  0  0  0  0  0  0  0  0  0
    0.2949   -3.3213    9.5839 C   0  0  0  0  0  0  0  0  0  0  0  0
   -0.4406   -4.5911    9.1770 C   0  0  0  0  0  0  0  0  0  0  0  0
    0.4360   -5.7816    9.3018 C   0  0  0  0  0  0  0  0  0  0  0  0
    0.4179   -6.4247    7.9575 C   0  0  0  0  0  0  0  0  0  0  0  0
   -0.5098   -5.5736    7.1616 C   0  0  0  0  0  0  0  0  0  0  0  0
   -0.8447   -4.4550    7.8801 O   0  0  0  0  0  0  0  0  0  0  0  0
   -1.7965   -6.3848    6.9732 C   0  0  0  0  0  0  0  0  0  0  0  0
   -1.6489   -7.2792    5.7249 C   0  0  0  0  0  0  0  0  0  0  0  0
   -1.7193   -6.3310    4.5870 C   0  0  0  0  0  0  0  0  0  0  0  0
   -1.6988   -6.8226    3.2275 C   0  0  0  0  0  0  0  0  0  0  0  0
   -1.8902   -8.2843    2.9611 C   0  0  0  0  0  0  0  0  0  0  0  0
   -2.0334   -8.3706    1.4845 C   0  0  0  0  0  0  0  0  0  0  0  0
   -1.3349   -7.6128    0.6784 C   0  0  0  0  0  0  0  0  0  0  0  0
   -1.5448   -7.7659   -0.8071 C   0  0  0  0  0  0  0  0  0  0  0  0
   -1.6362   -6.3838   -1.4237 C   0  0  0  0  0  0  0  0  0  0  0  0
   -0.3716   -5.6486   -1.0708 C   0  0  0  0  0  0  0  0  0  0  0  0
   -0.4181   -5.3296    0.4079 C   0  0  0  0  0  0  0  0  0  0  0  0
   -0.3562   -6.6228    1.1971 C   0  0  0  0  0  0  0  0  0  0  0  0
   -0.3263   -6.4849    2.6469 C   0  0  0  0  0  0  0  0  0  0  0  0
   -0.1292   -5.1096    3.2330 C   0  0  0  0  0  0  0  0  0  0  0  0
   -0.4959   -5.4467    4.6715 C   0  0  0  0  0  0  0  0  0  0  0  0
    0.0189   -5.1193    5.8488 C   0  0  0  0  0  0  0  0  0  0  0  0
    1.2151   -4.2056    5.7860 C   0  0  0  0  0  0  0  0  0  0  0  0
    1.0108   -7.2274    0.7944 C   0  0  0  0  0  0  0  0  0  0  0  0
   -1.7436   -6.5007   -2.8014 O   0  0  0  0  0  0  0  0  0  0  0  0
    1.7635   -6.6725    7.3474 C   0  0  0  0  0  0  0  0  0  0  0  0
    1.7474   -5.3732    9.7609 N   0  0  0  0  0  0  0  0  0  0  0  0
    1.5646   -4.7685   11.0806 C   0  0  0  0  0  0  0  0  0  0  0  0
  1  2  1  0
  2  3  1  0
  3  4  1  0
  4  5  1  0
  5  6  1  0
  6  7  1  0
  7  8  1  0
  7  9  1  0
  9 10  1  0
 10 11  1  0
 11 12  1  0
 12 13  1  0
 13 14  1  0
 14 15  2  0
 15 16  1  0
 16 17  1  0
 17 18  1  0
 18 19  1  0
 19 20  1  0
 20 21  1  0
 21 22  1  0
 22 23  1  0
 23 24  2  0
 24 25  1  0
 20 26  1  0
 17 27  1  0
  6 28  1  0
  5 29  1  0
 29 30  1  0
 30  2  1  0
  8  4  1  0
 24  7  1  0
 23 11  1  0
 21 12  1  0
 20 15  1  0
M  END
$$$$
