
     RDKit          3D

 30 35  0  0  0  0  0  0  0  0999 V2000
   -0.8822   -3.9032   11.2355 C   0  0  0  0  0  0  0  0  0  0  0  0
    0.0808   -3.5819   10.0958 C   0  0  0  0  0  0  0  0  0  0  0  0
   -0.6637   -3.7571    8.8157 C   0  0  0  0  0  0  0  0  0  0  0  0
   -0.8200   -5.2157    8.4067 C   0  0  0  0  0  0  0  0  0  0  0  0
    0.4917   -5.9085    8.3804 C   0  0  0  0  0  0  0  0  0  0  0  0
    0.6058   -6.4802    7.0088 C   0  0  0  0  0  0  0  0  0  0  0  0
   -0.6787   -6.1076    6.3533 C   0  0  0  0  0  0  0  0  0  0  0  0
   -1.3822   -5.2538    7.1632 O   0  0  0  0  0  0  0  0  0  0  0  0
   -1.5025   -7.3950    6.2395 C   0  0  0  0  0  0  0  0  0  0  0  0
   -1.1213   -8.1222    4.9334 C   0  0  0  0  0  0  0  0  0  0  0  0
   -1.7169   -7.2858    3.8636 C   0  0  0  0  0  0  0  0  0  0  0  0
   -1.6351   -7.7042    2.4821 C   0  0  0  0  0  0  0  0  0  0  0  0
   -1.2060   -9.1008    2.1510 C   0  0  0  0  0  0  0  0  0  0  0  0
   -1.4582   -9.2238    0.6916 C   0  0  0  0  0  0  0  0  0  0  0  0
   -1.2469   -8.2287   -0.1311 C   0  0  0  0  0  0  0  0  0  0  0  0
   -1.5310   -8.4408   -1.5969 C   0  0  0  0  0  0  0  0  0  0  0  0
   -2.2755   -7.2287   -2.1217 C   0  0  0  0  0  0  0  0  0  0  0  0
   -1.4207   -6.0212   -1.8465 C   0  0  0  0  0  0  0  0  0  0  0  0
   -1.4384   -5.7710   -0.3541 C   0  0  0  0  0  0  0  0  0  0  0  0
   -0.7399   -6.9178    0.3501 C   0  0  0  0  0  0  0  0  0  0  0  0
   -0.6144   -6.7972    1.7963 C   0  0  0  0  0  0  0  0  0  0  0  0
   -0.9662   -5.4796    2.4397 C   0  0  0  0  0  0  0  0  0  0  0  0
   -0.9925   -5.9589    3.8843 C   0  0  0  0  0  0  0  0  0  0  0  0
   -0.5440   -5.4539    5.0253 C   0  0  0  0  0  0  0  0  0  0  0  0
    0.1273   -4.1106    4.9038 C   0  0  0  0  0  0  0  0  0  0  0  0
    0.7012   -6.8639   -0.2126 C   0  0  0  0  0  0  0  0  0  0  0  0
   -2.4716   -7.3650   -3.4877 O   0  0  0  0  0  0  0  0  0  0  0  0
    1.8515   -6.1119    6.2625 C   0  0  0  0  0  0  0  0  0  0  0  0
    1.5407   -4.9762    8.7378 N   0  0  0  0  0  0  0  0  0  0  0  0
    1.2605   -4.5260   10.1014 C   0  0  0  0  0  0  0  0  0  0  0  0
  1  2  1  0
  2  3  1  0
  3  4  1  0
  4  5  1  0
  5  6  1  0
  6  7  1  0
  7  8  1  0
  7  9  1  0
  9 10  1  0
 10 11  1  0
 11 12  1  0
 12 13  1  0
 13 14  1  0
 14 15  2  0
 15 16  1  0
 16 17  1  0
 17 18  1  0
 18 19  1  0
 19 20  1  0
 20 21  1  0
 21 22  1  0
 22 23  1  0
 23 24  2  0
 24 25  1  0
 20 26  1  0
 17 27  1  0
  6 28  1  0
  5 29  1  0
 29 30  1  0
 30  2  1  0
  8  4  1  0
 24  7  1  0
 23 11  1  0
 21 12  1  0
 20 15  1  0
M  END
$$$$
