
     RDKit          3D

 30 35  0  0  0  0  0  0  0  0999 V2000
   -0.2150   -9.7700   -4.8745 C   0  0  0  0  0  0  0  0  0  0  0  0
    0.7407   -8.7540   -4.2550 C   0  0  0  0  0  0  0  0  0  0  0  0
    0.7010   -8.9435   -2.7764 C   0  0  0  0  0  0  0  0  0  0  0  0
   -0.5321   -8.3313   -2.1253 C   0  0  0  0  0  0  0  0  0  0  0  0
   -0.6846   -6.9045   -2.5021 C   0  0  0  0  0  0  0  0  0  0  0  0
   -0.7515   -6.1629   -1.2112 C   0  0  0  0  0  0  0  0  0  0  0  0
   -0.6747   -7.2309   -0.1758 C   0  0  0  0  0  0  0  0  0  0  0  0
   -0.3969   -8.4345   -0.7707 O   0  0  0  0  0  0  0  0  0  0  0  0
   -2.0743   -7.3487    0.4375 C   0  0  0  0  0  0  0  0  0  0  0  0
   -2.2059   -6.3309    1.5894 C   0  0  0  0  0  0  0  0  0  0  0  0
   -1.3546   -6.8891    2.6677 C   0  0  0  0  0  0  0  0  0  0  0  0
   -1.2934   -6.2382    3.9572 C   0  0  0  0  0  0  0  0  0  0  0  0
   -2.2904   -5.1748    4.3029 C   0  0  0  0  0  0  0  0  0  0  0  0
   -2.0596   -4.9138    5.7476 C   0  0  0  0  0  0  0  0  0  0  0  0
   -0.8587   -4.9221    6.2667 C   0  0  0  0  0  0  0  0  0  0  0  0
   -0.7165   -4.6482    7.7428 C   0  0  0  0  0  0  0  0  0  0  0  0
    0.2575   -5.6535    8.3256 C   0  0  0  0  0  0  0  0  0  0  0  0
    1.5495   -5.5217    7.5655 C   0  0  0  0  0  0  0  0  0  0  0  0
    1.3283   -6.0777    6.1755 C   0  0  0  0  0  0  0  0  0  0  0  0
    0.3438   -5.1920    5.4371 C   0  0  0  0  0  0  0  0  0  0  0  0
    0.0706   -5.5564    4.0534 C   0  0  0  0  0  0  0  0  0  0  0  0
    0.9325   -6.6104    3.4055 C   0  0  0  0  0  0  0  0  0  0  0  0
    0.0729   -6.8463    2.1716 C   0  0  0  0  0  0  0  0  0  0  0  0
    0.3440   -7.0112    0.8841 C   0  0  0  0  0  0  0  0  0  0  0  0
    1.8093   -6.9796    0.5355 C   0  0  0  0  0  0  0  0  0  0  0  0
    1.0586   -3.8197    5.3873 C   0  0  0  0  0  0  0  0  0  0  0  0
    0.4687   -5.3659    9.6657 O   0  0  0  0  0  0  0  0  0  0  0  0
    0.2290   -5.0396   -1.0656 C   0  0  0  0  0  0  0  0  0  0  0  0
    0.4058   -6.5122   -3.3707 N   0  0  0  0  0  0  0  0  0  0  0  0
    0.3091   -7.3412   -4.5724 C   0  0  0  0  0  0  0  0  0  0  0  0
  1  2  1  0
  2  3  1  0
  3  4  1  0
  4  5  1  0
  5  6  1  0
  6  7  1  0
  7  8  1  0
  7  9  1  0
  9 10  1  0
 10 11  1  0
 11 12  1  0
 12 13  1  0
 13 14  1  0
 14 15  2  0
 15 16  1  0
 16 17  1  0
 17 18  1  0
 18 19  1  0
 19 20  1  0
 20 21  1  0
 21 22  1  0
 22 23  1  0
 23 24  2  0
 24 25  1  0
 20 26  1  0
 17 27  1  0
  6 28  1  0
  5 29  1  0
 29 30  1  0
 30  2  1  0
  8  4  1  0
 24  7  1  0
 23 11  1  0
 21 12  1  0
 20 15  1  0
M  END
$$$$
