
     RDKit          3D

 30 35  0  0  0  0  0  0  0  0999 V2000
    0.8978   -6.0418   16.7396 C   0  0  0  0  0  0  0  0  0  0  0  0
    0.6241   -4.8378   15.8423 C   0  0  0  0  0  0  0  0  0  0  0  0
    0.0371   -5.3495   14.5706 C   0  0  0  0  0  0  0  0  0  0  0  0
    1.0741   -5.9441   13.6270 C   0  0  0  0  0  0  0  0  0  0  0  0
    2.1818   -4.9891   13.3775 C   0  0  0  0  0  0  0  0  0  0  0  0
    2.2461   -4.8415   11.8959 C   0  0  0  0  0  0  0  0  0  0  0  0
    1.1891   -5.7632   11.3941 C   0  0  0  0  0  0  0  0  0  0  0  0
    0.4565   -6.2461   12.4476 O   0  0  0  0  0  0  0  0  0  0  0  0
    1.9125   -6.9604   10.7676 C   0  0  0  0  0  0  0  0  0  0  0  0
    2.2389   -6.6364    9.2950 C   0  0  0  0  0  0  0  0  0  0  0  0
    0.9239   -6.6854    8.6113 C   0  0  0  0  0  0  0  0  0  0  0  0
    0.8416   -6.5103    7.1785 C   0  0  0  0  0  0  0  0  0  0  0  0
    2.0881   -6.5612    6.3491 C   0  0  0  0  0  0  0  0  0  0  0  0
    1.5938   -6.5711    4.9476 C   0  0  0  0  0  0  0  0  0  0  0  0
    0.5531   -5.8694    4.5783 C   0  0  0  0  0  0  0  0  0  0  0  0
    0.1195   -5.9395    3.1357 C   0  0  0  0  0  0  0  0  0  0  0  0
   -1.3888   -6.0882    3.0946 C   0  0  0  0  0  0  0  0  0  0  0  0
   -1.9769   -4.9208    3.8401 C   0  0  0  0  0  0  0  0  0  0  0  0
   -1.6882   -5.1180    5.3125 C   0  0  0  0  0  0  0  0  0  0  0  0
   -0.1927   -5.0204    5.5428 C   0  0  0  0  0  0  0  0  0  0  0  0
    0.2482   -5.1249    6.9272 C   0  0  0  0  0  0  0  0  0  0  0  0
   -0.7937   -5.0886    8.0167 C   0  0  0  0  0  0  0  0  0  0  0  0
    0.0952   -5.5480    9.1639 C   0  0  0  0  0  0  0  0  0  0  0  0
    0.2354   -5.1629   10.4249 C   0  0  0  0  0  0  0  0  0  0  0  0
   -0.6771   -4.0424   10.8511 C   0  0  0  0  0  0  0  0  0  0  0  0
    0.1499   -3.5803    5.0899 C   0  0  0  0  0  0  0  0  0  0  0  0
   -1.8174   -6.0685    1.7759 O   0  0  0  0  0  0  0  0  0  0  0  0
    2.1803   -3.4335   11.3885 C   0  0  0  0  0  0  0  0  0  0  0  0
    1.9336   -3.7582   14.0991 N   0  0  0  0  0  0  0  0  0  0  0  0
    1.9030   -4.1000   15.5213 C   0  0  0  0  0  0  0  0  0  0  0  0
  1  2  1  0
  2  3  1  0
  3  4  1  0
  4  5  1  0
  5  6  1  0
  6  7  1  0
  7  8  1  0
  7  9  1  0
  9 10  1  0
 10 11  1  0
 11 12  1  0
 12 13  1  0
 13 14  1  0
 14 15  2  0
 15 16  1  0
 16 17  1  0
 17 18  1  0
 18 19  1  0
 19 20  1  0
 20 21  1  0
 21 22  1  0
 22 23  1  0
 23 24  2  0
 24 25  1  0
 20 26  1  0
 17 27  1  0
  6 28  1  0
  5 29  1  0
 29 30  1  0
 30  2  1  0
  8  4  1  0
 24  7  1  0
 23 11  1  0
 21 12  1  0
 20 15  1  0
M  END
$$$$
