
     RDKit          3D

 30 35  0  0  0  0  0  0  0  0999 V2000
   -2.8080   -4.3893    5.6374 C   0  0  0  0  0  0  0  0  0  0  0  0
   -1.4011   -4.9082    5.3530 C   0  0  0  0  0  0  0  0  0  0  0  0
   -1.1790   -4.8205    3.8810 C   0  0  0  0  0  0  0  0  0  0  0  0
   -1.8579   -5.9402    3.1035 C   0  0  0  0  0  0  0  0  0  0  0  0
   -1.4794   -7.2709    3.6395 C   0  0  0  0  0  0  0  0  0  0  0  0
   -0.9335   -8.0223    2.4740 C   0  0  0  0  0  0  0  0  0  0  0  0
   -1.0782   -7.0758    1.3331 C   0  0  0  0  0  0  0  0  0  0  0  0
   -1.4741   -5.8477    1.7966 O   0  0  0  0  0  0  0  0  0  0  0  0
   -2.2181   -7.6121    0.4601 C   0  0  0  0  0  0  0  0  0  0  0  0
   -1.6449   -8.6336   -0.5437 C   0  0  0  0  0  0  0  0  0  0  0  0
   -0.8854   -7.8061   -1.5120 C   0  0  0  0  0  0  0  0  0  0  0  0
   -0.2653   -8.4199   -2.6648 C   0  0  0  0  0  0  0  0  0  0  0  0
   -0.6170   -9.8272   -3.0389 C   0  0  0  0  0  0  0  0  0  0  0  0
    0.0240  -10.0234   -4.3652 C   0  0  0  0  0  0  0  0  0  0  0  0
    1.1941   -9.5111   -4.6482 C   0  0  0  0  0  0  0  0  0  0  0  0
    1.7698   -9.7591   -6.0198 C   0  0  0  0  0  0  0  0  0  0  0  0
    2.3370   -8.4549   -6.5452 C   0  0  0  0  0  0  0  0  0  0  0  0
    3.3548   -7.9720   -5.5475 C   0  0  0  0  0  0  0  0  0  0  0  0
    2.6109   -7.5092   -4.3134 C   0  0  0  0  0  0  0  0  0  0  0  0
    1.9490   -8.7041   -3.6553 C   0  0  0  0  0  0  0  0  0  0  0  0
    1.2413   -8.4364   -2.4105 C   0  0  0  0  0  0  0  0  0  0  0  0
    1.4094   -7.0836   -1.7662 C   0  0  0  0  0  0  0  0  0  0  0  0
    0.2742   -7.1955   -0.7582 C   0  0  0  0  0  0  0  0  0  0  0  0
    0.1504   -6.8719    0.5216 C   0  0  0  0  0  0  0  0  0  0  0  0
    1.3721   -6.2411    1.1374 C   0  0  0  0  0  0  0  0  0  0  0  0
    3.1412   -9.6191   -3.2839 C   0  0  0  0  0  0  0  0  0  0  0  0
    2.9481   -8.6790   -7.7697 O   0  0  0  0  0  0  0  0  0  0  0  0
    0.4323   -8.6057    2.6702 C   0  0  0  0  0  0  0  0  0  0  0  0
   -0.5542   -7.1055    4.7413 N   0  0  0  0  0  0  0  0  0  0  0  0
   -1.2603   -6.3515    5.7774 C   0  0  0  0  0  0  0  0  0  0  0  0
  1  2  1  0
  2  3  1  0
  3  4  1  0
  4  5  1  0
  5  6  1  0
  6  7  1  0
  7  8  1  0
  7  9  1  0
  9 10  1  0
 10 11  1  0
 11 12  1  0
 12 13  1  0
 13 14  1  0
 14 15  2  0
 15 16  1  0
 16 17  1  0
 17 18  1  0
 18 19  1  0
 19 20  1  0
 20 21  1  0
 21 22  1  0
 22 23  1  0
 23 24  2  0
 24 25  1  0
 20 26  1  0
 17 27  1  0
  6 28  1  0
  5 29  1  0
 29 30  1  0
 30  2  1  0
  8  4  1  0
 24  7  1  0
 23 11  1  0
 21 12  1  0
 20 15  1  0
M  END
$$$$
