
     RDKit          3D

 30 35  0  0  0  0  0  0  0  0999 V2000
    1.0067   -3.5008   16.6618 C   0  0  0  0  0  0  0  0  0  0  0  0
    2.0846   -3.6489   15.5914 C   0  0  0  0  0  0  0  0  0  0  0  0
    1.4641   -3.3080   14.2790 C   0  0  0  0  0  0  0  0  0  0  0  0
    0.6044   -4.4297   13.7116 C   0  0  0  0  0  0  0  0  0  0  0  0
    1.3602   -5.7049   13.6490 C   0  0  0  0  0  0  0  0  0  0  0  0
    1.2702   -6.1447   12.2279 C   0  0  0  0  0  0  0  0  0  0  0  0
    0.4258   -5.1032   11.5794 C   0  0  0  0  0  0  0  0  0  0  0  0
    0.2074   -4.0714   12.4555 O   0  0  0  0  0  0  0  0  0  0  0  0
   -0.9358   -5.7510   11.3045 C   0  0  0  0  0  0  0  0  0  0  0  0
   -0.8851   -6.4681    9.9396 C   0  0  0  0  0  0  0  0  0  0  0  0
   -0.8689   -5.3649    8.9488 C   0  0  0  0  0  0  0  0  0  0  0  0
   -0.9057   -5.6572    7.5333 C   0  0  0  0  0  0  0  0  0  0  0  0
   -1.2420   -7.0405    7.0669 C   0  0  0  0  0  0  0  0  0  0  0  0
   -1.4024   -6.9009    5.5961 C   0  0  0  0  0  0  0  0  0  0  0  0
   -0.6379   -6.1069    4.8912 C   0  0  0  0  0  0  0  0  0  0  0  0
   -0.8713   -6.0254    3.4036 C   0  0  0  0  0  0  0  0  0  0  0  0
   -0.8300   -4.5671    2.9906 C   0  0  0  0  0  0  0  0  0  0  0  0
    0.5032   -4.0156    3.4181 C   0  0  0  0  0  0  0  0  0  0  0  0
    0.4979   -3.9078    4.9276 C   0  0  0  0  0  0  0  0  0  0  0  0
    0.4370   -5.3003    5.5246 C   0  0  0  0  0  0  0  0  0  0  0  0
    0.4896   -5.3743    6.9785 C   0  0  0  0  0  0  0  0  0  0  0  0
    0.8251   -4.1223    7.7490 C   0  0  0  0  0  0  0  0  0  0  0  0
    0.4362   -4.6242    9.1325 C   0  0  0  0  0  0  0  0  0  0  0  0
    0.9883   -4.5194   10.3335 C   0  0  0  0  0  0  0  0  0  0  0  0
    2.2683   -3.7261   10.3761 C   0  0  0  0  0  0  0  0  0  0  0  0
    1.7351   -5.9705    5.0127 C   0  0  0  0  0  0  0  0  0  0  0  0
   -0.9572   -4.4754    1.6127 O   0  0  0  0  0  0  0  0  0  0  0  0
    2.5808   -6.4319   11.5616 C   0  0  0  0  0  0  0  0  0  0  0  0
    2.7084   -5.4948   14.1344 N   0  0  0  0  0  0  0  0  0  0  0  0
    2.5946   -5.0699   15.5297 C   0  0  0  0  0  0  0  0  0  0  0  0
  1  2  1  0
  2  3  1  0
  3  4  1  0
  4  5  1  0
  5  6  1  0
  6  7  1  0
  7  8  1  0
  7  9  1  0
  9 10  1  0
 10 11  1  0
 11 12  1  0
 12 13  1  0
 13 14  1  0
 14 15  2  0
 15 16  1  0
 16 17  1  0
 17 18  1  0
 18 19  1  0
 19 20  1  0
 20 21  1  0
 21 22  1  0
 22 23  1  0
 23 24  2  0
 24 25  1  0
 20 26  1  0
 17 27  1  0
  6 28  1  0
  5 29  1  0
 29 30  1  0
 30  2  1  0
  8  4  1  0
 24  7  1  0
 23 11  1  0
 21 12  1  0
 20 15  1  0
M  END
$$$$
