
     RDKit          3D

 30 35  0  0  0  0  0  0  0  0999 V2000
   -0.3035   -8.7911   -3.0059 C   0  0  0  0  0  0  0  0  0  0  0  0
   -0.2814   -7.3733   -2.4413 C   0  0  0  0  0  0  0  0  0  0  0  0
    0.3383   -7.4388   -1.0866 C   0  0  0  0  0  0  0  0  0  0  0  0
   -0.6119   -7.9583   -0.0159 C   0  0  0  0  0  0  0  0  0  0  0  0
   -1.8798   -7.1879   -0.0050 C   0  0  0  0  0  0  0  0  0  0  0  0
   -2.0252   -6.6917    1.3928 C   0  0  0  0  0  0  0  0  0  0  0  0
   -0.8415   -7.2534    2.1012 C   0  0  0  0  0  0  0  0  0  0  0  0
    0.0044   -7.8417    1.1967 O   0  0  0  0  0  0  0  0  0  0  0  0
   -1.3647   -8.3683    3.0135 C   0  0  0  0  0  0  0  0  0  0  0  0
   -1.7987   -7.7539    4.3604 C   0  0  0  0  0  0  0  0  0  0  0  0
   -0.5226   -7.3931    5.0242 C   0  0  0  0  0  0  0  0  0  0  0  0
   -0.5269   -6.8564    6.3666 C   0  0  0  0  0  0  0  0  0  0  0  0
   -1.7751   -6.9246    7.1921 C   0  0  0  0  0  0  0  0  0  0  0  0
   -1.3403   -6.4972    8.5474 C   0  0  0  0  0  0  0  0  0  0  0  0
   -0.4549   -5.5496    8.7207 C   0  0  0  0  0  0  0  0  0  0  0  0
   -0.0707   -5.1802   10.1314 C   0  0  0  0  0  0  0  0  0  0  0  0
    1.4375   -5.0387   10.1965 C   0  0  0  0  0  0  0  0  0  0  0  0
    1.8374   -4.0061    9.1776 C   0  0  0  0  0  0  0  0  0  0  0  0
    1.6440   -4.6111    7.8039 C   0  0  0  0  0  0  0  0  0  0  0  0
    0.1646   -4.8458    7.5684 C   0  0  0  0  0  0  0  0  0  0  0  0
   -0.1981   -5.3682    6.2579 C   0  0  0  0  0  0  0  0  0  0  0  0
    0.8614   -5.4153    5.1859 C   0  0  0  0  0  0  0  0  0  0  0  0
    0.1119   -6.2978    4.1975 C   0  0  0  0  0  0  0  0  0  0  0  0
   -0.0465   -6.2692    2.8814 C   0  0  0  0  0  0  0  0  0  0  0  0
    0.6687   -5.1434    2.1808 C   0  0  0  0  0  0  0  0  0  0  0  0
   -0.4443   -3.4248    7.6485 C   0  0  0  0  0  0  0  0  0  0  0  0
    1.8057   -4.6155   11.4648 O   0  0  0  0  0  0  0  0  0  0  0  0
   -2.2290   -5.2140    1.5305 C   0  0  0  0  0  0  0  0  0  0  0  0
   -1.8264   -6.1504   -1.0140 N   0  0  0  0  0  0  0  0  0  0  0  0
   -1.6820   -6.8228   -2.3054 C   0  0  0  0  0  0  0  0  0  0  0  0
  1  2  1  0
  2  3  1  0
  3  4  1  0
  4  5  1  0
  5  6  1  0
  6  7  1  0
  7  8  1  0
  7  9  1  0
  9 10  1  0
 10 11  1  0
 11 12  1  0
 12 13  1  0
 13 14  1  0
 14 15  2  0
 15 16  1  0
 16 17  1  0
 17 18  1  0
 18 19  1  0
 19 20  1  0
 20 21  1  0
 21 22  1  0
 22 23  1  0
 23 24  2  0
 24 25  1  0
 20 26  1  0
 17 27  1  0
  6 28  1  0
  5 29  1  0
 29 30  1  0
 30  2  1  0
  8  4  1  0
 24  7  1  0
 23 11  1  0
 21 12  1  0
 20 15  1  0
M  END
$$$$
