
     RDKit          3D

 30 35  0  0  0  0  0  0  0  0999 V2000
    0.1899   -3.4016   12.4529 C   0  0  0  0  0  0  0  0  0  0  0  0
    1.1877   -4.1587   11.5807 C   0  0  0  0  0  0  0  0  0  0  0  0
    0.8582   -3.8591   10.1575 C   0  0  0  0  0  0  0  0  0  0  0  0
   -0.3412   -4.6425    9.6410 C   0  0  0  0  0  0  0  0  0  0  0  0
   -0.1706   -6.0981    9.8723 C   0  0  0  0  0  0  0  0  0  0  0  0
   -0.3288   -6.7294    8.5316 C   0  0  0  0  0  0  0  0  0  0  0  0
   -0.6239   -5.5850    7.6251 C   0  0  0  0  0  0  0  0  0  0  0  0
   -0.4645   -4.4036    8.3025 O   0  0  0  0  0  0  0  0  0  0  0  0
   -2.1073   -5.6902    7.2544 C   0  0  0  0  0  0  0  0  0  0  0  0
   -2.2551   -6.6156    6.0290 C   0  0  0  0  0  0  0  0  0  0  0  0
   -1.7172   -5.8160    4.9018 C   0  0  0  0  0  0  0  0  0  0  0  0
   -1.7672   -6.3341    3.5530 C   0  0  0  0  0  0  0  0  0  0  0  0
   -2.6047   -7.5381    3.2480 C   0  0  0  0  0  0  0  0  0  0  0  0
   -2.5865   -7.6293    1.7649 C   0  0  0  0  0  0  0  0  0  0  0  0
   -1.5151   -7.3458    1.0695 C   0  0  0  0  0  0  0  0  0  0  0  0
   -1.5859   -7.4641   -0.4322 C   0  0  0  0  0  0  0  0  0  0  0  0
   -0.9220   -6.2447   -1.0414 C   0  0  0  0  0  0  0  0  0  0  0  0
    0.4852   -6.1862   -0.5115 C   0  0  0  0  0  0  0  0  0  0  0  0
    0.4145   -5.8001    0.9501 C   0  0  0  0  0  0  0  0  0  0  0  0
   -0.2537   -6.9176    1.7271 C   0  0  0  0  0  0  0  0  0  0  0  0
   -0.3418   -6.7285    3.1688 C   0  0  0  0  0  0  0  0  0  0  0  0
    0.4192   -5.5847    3.7903 C   0  0  0  0  0  0  0  0  0  0  0  0
   -0.2405   -5.6225    5.1617 C   0  0  0  0  0  0  0  0  0  0  0  0
    0.2171   -5.5150    6.4015 C   0  0  0  0  0  0  0  0  0  0  0  0
    1.7028   -5.2910    6.5120 C   0  0  0  0  0  0  0  0  0  0  0  0
    0.6905   -8.1249    1.5088 C   0  0  0  0  0  0  0  0  0  0  0  0
   -0.8999   -6.3744   -2.4219 O   0  0  0  0  0  0  0  0  0  0  0  0
    0.7945   -7.6257    8.1085 C   0  0  0  0  0  0  0  0  0  0  0  0
    1.1064   -6.3421   10.5103 N   0  0  0  0  0  0  0  0  0  0  0  0
    1.0751   -5.6497   11.7987 C   0  0  0  0  0  0  0  0  0  0  0  0
  1  2  1  0
  2  3  1  0
  3  4  1  0
  4  5  1  0
  5  6  1  0
  6  7  1  0
  7  8  1  0
  7  9  1  0
  9 10  1  0
 10 11  1  0
 11 12  1  0
 12 13  1  0
 13 14  1  0
 14 15  2  0
 15 16  1  0
 16 17  1  0
 17 18  1  0
 18 19  1  0
 19 20  1  0
 20 21  1  0
 21 22  1  0
 22 23  1  0
 23 24  2  0
 24 25  1  0
 20 26  1  0
 17 27  1  0
  6 28  1  0
  5 29  1  0
 29 30  1  0
 30  2  1  0
  8  4  1  0
 24  7  1  0
 23 11  1  0
 21 12  1  0
 20 15  1  0
M  END
$$$$
