
     RDKit          3D

 30 35  0  0  0  0  0  0  0  0999 V2000
   -1.6370   -3.3784    6.6165 C   0  0  0  0  0  0  0  0  0  0  0  0
   -0.3661   -4.0861    6.1545 C   0  0  0  0  0  0  0  0  0  0  0  0
   -0.3753   -4.0981    4.6634 C   0  0  0  0  0  0  0  0  0  0  0  0
   -1.2989   -5.1575    4.0771 C   0  0  0  0  0  0  0  0  0  0  0  0
   -0.9998   -6.4986    4.6369 C   0  0  0  0  0  0  0  0  0  0  0  0
   -0.7421   -7.3686    3.4546 C   0  0  0  0  0  0  0  0  0  0  0  0
   -0.9553   -6.4670    2.2884 C   0  0  0  0  0  0  0  0  0  0  0  0
   -1.1226   -5.1775    2.7234 O   0  0  0  0  0  0  0  0  0  0  0  0
   -2.2766   -6.8941    1.6396 C   0  0  0  0  0  0  0  0  0  0  0  0
   -1.9983   -8.0274    0.6308 C   0  0  0  0  0  0  0  0  0  0  0  0
   -1.3120   -7.3512   -0.4965 C   0  0  0  0  0  0  0  0  0  0  0  0
   -0.9632   -8.0937   -1.6870 C   0  0  0  0  0  0  0  0  0  0  0  0
   -1.5353   -9.4607   -1.9066 C   0  0  0  0  0  0  0  0  0  0  0  0
   -1.1444   -9.8005   -3.2996 C   0  0  0  0  0  0  0  0  0  0  0  0
    0.0173   -9.4564   -3.7934 C   0  0  0  0  0  0  0  0  0  0  0  0
    0.3307   -9.8413   -5.2174 C   0  0  0  0  0  0  0  0  0  0  0  0
    0.9566   -8.6470   -5.9106 C   0  0  0  0  0  0  0  0  0  0  0  0
    2.1720   -8.2513   -5.1165 C   0  0  0  0  0  0  0  0  0  0  0  0
    1.6972   -7.6386   -3.8167 C   0  0  0  0  0  0  0  0  0  0  0  0
    1.0128   -8.7061   -2.9853 C   0  0  0  0  0  0  0  0  0  0  0  0
    0.5519   -8.2908   -1.6673 C   0  0  0  0  0  0  0  0  0  0  0  0
    0.9813   -6.9413   -1.1494 C   0  0  0  0  0  0  0  0  0  0  0  0
    0.0183   -6.8587    0.0266 C   0  0  0  0  0  0  0  0  0  0  0  0
    0.1417   -6.4610    1.2855 C   0  0  0  0  0  0  0  0  0  0  0  0
    1.5129   -5.9630    1.6617 C   0  0  0  0  0  0  0  0  0  0  0  0
    2.1321   -9.7473   -2.7411 C   0  0  0  0  0  0  0  0  0  0  0  0
    1.3313   -9.0058   -7.1967 O   0  0  0  0  0  0  0  0  0  0  0  0
    0.5583   -8.1119    3.4770 C   0  0  0  0  0  0  0  0  0  0  0  0
    0.1040   -6.4004    5.5694 N   0  0  0  0  0  0  0  0  0  0  0  0
   -0.3312   -5.5136    6.6486 C   0  0  0  0  0  0  0  0  0  0  0  0
  1  2  1  0
  2  3  1  0
  3  4  1  0
  4  5  1  0
  5  6  1  0
  6  7  1  0
  7  8  1  0
  7  9  1  0
  9 10  1  0
 10 11  1  0
 11 12  1  0
 12 13  1  0
 13 14  1  0
 14 15  2  0
 15 16  1  0
 16 17  1  0
 17 18  1  0
 18 19  1  0
 19 20  1  0
 20 21  1  0
 21 22  1  0
 22 23  1  0
 23 24  2  0
 24 25  1  0
 20 26  1  0
 17 27  1  0
  6 28  1  0
  5 29  1  0
 29 30  1  0
 30  2  1  0
  8  4  1  0
 24  7  1  0
 23 11  1  0
 21 12  1  0
 20 15  1  0
M  END
$$$$
