
     RDKit          3D

 30 35  0  0  0  0  0  0  0  0999 V2000
   -0.3340   -5.1975    1.7863 C   0  0  0  0  0  0  0  0  0  0  0  0
   -1.1213   -4.4421    2.8536 C   0  0  0  0  0  0  0  0  0  0  0  0
   -0.2318   -4.2833    4.0399 C   0  0  0  0  0  0  0  0  0  0  0  0
   -0.1164   -5.5497    4.8778 C   0  0  0  0  0  0  0  0  0  0  0  0
   -1.4549   -6.0647    5.2579 C   0  0  0  0  0  0  0  0  0  0  0  0
   -1.4285   -6.1660    6.7445 C   0  0  0  0  0  0  0  0  0  0  0  0
   -0.0499   -5.7384    7.1120 C   0  0  0  0  0  0  0  0  0  0  0  0
    0.5966   -5.2545    6.0040 O   0  0  0  0  0  0  0  0  0  0  0  0
    0.6992   -7.0019    7.5496 C   0  0  0  0  0  0  0  0  0  0  0  0
    0.4430   -7.2438    9.0515 C   0  0  0  0  0  0  0  0  0  0  0  0
    1.2219   -6.1797    9.7298 C   0  0  0  0  0  0  0  0  0  0  0  0
    1.2912   -6.1363   11.1733 C   0  0  0  0  0  0  0  0  0  0  0  0
    0.8211   -7.3097   11.9772 C   0  0  0  0  0  0  0  0  0  0  0  0
    1.2495   -6.9964   13.3653 C   0  0  0  0  0  0  0  0  0  0  0  0
    1.2080   -5.7785   13.8416 C   0  0  0  0  0  0  0  0  0  0  0  0
    1.6632   -5.5506   15.2611 C   0  0  0  0  0  0  0  0  0  0  0  0
    2.5433   -4.3164   15.2904 C   0  0  0  0  0  0  0  0  0  0  0  0
    1.7379   -3.1755   14.7299 C   0  0  0  0  0  0  0  0  0  0  0  0
    1.5805   -3.4059   13.2425 C   0  0  0  0  0  0  0  0  0  0  0  0
    0.7270   -4.6390   13.0186 C   0  0  0  0  0  0  0  0  0  0  0  0
    0.4255   -4.9632   11.6308 C   0  0  0  0  0  0  0  0  0  0  0  0
    0.7743   -3.9540   10.5661 C   0  0  0  0  0  0  0  0  0  0  0  0
    0.5856   -4.8598    9.3573 C   0  0  0  0  0  0  0  0  0  0  0  0
    0.0275   -4.6932    8.1661 C   0  0  0  0  0  0  0  0  0  0  0  0
   -0.5369   -3.3188    7.9167 C   0  0  0  0  0  0  0  0  0  0  0  0
   -0.6241   -4.2683   13.6769 C   0  0  0  0  0  0  0  0  0  0  0  0
    2.9034   -4.0390   16.6006 O   0  0  0  0  0  0  0  0  0  0  0  0
   -2.5429   -5.4606    7.4550 C   0  0  0  0  0  0  0  0  0  0  0  0
   -2.4803   -5.1900    4.7280 N   0  0  0  0  0  0  0  0  0  0  0  0
   -2.3490   -5.2178    3.2711 C   0  0  0  0  0  0  0  0  0  0  0  0
  1  2  1  0
  2  3  1  0
  3  4  1  0
  4  5  1  0
  5  6  1  0
  6  7  1  0
  7  8  1  0
  7  9  1  0
  9 10  1  0
 10 11  1  0
 11 12  1  0
 12 13  1  0
 13 14  1  0
 14 15  2  0
 15 16  1  0
 16 17  1  0
 17 18  1  0
 18 19  1  0
 19 20  1  0
 20 21  1  0
 21 22  1  0
 22 23  1  0
 23 24  2  0
 24 25  1  0
 20 26  1  0
 17 27  1  0
  6 28  1  0
  5 29  1  0
 29 30  1  0
 30  2  1  0
  8  4  1  0
 24  7  1  0
 23 11  1  0
 21 12  1  0
 20 15  1  0
M  END
$$$$
