
     RDKit          3D

 30 35  0  0  0  0  0  0  0  0999 V2000
    1.0916   -3.5637   16.8460 C   0  0  0  0  0  0  0  0  0  0  0  0
    2.1482   -3.4619   15.7494 C   0  0  0  0  0  0  0  0  0  0  0  0
    1.4344   -3.2702   14.4542 C   0  0  0  0  0  0  0  0  0  0  0  0
    0.8388   -4.5578   13.9004 C   0  0  0  0  0  0  0  0  0  0  0  0
    1.8631   -5.6274   13.8119 C   0  0  0  0  0  0  0  0  0  0  0  0
    1.8407   -6.0752   12.3906 C   0  0  0  0  0  0  0  0  0  0  0  0
    0.7658   -5.2527   11.7689 C   0  0  0  0  0  0  0  0  0  0  0  0
    0.3400   -4.2983   12.6564 O   0  0  0  0  0  0  0  0  0  0  0  0
   -0.4190   -6.1932   11.5223 C   0  0  0  0  0  0  0  0  0  0  0  0
   -0.2400   -6.8790   10.1521 C   0  0  0  0  0  0  0  0  0  0  0  0
   -0.4996   -5.8003    9.1681 C   0  0  0  0  0  0  0  0  0  0  0  0
   -0.5037   -6.0923    7.7522 C   0  0  0  0  0  0  0  0  0  0  0  0
   -0.5278   -7.5156    7.2852 C   0  0  0  0  0  0  0  0  0  0  0  0
   -0.7518   -7.4151    5.8195 C   0  0  0  0  0  0  0  0  0  0  0  0
   -0.2055   -6.4674    5.1017 C   0  0  0  0  0  0  0  0  0  0  0  0
   -0.4879   -6.4402    3.6206 C   0  0  0  0  0  0  0  0  0  0  0  0
   -0.7896   -5.0105    3.2158 C   0  0  0  0  0  0  0  0  0  0  0  0
    0.3932   -4.1703    3.6150 C   0  0  0  0  0  0  0  0  0  0  0  0
    0.4006   -4.0677    5.1249 C   0  0  0  0  0  0  0  0  0  0  0  0
    0.6728   -5.4378    5.7144 C   0  0  0  0  0  0  0  0  0  0  0  0
    0.7766   -5.4989    7.1661 C   0  0  0  0  0  0  0  0  0  0  0  0
    0.8372   -4.2040    7.9363 C   0  0  0  0  0  0  0  0  0  0  0  0
    0.6069   -4.7822    9.3255 C   0  0  0  0  0  0  0  0  0  0  0  0
    1.1499   -4.5554   10.5136 C   0  0  0  0  0  0  0  0  0  0  0  0
    2.2165   -3.4916   10.5308 C   0  0  0  0  0  0  0  0  0  0  0  0
    2.0764   -5.7946    5.1676 C   0  0  0  0  0  0  0  0  0  0  0  0
   -0.9681   -4.9491    1.8420 O   0  0  0  0  0  0  0  0  0  0  0  0
    3.1655   -6.0560   11.6915 C   0  0  0  0  0  0  0  0  0  0  0  0
    3.1397   -5.1164   14.2664 N   0  0  0  0  0  0  0  0  0  0  0  0
    2.9665   -4.7295   15.6667 C   0  0  0  0  0  0  0  0  0  0  0  0
  1  2  1  0
  2  3  1  0
  3  4  1  0
  4  5  1  0
  5  6  1  0
  6  7  1  0
  7  8  1  0
  7  9  1  0
  9 10  1  0
 10 11  1  0
 11 12  1  0
 12 13  1  0
 13 14  1  0
 14 15  2  0
 15 16  1  0
 16 17  1  0
 17 18  1  0
 18 19  1  0
 19 20  1  0
 20 21  1  0
 21 22  1  0
 22 23  1  0
 23 24  2  0
 24 25  1  0
 20 26  1  0
 17 27  1  0
  6 28  1  0
  5 29  1  0
 29 30  1  0
 30  2  1  0
  8  4  1  0
 24  7  1  0
 23 11  1  0
 21 12  1  0
 20 15  1  0
M  END
$$$$
