
     RDKit          3D

 30 35  0  0  0  0  0  0  0  0999 V2000
    0.0989   -9.6688   -4.8532 C   0  0  0  0  0  0  0  0  0  0  0  0
    0.2408   -8.2382   -4.3407 C   0  0  0  0  0  0  0  0  0  0  0  0
    0.6571   -8.3125   -2.9107 C   0  0  0  0  0  0  0  0  0  0  0  0
   -0.4916   -8.6436   -1.9672 C   0  0  0  0  0  0  0  0  0  0  0  0
   -1.6304   -7.7127   -2.1618 C   0  0  0  0  0  0  0  0  0  0  0  0
   -1.8928   -7.1276   -0.8165 C   0  0  0  0  0  0  0  0  0  0  0  0
   -0.9048   -7.8022    0.0707 C   0  0  0  0  0  0  0  0  0  0  0  0
   -0.0343   -8.5448   -0.6847 O   0  0  0  0  0  0  0  0  0  0  0  0
   -1.6955   -8.7876    0.9383 C   0  0  0  0  0  0  0  0  0  0  0  0
   -2.2178   -8.0500    2.1885 C   0  0  0  0  0  0  0  0  0  0  0  0
   -1.0054   -7.8262    3.0125 C   0  0  0  0  0  0  0  0  0  0  0  0
   -1.1163   -7.2226    4.3216 C   0  0  0  0  0  0  0  0  0  0  0  0
   -2.4618   -7.0807    4.9648 C   0  0  0  0  0  0  0  0  0  0  0  0
   -2.1587   -6.6426    6.3522 C   0  0  0  0  0  0  0  0  0  0  0  0
   -1.1822   -5.8126    6.6156 C   0  0  0  0  0  0  0  0  0  0  0  0
   -0.9443   -5.4223    8.0527 C   0  0  0  0  0  0  0  0  0  0  0  0
    0.5462   -5.4784    8.3246 C   0  0  0  0  0  0  0  0  0  0  0  0
    1.2190   -4.5639    7.3370 C   0  0  0  0  0  0  0  0  0  0  0  0
    1.1307   -5.2106    5.9716 C   0  0  0  0  0  0  0  0  0  0  0  0
   -0.3215   -5.2597    5.5383 C   0  0  0  0  0  0  0  0  0  0  0  0
   -0.5729   -5.7989    4.2087 C   0  0  0  0  0  0  0  0  0  0  0  0
    0.6045   -6.0432    3.2990 C   0  0  0  0  0  0  0  0  0  0  0  0
   -0.1197   -6.8703    2.2460 C   0  0  0  0  0  0  0  0  0  0  0  0
   -0.0936   -6.8916    0.9205 C   0  0  0  0  0  0  0  0  0  0  0  0
    0.8584   -5.9094    0.2891 C   0  0  0  0  0  0  0  0  0  0  0  0
   -0.7330   -3.7684    5.4825 C   0  0  0  0  0  0  0  0  0  0  0  0
    0.7950   -5.0403    9.6166 O   0  0  0  0  0  0  0  0  0  0  0  0
   -1.9067   -5.6306   -0.7602 C   0  0  0  0  0  0  0  0  0  0  0  0
   -1.2983   -6.7469   -3.1886 N   0  0  0  0  0  0  0  0  0  0  0  0
   -1.0755   -7.5007   -4.4226 C   0  0  0  0  0  0  0  0  0  0  0  0
  1  2  1  0
  2  3  1  0
  3  4  1  0
  4  5  1  0
  5  6  1  0
  6  7  1  0
  7  8  1  0
  7  9  1  0
  9 10  1  0
 10 11  1  0
 11 12  1  0
 12 13  1  0
 13 14  1  0
 14 15  2  0
 15 16  1  0
 16 17  1  0
 17 18  1  0
 18 19  1  0
 19 20  1  0
 20 21  1  0
 21 22  1  0
 22 23  1  0
 23 24  2  0
 24 25  1  0
 20 26  1  0
 17 27  1  0
  6 28  1  0
  5 29  1  0
 29 30  1  0
 30  2  1  0
  8  4  1  0
 24  7  1  0
 23 11  1  0
 21 12  1  0
 20 15  1  0
M  END
$$$$
