
     RDKit          3D

 30 35  0  0  0  0  0  0  0  0999 V2000
    0.4810   -9.2078  -10.0138 C   0  0  0  0  0  0  0  0  0  0  0  0
   -0.6112   -9.5470   -9.0032 C   0  0  0  0  0  0  0  0  0  0  0  0
   -0.4634   -8.6118   -7.8511 C   0  0  0  0  0  0  0  0  0  0  0  0
    0.6689   -8.9954   -6.9077 C   0  0  0  0  0  0  0  0  0  0  0  0
    0.5401  -10.4042   -6.4606 C   0  0  0  0  0  0  0  0  0  0  0  0
    0.5357  -10.3443   -4.9715 C   0  0  0  0  0  0  0  0  0  0  0  0
    0.7067   -8.8963   -4.6670 C   0  0  0  0  0  0  0  0  0  0  0  0
    0.6231   -8.1659   -5.8243 O   0  0  0  0  0  0  0  0  0  0  0  0
    2.1335   -8.7258   -4.1338 C   0  0  0  0  0  0  0  0  0  0  0  0
    2.1354   -8.9801   -2.6122 C   0  0  0  0  0  0  0  0  0  0  0  0
    1.4553   -7.7914   -2.0433 C   0  0  0  0  0  0  0  0  0  0  0  0
    1.3416   -7.6341   -0.6106 C   0  0  0  0  0  0  0  0  0  0  0  0
    2.1445   -8.5107    0.3010 C   0  0  0  0  0  0  0  0  0  0  0  0
    1.9430   -7.9176    1.6486 C   0  0  0  0  0  0  0  0  0  0  0  0
    0.7913   -7.4181    2.0171 C   0  0  0  0  0  0  0  0  0  0  0  0
    0.6761   -6.8349    3.4031 C   0  0  0  0  0  0  0  0  0  0  0  0
   -0.0682   -5.5173    3.3088 C   0  0  0  0  0  0  0  0  0  0  0  0
   -1.3991   -5.7969    2.6648 C   0  0  0  0  0  0  0  0  0  0  0  0
   -1.1507   -6.1150    1.2062 C   0  0  0  0  0  0  0  0  0  0  0  0
   -0.3822   -7.4183    1.1061 C   0  0  0  0  0  0  0  0  0  0  0  0
   -0.1172   -7.9010   -0.2425 C   0  0  0  0  0  0  0  0  0  0  0  0
   -0.8044   -7.2171   -1.3974 C   0  0  0  0  0  0  0  0  0  0  0  0
    0.0207   -7.8327   -2.5188 C   0  0  0  0  0  0  0  0  0  0  0  0
   -0.2803   -8.3311   -3.7100 C   0  0  0  0  0  0  0  0  0  0  0  0
   -1.7425   -8.2779   -4.0688 C   0  0  0  0  0  0  0  0  0  0  0  0
   -1.3363   -8.4515    1.7530 C   0  0  0  0  0  0  0  0  0  0  0  0
   -0.2605   -5.0053    4.5832 O   0  0  0  0  0  0  0  0  0  0  0  0
   -0.6242  -11.0197   -4.3062 C   0  0  0  0  0  0  0  0  0  0  0  0
   -0.6458  -10.9934   -7.0470 N   0  0  0  0  0  0  0  0  0  0  0  0
   -0.4604  -10.9631   -8.4980 C   0  0  0  0  0  0  0  0  0  0  0  0
  1  2  1  0
  2  3  1  0
  3  4  1  0
  4  5  1  0
  5  6  1  0
  6  7  1  0
  7  8  1  0
  7  9  1  0
  9 10  1  0
 10 11  1  0
 11 12  1  0
 12 13  1  0
 13 14  1  0
 14 15  2  0
 15 16  1  0
 16 17  1  0
 17 18  1  0
 18 19  1  0
 19 20  1  0
 20 21  1  0
 21 22  1  0
 22 23  1  0
 23 24  2  0
 24 25  1  0
 20 26  1  0
 17 27  1  0
  6 28  1  0
  5 29  1  0
 29 30  1  0
 30  2  1  0
  8  4  1  0
 24  7  1  0
 23 11  1  0
 21 12  1  0
 20 15  1  0
M  END
$$$$
