
     RDKit          3D

 30 35  0  0  0  0  0  0  0  0999 V2000
   -2.0855   -6.4233    2.0831 C   0  0  0  0  0  0  0  0  0  0  0  0
   -0.8115   -6.9267    2.7561 C   0  0  0  0  0  0  0  0  0  0  0  0
   -1.0753   -6.9967    4.2221 C   0  0  0  0  0  0  0  0  0  0  0  0
   -1.0207   -5.6379    4.9076 C   0  0  0  0  0  0  0  0  0  0  0  0
    0.2533   -4.9382    4.6099 C   0  0  0  0  0  0  0  0  0  0  0  0
    0.8458   -4.6196    5.9398 C   0  0  0  0  0  0  0  0  0  0  0  0
   -0.1599   -5.1259    6.9148 C   0  0  0  0  0  0  0  0  0  0  0  0
   -1.1312   -5.8330    6.2543 O   0  0  0  0  0  0  0  0  0  0  0  0
   -0.8399   -3.8943    7.5229 C   0  0  0  0  0  0  0  0  0  0  0  0
   -0.0111   -3.4063    8.7290 C   0  0  0  0  0  0  0  0  0  0  0  0
   -0.2502   -4.4311    9.7738 C   0  0  0  0  0  0  0  0  0  0  0  0
    0.3084   -4.2656   11.0970 C   0  0  0  0  0  0  0  0  0  0  0  0
    0.8852   -2.9436   11.5020 C   0  0  0  0  0  0  0  0  0  0  0  0
    1.1424   -3.0884   12.9585 C   0  0  0  0  0  0  0  0  0  0  0  0
    1.5729   -4.2110   13.4746 C   0  0  0  0  0  0  0  0  0  0  0  0
    1.8062   -4.2699   14.9633 C   0  0  0  0  0  0  0  0  0  0  0  0
    1.2277   -5.5692   15.4886 C   0  0  0  0  0  0  0  0  0  0  0  0
    1.8864   -6.6927   14.7349 C   0  0  0  0  0  0  0  0  0  0  0  0
    1.3584   -6.6719   13.3168 C   0  0  0  0  0  0  0  0  0  0  0  0
    1.8306   -5.4054   12.6296 C   0  0  0  0  0  0  0  0  0  0  0  0
    1.4587   -5.2628   11.2285 C   0  0  0  0  0  0  0  0  0  0  0  0
    0.8535   -6.4498   10.5223 C   0  0  0  0  0  0  0  0  0  0  0  0
    0.3658   -5.7200    9.2786 C   0  0  0  0  0  0  0  0  0  0  0  0
    0.3831   -6.0046    7.9837 C   0  0  0  0  0  0  0  0  0  0  0  0
    0.9959   -7.3360    7.6351 C   0  0  0  0  0  0  0  0  0  0  0  0
    3.3731   -5.5341   12.6541 C   0  0  0  0  0  0  0  0  0  0  0  0
    1.5071   -5.6833   16.8422 O   0  0  0  0  0  0  0  0  0  0  0  0
    2.2519   -5.0938    6.1453 C   0  0  0  0  0  0  0  0  0  0  0  0
    1.0794   -5.7730    3.7625 N   0  0  0  0  0  0  0  0  0  0  0  0
    0.3387   -5.9764    2.5173 C   0  0  0  0  0  0  0  0  0  0  0  0
  1  2  1  0
  2  3  1  0
  3  4  1  0
  4  5  1  0
  5  6  1  0
  6  7  1  0
  7  8  1  0
  7  9  1  0
  9 10  1  0
 10 11  1  0
 11 12  1  0
 12 13  1  0
 13 14  1  0
 14 15  2  0
 15 16  1  0
 16 17  1  0
 17 18  1  0
 18 19  1  0
 19 20  1  0
 20 21  1  0
 21 22  1  0
 22 23  1  0
 23 24  2  0
 24 25  1  0
 20 26  1  0
 17 27  1  0
  6 28  1  0
  5 29  1  0
 29 30  1  0
 30  2  1  0
  8  4  1  0
 24  7  1  0
 23 11  1  0
 21 12  1  0
 20 15  1  0
M  END
$$$$
