
     RDKit          3D

 30 35  0  0  0  0  0  0  0  0999 V2000
   -2.8255   -3.5959   23.1880 C   0  0  0  0  0  0  0  0  0  0  0  0
   -1.4979   -3.1781   22.5615 C   0  0  0  0  0  0  0  0  0  0  0  0
   -1.7061   -3.0851   21.0878 C   0  0  0  0  0  0  0  0  0  0  0  0
   -1.7206   -4.4420   20.3966 C   0  0  0  0  0  0  0  0  0  0  0  0
   -0.5080   -5.2280   20.7332 C   0  0  0  0  0  0  0  0  0  0  0  0
    0.1065   -5.5815   19.4223 C   0  0  0  0  0  0  0  0  0  0  0  0
   -0.8285   -5.0044   18.4167 C   0  0  0  0  0  0  0  0  0  0  0  0
   -1.7715   -4.2351   19.0481 O   0  0  0  0  0  0  0  0  0  0  0  0
   -1.5695   -6.1847   17.7788 C   0  0  0  0  0  0  0  0  0  0  0  0
   -0.7351   -6.7238   16.5986 C   0  0  0  0  0  0  0  0  0  0  0  0
   -0.8681   -5.6813   15.5523 C   0  0  0  0  0  0  0  0  0  0  0  0
   -0.2771   -5.8799   14.2478 C   0  0  0  0  0  0  0  0  0  0  0  0
    0.2219   -7.2366   13.8548 C   0  0  0  0  0  0  0  0  0  0  0  0
    0.5380   -7.1046   12.4088 C   0  0  0  0  0  0  0  0  0  0  0  0
    1.0613   -6.0122   11.9142 C   0  0  0  0  0  0  0  0  0  0  0  0
    1.3488   -5.9641   10.4346 C   0  0  0  0  0  0  0  0  0  0  0  0
    0.8782   -4.6265    9.8976 C   0  0  0  0  0  0  0  0  0  0  0  0
    1.5857   -3.5531   10.6797 C   0  0  0  0  0  0  0  0  0  0  0  0
    1.0093   -3.5429   12.0790 C   0  0  0  0  0  0  0  0  0  0  0  0
    1.3705   -4.8410   12.7744 C   0  0  0  0  0  0  0  0  0  0  0  0
    0.9421   -4.9629   14.1612 C   0  0  0  0  0  0  0  0  0  0  0  0
    0.3952   -3.7400   14.8534 C   0  0  0  0  0  0  0  0  0  0  0  0
   -0.1832   -4.4392   16.0756 C   0  0  0  0  0  0  0  0  0  0  0  0
   -0.1908   -4.1611   17.3720 C   0  0  0  0  0  0  0  0  0  0  0  0
    0.4988   -2.8758   17.7490 C   0  0  0  0  0  0  0  0  0  0  0  0
    2.9181   -4.8177   12.8028 C   0  0  0  0  0  0  0  0  0  0  0  0
    1.2108   -4.5269    8.5549 O   0  0  0  0  0  0  0  0  0  0  0  0
    1.5478   -5.2036   19.2673 C   0  0  0  0  0  0  0  0  0  0  0  0
    0.3435   -4.4544   21.6129 N   0  0  0  0  0  0  0  0  0  0  0  0
   -0.4238   -4.2054   22.8335 C   0  0  0  0  0  0  0  0  0  0  0  0
  1  2  1  0
  2  3  1  0
  3  4  1  0
  4  5  1  0
  5  6  1  0
  6  7  1  0
  7  8  1  0
  7  9  1  0
  9 10  1  0
 10 11  1  0
 11 12  1  0
 12 13  1  0
 13 14  1  0
 14 15  2  0
 15 16  1  0
 16 17  1  0
 17 18  1  0
 18 19  1  0
 19 20  1  0
 20 21  1  0
 21 22  1  0
 22 23  1  0
 23 24  2  0
 24 25  1  0
 20 26  1  0
 17 27  1  0
  6 28  1  0
  5 29  1  0
 29 30  1  0
 30  2  1  0
  8  4  1  0
 24  7  1  0
 23 11  1  0
 21 12  1  0
 20 15  1  0
M  END
$$$$
