
     RDKit          3D

 30 35  0  0  0  0  0  0  0  0999 V2000
    0.0029   -6.6167   -0.0323 C   0  0  0  0  0  0  0  0  0  0  0  0
   -0.5888   -5.5191    0.8478 C   0  0  0  0  0  0  0  0  0  0  0  0
    0.2523   -5.4253    2.0755 C   0  0  0  0  0  0  0  0  0  0  0  0
   -0.0339   -6.5287    3.0853 C   0  0  0  0  0  0  0  0  0  0  0  0
   -1.4796   -6.5946    3.4118 C   0  0  0  0  0  0  0  0  0  0  0  0
   -1.5531   -6.4663    4.8948 C   0  0  0  0  0  0  0  0  0  0  0  0
   -0.1288   -6.3777    5.3214 C   0  0  0  0  0  0  0  0  0  0  0  0
    0.6795   -6.2666    4.2195 O   0  0  0  0  0  0  0  0  0  0  0  0
    0.2120   -7.7131    5.9920 C   0  0  0  0  0  0  0  0  0  0  0  0
   -0.1725   -7.6391    7.4842 C   0  0  0  0  0  0  0  0  0  0  0  0
    0.8420   -6.7346    8.0774 C   0  0  0  0  0  0  0  0  0  0  0  0
    0.8525   -6.4872    9.5018 C   0  0  0  0  0  0  0  0  0  0  0  0
    0.0331   -7.3485   10.4134 C   0  0  0  0  0  0  0  0  0  0  0  0
    0.4665   -6.9511   11.7782 C   0  0  0  0  0  0  0  0  0  0  0  0
    0.7477   -5.7091   12.0783 C   0  0  0  0  0  0  0  0  0  0  0  0
    1.1813   -5.3952   13.4881 C   0  0  0  0  0  0  0  0  0  0  0  0
    2.3714   -4.4578   13.4267 C   0  0  0  0  0  0  0  0  0  0  0  0
    1.9479   -3.2427   12.6464 C   0  0  0  0  0  0  0  0  0  0  0  0
    1.8022   -3.6506   11.1963 C   0  0  0  0  0  0  0  0  0  0  0  0
    0.6471   -4.6245   11.0680 C   0  0  0  0  0  0  0  0  0  0  0  0
    0.3322   -5.0666    9.7162 C   0  0  0  0  0  0  0  0  0  0  0  0
    1.0013   -4.3690    8.5590 C   0  0  0  0  0  0  0  0  0  0  0  0
    0.6221   -5.3662    7.4731 C   0  0  0  0  0  0  0  0  0  0  0  0
    0.1905   -5.2420    6.2256 C   0  0  0  0  0  0  0  0  0  0  0  0
    0.0490   -3.8222    5.7419 C   0  0  0  0  0  0  0  0  0  0  0  0
   -0.5741   -3.8025   11.5470 C   0  0  0  0  0  0  0  0  0  0  0  0
    2.7329   -4.0881   14.7135 O   0  0  0  0  0  0  0  0  0  0  0  0
   -2.4555   -5.3827    5.4005 C   0  0  0  0  0  0  0  0  0  0  0  0
   -2.1905   -5.5678    2.6786 N   0  0  0  0  0  0  0  0  0  0  0  0
   -2.0038   -5.8569    1.2566 C   0  0  0  0  0  0  0  0  0  0  0  0
  1  2  1  0
  2  3  1  0
  3  4  1  0
  4  5  1  0
  5  6  1  0
  6  7  1  0
  7  8  1  0
  7  9  1  0
  9 10  1  0
 10 11  1  0
 11 12  1  0
 12 13  1  0
 13 14  1  0
 14 15  2  0
 15 16  1  0
 16 17  1  0
 17 18  1  0
 18 19  1  0
 19 20  1  0
 20 21  1  0
 21 22  1  0
 22 23  1  0
 23 24  2  0
 24 25  1  0
 20 26  1  0
 17 27  1  0
  6 28  1  0
  5 29  1  0
 29 30  1  0
 30  2  1  0
  8  4  1  0
 24  7  1  0
 23 11  1  0
 21 12  1  0
 20 15  1  0
M  END
$$$$
