
     RDKit          3D

 30 35  0  0  0  0  0  0  0  0999 V2000
    0.2450   -8.8174   -5.3475 C   0  0  0  0  0  0  0  0  0  0  0  0
   -0.0602   -7.4522   -4.7370 C   0  0  0  0  0  0  0  0  0  0  0  0
    0.4921   -7.4459   -3.3519 C   0  0  0  0  0  0  0  0  0  0  0  0
   -0.3788   -8.1986   -2.3547 C   0  0  0  0  0  0  0  0  0  0  0  0
   -1.7796   -7.7111   -2.3915 C   0  0  0  0  0  0  0  0  0  0  0  0
   -2.0949   -7.3177   -0.9891 C   0  0  0  0  0  0  0  0  0  0  0  0
   -0.8558   -7.6502   -0.2325 C   0  0  0  0  0  0  0  0  0  0  0  0
    0.1386   -8.0088   -1.1057 O   0  0  0  0  0  0  0  0  0  0  0  0
   -1.1763   -8.8885    0.6118 C   0  0  0  0  0  0  0  0  0  0  0  0
   -1.7958   -8.4376    1.9508 C   0  0  0  0  0  0  0  0  0  0  0  0
   -0.6588   -7.8476    2.6978 C   0  0  0  0  0  0  0  0  0  0  0  0
   -0.8421   -7.3827    4.0545 C   0  0  0  0  0  0  0  0  0  0  0  0
   -2.0870   -7.7460    4.8045 C   0  0  0  0  0  0  0  0  0  0  0  0
   -1.8193   -7.2967    6.1955 C   0  0  0  0  0  0  0  0  0  0  0  0
   -1.1633   -6.1937    6.4498 C   0  0  0  0  0  0  0  0  0  0  0  0
   -0.9354   -5.8141    7.8914 C   0  0  0  0  0  0  0  0  0  0  0  0
    0.5039   -5.3638    8.0473 C   0  0  0  0  0  0  0  0  0  0  0  0
    0.7267   -4.2270    7.0869 C   0  0  0  0  0  0  0  0  0  0  0  0
    0.7331   -4.7985    5.6856 C   0  0  0  0  0  0  0  0  0  0  0  0
   -0.6501   -5.3264    5.3582 C   0  0  0  0  0  0  0  0  0  0  0  0
   -0.8296   -5.8553    4.0129 C   0  0  0  0  0  0  0  0  0  0  0  0
    0.2674   -5.6334    3.0024 C   0  0  0  0  0  0  0  0  0  0  0  0
   -0.2296   -6.6089    1.9447 C   0  0  0  0  0  0  0  0  0  0  0  0
   -0.3255   -6.5567    0.6233 C   0  0  0  0  0  0  0  0  0  0  0  0
    0.1698   -5.2769    0.0015 C   0  0  0  0  0  0  0  0  0  0  0  0
   -1.5482   -4.0688    5.4492 C   0  0  0  0  0  0  0  0  0  0  0  0
    0.7117   -4.9287    9.3476 O   0  0  0  0  0  0  0  0  0  0  0  0
   -2.6123   -5.9225   -0.8156 C   0  0  0  0  0  0  0  0  0  0  0  0
   -1.8966   -6.6423   -3.3618 N   0  0  0  0  0  0  0  0  0  0  0  0
   -1.5503   -7.2128   -4.6638 C   0  0  0  0  0  0  0  0  0  0  0  0
  1  2  1  0
  2  3  1  0
  3  4  1  0
  4  5  1  0
  5  6  1  0
  6  7  1  0
  7  8  1  0
  7  9  1  0
  9 10  1  0
 10 11  1  0
 11 12  1  0
 12 13  1  0
 13 14  1  0
 14 15  2  0
 15 16  1  0
 16 17  1  0
 17 18  1  0
 18 19  1  0
 19 20  1  0
 20 21  1  0
 21 22  1  0
 22 23  1  0
 23 24  2  0
 24 25  1  0
 20 26  1  0
 17 27  1  0
  6 28  1  0
  5 29  1  0
 29 30  1  0
 30  2  1  0
  8  4  1  0
 24  7  1  0
 23 11  1  0
 21 12  1  0
 20 15  1  0
M  END
$$$$
