
     RDKit          3D

 30 35  0  0  0  0  0  0  0  0999 V2000
    2.5784   -3.6387   15.6537 C   0  0  0  0  0  0  0  0  0  0  0  0
    2.7449   -4.9151   14.8337 C   0  0  0  0  0  0  0  0  0  0  0  0
    2.7589   -4.5258   13.3943 C   0  0  0  0  0  0  0  0  0  0  0  0
    1.3723   -4.2297   12.8387 C   0  0  0  0  0  0  0  0  0  0  0  0
    0.4403   -5.3551   13.0958 C   0  0  0  0  0  0  0  0  0  0  0  0
   -0.0973   -5.7326   11.7581 C   0  0  0  0  0  0  0  0  0  0  0  0
    0.5378   -4.7605   10.8253 C   0  0  0  0  0  0  0  0  0  0  0  0
    1.4844   -4.0273   11.4932 O   0  0  0  0  0  0  0  0  0  0  0  0
   -0.5617   -3.7834   10.3947 C   0  0  0  0  0  0  0  0  0  0  0  0
   -1.3055   -4.3684    9.1764 C   0  0  0  0  0  0  0  0  0  0  0  0
   -0.3350   -4.2425    8.0622 C   0  0  0  0  0  0  0  0  0  0  0  0
   -0.7158   -4.6193    6.7193 C   0  0  0  0  0  0  0  0  0  0  0  0
   -2.1573   -4.8671    6.3956 C   0  0  0  0  0  0  0  0  0  0  0  0
   -2.1813   -5.0013    4.9158 C   0  0  0  0  0  0  0  0  0  0  0  0
   -1.2193   -5.6003    4.2619 C   0  0  0  0  0  0  0  0  0  0  0  0
   -1.3242   -5.6902    2.7602 C   0  0  0  0  0  0  0  0  0  0  0  0
    0.0255   -5.3427    2.1632 C   0  0  0  0  0  0  0  0  0  0  0  0
    1.0353   -6.2914    2.7503 C   0  0  0  0  0  0  0  0  0  0  0  0
    1.2352   -5.9154    4.2025 C   0  0  0  0  0  0  0  0  0  0  0  0
   -0.0476   -6.1824    4.9657 C   0  0  0  0  0  0  0  0  0  0  0  0
   -0.0011   -5.9315    6.3998 C   0  0  0  0  0  0  0  0  0  0  0  0
    1.3378   -5.6583    7.0374 C   0  0  0  0  0  0  0  0  0  0  0  0
    0.8254   -5.1577    8.3806 C   0  0  0  0  0  0  0  0  0  0  0  0
    1.1965   -5.3632    9.6369 C   0  0  0  0  0  0  0  0  0  0  0  0
    2.3880   -6.2695    9.8061 C   0  0  0  0  0  0  0  0  0  0  0  0
   -0.2547   -7.7079    4.8025 C   0  0  0  0  0  0  0  0  0  0  0  0
   -0.0254   -5.5025    0.7866 O   0  0  0  0  0  0  0  0  0  0  0  0
    0.0477   -7.1785   11.3938 C   0  0  0  0  0  0  0  0  0  0  0  0
    1.1401   -6.4165   13.7895 N   0  0  0  0  0  0  0  0  0  0  0  0
    1.5909   -5.8624   15.0664 C   0  0  0  0  0  0  0  0  0  0  0  0
  1  2  1  0
  2  3  1  0
  3  4  1  0
  4  5  1  0
  5  6  1  0
  6  7  1  0
  7  8  1  0
  7  9  1  0
  9 10  1  0
 10 11  1  0
 11 12  1  0
 12 13  1  0
 13 14  1  0
 14 15  2  0
 15 16  1  0
 16 17  1  0
 17 18  1  0
 18 19  1  0
 19 20  1  0
 20 21  1  0
 21 22  1  0
 22 23  1  0
 23 24  2  0
 24 25  1  0
 20 26  1  0
 17 27  1  0
  6 28  1  0
  5 29  1  0
 29 30  1  0
 30  2  1  0
  8  4  1  0
 24  7  1  0
 23 11  1  0
 21 12  1  0
 20 15  1  0
M  END
$$$$
