
     RDKit          3D

 30 35  0  0  0  0  0  0  0  0999 V2000
    1.0959   -3.5190   16.1901 C   0  0  0  0  0  0  0  0  0  0  0  0
    2.0345   -3.2255   15.0229 C   0  0  0  0  0  0  0  0  0  0  0  0
    1.2020   -3.1334   13.7892 C   0  0  0  0  0  0  0  0  0  0  0  0
    0.7849   -4.4926   13.2433 C   0  0  0  0  0  0  0  0  0  0  0  0
    1.9609   -5.3762   13.0496 C   0  0  0  0  0  0  0  0  0  0  0  0
    1.9035   -5.7981   11.6214 C   0  0  0  0  0  0  0  0  0  0  0  0
    0.6640   -5.1549   11.1035 C   0  0  0  0  0  0  0  0  0  0  0  0
    0.1566   -4.2989   12.0468 O   0  0  0  0  0  0  0  0  0  0  0  0
   -0.3660   -6.2744   10.9168 C   0  0  0  0  0  0  0  0  0  0  0  0
   -0.1823   -6.8985    9.5179 C   0  0  0  0  0  0  0  0  0  0  0  0
   -0.6898   -5.8617    8.5870 C   0  0  0  0  0  0  0  0  0  0  0  0
   -0.7542   -6.1270    7.1673 C   0  0  0  0  0  0  0  0  0  0  0  0
   -0.5803   -7.5267    6.6624 C   0  0  0  0  0  0  0  0  0  0  0  0
   -0.9293   -7.4406    5.2204 C   0  0  0  0  0  0  0  0  0  0  0  0
   -0.6023   -6.4039    4.4924 C   0  0  0  0  0  0  0  0  0  0  0  0
   -0.9978   -6.3994    3.0371 C   0  0  0  0  0  0  0  0  0  0  0  0
   -1.5598   -5.0330    2.6968 C   0  0  0  0  0  0  0  0  0  0  0  0
   -0.5037   -4.0151    3.0329 C   0  0  0  0  0  0  0  0  0  0  0  0
   -0.3978   -3.9376    4.5406 C   0  0  0  0  0  0  0  0  0  0  0  0
    0.1397   -5.2532    5.0691 C   0  0  0  0  0  0  0  0  0  0  0  0
    0.3628   -5.3202    6.5070 C   0  0  0  0  0  0  0  0  0  0  0  0
    0.2691   -4.0459    7.3077 C   0  0  0  0  0  0  0  0  0  0  0  0
    0.2436   -4.6770    8.6927 C   0  0  0  0  0  0  0  0  0  0  0  0
    0.8314   -4.3830    9.8443 C   0  0  0  0  0  0  0  0  0  0  0  0
    1.7073   -3.1576    9.8146 C   0  0  0  0  0  0  0  0  0  0  0  0
    1.5368   -5.3636    4.4115 C   0  0  0  0  0  0  0  0  0  0  0  0
   -1.8505   -4.9795    1.3419 O   0  0  0  0  0  0  0  0  0  0  0  0
    3.1498   -5.5482   10.8287 C   0  0  0  0  0  0  0  0  0  0  0  0
    3.1674   -4.6683   13.4246 N   0  0  0  0  0  0  0  0  0  0  0  0
    3.0408   -4.3385   14.8444 C   0  0  0  0  0  0  0  0  0  0  0  0
  1  2  1  0
  2  3  1  0
  3  4  1  0
  4  5  1  0
  5  6  1  0
  6  7  1  0
  7  8  1  0
  7  9  1  0
  9 10  1  0
 10 11  1  0
 11 12  1  0
 12 13  1  0
 13 14  1  0
 14 15  2  0
 15 16  1  0
 16 17  1  0
 17 18  1  0
 18 19  1  0
 19 20  1  0
 20 21  1  0
 21 22  1  0
 22 23  1  0
 23 24  2  0
 24 25  1  0
 20 26  1  0
 17 27  1  0
  6 28  1  0
  5 29  1  0
 29 30  1  0
 30  2  1  0
  8  4  1  0
 24  7  1  0
 23 11  1  0
 21 12  1  0
 20 15  1  0
M  END
$$$$
