
     RDKit          3D

 30 35  0  0  0  0  0  0  0  0999 V2000
    0.2397  -10.0699   -5.2622 C   0  0  0  0  0  0  0  0  0  0  0  0
    0.7384   -8.7296   -4.7287 C   0  0  0  0  0  0  0  0  0  0  0  0
    0.9066   -8.8678   -3.2535 C   0  0  0  0  0  0  0  0  0  0  0  0
   -0.4090   -8.7965   -2.4898 C   0  0  0  0  0  0  0  0  0  0  0  0
   -1.1696   -7.5733   -2.8453 C   0  0  0  0  0  0  0  0  0  0  0  0
   -1.4271   -6.8814   -1.5507 C   0  0  0  0  0  0  0  0  0  0  0  0
   -0.8276   -7.7866   -0.5310 C   0  0  0  0  0  0  0  0  0  0  0  0
   -0.1285   -8.7883   -1.1537 O   0  0  0  0  0  0  0  0  0  0  0  0
   -1.9953   -8.4498    0.2076 C   0  0  0  0  0  0  0  0  0  0  0  0
   -2.4377   -7.5380    1.3706 C   0  0  0  0  0  0  0  0  0  0  0  0
   -1.3434   -7.6582    2.3642 C   0  0  0  0  0  0  0  0  0  0  0  0
   -1.4475   -6.9961    3.6453 C   0  0  0  0  0  0  0  0  0  0  0  0
   -2.7617   -6.4272    4.0851 C   0  0  0  0  0  0  0  0  0  0  0  0
   -2.5375   -6.0449    5.5036 C   0  0  0  0  0  0  0  0  0  0  0  0
   -1.4014   -5.5395    5.9104 C   0  0  0  0  0  0  0  0  0  0  0  0
   -1.2602   -5.1810    7.3684 C   0  0  0  0  0  0  0  0  0  0  0  0
    0.0881   -5.6746    7.8555 C   0  0  0  0  0  0  0  0  0  0  0  0
    1.1400   -5.0480    6.9806 C   0  0  0  0  0  0  0  0  0  0  0  0
    1.0513   -5.6931    5.6145 C   0  0  0  0  0  0  0  0  0  0  0  0
   -0.2703   -5.3179    4.9730 C   0  0  0  0  0  0  0  0  0  0  0  0
   -0.4849   -5.8098    3.6188 C   0  0  0  0  0  0  0  0  0  0  0  0
    0.6773   -6.4362    2.8904 C   0  0  0  0  0  0  0  0  0  0  0  0
   -0.1094   -7.0477    1.7395 C   0  0  0  0  0  0  0  0  0  0  0  0
    0.0950   -7.1303    0.4320 C   0  0  0  0  0  0  0  0  0  0  0  0
    1.3805   -6.5093   -0.0494 C   0  0  0  0  0  0  0  0  0  0  0  0
   -0.1943   -3.7756    4.8634 C   0  0  0  0  0  0  0  0  0  0  0  0
    0.2746   -5.2797    9.1717 O   0  0  0  0  0  0  0  0  0  0  0  0
   -0.9907   -5.4496   -1.4911 C   0  0  0  0  0  0  0  0  0  0  0  0
   -0.4173   -6.7964   -3.8086 N   0  0  0  0  0  0  0  0  0  0  0  0
   -0.2643   -7.6322   -4.9997 C   0  0  0  0  0  0  0  0  0  0  0  0
  1  2  1  0
  2  3  1  0
  3  4  1  0
  4  5  1  0
  5  6  1  0
  6  7  1  0
  7  8  1  0
  7  9  1  0
  9 10  1  0
 10 11  1  0
 11 12  1  0
 12 13  1  0
 13 14  1  0
 14 15  2  0
 15 16  1  0
 16 17  1  0
 17 18  1  0
 18 19  1  0
 19 20  1  0
 20 21  1  0
 21 22  1  0
 22 23  1  0
 23 24  2  0
 24 25  1  0
 20 26  1  0
 17 27  1  0
  6 28  1  0
  5 29  1  0
 29 30  1  0
 30  2  1  0
  8  4  1  0
 24  7  1  0
 23 11  1  0
 21 12  1  0
 20 15  1  0
M  END
$$$$
