
     RDKit          3D

 30 35  0  0  0  0  0  0  0  0999 V2000
    0.3887  -10.2933   -5.8351 C   0  0  0  0  0  0  0  0  0  0  0  0
    0.6828   -8.8702   -5.3682 C   0  0  0  0  0  0  0  0  0  0  0  0
    0.9276   -8.9214   -3.8981 C   0  0  0  0  0  0  0  0  0  0  0  0
   -0.3518   -9.0330   -3.0797 C   0  0  0  0  0  0  0  0  0  0  0  0
   -1.3143   -7.9633   -3.4410 C   0  0  0  0  0  0  0  0  0  0  0  0
   -1.6312   -7.2716   -2.1595 C   0  0  0  0  0  0  0  0  0  0  0  0
   -0.8538   -8.0275   -1.1384 C   0  0  0  0  0  0  0  0  0  0  0  0
   -0.0255   -8.9272   -1.7583 O   0  0  0  0  0  0  0  0  0  0  0  0
   -1.8690   -8.8407   -0.3277 C   0  0  0  0  0  0  0  0  0  0  0  0
   -2.4089   -7.9670    0.8234 C   0  0  0  0  0  0  0  0  0  0  0  0
   -1.2724   -7.8702    1.7711 C   0  0  0  0  0  0  0  0  0  0  0  0
   -1.4336   -7.1837    3.0332 C   0  0  0  0  0  0  0  0  0  0  0  0
   -2.8050   -6.8171    3.5119 C   0  0  0  0  0  0  0  0  0  0  0  0
   -2.5919   -6.3482    4.9059 C   0  0  0  0  0  0  0  0  0  0  0  0
   -1.5383   -5.6507    5.2454 C   0  0  0  0  0  0  0  0  0  0  0  0
   -1.4016   -5.2171    6.6833 C   0  0  0  0  0  0  0  0  0  0  0  0
    0.0267   -5.4674    7.1262 C   0  0  0  0  0  0  0  0  0  0  0  0
    0.9284   -4.7144    6.1858 C   0  0  0  0  0  0  0  0  0  0  0  0
    0.8935   -5.4186    4.8467 C   0  0  0  0  0  0  0  0  0  0  0  0
   -0.4951   -5.2868    4.2523 C   0  0  0  0  0  0  0  0  0  0  0  0
   -0.6785   -5.8597    2.9256 C   0  0  0  0  0  0  0  0  0  0  0  0
    0.5413   -6.3188    2.1674 C   0  0  0  0  0  0  0  0  0  0  0  0
   -0.1789   -7.0939    1.0729 C   0  0  0  0  0  0  0  0  0  0  0  0
   -0.0140   -7.1937   -0.2389 C   0  0  0  0  0  0  0  0  0  0  0  0
    1.1339   -6.3932   -0.7966 C   0  0  0  0  0  0  0  0  0  0  0  0
   -0.6752   -3.7580    4.0892 C   0  0  0  0  0  0  0  0  0  0  0  0
    0.1967   -4.9962    8.4193 O   0  0  0  0  0  0  0  0  0  0  0  0
   -1.4315   -5.7869   -2.1660 C   0  0  0  0  0  0  0  0  0  0  0  0
   -0.7358   -7.1138   -4.4614 N   0  0  0  0  0  0  0  0  0  0  0  0
   -0.4947   -7.9603   -5.6302 C   0  0  0  0  0  0  0  0  0  0  0  0
  1  2  1  0
  2  3  1  0
  3  4  1  0
  4  5  1  0
  5  6  1  0
  6  7  1  0
  7  8  1  0
  7  9  1  0
  9 10  1  0
 10 11  1  0
 11 12  1  0
 12 13  1  0
 13 14  1  0
 14 15  2  0
 15 16  1  0
 16 17  1  0
 17 18  1  0
 18 19  1  0
 19 20  1  0
 20 21  1  0
 21 22  1  0
 22 23  1  0
 23 24  2  0
 24 25  1  0
 20 26  1  0
 17 27  1  0
  6 28  1  0
  5 29  1  0
 29 30  1  0
 30  2  1  0
  8  4  1  0
 24  7  1  0
 23 11  1  0
 21 12  1  0
 20 15  1  0
M  END
$$$$
