
     RDKit          3D

 30 35  0  0  0  0  0  0  0  0999 V2000
   -1.9156   -3.5853    5.0683 C   0  0  0  0  0  0  0  0  0  0  0  0
   -0.5864   -4.2102    4.6533 C   0  0  0  0  0  0  0  0  0  0  0  0
   -0.5795   -4.3043    3.1651 C   0  0  0  0  0  0  0  0  0  0  0  0
   -1.4072   -5.4666    2.6330 C   0  0  0  0  0  0  0  0  0  0  0  0
   -1.0050   -6.7459    3.2678 C   0  0  0  0  0  0  0  0  0  0  0  0
   -0.6650   -7.6550    2.1369 C   0  0  0  0  0  0  0  0  0  0  0  0
   -0.9394   -6.8390    0.9214 C   0  0  0  0  0  0  0  0  0  0  0  0
   -1.2161   -5.5459    1.2835 O   0  0  0  0  0  0  0  0  0  0  0  0
   -2.2146   -7.4082    0.2898 C   0  0  0  0  0  0  0  0  0  0  0  0
   -1.8342   -8.5682   -0.6534 C   0  0  0  0  0  0  0  0  0  0  0  0
   -1.1941   -7.9003   -1.8124 C   0  0  0  0  0  0  0  0  0  0  0  0
   -0.7736   -8.6755   -2.9580 C   0  0  0  0  0  0  0  0  0  0  0  0
   -1.2296  -10.0949   -3.1050 C   0  0  0  0  0  0  0  0  0  0  0  0
   -0.7981  -10.4770   -4.4748 C   0  0  0  0  0  0  0  0  0  0  0  0
    0.3364  -10.0659   -4.9803 C   0  0  0  0  0  0  0  0  0  0  0  0
    0.6948  -10.5009   -6.3790 C   0  0  0  0  0  0  0  0  0  0  0  0
    1.2279   -9.2988   -7.1337 C   0  0  0  0  0  0  0  0  0  0  0  0
    2.3986   -8.7616   -6.3558 C   0  0  0  0  0  0  0  0  0  0  0  0
    1.8621   -8.1200   -5.0945 C   0  0  0  0  0  0  0  0  0  0  0  0
    1.2590   -9.1932   -4.2093 C   0  0  0  0  0  0  0  0  0  0  0  0
    0.7523   -8.7459   -2.9189 C   0  0  0  0  0  0  0  0  0  0  0  0
    1.0644   -7.3394   -2.4739 C   0  0  0  0  0  0  0  0  0  0  0  0
    0.0859   -7.2722   -1.3097 C   0  0  0  0  0  0  0  0  0  0  0  0
    0.1636   -6.7976   -0.0741 C   0  0  0  0  0  0  0  0  0  0  0  0
    1.4856   -6.1687    0.2818 C   0  0  0  0  0  0  0  0  0  0  0  0
    2.4572  -10.1238   -3.9016 C   0  0  0  0  0  0  0  0  0  0  0  0
    1.6437   -9.6952   -8.3959 O   0  0  0  0  0  0  0  0  0  0  0  0
    0.6917   -8.2865    2.2076 C   0  0  0  0  0  0  0  0  0  0  0  0
    0.0775   -6.5065    4.1996 N   0  0  0  0  0  0  0  0  0  0  0  0
   -0.4398   -5.6008    5.2257 C   0  0  0  0  0  0  0  0  0  0  0  0
  1  2  1  0
  2  3  1  0
  3  4  1  0
  4  5  1  0
  5  6  1  0
  6  7  1  0
  7  8  1  0
  7  9  1  0
  9 10  1  0
 10 11  1  0
 11 12  1  0
 12 13  1  0
 13 14  1  0
 14 15  2  0
 15 16  1  0
 16 17  1  0
 17 18  1  0
 18 19  1  0
 19 20  1  0
 20 21  1  0
 21 22  1  0
 22 23  1  0
 23 24  2  0
 24 25  1  0
 20 26  1  0
 17 27  1  0
  6 28  1  0
  5 29  1  0
 29 30  1  0
 30  2  1  0
  8  4  1  0
 24  7  1  0
 23 11  1  0
 21 12  1  0
 20 15  1  0
M  END
$$$$
