
     RDKit          3D

 30 35  0  0  0  0  0  0  0  0999 V2000
    0.9376  -10.4988   -6.3964 C   0  0  0  0  0  0  0  0  0  0  0  0
    1.1655   -9.0708   -5.9083 C   0  0  0  0  0  0  0  0  0  0  0  0
    1.2727   -9.1159   -4.4216 C   0  0  0  0  0  0  0  0  0  0  0  0
   -0.0758   -9.2457   -3.7260 C   0  0  0  0  0  0  0  0  0  0  0  0
   -1.0162   -8.1912   -4.1788 C   0  0  0  0  0  0  0  0  0  0  0  0
   -1.4617   -7.5024   -2.9345 C   0  0  0  0  0  0  0  0  0  0  0  0
   -0.7719   -8.2448   -1.8430 C   0  0  0  0  0  0  0  0  0  0  0  0
    0.1240   -9.1328   -2.3802 O   0  0  0  0  0  0  0  0  0  0  0  0
   -1.8462   -9.0720   -1.1283 C   0  0  0  0  0  0  0  0  0  0  0  0
   -2.5042   -8.2048   -0.0352 C   0  0  0  0  0  0  0  0  0  0  0  0
   -1.4628   -8.0893    1.0142 C   0  0  0  0  0  0  0  0  0  0  0  0
   -1.7515   -7.4033    2.2537 C   0  0  0  0  0  0  0  0  0  0  0  0
   -3.1669   -7.0568    2.6011 C   0  0  0  0  0  0  0  0  0  0  0  0
   -3.0920   -6.5826    4.0075 C   0  0  0  0  0  0  0  0  0  0  0  0
   -2.0853   -5.8687    4.4419 C   0  0  0  0  0  0  0  0  0  0  0  0
   -2.0899   -5.4308    5.8849 C   0  0  0  0  0  0  0  0  0  0  0  0
   -0.7057   -5.6588    6.4600 C   0  0  0  0  0  0  0  0  0  0  0  0
    0.2686   -4.8937    5.6058 C   0  0  0  0  0  0  0  0  0  0  0  0
    0.3695   -5.6004    4.2713 C   0  0  0  0  0  0  0  0  0  0  0  0
   -0.9594   -5.4906    3.5494 C   0  0  0  0  0  0  0  0  0  0  0  0
   -1.0095   -6.0682    2.2131 C   0  0  0  0  0  0  0  0  0  0  0  0
    0.2826   -6.5101    1.5735 C   0  0  0  0  0  0  0  0  0  0  0  0
   -0.3206   -7.2976    0.4189 C   0  0  0  0  0  0  0  0  0  0  0  0
   -0.0324   -7.3970   -0.8715 C   0  0  0  0  0  0  0  0  0  0  0  0
    1.1506   -6.5801   -1.3219 C   0  0  0  0  0  0  0  0  0  0  0  0
   -1.1462   -3.9649    3.3657 C   0  0  0  0  0  0  0  0  0  0  0  0
   -0.6643   -5.1831    7.7620 O   0  0  0  0  0  0  0  0  0  0  0  0
   -1.2844   -6.0148   -2.9267 C   0  0  0  0  0  0  0  0  0  0  0  0
   -0.3576   -7.3346   -5.1432 N   0  0  0  0  0  0  0  0  0  0  0  0
    0.0043   -8.1791   -6.2818 C   0  0  0  0  0  0  0  0  0  0  0  0
  1  2  1  0
  2  3  1  0
  3  4  1  0
  4  5  1  0
  5  6  1  0
  6  7  1  0
  7  8  1  0
  7  9  1  0
  9 10  1  0
 10 11  1  0
 11 12  1  0
 12 13  1  0
 13 14  1  0
 14 15  2  0
 15 16  1  0
 16 17  1  0
 17 18  1  0
 18 19  1  0
 19 20  1  0
 20 21  1  0
 21 22  1  0
 22 23  1  0
 23 24  2  0
 24 25  1  0
 20 26  1  0
 17 27  1  0
  6 28  1  0
  5 29  1  0
 29 30  1  0
 30  2  1  0
  8  4  1  0
 24  7  1  0
 23 11  1  0
 21 12  1  0
 20 15  1  0
M  END
$$$$
