
     RDKit          3D

 30 35  0  0  0  0  0  0  0  0999 V2000
    0.1402   -3.2724   12.7500 C   0  0  0  0  0  0  0  0  0  0  0  0
    1.2500   -3.5958   11.7533 C   0  0  0  0  0  0  0  0  0  0  0  0
    0.6978   -3.3891   10.3836 C   0  0  0  0  0  0  0  0  0  0  0  0
   -0.1929   -4.5325    9.9164 C   0  0  0  0  0  0  0  0  0  0  0  0
    0.5017   -5.8378   10.0392 C   0  0  0  0  0  0  0  0  0  0  0  0
    0.4452   -6.4418    8.6779 C   0  0  0  0  0  0  0  0  0  0  0  0
   -0.3219   -5.4503    7.8735 C   0  0  0  0  0  0  0  0  0  0  0  0
   -0.5234   -4.3117    8.6103 O   0  0  0  0  0  0  0  0  0  0  0  0
   -1.7018   -6.0664    7.6179 C   0  0  0  0  0  0  0  0  0  0  0  0
   -1.6336   -6.9448    6.3515 C   0  0  0  0  0  0  0  0  0  0  0  0
   -1.5256   -5.9711    5.2382 C   0  0  0  0  0  0  0  0  0  0  0  0
   -1.5221   -6.4304    3.8674 C   0  0  0  0  0  0  0  0  0  0  0  0
   -1.9071   -7.8439    3.5544 C   0  0  0  0  0  0  0  0  0  0  0  0
   -2.0038   -7.8762    2.0718 C   0  0  0  0  0  0  0  0  0  0  0  0
   -1.1749   -7.2074    1.3119 C   0  0  0  0  0  0  0  0  0  0  0  0
   -1.3467   -7.2961   -0.1837 C   0  0  0  0  0  0  0  0  0  0  0  0
   -1.2186   -5.9017   -0.7650 C   0  0  0  0  0  0  0  0  0  0  0  0
    0.1224   -5.3613   -0.3478 C   0  0  0  0  0  0  0  0  0  0  0  0
    0.0642   -5.0718    1.1365 C   0  0  0  0  0  0  0  0  0  0  0  0
   -0.0873   -6.3779    1.8916 C   0  0  0  0  0  0  0  0  0  0  0  0
   -0.0943   -6.2779    3.3448 C   0  0  0  0  0  0  0  0  0  0  0  0
    0.2718   -4.9578    3.9750 C   0  0  0  0  0  0  0  0  0  0  0  0
   -0.1940   -5.2714    5.3899 C   0  0  0  0  0  0  0  0  0  0  0  0
    0.3158   -5.0465    6.5931 C   0  0  0  0  0  0  0  0  0  0  0  0
    1.6304   -4.3105    6.5974 C   0  0  0  0  0  0  0  0  0  0  0  0
    1.1954   -7.1611    1.5207 C   0  0  0  0  0  0  0  0  0  0  0  0
   -1.2880   -5.9716   -2.1483 O   0  0  0  0  0  0  0  0  0  0  0  0
    1.7650   -6.8643    8.1088 C   0  0  0  0  0  0  0  0  0  0  0  0
    1.8388   -5.6297   10.5550 N   0  0  0  0  0  0  0  0  0  0  0  0
    1.6922   -5.0347   11.8836 C   0  0  0  0  0  0  0  0  0  0  0  0
  1  2  1  0
  2  3  1  0
  3  4  1  0
  4  5  1  0
  5  6  1  0
  6  7  1  0
  7  8  1  0
  7  9  1  0
  9 10  1  0
 10 11  1  0
 11 12  1  0
 12 13  1  0
 13 14  1  0
 14 15  2  0
 15 16  1  0
 16 17  1  0
 17 18  1  0
 18 19  1  0
 19 20  1  0
 20 21  1  0
 21 22  1  0
 22 23  1  0
 23 24  2  0
 24 25  1  0
 20 26  1  0
 17 27  1  0
  6 28  1  0
  5 29  1  0
 29 30  1  0
 30  2  1  0
  8  4  1  0
 24  7  1  0
 23 11  1  0
 21 12  1  0
 20 15  1  0
M  END
$$$$
