
     RDKit          3D

 30 35  0  0  0  0  0  0  0  0999 V2000
   -0.6450   -3.1977   10.5860 C   0  0  0  0  0  0  0  0  0  0  0  0
    0.5058   -3.7817    9.7711 C   0  0  0  0  0  0  0  0  0  0  0  0
    0.1587   -3.6275    8.3291 C   0  0  0  0  0  0  0  0  0  0  0  0
   -0.8460   -4.6617    7.8393 C   0  0  0  0  0  0  0  0  0  0  0  0
   -0.3931   -6.0394    8.1526 C   0  0  0  0  0  0  0  0  0  0  0  0
   -0.3880   -6.7571    6.8465 C   0  0  0  0  0  0  0  0  0  0  0  0
   -0.8835   -5.7432    5.8744 C   0  0  0  0  0  0  0  0  0  0  0  0
   -0.9810   -4.5210    6.4880 O   0  0  0  0  0  0  0  0  0  0  0  0
   -2.3061   -6.1638    5.4889 C   0  0  0  0  0  0  0  0  0  0  0  0
   -2.2347   -7.1612    4.3141 C   0  0  0  0  0  0  0  0  0  0  0  0
   -1.8398   -6.3282    3.1525 C   0  0  0  0  0  0  0  0  0  0  0  0
   -1.7511   -6.9137    1.8336 C   0  0  0  0  0  0  0  0  0  0  0  0
   -2.3226   -8.2757    1.5833 C   0  0  0  0  0  0  0  0  0  0  0  0
   -2.2493   -8.4368    0.1078 C   0  0  0  0  0  0  0  0  0  0  0  0
   -1.2393   -7.9791   -0.5866 C   0  0  0  0  0  0  0  0  0  0  0  0
   -1.2473   -8.1856   -2.0805 C   0  0  0  0  0  0  0  0  0  0  0  0
   -0.8261   -6.8901   -2.7462 C   0  0  0  0  0  0  0  0  0  0  0  0
    0.5271   -6.5224   -2.2002 C   0  0  0  0  0  0  0  0  0  0  0  0
    0.3439   -6.0846   -0.7632 C   0  0  0  0  0  0  0  0  0  0  0  0
   -0.1061   -7.2727    0.0644 C   0  0  0  0  0  0  0  0  0  0  0  0
   -0.2665   -7.0320    1.4921 C   0  0  0  0  0  0  0  0  0  0  0  0
    0.2341   -5.7283    2.0607 C   0  0  0  0  0  0  0  0  0  0  0  0
   -0.4388   -5.8282    3.4225 C   0  0  0  0  0  0  0  0  0  0  0  0
   -0.0432   -5.5677    4.6609 C   0  0  0  0  0  0  0  0  0  0  0  0
    1.3643   -5.0437    4.7802 C   0  0  0  0  0  0  0  0  0  0  0  0
    1.0659   -8.2746   -0.0738 C   0  0  0  0  0  0  0  0  0  0  0  0
   -0.7439   -7.0828   -4.1170 O   0  0  0  0  0  0  0  0  0  0  0  0
    0.9024   -7.4291    6.4894 C   0  0  0  0  0  0  0  0  0  0  0  0
    0.8905   -5.9883    8.8212 N   0  0  0  0  0  0  0  0  0  0  0  0
    0.6888   -5.2517   10.0691 C   0  0  0  0  0  0  0  0  0  0  0  0
  1  2  1  0
  2  3  1  0
  3  4  1  0
  4  5  1  0
  5  6  1  0
  6  7  1  0
  7  8  1  0
  7  9  1  0
  9 10  1  0
 10 11  1  0
 11 12  1  0
 12 13  1  0
 13 14  1  0
 14 15  2  0
 15 16  1  0
 16 17  1  0
 17 18  1  0
 18 19  1  0
 19 20  1  0
 20 21  1  0
 21 22  1  0
 22 23  1  0
 23 24  2  0
 24 25  1  0
 20 26  1  0
 17 27  1  0
  6 28  1  0
  5 29  1  0
 29 30  1  0
 30  2  1  0
  8  4  1  0
 24  7  1  0
 23 11  1  0
 21 12  1  0
 20 15  1  0
M  END
$$$$
