
     RDKit          3D

 30 35  0  0  0  0  0  0  0  0999 V2000
   -0.7586   -4.2179    7.0719 C   0  0  0  0  0  0  0  0  0  0  0  0
    0.0193   -5.4230    6.5502 C   0  0  0  0  0  0  0  0  0  0  0  0
    0.2269   -5.2246    5.0869 C   0  0  0  0  0  0  0  0  0  0  0  0
   -1.0110   -5.5374    4.2569 C   0  0  0  0  0  0  0  0  0  0  0  0
   -1.5315   -6.8931    4.5607 C   0  0  0  0  0  0  0  0  0  0  0  0
   -1.5859   -7.5957    3.2474 C   0  0  0  0  0  0  0  0  0  0  0  0
   -1.1288   -6.5699    2.2690 C   0  0  0  0  0  0  0  0  0  0  0  0
   -0.6713   -5.4632    2.9367 O   0  0  0  0  0  0  0  0  0  0  0  0
   -2.3680   -6.1341    1.4793 C   0  0  0  0  0  0  0  0  0  0  0  0
   -2.5661   -7.0913    0.2858 C   0  0  0  0  0  0  0  0  0  0  0  0
   -1.4711   -6.7383   -0.6498 C   0  0  0  0  0  0  0  0  0  0  0  0
   -1.3816   -7.3818   -1.9414 C   0  0  0  0  0  0  0  0  0  0  0  0
   -2.5354   -8.1887   -2.4531 C   0  0  0  0  0  0  0  0  0  0  0  0
   -2.1732   -8.4907   -3.8624 C   0  0  0  0  0  0  0  0  0  0  0  0
   -0.9417   -8.7548   -4.2165 C   0  0  0  0  0  0  0  0  0  0  0  0
   -0.6634   -9.0489   -5.6692 C   0  0  0  0  0  0  0  0  0  0  0  0
    0.5826   -8.2903   -6.0823 C   0  0  0  0  0  0  0  0  0  0  0  0
    1.6947   -8.7157   -5.1620 C   0  0  0  0  0  0  0  0  0  0  0  0
    1.4157   -8.1284   -3.7954 C   0  0  0  0  0  0  0  0  0  0  0  0
    0.1650   -8.7688   -3.2255 C   0  0  0  0  0  0  0  0  0  0  0  0
   -0.2064   -8.3563   -1.8788 C   0  0  0  0  0  0  0  0  0  0  0  0
    0.7735   -7.5287   -1.0860 C   0  0  0  0  0  0  0  0  0  0  0  0
   -0.1720   -7.1071    0.0300 C   0  0  0  0  0  0  0  0  0  0  0  0
   -0.0502   -7.0125    1.3470 C   0  0  0  0  0  0  0  0  0  0  0  0
    1.3081   -7.3785    1.8862 C   0  0  0  0  0  0  0  0  0  0  0  0
    0.5383  -10.2681   -3.1285 C   0  0  0  0  0  0  0  0  0  0  0  0
    0.9056   -8.6141   -7.3915 O   0  0  0  0  0  0  0  0  0  0  0  0
   -0.8733   -8.9124    3.1949 C   0  0  0  0  0  0  0  0  0  0  0  0
   -0.6875   -7.5265    5.5525 N   0  0  0  0  0  0  0  0  0  0  0  0
   -0.7590   -6.7012    6.7585 C   0  0  0  0  0  0  0  0  0  0  0  0
  1  2  1  0
  2  3  1  0
  3  4  1  0
  4  5  1  0
  5  6  1  0
  6  7  1  0
  7  8  1  0
  7  9  1  0
  9 10  1  0
 10 11  1  0
 11 12  1  0
 12 13  1  0
 13 14  1  0
 14 15  2  0
 15 16  1  0
 16 17  1  0
 17 18  1  0
 18 19  1  0
 19 20  1  0
 20 21  1  0
 21 22  1  0
 22 23  1  0
 23 24  2  0
 24 25  1  0
 20 26  1  0
 17 27  1  0
  6 28  1  0
  5 29  1  0
 29 30  1  0
 30  2  1  0
  8  4  1  0
 24  7  1  0
 23 11  1  0
 21 12  1  0
 20 15  1  0
M  END
$$$$
