
     RDKit          3D

 30 35  0  0  0  0  0  0  0  0999 V2000
    0.4236   -5.9040   18.4882 C   0  0  0  0  0  0  0  0  0  0  0  0
    0.4752   -4.6923   17.5617 C   0  0  0  0  0  0  0  0  0  0  0  0
   -0.1209   -5.0989   16.2567 C   0  0  0  0  0  0  0  0  0  0  0  0
    0.8257   -5.9243   15.3953 C   0  0  0  0  0  0  0  0  0  0  0  0
    2.1265   -5.2339   15.2154 C   0  0  0  0  0  0  0  0  0  0  0  0
    2.3204   -5.1407   13.7407 C   0  0  0  0  0  0  0  0  0  0  0  0
    1.1267   -5.8283   13.1745 C   0  0  0  0  0  0  0  0  0  0  0  0
    0.2384   -6.1174   14.1780 O   0  0  0  0  0  0  0  0  0  0  0  0
    1.6172   -7.1675   12.6131 C   0  0  0  0  0  0  0  0  0  0  0  0
    2.1037   -6.9576   11.1643 C   0  0  0  0  0  0  0  0  0  0  0  0
    0.8578   -6.7423   10.3893 C   0  0  0  0  0  0  0  0  0  0  0  0
    0.9115   -6.5898    8.9526 C   0  0  0  0  0  0  0  0  0  0  0  0
    2.1710   -6.9259    8.2144 C   0  0  0  0  0  0  0  0  0  0  0  0
    1.7815   -6.8655    6.7816 C   0  0  0  0  0  0  0  0  0  0  0  0
    0.9426   -5.9677    6.3322 C   0  0  0  0  0  0  0  0  0  0  0  0
    0.6021   -5.9800    4.8631 C   0  0  0  0  0  0  0  0  0  0  0  0
   -0.8967   -5.8048    4.7165 C   0  0  0  0  0  0  0  0  0  0  0  0
   -1.2698   -4.5206    5.4064 C   0  0  0  0  0  0  0  0  0  0  0  0
   -1.1297   -4.7377    6.8975 C   0  0  0  0  0  0  0  0  0  0  0  0
    0.3330   -4.9553    7.2325 C   0  0  0  0  0  0  0  0  0  0  0  0
    0.6471   -5.1165    8.6458 C   0  0  0  0  0  0  0  0  0  0  0  0
   -0.4336   -4.8317    9.6580 C   0  0  0  0  0  0  0  0  0  0  0  0
    0.2568   -5.4410   10.8701 C   0  0  0  0  0  0  0  0  0  0  0  0
    0.3912   -5.0631   12.1339 C   0  0  0  0  0  0  0  0  0  0  0  0
   -0.2865   -3.7635   12.4827 C   0  0  0  0  0  0  0  0  0  0  0  0
    1.0059   -3.6331    6.7905 C   0  0  0  0  0  0  0  0  0  0  0  0
   -1.2215   -5.7273    3.3705 O   0  0  0  0  0  0  0  0  0  0  0  0
    2.5922   -3.7642   13.2157 C   0  0  0  0  0  0  0  0  0  0  0  0
    2.1000   -3.9606   15.9050 N   0  0  0  0  0  0  0  0  0  0  0  0
    1.9012   -4.2523   17.3249 C   0  0  0  0  0  0  0  0  0  0  0  0
  1  2  1  0
  2  3  1  0
  3  4  1  0
  4  5  1  0
  5  6  1  0
  6  7  1  0
  7  8  1  0
  7  9  1  0
  9 10  1  0
 10 11  1  0
 11 12  1  0
 12 13  1  0
 13 14  1  0
 14 15  2  0
 15 16  1  0
 16 17  1  0
 17 18  1  0
 18 19  1  0
 19 20  1  0
 20 21  1  0
 21 22  1  0
 22 23  1  0
 23 24  2  0
 24 25  1  0
 20 26  1  0
 17 27  1  0
  6 28  1  0
  5 29  1  0
 29 30  1  0
 30  2  1  0
  8  4  1  0
 24  7  1  0
 23 11  1  0
 21 12  1  0
 20 15  1  0
M  END
$$$$
