
     RDKit          3D

 30 35  0  0  0  0  0  0  0  0999 V2000
   -1.5665   -4.2348   10.7983 C   0  0  0  0  0  0  0  0  0  0  0  0
   -0.6472   -3.7830    9.6667 C   0  0  0  0  0  0  0  0  0  0  0  0
   -1.3401   -4.0789    8.3798 C   0  0  0  0  0  0  0  0  0  0  0  0
   -1.2712   -5.5480    7.9846 C   0  0  0  0  0  0  0  0  0  0  0  0
    0.1295   -6.0370    7.9812 C   0  0  0  0  0  0  0  0  0  0  0  0
    0.3461   -6.5972    6.6172 C   0  0  0  0  0  0  0  0  0  0  0  0
   -0.9709   -6.4268    5.9426 C   0  0  0  0  0  0  0  0  0  0  0  0
   -1.8048   -5.6807    6.7349 O   0  0  0  0  0  0  0  0  0  0  0  0
   -1.5915   -7.8239    5.8328 C   0  0  0  0  0  0  0  0  0  0  0  0
   -1.0884   -8.4973    4.5392 C   0  0  0  0  0  0  0  0  0  0  0  0
   -1.7881   -7.7688    3.4534 C   0  0  0  0  0  0  0  0  0  0  0  0
   -1.6263   -8.1823    2.0776 C   0  0  0  0  0  0  0  0  0  0  0  0
   -0.9890   -9.5019    1.7665 C   0  0  0  0  0  0  0  0  0  0  0  0
   -1.2005   -9.6741    0.3056 C   0  0  0  0  0  0  0  0  0  0  0  0
   -1.1293   -8.6658   -0.5251 C   0  0  0  0  0  0  0  0  0  0  0  0
   -1.3591   -8.9309   -1.9918 C   0  0  0  0  0  0  0  0  0  0  0  0
   -2.2693   -7.8485   -2.5382 C   0  0  0  0  0  0  0  0  0  0  0  0
   -1.6082   -6.5243   -2.2659 C   0  0  0  0  0  0  0  0  0  0  0  0
   -1.6831   -6.2664   -0.7766 C   0  0  0  0  0  0  0  0  0  0  0  0
   -0.8304   -7.2897   -0.0519 C   0  0  0  0  0  0  0  0  0  0  0  0
   -0.7436   -7.1389    1.3943 C   0  0  0  0  0  0  0  0  0  0  0  0
   -1.2969   -5.8832    2.0194 C   0  0  0  0  0  0  0  0  0  0  0  0
   -1.2705   -6.3483    3.4686 C   0  0  0  0  0  0  0  0  0  0  0  0
   -0.9177   -5.7719    4.6093 C   0  0  0  0  0  0  0  0  0  0  0  0
   -0.4532   -4.3444    4.4815 C   0  0  0  0  0  0  0  0  0  0  0  0
    0.5938   -7.0258   -0.5981 C   0  0  0  0  0  0  0  0  0  0  0  0
   -2.4246   -8.0245   -3.9050 O   0  0  0  0  0  0  0  0  0  0  0  0
    1.5325   -6.0534    5.8818 C   0  0  0  0  0  0  0  0  0  0  0  0
    1.0226   -4.9552    8.3410 N   0  0  0  0  0  0  0  0  0  0  0  0
    0.6601   -4.5401    9.6963 C   0  0  0  0  0  0  0  0  0  0  0  0
  1  2  1  0
  2  3  1  0
  3  4  1  0
  4  5  1  0
  5  6  1  0
  6  7  1  0
  7  8  1  0
  7  9  1  0
  9 10  1  0
 10 11  1  0
 11 12  1  0
 12 13  1  0
 13 14  1  0
 14 15  2  0
 15 16  1  0
 16 17  1  0
 17 18  1  0
 18 19  1  0
 19 20  1  0
 20 21  1  0
 21 22  1  0
 22 23  1  0
 23 24  2  0
 24 25  1  0
 20 26  1  0
 17 27  1  0
  6 28  1  0
  5 29  1  0
 29 30  1  0
 30  2  1  0
  8  4  1  0
 24  7  1  0
 23 11  1  0
 21 12  1  0
 20 15  1  0
M  END
$$$$
