
     RDKit          3D

 30 35  0  0  0  0  0  0  0  0999 V2000
    0.5772   -7.9995   -6.5339 C   0  0  0  0  0  0  0  0  0  0  0  0
   -0.6449   -8.0460   -5.6209 C   0  0  0  0  0  0  0  0  0  0  0  0
   -0.3509   -7.1941   -4.4329 C   0  0  0  0  0  0  0  0  0  0  0  0
    0.5587   -7.8728   -3.4175 C   0  0  0  0  0  0  0  0  0  0  0  0
    0.0267   -9.2010   -3.0248 C   0  0  0  0  0  0  0  0  0  0  0  0
   -0.0839   -9.1556   -1.5393 C   0  0  0  0  0  0  0  0  0  0  0  0
    0.4372   -7.8078   -1.1785 C   0  0  0  0  0  0  0  0  0  0  0  0
    0.6444   -7.0708   -2.3159 O   0  0  0  0  0  0  0  0  0  0  0  0
    1.8096   -8.0267   -0.5323 C   0  0  0  0  0  0  0  0  0  0  0  0
    1.6195   -8.2862    0.9764 C   0  0  0  0  0  0  0  0  0  0  0  0
    1.2325   -6.9650    1.5274 C   0  0  0  0  0  0  0  0  0  0  0  0
    1.0471   -6.7962    2.9513 C   0  0  0  0  0  0  0  0  0  0  0  0
    1.5128   -7.8626    3.8947 C   0  0  0  0  0  0  0  0  0  0  0  0
    1.3649   -7.2496    5.2403 C   0  0  0  0  0  0  0  0  0  0  0  0
    0.3594   -6.4658    5.5344 C   0  0  0  0  0  0  0  0  0  0  0  0
    0.2886   -5.8856    6.9246 C   0  0  0  0  0  0  0  0  0  0  0  0
   -0.0715   -4.4169    6.8137 C   0  0  0  0  0  0  0  0  0  0  0  0
   -1.3715   -4.3276    6.0612 C   0  0  0  0  0  0  0  0  0  0  0  0
   -1.0968   -4.6869    4.6170 C   0  0  0  0  0  0  0  0  0  0  0  0
   -0.6937   -6.1464    4.5364 C   0  0  0  0  0  0  0  0  0  0  0  0
   -0.4556   -6.6698    3.1980 C   0  0  0  0  0  0  0  0  0  0  0  0
   -0.8409   -5.8177    2.0152 C   0  0  0  0  0  0  0  0  0  0  0  0
   -0.1181   -6.6198    0.9422 C   0  0  0  0  0  0  0  0  0  0  0  0
   -0.4409   -7.0097   -0.2833 C   0  0  0  0  0  0  0  0  0  0  0  0
   -1.8028   -6.5672   -0.7515 C   0  0  0  0  0  0  0  0  0  0  0  0
   -1.9363   -6.8953    5.0763 C   0  0  0  0  0  0  0  0  0  0  0  0
   -0.2260   -3.8839    8.0846 O   0  0  0  0  0  0  0  0  0  0  0  0
   -1.4315   -9.5051   -0.9859 C   0  0  0  0  0  0  0  0  0  0  0  0
   -1.2203   -9.4491   -3.7182 N   0  0  0  0  0  0  0  0  0  0  0  0
   -0.9149   -9.4559   -5.1491 C   0  0  0  0  0  0  0  0  0  0  0  0
  1  2  1  0
  2  3  1  0
  3  4  1  0
  4  5  1  0
  5  6  1  0
  6  7  1  0
  7  8  1  0
  7  9  1  0
  9 10  1  0
 10 11  1  0
 11 12  1  0
 12 13  1  0
 13 14  1  0
 14 15  2  0
 15 16  1  0
 16 17  1  0
 17 18  1  0
 18 19  1  0
 19 20  1  0
 20 21  1  0
 21 22  1  0
 22 23  1  0
 23 24  2  0
 24 25  1  0
 20 26  1  0
 17 27  1  0
  6 28  1  0
  5 29  1  0
 29 30  1  0
 30  2  1  0
  8  4  1  0
 24  7  1  0
 23 11  1  0
 21 12  1  0
 20 15  1  0
M  END
$$$$
