
     RDKit          3D

 30 35  0  0  0  0  0  0  0  0999 V2000
   -0.7915   -3.2155    9.7656 C   0  0  0  0  0  0  0  0  0  0  0  0
    0.4097   -3.8624    9.0815 C   0  0  0  0  0  0  0  0  0  0  0  0
    0.2084   -3.7390    7.6091 C   0  0  0  0  0  0  0  0  0  0  0  0
   -0.7823   -4.7522    7.0514 C   0  0  0  0  0  0  0  0  0  0  0  0
   -0.4127   -6.1347    7.4429 C   0  0  0  0  0  0  0  0  0  0  0  0
   -0.3090   -6.8904    6.1625 C   0  0  0  0  0  0  0  0  0  0  0  0
   -0.6712   -5.8893    5.1209 C   0  0  0  0  0  0  0  0  0  0  0  0
   -0.7818   -4.6469    5.6902 O   0  0  0  0  0  0  0  0  0  0  0  0
   -2.0648   -6.2720    4.6105 C   0  0  0  0  0  0  0  0  0  0  0  0
   -1.9180   -7.3055    3.4746 C   0  0  0  0  0  0  0  0  0  0  0  0
   -1.3831   -6.5211    2.3354 C   0  0  0  0  0  0  0  0  0  0  0  0
   -1.1901   -7.1480    1.0470 C   0  0  0  0  0  0  0  0  0  0  0  0
   -1.7848   -8.4964    0.7781 C   0  0  0  0  0  0  0  0  0  0  0  0
   -1.5765   -8.7034   -0.6786 C   0  0  0  0  0  0  0  0  0  0  0  0
   -0.4883   -8.3013   -1.2837 C   0  0  0  0  0  0  0  0  0  0  0  0
   -0.3607   -8.5514   -2.7653 C   0  0  0  0  0  0  0  0  0  0  0  0
    0.1700   -7.2914   -3.4207 C   0  0  0  0  0  0  0  0  0  0  0  0
    1.4773   -6.9543   -2.7560 C   0  0  0  0  0  0  0  0  0  0  0  0
    1.1735   -6.4683   -1.3554 C   0  0  0  0  0  0  0  0  0  0  0  0
    0.6026   -7.6153   -0.5445 C   0  0  0  0  0  0  0  0  0  0  0  0
    0.3151   -7.3272    0.8541 C   0  0  0  0  0  0  0  0  0  0  0  0
    0.8067   -6.0252    1.4343 C   0  0  0  0  0  0  0  0  0  0  0  0
    0.0032   -6.0617    2.7267 C   0  0  0  0  0  0  0  0  0  0  0  0
    0.2875   -5.7786    3.9904 C   0  0  0  0  0  0  0  0  0  0  0  0
    1.6955   -5.2999    4.2318 C   0  0  0  0  0  0  0  0  0  0  0  0
    1.7446   -8.6604   -0.5424 C   0  0  0  0  0  0  0  0  0  0  0  0
    0.3761   -7.5271   -4.7716 O   0  0  0  0  0  0  0  0  0  0  0  0
    0.9840   -7.6165    5.9498 C   0  0  0  0  0  0  0  0  0  0  0  0
    0.8019   -6.1080    8.2312 N   0  0  0  0  0  0  0  0  0  0  0  0
    0.5088   -5.3284    9.4340 C   0  0  0  0  0  0  0  0  0  0  0  0
  1  2  1  0
  2  3  1  0
  3  4  1  0
  4  5  1  0
  5  6  1  0
  6  7  1  0
  7  8  1  0
  7  9  1  0
  9 10  1  0
 10 11  1  0
 11 12  1  0
 12 13  1  0
 13 14  1  0
 14 15  2  0
 15 16  1  0
 16 17  1  0
 17 18  1  0
 18 19  1  0
 19 20  1  0
 20 21  1  0
 21 22  1  0
 22 23  1  0
 23 24  2  0
 24 25  1  0
 20 26  1  0
 17 27  1  0
  6 28  1  0
  5 29  1  0
 29 30  1  0
 30  2  1  0
  8  4  1  0
 24  7  1  0
 23 11  1  0
 21 12  1  0
 20 15  1  0
M  END
$$$$
