
     RDKit          3D

 30 35  0  0  0  0  0  0  0  0999 V2000
   -2.2904   -4.2015    6.1020 C   0  0  0  0  0  0  0  0  0  0  0  0
   -0.9805   -4.1165    5.3231 C   0  0  0  0  0  0  0  0  0  0  0  0
   -1.3017   -4.3168    3.8808 C   0  0  0  0  0  0  0  0  0  0  0  0
   -1.5409   -5.7758    3.5158 C   0  0  0  0  0  0  0  0  0  0  0  0
   -0.4089   -6.6300    3.9519 C   0  0  0  0  0  0  0  0  0  0  0  0
    0.0430   -7.3402    2.7221 C   0  0  0  0  0  0  0  0  0  0  0  0
   -0.8975   -6.8709    1.6668 C   0  0  0  0  0  0  0  0  0  0  0  0
   -1.6819   -5.8606    2.1605 O   0  0  0  0  0  0  0  0  0  0  0  0
   -1.8291   -8.0474    1.3549 C   0  0  0  0  0  0  0  0  0  0  0  0
   -1.1711   -8.9390    0.2816 C   0  0  0  0  0  0  0  0  0  0  0  0
   -1.2653   -8.1395   -0.9638 C   0  0  0  0  0  0  0  0  0  0  0  0
   -0.8173   -8.6953   -2.2211 C   0  0  0  0  0  0  0  0  0  0  0  0
   -0.5232  -10.1605   -2.3251 C   0  0  0  0  0  0  0  0  0  0  0  0
   -0.3187  -10.3894   -3.7792 C   0  0  0  0  0  0  0  0  0  0  0  0
    0.2894   -9.5128   -4.5366 C   0  0  0  0  0  0  0  0  0  0  0  0
    0.4524   -9.8262   -6.0027 C   0  0  0  0  0  0  0  0  0  0  0  0
    0.1042   -8.5847   -6.8003 C   0  0  0  0  0  0  0  0  0  0  0  0
    1.0018   -7.4756   -6.3221 C   0  0  0  0  0  0  0  0  0  0  0  0
    0.5534   -7.0835   -4.9309 C   0  0  0  0  0  0  0  0  0  0  0  0
    0.8120   -8.2375   -3.9820 C   0  0  0  0  0  0  0  0  0  0  0  0
    0.4926   -7.9960   -2.5814 C   0  0  0  0  0  0  0  0  0  0  0  0
    0.1606   -6.5888   -2.1535 C   0  0  0  0  0  0  0  0  0  0  0  0
   -0.3917   -6.9203   -0.7742 C   0  0  0  0  0  0  0  0  0  0  0  0
   -0.2539   -6.3699    0.4242 C   0  0  0  0  0  0  0  0  0  0  0  0
    0.6172   -5.1413    0.4615 C   0  0  0  0  0  0  0  0  0  0  0  0
    2.3475   -8.4224   -4.0473 C   0  0  0  0  0  0  0  0  0  0  0  0
    0.3298   -8.8249   -8.1473 O   0  0  0  0  0  0  0  0  0  0  0  0
    1.5010   -7.2074    2.4043 C   0  0  0  0  0  0  0  0  0  0  0  0
    0.6030   -5.8096    4.5845 N   0  0  0  0  0  0  0  0  0  0  0  0
   -0.0204   -5.1988    5.7589 C   0  0  0  0  0  0  0  0  0  0  0  0
  1  2  1  0
  2  3  1  0
  3  4  1  0
  4  5  1  0
  5  6  1  0
  6  7  1  0
  7  8  1  0
  7  9  1  0
  9 10  1  0
 10 11  1  0
 11 12  1  0
 12 13  1  0
 13 14  1  0
 14 15  2  0
 15 16  1  0
 16 17  1  0
 17 18  1  0
 18 19  1  0
 19 20  1  0
 20 21  1  0
 21 22  1  0
 22 23  1  0
 23 24  2  0
 24 25  1  0
 20 26  1  0
 17 27  1  0
  6 28  1  0
  5 29  1  0
 29 30  1  0
 30  2  1  0
  8  4  1  0
 24  7  1  0
 23 11  1  0
 21 12  1  0
 20 15  1  0
M  END
$$$$
