
     RDKit          3D

 30 35  0  0  0  0  0  0  0  0999 V2000
    0.7662   -9.8864   -5.7136 C   0  0  0  0  0  0  0  0  0  0  0  0
    0.4447   -8.4745   -5.2312 C   0  0  0  0  0  0  0  0  0  0  0  0
    0.8779   -8.3766   -3.8077 C   0  0  0  0  0  0  0  0  0  0  0  0
   -0.0926   -9.0374   -2.8378 C   0  0  0  0  0  0  0  0  0  0  0  0
   -1.4727   -8.5279   -3.0299 C   0  0  0  0  0  0  0  0  0  0  0  0
   -1.8955   -8.0265   -1.6916 C   0  0  0  0  0  0  0  0  0  0  0  0
   -0.7333   -8.3255   -0.8093 C   0  0  0  0  0  0  0  0  0  0  0  0
    0.3220   -8.7659   -1.5656 O   0  0  0  0  0  0  0  0  0  0  0  0
   -1.1548   -9.4921    0.0910 C   0  0  0  0  0  0  0  0  0  0  0  0
   -1.8738   -8.9324    1.3358 C   0  0  0  0  0  0  0  0  0  0  0  0
   -0.7895   -8.3103    2.1337 C   0  0  0  0  0  0  0  0  0  0  0  0
   -1.0752   -7.7435    3.4327 C   0  0  0  0  0  0  0  0  0  0  0  0
   -2.3877   -8.0273    4.0969 C   0  0  0  0  0  0  0  0  0  0  0  0
   -2.2273   -7.4819    5.4700 C   0  0  0  0  0  0  0  0  0  0  0  0
   -1.5679   -6.3755    5.7000 C   0  0  0  0  0  0  0  0  0  0  0  0
   -1.4532   -5.8952    7.1249 C   0  0  0  0  0  0  0  0  0  0  0  0
   -0.0214   -5.4616    7.3714 C   0  0  0  0  0  0  0  0  0  0  0  0
    0.3100   -4.4030    6.3546 C   0  0  0  0  0  0  0  0  0  0  0  0
    0.4204   -5.0761    5.0037 C   0  0  0  0  0  0  0  0  0  0  0  0
   -0.9429   -5.6007    4.5972 C   0  0  0  0  0  0  0  0  0  0  0  0
   -1.0212   -6.2238    3.2829 C   0  0  0  0  0  0  0  0  0  0  0  0
    0.1624   -6.0974    2.3572 C   0  0  0  0  0  0  0  0  0  0  0  0
   -0.2675   -7.1386    1.3334 C   0  0  0  0  0  0  0  0  0  0  0  0
   -0.2501   -7.1821    0.0083 C   0  0  0  0  0  0  0  0  0  0  0  0
    0.3276   -5.9610   -0.6587 C   0  0  0  0  0  0  0  0  0  0  0  0
   -1.8139   -4.3233    4.5201 C   0  0  0  0  0  0  0  0  0  0  0  0
    0.0865   -4.9360    8.6501 O   0  0  0  0  0  0  0  0  0  0  0  0
   -2.3907   -6.6129   -1.6638 C   0  0  0  0  0  0  0  0  0  0  0  0
   -1.4807   -7.5314   -4.0808 N   0  0  0  0  0  0  0  0  0  0  0  0
   -1.0399   -8.2025   -5.3039 C   0  0  0  0  0  0  0  0  0  0  0  0
  1  2  1  0
  2  3  1  0
  3  4  1  0
  4  5  1  0
  5  6  1  0
  6  7  1  0
  7  8  1  0
  7  9  1  0
  9 10  1  0
 10 11  1  0
 11 12  1  0
 12 13  1  0
 13 14  1  0
 14 15  2  0
 15 16  1  0
 16 17  1  0
 17 18  1  0
 18 19  1  0
 19 20  1  0
 20 21  1  0
 21 22  1  0
 22 23  1  0
 23 24  2  0
 24 25  1  0
 20 26  1  0
 17 27  1  0
  6 28  1  0
  5 29  1  0
 29 30  1  0
 30  2  1  0
  8  4  1  0
 24  7  1  0
 23 11  1  0
 21 12  1  0
 20 15  1  0
M  END
$$$$
