
     RDKit          3D

 25 28  0  0  0  0  0  0  0  0999 V2000
    2.4393    0.5351    6.3146 C   0  0  0  0  0  0  0  0  0  0  0  0
    3.5846    0.3033    7.0366 C   0  0  0  0  0  0  0  0  0  0  0  0
    3.6119    1.1041    8.0750 O   0  0  0  0  0  0  0  0  0  0  0  0
    2.5296    1.8790    8.0974 C   0  0  0  0  0  0  0  0  0  0  0  0
    1.7662    1.5538    7.0085 C   0  0  0  0  0  0  0  0  0  0  0  0
    2.3339    2.8532    9.1613 C   0  0  0  0  0  0  0  0  0  0  0  0
    3.0209    2.9804   10.3009 N   0  0  0  0  0  0  0  0  0  0  0  0
    2.5741    4.0078   11.0238 N   0  0  0  0  0  0  0  0  0  0  0  0
    2.9351    4.5305   12.1954 C   0  0  0  0  0  0  0  0  0  0  0  0
    2.2887    5.6148   12.6814 N   0  0  0  0  0  0  0  0  0  0  0  0
    1.2717    6.2145   12.0285 C   0  0  0  0  0  0  0  0  0  0  0  0
    0.9222    5.6603   10.8336 N   0  0  0  0  0  0  0  0  0  0  0  0
    1.5718    4.5723   10.3476 C   0  0  0  0  0  0  0  0  0  0  0  0
    1.4264    3.8591    9.2036 N   0  0  0  0  0  0  0  0  0  0  0  0
    0.5841    7.3605   12.4835 N   0  0  0  0  0  0  0  0  0  0  0  0
    0.7282    8.0417   13.7286 C   0  0  0  0  0  0  0  0  0  0  0  0
    1.9335    8.9222   13.7001 C   0  0  0  0  0  0  0  0  0  0  0  0
    2.7961    8.7110   14.8882 C   0  0  0  0  0  0  0  0  0  0  0  0
    4.1251    9.0821   14.8592 C   0  0  0  0  0  0  0  0  0  0  0  0
    4.9735    8.9004   15.9337 C   0  0  0  0  0  0  0  0  0  0  0  0
    4.5063    8.3291   17.1012 C   0  0  0  0  0  0  0  0  0  0  0  0
    3.1824    7.9527   17.1481 C   0  0  0  0  0  0  0  0  0  0  0  0
    2.3386    8.1430   16.0515 C   0  0  0  0  0  0  0  0  0  0  0  0
    5.3508    8.1367   18.2028 O   0  0  0  0  0  0  0  0  0  0  0  0
    4.0329    3.9295   12.9020 N   0  0  0  0  0  0  0  0  0  0  0  0
  1  2  2  0
  2  3  1  0
  3  4  1  0
  4  5  2  0
  4  6  1  0
  6  7  2  0
  7  8  1  0
  8  9  1  0
  9 10  2  0
 10 11  1  0
 11 12  2  0
 12 13  1  0
 13 14  2  0
 11 15  1  0
 15 16  1  0
 16 17  1  0
 17 18  1  0
 18 19  2  0
 19 20  1  0
 20 21  2  0
 21 22  1  0
 22 23  2  0
 21 24  1  0
  9 25  1  0
  5  1  1  0
 14  6  1  0
 13  8  1  0
 23 18  1  0
M  END
$$$$
