
     RDKit          3D

 25 28  0  0  0  0  0  0  0  0999 V2000
    3.5224   -0.4852    7.7908 C   0  0  0  0  0  0  0  0  0  0  0  0
    2.4764   -0.2966    6.9208 C   0  0  0  0  0  0  0  0  0  0  0  0
    1.8528    0.8159    7.2274 O   0  0  0  0  0  0  0  0  0  0  0  0
    2.4285    1.4021    8.2750 C   0  0  0  0  0  0  0  0  0  0  0  0
    3.4819    0.6171    8.6602 C   0  0  0  0  0  0  0  0  0  0  0  0
    1.9127    2.6572    8.8017 C   0  0  0  0  0  0  0  0  0  0  0  0
    0.8090    3.3156    8.4337 N   0  0  0  0  0  0  0  0  0  0  0  0
    0.6400    4.4214    9.1592 N   0  0  0  0  0  0  0  0  0  0  0  0
   -0.2925    5.3736    9.1760 C   0  0  0  0  0  0  0  0  0  0  0  0
   -0.2037    6.3931   10.0605 N   0  0  0  0  0  0  0  0  0  0  0  0
    0.8027    6.5032   10.9523 C   0  0  0  0  0  0  0  0  0  0  0  0
    1.7427    5.5172   10.9139 N   0  0  0  0  0  0  0  0  0  0  0  0
    1.6521    4.4950   10.0257 C   0  0  0  0  0  0  0  0  0  0  0  0
    2.4330    3.4093    9.8021 N   0  0  0  0  0  0  0  0  0  0  0  0
    0.9247    7.5340   11.9092 N   0  0  0  0  0  0  0  0  0  0  0  0
    1.8926    7.6650   12.9489 C   0  0  0  0  0  0  0  0  0  0  0  0
    1.3400    7.1526   14.2376 C   0  0  0  0  0  0  0  0  0  0  0  0
    1.9382    7.8446   15.4054 C   0  0  0  0  0  0  0  0  0  0  0  0
    1.6237    9.1621   15.6708 C   0  0  0  0  0  0  0  0  0  0  0  0
    2.1582    9.8554   16.7390 C   0  0  0  0  0  0  0  0  0  0  0  0
    3.0450    9.2360   17.5978 C   0  0  0  0  0  0  0  0  0  0  0  0
    3.3703    7.9214   17.3482 C   0  0  0  0  0  0  0  0  0  0  0  0
    2.8209    7.2355   16.2626 C   0  0  0  0  0  0  0  0  0  0  0  0
    3.5980    9.9220   18.6875 O   0  0  0  0  0  0  0  0  0  0  0  0
   -1.3914    5.2694    8.2556 N   0  0  0  0  0  0  0  0  0  0  0  0
  1  2  2  0
  2  3  1  0
  3  4  1  0
  4  5  2  0
  4  6  1  0
  6  7  2  0
  7  8  1  0
  8  9  1  0
  9 10  2  0
 10 11  1  0
 11 12  2  0
 12 13  1  0
 13 14  2  0
 11 15  1  0
 15 16  1  0
 16 17  1  0
 17 18  1  0
 18 19  2  0
 19 20  1  0
 20 21  2  0
 21 22  1  0
 22 23  2  0
 21 24  1  0
  9 25  1  0
  5  1  1  0
 14  6  1  0
 13  8  1  0
 23 18  1  0
M  END
$$$$
