
     RDKit          3D

 25 28  0  0  0  0  0  0  0  0999 V2000
   -0.2122    1.9777    6.8499 C   0  0  0  0  0  0  0  0  0  0  0  0
    0.7990    1.0891    7.1225 C   0  0  0  0  0  0  0  0  0  0  0  0
    1.4749    1.5081    8.1655 O   0  0  0  0  0  0  0  0  0  0  0  0
    0.9687    2.6513    8.6232 C   0  0  0  0  0  0  0  0  0  0  0  0
   -0.0931    2.9817    7.8248 C   0  0  0  0  0  0  0  0  0  0  0  0
    1.5522    3.3124    9.7814 C   0  0  0  0  0  0  0  0  0  0  0  0
    2.4730    2.8377   10.6262 N   0  0  0  0  0  0  0  0  0  0  0  0
    2.7880    3.7396   11.5562 N   0  0  0  0  0  0  0  0  0  0  0  0
    3.6401    3.7409   12.5811 C   0  0  0  0  0  0  0  0  0  0  0  0
    3.7574    4.8384   13.3631 N   0  0  0  0  0  0  0  0  0  0  0  0
    3.0418    5.9635   13.1579 C   0  0  0  0  0  0  0  0  0  0  0  0
    2.1780    5.9359   12.1042 N   0  0  0  0  0  0  0  0  0  0  0  0
    2.0614    4.8338   11.3207 C   0  0  0  0  0  0  0  0  0  0  0  0
    1.3022    4.5669   10.2295 N   0  0  0  0  0  0  0  0  0  0  0  0
    3.1474    7.1401   13.9310 N   0  0  0  0  0  0  0  0  0  0  0  0
    2.3632    8.3285   13.8438 C   0  0  0  0  0  0  0  0  0  0  0  0
    1.9257    8.7607   15.2042 C   0  0  0  0  0  0  0  0  0  0  0  0
    0.5321    9.2689   15.1971 C   0  0  0  0  0  0  0  0  0  0  0  0
   -0.1084    9.5625   16.3839 C   0  0  0  0  0  0  0  0  0  0  0  0
   -1.4070   10.0301   16.4343 C   0  0  0  0  0  0  0  0  0  0  0  0
   -2.1226   10.2254   15.2693 C   0  0  0  0  0  0  0  0  0  0  0  0
   -1.4992    9.9376   14.0756 C   0  0  0  0  0  0  0  0  0  0  0  0
   -0.1854    9.4646   14.0431 C   0  0  0  0  0  0  0  0  0  0  0  0
   -3.4410   10.6996   15.2991 O   0  0  0  0  0  0  0  0  0  0  0  0
    4.4359    2.5660   12.8089 N   0  0  0  0  0  0  0  0  0  0  0  0
  1  2  2  0
  2  3  1  0
  3  4  1  0
  4  5  2  0
  4  6  1  0
  6  7  2  0
  7  8  1  0
  8  9  1  0
  9 10  2  0
 10 11  1  0
 11 12  2  0
 12 13  1  0
 13 14  2  0
 11 15  1  0
 15 16  1  0
 16 17  1  0
 17 18  1  0
 18 19  2  0
 19 20  1  0
 20 21  2  0
 21 22  1  0
 22 23  2  0
 21 24  1  0
  9 25  1  0
  5  1  1  0
 14  6  1  0
 13  8  1  0
 23 18  1  0
M  END
$$$$
