
     RDKit          3D

 25 28  0  0  0  0  0  0  0  0999 V2000
    2.2133    0.5710    6.3027 C   0  0  0  0  0  0  0  0  0  0  0  0
    3.4404    0.3768    6.8885 C   0  0  0  0  0  0  0  0  0  0  0  0
    3.5621    1.1816    7.9170 O   0  0  0  0  0  0  0  0  0  0  0  0
    2.4661    1.9232    8.0636 C   0  0  0  0  0  0  0  0  0  0  0  0
    1.5932    1.5711    7.0695 C   0  0  0  0  0  0  0  0  0  0  0  0
    2.3639    2.8945    9.1430 C   0  0  0  0  0  0  0  0  0  0  0  0
    3.1436    3.0148   10.2221 N   0  0  0  0  0  0  0  0  0  0  0  0
    2.7631    4.0415   10.9827 N   0  0  0  0  0  0  0  0  0  0  0  0
    3.2226    4.5586   12.1220 C   0  0  0  0  0  0  0  0  0  0  0  0
    2.6238    5.6442   12.6632 N   0  0  0  0  0  0  0  0  0  0  0  0
    1.5590    6.2506   12.0988 C   0  0  0  0  0  0  0  0  0  0  0  0
    1.1090    5.7021   10.9352 N   0  0  0  0  0  0  0  0  0  0  0  0
    1.7108    4.6128   10.3937 C   0  0  0  0  0  0  0  0  0  0  0  0
    1.4677    3.9042    9.2636 N   0  0  0  0  0  0  0  0  0  0  0  0
    0.9168    7.3980   12.6128 N   0  0  0  0  0  0  0  0  0  0  0  0
    1.0744    7.9985   13.8971 C   0  0  0  0  0  0  0  0  0  0  0  0
    2.4489    8.5639   14.0387 C   0  0  0  0  0  0  0  0  0  0  0  0
    2.5961    9.3418   15.2931 C   0  0  0  0  0  0  0  0  0  0  0  0
    1.5225    9.4979   16.1462 C   0  0  0  0  0  0  0  0  0  0  0  0
    1.6030   10.2186   17.3216 C   0  0  0  0  0  0  0  0  0  0  0  0
    2.7908   10.8192   17.6904 C   0  0  0  0  0  0  0  0  0  0  0  0
    3.8728   10.6739   16.8510 C   0  0  0  0  0  0  0  0  0  0  0  0
    3.7734    9.9421   15.6655 C   0  0  0  0  0  0  0  0  0  0  0  0
    2.8931   11.5542   18.8792 O   0  0  0  0  0  0  0  0  0  0  0  0
    4.3723    3.9504   12.7332 N   0  0  0  0  0  0  0  0  0  0  0  0
  1  2  2  0
  2  3  1  0
  3  4  1  0
  4  5  2  0
  4  6  1  0
  6  7  2  0
  7  8  1  0
  8  9  1  0
  9 10  2  0
 10 11  1  0
 11 12  2  0
 12 13  1  0
 13 14  2  0
 11 15  1  0
 15 16  1  0
 16 17  1  0
 17 18  1  0
 18 19  2  0
 19 20  1  0
 20 21  2  0
 21 22  1  0
 22 23  2  0
 21 24  1  0
  9 25  1  0
  5  1  1  0
 14  6  1  0
 13  8  1  0
 23 18  1  0
M  END
$$$$
