
     RDKit          3D

 25 28  0  0  0  0  0  0  0  0999 V2000
    1.7633    0.4483    6.2460 C   0  0  0  0  0  0  0  0  0  0  0  0
    2.9391    0.0967    6.8628 C   0  0  0  0  0  0  0  0  0  0  0  0
    3.1158    0.8509    7.9212 O   0  0  0  0  0  0  0  0  0  0  0  0
    2.1072    1.7089    8.0586 C   0  0  0  0  0  0  0  0  0  0  0  0
    1.2350    1.4896    7.0264 C   0  0  0  0  0  0  0  0  0  0  0  0
    2.0788    2.6527    9.1665 C   0  0  0  0  0  0  0  0  0  0  0  0
    2.8598    2.6763   10.2511 N   0  0  0  0  0  0  0  0  0  0  0  0
    2.5604    3.7077   11.0412 N   0  0  0  0  0  0  0  0  0  0  0  0
    3.0543    4.1511   12.1970 C   0  0  0  0  0  0  0  0  0  0  0  0
    2.5435    5.2655   12.7689 N   0  0  0  0  0  0  0  0  0  0  0  0
    1.5351    5.9739   12.2197 C   0  0  0  0  0  0  0  0  0  0  0  0
    1.0482    5.4991   11.0387 N   0  0  0  0  0  0  0  0  0  0  0  0
    1.5618    4.3808   10.4665 C   0  0  0  0  0  0  0  0  0  0  0  0
    1.2678    3.7286    9.3147 N   0  0  0  0  0  0  0  0  0  0  0  0
    0.9863    7.1543   12.7661 N   0  0  0  0  0  0  0  0  0  0  0  0
    1.3022    7.7844   14.0063 C   0  0  0  0  0  0  0  0  0  0  0  0
    2.6446    8.4331   13.9299 C   0  0  0  0  0  0  0  0  0  0  0  0
    3.2297    8.6448   15.2764 C   0  0  0  0  0  0  0  0  0  0  0  0
    4.2161    9.5913   15.4665 C   0  0  0  0  0  0  0  0  0  0  0  0
    4.8000    9.8227   16.6965 C   0  0  0  0  0  0  0  0  0  0  0  0
    4.4039    9.0974   17.8031 C   0  0  0  0  0  0  0  0  0  0  0  0
    3.4206    8.1485   17.6319 C   0  0  0  0  0  0  0  0  0  0  0  0
    2.8414    7.9269   16.3804 C   0  0  0  0  0  0  0  0  0  0  0  0
    4.9836    9.3175   19.0598 O   0  0  0  0  0  0  0  0  0  0  0  0
    4.1469    3.4326   12.7932 N   0  0  0  0  0  0  0  0  0  0  0  0
  1  2  2  0
  2  3  1  0
  3  4  1  0
  4  5  2  0
  4  6  1  0
  6  7  2  0
  7  8  1  0
  8  9  1  0
  9 10  2  0
 10 11  1  0
 11 12  2  0
 12 13  1  0
 13 14  2  0
 11 15  1  0
 15 16  1  0
 16 17  1  0
 17 18  1  0
 18 19  2  0
 19 20  1  0
 20 21  2  0
 21 22  1  0
 22 23  2  0
 21 24  1  0
  9 25  1  0
  5  1  1  0
 14  6  1  0
 13  8  1  0
 23 18  1  0
M  END
$$$$
