
     RDKit          3D

 25 28  0  0  0  0  0  0  0  0999 V2000
    0.7269    1.8690    6.6821 C   0  0  0  0  0  0  0  0  0  0  0  0
    1.9411    1.2498    6.8527 C   0  0  0  0  0  0  0  0  0  0  0  0
    2.5318    1.7397    7.9163 O   0  0  0  0  0  0  0  0  0  0  0  0
    1.7720    2.6725    8.4863 C   0  0  0  0  0  0  0  0  0  0  0  0
    0.6284    2.7850    7.7422 C   0  0  0  0  0  0  0  0  0  0  0  0
    2.2169    3.3622    9.6886 C   0  0  0  0  0  0  0  0  0  0  0  0
    3.2233    3.0332   10.5045 N   0  0  0  0  0  0  0  0  0  0  0  0
    3.3538    3.9175   11.4937 N   0  0  0  0  0  0  0  0  0  0  0  0
    4.1964    4.0272   12.5206 C   0  0  0  0  0  0  0  0  0  0  0  0
    4.0919    5.0714   13.3741 N   0  0  0  0  0  0  0  0  0  0  0  0
    3.1578    6.0356   13.2403 C   0  0  0  0  0  0  0  0  0  0  0  0
    2.3089    5.8997   12.1829 N   0  0  0  0  0  0  0  0  0  0  0  0
    2.4151    4.8513   11.3277 C   0  0  0  0  0  0  0  0  0  0  0  0
    1.7175    4.5058   10.2175 N   0  0  0  0  0  0  0  0  0  0  0  0
    3.0254    7.1552   14.0902 N   0  0  0  0  0  0  0  0  0  0  0  0
    2.0408    8.1865   14.0467 C   0  0  0  0  0  0  0  0  0  0  0  0
    1.2039    8.0512   12.8179 C   0  0  0  0  0  0  0  0  0  0  0  0
    0.1499    9.0929   12.7539 C   0  0  0  0  0  0  0  0  0  0  0  0
   -0.7065    9.1522   11.6731 C   0  0  0  0  0  0  0  0  0  0  0  0
   -1.6990   10.1060   11.5598 C   0  0  0  0  0  0  0  0  0  0  0  0
   -1.8712   11.0530   12.5503 C   0  0  0  0  0  0  0  0  0  0  0  0
   -1.0255   11.0090   13.6363 C   0  0  0  0  0  0  0  0  0  0  0  0
   -0.0265   10.0378   13.7343 C   0  0  0  0  0  0  0  0  0  0  0  0
   -2.8725   12.0286   12.4543 O   0  0  0  0  0  0  0  0  0  0  0  0
    5.2194    3.0295   12.6739 N   0  0  0  0  0  0  0  0  0  0  0  0
  1  2  2  0
  2  3  1  0
  3  4  1  0
  4  5  2  0
  4  6  1  0
  6  7  2  0
  7  8  1  0
  8  9  1  0
  9 10  2  0
 10 11  1  0
 11 12  2  0
 12 13  1  0
 13 14  2  0
 11 15  1  0
 15 16  1  0
 16 17  1  0
 17 18  1  0
 18 19  2  0
 19 20  1  0
 20 21  2  0
 21 22  1  0
 22 23  2  0
 21 24  1  0
  9 25  1  0
  5  1  1  0
 14  6  1  0
 13  8  1  0
 23 18  1  0
M  END
$$$$
