
     RDKit          3D

 25 28  0  0  0  0  0  0  0  0999 V2000
    5.6605    2.0737   12.9013 C   0  0  0  0  0  0  0  0  0  0  0  0
    5.5296    1.3411   11.7469 C   0  0  0  0  0  0  0  0  0  0  0  0
    4.5855    1.8676   11.0041 O   0  0  0  0  0  0  0  0  0  0  0  0
    4.0605    2.9354   11.6013 C   0  0  0  0  0  0  0  0  0  0  0  0
    4.7076    3.1001   12.7964 C   0  0  0  0  0  0  0  0  0  0  0  0
    2.9918    3.6928   10.9662 C   0  0  0  0  0  0  0  0  0  0  0  0
    2.4655    3.5174    9.7500 N   0  0  0  0  0  0  0  0  0  0  0  0
    1.4807    4.3857    9.5184 N   0  0  0  0  0  0  0  0  0  0  0  0
    0.6646    4.5927    8.4852 C   0  0  0  0  0  0  0  0  0  0  0  0
   -0.2740    5.5648    8.5474 N   0  0  0  0  0  0  0  0  0  0  0  0
   -0.4362    6.3579    9.6267 C   0  0  0  0  0  0  0  0  0  0  0  0
    0.4109    6.1259   10.6687 N   0  0  0  0  0  0  0  0  0  0  0  0
    1.3521    5.1503   10.6045 C   0  0  0  0  0  0  0  0  0  0  0  0
    2.2835    4.7220   11.4919 N   0  0  0  0  0  0  0  0  0  0  0  0
   -1.4157    7.3675    9.7471 N   0  0  0  0  0  0  0  0  0  0  0  0
   -1.5482    8.3531   10.7697 C   0  0  0  0  0  0  0  0  0  0  0  0
   -0.7496    9.5666   10.4253 C   0  0  0  0  0  0  0  0  0  0  0  0
   -0.0507   10.1189   11.6114 C   0  0  0  0  0  0  0  0  0  0  0  0
    0.7989   11.1986   11.4794 C   0  0  0  0  0  0  0  0  0  0  0  0
    1.4802   11.7462   12.5487 C   0  0  0  0  0  0  0  0  0  0  0  0
    1.3274   11.2185   13.8159 C   0  0  0  0  0  0  0  0  0  0  0  0
    0.4834   10.1408   13.9663 C   0  0  0  0  0  0  0  0  0  0  0  0
   -0.1973    9.5990   12.8736 C   0  0  0  0  0  0  0  0  0  0  0  0
    2.0093   11.7600   14.9138 O   0  0  0  0  0  0  0  0  0  0  0  0
    0.7955    3.7458    7.3314 N   0  0  0  0  0  0  0  0  0  0  0  0
  1  2  2  0
  2  3  1  0
  3  4  1  0
  4  5  2  0
  4  6  1  0
  6  7  2  0
  7  8  1  0
  8  9  1  0
  9 10  2  0
 10 11  1  0
 11 12  2  0
 12 13  1  0
 13 14  2  0
 11 15  1  0
 15 16  1  0
 16 17  1  0
 17 18  1  0
 18 19  2  0
 19 20  1  0
 20 21  2  0
 21 22  1  0
 22 23  2  0
 21 24  1  0
  9 25  1  0
  5  1  1  0
 14  6  1  0
 13  8  1  0
 23 18  1  0
M  END
$$$$
