
     RDKit          3D

 25 28  0  0  0  0  0  0  0  0999 V2000
    3.1747   -0.2166    7.1561 C   0  0  0  0  0  0  0  0  0  0  0  0
    1.9805    0.0388    6.5275 C   0  0  0  0  0  0  0  0  0  0  0  0
    1.4337    1.1086    7.0538 O   0  0  0  0  0  0  0  0  0  0  0  0
    2.2048    1.6011    8.0209 C   0  0  0  0  0  0  0  0  0  0  0  0
    3.3092    0.7980    8.1179 C   0  0  0  0  0  0  0  0  0  0  0  0
    1.8071    2.7937    8.7549 C   0  0  0  0  0  0  0  0  0  0  0  0
    0.6593    3.4732    8.6665 N   0  0  0  0  0  0  0  0  0  0  0  0
    0.6385    4.5013    9.5151 N   0  0  0  0  0  0  0  0  0  0  0  0
   -0.2666    5.4376    9.7993 C   0  0  0  0  0  0  0  0  0  0  0  0
   -0.0050    6.3672   10.7466 N   0  0  0  0  0  0  0  0  0  0  0  0
    1.1518    6.4004   11.4400 C   0  0  0  0  0  0  0  0  0  0  0  0
    2.0598    5.4327   11.1300 N   0  0  0  0  0  0  0  0  0  0  0  0
    1.7958    4.5009   10.1792 C   0  0  0  0  0  0  0  0  0  0  0  0
    2.5121    3.4503    9.7084 N   0  0  0  0  0  0  0  0  0  0  0  0
    1.4595    7.3345   12.4529 N   0  0  0  0  0  0  0  0  0  0  0  0
    2.5918    7.3569   13.3203 C   0  0  0  0  0  0  0  0  0  0  0  0
    2.2919    6.6170   14.5818 C   0  0  0  0  0  0  0  0  0  0  0  0
    3.4380    6.6489   15.5229 C   0  0  0  0  0  0  0  0  0  0  0  0
    4.6575    6.1181   15.1540 C   0  0  0  0  0  0  0  0  0  0  0  0
    5.7537    6.1145   15.9940 C   0  0  0  0  0  0  0  0  0  0  0  0
    5.6624    6.6574   17.2607 C   0  0  0  0  0  0  0  0  0  0  0  0
    4.4529    7.1917   17.6458 C   0  0  0  0  0  0  0  0  0  0  0  0
    3.3541    7.1861   16.7836 C   0  0  0  0  0  0  0  0  0  0  0  0
    6.7632    6.6640   18.1278 O   0  0  0  0  0  0  0  0  0  0  0  0
   -1.5195    5.4120    9.0957 N   0  0  0  0  0  0  0  0  0  0  0  0
  1  2  2  0
  2  3  1  0
  3  4  1  0
  4  5  2  0
  4  6  1  0
  6  7  2  0
  7  8  1  0
  8  9  1  0
  9 10  2  0
 10 11  1  0
 11 12  2  0
 12 13  1  0
 13 14  2  0
 11 15  1  0
 15 16  1  0
 16 17  1  0
 17 18  1  0
 18 19  2  0
 19 20  1  0
 20 21  2  0
 21 22  1  0
 22 23  2  0
 21 24  1  0
  9 25  1  0
  5  1  1  0
 14  6  1  0
 13  8  1  0
 23 18  1  0
M  END
$$$$
