
     RDKit          3D

 25 28  0  0  0  0  0  0  0  0999 V2000
    1.9827    0.5846    6.4273 C   0  0  0  0  0  0  0  0  0  0  0  0
    3.1909    0.4468    7.0660 C   0  0  0  0  0  0  0  0  0  0  0  0
    3.2270    1.2491    8.1029 O   0  0  0  0  0  0  0  0  0  0  0  0
    2.0903    1.9348    8.2044 C   0  0  0  0  0  0  0  0  0  0  0  0
    1.2806    1.5473    7.1707 C   0  0  0  0  0  0  0  0  0  0  0  0
    1.8926    2.8920    9.2831 C   0  0  0  0  0  0  0  0  0  0  0  0
    2.6351    3.0633   10.3814 N   0  0  0  0  0  0  0  0  0  0  0  0
    2.1638    4.0573   11.1347 N   0  0  0  0  0  0  0  0  0  0  0  0
    2.5571    4.6013   12.2861 C   0  0  0  0  0  0  0  0  0  0  0  0
    1.8693    5.6393   12.8148 N   0  0  0  0  0  0  0  0  0  0  0  0
    0.7781    6.1705   12.2255 C   0  0  0  0  0  0  0  0  0  0  0  0
    0.3971    5.5959   11.0499 N   0  0  0  0  0  0  0  0  0  0  0  0
    1.0882    4.5545   10.5211 C   0  0  0  0  0  0  0  0  0  0  0  0
    0.9241    3.8349    9.3837 N   0  0  0  0  0  0  0  0  0  0  0  0
    0.0433    7.2672   12.7259 N   0  0  0  0  0  0  0  0  0  0  0  0
   -0.0088    7.7598   14.0637 C   0  0  0  0  0  0  0  0  0  0  0  0
    1.3347    8.2560   14.4850 C   0  0  0  0  0  0  0  0  0  0  0  0
    1.5679    9.6525   14.0426 C   0  0  0  0  0  0  0  0  0  0  0  0
    0.5214   10.4169   13.5677 C   0  0  0  0  0  0  0  0  0  0  0  0
    0.6849   11.7184   13.1357 C   0  0  0  0  0  0  0  0  0  0  0  0
    1.9318   12.3115   13.1680 C   0  0  0  0  0  0  0  0  0  0  0  0
    2.9879   11.5636   13.6390 C   0  0  0  0  0  0  0  0  0  0  0  0
    2.8046   10.2481   14.0711 C   0  0  0  0  0  0  0  0  0  0  0  0
    2.1185   13.6311   12.7347 O   0  0  0  0  0  0  0  0  0  0  0  0
    3.7320    4.0741   12.9242 N   0  0  0  0  0  0  0  0  0  0  0  0
  1  2  2  0
  2  3  1  0
  3  4  1  0
  4  5  2  0
  4  6  1  0
  6  7  2  0
  7  8  1  0
  8  9  1  0
  9 10  2  0
 10 11  1  0
 11 12  2  0
 12 13  1  0
 13 14  2  0
 11 15  1  0
 15 16  1  0
 16 17  1  0
 17 18  1  0
 18 19  2  0
 19 20  1  0
 20 21  2  0
 21 22  1  0
 22 23  2  0
 21 24  1  0
  9 25  1  0
  5  1  1  0
 14  6  1  0
 13  8  1  0
 23 18  1  0
M  END
$$$$
