
     RDKit          3D

 25 28  0  0  0  0  0  0  0  0999 V2000
    1.2331    0.2051    6.6541 C   0  0  0  0  0  0  0  0  0  0  0  0
    2.4988   -0.0250    7.1355 C   0  0  0  0  0  0  0  0  0  0  0  0
    2.7672    0.8429    8.0815 O   0  0  0  0  0  0  0  0  0  0  0  0
    1.7355    1.6626    8.2716 C   0  0  0  0  0  0  0  0  0  0  0  0
    0.7501    1.2963    7.3947 C   0  0  0  0  0  0  0  0  0  0  0  0
    1.7962    2.7144    9.2761 C   0  0  0  0  0  0  0  0  0  0  0  0
    2.6677    2.8472   10.2809 N   0  0  0  0  0  0  0  0  0  0  0  0
    2.4303    3.9542   10.9850 N   0  0  0  0  0  0  0  0  0  0  0  0
    3.0190    4.5124   12.0425 C   0  0  0  0  0  0  0  0  0  0  0  0
    2.5514    5.6800   12.5403 N   0  0  0  0  0  0  0  0  0  0  0  0
    1.4942    6.3303   12.0114 C   0  0  0  0  0  0  0  0  0  0  0  0
    0.9105    5.7384   10.9316 N   0  0  0  0  0  0  0  0  0  0  0  0
    1.3808    4.5667   10.4336 C   0  0  0  0  0  0  0  0  0  0  0  0
    0.9931    3.8010    9.3839 N   0  0  0  0  0  0  0  0  0  0  0  0
    0.9860    7.5611   12.4805 N   0  0  0  0  0  0  0  0  0  0  0  0
    1.4492    8.3488   13.5759 C   0  0  0  0  0  0  0  0  0  0  0  0
    1.1288    7.6755   14.8693 C   0  0  0  0  0  0  0  0  0  0  0  0
    2.1629    7.9430   15.8986 C   0  0  0  0  0  0  0  0  0  0  0  0
    2.0078    7.4629   17.1833 C   0  0  0  0  0  0  0  0  0  0  0  0
    2.9354    7.6900   18.1810 C   0  0  0  0  0  0  0  0  0  0  0  0
    4.0769    8.4214   17.9173 C   0  0  0  0  0  0  0  0  0  0  0  0
    4.2483    8.9083   16.6406 C   0  0  0  0  0  0  0  0  0  0  0  0
    3.2995    8.6698   15.6438 C   0  0  0  0  0  0  0  0  0  0  0  0
    5.0303    8.6624   18.9157 O   0  0  0  0  0  0  0  0  0  0  0  0
    4.1642    3.8567   12.6116 N   0  0  0  0  0  0  0  0  0  0  0  0
  1  2  2  0
  2  3  1  0
  3  4  1  0
  4  5  2  0
  4  6  1  0
  6  7  2  0
  7  8  1  0
  8  9  1  0
  9 10  2  0
 10 11  1  0
 11 12  2  0
 12 13  1  0
 13 14  2  0
 11 15  1  0
 15 16  1  0
 16 17  1  0
 17 18  1  0
 18 19  2  0
 19 20  1  0
 20 21  2  0
 21 22  1  0
 22 23  2  0
 21 24  1  0
  9 25  1  0
  5  1  1  0
 14  6  1  0
 13  8  1  0
 23 18  1  0
M  END
$$$$
