
     RDKit          3D

 25 28  0  0  0  0  0  0  0  0999 V2000
    5.3251    8.4608   16.9794 C   0  0  0  0  0  0  0  0  0  0  0  0
    5.4651    7.1585   17.3932 C   0  0  0  0  0  0  0  0  0  0  0  0
    5.0446    6.3550   16.4456 O   0  0  0  0  0  0  0  0  0  0  0  0
    4.6203    7.0527   15.3941 C   0  0  0  0  0  0  0  0  0  0  0  0
    4.7791    8.3803   15.6879 C   0  0  0  0  0  0  0  0  0  0  0  0
    4.1062    6.3773   14.2114 C   0  0  0  0  0  0  0  0  0  0  0  0
    3.9297    5.0660   14.0207 N   0  0  0  0  0  0  0  0  0  0  0  0
    3.4110    4.8169   12.8180 N   0  0  0  0  0  0  0  0  0  0  0  0
    3.0519    3.6987   12.1879 C   0  0  0  0  0  0  0  0  0  0  0  0
    2.5243    3.7617   10.9439 N   0  0  0  0  0  0  0  0  0  0  0  0
    2.3349    4.9249   10.2871 C   0  0  0  0  0  0  0  0  0  0  0  0
    2.7106    6.0528   10.9531 N   0  0  0  0  0  0  0  0  0  0  0  0
    3.2399    5.9877   12.2012 C   0  0  0  0  0  0  0  0  0  0  0  0
    3.6694    6.9445   13.0605 N   0  0  0  0  0  0  0  0  0  0  0  0
    1.7666    5.0422    9.0000 N   0  0  0  0  0  0  0  0  0  0  0  0
    1.4270    4.0015    8.0854 C   0  0  0  0  0  0  0  0  0  0  0  0
    0.7308    2.8911    8.8005 C   0  0  0  0  0  0  0  0  0  0  0  0
    0.5950    1.6870    7.9449 C   0  0  0  0  0  0  0  0  0  0  0  0
   -0.6265    1.3591    7.3923 C   0  0  0  0  0  0  0  0  0  0  0  0
   -0.8097    0.2457    6.5960 C   0  0  0  0  0  0  0  0  0  0  0  0
    0.2509   -0.5947    6.3191 C   0  0  0  0  0  0  0  0  0  0  0  0
    1.4774   -0.2829    6.8622 C   0  0  0  0  0  0  0  0  0  0  0  0
    1.6445    0.8469    7.6662 C   0  0  0  0  0  0  0  0  0  0  0  0
    0.0858   -1.7290    5.5129 O   0  0  0  0  0  0  0  0  0  0  0  0
    3.2169    2.4460   12.8727 N   0  0  0  0  0  0  0  0  0  0  0  0
  1  2  2  0
  2  3  1  0
  3  4  1  0
  4  5  2  0
  4  6  1  0
  6  7  2  0
  7  8  1  0
  8  9  1  0
  9 10  2  0
 10 11  1  0
 11 12  2  0
 12 13  1  0
 13 14  2  0
 11 15  1  0
 15 16  1  0
 16 17  1  0
 17 18  1  0
 18 19  2  0
 19 20  1  0
 20 21  2  0
 21 22  1  0
 22 23  2  0
 21 24  1  0
  9 25  1  0
  5  1  1  0
 14  6  1  0
 13  8  1  0
 23 18  1  0
M  END
$$$$
