
     RDKit          3D

 25 28  0  0  0  0  0  0  0  0999 V2000
    3.3808    8.1501   16.7864 C   0  0  0  0  0  0  0  0  0  0  0  0
    2.5783    9.0849   16.1792 C   0  0  0  0  0  0  0  0  0  0  0  0
    2.2502    8.6622   14.9816 O   0  0  0  0  0  0  0  0  0  0  0  0
    2.7950    7.4718   14.7395 C   0  0  0  0  0  0  0  0  0  0  0  0
    3.5139    7.1135   15.8482 C   0  0  0  0  0  0  0  0  0  0  0  0
    2.5712    6.7954   13.4701 C   0  0  0  0  0  0  0  0  0  0  0  0
    3.0942    5.6405   13.0464 N   0  0  0  0  0  0  0  0  0  0  0  0
    2.6378    5.3171   11.8361 N   0  0  0  0  0  0  0  0  0  0  0  0
    2.8493    4.2828   11.0225 C   0  0  0  0  0  0  0  0  0  0  0  0
    2.2146    4.2185    9.8297 N   0  0  0  0  0  0  0  0  0  0  0  0
    1.3549    5.1679    9.4057 C   0  0  0  0  0  0  0  0  0  0  0  0
    1.1568    6.2144   10.2559 N   0  0  0  0  0  0  0  0  0  0  0  0
    1.7945    6.2773   11.4522 C   0  0  0  0  0  0  0  0  0  0  0  0
    1.7570    7.1849   12.4589 N   0  0  0  0  0  0  0  0  0  0  0  0
    0.6517    5.1322    8.1819 N   0  0  0  0  0  0  0  0  0  0  0  0
    0.5154    4.0419    7.2722 C   0  0  0  0  0  0  0  0  0  0  0  0
   -0.0564    2.8532    7.9714 C   0  0  0  0  0  0  0  0  0  0  0  0
    0.5581    1.5891    7.4973 C   0  0  0  0  0  0  0  0  0  0  0  0
    0.8066    1.3963    6.1534 C   0  0  0  0  0  0  0  0  0  0  0  0
    1.3688    0.2361    5.6581 C   0  0  0  0  0  0  0  0  0  0  0  0
    1.7104   -0.7928    6.5139 C   0  0  0  0  0  0  0  0  0  0  0  0
    1.4695   -0.6178    7.8585 C   0  0  0  0  0  0  0  0  0  0  0  0
    0.8994    0.5620    8.3421 C   0  0  0  0  0  0  0  0  0  0  0  0
    2.2823   -1.9776    6.0314 O   0  0  0  0  0  0  0  0  0  0  0  0
    3.7396    3.2422   11.4582 N   0  0  0  0  0  0  0  0  0  0  0  0
  1  2  2  0
  2  3  1  0
  3  4  1  0
  4  5  2  0
  4  6  1  0
  6  7  2  0
  7  8  1  0
  8  9  1  0
  9 10  2  0
 10 11  1  0
 11 12  2  0
 12 13  1  0
 13 14  2  0
 11 15  1  0
 15 16  1  0
 16 17  1  0
 17 18  1  0
 18 19  2  0
 19 20  1  0
 20 21  2  0
 21 22  1  0
 22 23  2  0
 21 24  1  0
  9 25  1  0
  5  1  1  0
 14  6  1  0
 13  8  1  0
 23 18  1  0
M  END
$$$$
