
     RDKit          3D

 25 28  0  0  0  0  0  0  0  0999 V2000
    1.5777    0.4217    6.0739 C   0  0  0  0  0  0  0  0  0  0  0  0
    0.5716    0.0078    6.9124 C   0  0  0  0  0  0  0  0  0  0  0  0
    0.5450    0.7805    7.9720 O   0  0  0  0  0  0  0  0  0  0  0  0
    1.4935    1.7117    7.8965 C   0  0  0  0  0  0  0  0  0  0  0  0
    2.1657    1.5219    6.7191 C   0  0  0  0  0  0  0  0  0  0  0  0
    1.6602    2.6917    8.9598 C   0  0  0  0  0  0  0  0  0  0  0  0
    0.8478    2.9353    9.9931 N   0  0  0  0  0  0  0  0  0  0  0  0
    1.3407    3.8902   10.7823 N   0  0  0  0  0  0  0  0  0  0  0  0
    0.9156    4.4568   11.9113 C   0  0  0  0  0  0  0  0  0  0  0  0
    1.6588    5.4159   12.5093 N   0  0  0  0  0  0  0  0  0  0  0  0
    2.8393    5.8424   12.0146 C   0  0  0  0  0  0  0  0  0  0  0  0
    3.2506    5.2473   10.8596 N   0  0  0  0  0  0  0  0  0  0  0  0
    2.5036    4.2853   10.2609 C   0  0  0  0  0  0  0  0  0  0  0  0
    2.6962    3.5470    9.1400 N   0  0  0  0  0  0  0  0  0  0  0  0
    3.6603    6.8214   12.6151 N   0  0  0  0  0  0  0  0  0  0  0  0
    3.5969    7.3335   13.9450 C   0  0  0  0  0  0  0  0  0  0  0  0
    2.4372    8.2630   14.0868 C   0  0  0  0  0  0  0  0  0  0  0  0
    2.3269    8.7970   15.4662 C   0  0  0  0  0  0  0  0  0  0  0  0
    3.2365    8.4211   16.4337 C   0  0  0  0  0  0  0  0  0  0  0  0
    3.1747    8.8817   17.7343 C   0  0  0  0  0  0  0  0  0  0  0  0
    2.1767    9.7566   18.1166 C   0  0  0  0  0  0  0  0  0  0  0  0
    1.2601   10.1427   17.1641 C   0  0  0  0  0  0  0  0  0  0  0  0
    1.3371    9.6662   15.8534 C   0  0  0  0  0  0  0  0  0  0  0  0
    2.0970   10.2359   19.4310 O   0  0  0  0  0  0  0  0  0  0  0  0
   -0.3257    4.0046   12.4771 N   0  0  0  0  0  0  0  0  0  0  0  0
  1  2  2  0
  2  3  1  0
  3  4  1  0
  4  5  2  0
  4  6  1  0
  6  7  2  0
  7  8  1  0
  8  9  1  0
  9 10  2  0
 10 11  1  0
 11 12  2  0
 12 13  1  0
 13 14  2  0
 11 15  1  0
 15 16  1  0
 16 17  1  0
 17 18  1  0
 18 19  2  0
 19 20  1  0
 20 21  2  0
 21 22  1  0
 22 23  2  0
 21 24  1  0
  9 25  1  0
  5  1  1  0
 14  6  1  0
 13  8  1  0
 23 18  1  0
M  END
$$$$
