
     RDKit          3D

 25 28  0  0  0  0  0  0  0  0999 V2000
    1.6462    0.4648    6.7326 C   0  0  0  0  0  0  0  0  0  0  0  0
    2.8914    0.2907    7.2857 C   0  0  0  0  0  0  0  0  0  0  0  0
    3.0840    1.1974    8.2137 O   0  0  0  0  0  0  0  0  0  0  0  0
    2.0197    1.9898    8.3225 C   0  0  0  0  0  0  0  0  0  0  0  0
    1.0928    1.5640    7.4094 C   0  0  0  0  0  0  0  0  0  0  0  0
    1.9965    3.0755    9.2919 C   0  0  0  0  0  0  0  0  0  0  0  0
    2.7988    3.2593   10.3452 N   0  0  0  0  0  0  0  0  0  0  0  0
    2.4964    4.3841   10.9940 N   0  0  0  0  0  0  0  0  0  0  0  0
    3.0055    4.9889   12.0671 C   0  0  0  0  0  0  0  0  0  0  0  0
    2.4857    6.1628   12.4934 N   0  0  0  0  0  0  0  0  0  0  0  0
    1.4533    6.7735   11.8759 C   0  0  0  0  0  0  0  0  0  0  0  0
    0.9513    6.1344   10.7820 N   0  0  0  0  0  0  0  0  0  0  0  0
    1.4739    4.9566   10.3558 C   0  0  0  0  0  0  0  0  0  0  0  0
    1.1687    4.1486    9.3106 N   0  0  0  0  0  0  0  0  0  0  0  0
    0.8938    8.0088   12.2688 N   0  0  0  0  0  0  0  0  0  0  0  0
    1.3264    8.8843   13.3087 C   0  0  0  0  0  0  0  0  0  0  0  0
    0.8274    8.4032   14.6310 C   0  0  0  0  0  0  0  0  0  0  0  0
    1.8819    8.4673   15.6722 C   0  0  0  0  0  0  0  0  0  0  0  0
    3.1427    8.9336   15.3593 C   0  0  0  0  0  0  0  0  0  0  0  0
    4.1624    9.0062   16.2879 C   0  0  0  0  0  0  0  0  0  0  0  0
    3.9464    8.6064   17.5922 C   0  0  0  0  0  0  0  0  0  0  0  0
    2.6941    8.1383   17.9224 C   0  0  0  0  0  0  0  0  0  0  0  0
    1.6745    8.0708   16.9702 C   0  0  0  0  0  0  0  0  0  0  0  0
    4.9677    8.6728   18.5494 O   0  0  0  0  0  0  0  0  0  0  0  0
    4.1233    4.3758   12.7305 N   0  0  0  0  0  0  0  0  0  0  0  0
  1  2  2  0
  2  3  1  0
  3  4  1  0
  4  5  2  0
  4  6  1  0
  6  7  2  0
  7  8  1  0
  8  9  1  0
  9 10  2  0
 10 11  1  0
 11 12  2  0
 12 13  1  0
 13 14  2  0
 11 15  1  0
 15 16  1  0
 16 17  1  0
 17 18  1  0
 18 19  2  0
 19 20  1  0
 20 21  2  0
 21 22  1  0
 22 23  2  0
 21 24  1  0
  9 25  1  0
  5  1  1  0
 14  6  1  0
 13  8  1  0
 23 18  1  0
M  END
$$$$
