
     RDKit          3D

 25 28  0  0  0  0  0  0  0  0999 V2000
    1.6575    0.1373    6.6266 C   0  0  0  0  0  0  0  0  0  0  0  0
    2.8826   -0.1180    7.1929 C   0  0  0  0  0  0  0  0  0  0  0  0
    3.1086    0.7524    8.1477 O   0  0  0  0  0  0  0  0  0  0  0  0
    2.0867    1.5980    8.2622 C   0  0  0  0  0  0  0  0  0  0  0  0
    1.1530    1.2467    7.3246 C   0  0  0  0  0  0  0  0  0  0  0  0
    2.1060    2.6577    9.2600 C   0  0  0  0  0  0  0  0  0  0  0  0
    2.9502    2.8113   10.2851 N   0  0  0  0  0  0  0  0  0  0  0  0
    2.6781    3.9194   10.9748 N   0  0  0  0  0  0  0  0  0  0  0  0
    3.2316    4.4941   12.0424 C   0  0  0  0  0  0  0  0  0  0  0  0
    2.7337    5.6578   12.5197 N   0  0  0  0  0  0  0  0  0  0  0  0
    1.6800    6.2877   11.9600 C   0  0  0  0  0  0  0  0  0  0  0  0
    1.1326    5.6791   10.8705 N   0  0  0  0  0  0  0  0  0  0  0  0
    1.6334    4.5115   10.3930 C   0  0  0  0  0  0  0  0  0  0  0  0
    1.2838    3.7323    9.3398 N   0  0  0  0  0  0  0  0  0  0  0  0
    1.1414    7.5137   12.4072 N   0  0  0  0  0  0  0  0  0  0  0  0
    1.6228    8.3641   13.4463 C   0  0  0  0  0  0  0  0  0  0  0  0
    1.0691    7.9348   14.7645 C   0  0  0  0  0  0  0  0  0  0  0  0
    2.1184    7.8876   15.8119 C   0  0  0  0  0  0  0  0  0  0  0  0
    3.4233    8.2170   15.5061 C   0  0  0  0  0  0  0  0  0  0  0  0
    4.4396    8.1819   16.4407 C   0  0  0  0  0  0  0  0  0  0  0  0
    4.1749    7.8086   17.7438 C   0  0  0  0  0  0  0  0  0  0  0  0
    2.8781    7.4765   18.0670 C   0  0  0  0  0  0  0  0  0  0  0  0
    1.8626    7.5167   17.1088 C   0  0  0  0  0  0  0  0  0  0  0  0
    5.1919    7.7671   18.7070 O   0  0  0  0  0  0  0  0  0  0  0  0
    4.3724    3.8605   12.6446 N   0  0  0  0  0  0  0  0  0  0  0  0
  1  2  2  0
  2  3  1  0
  3  4  1  0
  4  5  2  0
  4  6  1  0
  6  7  2  0
  7  8  1  0
  8  9  1  0
  9 10  2  0
 10 11  1  0
 11 12  2  0
 12 13  1  0
 13 14  2  0
 11 15  1  0
 15 16  1  0
 16 17  1  0
 17 18  1  0
 18 19  2  0
 19 20  1  0
 20 21  2  0
 21 22  1  0
 22 23  2  0
 21 24  1  0
  9 25  1  0
  5  1  1  0
 14  6  1  0
 13  8  1  0
 23 18  1  0
M  END
$$$$
