
     RDKit          3D

 25 28  0  0  0  0  0  0  0  0999 V2000
    4.0060    0.0677    8.1776 C   0  0  0  0  0  0  0  0  0  0  0  0
    3.0077    0.0946    7.2346 C   0  0  0  0  0  0  0  0  0  0  0  0
    2.1471    1.0358    7.5411 O   0  0  0  0  0  0  0  0  0  0  0  0
    2.5134    1.6594    8.6589 C   0  0  0  0  0  0  0  0  0  0  0  0
    3.6766    1.0818    9.0918 C   0  0  0  0  0  0  0  0  0  0  0  0
    1.7127    2.7480    9.2000 C   0  0  0  0  0  0  0  0  0  0  0  0
    0.6043    3.2917    8.6874 N   0  0  0  0  0  0  0  0  0  0  0  0
    0.1273    4.2545    9.4767 N   0  0  0  0  0  0  0  0  0  0  0  0
   -0.9338    5.0578    9.4046 C   0  0  0  0  0  0  0  0  0  0  0  0
   -1.1764    5.9499   10.3921 N   0  0  0  0  0  0  0  0  0  0  0  0
   -0.3837    6.0753   11.4765 C   0  0  0  0  0  0  0  0  0  0  0  0
    0.6942    5.2428   11.5255 N   0  0  0  0  0  0  0  0  0  0  0  0
    0.9361    4.3484   10.5338 C   0  0  0  0  0  0  0  0  0  0  0  0
    1.9102    3.4214   10.3596 N   0  0  0  0  0  0  0  0  0  0  0  0
   -0.6093    6.9733   12.5423 N   0  0  0  0  0  0  0  0  0  0  0  0
    0.2903    7.3562   13.5810 C   0  0  0  0  0  0  0  0  0  0  0  0
    1.1835    8.4568   13.1122 C   0  0  0  0  0  0  0  0  0  0  0  0
    2.2073    8.8036   14.1280 C   0  0  0  0  0  0  0  0  0  0  0  0
    2.1698    8.2254   15.3807 C   0  0  0  0  0  0  0  0  0  0  0  0
    3.0928    8.5190   16.3652 C   0  0  0  0  0  0  0  0  0  0  0  0
    4.1090    9.4217   16.1202 C   0  0  0  0  0  0  0  0  0  0  0  0
    4.1620   10.0085   14.8755 C   0  0  0  0  0  0  0  0  0  0  0  0
    3.2197    9.7005   13.8917 C   0  0  0  0  0  0  0  0  0  0  0  0
    5.0557    9.7327   17.1056 O   0  0  0  0  0  0  0  0  0  0  0  0
   -1.8119    4.9294    8.2741 N   0  0  0  0  0  0  0  0  0  0  0  0
  1  2  2  0
  2  3  1  0
  3  4  1  0
  4  5  2  0
  4  6  1  0
  6  7  2  0
  7  8  1  0
  8  9  1  0
  9 10  2  0
 10 11  1  0
 11 12  2  0
 12 13  1  0
 13 14  2  0
 11 15  1  0
 15 16  1  0
 16 17  1  0
 17 18  1  0
 18 19  2  0
 19 20  1  0
 20 21  2  0
 21 22  1  0
 22 23  2  0
 21 24  1  0
  9 25  1  0
  5  1  1  0
 14  6  1  0
 13  8  1  0
 23 18  1  0
M  END
$$$$
