
     RDKit          3D

 25 28  0  0  0  0  0  0  0  0999 V2000
    3.4481   -0.5434    7.5004 C   0  0  0  0  0  0  0  0  0  0  0  0
    2.3841   -0.2743    6.6744 C   0  0  0  0  0  0  0  0  0  0  0  0
    1.7642    0.7996    7.1018 O   0  0  0  0  0  0  0  0  0  0  0  0
    2.3596    1.2819    8.1906 C   0  0  0  0  0  0  0  0  0  0  0  0
    3.4225    0.4674    8.4752 C   0  0  0  0  0  0  0  0  0  0  0  0
    1.8514    2.4766    8.8489 C   0  0  0  0  0  0  0  0  0  0  0  0
    0.7674    3.1937    8.5365 N   0  0  0  0  0  0  0  0  0  0  0  0
    0.5988    4.2105    9.3824 N   0  0  0  0  0  0  0  0  0  0  0  0
   -0.3185    5.1714    9.4900 C   0  0  0  0  0  0  0  0  0  0  0  0
   -0.2345    6.0792   10.4893 N   0  0  0  0  0  0  0  0  0  0  0  0
    0.7521    6.0659   11.4095 C   0  0  0  0  0  0  0  0  0  0  0  0
    1.6769    5.0738   11.2766 N   0  0  0  0  0  0  0  0  0  0  0  0
    1.5911    4.1639   10.2733 C   0  0  0  0  0  0  0  0  0  0  0  0
    2.3597    3.0973    9.9414 N   0  0  0  0  0  0  0  0  0  0  0  0
    0.8677    6.9759   12.4827 N   0  0  0  0  0  0  0  0  0  0  0  0
    1.7256    6.8974   13.6197 C   0  0  0  0  0  0  0  0  0  0  0  0
    3.0395    6.3012   13.2362 C   0  0  0  0  0  0  0  0  0  0  0  0
    3.9657    6.2235   14.3923 C   0  0  0  0  0  0  0  0  0  0  0  0
    5.1266    5.4820   14.3064 C   0  0  0  0  0  0  0  0  0  0  0  0
    6.0186    5.3696   15.3548 C   0  0  0  0  0  0  0  0  0  0  0  0
    5.7716    6.0135   16.5515 C   0  0  0  0  0  0  0  0  0  0  0  0
    4.6178    6.7580   16.6552 C   0  0  0  0  0  0  0  0  0  0  0  0
    3.7261    6.8602   15.5849 C   0  0  0  0  0  0  0  0  0  0  0  0
    6.6644    5.9124   17.6269 O   0  0  0  0  0  0  0  0  0  0  0  0
   -1.3967    5.1956    8.5401 N   0  0  0  0  0  0  0  0  0  0  0  0
  1  2  2  0
  2  3  1  0
  3  4  1  0
  4  5  2  0
  4  6  1  0
  6  7  2  0
  7  8  1  0
  8  9  1  0
  9 10  2  0
 10 11  1  0
 11 12  2  0
 12 13  1  0
 13 14  2  0
 11 15  1  0
 15 16  1  0
 16 17  1  0
 17 18  1  0
 18 19  2  0
 19 20  1  0
 20 21  2  0
 21 22  1  0
 22 23  2  0
 21 24  1  0
  9 25  1  0
  5  1  1  0
 14  6  1  0
 13  8  1  0
 23 18  1  0
M  END
$$$$
