
     RDKit          3D

 25 28  0  0  0  0  0  0  0  0999 V2000
    1.9102    0.5096    6.3459 C   0  0  0  0  0  0  0  0  0  0  0  0
    3.0630    0.2516    7.0467 C   0  0  0  0  0  0  0  0  0  0  0  0
    3.1330    1.0587    8.0782 O   0  0  0  0  0  0  0  0  0  0  0  0
    2.0729    1.8631    8.1163 C   0  0  0  0  0  0  0  0  0  0  0  0
    1.2792    1.5513    7.0453 C   0  0  0  0  0  0  0  0  0  0  0  0
    1.9253    2.8497    9.1764 C   0  0  0  0  0  0  0  0  0  0  0  0
    2.6063    2.9374   10.3234 N   0  0  0  0  0  0  0  0  0  0  0  0
    2.2150    3.9916   11.0397 N   0  0  0  0  0  0  0  0  0  0  0  0
    2.5944    4.4940   12.2145 C   0  0  0  0  0  0  0  0  0  0  0  0
    2.0100    5.6168   12.6916 N   0  0  0  0  0  0  0  0  0  0  0  0
    1.0386    6.2758   12.0266 C   0  0  0  0  0  0  0  0  0  0  0  0
    0.6690    5.7413   10.8287 N   0  0  0  0  0  0  0  0  0  0  0  0
    1.2564    4.6146   10.3516 C   0  0  0  0  0  0  0  0  0  0  0  0
    1.0803    3.9091    9.2072 N   0  0  0  0  0  0  0  0  0  0  0  0
    0.4171    7.4626   12.4722 N   0  0  0  0  0  0  0  0  0  0  0  0
    0.7255    8.2423   13.6262 C   0  0  0  0  0  0  0  0  0  0  0  0
    2.1004    8.8131   13.5127 C   0  0  0  0  0  0  0  0  0  0  0  0
    2.8287    8.7519   14.8035 C   0  0  0  0  0  0  0  0  0  0  0  0
    3.9403    7.9451   14.9387 C   0  0  0  0  0  0  0  0  0  0  0  0
    4.6495    7.8450   16.1196 C   0  0  0  0  0  0  0  0  0  0  0  0
    4.2600    8.5688   17.2295 C   0  0  0  0  0  0  0  0  0  0  0  0
    3.1528    9.3793   17.1128 C   0  0  0  0  0  0  0  0  0  0  0  0
    2.4467    9.4679   15.9109 C   0  0  0  0  0  0  0  0  0  0  0  0
    4.9665    8.4815   18.4366 O   0  0  0  0  0  0  0  0  0  0  0  0
    3.6458    3.8289   12.9340 N   0  0  0  0  0  0  0  0  0  0  0  0
  1  2  2  0
  2  3  1  0
  3  4  1  0
  4  5  2  0
  4  6  1  0
  6  7  2  0
  7  8  1  0
  8  9  1  0
  9 10  2  0
 10 11  1  0
 11 12  2  0
 12 13  1  0
 13 14  2  0
 11 15  1  0
 15 16  1  0
 16 17  1  0
 17 18  1  0
 18 19  2  0
 19 20  1  0
 20 21  2  0
 21 22  1  0
 22 23  2  0
 21 24  1  0
  9 25  1  0
  5  1  1  0
 14  6  1  0
 13  8  1  0
 23 18  1  0
M  END
$$$$
