
     RDKit          3D

 25 28  0  0  0  0  0  0  0  0999 V2000
    1.4905    1.0863    6.4539 C   0  0  0  0  0  0  0  0  0  0  0  0
    2.6521    0.5771    6.9814 C   0  0  0  0  0  0  0  0  0  0  0  0
    2.9491    1.2257    8.0821 O   0  0  0  0  0  0  0  0  0  0  0  0
    2.0371    2.1622    8.3344 C   0  0  0  0  0  0  0  0  0  0  0  0
    1.1027    2.1086    7.3354 C   0  0  0  0  0  0  0  0  0  0  0  0
    2.1512    3.0144    9.5090 C   0  0  0  0  0  0  0  0  0  0  0  0
    3.0460    2.9400   10.4994 N   0  0  0  0  0  0  0  0  0  0  0  0
    2.8581    3.9089   11.3958 N   0  0  0  0  0  0  0  0  0  0  0  0
    3.4849    4.2512   12.5211 C   0  0  0  0  0  0  0  0  0  0  0  0
    3.0651    5.3232   13.2312 N   0  0  0  0  0  0  0  0  0  0  0  0
    2.0194    6.0875   12.8537 C   0  0  0  0  0  0  0  0  0  0  0  0
    1.3960    5.7159   11.7002 N   0  0  0  0  0  0  0  0  0  0  0  0
    1.8185    4.6399   10.9891 C   0  0  0  0  0  0  0  0  0  0  0  0
    1.3860    4.0863    9.8294 N   0  0  0  0  0  0  0  0  0  0  0  0
    1.5604    7.2280   13.5478 N   0  0  0  0  0  0  0  0  0  0  0  0
    0.6706    8.2438   13.0883 C   0  0  0  0  0  0  0  0  0  0  0  0
    1.3866    9.1860   12.1782 C   0  0  0  0  0  0  0  0  0  0  0  0
    0.5160   10.3104   11.7563 C   0  0  0  0  0  0  0  0  0  0  0  0
   -0.6176   10.0703   11.0064 C   0  0  0  0  0  0  0  0  0  0  0  0
   -1.4576   11.0806   10.5807 C   0  0  0  0  0  0  0  0  0  0  0  0
   -1.1837   12.3957   10.9018 C   0  0  0  0  0  0  0  0  0  0  0  0
   -0.0565   12.6539   11.6496 C   0  0  0  0  0  0  0  0  0  0  0  0
    0.7825   11.6199   12.0711 C   0  0  0  0  0  0  0  0  0  0  0  0
   -2.0237   13.4351   10.4799 O   0  0  0  0  0  0  0  0  0  0  0  0
    4.6192    3.4718   12.9351 N   0  0  0  0  0  0  0  0  0  0  0  0
  1  2  2  0
  2  3  1  0
  3  4  1  0
  4  5  2  0
  4  6  1  0
  6  7  2  0
  7  8  1  0
  8  9  1  0
  9 10  2  0
 10 11  1  0
 11 12  2  0
 12 13  1  0
 13 14  2  0
 11 15  1  0
 15 16  1  0
 16 17  1  0
 17 18  1  0
 18 19  2  0
 19 20  1  0
 20 21  2  0
 21 22  1  0
 22 23  2  0
 21 24  1  0
  9 25  1  0
  5  1  1  0
 14  6  1  0
 13  8  1  0
 23 18  1  0
M  END
$$$$
