
     RDKit          3D

 25 28  0  0  0  0  0  0  0  0999 V2000
    1.2404    1.2179    6.4045 C   0  0  0  0  0  0  0  0  0  0  0  0
    2.2556    0.4413    6.9072 C   0  0  0  0  0  0  0  0  0  0  0  0
    2.7157    0.9880    8.0072 O   0  0  0  0  0  0  0  0  0  0  0  0
    2.0567    2.1115    8.2828 C   0  0  0  0  0  0  0  0  0  0  0  0
    1.1207    2.2929    7.3003 C   0  0  0  0  0  0  0  0  0  0  0  0
    2.3887    2.8987    9.4614 C   0  0  0  0  0  0  0  0  0  0  0  0
    3.1561    2.5490   10.4986 N   0  0  0  0  0  0  0  0  0  0  0  0
    3.2567    3.5415   11.3831 N   0  0  0  0  0  0  0  0  0  0  0  0
    3.9040    3.6764   12.5404 C   0  0  0  0  0  0  0  0  0  0  0  0
    3.8300    4.8400   13.2263 N   0  0  0  0  0  0  0  0  0  0  0  0
    3.1194    5.9016   12.7926 C   0  0  0  0  0  0  0  0  0  0  0  0
    2.4670    5.7374   11.6074 N   0  0  0  0  0  0  0  0  0  0  0  0
    2.5422    4.5692   10.9206 C   0  0  0  0  0  0  0  0  0  0  0  0
    2.0092    4.1699    9.7396 N   0  0  0  0  0  0  0  0  0  0  0  0
    3.0323    7.1424   13.4604 N   0  0  0  0  0  0  0  0  0  0  0  0
    2.2880    8.2993   13.0827 C   0  0  0  0  0  0  0  0  0  0  0  0
    0.8918    8.2090   13.6035 C   0  0  0  0  0  0  0  0  0  0  0  0
   -0.0001    9.2036   12.9589 C   0  0  0  0  0  0  0  0  0  0  0  0
    0.4571    9.9708   11.9066 C   0  0  0  0  0  0  0  0  0  0  0  0
   -0.3285   10.9160   11.2767 C   0  0  0  0  0  0  0  0  0  0  0  0
   -1.6296   11.1272   11.6891 C   0  0  0  0  0  0  0  0  0  0  0  0
   -2.1027   10.3706   12.7380 C   0  0  0  0  0  0  0  0  0  0  0  0
   -1.2941    9.4194   13.3642 C   0  0  0  0  0  0  0  0  0  0  0  0
   -2.4429   12.0811   11.0628 O   0  0  0  0  0  0  0  0  0  0  0  0
    4.6911    2.5717   13.0153 N   0  0  0  0  0  0  0  0  0  0  0  0
  1  2  2  0
  2  3  1  0
  3  4  1  0
  4  5  2  0
  4  6  1  0
  6  7  2  0
  7  8  1  0
  8  9  1  0
  9 10  2  0
 10 11  1  0
 11 12  2  0
 12 13  1  0
 13 14  2  0
 11 15  1  0
 15 16  1  0
 16 17  1  0
 17 18  1  0
 18 19  2  0
 19 20  1  0
 20 21  2  0
 21 22  1  0
 22 23  2  0
 21 24  1  0
  9 25  1  0
  5  1  1  0
 14  6  1  0
 13  8  1  0
 23 18  1  0
M  END
$$$$
