
     RDKit          3D

 25 28  0  0  0  0  0  0  0  0999 V2000
    3.2774   -0.5448    7.6989 C   0  0  0  0  0  0  0  0  0  0  0  0
    2.1306   -0.3401    6.9712 C   0  0  0  0  0  0  0  0  0  0  0  0
    1.5491    0.7624    7.3795 O   0  0  0  0  0  0  0  0  0  0  0  0
    2.2507    1.3264    8.3604 C   0  0  0  0  0  0  0  0  0  0  0  0
    3.3448    0.5368    8.5923 C   0  0  0  0  0  0  0  0  0  0  0  0
    1.8034    2.5669    8.9769 C   0  0  0  0  0  0  0  0  0  0  0  0
    0.6783    3.2483    8.7389 N   0  0  0  0  0  0  0  0  0  0  0  0
    0.5933    4.3292    9.5150 N   0  0  0  0  0  0  0  0  0  0  0  0
   -0.3210    5.2890    9.6535 C   0  0  0  0  0  0  0  0  0  0  0  0
   -0.1354    6.2756   10.5602 N   0  0  0  0  0  0  0  0  0  0  0  0
    0.9525    6.3442   11.3551 C   0  0  0  0  0  0  0  0  0  0  0  0
    1.8718    5.3513   11.1932 N   0  0  0  0  0  0  0  0  0  0  0  0
    1.6840    4.3623   10.2829 C   0  0  0  0  0  0  0  0  0  0  0  0
    2.4261    3.2779    9.9485 N   0  0  0  0  0  0  0  0  0  0  0  0
    1.1782    7.3392   12.3309 N   0  0  0  0  0  0  0  0  0  0  0  0
    2.1994    7.3861   13.3258 C   0  0  0  0  0  0  0  0  0  0  0  0
    1.5937    7.3671   14.6902 C   0  0  0  0  0  0  0  0  0  0  0  0
    2.6295    7.3026   15.7500 C   0  0  0  0  0  0  0  0  0  0  0  0
    3.9640    7.1953   15.4144 C   0  0  0  0  0  0  0  0  0  0  0  0
    4.9673    7.1234   16.3609 C   0  0  0  0  0  0  0  0  0  0  0  0
    4.6590    7.1594   17.7067 C   0  0  0  0  0  0  0  0  0  0  0  0
    3.3323    7.2663   18.0601 C   0  0  0  0  0  0  0  0  0  0  0  0
    2.3303    7.3371   17.0896 C   0  0  0  0  0  0  0  0  0  0  0  0
    5.6623    7.0883   18.6825 O   0  0  0  0  0  0  0  0  0  0  0  0
   -1.5037    5.2281    8.8392 N   0  0  0  0  0  0  0  0  0  0  0  0
  1  2  2  0
  2  3  1  0
  3  4  1  0
  4  5  2  0
  4  6  1  0
  6  7  2  0
  7  8  1  0
  8  9  1  0
  9 10  2  0
 10 11  1  0
 11 12  2  0
 12 13  1  0
 13 14  2  0
 11 15  1  0
 15 16  1  0
 16 17  1  0
 17 18  1  0
 18 19  2  0
 19 20  1  0
 20 21  2  0
 21 22  1  0
 22 23  2  0
 21 24  1  0
  9 25  1  0
  5  1  1  0
 14  6  1  0
 13  8  1  0
 23 18  1  0
M  END
$$$$
