
     RDKit          3D

 25 28  0  0  0  0  0  0  0  0999 V2000
    0.7816    1.3840    6.7394 C   0  0  0  0  0  0  0  0  0  0  0  0
    1.9524    0.7658    7.1051 C   0  0  0  0  0  0  0  0  0  0  0  0
    2.4155    1.3256    8.1971 O   0  0  0  0  0  0  0  0  0  0  0  0
    1.6092    2.3058    8.5991 C   0  0  0  0  0  0  0  0  0  0  0  0
    0.5699    2.3761    7.7108 C   0  0  0  0  0  0  0  0  0  0  0  0
    1.9143    3.0765    9.7957 C   0  0  0  0  0  0  0  0  0  0  0  0
    2.8096    2.8010   10.7493 N   0  0  0  0  0  0  0  0  0  0  0  0
    2.8312    3.7525   11.6830 N   0  0  0  0  0  0  0  0  0  0  0  0
    3.5443    3.9302   12.7949 C   0  0  0  0  0  0  0  0  0  0  0  0
    3.3513    5.0329   13.5544 N   0  0  0  0  0  0  0  0  0  0  0  0
    2.4538    5.9900   13.2407 C   0  0  0  0  0  0  0  0  0  0  0  0
    1.7377    5.7839   12.0997 N   0  0  0  0  0  0  0  0  0  0  0  0
    1.9326    4.6770   11.3389 C   0  0  0  0  0  0  0  0  0  0  0  0
    1.3702    4.2574   10.1787 N   0  0  0  0  0  0  0  0  0  0  0  0
    2.2346    7.1677   13.9880 N   0  0  0  0  0  0  0  0  0  0  0  0
    1.4245    8.2918   13.6489 C   0  0  0  0  0  0  0  0  0  0  0  0
    1.6638    9.4102   14.6085 C   0  0  0  0  0  0  0  0  0  0  0  0
    0.9153   10.6321   14.2253 C   0  0  0  0  0  0  0  0  0  0  0  0
    1.3148   11.3814   13.1372 C   0  0  0  0  0  0  0  0  0  0  0  0
    0.6590   12.5311   12.7425 C   0  0  0  0  0  0  0  0  0  0  0  0
   -0.4461   12.9771   13.4406 C   0  0  0  0  0  0  0  0  0  0  0  0
   -0.8590   12.2418   14.5293 C   0  0  0  0  0  0  0  0  0  0  0  0
   -0.1834   11.0818   14.9151 C   0  0  0  0  0  0  0  0  0  0  0  0
   -1.1255   14.1408   13.0560 O   0  0  0  0  0  0  0  0  0  0  0  0
    4.5273    2.9406   13.1411 N   0  0  0  0  0  0  0  0  0  0  0  0
  1  2  2  0
  2  3  1  0
  3  4  1  0
  4  5  2  0
  4  6  1  0
  6  7  2  0
  7  8  1  0
  8  9  1  0
  9 10  2  0
 10 11  1  0
 11 12  2  0
 12 13  1  0
 13 14  2  0
 11 15  1  0
 15 16  1  0
 16 17  1  0
 17 18  1  0
 18 19  2  0
 19 20  1  0
 20 21  2  0
 21 22  1  0
 22 23  2  0
 21 24  1  0
  9 25  1  0
  5  1  1  0
 14  6  1  0
 13  8  1  0
 23 18  1  0
M  END
$$$$
