
     RDKit          3D

 25 28  0  0  0  0  0  0  0  0999 V2000
    1.9515    0.1219    6.7083 C   0  0  0  0  0  0  0  0  0  0  0  0
    1.0593    1.0334    6.1985 C   0  0  0  0  0  0  0  0  0  0  0  0
    0.9706    2.0564    7.0145 O   0  0  0  0  0  0  0  0  0  0  0  0
    1.7675    1.8860    8.0674 C   0  0  0  0  0  0  0  0  0  0  0  0
    2.4023    0.6827    7.9145 C   0  0  0  0  0  0  0  0  0  0  0  0
    1.8425    2.8944    9.1145 C   0  0  0  0  0  0  0  0  0  0  0  0
    2.6365    2.9106   10.1898 N   0  0  0  0  0  0  0  0  0  0  0  0
    2.4457    4.0122   10.9163 N   0  0  0  0  0  0  0  0  0  0  0  0
    2.9942    4.4770   12.0386 C   0  0  0  0  0  0  0  0  0  0  0  0
    2.5978    5.6676   12.5437 N   0  0  0  0  0  0  0  0  0  0  0  0
    1.6531    6.4329   11.9590 C   0  0  0  0  0  0  0  0  0  0  0  0
    1.1082    5.9348   10.8135 N   0  0  0  0  0  0  0  0  0  0  0  0
    1.5070    4.7400   10.3082 C   0  0  0  0  0  0  0  0  0  0  0  0
    1.1379    4.0490    9.2015 N   0  0  0  0  0  0  0  0  0  0  0  0
    1.2246    7.6912   12.4349 N   0  0  0  0  0  0  0  0  0  0  0  0
    1.8018    8.4893   13.4668 C   0  0  0  0  0  0  0  0  0  0  0  0
    1.1383    8.2043   14.7734 C   0  0  0  0  0  0  0  0  0  0  0  0
    2.1061    8.2274   15.8973 C   0  0  0  0  0  0  0  0  0  0  0  0
    3.4347    8.5216   15.6668 C   0  0  0  0  0  0  0  0  0  0  0  0
    4.3781    8.5485   16.6751 C   0  0  0  0  0  0  0  0  0  0  0  0
    4.0120    8.2769   17.9789 C   0  0  0  0  0  0  0  0  0  0  0  0
    2.6901    7.9812   18.2275 C   0  0  0  0  0  0  0  0  0  0  0  0
    1.7493    7.9576   17.1954 C   0  0  0  0  0  0  0  0  0  0  0  0
    4.9539    8.2996   19.0162 O   0  0  0  0  0  0  0  0  0  0  0  0
    4.0225    3.6965   12.6702 N   0  0  0  0  0  0  0  0  0  0  0  0
  1  2  2  0
  2  3  1  0
  3  4  1  0
  4  5  2  0
  4  6  1  0
  6  7  2  0
  7  8  1  0
  8  9  1  0
  9 10  2  0
 10 11  1  0
 11 12  2  0
 12 13  1  0
 13 14  2  0
 11 15  1  0
 15 16  1  0
 16 17  1  0
 17 18  1  0
 18 19  2  0
 19 20  1  0
 20 21  2  0
 21 22  1  0
 22 23  2  0
 21 24  1  0
  9 25  1  0
  5  1  1  0
 14  6  1  0
 13  8  1  0
 23 18  1  0
M  END
$$$$
