
     RDKit          3D

 25 28  0  0  0  0  0  0  0  0999 V2000
    1.8965    0.2866    6.8364 C   0  0  0  0  0  0  0  0  0  0  0  0
    3.1257    0.2427    7.4478 C   0  0  0  0  0  0  0  0  0  0  0  0
    3.1467    1.0991    8.4410 O   0  0  0  0  0  0  0  0  0  0  0  0
    1.9794    1.7318    8.5386 C   0  0  0  0  0  0  0  0  0  0  0  0
    1.1650    1.2510    7.5488 C   0  0  0  0  0  0  0  0  0  0  0  0
    1.7601    2.7333    9.5720 C   0  0  0  0  0  0  0  0  0  0  0  0
    2.5646    3.0614   10.5879 N   0  0  0  0  0  0  0  0  0  0  0  0
    2.0436    4.0465   11.3198 N   0  0  0  0  0  0  0  0  0  0  0  0
    2.4634    4.7089   12.3975 C   0  0  0  0  0  0  0  0  0  0  0  0
    1.7046    5.6980   12.9228 N   0  0  0  0  0  0  0  0  0  0  0  0
    0.5145    6.0628   12.4025 C   0  0  0  0  0  0  0  0  0  0  0  0
    0.1085    5.3697   11.3016 N   0  0  0  0  0  0  0  0  0  0  0  0
    0.8709    4.3775   10.7759 C   0  0  0  0  0  0  0  0  0  0  0  0
    0.6996    3.5674    9.7023 N   0  0  0  0  0  0  0  0  0  0  0  0
   -0.2999    7.1029   12.9004 N   0  0  0  0  0  0  0  0  0  0  0  0
    0.0783    8.2044   13.7243 C   0  0  0  0  0  0  0  0  0  0  0  0
    1.2053    8.9564   13.0973 C   0  0  0  0  0  0  0  0  0  0  0  0
    1.5913   10.1402   13.9035 C   0  0  0  0  0  0  0  0  0  0  0  0
    0.9497   10.4110   15.0951 C   0  0  0  0  0  0  0  0  0  0  0  0
    1.2641   11.5033   15.8796 C   0  0  0  0  0  0  0  0  0  0  0  0
    2.2567   12.3800   15.4873 C   0  0  0  0  0  0  0  0  0  0  0  0
    2.9077   12.1254   14.3008 C   0  0  0  0  0  0  0  0  0  0  0  0
    2.5763   11.0162   13.5193 C   0  0  0  0  0  0  0  0  0  0  0  0
    2.5909   13.4937   16.2694 O   0  0  0  0  0  0  0  0  0  0  0  0
    3.7398    4.3609   12.9587 N   0  0  0  0  0  0  0  0  0  0  0  0
  1  2  2  0
  2  3  1  0
  3  4  1  0
  4  5  2  0
  4  6  1  0
  6  7  2  0
  7  8  1  0
  8  9  1  0
  9 10  2  0
 10 11  1  0
 11 12  2  0
 12 13  1  0
 13 14  2  0
 11 15  1  0
 15 16  1  0
 16 17  1  0
 17 18  1  0
 18 19  2  0
 19 20  1  0
 20 21  2  0
 21 22  1  0
 22 23  2  0
 21 24  1  0
  9 25  1  0
  5  1  1  0
 14  6  1  0
 13  8  1  0
 23 18  1  0
M  END
$$$$
