
     RDKit          3D

 25 28  0  0  0  0  0  0  0  0999 V2000
    2.2819    0.0365    6.4855 C   0  0  0  0  0  0  0  0  0  0  0  0
    1.2982    0.8809    6.0316 C   0  0  0  0  0  0  0  0  0  0  0  0
    1.1648    1.8810    6.8695 O   0  0  0  0  0  0  0  0  0  0  0  0
    2.0187    1.7594    7.8837 C   0  0  0  0  0  0  0  0  0  0  0  0
    2.7398    0.6135    7.6813 C   0  0  0  0  0  0  0  0  0  0  0  0
    2.0596    2.7547    8.9452 C   0  0  0  0  0  0  0  0  0  0  0  0
    2.8886    2.8114    9.9923 N   0  0  0  0  0  0  0  0  0  0  0  0
    2.6465    3.8854   10.7443 N   0  0  0  0  0  0  0  0  0  0  0  0
    3.2007    4.3712   11.8548 C   0  0  0  0  0  0  0  0  0  0  0  0
    2.7393    5.5227   12.3943 N   0  0  0  0  0  0  0  0  0  0  0  0
    1.7224    6.2274   11.8563 C   0  0  0  0  0  0  0  0  0  0  0  0
    1.1734    5.7090   10.7219 N   0  0  0  0  0  0  0  0  0  0  0  0
    1.6375    4.5534   10.1820 C   0  0  0  0  0  0  0  0  0  0  0  0
    1.2787    3.8547    9.0768 N   0  0  0  0  0  0  0  0  0  0  0  0
    1.2233    7.4446   12.3688 N   0  0  0  0  0  0  0  0  0  0  0  0
    1.7246    8.2166   13.4586 C   0  0  0  0  0  0  0  0  0  0  0  0
    1.3547    7.5797   14.7571 C   0  0  0  0  0  0  0  0  0  0  0  0
    2.3060    7.9405   15.8365 C   0  0  0  0  0  0  0  0  0  0  0  0
    3.6670    7.8745   15.6166 C   0  0  0  0  0  0  0  0  0  0  0  0
    4.5954    8.1912   16.5888 C   0  0  0  0  0  0  0  0  0  0  0  0
    4.1807    8.5958   17.8425 C   0  0  0  0  0  0  0  0  0  0  0  0
    2.8261    8.6674   18.0798 C   0  0  0  0  0  0  0  0  0  0  0  0
    1.9009    8.3427   17.0852 C   0  0  0  0  0  0  0  0  0  0  0  0
    5.1068    8.9219   18.8423 O   0  0  0  0  0  0  0  0  0  0  0  0
    4.3036    3.6567   12.4365 N   0  0  0  0  0  0  0  0  0  0  0  0
  1  2  2  0
  2  3  1  0
  3  4  1  0
  4  5  2  0
  4  6  1  0
  6  7  2  0
  7  8  1  0
  8  9  1  0
  9 10  2  0
 10 11  1  0
 11 12  2  0
 12 13  1  0
 13 14  2  0
 11 15  1  0
 15 16  1  0
 16 17  1  0
 17 18  1  0
 18 19  2  0
 19 20  1  0
 20 21  2  0
 21 22  1  0
 22 23  2  0
 21 24  1  0
  9 25  1  0
  5  1  1  0
 14  6  1  0
 13  8  1  0
 23 18  1  0
M  END
$$$$
