
     RDKit          3D

 37 41  0  0  0  0  0  0  0  0999 V2000
    3.4771   43.8156   51.1031 C   0  0  0  0  0  0  0  0  0  0  0  0
    3.5936   42.4565   50.6651 N   0  0  0  0  0  0  0  0  0  0  0  0
    3.9544   41.5232   51.6855 C   0  0  0  0  0  0  0  0  0  0  0  0
    5.4441   41.3776   51.8250 C   0  0  0  0  0  0  0  0  0  0  0  0
    6.1887   42.3848   50.9659 C   0  0  0  0  0  0  0  0  0  0  0  0
    5.7743   42.1854   49.5483 C   0  0  0  0  0  0  0  0  0  0  0  0
    4.2761   42.2800   49.4235 C   0  0  0  0  0  0  0  0  0  0  0  0
    6.4363   43.1526   48.5963 C   0  0  0  0  0  0  0  0  0  0  0  0
    7.7484   42.7328   48.1972 N   0  0  0  0  0  0  0  0  0  0  0  0
    7.9189   41.5484   47.3916 C   0  0  0  0  0  0  0  0  0  0  0  0
    8.8986   43.4647   48.5818 C   0  0  0  0  0  0  0  0  0  0  0  0
   10.0278   43.1756   48.1081 O   0  0  0  0  0  0  0  0  0  0  0  0
    8.7781   44.5529   49.5257 C   0  0  0  0  0  0  0  0  0  0  0  0
    9.9569   45.0070   50.1781 N   0  0  0  0  0  0  0  0  0  0  0  0
   11.0169   45.6674   49.6166 C   0  0  0  0  0  0  0  0  0  0  0  0
   11.2676   46.0545   48.3084 C   0  0  0  0  0  0  0  0  0  0  0  0
   12.4108   46.7166   47.9458 C   0  0  0  0  0  0  0  0  0  0  0  0
   13.3485   47.0103   48.9148 C   0  0  0  0  0  0  0  0  0  0  0  0
   13.0924   46.6225   50.2124 C   0  0  0  0  0  0  0  0  0  0  0  0
   11.9462   45.9565   50.5880 C   0  0  0  0  0  0  0  0  0  0  0  0
   11.4304   45.4565   51.7607 C   0  0  0  0  0  0  0  0  0  0  0  0
   12.0946   45.5298   53.0815 C   0  0  0  0  0  0  0  0  0  0  0  0
   11.5239   46.6478   53.9310 C   0  0  0  0  0  0  0  0  0  0  0  0
   12.1754   46.6597   55.2681 C   0  0  0  0  0  0  0  0  0  0  0  0
   12.4100   45.3249   55.8755 C   0  0  0  0  0  0  0  0  0  0  0  0
   11.7139   44.1906   55.1660 C   0  0  0  0  0  0  0  0  0  0  0  0
   12.1327   44.1969   53.7268 C   0  0  0  0  0  0  0  0  0  0  0  0
   10.1999   44.8728   51.4945 C   0  0  0  0  0  0  0  0  0  0  0  0
    9.3372   44.2921   52.5290 C   0  0  0  0  0  0  0  0  0  0  0  0
    9.3912   42.9634   52.8391 C   0  0  0  0  0  0  0  0  0  0  0  0
    8.5326   42.4239   53.8047 C   0  0  0  0  0  0  0  0  0  0  0  0
    7.6258   43.2355   54.4492 C   0  0  0  0  0  0  0  0  0  0  0  0
    7.5552   44.5645   54.1548 C   0  0  0  0  0  0  0  0  0  0  0  0
    8.4034   45.0722   53.2070 C   0  0  0  0  0  0  0  0  0  0  0  0
   12.6353   47.1060   46.5589 C   0  0  0  0  0  0  0  0  0  0  0  0
   11.7358   46.7202   45.5801 O   0  0  0  0  0  0  0  0  0  0  0  0
   13.6583   47.7972   46.2668 O   0  0  0  0  0  0  0  0  0  0  0  0
  1  2  1  0
  2  3  1  0
  3  4  1  0
  4  5  1  0
  5  6  1  0
  6  7  1  0
  6  8  1  0
  8  9  1  0
  9 10  1  0
  9 11  1  0
 11 12  2  0
 11 13  1  0
 13 14  1  0
 14 15  1  0
 15 16  2  0
 16 17  1  0
 17 18  2  0
 18 19  1  0
 19 20  2  0
 20 21  1  0
 21 22  1  0
 22 23  1  0
 23 24  1  0
 24 25  1  0
 25 26  1  0
 26 27  1  0
 21 28  2  0
 28 29  1  0
 29 30  2  0
 30 31  1  0
 31 32  2  0
 32 33  1  0
 33 34  2  0
 17 35  1  0
 35 36  1  0
 35 37  2  0
  7  2  1  0
 28 14  1  0
 20 15  1  0
 27 22  1  0
 34 29  1  0
M  END
$$$$
