
     RDKit          3D

 37 41  0  0  0  0  0  0  0  0999 V2000
  -29.5117   65.8522   58.4425 C   0  0  0  0  0  0  0  0  0  0  0  0
  -30.0983   66.2479   57.1967 N   0  0  0  0  0  0  0  0  0  0  0  0
  -31.2531   67.0820   57.3123 C   0  0  0  0  0  0  0  0  0  0  0  0
  -32.5247   66.2860   57.4092 C   0  0  0  0  0  0  0  0  0  0  0  0
  -32.2466   64.7980   57.5326 C   0  0  0  0  0  0  0  0  0  0  0  0
  -31.4521   64.3720   56.3458 C   0  0  0  0  0  0  0  0  0  0  0  0
  -30.2053   65.2084   56.2239 C   0  0  0  0  0  0  0  0  0  0  0  0
  -31.0928   62.9055   56.3694 C   0  0  0  0  0  0  0  0  0  0  0  0
  -32.0703   62.0811   55.7198 N   0  0  0  0  0  0  0  0  0  0  0  0
  -32.9199   61.2118   56.4967 C   0  0  0  0  0  0  0  0  0  0  0  0
  -32.2233   62.1002   54.3117 C   0  0  0  0  0  0  0  0  0  0  0  0
  -31.5589   62.9040   53.6077 O   0  0  0  0  0  0  0  0  0  0  0  0
  -33.1490   61.1906   53.6749 C   0  0  0  0  0  0  0  0  0  0  0  0
  -33.3072   61.2749   52.2646 N   0  0  0  0  0  0  0  0  0  0  0  0
  -32.4472   60.8179   51.3019 C   0  0  0  0  0  0  0  0  0  0  0  0
  -31.2142   60.1895   51.3970 C   0  0  0  0  0  0  0  0  0  0  0  0
  -30.4992   59.8064   50.2930 C   0  0  0  0  0  0  0  0  0  0  0  0
  -31.0220   60.0535   49.0399 C   0  0  0  0  0  0  0  0  0  0  0  0
  -32.2475   60.6783   48.9533 C   0  0  0  0  0  0  0  0  0  0  0  0
  -32.9750   61.0674   50.0569 C   0  0  0  0  0  0  0  0  0  0  0  0
  -34.1810   61.6898   50.2790 C   0  0  0  0  0  0  0  0  0  0  0  0
  -35.1056   62.1550   49.2209 C   0  0  0  0  0  0  0  0  0  0  0  0
  -34.3939   62.3229   47.8932 C   0  0  0  0  0  0  0  0  0  0  0  0
  -35.3606   62.7394   46.8423 C   0  0  0  0  0  0  0  0  0  0  0  0
  -36.6811   62.0611   46.8849 C   0  0  0  0  0  0  0  0  0  0  0  0
  -36.7382   60.8748   47.8142 C   0  0  0  0  0  0  0  0  0  0  0  0
  -36.3288   61.3203   49.1855 C   0  0  0  0  0  0  0  0  0  0  0  0
  -34.3756   61.8115   51.6476 C   0  0  0  0  0  0  0  0  0  0  0  0
  -35.5904   62.3742   52.2470 C   0  0  0  0  0  0  0  0  0  0  0  0
  -36.3620   61.6487   53.1088 C   0  0  0  0  0  0  0  0  0  0  0  0
  -37.5372   62.1935   53.6406 C   0  0  0  0  0  0  0  0  0  0  0  0
  -37.9213   63.4700   53.2951 C   0  0  0  0  0  0  0  0  0  0  0  0
  -37.1656   64.2115   52.4365 C   0  0  0  0  0  0  0  0  0  0  0  0
  -36.0203   63.6600   51.9272 C   0  0  0  0  0  0  0  0  0  0  0  0
  -29.2066   59.1479   50.4371 C   0  0  0  0  0  0  0  0  0  0  0  0
  -28.6537   58.9818   51.6952 O   0  0  0  0  0  0  0  0  0  0  0  0
  -28.6027   58.7338   49.4010 O   0  0  0  0  0  0  0  0  0  0  0  0
  1  2  1  0
  2  3  1  0
  3  4  1  0
  4  5  1  0
  5  6  1  0
  6  7  1  0
  6  8  1  0
  8  9  1  0
  9 10  1  0
  9 11  1  0
 11 12  2  0
 11 13  1  0
 13 14  1  0
 14 15  1  0
 15 16  2  0
 16 17  1  0
 17 18  2  0
 18 19  1  0
 19 20  2  0
 20 21  1  0
 21 22  1  0
 22 23  1  0
 23 24  1  0
 24 25  1  0
 25 26  1  0
 26 27  1  0
 21 28  2  0
 28 29  1  0
 29 30  2  0
 30 31  1  0
 31 32  2  0
 32 33  1  0
 33 34  2  0
 17 35  1  0
 35 36  1  0
 35 37  2  0
  7  2  1  0
 28 14  1  0
 20 15  1  0
 27 22  1  0
 34 29  1  0
M  END
$$$$
