
     RDKit          3D

 37 41  0  0  0  0  0  0  0  0999 V2000
  -30.2729   65.6674   55.5143 C   0  0  0  0  0  0  0  0  0  0  0  0
  -31.4366   66.2843   54.9506 N   0  0  0  0  0  0  0  0  0  0  0  0
  -31.6553   67.6384   55.3521 C   0  0  0  0  0  0  0  0  0  0  0  0
  -32.4779   67.7359   56.6066 C   0  0  0  0  0  0  0  0  0  0  0  0
  -32.7227   66.3701   57.2240 C   0  0  0  0  0  0  0  0  0  0  0  0
  -33.4100   65.5177   56.2131 C   0  0  0  0  0  0  0  0  0  0  0  0
  -32.6068   65.4664   54.9397 C   0  0  0  0  0  0  0  0  0  0  0  0
  -33.6868   64.1183   56.7084 C   0  0  0  0  0  0  0  0  0  0  0  0
  -34.2379   63.2664   55.6947 N   0  0  0  0  0  0  0  0  0  0  0  0
  -35.6447   62.9476   55.6990 C   0  0  0  0  0  0  0  0  0  0  0  0
  -33.4206   62.7219   54.6738 C   0  0  0  0  0  0  0  0  0  0  0  0
  -32.2091   63.0491   54.5827 O   0  0  0  0  0  0  0  0  0  0  0  0
  -33.9793   61.7829   53.7274 C   0  0  0  0  0  0  0  0  0  0  0  0
  -33.1311   61.2799   52.7032 N   0  0  0  0  0  0  0  0  0  0  0  0
  -32.0373   60.4695   52.8518 C   0  0  0  0  0  0  0  0  0  0  0  0
  -31.4363   59.9384   53.9835 C   0  0  0  0  0  0  0  0  0  0  0  0
  -30.3271   59.1371   53.9173 C   0  0  0  0  0  0  0  0  0  0  0  0
  -29.7861   58.8462   52.6815 C   0  0  0  0  0  0  0  0  0  0  0  0
  -30.3887   59.3776   51.5616 C   0  0  0  0  0  0  0  0  0  0  0  0
  -31.5044   60.1843   51.6167 C   0  0  0  0  0  0  0  0  0  0  0  0
  -32.2982   60.8403   50.7054 C   0  0  0  0  0  0  0  0  0  0  0  0
  -32.0985   60.8276   49.2388 C   0  0  0  0  0  0  0  0  0  0  0  0
  -30.6269   60.8495   48.8766 C   0  0  0  0  0  0  0  0  0  0  0  0
  -30.4611   60.7827   47.4000 C   0  0  0  0  0  0  0  0  0  0  0  0
  -31.3746   59.8462   46.6970 C   0  0  0  0  0  0  0  0  0  0  0  0
  -32.1370   58.9210   47.6120 C   0  0  0  0  0  0  0  0  0  0  0  0
  -32.8925   59.7478   48.6081 C   0  0  0  0  0  0  0  0  0  0  0  0
  -33.3010   61.5132   51.3891 C   0  0  0  0  0  0  0  0  0  0  0  0
  -34.3680   62.2699   50.7253 C   0  0  0  0  0  0  0  0  0  0  0  0
  -34.1153   63.4533   50.0928 C   0  0  0  0  0  0  0  0  0  0  0  0
  -35.1558   64.1767   49.4972 C   0  0  0  0  0  0  0  0  0  0  0  0
  -36.4448   63.6948   49.5468 C   0  0  0  0  0  0  0  0  0  0  0  0
  -36.7191   62.5156   50.1731 C   0  0  0  0  0  0  0  0  0  0  0  0
  -35.6874   61.8239   50.7498 C   0  0  0  0  0  0  0  0  0  0  0  0
  -29.7263   58.5988   55.1317 C   0  0  0  0  0  0  0  0  0  0  0  0
  -30.2656   58.9151   56.3666 O   0  0  0  0  0  0  0  0  0  0  0  0
  -28.7112   57.8434   55.0389 O   0  0  0  0  0  0  0  0  0  0  0  0
  1  2  1  0
  2  3  1  0
  3  4  1  0
  4  5  1  0
  5  6  1  0
  6  7  1  0
  6  8  1  0
  8  9  1  0
  9 10  1  0
  9 11  1  0
 11 12  2  0
 11 13  1  0
 13 14  1  0
 14 15  1  0
 15 16  2  0
 16 17  1  0
 17 18  2  0
 18 19  1  0
 19 20  2  0
 20 21  1  0
 21 22  1  0
 22 23  1  0
 23 24  1  0
 24 25  1  0
 25 26  1  0
 26 27  1  0
 21 28  2  0
 28 29  1  0
 29 30  2  0
 30 31  1  0
 31 32  2  0
 32 33  1  0
 33 34  2  0
 17 35  1  0
 35 36  1  0
 35 37  2  0
  7  2  1  0
 28 14  1  0
 20 15  1  0
 27 22  1  0
 34 29  1  0
M  END
$$$$
