
     RDKit          3D

 37 41  0  0  0  0  0  0  0  0999 V2000
  -32.3623   77.1522   26.2757 C   0  0  0  0  0  0  0  0  0  0  0  0
  -32.8523   77.7633   27.4753 N   0  0  0  0  0  0  0  0  0  0  0  0
  -32.0932   77.4757   28.6516 C   0  0  0  0  0  0  0  0  0  0  0  0
  -32.5701   76.2322   29.3488 C   0  0  0  0  0  0  0  0  0  0  0  0
  -33.6244   75.5024   28.5348 C   0  0  0  0  0  0  0  0  0  0  0  0
  -34.7605   76.4373   28.2979 C   0  0  0  0  0  0  0  0  0  0  0  0
  -34.2685   77.7035   27.6469 C   0  0  0  0  0  0  0  0  0  0  0  0
  -35.8678   75.8263   27.4728 C   0  0  0  0  0  0  0  0  0  0  0  0
  -36.8927   75.2226   28.2743 N   0  0  0  0  0  0  0  0  0  0  0  0
  -37.9023   76.0408   28.9004 C   0  0  0  0  0  0  0  0  0  0  0  0
  -36.9373   73.8202   28.4690 C   0  0  0  0  0  0  0  0  0  0  0  0
  -37.7422   73.3149   29.2936 O   0  0  0  0  0  0  0  0  0  0  0  0
  -36.0526   72.9596   27.7164 C   0  0  0  0  0  0  0  0  0  0  0  0
  -35.9971   71.5835   28.0692 N   0  0  0  0  0  0  0  0  0  0  0  0
  -36.8811   70.5982   27.7186 C   0  0  0  0  0  0  0  0  0  0  0  0
  -38.0510   70.6378   26.9745 C   0  0  0  0  0  0  0  0  0  0  0  0
  -38.8061   69.5202   26.7350 C   0  0  0  0  0  0  0  0  0  0  0  0
  -38.3904   68.3099   27.2516 C   0  0  0  0  0  0  0  0  0  0  0  0
  -37.2269   68.2783   27.9900 C   0  0  0  0  0  0  0  0  0  0  0  0
  -36.4599   69.3960   28.2367 C   0  0  0  0  0  0  0  0  0  0  0  0
  -35.2949   69.6678   28.9149 C   0  0  0  0  0  0  0  0  0  0  0  0
  -34.4836   68.6688   29.6462 C   0  0  0  0  0  0  0  0  0  0  0  0
  -35.1926   67.3321   29.7347 C   0  0  0  0  0  0  0  0  0  0  0  0
  -34.3294   66.3386   30.4277 C   0  0  0  0  0  0  0  0  0  0  0  0
  -32.8897   66.3815   30.0655 C   0  0  0  0  0  0  0  0  0  0  0  0
  -32.5785   67.2393   28.8648 C   0  0  0  0  0  0  0  0  0  0  0  0
  -33.1016   68.6215   29.1150 C   0  0  0  0  0  0  0  0  0  0  0  0
  -35.0187   71.0232   28.8033 C   0  0  0  0  0  0  0  0  0  0  0  0
  -33.8148   71.6535   29.3554 C   0  0  0  0  0  0  0  0  0  0  0  0
  -33.8158   72.2303   30.5931 C   0  0  0  0  0  0  0  0  0  0  0  0
  -32.6651   72.8583   31.0850 C   0  0  0  0  0  0  0  0  0  0  0  0
  -31.5215   72.8966   30.3188 C   0  0  0  0  0  0  0  0  0  0  0  0
  -31.4988   72.3270   29.0806 C   0  0  0  0  0  0  0  0  0  0  0  0
  -32.6349   71.7184   28.6179 C   0  0  0  0  0  0  0  0  0  0  0  0
  -40.0298   69.6055   25.9471 C   0  0  0  0  0  0  0  0  0  0  0  0
  -40.6956   68.4488   25.5799 O   0  0  0  0  0  0  0  0  0  0  0  0
  -40.4699   70.7457   25.6069 O   0  0  0  0  0  0  0  0  0  0  0  0
  1  2  1  0
  2  3  1  0
  3  4  1  0
  4  5  1  0
  5  6  1  0
  6  7  1  0
  6  8  1  0
  8  9  1  0
  9 10  1  0
  9 11  1  0
 11 12  2  0
 11 13  1  0
 13 14  1  0
 14 15  1  0
 15 16  2  0
 16 17  1  0
 17 18  2  0
 18 19  1  0
 19 20  2  0
 20 21  1  0
 21 22  1  0
 22 23  1  0
 23 24  1  0
 24 25  1  0
 25 26  1  0
 26 27  1  0
 21 28  2  0
 28 29  1  0
 29 30  2  0
 30 31  1  0
 31 32  2  0
 32 33  1  0
 33 34  2  0
 17 35  1  0
 35 36  1  0
 35 37  2  0
  7  2  1  0
 28 14  1  0
 20 15  1  0
 27 22  1  0
 34 29  1  0
M  END
$$$$
