
     RDKit          3D

 37 41  0  0  0  0  0  0  0  0999 V2000
  -32.1615   78.0738   25.4782 C   0  0  0  0  0  0  0  0  0  0  0  0
  -31.6990   76.7904   25.9157 N   0  0  0  0  0  0  0  0  0  0  0  0
  -30.5307   76.3106   25.2468 C   0  0  0  0  0  0  0  0  0  0  0  0
  -30.8637   75.5266   24.0081 C   0  0  0  0  0  0  0  0  0  0  0  0
  -32.3469   75.5884   23.6874 C   0  0  0  0  0  0  0  0  0  0  0  0
  -33.1000   75.0591   24.8595 C   0  0  0  0  0  0  0  0  0  0  0  0
  -32.7229   75.8140   26.1073 C   0  0  0  0  0  0  0  0  0  0  0  0
  -34.5971   75.0926   24.6655 C   0  0  0  0  0  0  0  0  0  0  0  0
  -35.3203   74.6752   25.8317 N   0  0  0  0  0  0  0  0  0  0  0  0
  -36.0417   75.6410   26.6239 C   0  0  0  0  0  0  0  0  0  0  0  0
  -35.3428   73.3160   26.2303 C   0  0  0  0  0  0  0  0  0  0  0  0
  -34.8028   72.4319   25.5164 O   0  0  0  0  0  0  0  0  0  0  0  0
  -35.9904   72.9381   27.4662 C   0  0  0  0  0  0  0  0  0  0  0  0
  -35.8267   71.6030   27.9268 N   0  0  0  0  0  0  0  0  0  0  0  0
  -36.6115   70.5197   27.6342 C   0  0  0  0  0  0  0  0  0  0  0  0
  -37.7579   70.3992   26.8628 C   0  0  0  0  0  0  0  0  0  0  0  0
  -38.4063   69.2042   26.6943 C   0  0  0  0  0  0  0  0  0  0  0  0
  -37.9030   68.0781   27.3134 C   0  0  0  0  0  0  0  0  0  0  0  0
  -36.7636   68.2057   28.0783 C   0  0  0  0  0  0  0  0  0  0  0  0
  -36.1035   69.4023   28.2542 C   0  0  0  0  0  0  0  0  0  0  0  0
  -34.9869   69.8267   28.9355 C   0  0  0  0  0  0  0  0  0  0  0  0
  -34.1143   68.9617   29.7609 C   0  0  0  0  0  0  0  0  0  0  0  0
  -34.9209   67.9608   30.5640 C   0  0  0  0  0  0  0  0  0  0  0  0
  -34.0126   67.0747   31.3399 C   0  0  0  0  0  0  0  0  0  0  0  0
  -32.7929   66.6248   30.6216 C   0  0  0  0  0  0  0  0  0  0  0  0
  -32.8021   66.9176   29.1422 C   0  0  0  0  0  0  0  0  0  0  0  0
  -33.0184   68.3877   28.9461 C   0  0  0  0  0  0  0  0  0  0  0  0
  -34.8256   71.1888   28.7245 C   0  0  0  0  0  0  0  0  0  0  0  0
  -33.6975   71.9631   29.2529 C   0  0  0  0  0  0  0  0  0  0  0  0
  -33.8077   72.6880   30.4049 C   0  0  0  0  0  0  0  0  0  0  0  0
  -32.7288   73.4489   30.8712 C   0  0  0  0  0  0  0  0  0  0  0  0
  -31.5459   73.4692   30.1666 C   0  0  0  0  0  0  0  0  0  0  0  0
  -31.4145   72.7530   29.0143 C   0  0  0  0  0  0  0  0  0  0  0  0
  -32.4817   72.0157   28.5751 C   0  0  0  0  0  0  0  0  0  0  0  0
  -39.6089   69.1209   25.8745 C   0  0  0  0  0  0  0  0  0  0  0  0
  -40.1480   70.2700   25.3223 O   0  0  0  0  0  0  0  0  0  0  0  0
  -40.1478   67.9894   25.6774 O   0  0  0  0  0  0  0  0  0  0  0  0
  1  2  1  0
  2  3  1  0
  3  4  1  0
  4  5  1  0
  5  6  1  0
  6  7  1  0
  6  8  1  0
  8  9  1  0
  9 10  1  0
  9 11  1  0
 11 12  2  0
 11 13  1  0
 13 14  1  0
 14 15  1  0
 15 16  2  0
 16 17  1  0
 17 18  2  0
 18 19  1  0
 19 20  2  0
 20 21  1  0
 21 22  1  0
 22 23  1  0
 23 24  1  0
 24 25  1  0
 25 26  1  0
 26 27  1  0
 21 28  2  0
 28 29  1  0
 29 30  2  0
 30 31  1  0
 31 32  2  0
 32 33  1  0
 33 34  2  0
 17 35  1  0
 35 36  1  0
 35 37  2  0
  7  2  1  0
 28 14  1  0
 20 15  1  0
 27 22  1  0
 34 29  1  0
M  END
$$$$
