
     RDKit          3D

 37 41  0  0  0  0  0  0  0  0999 V2000
    9.7080   30.0971   73.2476 C   0  0  0  0  0  0  0  0  0  0  0  0
   10.5198   29.8779   74.4075 N   0  0  0  0  0  0  0  0  0  0  0  0
   10.9816   28.5359   74.5750 C   0  0  0  0  0  0  0  0  0  0  0  0
   10.0150   27.6933   75.3597 C   0  0  0  0  0  0  0  0  0  0  0  0
    8.7160   28.4332   75.6278 C   0  0  0  0  0  0  0  0  0  0  0  0
    9.0371   29.6865   76.3674 C   0  0  0  0  0  0  0  0  0  0  0  0
   10.0460   30.5016   75.6012 C   0  0  0  0  0  0  0  0  0  0  0  0
    7.8176   30.5234   76.6717 C   0  0  0  0  0  0  0  0  0  0  0  0
    8.1107   31.6551   77.5026 N   0  0  0  0  0  0  0  0  0  0  0  0
    8.5776   31.4633   78.8539 C   0  0  0  0  0  0  0  0  0  0  0  0
    7.9496   32.9773   77.0203 C   0  0  0  0  0  0  0  0  0  0  0  0
    8.2504   33.9621   77.7433 O   0  0  0  0  0  0  0  0  0  0  0  0
    7.4360   33.2007   75.6877 C   0  0  0  0  0  0  0  0  0  0  0  0
    7.5234   34.5130   75.1478 N   0  0  0  0  0  0  0  0  0  0  0  0
    6.7264   35.5877   75.4393 C   0  0  0  0  0  0  0  0  0  0  0  0
    5.6337   35.7168   76.2840 C   0  0  0  0  0  0  0  0  0  0  0  0
    4.9603   36.9000   76.4364 C   0  0  0  0  0  0  0  0  0  0  0  0
    5.3819   38.0049   75.7251 C   0  0  0  0  0  0  0  0  0  0  0  0
    6.4683   37.8689   74.8878 C   0  0  0  0  0  0  0  0  0  0  0  0
    7.1528   36.6840   74.7272 C   0  0  0  0  0  0  0  0  0  0  0  0
    8.2319   36.2555   73.9903 C   0  0  0  0  0  0  0  0  0  0  0  0
    9.0157   37.0992   73.0603 C   0  0  0  0  0  0  0  0  0  0  0  0
    8.1724   37.5750   71.8942 C   0  0  0  0  0  0  0  0  0  0  0  0
    8.9744   38.4615   71.0092 C   0  0  0  0  0  0  0  0  0  0  0  0
    9.8672   39.4214   71.7073 C   0  0  0  0  0  0  0  0  0  0  0  0
    9.6223   39.5279   73.1916 C   0  0  0  0  0  0  0  0  0  0  0  0
    9.7405   38.1613   73.7959 C   0  0  0  0  0  0  0  0  0  0  0  0
    8.4519   34.9120   74.2596 C   0  0  0  0  0  0  0  0  0  0  0  0
    9.5646   34.1429   73.6923 C   0  0  0  0  0  0  0  0  0  0  0  0
    9.4823   33.5800   72.4509 C   0  0  0  0  0  0  0  0  0  0  0  0
   10.5431   32.8193   71.9443 C   0  0  0  0  0  0  0  0  0  0  0  0
   11.6797   32.6351   72.6996 C   0  0  0  0  0  0  0  0  0  0  0  0
   11.7826   33.1882   73.9412 C   0  0  0  0  0  0  0  0  0  0  0  0
   10.7337   33.9282   74.4184 C   0  0  0  0  0  0  0  0  0  0  0  0
    3.8163   36.9930   77.3353 C   0  0  0  0  0  0  0  0  0  0  0  0
    3.3983   35.8756   78.0373 O   0  0  0  0  0  0  0  0  0  0  0  0
    3.2162   38.1035   77.4623 O   0  0  0  0  0  0  0  0  0  0  0  0
  1  2  1  0
  2  3  1  0
  3  4  1  0
  4  5  1  0
  5  6  1  0
  6  7  1  0
  6  8  1  0
  8  9  1  0
  9 10  1  0
  9 11  1  0
 11 12  2  0
 11 13  1  0
 13 14  1  0
 14 15  1  0
 15 16  2  0
 16 17  1  0
 17 18  2  0
 18 19  1  0
 19 20  2  0
 20 21  1  0
 21 22  1  0
 22 23  1  0
 23 24  1  0
 24 25  1  0
 25 26  1  0
 26 27  1  0
 21 28  2  0
 28 29  1  0
 29 30  2  0
 30 31  1  0
 31 32  2  0
 32 33  1  0
 33 34  2  0
 17 35  1  0
 35 36  1  0
 35 37  2  0
  7  2  1  0
 28 14  1  0
 20 15  1  0
 27 22  1  0
 34 29  1  0
M  END
$$$$
