
     RDKit          3D

 37 41  0  0  0  0  0  0  0  0999 V2000
  -38.0206   66.0207   53.1958 C   0  0  0  0  0  0  0  0  0  0  0  0
  -38.9049   65.2787   54.0443 N   0  0  0  0  0  0  0  0  0  0  0  0
  -39.6943   66.0721   54.9330 C   0  0  0  0  0  0  0  0  0  0  0  0
  -39.0001   66.3241   56.2425 C   0  0  0  0  0  0  0  0  0  0  0  0
  -37.5684   65.8178   56.2244 C   0  0  0  0  0  0  0  0  0  0  0  0
  -37.5931   64.3596   55.9179 C   0  0  0  0  0  0  0  0  0  0  0  0
  -38.3356   64.1084   54.6316 C   0  0  0  0  0  0  0  0  0  0  0  0
  -36.2152   63.7455   55.8499 C   0  0  0  0  0  0  0  0  0  0  0  0
  -36.1646   62.5796   55.0161 N   0  0  0  0  0  0  0  0  0  0  0  0
  -37.1276   61.5197   55.1893 C   0  0  0  0  0  0  0  0  0  0  0  0
  -35.1756   62.4421   54.0112 C   0  0  0  0  0  0  0  0  0  0  0  0
  -34.3268   63.3512   53.8215 O   0  0  0  0  0  0  0  0  0  0  0  0
  -35.1383   61.2494   53.1953 C   0  0  0  0  0  0  0  0  0  0  0  0
  -33.9921   61.0293   52.3834 N   0  0  0  0  0  0  0  0  0  0  0  0
  -32.7872   60.5052   52.7692 C   0  0  0  0  0  0  0  0  0  0  0  0
  -32.3279   60.0743   54.0051 C   0  0  0  0  0  0  0  0  0  0  0  0
  -31.0649   59.5750   54.1847 C   0  0  0  0  0  0  0  0  0  0  0  0
  -30.2168   59.4969   53.0988 C   0  0  0  0  0  0  0  0  0  0  0  0
  -30.6802   59.9269   51.8740 C   0  0  0  0  0  0  0  0  0  0  0  0
  -31.9484   60.4305   51.6822 C   0  0  0  0  0  0  0  0  0  0  0  0
  -32.6683   60.9223   50.6187 C   0  0  0  0  0  0  0  0  0  0  0  0
  -32.1632   61.0427   49.2326 C   0  0  0  0  0  0  0  0  0  0  0  0
  -30.8531   61.8032   49.1810 C   0  0  0  0  0  0  0  0  0  0  0  0
  -30.3478   61.8600   47.7832 C   0  0  0  0  0  0  0  0  0  0  0  0
  -30.4996   60.6082   46.9984 C   0  0  0  0  0  0  0  0  0  0  0  0
  -30.8945   59.4065   47.8196 C   0  0  0  0  0  0  0  0  0  0  0  0
  -32.1604   59.7248   48.5563 C   0  0  0  0  0  0  0  0  0  0  0  0
  -33.9305   61.2883   51.0646 C   0  0  0  0  0  0  0  0  0  0  0  0
  -34.9864   61.7963   50.1823 C   0  0  0  0  0  0  0  0  0  0  0  0
  -35.8413   60.9517   49.5340 C   0  0  0  0  0  0  0  0  0  0  0  0
  -36.8185   61.4574   48.6680 C   0  0  0  0  0  0  0  0  0  0  0  0
  -36.9223   62.8156   48.4660 C   0  0  0  0  0  0  0  0  0  0  0  0
  -36.0790   63.6763   49.1032 C   0  0  0  0  0  0  0  0  0  0  0  0
  -35.1299   63.1614   49.9455 C   0  0  0  0  0  0  0  0  0  0  0  0
  -30.6216   59.1324   55.5012 C   0  0  0  0  0  0  0  0  0  0  0  0
  -31.4555   59.2817   56.5958 O   0  0  0  0  0  0  0  0  0  0  0  0
  -29.4706   58.6135   55.6258 O   0  0  0  0  0  0  0  0  0  0  0  0
  1  2  1  0
  2  3  1  0
  3  4  1  0
  4  5  1  0
  5  6  1  0
  6  7  1  0
  6  8  1  0
  8  9  1  0
  9 10  1  0
  9 11  1  0
 11 12  2  0
 11 13  1  0
 13 14  1  0
 14 15  1  0
 15 16  2  0
 16 17  1  0
 17 18  2  0
 18 19  1  0
 19 20  2  0
 20 21  1  0
 21 22  1  0
 22 23  1  0
 23 24  1  0
 24 25  1  0
 25 26  1  0
 26 27  1  0
 21 28  2  0
 28 29  1  0
 29 30  2  0
 30 31  1  0
 31 32  2  0
 32 33  1  0
 33 34  2  0
 17 35  1  0
 35 36  1  0
 35 37  2  0
  7  2  1  0
 28 14  1  0
 20 15  1  0
 27 22  1  0
 34 29  1  0
M  END
$$$$
