
     RDKit          3D

 37 41  0  0  0  0  0  0  0  0999 V2000
  -19.2350   59.1987   55.7996 C   0  0  0  0  0  0  0  0  0  0  0  0
  -20.4434   59.1666   55.0306 N   0  0  0  0  0  0  0  0  0  0  0  0
  -20.7793   60.3961   54.3842 C   0  0  0  0  0  0  0  0  0  0  0  0
  -21.6153   61.2901   55.2571 C   0  0  0  0  0  0  0  0  0  0  0  0
  -21.7468   60.7352   56.6647 C   0  0  0  0  0  0  0  0  0  0  0  0
  -22.3523   59.3764   56.5758 C   0  0  0  0  0  0  0  0  0  0  0  0
  -21.5395   58.5010   55.6582 C   0  0  0  0  0  0  0  0  0  0  0  0
  -22.5120   58.7101   57.9215 C   0  0  0  0  0  0  0  0  0  0  0  0
  -23.2203   57.4652   57.8472 N   0  0  0  0  0  0  0  0  0  0  0  0
  -24.6594   57.4408   57.9442 C   0  0  0  0  0  0  0  0  0  0  0  0
  -22.5295   56.2401   57.6785 C   0  0  0  0  0  0  0  0  0  0  0  0
  -21.2729   56.2028   57.7303 O   0  0  0  0  0  0  0  0  0  0  0  0
  -23.2705   55.0211   57.4449 C   0  0  0  0  0  0  0  0  0  0  0  0
  -22.5522   53.8738   57.0100 N   0  0  0  0  0  0  0  0  0  0  0  0
  -22.0704   52.8513   57.7829 C   0  0  0  0  0  0  0  0  0  0  0  0
  -22.1089   52.6407   59.1534 C   0  0  0  0  0  0  0  0  0  0  0  0
  -21.5564   51.5335   59.7411 C   0  0  0  0  0  0  0  0  0  0  0  0
  -20.9385   50.5919   58.9434 C   0  0  0  0  0  0  0  0  0  0  0  0
  -20.9042   50.8080   57.5825 C   0  0  0  0  0  0  0  0  0  0  0  0
  -21.4568   51.9177   56.9811 C   0  0  0  0  0  0  0  0  0  0  0  0
  -21.5734   52.3929   55.6959 C   0  0  0  0  0  0  0  0  0  0  0  0
  -21.0477   51.7173   54.4884 C   0  0  0  0  0  0  0  0  0  0  0  0
  -19.7225   51.0350   54.7639 C   0  0  0  0  0  0  0  0  0  0  0  0
  -19.2494   50.3231   53.5467 C   0  0  0  0  0  0  0  0  0  0  0  0
  -20.2984   49.6035   52.7801 C   0  0  0  0  0  0  0  0  0  0  0  0
  -21.6197   49.4869   53.4976 C   0  0  0  0  0  0  0  0  0  0  0  0
  -22.0863   50.8622   53.8685 C   0  0  0  0  0  0  0  0  0  0  0  0
  -22.2533   53.6023   55.7267 C   0  0  0  0  0  0  0  0  0  0  0  0
  -22.6107   54.3623   54.5241 C   0  0  0  0  0  0  0  0  0  0  0  0
  -23.6731   54.0047   53.7443 C   0  0  0  0  0  0  0  0  0  0  0  0
  -23.9737   54.7232   52.5807 C   0  0  0  0  0  0  0  0  0  0  0  0
  -23.1955   55.7993   52.2164 C   0  0  0  0  0  0  0  0  0  0  0  0
  -22.1305   56.1732   52.9805 C   0  0  0  0  0  0  0  0  0  0  0  0
  -21.8531   55.4569   54.1142 C   0  0  0  0  0  0  0  0  0  0  0  0
  -21.6191   51.3503   61.1861 C   0  0  0  0  0  0  0  0  0  0  0  0
  -22.2045   52.3217   61.9795 O   0  0  0  0  0  0  0  0  0  0  0  0
  -21.1331   50.2967   61.6992 O   0  0  0  0  0  0  0  0  0  0  0  0
  1  2  1  0
  2  3  1  0
  3  4  1  0
  4  5  1  0
  5  6  1  0
  6  7  1  0
  6  8  1  0
  8  9  1  0
  9 10  1  0
  9 11  1  0
 11 12  2  0
 11 13  1  0
 13 14  1  0
 14 15  1  0
 15 16  2  0
 16 17  1  0
 17 18  2  0
 18 19  1  0
 19 20  2  0
 20 21  1  0
 21 22  1  0
 22 23  1  0
 23 24  1  0
 24 25  1  0
 25 26  1  0
 26 27  1  0
 21 28  2  0
 28 29  1  0
 29 30  2  0
 30 31  1  0
 31 32  2  0
 32 33  1  0
 33 34  2  0
 17 35  1  0
 35 36  1  0
 35 37  2  0
  7  2  1  0
 28 14  1  0
 20 15  1  0
 27 22  1  0
 34 29  1  0
M  END
$$$$
