
     RDKit          3D

 37 41  0  0  0  0  0  0  0  0999 V2000
  -36.6036   63.2844   48.5411 C   0  0  0  0  0  0  0  0  0  0  0  0
  -36.7836   62.1936   49.4523 N   0  0  0  0  0  0  0  0  0  0  0  0
  -38.0488   61.5353   49.3617 C   0  0  0  0  0  0  0  0  0  0  0  0
  -39.0847   62.1647   50.2510 C   0  0  0  0  0  0  0  0  0  0  0  0
  -38.5726   63.4440   50.8896 C   0  0  0  0  0  0  0  0  0  0  0  0
  -37.3442   63.1176   51.6677 C   0  0  0  0  0  0  0  0  0  0  0  0
  -36.3303   62.4395   50.7836 C   0  0  0  0  0  0  0  0  0  0  0  0
  -36.7271   64.3242   52.3336 C   0  0  0  0  0  0  0  0  0  0  0  0
  -35.5243   64.0121   53.0498 N   0  0  0  0  0  0  0  0  0  0  0  0
  -35.3524   64.4577   54.4109 C   0  0  0  0  0  0  0  0  0  0  0  0
  -34.4849   63.2654   52.4425 C   0  0  0  0  0  0  0  0  0  0  0  0
  -34.6980   62.6158   51.3863 O   0  0  0  0  0  0  0  0  0  0  0  0
  -33.1678   63.2472   53.0381 C   0  0  0  0  0  0  0  0  0  0  0  0
  -32.1774   62.4157   52.4474 N   0  0  0  0  0  0  0  0  0  0  0  0
  -31.7138   61.2143   52.9130 C   0  0  0  0  0  0  0  0  0  0  0  0
  -32.0295   60.4886   54.0522 C   0  0  0  0  0  0  0  0  0  0  0  0
  -31.4406   59.2862   54.3425 C   0  0  0  0  0  0  0  0  0  0  0  0
  -30.4990   58.7762   53.4719 C   0  0  0  0  0  0  0  0  0  0  0  0
  -30.1906   59.5029   52.3421 C   0  0  0  0  0  0  0  0  0  0  0  0
  -30.7768   60.7128   52.0405 C   0  0  0  0  0  0  0  0  0  0  0  0
  -30.6760   61.6369   51.0271 C   0  0  0  0  0  0  0  0  0  0  0  0
  -29.7751   61.5226   49.8582 C   0  0  0  0  0  0  0  0  0  0  0  0
  -28.5997   60.6103   50.1477 C   0  0  0  0  0  0  0  0  0  0  0  0
  -27.7448   60.4759   48.9380 C   0  0  0  0  0  0  0  0  0  0  0  0
  -28.4754   60.3435   47.6517 C   0  0  0  0  0  0  0  0  0  0  0  0
  -29.9559   60.0993   47.8027 C   0  0  0  0  0  0  0  0  0  0  0  0
  -30.5413   61.2026   48.6315 C   0  0  0  0  0  0  0  0  0  0  0  0
  -31.5475   62.6846   51.2894 C   0  0  0  0  0  0  0  0  0  0  0  0
  -31.7465   63.8201   50.3825 C   0  0  0  0  0  0  0  0  0  0  0  0
  -30.8555   64.8534   50.3277 C   0  0  0  0  0  0  0  0  0  0  0  0
  -31.0846   65.9446   49.4808 C   0  0  0  0  0  0  0  0  0  0  0  0
  -32.2151   65.9802   48.6953 C   0  0  0  0  0  0  0  0  0  0  0  0
  -33.1174   64.9594   48.7345 C   0  0  0  0  0  0  0  0  0  0  0  0
  -32.8750   63.9017   49.5700 C   0  0  0  0  0  0  0  0  0  0  0  0
  -31.8014   58.5551   55.5511 C   0  0  0  0  0  0  0  0  0  0  0  0
  -32.9345   58.9129   56.2611 O   0  0  0  0  0  0  0  0  0  0  0  0
  -31.0673   57.5953   55.9375 O   0  0  0  0  0  0  0  0  0  0  0  0
  1  2  1  0
  2  3  1  0
  3  4  1  0
  4  5  1  0
  5  6  1  0
  6  7  1  0
  6  8  1  0
  8  9  1  0
  9 10  1  0
  9 11  1  0
 11 12  2  0
 11 13  1  0
 13 14  1  0
 14 15  1  0
 15 16  2  0
 16 17  1  0
 17 18  2  0
 18 19  1  0
 19 20  2  0
 20 21  1  0
 21 22  1  0
 22 23  1  0
 23 24  1  0
 24 25  1  0
 25 26  1  0
 26 27  1  0
 21 28  2  0
 28 29  1  0
 29 30  2  0
 30 31  1  0
 31 32  2  0
 32 33  1  0
 33 34  2  0
 17 35  1  0
 35 36  1  0
 35 37  2  0
  7  2  1  0
 28 14  1  0
 20 15  1  0
 27 22  1  0
 34 29  1  0
M  END
$$$$
