
     RDKit          3D

 37 41  0  0  0  0  0  0  0  0999 V2000
    2.7753   39.9054   46.2789 C   0  0  0  0  0  0  0  0  0  0  0  0
    3.1518   39.5087   47.6031 N   0  0  0  0  0  0  0  0  0  0  0  0
    2.1788   39.7820   48.6136 C   0  0  0  0  0  0  0  0  0  0  0  0
    2.3453   41.1515   49.2108 C   0  0  0  0  0  0  0  0  0  0  0  0
    3.3955   41.9617   48.4709 C   0  0  0  0  0  0  0  0  0  0  0  0
    4.6821   41.2111   48.5175 C   0  0  0  0  0  0  0  0  0  0  0  0
    4.4966   39.8215   47.9664 C   0  0  0  0  0  0  0  0  0  0  0  0
    5.8035   41.9126   47.7893 C   0  0  0  0  0  0  0  0  0  0  0  0
    6.1172   43.1947   48.3506 N   0  0  0  0  0  0  0  0  0  0  0  0
    5.1816   44.2867   48.2367 C   0  0  0  0  0  0  0  0  0  0  0  0
    7.3434   43.4175   49.0241 C   0  0  0  0  0  0  0  0  0  0  0  0
    8.2411   42.5360   49.0251 O   0  0  0  0  0  0  0  0  0  0  0  0
    7.5685   44.6661   49.7168 C   0  0  0  0  0  0  0  0  0  0  0  0
    8.8041   44.8404   50.3983 N   0  0  0  0  0  0  0  0  0  0  0  0
    9.9820   45.3076   49.8793 C   0  0  0  0  0  0  0  0  0  0  0  0
   10.3237   45.7093   48.5964 C   0  0  0  0  0  0  0  0  0  0  0  0
   11.5805   46.1506   48.2763 C   0  0  0  0  0  0  0  0  0  0  0  0
   12.5433   46.1981   49.2638 C   0  0  0  0  0  0  0  0  0  0  0  0
   12.1965   45.7973   50.5361 C   0  0  0  0  0  0  0  0  0  0  0  0
   10.9357   45.3522   50.8689 C   0  0  0  0  0  0  0  0  0  0  0  0
   10.3139   44.9000   52.0091 C   0  0  0  0  0  0  0  0  0  0  0  0
   10.9598   44.7665   53.3343 C   0  0  0  0  0  0  0  0  0  0  0  0
   12.2076   43.9089   53.2621 C   0  0  0  0  0  0  0  0  0  0  0  0
   12.8597   43.8391   54.5971 C   0  0  0  0  0  0  0  0  0  0  0  0
   12.8895   45.1129   55.3602 C   0  0  0  0  0  0  0  0  0  0  0  0
   12.4958   46.3261   54.5556 C   0  0  0  0  0  0  0  0  0  0  0  0
   11.1356   46.0925   53.9709 C   0  0  0  0  0  0  0  0  0  0  0  0
    8.9962   44.5877   51.7057 C   0  0  0  0  0  0  0  0  0  0  0  0
    8.0205   44.1332   52.7021 C   0  0  0  0  0  0  0  0  0  0  0  0
    7.8077   42.8050   52.9373 C   0  0  0  0  0  0  0  0  0  0  0  0
    6.8451   42.3938   53.8673 C   0  0  0  0  0  0  0  0  0  0  0  0
    6.1056   43.3319   54.5524 C   0  0  0  0  0  0  0  0  0  0  0  0
    6.3020   44.6628   54.3329 C   0  0  0  0  0  0  0  0  0  0  0  0
    7.2479   45.0440   53.4188 C   0  0  0  0  0  0  0  0  0  0  0  0
   11.8980   46.5641   46.9148 C   0  0  0  0  0  0  0  0  0  0  0  0
   10.9546   46.4194   45.9124 O   0  0  0  0  0  0  0  0  0  0  0  0
   13.0417   47.0538   46.6664 O   0  0  0  0  0  0  0  0  0  0  0  0
  1  2  1  0
  2  3  1  0
  3  4  1  0
  4  5  1  0
  5  6  1  0
  6  7  1  0
  6  8  1  0
  8  9  1  0
  9 10  1  0
  9 11  1  0
 11 12  2  0
 11 13  1  0
 13 14  1  0
 14 15  1  0
 15 16  2  0
 16 17  1  0
 17 18  2  0
 18 19  1  0
 19 20  2  0
 20 21  1  0
 21 22  1  0
 22 23  1  0
 23 24  1  0
 24 25  1  0
 25 26  1  0
 26 27  1  0
 21 28  2  0
 28 29  1  0
 29 30  2  0
 30 31  1  0
 31 32  2  0
 32 33  1  0
 33 34  2  0
 17 35  1  0
 35 36  1  0
 35 37  2  0
  7  2  1  0
 28 14  1  0
 20 15  1  0
 27 22  1  0
 34 29  1  0
M  END
$$$$
