
     RDKit          3D

 37 41  0  0  0  0  0  0  0  0999 V2000
  -33.2162   78.7706   29.7173 C   0  0  0  0  0  0  0  0  0  0  0  0
  -33.0118   77.4185   30.1448 N   0  0  0  0  0  0  0  0  0  0  0  0
  -31.6647   76.9519   30.0447 C   0  0  0  0  0  0  0  0  0  0  0  0
  -31.3700   76.3425   28.7024 C   0  0  0  0  0  0  0  0  0  0  0  0
  -32.5254   76.5319   27.7351 C   0  0  0  0  0  0  0  0  0  0  0  0
  -33.7416   75.9134   28.3343 C   0  0  0  0  0  0  0  0  0  0  0  0
  -34.0017   76.4901   29.7014 C   0  0  0  0  0  0  0  0  0  0  0  0
  -34.9691   76.0605   27.4672 C   0  0  0  0  0  0  0  0  0  0  0  0
  -35.0367   75.0778   26.4247 N   0  0  0  0  0  0  0  0  0  0  0  0
  -34.8849   75.4702   25.0449 C   0  0  0  0  0  0  0  0  0  0  0  0
  -35.2529   73.7098   26.7225 C   0  0  0  0  0  0  0  0  0  0  0  0
  -35.2104   72.8432   25.8114 O   0  0  0  0  0  0  0  0  0  0  0  0
  -35.5248   73.3027   28.0826 C   0  0  0  0  0  0  0  0  0  0  0  0
  -35.4932   71.9137   28.3847 N   0  0  0  0  0  0  0  0  0  0  0  0
  -36.4791   70.9905   28.1594 C   0  0  0  0  0  0  0  0  0  0  0  0
  -37.7509   71.1196   27.6207 C   0  0  0  0  0  0  0  0  0  0  0  0
  -38.5995   70.0534   27.4801 C   0  0  0  0  0  0  0  0  0  0  0  0
  -38.1766   68.8047   27.8883 C   0  0  0  0  0  0  0  0  0  0  0  0
  -36.9117   68.6843   28.4226 C   0  0  0  0  0  0  0  0  0  0  0  0
  -36.0502   69.7497   28.5683 C   0  0  0  0  0  0  0  0  0  0  0  0
  -34.7758   69.9340   29.0510 C   0  0  0  0  0  0  0  0  0  0  0  0
  -33.9158   68.8673   29.6108 C   0  0  0  0  0  0  0  0  0  0  0  0
  -34.7041   67.9235   30.4969 C   0  0  0  0  0  0  0  0  0  0  0  0
  -33.8229   66.8356   30.9994 C   0  0  0  0  0  0  0  0  0  0  0  0
  -32.8647   66.2818   30.0090 C   0  0  0  0  0  0  0  0  0  0  0  0
  -33.1183   66.7218   28.5890 C   0  0  0  0  0  0  0  0  0  0  0  0
  -33.1172   68.2200   28.5442 C   0  0  0  0  0  0  0  0  0  0  0  0
  -34.4424   71.2758   28.9312 C   0  0  0  0  0  0  0  0  0  0  0  0
  -33.1292   71.8203   29.2927 C   0  0  0  0  0  0  0  0  0  0  0  0
  -32.8781   72.3037   30.5449 C   0  0  0  0  0  0  0  0  0  0  0  0
  -31.6282   72.8523   30.8569 C   0  0  0  0  0  0  0  0  0  0  0  0
  -30.6419   72.9065   29.8975 C   0  0  0  0  0  0  0  0  0  0  0  0
  -30.8715   72.4296   28.6414 C   0  0  0  0  0  0  0  0  0  0  0  0
  -32.1008   71.8976   28.3565 C   0  0  0  0  0  0  0  0  0  0  0  0
  -39.9286   70.2324   26.9085 C   0  0  0  0  0  0  0  0  0  0  0  0
  -40.3751   71.5022   26.5857 O   0  0  0  0  0  0  0  0  0  0  0  0
  -40.6619   69.2156   26.7137 O   0  0  0  0  0  0  0  0  0  0  0  0
  1  2  1  0
  2  3  1  0
  3  4  1  0
  4  5  1  0
  5  6  1  0
  6  7  1  0
  6  8  1  0
  8  9  1  0
  9 10  1  0
  9 11  1  0
 11 12  2  0
 11 13  1  0
 13 14  1  0
 14 15  1  0
 15 16  2  0
 16 17  1  0
 17 18  2  0
 18 19  1  0
 19 20  2  0
 20 21  1  0
 21 22  1  0
 22 23  1  0
 23 24  1  0
 24 25  1  0
 25 26  1  0
 26 27  1  0
 21 28  2  0
 28 29  1  0
 29 30  2  0
 30 31  1  0
 31 32  2  0
 32 33  1  0
 33 34  2  0
 17 35  1  0
 35 36  1  0
 35 37  2  0
  7  2  1  0
 28 14  1  0
 20 15  1  0
 27 22  1  0
 34 29  1  0
M  END
$$$$
