
     RDKit          3D

 37 41  0  0  0  0  0  0  0  0999 V2000
   11.8476   29.5470   78.5225 C   0  0  0  0  0  0  0  0  0  0  0  0
   11.6285   30.9595   78.4257 N   0  0  0  0  0  0  0  0  0  0  0  0
   11.7970   31.6807   79.6480 C   0  0  0  0  0  0  0  0  0  0  0  0
   10.5249   31.7576   80.4454 C   0  0  0  0  0  0  0  0  0  0  0  0
    9.4275   30.9043   79.8337 C   0  0  0  0  0  0  0  0  0  0  0  0
    9.1980   31.3703   78.4369 C   0  0  0  0  0  0  0  0  0  0  0  0
   10.4869   31.3410   77.6578 C   0  0  0  0  0  0  0  0  0  0  0  0
    8.1369   30.5753   77.7143 C   0  0  0  0  0  0  0  0  0  0  0  0
    7.9336   31.0143   76.3641 N   0  0  0  0  0  0  0  0  0  0  0  0
    8.1737   30.1137   75.2631 C   0  0  0  0  0  0  0  0  0  0  0  0
    7.4964   32.3318   76.0817 C   0  0  0  0  0  0  0  0  0  0  0  0
    7.2381   33.1333   77.0165 O   0  0  0  0  0  0  0  0  0  0  0  0
    7.3448   32.7624   74.7102 C   0  0  0  0  0  0  0  0  0  0  0  0
    7.4685   34.1500   74.4265 N   0  0  0  0  0  0  0  0  0  0  0  0
    6.5647   35.1402   74.7052 C   0  0  0  0  0  0  0  0  0  0  0  0
    5.3095   35.0972   75.2940 C   0  0  0  0  0  0  0  0  0  0  0  0
    4.5498   36.2211   75.4844 C   0  0  0  0  0  0  0  0  0  0  0  0
    5.0487   37.4415   75.0766 C   0  0  0  0  0  0  0  0  0  0  0  0
    6.2965   37.4764   74.4923 C   0  0  0  0  0  0  0  0  0  0  0  0
    7.0689   36.3524   74.2963 C   0  0  0  0  0  0  0  0  0  0  0  0
    8.3055   36.0818   73.7588 C   0  0  0  0  0  0  0  0  0  0  0  0
    9.2201   37.0907   73.1788 C   0  0  0  0  0  0  0  0  0  0  0  0
    8.6121   37.7603   71.9625 C   0  0  0  0  0  0  0  0  0  0  0  0
    9.5332   38.8034   71.4372 C   0  0  0  0  0  0  0  0  0  0  0  0
   10.2129   39.6312   72.4660 C   0  0  0  0  0  0  0  0  0  0  0  0
    9.6623   39.4623   73.8597 C   0  0  0  0  0  0  0  0  0  0  0  0
    9.7228   38.0101   74.2259 C   0  0  0  0  0  0  0  0  0  0  0  0
    8.5416   34.7170   73.8459 C   0  0  0  0  0  0  0  0  0  0  0  0
    9.7945   34.0823   73.4229 C   0  0  0  0  0  0  0  0  0  0  0  0
    9.8978   33.4383   72.2233 C   0  0  0  0  0  0  0  0  0  0  0  0
   11.0931   32.8081   71.8561 C   0  0  0  0  0  0  0  0  0  0  0  0
   12.1750   32.8357   72.7076 C   0  0  0  0  0  0  0  0  0  0  0  0
   12.0933   33.4730   73.9097 C   0  0  0  0  0  0  0  0  0  0  0  0
   10.9152   34.0826   74.2501 C   0  0  0  0  0  0  0  0  0  0  0  0
    3.2350   36.1320   76.1079 C   0  0  0  0  0  0  0  0  0  0  0  0
    2.7350   34.8990   76.4897 O   0  0  0  0  0  0  0  0  0  0  0  0
    2.5634   37.1923   76.2930 O   0  0  0  0  0  0  0  0  0  0  0  0
  1  2  1  0
  2  3  1  0
  3  4  1  0
  4  5  1  0
  5  6  1  0
  6  7  1  0
  6  8  1  0
  8  9  1  0
  9 10  1  0
  9 11  1  0
 11 12  2  0
 11 13  1  0
 13 14  1  0
 14 15  1  0
 15 16  2  0
 16 17  1  0
 17 18  2  0
 18 19  1  0
 19 20  2  0
 20 21  1  0
 21 22  1  0
 22 23  1  0
 23 24  1  0
 24 25  1  0
 25 26  1  0
 26 27  1  0
 21 28  2  0
 28 29  1  0
 29 30  2  0
 30 31  1  0
 31 32  2  0
 32 33  1  0
 33 34  2  0
 17 35  1  0
 35 36  1  0
 35 37  2  0
  7  2  1  0
 28 14  1  0
 20 15  1  0
 27 22  1  0
 34 29  1  0
M  END
$$$$
