
     RDKit          3D

 43 50  0  0  0  0  0  0  0  0999 V2000
    1.7095   -2.0005   10.9913 O   0  0  0  0  0  0  0  0  0  0  0  0
    0.8437   -1.3396   10.3694 C   0  0  0  0  0  0  0  0  0  0  0  0
    0.5075   -1.7573    8.9952 C   0  0  1  0  0  0  0  0  0  0  0  0
    0.7883   -0.6816    7.9784 C   0  0  0  0  0  0  0  0  0  0  0  0
    0.2138   -1.1340    6.7124 N   0  0  1  0  0  4  0  0  0  0  0  0
    0.2235   -0.0021    5.8185 C   0  0  0  0  0  0  0  0  0  0  0  0
    0.9293   -2.2787    6.1981 C   0  0  1  0  0  0  0  0  0  0  0  0
    1.3693   -3.1895    7.2790 C   0  0  0  0  0  0  0  0  0  0  0  0
    1.1936   -2.9834    8.5709 C   0  0  0  0  0  0  0  0  0  0  0  0
    2.0516   -4.4108    6.8394 C   0  0  0  0  0  0  0  0  0  0  0  0
    2.9631   -5.0613    7.6619 C   0  0  0  0  0  0  0  0  0  0  0  0
    3.5537   -6.2117    7.1177 C   0  0  0  0  0  0  0  0  0  0  0  0
    3.2424   -6.6696    5.8322 C   0  0  0  0  0  0  0  0  0  0  0  0
    2.3322   -6.0090    5.0280 C   0  0  0  0  0  0  0  0  0  0  0  0
    1.7708   -4.8900    5.5836 C   0  0  0  0  0  0  0  0  0  0  0  0
    0.8761   -4.2747    4.7505 C   0  0  0  0  0  0  0  0  0  0  0  0
    0.1482   -3.0507    5.1708 C   0  0  0  0  0  0  0  0  0  0  0  0
    0.8999   -5.0814    3.6062 C   0  0  0  0  0  0  0  0  0  0  0  0
    1.7796   -6.1030    3.8127 N   0  0  0  0  0  0  0  0  0  0  0  0
    0.2332   -0.2362   11.0009 N   0  0  0  0  0  0  0  0  0  0  0  0
    0.6798    0.3606   12.2259 C   0  0  2  0  0  0  0  0  0  0  0  0
   -0.4317    0.6847   13.1756 C   0  0  0  0  0  0  0  0  0  0  0  0
    1.3614    1.5335   11.9555 O   0  0  0  0  0  0  0  0  0  0  0  0
    2.3337    1.7212   12.9044 C   0  0  2  0  0  0  0  0  0  0  0  0
    2.4622    0.5176   13.6638 N   0  0  0  0  0  0  0  0  0  0  0  0
    1.6786   -0.4520   12.9668 C   0  0  0  0  0  0  0  0  0  0  0  0
    1.8441   -1.7054   13.0092 O   0  0  0  0  0  0  0  0  0  0  0  0
    3.2681    0.4882   14.8679 C   0  0  1  0  0  0  0  0  0  0  0  0
    4.7260    0.3916   14.5150 C   0  0  0  0  0  0  0  0  0  0  0  0
    5.3999   -0.4590   15.5469 C   0  0  0  0  0  0  0  0  0  0  0  0
    6.4705    0.0546   16.2439 C   0  0  0  0  0  0  0  0  0  0  0  0
    7.1220   -0.6826   17.1992 C   0  0  0  0  0  0  0  0  0  0  0  0
    6.7074   -1.9748   17.4823 C   0  0  0  0  0  0  0  0  0  0  0  0
    5.6365   -2.4829   16.7822 C   0  0  0  0  0  0  0  0  0  0  0  0
    4.9833   -1.7425   15.8239 C   0  0  0  0  0  0  0  0  0  0  0  0
    3.0350    1.7445   15.6262 C   0  0  0  0  0  0  0  0  0  0  0  0
    3.2564    1.7318   16.8623 O   0  0  0  0  0  0  0  0  0  0  0  0
    2.5848    2.9259   15.0269 N   0  0  0  0  0  0  0  0  0  0  0  0
    1.9876    2.9273   13.7210 C   0  0  1  0  0  0  0  0  0  0  0  0
    2.6706    4.1301   13.0829 C   0  0  0  0  0  0  0  0  0  0  0  0
    3.0532    5.0501   14.2175 C   0  0  0  0  0  0  0  0  0  0  0  0
    2.5808    4.3063   15.4689 C   0  0  0  0  0  0  0  0  0  0  0  0
    3.5524    1.9147   12.2161 O   0  0  0  0  0  0  0  0  0  0  0  0
  1  2  2  0
  3  2  1  1
  3  4  1  0
  4  5  1  0
  5  6  1  6
  5  7  1  0
  7  8  1  0
  8  9  2  0
  8 10  1  0
 10 11  2  0
 11 12  1  0
 12 13  2  0
 13 14  1  0
 14 15  2  0
 15 16  1  0
 16 17  1  0
 16 18  2  0
 18 19  1  0
  2 20  1  0
 20 21  1  0
 21 22  1  1
 21 23  1  0
 23 24  1  0
 24 25  1  0
 25 26  1  0
 26 27  2  0
 25 28  1  0
 28 29  1  6
 29 30  1  0
 30 31  2  0
 31 32  1  0
 32 33  2  0
 33 34  1  0
 34 35  2  0
 28 36  1  0
 36 37  2  0
 36 38  1  0
 38 39  1  0
 39 40  1  6
 40 41  1  0
 41 42  1  0
 24 43  1  6
  9  3  1  0
 15 10  1  0
 26 21  1  0
 35 30  1  0
 42 38  1  0
  7 17  1  6
 39 24  1  0
 19 14  1  0
M  CHG  1   5   1
M  END
$$$$
