
     RDKit          3D

 43 50  0  0  0  0  0  0  0  0999 V2000
    1.7473   -1.6026   10.8642 O   0  0  0  0  0  0  0  0  0  0  0  0
    0.7914   -1.0802   10.2424 C   0  0  0  0  0  0  0  0  0  0  0  0
    0.4874   -1.5824    8.8892 C   0  0  1  0  0  0  0  0  0  0  0  0
    0.7481   -0.5550    7.8185 C   0  0  0  0  0  0  0  0  0  0  0  0
    0.2056   -1.0938    6.5723 N   0  0  1  0  0  4  0  0  0  0  0  0
    0.1920   -0.0123    5.6181 C   0  0  0  0  0  0  0  0  0  0  0  0
    0.9637   -2.2411    6.1299 C   0  0  1  0  0  0  0  0  0  0  0  0
    1.4172   -3.0773    7.2643 C   0  0  0  0  0  0  0  0  0  0  0  0
    1.2174   -2.8071    8.5408 C   0  0  0  0  0  0  0  0  0  0  0  0
    2.1435   -4.2981    6.9003 C   0  0  0  0  0  0  0  0  0  0  0  0
    3.0636   -4.8734    7.7680 C   0  0  0  0  0  0  0  0  0  0  0  0
    3.6974   -6.0321    7.2947 C   0  0  0  0  0  0  0  0  0  0  0  0
    3.4184   -6.5688    6.0325 C   0  0  0  0  0  0  0  0  0  0  0  0
    2.4990   -5.9824    5.1825 C   0  0  0  0  0  0  0  0  0  0  0  0
    1.8951   -4.8535    5.6693 C   0  0  0  0  0  0  0  0  0  0  0  0
    0.9931   -4.3134    4.7932 C   0  0  0  0  0  0  0  0  0  0  0  0
    0.2214   -3.0924    5.1371 C   0  0  0  0  0  0  0  0  0  0  0  0
    1.0580   -5.1798    3.6951 C   0  0  0  0  0  0  0  0  0  0  0  0
    1.9664   -6.1599    3.9676 N   0  0  0  0  0  0  0  0  0  0  0  0
    0.0538   -0.0455   10.8542 N   0  0  0  0  0  0  0  0  0  0  0  0
    0.4335    0.6333   12.0589 C   0  0  2  0  0  0  0  0  0  0  0  0
   -0.7180    0.9290   12.9694 C   0  0  0  0  0  0  0  0  0  0  0  0
    1.0469    1.8335   11.7481 O   0  0  0  0  0  0  0  0  0  0  0  0
    1.9830    2.1252   12.7071 C   0  0  2  0  0  0  0  0  0  0  0  0
    2.1685    0.9679   13.5243 N   0  0  0  0  0  0  0  0  0  0  0  0
    1.4633   -0.0800   12.8573 C   0  0  0  0  0  0  0  0  0  0  0  0
    1.7056   -1.3172   12.9617 O   0  0  0  0  0  0  0  0  0  0  0  0
    2.9462    1.0441   14.7448 C   0  0  1  0  0  0  0  0  0  0  0  0
    4.4151    1.0243   14.4268 C   0  0  0  0  0  0  0  0  0  0  0  0
    5.1002    0.1640   15.4432 C   0  0  0  0  0  0  0  0  0  0  0  0
    5.0032   -1.2053   15.3373 C   0  0  0  0  0  0  0  0  0  0  0  0
    5.6121   -2.0375   16.2414 C   0  0  0  0  0  0  0  0  0  0  0  0
    6.3451   -1.5059   17.2911 C   0  0  0  0  0  0  0  0  0  0  0  0
    6.4385   -0.1362   17.3919 C   0  0  0  0  0  0  0  0  0  0  0  0
    5.8273    0.6981   16.4842 C   0  0  0  0  0  0  0  0  0  0  0  0
    2.6175    2.3162   15.4386 C   0  0  0  0  0  0  0  0  0  0  0  0
    2.8101    2.3736   16.6783 O   0  0  0  0  0  0  0  0  0  0  0  0
    2.1086    3.4384   14.7757 N   0  0  0  0  0  0  0  0  0  0  0  0
    1.5433    3.3427   13.4591 C   0  0  1  0  0  0  0  0  0  0  0  0
    2.1648    4.5563   12.7798 C   0  0  0  0  0  0  0  0  0  0  0  0
    2.4626    5.5491   13.8778 C   0  0  0  0  0  0  0  0  0  0  0  0
    2.0082    4.8343   15.1526 C   0  0  0  0  0  0  0  0  0  0  0  0
    3.2031    2.3642   12.0357 O   0  0  0  0  0  0  0  0  0  0  0  0
  1  2  2  0
  3  2  1  1
  3  4  1  0
  4  5  1  0
  5  6  1  6
  5  7  1  0
  7  8  1  0
  8  9  2  0
  8 10  1  0
 10 11  2  0
 11 12  1  0
 12 13  2  0
 13 14  1  0
 14 15  2  0
 15 16  1  0
 16 17  1  0
 16 18  2  0
 18 19  1  0
  2 20  1  0
 20 21  1  0
 21 22  1  1
 21 23  1  0
 23 24  1  0
 24 25  1  0
 25 26  1  0
 26 27  2  0
 25 28  1  0
 28 29  1  6
 29 30  1  0
 30 31  2  0
 31 32  1  0
 32 33  2  0
 33 34  1  0
 34 35  2  0
 28 36  1  0
 36 37  2  0
 36 38  1  0
 38 39  1  0
 39 40  1  6
 40 41  1  0
 41 42  1  0
 24 43  1  6
  9  3  1  0
 15 10  1  0
 26 21  1  0
 35 30  1  0
 42 38  1  0
  7 17  1  6
 39 24  1  0
 19 14  1  0
M  CHG  1   5   1
M  END
$$$$
