
     RDKit          3D

 43 50  0  0  0  0  0  0  0  0999 V2000
    1.7900   -1.5617   10.9960 O   0  0  0  0  0  0  0  0  0  0  0  0
    0.8056   -1.0493   10.4115 C   0  0  0  0  0  0  0  0  0  0  0  0
    0.4723   -1.5350    9.0591 C   0  0  1  0  0  0  0  0  0  0  0  0
    0.7489   -0.5089    7.9913 C   0  0  0  0  0  0  0  0  0  0  0  0
    0.1774   -1.0252    6.7485 N   0  0  1  0  0  4  0  0  0  0  0  0
    0.1825    0.0619    5.8005 C   0  0  0  0  0  0  0  0  0  0  0  0
    0.8986   -2.1902    6.2909 C   0  0  1  0  0  0  0  0  0  0  0  0
    1.3420   -3.0452    7.4152 C   0  0  0  0  0  0  0  0  0  0  0  0
    1.1644   -2.7772    8.6954 C   0  0  0  0  0  0  0  0  0  0  0  0
    2.0302   -4.2833    7.0360 C   0  0  0  0  0  0  0  0  0  0  0  0
    2.9442   -4.8886    7.8897 C   0  0  0  0  0  0  0  0  0  0  0  0
    3.5404   -6.0614    7.4025 C   0  0  0  0  0  0  0  0  0  0  0  0
    3.2322   -6.5829    6.1406 C   0  0  0  0  0  0  0  0  0  0  0  0
    2.3196   -5.9665    5.3048 C   0  0  0  0  0  0  0  0  0  0  0  0
    1.7525   -4.8244    5.8049 C   0  0  0  0  0  0  0  0  0  0  0  0
    0.8556   -4.2546    4.9424 C   0  0  0  0  0  0  0  0  0  0  0  0
    0.1218   -3.0150    5.3021 C   0  0  0  0  0  0  0  0  0  0  0  0
    0.8840   -5.1160    3.8387 C   0  0  0  0  0  0  0  0  0  0  0  0
    1.7683   -6.1222    4.0952 N   0  0  0  0  0  0  0  0  0  0  0  0
    0.0651   -0.0410   11.0625 N   0  0  0  0  0  0  0  0  0  0  0  0
    0.4399    0.5882   12.2953 C   0  0  2  0  0  0  0  0  0  0  0  0
   -0.7270    0.9811   13.1475 C   0  0  0  0  0  0  0  0  0  0  0  0
    1.1774    1.7291   12.0349 O   0  0  0  0  0  0  0  0  0  0  0  0
    2.0831    1.9234   13.0463 C   0  0  2  0  0  0  0  0  0  0  0  0
    2.1164    0.7462   13.8555 N   0  0  0  0  0  0  0  0  0  0  0  0
    1.3547   -0.2253   13.1369 C   0  0  0  0  0  0  0  0  0  0  0  0
    1.4757   -1.4806   13.2361 O   0  0  0  0  0  0  0  0  0  0  0  0
    2.8305    0.7383   15.1165 C   0  0  1  0  0  0  0  0  0  0  0  0
    4.3063    0.5849   14.8767 C   0  0  0  0  0  0  0  0  0  0  0  0
    4.6003   -0.8724   14.6973 C   0  0  0  0  0  0  0  0  0  0  0  0
    4.6445   -1.6887   15.8053 C   0  0  0  0  0  0  0  0  0  0  0  0
    4.9091   -3.0298   15.6954 C   0  0  0  0  0  0  0  0  0  0  0  0
    5.1395   -3.5929   14.4498 C   0  0  0  0  0  0  0  0  0  0  0  0
    5.0940   -2.7719   13.3458 C   0  0  0  0  0  0  0  0  0  0  0  0
    4.8284   -1.4263   13.4569 C   0  0  0  0  0  0  0  0  0  0  0  0
    2.5835    2.0288   15.8102 C   0  0  0  0  0  0  0  0  0  0  0  0
    2.7131    2.0563   17.0590 O   0  0  0  0  0  0  0  0  0  0  0  0
    2.2171    3.1996   15.1374 N   0  0  0  0  0  0  0  0  0  0  0  0
    1.7176    3.1694   13.7915 C   0  0  1  0  0  0  0  0  0  0  0  0
    2.4843    4.3262   13.1637 C   0  0  0  0  0  0  0  0  0  0  0  0
    2.8125    5.2767   14.2902 C   0  0  0  0  0  0  0  0  0  0  0  0
    2.2257    4.5952   15.5286 C   0  0  0  0  0  0  0  0  0  0  0  0
    3.3546    2.0543   12.4442 O   0  0  0  0  0  0  0  0  0  0  0  0
  1  2  2  0
  3  2  1  1
  3  4  1  0
  4  5  1  0
  5  6  1  6
  5  7  1  0
  7  8  1  0
  8  9  2  0
  8 10  1  0
 10 11  2  0
 11 12  1  0
 12 13  2  0
 13 14  1  0
 14 15  2  0
 15 16  1  0
 16 17  1  0
 16 18  2  0
 18 19  1  0
  2 20  1  0
 20 21  1  0
 21 22  1  1
 21 23  1  0
 23 24  1  0
 24 25  1  0
 25 26  1  0
 26 27  2  0
 25 28  1  0
 28 29  1  6
 29 30  1  0
 30 31  2  0
 31 32  1  0
 32 33  2  0
 33 34  1  0
 34 35  2  0
 28 36  1  0
 36 37  2  0
 36 38  1  0
 38 39  1  0
 39 40  1  6
 40 41  1  0
 41 42  1  0
 24 43  1  6
  9  3  1  0
 15 10  1  0
 26 21  1  0
 35 30  1  0
 42 38  1  0
  7 17  1  6
 39 24  1  0
 19 14  1  0
M  CHG  1   5   1
M  END
$$$$
