
     RDKit          3D

 43 50  0  0  0  0  0  0  0  0999 V2000
    2.8707   -0.6105   10.2881 O   0  0  0  0  0  0  0  0  0  0  0  0
    1.6300   -0.6614   10.1110 C   0  0  0  0  0  0  0  0  0  0  0  0
    1.1337   -1.2142    8.8366 C   0  0  1  0  0  0  0  0  0  0  0  0
    1.3490   -0.2772    7.6765 C   0  0  0  0  0  0  0  0  0  0  0  0
    0.6259   -0.8396    6.5370 N   0  0  1  0  0  4  0  0  0  0  0  0
    0.5871    0.1813    5.5190 C   0  0  0  0  0  0  0  0  0  0  0  0
    1.2358   -2.0714    6.0927 C   0  0  1  0  0  0  0  0  0  0  0  0
    1.7502   -2.8755    7.2243 C   0  0  0  0  0  0  0  0  0  0  0  0
    1.7206   -2.5150    8.4938 C   0  0  0  0  0  0  0  0  0  0  0  0
    2.3319   -4.1731    6.8663 C   0  0  0  0  0  0  0  0  0  0  0  0
    3.2980   -4.7731    7.6645 C   0  0  0  0  0  0  0  0  0  0  0  0
    3.7804   -6.0074    7.2039 C   0  0  0  0  0  0  0  0  0  0  0  0
    3.3166   -6.5913    6.0194 C   0  0  0  0  0  0  0  0  0  0  0  0
    2.3541   -5.9793    5.2380 C   0  0  0  0  0  0  0  0  0  0  0  0
    1.9006   -4.7764    5.7106 C   0  0  0  0  0  0  0  0  0  0  0  0
    0.9486   -4.2134    4.9045 C   0  0  0  0  0  0  0  0  0  0  0  0
    0.3197   -2.9129    5.2476 C   0  0  0  0  0  0  0  0  0  0  0  0
    0.8185   -5.1450    3.8672 C   0  0  0  0  0  0  0  0  0  0  0  0
    1.6727   -6.1814    4.1039 N   0  0  0  0  0  0  0  0  0  0  0  0
    0.7687   -0.1936   11.1250 N   0  0  0  0  0  0  0  0  0  0  0  0
    1.1944    0.2993   12.4025 C   0  0  2  0  0  0  0  0  0  0  0  0
    0.0655    0.5636   13.3502 C   0  0  0  0  0  0  0  0  0  0  0  0
    1.8963    1.4801   12.2400 O   0  0  0  0  0  0  0  0  0  0  0  0
    2.8488    1.5794   13.2218 C   0  0  2  0  0  0  0  0  0  0  0  0
    2.9452    0.3184   13.8870 N   0  0  0  0  0  0  0  0  0  0  0  0
    2.1660   -0.5826   13.0990 C   0  0  0  0  0  0  0  0  0  0  0  0
    2.3152   -1.8378   13.0465 O   0  0  0  0  0  0  0  0  0  0  0  0
    3.7229    0.1836   15.1024 C   0  0  1  0  0  0  0  0  0  0  0  0
    5.1872    0.0947   14.7750 C   0  0  0  0  0  0  0  0  0  0  0  0
    5.8976   -0.4693   15.9665 C   0  0  0  0  0  0  0  0  0  0  0  0
    6.1466   -1.8223   16.0202 C   0  0  0  0  0  0  0  0  0  0  0  0
    6.7939   -2.3886   17.0883 C   0  0  0  0  0  0  0  0  0  0  0  0
    7.2138   -1.5967   18.1459 C   0  0  0  0  0  0  0  0  0  0  0  0
    6.9620   -0.2447   18.0867 C   0  0  0  0  0  0  0  0  0  0  0  0
    6.3125    0.3227   17.0145 C   0  0  0  0  0  0  0  0  0  0  0  0
    3.4878    1.3799   15.9517 C   0  0  0  0  0  0  0  0  0  0  0  0
    3.6806    1.2675   17.1876 O   0  0  0  0  0  0  0  0  0  0  0  0
    3.0659    2.6108   15.4374 N   0  0  0  0  0  0  0  0  0  0  0  0
    2.4988    2.7226   14.1228 C   0  0  1  0  0  0  0  0  0  0  0  0
    3.2109    3.9620   13.5963 C   0  0  0  0  0  0  0  0  0  0  0  0
    3.5785    4.7850   14.8078 C   0  0  0  0  0  0  0  0  0  0  0  0
    3.0686    3.9522   15.9862 C   0  0  0  0  0  0  0  0  0  0  0  0
    4.0852    1.8092   12.5777 O   0  0  0  0  0  0  0  0  0  0  0  0
  1  2  2  0
  3  2  1  1
  3  4  1  0
  4  5  1  0
  5  6  1  6
  5  7  1  0
  7  8  1  0
  8  9  2  0
  8 10  1  0
 10 11  2  0
 11 12  1  0
 12 13  2  0
 13 14  1  0
 14 15  2  0
 15 16  1  0
 16 17  1  0
 16 18  2  0
 18 19  1  0
  2 20  1  0
 20 21  1  0
 21 22  1  1
 21 23  1  0
 23 24  1  0
 24 25  1  0
 25 26  1  0
 26 27  2  0
 25 28  1  0
 28 29  1  6
 29 30  1  0
 30 31  2  0
 31 32  1  0
 32 33  2  0
 33 34  1  0
 34 35  2  0
 28 36  1  0
 36 37  2  0
 36 38  1  0
 38 39  1  0
 39 40  1  6
 40 41  1  0
 41 42  1  0
 24 43  1  6
  9  3  1  0
 15 10  1  0
 26 21  1  0
 35 30  1  0
 42 38  1  0
  7 17  1  1
 39 24  1  0
 19 14  1  0
M  CHG  1   5   1
M  END
$$$$
