
     RDKit          3D

 43 50  0  0  0  0  0  0  0  0999 V2000
    0.8024    0.0012   10.3318 O   0  0  0  0  0  0  0  0  0  0  0  0
    0.1654    0.2963    9.2924 C   0  0  0  0  0  0  0  0  0  0  0  0
    0.1809   -0.6647    8.1734 C   0  0  1  0  0  0  0  0  0  0  0  0
    0.8196   -0.0975    6.9323 C   0  0  0  0  0  0  0  0  0  0  0  0
    0.5742   -1.0538    5.8540 N   0  0  1  0  0  4  0  0  0  0  0  0
    0.9246   -0.3943    4.6201 C   0  0  0  0  0  0  0  0  0  0  0  0
    1.3010   -2.2825    6.0753 C   0  0  1  0  0  0  0  0  0  0  0  0
    1.3499   -2.6475    7.5092 C   0  0  0  0  0  0  0  0  0  0  0  0
    0.8479   -1.9312    8.4978 C   0  0  0  0  0  0  0  0  0  0  0  0
    2.0177   -3.9161    7.8172 C   0  0  0  0  0  0  0  0  0  0  0  0
    2.6114   -4.1347    9.0543 C   0  0  0  0  0  0  0  0  0  0  0  0
    3.2259   -5.3854    9.2167 C   0  0  0  0  0  0  0  0  0  0  0  0
    3.2378   -6.3454    8.1981 C   0  0  0  0  0  0  0  0  0  0  0  0
    2.6413   -6.1100    6.9732 C   0  0  0  0  0  0  0  0  0  0  0  0
    2.0488   -4.8821    6.8417 C   0  0  0  0  0  0  0  0  0  0  0  0
    1.4711   -4.6993    5.6146 C   0  0  0  0  0  0  0  0  0  0  0  0
    0.7651   -3.4379    5.2757 C   0  0  0  0  0  0  0  0  0  0  0  0
    1.7355   -5.9062    4.9554 C   0  0  0  0  0  0  0  0  0  0  0  0
    2.4341   -6.7185    5.7993 N   0  0  0  0  0  0  0  0  0  0  0  0
   -0.5320    1.5208    9.2351 N   0  0  0  0  0  0  0  0  0  0  0  0
   -0.5488    2.5068   10.2761 C   0  0  2  0  0  0  0  0  0  0  0  0
   -0.3495    3.9058    9.7807 C   0  0  0  0  0  0  0  0  0  0  0  0
    0.4492    2.2366   11.1949 O   0  0  0  0  0  0  0  0  0  0  0  0
    0.0439    2.6499   12.4383 C   0  0  2  0  0  0  0  0  0  0  0  0
   -1.3492    2.9619   12.3789 N   0  0  0  0  0  0  0  0  0  0  0  0
   -1.7844    2.4961   11.1007 C   0  0  0  0  0  0  0  0  0  0  0  0
   -2.9671    2.1644   10.7981 O   0  0  0  0  0  0  0  0  0  0  0  0
   -2.0055    3.6196   13.4911 C   0  0  1  0  0  0  0  0  0  0  0  0
   -2.2997    2.6274   14.5810 C   0  0  0  0  0  0  0  0  0  0  0  0
   -3.7680    2.3339   14.5600 C   0  0  0  0  0  0  0  0  0  0  0  0
   -4.1912    1.0256   14.6317 C   0  0  0  0  0  0  0  0  0  0  0  0
   -5.5241    0.7032   14.6166 C   0  0  0  0  0  0  0  0  0  0  0  0
   -6.4799    1.7033   14.5275 C   0  0  0  0  0  0  0  0  0  0  0  0
   -6.0509    3.0094   14.4560 C   0  0  0  0  0  0  0  0  0  0  0  0
   -4.7133    3.3320   14.4713 C   0  0  0  0  0  0  0  0  0  0  0  0
   -1.0993    4.6700   14.0234 C   0  0  0  0  0  0  0  0  0  0  0  0
   -1.6170    5.6265   14.6513 O   0  0  0  0  0  0  0  0  0  0  0  0
    0.2894    4.6373   13.8557 N   0  0  0  0  0  0  0  0  0  0  0  0
    0.9095    3.7902   12.8760 C   0  0  1  0  0  0  0  0  0  0  0  0
    2.0696    3.2109   13.6753 C   0  0  0  0  0  0  0  0  0  0  0  0
    2.3918    4.2240   14.7476 C   0  0  0  0  0  0  0  0  0  0  0  0
    1.3706    5.3404   14.5170 C   0  0  0  0  0  0  0  0  0  0  0  0
    0.1897    1.5469   13.3093 O   0  0  0  0  0  0  0  0  0  0  0  0
  1  2  2  0
  3  2  1  1
  3  4  1  0
  4  5  1  0
  5  6  1  6
  5  7  1  0
  7  8  1  0
  8  9  2  0
  8 10  1  0
 10 11  2  0
 11 12  1  0
 12 13  2  0
 13 14  1  0
 14 15  2  0
 15 16  1  0
 16 17  1  0
 16 18  2  0
 18 19  1  0
  2 20  1  0
 20 21  1  0
 21 22  1  6
 21 23  1  0
 23 24  1  0
 24 25  1  0
 25 26  1  0
 26 27  2  0
 25 28  1  0
 28 29  1  1
 29 30  1  0
 30 31  2  0
 31 32  1  0
 32 33  2  0
 33 34  1  0
 34 35  2  0
 28 36  1  0
 36 37  2  0
 36 38  1  0
 38 39  1  0
 39 40  1  1
 40 41  1  0
 41 42  1  0
 24 43  1  1
  9  3  1  0
 15 10  1  0
 26 21  1  0
 35 30  1  0
 42 38  1  0
  7 17  1  6
 39 24  1  0
 19 14  1  0
M  CHG  1   5   1
M  END
$$$$
