
     RDKit          3D

 43 50  0  0  0  0  0  0  0  0999 V2000
    1.7216   -0.7888   10.6849 O   0  0  0  0  0  0  0  0  0  0  0  0
    0.6906   -0.5419   10.0145 C   0  0  0  0  0  0  0  0  0  0  0  0
    0.5490   -1.1896    8.6968 C   0  0  1  0  0  0  0  0  0  0  0  0
    0.9581   -0.2875    7.5615 C   0  0  0  0  0  0  0  0  0  0  0  0
    0.5657   -0.9590    6.3235 N   0  0  1  0  0  4  0  0  0  0  0  0
    0.6891    0.0105    5.2627 C   0  0  0  0  0  0  0  0  0  0  0  0
    1.3537   -2.1503    6.1077 C   0  0  1  0  0  0  0  0  0  0  0  0
    1.6485   -2.8575    7.3744 C   0  0  0  0  0  0  0  0  0  0  0  0
    1.2960   -2.4474    8.5786 C   0  0  0  0  0  0  0  0  0  0  0  0
    2.3938   -4.1132    7.2400 C   0  0  0  0  0  0  0  0  0  0  0  0
    3.1891   -4.5918    8.2739 C   0  0  0  0  0  0  0  0  0  0  0  0
    3.8574   -5.7975    8.0132 C   0  0  0  0  0  0  0  0  0  0  0  0
    3.7286   -6.4696    6.7922 C   0  0  0  0  0  0  0  0  0  0  0  0
    2.9320   -5.9780    5.7747 C   0  0  0  0  0  0  0  0  0  0  0  0
    2.2912   -4.8004    6.0557 C   0  0  0  0  0  0  0  0  0  0  0  0
    1.5143   -4.3577    5.0196 C   0  0  0  0  0  0  0  0  0  0  0  0
    0.7265   -3.1039    5.1285 C   0  0  0  0  0  0  0  0  0  0  0  0
    1.7008   -5.3403    4.0395 C   0  0  0  0  0  0  0  0  0  0  0  0
    2.5517   -6.2870    4.5293 N   0  0  0  0  0  0  0  0  0  0  0  0
   -0.2807    0.3349   10.5405 N   0  0  0  0  0  0  0  0  0  0  0  0
   -0.1286    1.1063   11.7397 C   0  0  2  0  0  0  0  0  0  0  0  0
   -1.3975    1.2587   12.5200 C   0  0  0  0  0  0  0  0  0  0  0  0
    0.3317    2.3729   11.4280 O   0  0  0  0  0  0  0  0  0  0  0  0
    1.1128    2.8363   12.4557 C   0  0  2  0  0  0  0  0  0  0  0  0
    1.3808    1.7503   13.3448 N   0  0  0  0  0  0  0  0  0  0  0  0
    0.9075    0.5850   12.6679 C   0  0  0  0  0  0  0  0  0  0  0  0
    1.3156   -0.5973   12.8578 O   0  0  0  0  0  0  0  0  0  0  0  0
    2.0107    1.9866   14.6284 C   0  0  1  0  0  0  0  0  0  0  0  0
    3.4915    2.1758   14.4533 C   0  0  0  0  0  0  0  0  0  0  0  0
    4.1931    1.1050   15.2301 C   0  0  0  0  0  0  0  0  0  0  0  0
    5.5575    0.9699   15.1038 C   0  0  0  0  0  0  0  0  0  0  0  0
    6.2477    0.0061   15.7933 C   0  0  0  0  0  0  0  0  0  0  0  0
    5.5732   -0.8598   16.6402 C   0  0  0  0  0  0  0  0  0  0  0  0
    4.2092   -0.7200   16.7624 C   0  0  0  0  0  0  0  0  0  0  0  0
    3.5175    0.2474   16.0703 C   0  0  0  0  0  0  0  0  0  0  0  0
    1.4312    3.2192   15.2220 C   0  0  0  0  0  0  0  0  0  0  0  0
    1.4862    3.3498   16.4698 O   0  0  0  0  0  0  0  0  0  0  0  0
    0.8345    4.2276   14.4573 N   0  0  0  0  0  0  0  0  0  0  0  0
    0.4262    4.0005   13.0994 C   0  0  1  0  0  0  0  0  0  0  0  0
    0.9301    5.2681   12.4215 C   0  0  0  0  0  0  0  0  0  0  0  0
    0.9666    6.3335   13.4909 C   0  0  0  0  0  0  0  0  0  0  0  0
    0.4939    5.6054   14.7513 C   0  0  0  0  0  0  0  0  0  0  0  0
    2.3470    3.2312   11.8924 O   0  0  0  0  0  0  0  0  0  0  0  0
  1  2  2  0
  3  2  1  1
  3  4  1  0
  4  5  1  0
  5  6  1  6
  5  7  1  0
  7  8  1  0
  8  9  2  0
  8 10  1  0
 10 11  2  0
 11 12  1  0
 12 13  2  0
 13 14  1  0
 14 15  2  0
 15 16  1  0
 16 17  1  0
 16 18  2  0
 18 19  1  0
  2 20  1  0
 20 21  1  0
 21 22  1  1
 21 23  1  0
 23 24  1  0
 24 25  1  0
 25 26  1  0
 26 27  2  0
 25 28  1  0
 28 29  1  6
 29 30  1  0
 30 31  2  0
 31 32  1  0
 32 33  2  0
 33 34  1  0
 34 35  2  0
 28 36  1  0
 36 37  2  0
 36 38  1  0
 38 39  1  0
 39 40  1  6
 40 41  1  0
 41 42  1  0
 24 43  1  6
  9  3  1  0
 15 10  1  0
 26 21  1  0
 35 30  1  0
 42 38  1  0
  7 17  1  6
 39 24  1  0
 19 14  1  0
M  CHG  1   5   1
M  END
$$$$
