
     RDKit          3D

 43 50  0  0  0  0  0  0  0  0999 V2000
    2.2304   -1.2286   10.6721 O   0  0  0  0  0  0  0  0  0  0  0  0
    1.1144   -0.9154   10.1926 C   0  0  0  0  0  0  0  0  0  0  0  0
    0.7487   -1.4626    8.8725 C   0  0  1  0  0  0  0  0  0  0  0  0
    0.9633   -0.4735    7.7565 C   0  0  0  0  0  0  0  0  0  0  0  0
    0.3640   -1.0526    6.5552 N   0  0  1  0  0  4  0  0  0  0  0  0
    0.3100   -0.0045    5.5658 C   0  0  0  0  0  0  0  0  0  0  0  0
    1.0989   -2.2173    6.1190 C   0  0  1  0  0  0  0  0  0  0  0  0
    1.6011   -3.0158    7.2599 C   0  0  0  0  0  0  0  0  0  0  0  0
    1.4596   -2.7013    8.5341 C   0  0  0  0  0  0  0  0  0  0  0  0
    2.3075   -4.2512    6.9060 C   0  0  0  0  0  0  0  0  0  0  0  0
    3.2645   -4.7998    7.7508 C   0  0  0  0  0  0  0  0  0  0  0  0
    3.8738   -5.9764    7.2897 C   0  0  0  0  0  0  0  0  0  0  0  0
    3.5370   -6.5551    6.0605 C   0  0  0  0  0  0  0  0  0  0  0  0
    2.5816   -5.9947    5.2330 C   0  0  0  0  0  0  0  0  0  0  0  0
    2.0028   -4.8475    5.7072 C   0  0  0  0  0  0  0  0  0  0  0  0
    1.0635   -4.3343    4.8544 C   0  0  0  0  0  0  0  0  0  0  0  0
    0.3108   -3.0993    5.1904 C   0  0  0  0  0  0  0  0  0  0  0  0
    1.0769   -5.2382    3.7850 C   0  0  0  0  0  0  0  0  0  0  0  0
    1.9945   -6.2118    4.0501 N   0  0  0  0  0  0  0  0  0  0  0  0
    0.2636   -0.0625   10.9258 N   0  0  0  0  0  0  0  0  0  0  0  0
    0.6253    0.6186   12.1347 C   0  0  2  0  0  0  0  0  0  0  0  0
   -0.5392    0.9140   13.0284 C   0  0  0  0  0  0  0  0  0  0  0  0
    1.2414    1.8192   11.8308 O   0  0  0  0  0  0  0  0  0  0  0  0
    2.1636    2.1135   12.8025 C   0  0  2  0  0  0  0  0  0  0  0  0
    2.3390    0.9576   13.6239 N   0  0  0  0  0  0  0  0  0  0  0  0
    1.6448   -0.0922   12.9486 C   0  0  0  0  0  0  0  0  0  0  0  0
    1.8872   -1.3290   13.0581 O   0  0  0  0  0  0  0  0  0  0  0  0
    3.0993    1.0366   14.8551 C   0  0  1  0  0  0  0  0  0  0  0  0
    4.5726    1.0183   14.5579 C   0  0  0  0  0  0  0  0  0  0  0  0
    5.2374    0.1172   15.5522 C   0  0  0  0  0  0  0  0  0  0  0  0
    5.5056    0.5949   16.8153 C   0  0  0  0  0  0  0  0  0  0  0  0
    6.1121   -0.1895   17.7627 C   0  0  0  0  0  0  0  0  0  0  0  0
    6.4699   -1.4940   17.4595 C   0  0  0  0  0  0  0  0  0  0  0  0
    6.1992   -1.9661   16.1950 C   0  0  0  0  0  0  0  0  0  0  0  0
    5.5906   -1.1784   15.2450 C   0  0  0  0  0  0  0  0  0  0  0  0
    2.7592    2.3093   15.5424 C   0  0  0  0  0  0  0  0  0  0  0  0
    2.9343    2.3687   16.7845 O   0  0  0  0  0  0  0  0  0  0  0  0
    2.2583    3.4298   14.8707 N   0  0  0  0  0  0  0  0  0  0  0  0
    1.7117    3.3315   13.5465 C   0  0  1  0  0  0  0  0  0  0  0  0
    2.3410    4.5449   12.8742 C   0  0  0  0  0  0  0  0  0  0  0  0
    2.6220    5.5397   13.9749 C   0  0  0  0  0  0  0  0  0  0  0  0
    2.1507    4.8261   15.2442 C   0  0  0  0  0  0  0  0  0  0  0  0
    3.3926    2.3532   12.1480 O   0  0  0  0  0  0  0  0  0  0  0  0
  1  2  2  0
  3  2  1  1
  3  4  1  0
  4  5  1  0
  5  6  1  6
  5  7  1  0
  7  8  1  0
  8  9  2  0
  8 10  1  0
 10 11  2  0
 11 12  1  0
 12 13  2  0
 13 14  1  0
 14 15  2  0
 15 16  1  0
 16 17  1  0
 16 18  2  0
 18 19  1  0
  2 20  1  0
 20 21  1  0
 21 22  1  1
 21 23  1  0
 23 24  1  0
 24 25  1  0
 25 26  1  0
 26 27  2  0
 25 28  1  0
 28 29  1  6
 29 30  1  0
 30 31  2  0
 31 32  1  0
 32 33  2  0
 33 34  1  0
 34 35  2  0
 28 36  1  0
 36 37  2  0
 36 38  1  0
 38 39  1  0
 39 40  1  6
 40 41  1  0
 41 42  1  0
 24 43  1  6
  9  3  1  0
 15 10  1  0
 26 21  1  0
 35 30  1  0
 42 38  1  0
  7 17  1  6
 39 24  1  0
 19 14  1  0
M  CHG  1   5   1
M  END
$$$$
