
     RDKit          3D

 43 50  0  0  0  0  0  0  0  0999 V2000
    1.1869   -1.4120   11.0045 O   0  0  0  0  0  0  0  0  0  0  0  0
    0.3859   -0.8541   10.2168 C   0  0  0  0  0  0  0  0  0  0  0  0
    0.2193   -1.4345    8.8710 C   0  0  1  0  0  0  0  0  0  0  0  0
    0.4525   -0.4285    7.7740 C   0  0  0  0  0  0  0  0  0  0  0  0
    0.0453   -1.0640    6.5218 N   0  0  1  0  0  4  0  0  0  0  0  0
   -0.0068   -0.0261    5.5217 C   0  0  0  0  0  0  0  0  0  0  0  0
    0.9346   -2.1493    6.1782 C   0  0  1  0  0  0  0  0  0  0  0  0
    1.3891   -2.8941    7.3741 C   0  0  0  0  0  0  0  0  0  0  0  0
    1.0818   -2.5958    8.6227 C   0  0  0  0  0  0  0  0  0  0  0  0
    2.2485   -4.0525    7.1099 C   0  0  0  0  0  0  0  0  0  0  0  0
    3.1596   -4.5032    8.0572 C   0  0  0  0  0  0  0  0  0  0  0  0
    3.9285   -5.6129    7.6754 C   0  0  0  0  0  0  0  0  0  0  0  0
    3.7840   -6.2218    6.4234 C   0  0  0  0  0  0  0  0  0  0  0  0
    2.8715   -5.7593    5.4934 C   0  0  0  0  0  0  0  0  0  0  0  0
    2.1342   -4.6758    5.8917 C   0  0  0  0  0  0  0  0  0  0  0  0
    1.2449   -4.2587    4.9387 C   0  0  0  0  0  0  0  0  0  0  0  0
    0.3417   -3.1052    5.1802 C   0  0  0  0  0  0  0  0  0  0  0  0
    1.4622   -5.1562    3.8861 C   0  0  0  0  0  0  0  0  0  0  0  0
    2.4384   -6.0334    4.2571 N   0  0  0  0  0  0  0  0  0  0  0  0
   -0.3154    0.2926   10.6438 N   0  0  0  0  0  0  0  0  0  0  0  0
    0.0002    1.0617   11.8122 C   0  0  2  0  0  0  0  0  0  0  0  0
   -1.2035    1.6193   12.5067 C   0  0  0  0  0  0  0  0  0  0  0  0
    0.8202    2.1215   11.4692 O   0  0  0  0  0  0  0  0  0  0  0  0
    1.6560    2.4055   12.5189 C   0  0  2  0  0  0  0  0  0  0  0  0
    1.5592    1.3461   13.4729 N   0  0  0  0  0  0  0  0  0  0  0  0
    0.7996    0.3250   12.8246 C   0  0  0  0  0  0  0  0  0  0  0  0
    0.8398   -0.9103   13.0944 O   0  0  0  0  0  0  0  0  0  0  0  0
    2.1735    1.4722   14.7794 C   0  0  1  0  0  0  0  0  0  0  0  0
    3.6520    1.2186   14.6849 C   0  0  0  0  0  0  0  0  0  0  0  0
    3.9567   -0.0442   15.4299 C   0  0  0  0  0  0  0  0  0  0  0  0
    3.4631   -0.2059   16.7050 C   0  0  0  0  0  0  0  0  0  0  0  0
    3.7126   -1.3431   17.4297 C   0  0  0  0  0  0  0  0  0  0  0  0
    4.4766   -2.3622   16.8824 C   0  0  0  0  0  0  0  0  0  0  0  0
    4.9675   -2.1948   15.6072 C   0  0  0  0  0  0  0  0  0  0  0  0
    4.7165   -1.0535   14.8808 C   0  0  0  0  0  0  0  0  0  0  0  0
    1.9495    2.8538   15.2781 C   0  0  0  0  0  0  0  0  0  0  0  0
    1.9850    3.0410   16.5194 O   0  0  0  0  0  0  0  0  0  0  0  0
    1.7039    3.9408   14.4320 N   0  0  0  0  0  0  0  0  0  0  0  0
    1.3075    3.7555   13.0643 C   0  0  1  0  0  0  0  0  0  0  0  0
    2.1855    4.7808   12.3587 C   0  0  0  0  0  0  0  0  0  0  0  0
    2.4814    5.8561   13.3767 C   0  0  0  0  0  0  0  0  0  0  0  0
    1.7635    5.3740   14.6395 C   0  0  0  0  0  0  0  0  0  0  0  0
    2.9751    2.3947   12.0127 O   0  0  0  0  0  0  0  0  0  0  0  0
  1  2  2  0
  3  2  1  1
  3  4  1  0
  4  5  1  0
  5  6  1  6
  5  7  1  0
  7  8  1  0
  8  9  2  0
  8 10  1  0
 10 11  2  0
 11 12  1  0
 12 13  2  0
 13 14  1  0
 14 15  2  0
 15 16  1  0
 16 17  1  0
 16 18  2  0
 18 19  1  0
  2 20  1  0
 20 21  1  0
 21 22  1  1
 21 23  1  0
 23 24  1  0
 24 25  1  0
 25 26  1  0
 26 27  2  0
 25 28  1  0
 28 29  1  6
 29 30  1  0
 30 31  2  0
 31 32  1  0
 32 33  2  0
 33 34  1  0
 34 35  2  0
 28 36  1  0
 36 37  2  0
 36 38  1  0
 38 39  1  0
 39 40  1  6
 40 41  1  0
 41 42  1  0
 24 43  1  6
  9  3  1  0
 15 10  1  0
 26 21  1  0
 35 30  1  0
 42 38  1  0
  7 17  1  6
 39 24  1  0
 19 14  1  0
M  CHG  1   5   1
M  END
$$$$
