
     RDKit          3D

 43 50  0  0  0  0  0  0  0  0999 V2000
    2.5882   -1.2616   10.3805 O   0  0  0  0  0  0  0  0  0  0  0  0
    1.4272   -0.9918    9.9896 C   0  0  0  0  0  0  0  0  0  0  0  0
    1.0137   -1.4757    8.6589 C   0  0  1  0  0  0  0  0  0  0  0  0
    1.2438   -0.4551    7.5748 C   0  0  0  0  0  0  0  0  0  0  0  0
    0.5981   -0.9664    6.3668 N   0  0  1  0  0  4  0  0  0  0  0  0
    0.5646    0.1187    5.4172 C   0  0  0  0  0  0  0  0  0  0  0  0
    1.2781   -2.1414    5.8731 C   0  0  1  0  0  0  0  0  0  0  0  0
    1.7721   -2.9999    6.9733 C   0  0  0  0  0  0  0  0  0  0  0  0
    1.6689   -2.7273    8.2607 C   0  0  0  0  0  0  0  0  0  0  0  0
    2.4226   -4.2474    6.5599 C   0  0  0  0  0  0  0  0  0  0  0  0
    3.3745   -4.8628    7.3634 C   0  0  0  0  0  0  0  0  0  0  0  0
    3.9281   -6.0440    6.8470 C   0  0  0  0  0  0  0  0  0  0  0  0
    3.5441   -6.5638    5.6055 C   0  0  0  0  0  0  0  0  0  0  0  0
    2.5946   -5.9374    4.8197 C   0  0  0  0  0  0  0  0  0  0  0  0
    2.0705   -4.7872    5.3473 C   0  0  0  0  0  0  0  0  0  0  0  0
    1.1346   -4.2076    4.5342 C   0  0  0  0  0  0  0  0  0  0  0  0
    0.4376   -2.9580    4.9307 C   0  0  0  0  0  0  0  0  0  0  0  0
    1.0912   -5.0713    3.4329 C   0  0  0  0  0  0  0  0  0  0  0  0
    1.9754   -6.0882    3.6427 N   0  0  0  0  0  0  0  0  0  0  0  0
    0.5734   -0.2451   10.8277 N   0  0  0  0  0  0  0  0  0  0  0  0
    0.9578    0.3457   12.0764 C   0  0  2  0  0  0  0  0  0  0  0  0
   -0.2017    0.6931   12.9580 C   0  0  0  0  0  0  0  0  0  0  0  0
    1.6767    1.5047   11.8458 O   0  0  0  0  0  0  0  0  0  0  0  0
    2.5943    1.6758   12.8507 C   0  0  2  0  0  0  0  0  0  0  0  0
    2.6543    0.4717   13.6176 N   0  0  0  0  0  0  0  0  0  0  0  0
    1.8949   -0.4843   12.8762 C   0  0  0  0  0  0  0  0  0  0  0  0
    2.0335   -1.7406   12.9297 O   0  0  0  0  0  0  0  0  0  0  0  0
    3.3865    0.4294   14.8676 C   0  0  1  0  0  0  0  0  0  0  0  0
    4.8606    0.3042   14.6021 C   0  0  0  0  0  0  0  0  0  0  0  0
    5.4107   -0.7479   15.5147 C   0  0  0  0  0  0  0  0  0  0  0  0
    4.6061   -1.2626   16.5064 C   0  0  0  0  0  0  0  0  0  0  0  0
    5.0612   -2.2276   17.3679 C   0  0  0  0  0  0  0  0  0  0  0  0
    6.3568   -2.7070   17.2525 C   0  0  0  0  0  0  0  0  0  0  0  0
    7.1566   -2.1887   16.2592 C   0  0  0  0  0  0  0  0  0  0  0  0
    6.6991   -1.2204   15.3952 C   0  0  0  0  0  0  0  0  0  0  0  0
    3.1329    1.6916   15.6093 C   0  0  0  0  0  0  0  0  0  0  0  0
    3.2801    1.6774   16.8564 O   0  0  0  0  0  0  0  0  0  0  0  0
    2.7419    2.8801   14.9831 N   0  0  0  0  0  0  0  0  0  0  0  0
    2.2236    2.8901   13.6440 C   0  0  1  0  0  0  0  0  0  0  0  0
    2.9663    4.0782   13.0464 C   0  0  0  0  0  0  0  0  0  0  0  0
    3.2984    4.9932   14.2008 C   0  0  0  0  0  0  0  0  0  0  0  0
    2.7382    4.2613   15.4226 C   0  0  0  0  0  0  0  0  0  0  0  0
    3.8552    1.8445   12.2358 O   0  0  0  0  0  0  0  0  0  0  0  0
  1  2  2  0
  3  2  1  1
  3  4  1  0
  4  5  1  0
  5  6  1  6
  5  7  1  0
  7  8  1  0
  8  9  2  0
  8 10  1  0
 10 11  2  0
 11 12  1  0
 12 13  2  0
 13 14  1  0
 14 15  2  0
 15 16  1  0
 16 17  1  0
 16 18  2  0
 18 19  1  0
  2 20  1  0
 20 21  1  0
 21 22  1  1
 21 23  1  0
 23 24  1  0
 24 25  1  0
 25 26  1  0
 26 27  2  0
 25 28  1  0
 28 29  1  6
 29 30  1  0
 30 31  2  0
 31 32  1  0
 32 33  2  0
 33 34  1  0
 34 35  2  0
 28 36  1  0
 36 37  2  0
 36 38  1  0
 38 39  1  0
 39 40  1  6
 40 41  1  0
 41 42  1  0
 24 43  1  6
  9  3  1  0
 15 10  1  0
 26 21  1  0
 35 30  1  0
 42 38  1  0
  7 17  1  6
 39 24  1  0
 19 14  1  0
M  CHG  1   5   1
M  END
$$$$
