
     RDKit          3D

 43 50  0  0  0  0  0  0  0  0999 V2000
    1.5316   -2.0565   10.9944 O   0  0  0  0  0  0  0  0  0  0  0  0
    0.6421   -1.4596   10.3418 C   0  0  0  0  0  0  0  0  0  0  0  0
    0.3405   -1.9405    8.9803 C   0  0  1  0  0  0  0  0  0  0  0  0
    0.5805   -0.8887    7.9287 C   0  0  0  0  0  0  0  0  0  0  0  0
    0.0414   -1.4120    6.6744 N   0  0  1  0  0  4  0  0  0  0  0  0
    0.0068   -0.3128    5.7412 C   0  0  0  0  0  0  0  0  0  0  0  0
    0.8158   -2.5384    6.2072 C   0  0  1  0  0  0  0  0  0  0  0  0
    1.2871   -3.3889    7.3234 C   0  0  0  0  0  0  0  0  0  0  0  0
    1.0883   -3.1465    8.6057 C   0  0  0  0  0  0  0  0  0  0  0  0
    2.0310   -4.5909    6.9333 C   0  0  0  0  0  0  0  0  0  0  0  0
    2.9637   -5.1680    7.7862 C   0  0  0  0  0  0  0  0  0  0  0  0
    3.6138   -6.3072    7.2882 C   0  0  0  0  0  0  0  0  0  0  0  0
    3.3381   -6.8240    6.0170 C   0  0  0  0  0  0  0  0  0  0  0  0
    2.4061   -6.2361    5.1820 C   0  0  0  0  0  0  0  0  0  0  0  0
    1.7864   -5.1264    5.6927 C   0  0  0  0  0  0  0  0  0  0  0  0
    0.8723   -4.5840    4.8307 C   0  0  0  0  0  0  0  0  0  0  0  0
    0.0829   -3.3822    5.2009 C   0  0  0  0  0  0  0  0  0  0  0  0
    0.9464   -5.4281    3.7158 C   0  0  0  0  0  0  0  0  0  0  0  0
    1.8713   -6.3987    3.9660 N   0  0  0  0  0  0  0  0  0  0  0  0
   -0.0265   -0.3651   10.9285 N   0  0  0  0  0  0  0  0  0  0  0  0
    0.3674    0.2823   12.1458 C   0  0  2  0  0  0  0  0  0  0  0  0
   -0.7721    0.5468   13.0806 C   0  0  0  0  0  0  0  0  0  0  0  0
    0.9703    1.4938   11.8594 O   0  0  0  0  0  0  0  0  0  0  0  0
    1.9189    1.7640   12.8124 C   0  0  2  0  0  0  0  0  0  0  0  0
    2.1219    0.5856   13.5946 N   0  0  0  0  0  0  0  0  0  0  0  0
    1.4122   -0.4472   12.9093 C   0  0  0  0  0  0  0  0  0  0  0  0
    1.6621   -1.6856   12.9760 O   0  0  0  0  0  0  0  0  0  0  0  0
    2.9169    0.6324   14.8054 C   0  0  1  0  0  0  0  0  0  0  0  0
    4.3811    0.6291   14.4659 C   0  0  0  0  0  0  0  0  0  0  0  0
    5.1252    0.0278   15.6179 C   0  0  0  0  0  0  0  0  0  0  0  0
    6.4143    0.4397   15.8716 C   0  0  0  0  0  0  0  0  0  0  0  0
    7.1387   -0.0789   16.9141 C   0  0  0  0  0  0  0  0  0  0  0  0
    6.5770   -1.0398   17.7406 C   0  0  0  0  0  0  0  0  0  0  0  0
    5.2879   -1.4478   17.4820 C   0  0  0  0  0  0  0  0  0  0  0  0
    4.5617   -0.9267   16.4358 C   0  0  0  0  0  0  0  0  0  0  0  0
    2.5921    1.8832   15.5387 C   0  0  0  0  0  0  0  0  0  0  0  0
    2.8025    1.9075   16.7766 O   0  0  0  0  0  0  0  0  0  0  0  0
    2.0682    3.0205   14.9144 N   0  0  0  0  0  0  0  0  0  0  0  0
    1.4843    2.9581   13.6040 C   0  0  1  0  0  0  0  0  0  0  0  0
    2.0898    4.1931   12.9495 C   0  0  0  0  0  0  0  0  0  0  0  0
    2.3987    5.1569   14.0700 C   0  0  0  0  0  0  0  0  0  0  0  0
    1.9665    4.4050   15.3310 C   0  0  0  0  0  0  0  0  0  0  0  0
    3.1278    2.0278   12.1303 O   0  0  0  0  0  0  0  0  0  0  0  0
  1  2  2  0
  3  2  1  1
  3  4  1  0
  4  5  1  0
  5  6  1  6
  5  7  1  0
  7  8  1  0
  8  9  2  0
  8 10  1  0
 10 11  2  0
 11 12  1  0
 12 13  2  0
 13 14  1  0
 14 15  2  0
 15 16  1  0
 16 17  1  0
 16 18  2  0
 18 19  1  0
  2 20  1  0
 20 21  1  0
 21 22  1  1
 21 23  1  0
 23 24  1  0
 24 25  1  0
 25 26  1  0
 26 27  2  0
 25 28  1  0
 28 29  1  6
 29 30  1  0
 30 31  2  0
 31 32  1  0
 32 33  2  0
 33 34  1  0
 34 35  2  0
 28 36  1  0
 36 37  2  0
 36 38  1  0
 38 39  1  0
 39 40  1  6
 40 41  1  0
 41 42  1  0
 24 43  1  6
  9  3  1  0
 15 10  1  0
 26 21  1  0
 35 30  1  0
 42 38  1  0
  7 17  1  6
 39 24  1  0
 19 14  1  0
M  CHG  1   5   1
M  END
$$$$
