
     RDKit          3D

 43 50  0  0  0  0  0  0  0  0999 V2000
    3.0989   -2.0581   11.4044 O   0  0  0  0  0  0  0  0  0  0  0  0
    3.8482   -3.0263   11.1317 C   0  0  0  0  0  0  0  0  0  0  0  0
    3.6818   -3.6842    9.8219 C   0  0  1  0  0  0  0  0  0  0  0  0
    2.9866   -5.0166    9.9278 C   0  0  0  0  0  0  0  0  0  0  0  0
    3.0832   -5.6512    8.6142 N   0  0  1  0  0  4  0  0  0  0  0  0
    2.6815   -7.0263    8.7815 C   0  0  0  0  0  0  0  0  0  0  0  0
    2.2968   -4.9378    7.6347 C   0  0  1  0  0  0  0  0  0  0  0  0
    2.3364   -3.4738    7.8509 C   0  0  0  0  0  0  0  0  0  0  0  0
    2.9604   -2.8642    8.8415 C   0  0  0  0  0  0  0  0  0  0  0  0
    1.6127   -2.6680    6.8624 C   0  0  0  0  0  0  0  0  0  0  0  0
    1.1047   -1.4163    7.1877 C   0  0  0  0  0  0  0  0  0  0  0  0
    0.4237   -0.7540    6.1553 C   0  0  0  0  0  0  0  0  0  0  0  0
    0.2690   -1.3200    4.8845 C   0  0  0  0  0  0  0  0  0  0  0  0
    0.7819   -2.5671    4.5791 C   0  0  0  0  0  0  0  0  0  0  0  0
    1.4418   -3.1911    5.6044 C   0  0  0  0  0  0  0  0  0  0  0  0
    1.9323   -4.4190    5.2514 C   0  0  0  0  0  0  0  0  0  0  0  0
    2.6912   -5.2523    6.2180 C   0  0  0  0  0  0  0  0  0  0  0  0
    1.5382   -4.5467    3.9138 C   0  0  0  0  0  0  0  0  0  0  0  0
    0.8559   -3.4224    3.5523 N   0  0  0  0  0  0  0  0  0  0  0  0
    4.8086   -3.4429   12.0767 N   0  0  0  0  0  0  0  0  0  0  0  0
    4.9137   -2.9437   13.4168 C   0  0  2  0  0  0  0  0  0  0  0  0
    6.0333   -3.5570   14.1994 C   0  0  0  0  0  0  0  0  0  0  0  0
    3.7363   -3.1850   14.1014 O   0  0  0  0  0  0  0  0  0  0  0  0
    3.5344   -2.1873   15.0206 C   0  0  2  0  0  0  0  0  0  0  0  0
    4.4638   -1.1347   14.7565 N   0  0  0  0  0  0  0  0  0  0  0  0
    5.0631   -1.4682   13.5035 C   0  0  0  0  0  0  0  0  0  0  0  0
    5.5867   -0.6498   12.6933 O   0  0  0  0  0  0  0  0  0  0  0  0
    4.6227   -0.0394   15.6921 C   0  0  1  0  0  0  0  0  0  0  0  0
    3.4993    0.9465   15.5332 C   0  0  0  0  0  0  0  0  0  0  0  0
    4.0841    2.3250   15.5440 C   0  0  0  0  0  0  0  0  0  0  0  0
    5.3992    2.4923   15.9155 C   0  0  0  0  0  0  0  0  0  0  0  0
    5.9827    3.7331   15.9418 C   0  0  0  0  0  0  0  0  0  0  0  0
    5.2473    4.8544   15.5899 C   0  0  0  0  0  0  0  0  0  0  0  0
    3.9330    4.6809   15.2194 C   0  0  0  0  0  0  0  0  0  0  0  0
    3.3483    3.4355   15.1932 C   0  0  0  0  0  0  0  0  0  0  0  0
    4.5956   -0.5868   17.0731 C   0  0  0  0  0  0  0  0  0  0  0  0
    5.1536    0.0810   17.9785 O   0  0  0  0  0  0  0  0  0  0  0  0
    3.9817   -1.8004   17.4017 N   0  0  0  0  0  0  0  0  0  0  0  0
    3.6400   -2.7674   16.3967 C   0  0  1  0  0  0  0  0  0  0  0  0
    2.2391   -3.1721   16.8374 C   0  0  0  0  0  0  0  0  0  0  0  0
    2.1786   -2.9315   18.3269 C   0  0  0  0  0  0  0  0  0  0  0  0
    3.5628   -2.3733   18.6655 C   0  0  0  0  0  0  0  0  0  0  0  0
    2.2394   -1.6701   14.7927 O   0  0  0  0  0  0  0  0  0  0  0  0
  1  2  2  0
  3  2  1  1
  3  4  1  0
  4  5  1  0
  5  6  1  1
  5  7  1  0
  7  8  1  0
  8  9  2  0
  8 10  1  0
 10 11  2  0
 11 12  1  0
 12 13  2  0
 13 14  1  0
 14 15  2  0
 15 16  1  0
 16 17  1  0
 16 18  2  0
 18 19  1  0
  2 20  1  0
 20 21  1  0
 21 22  1  1
 21 23  1  0
 23 24  1  0
 24 25  1  0
 25 26  1  0
 26 27  2  0
 25 28  1  0
 28 29  1  1
 29 30  1  0
 30 31  2  0
 31 32  1  0
 32 33  2  0
 33 34  1  0
 34 35  2  0
 28 36  1  0
 36 37  2  0
 36 38  1  0
 38 39  1  0
 39 40  1  1
 40 41  1  0
 41 42  1  0
 24 43  1  6
  9  3  1  0
 15 10  1  0
 26 21  1  0
 35 30  1  0
 42 38  1  0
  7 17  1  6
 39 24  1  0
 19 14  1  0
M  CHG  1   5   1
M  END
$$$$
