
     RDKit          3D

 43 50  0  0  0  0  0  0  0  0999 V2000
    1.9637   -1.8215   10.9392 O   0  0  0  0  0  0  0  0  0  0  0  0
    1.0150   -1.2284   10.3722 C   0  0  0  0  0  0  0  0  0  0  0  0
    0.6779   -1.6218    8.9911 C   0  0  1  0  0  0  0  0  0  0  0  0
    0.9374   -0.5206    7.9960 C   0  0  0  0  0  0  0  0  0  0  0  0
    0.3631   -0.9546    6.7235 N   0  0  1  0  0  4  0  0  0  0  0  0
    0.3514    0.1960    5.8539 C   0  0  0  0  0  0  0  0  0  0  0  0
    1.0928   -2.0773    6.1814 C   0  0  1  0  0  0  0  0  0  0  0  0
    1.5519   -3.0042    7.2405 C   0  0  0  0  0  0  0  0  0  0  0  0
    1.3799   -2.8282    8.5374 C   0  0  0  0  0  0  0  0  0  0  0  0
    2.2498   -4.2056    6.7717 C   0  0  0  0  0  0  0  0  0  0  0  0
    3.1752   -4.8598    7.5756 C   0  0  0  0  0  0  0  0  0  0  0  0
    3.7798   -5.9894    7.0042 C   0  0  0  0  0  0  0  0  0  0  0  0
    3.4687   -6.4245    5.7107 C   0  0  0  0  0  0  0  0  0  0  0  0
    2.5446   -5.7607    4.9253 C   0  0  0  0  0  0  0  0  0  0  0  0
    1.9696   -4.6622    5.5073 C   0  0  0  0  0  0  0  0  0  0  0  0
    1.0616   -4.0427    4.6919 C   0  0  0  0  0  0  0  0  0  0  0  0
    0.3179   -2.8389    5.1417 C   0  0  0  0  0  0  0  0  0  0  0  0
    1.0914   -4.8245    3.5306 C   0  0  0  0  0  0  0  0  0  0  0  0
    1.9871   -5.8370    3.7109 N   0  0  0  0  0  0  0  0  0  0  0  0
    0.3166   -0.2206   11.0690 N   0  0  0  0  0  0  0  0  0  0  0  0
    0.7832    0.4311   12.2580 C   0  0  2  0  0  0  0  0  0  0  0  0
   -0.3133    0.8066   13.2061 C   0  0  0  0  0  0  0  0  0  0  0  0
    1.4673    1.5856   11.9229 O   0  0  0  0  0  0  0  0  0  0  0  0
    2.4536    1.8124   12.8487 C   0  0  2  0  0  0  0  0  0  0  0  0
    2.5861    0.6456   13.6627 N   0  0  0  0  0  0  0  0  0  0  0  0
    1.7878   -0.3514   13.0232 C   0  0  0  0  0  0  0  0  0  0  0  0
    1.9472   -1.6024   13.1231 O   0  0  0  0  0  0  0  0  0  0  0  0
    3.4084    0.6686   14.8558 C   0  0  1  0  0  0  0  0  0  0  0  0
    4.8607    0.5466   14.4883 C   0  0  0  0  0  0  0  0  0  0  0  0
    5.5652   -0.1641   15.6022 C   0  0  0  0  0  0  0  0  0  0  0  0
    5.5720   -1.5408   15.6207 C   0  0  0  0  0  0  0  0  0  0  0  0
    6.2030   -2.2397   16.6178 C   0  0  0  0  0  0  0  0  0  0  0  0
    6.8529   -1.5616   17.6374 C   0  0  0  0  0  0  0  0  0  0  0  0
    6.8427   -0.1853   17.6137 C   0  0  0  0  0  0  0  0  0  0  0  0
    6.2095    0.5151   16.6128 C   0  0  0  0  0  0  0  0  0  0  0  0
    3.1924    1.9609   15.5565 C   0  0  0  0  0  0  0  0  0  0  0  0
    3.4307    2.0056   16.7887 O   0  0  0  0  0  0  0  0  0  0  0  0
    2.7403    3.1152   14.9078 N   0  0  0  0  0  0  0  0  0  0  0  0
    2.1252    3.0580   13.6115 C   0  0  1  0  0  0  0  0  0  0  0  0
    2.8057    4.2250   12.9077 C   0  0  0  0  0  0  0  0  0  0  0  0
    3.2088    5.1956   13.9919 C   0  0  0  0  0  0  0  0  0  0  0  0
    2.7497    4.5150   15.2836 C   0  0  0  0  0  0  0  0  0  0  0  0
    3.6637    1.9657   12.1355 O   0  0  0  0  0  0  0  0  0  0  0  0
  1  2  2  0
  3  2  1  1
  3  4  1  0
  4  5  1  0
  5  6  1  6
  5  7  1  0
  7  8  1  0
  8  9  2  0
  8 10  1  0
 10 11  2  0
 11 12  1  0
 12 13  2  0
 13 14  1  0
 14 15  2  0
 15 16  1  0
 16 17  1  0
 16 18  2  0
 18 19  1  0
  2 20  1  0
 20 21  1  0
 21 22  1  1
 21 23  1  0
 23 24  1  0
 24 25  1  0
 25 26  1  0
 26 27  2  0
 25 28  1  0
 28 29  1  6
 29 30  1  0
 30 31  2  0
 31 32  1  0
 32 33  2  0
 33 34  1  0
 34 35  2  0
 28 36  1  0
 36 37  2  0
 36 38  1  0
 38 39  1  0
 39 40  1  6
 40 41  1  0
 41 42  1  0
 24 43  1  6
  9  3  1  0
 15 10  1  0
 26 21  1  0
 35 30  1  0
 42 38  1  0
  7 17  1  6
 39 24  1  0
 19 14  1  0
M  CHG  1   5   1
M  END
$$$$
