
     RDKit          3D

 43 50  0  0  0  0  0  0  0  0999 V2000
    2.1951   -1.1918   10.5997 O   0  0  0  0  0  0  0  0  0  0  0  0
    1.0468   -0.9245   10.1715 C   0  0  0  0  0  0  0  0  0  0  0  0
    0.6411   -1.4944    8.8729 C   0  0  1  0  0  0  0  0  0  0  0  0
    0.7753   -0.5090    7.7412 C   0  0  0  0  0  0  0  0  0  0  0  0
    0.1425   -1.1170    6.5718 N   0  0  1  0  0  4  0  0  0  0  0  0
    0.0121   -0.0798    5.5781 C   0  0  0  0  0  0  0  0  0  0  0  0
    0.8938   -2.2620    6.1123 C   0  0  1  0  0  0  0  0  0  0  0  0
    1.4704   -3.0344    7.2359 C   0  0  0  0  0  0  0  0  0  0  0  0
    1.3750   -2.7133    8.5127 C   0  0  0  0  0  0  0  0  0  0  0  0
    2.1992   -4.2503    6.8604 C   0  0  0  0  0  0  0  0  0  0  0  0
    3.2090   -4.7615    7.6663 C   0  0  0  0  0  0  0  0  0  0  0  0
    3.8342   -5.9226    7.1874 C   0  0  0  0  0  0  0  0  0  0  0  0
    3.4623   -6.5222    5.9786 C   0  0  0  0  0  0  0  0  0  0  0  0
    2.4544   -5.9991    5.1899 C   0  0  0  0  0  0  0  0  0  0  0  0
    1.8611   -4.8663    5.6806 C   0  0  0  0  0  0  0  0  0  0  0  0
    0.8696   -4.3902    4.8663 C   0  0  0  0  0  0  0  0  0  0  0  0
    0.0939   -3.1763    5.2259 C   0  0  0  0  0  0  0  0  0  0  0  0
    0.8646   -5.3025    3.8040 C   0  0  0  0  0  0  0  0  0  0  0  0
    1.8231   -6.2447    4.0356 N   0  0  0  0  0  0  0  0  0  0  0  0
    0.1992   -0.0993   10.9393 N   0  0  0  0  0  0  0  0  0  0  0  0
    0.5750    0.5593   12.1564 C   0  0  2  0  0  0  0  0  0  0  0  0
   -0.5825    0.8622   13.0568 C   0  0  0  0  0  0  0  0  0  0  0  0
    1.2105    1.7533   11.8672 O   0  0  0  0  0  0  0  0  0  0  0  0
    2.1396    2.0191   12.8405 C   0  0  2  0  0  0  0  0  0  0  0  0
    2.2973    0.8494   13.6460 N   0  0  0  0  0  0  0  0  0  0  0  0
    1.5841   -0.1794   12.9583 C   0  0  0  0  0  0  0  0  0  0  0  0
    1.8059   -1.4214   13.0506 O   0  0  0  0  0  0  0  0  0  0  0  0
    3.0615    0.8991   14.8763 C   0  0  1  0  0  0  0  0  0  0  0  0
    4.5336    0.8600   14.5754 C   0  0  0  0  0  0  0  0  0  0  0  0
    5.1737   -0.1224   15.5068 C   0  0  0  0  0  0  0  0  0  0  0  0
    5.5513    0.2936   16.7638 C   0  0  0  0  0  0  0  0  0  0  0  0
    6.1408   -0.5663   17.6548 C   0  0  0  0  0  0  0  0  0  0  0  0
    6.3691   -1.8865   17.2990 C   0  0  0  0  0  0  0  0  0  0  0  0
    5.9895   -2.2967   16.0410 C   0  0  0  0  0  0  0  0  0  0  0  0
    5.3981   -1.4332   15.1477 C   0  0  0  0  0  0  0  0  0  0  0  0
    2.7443    2.1679   15.5814 C   0  0  0  0  0  0  0  0  0  0  0  0
    2.9230    2.2077   16.8238 O   0  0  0  0  0  0  0  0  0  0  0  0
    2.2609    3.3056   14.9260 N   0  0  0  0  0  0  0  0  0  0  0  0
    1.7099    3.2343   13.6019 C   0  0  1  0  0  0  0  0  0  0  0  0
    2.3581    4.4459   12.9444 C   0  0  0  0  0  0  0  0  0  0  0  0
    2.6581    5.4210   14.0577 C   0  0  0  0  0  0  0  0  0  0  0  0
    2.1776    4.6984   15.3184 C   0  0  0  0  0  0  0  0  0  0  0  0
    3.3711    2.2468   12.1864 O   0  0  0  0  0  0  0  0  0  0  0  0
  1  2  2  0
  3  2  1  1
  3  4  1  0
  4  5  1  0
  5  6  1  6
  5  7  1  0
  7  8  1  0
  8  9  2  0
  8 10  1  0
 10 11  2  0
 11 12  1  0
 12 13  2  0
 13 14  1  0
 14 15  2  0
 15 16  1  0
 16 17  1  0
 16 18  2  0
 18 19  1  0
  2 20  1  0
 20 21  1  0
 21 22  1  1
 21 23  1  0
 23 24  1  0
 24 25  1  0
 25 26  1  0
 26 27  2  0
 25 28  1  0
 28 29  1  6
 29 30  1  0
 30 31  2  0
 31 32  1  0
 32 33  2  0
 33 34  1  0
 34 35  2  0
 28 36  1  0
 36 37  2  0
 36 38  1  0
 38 39  1  0
 39 40  1  6
 40 41  1  0
 41 42  1  0
 24 43  1  6
  9  3  1  0
 15 10  1  0
 26 21  1  0
 35 30  1  0
 42 38  1  0
  7 17  1  1
 39 24  1  0
 19 14  1  0
M  CHG  1   5   1
M  END
$$$$
