
     RDKit          3D

 43 50  0  0  0  0  0  0  0  0999 V2000
    2.1346   -1.7222   10.6132 O   0  0  0  0  0  0  0  0  0  0  0  0
    1.0311   -1.3459   10.1506 C   0  0  0  0  0  0  0  0  0  0  0  0
    0.6253   -1.8530    8.8262 C   0  0  1  0  0  0  0  0  0  0  0  0
    0.7843   -0.8227    7.7385 C   0  0  0  0  0  0  0  0  0  0  0  0
    0.1499   -1.3696    6.5401 N   0  0  1  0  0  4  0  0  0  0  0  0
    0.0442   -0.2890    5.5907 C   0  0  0  0  0  0  0  0  0  0  0  0
    0.8854   -2.5066    6.0371 C   0  0  1  0  0  0  0  0  0  0  0  0
    1.4408   -3.3359    7.1305 C   0  0  0  0  0  0  0  0  0  0  0  0
    1.3414   -3.0678    8.4192 C   0  0  0  0  0  0  0  0  0  0  0  0
    2.1518   -4.5468    6.7082 C   0  0  0  0  0  0  0  0  0  0  0  0
    3.1471   -5.1090    7.4982 C   0  0  0  0  0  0  0  0  0  0  0  0
    3.7562   -6.2591    6.9744 C   0  0  0  0  0  0  0  0  0  0  0  0
    3.3832   -6.8003    5.7386 C   0  0  0  0  0  0  0  0  0  0  0  0
    2.3900   -6.2271    4.9663 C   0  0  0  0  0  0  0  0  0  0  0  0
    1.8121   -5.1063    5.5011 C   0  0  0  0  0  0  0  0  0  0  0  0
    0.8347   -4.5791    4.7012 C   0  0  0  0  0  0  0  0  0  0  0  0
    0.0768   -3.3686    5.1072 C   0  0  0  0  0  0  0  0  0  0  0  0
    0.8222   -5.4452    3.6010 C   0  0  0  0  0  0  0  0  0  0  0  0
    1.7631   -6.4126    3.7985 N   0  0  0  0  0  0  0  0  0  0  0  0
    0.2314   -0.4632   10.9059 N   0  0  0  0  0  0  0  0  0  0  0  0
    0.6404    0.1828   12.1190 C   0  0  2  0  0  0  0  0  0  0  0  0
   -0.4904    0.4647   13.0593 C   0  0  0  0  0  0  0  0  0  0  0  0
    1.2571    1.3856   11.8255 O   0  0  0  0  0  0  0  0  0  0  0  0
    2.2144    1.6465   12.7723 C   0  0  2  0  0  0  0  0  0  0  0  0
    2.4067    0.4680   13.5571 N   0  0  0  0  0  0  0  0  0  0  0  0
    1.6801   -0.5577   12.8789 C   0  0  0  0  0  0  0  0  0  0  0  0
    1.9144   -1.7990   12.9480 O   0  0  0  0  0  0  0  0  0  0  0  0
    3.2090    0.5083   14.7633 C   0  0  1  0  0  0  0  0  0  0  0  0
    4.6711    0.4851   14.4156 C   0  0  0  0  0  0  0  0  0  0  0  0
    5.4097   -0.1557   15.5497 C   0  0  0  0  0  0  0  0  0  0  0  0
    5.6601   -1.5089   15.5071 C   0  0  0  0  0  0  0  0  0  0  0  0
    6.3327   -2.1440   16.5195 C   0  0  0  0  0  0  0  0  0  0  0  0
    6.7773   -1.4237   17.6174 C   0  0  0  0  0  0  0  0  0  0  0  0
    6.5239   -0.0711   17.6544 C   0  0  0  0  0  0  0  0  0  0  0  0
    5.8491    0.5654   16.6381 C   0  0  0  0  0  0  0  0  0  0  0  0
    2.9044    1.7653   15.4945 C   0  0  0  0  0  0  0  0  0  0  0  0
    3.1221    1.7907   16.7310 O   0  0  0  0  0  0  0  0  0  0  0  0
    2.3916    2.9073   14.8696 N   0  0  0  0  0  0  0  0  0  0  0  0
    1.7996    2.8484   13.5626 C   0  0  1  0  0  0  0  0  0  0  0  0
    2.4172    4.0736   12.9009 C   0  0  0  0  0  0  0  0  0  0  0  0
    2.7447    5.0368   14.0167 C   0  0  0  0  0  0  0  0  0  0  0  0
    2.3099    4.2943   15.2825 C   0  0  0  0  0  0  0  0  0  0  0  0
    3.4228    1.8927   12.0827 O   0  0  0  0  0  0  0  0  0  0  0  0
  1  2  2  0
  3  2  1  1
  3  4  1  0
  4  5  1  0
  5  6  1  6
  5  7  1  0
  7  8  1  0
  8  9  2  0
  8 10  1  0
 10 11  2  0
 11 12  1  0
 12 13  2  0
 13 14  1  0
 14 15  2  0
 15 16  1  0
 16 17  1  0
 16 18  2  0
 18 19  1  0
  2 20  1  0
 20 21  1  0
 21 22  1  1
 21 23  1  0
 23 24  1  0
 24 25  1  0
 25 26  1  0
 26 27  2  0
 25 28  1  0
 28 29  1  6
 29 30  1  0
 30 31  2  0
 31 32  1  0
 32 33  2  0
 33 34  1  0
 34 35  2  0
 28 36  1  0
 36 37  2  0
 36 38  1  0
 38 39  1  0
 39 40  1  6
 40 41  1  0
 41 42  1  0
 24 43  1  6
  9  3  1  0
 15 10  1  0
 26 21  1  0
 35 30  1  0
 42 38  1  0
  7 17  1  1
 39 24  1  0
 19 14  1  0
M  CHG  1   5   1
M  END
$$$$
