
     RDKit          3D

 43 50  0  0  0  0  0  0  0  0999 V2000
    2.0001   -0.8304   10.5873 O   0  0  0  0  0  0  0  0  0  0  0  0
    0.8418   -0.6980   10.1246 C   0  0  0  0  0  0  0  0  0  0  0  0
    0.5260   -1.3617    8.8457 C   0  0  1  0  0  0  0  0  0  0  0  0
    0.7409   -0.4606    7.6575 C   0  0  0  0  0  0  0  0  0  0  0  0
    0.1895   -1.1535    6.4942 N   0  0  1  0  0  4  0  0  0  0  0  0
    0.1310   -0.1915    5.4212 C   0  0  0  0  0  0  0  0  0  0  0  0
    0.9683   -2.3268    6.1724 C   0  0  1  0  0  0  0  0  0  0  0  0
    1.4636   -3.0141    7.3864 C   0  0  0  0  0  0  0  0  0  0  0  0
    1.2804   -2.6014    8.6268 C   0  0  0  0  0  0  0  0  0  0  0  0
    2.2139   -4.2520    7.1517 C   0  0  0  0  0  0  0  0  0  0  0  0
    3.1641   -4.7006    8.0607 C   0  0  0  0  0  0  0  0  0  0  0  0
    3.8184   -5.8917    7.7121 C   0  0  0  0  0  0  0  0  0  0  0  0
    3.5300   -6.5784    6.5270 C   0  0  0  0  0  0  0  0  0  0  0  0
    2.5807   -6.1167    5.6343 C   0  0  0  0  0  0  0  0  0  0  0  0
    1.9573   -4.9529    5.9991 C   0  0  0  0  0  0  0  0  0  0  0  0
    1.0259   -4.5398    5.0853 C   0  0  0  0  0  0  0  0  0  0  0  0
    0.2299   -3.3052    5.3011 C   0  0  0  0  0  0  0  0  0  0  0  0
    1.0927   -5.5268    4.0943 C   0  0  0  0  0  0  0  0  0  0  0  0
    2.0306   -6.4471    4.4597 N   0  0  0  0  0  0  0  0  0  0  0  0
   -0.1017    0.0713   10.8368 N   0  0  0  0  0  0  0  0  0  0  0  0
    0.1663    0.7802   12.0541 C   0  0  2  0  0  0  0  0  0  0  0  0
   -1.0453    0.9806   12.9109 C   0  0  0  0  0  0  0  0  0  0  0  0
    0.6920    2.0267   11.7655 O   0  0  0  0  0  0  0  0  0  0  0  0
    1.5569    2.3955   12.7640 C   0  0  2  0  0  0  0  0  0  0  0  0
    1.8003    1.2581   13.5940 N   0  0  0  0  0  0  0  0  0  0  0  0
    1.2146    0.1550   12.9010 C   0  0  0  0  0  0  0  0  0  0  0  0
    1.5531   -1.0579   13.0217 O   0  0  0  0  0  0  0  0  0  0  0  0
    2.5135    1.3994   14.8476 C   0  0  1  0  0  0  0  0  0  0  0  0
    3.9918    1.5006   14.5956 C   0  0  0  0  0  0  0  0  0  0  0  0
    4.6873    0.5415   15.5115 C   0  0  0  0  0  0  0  0  0  0  0  0
    4.0066   -0.5664   15.9643 C   0  0  0  0  0  0  0  0  0  0  0  0
    4.5978   -1.4753   16.8040 C   0  0  0  0  0  0  0  0  0  0  0  0
    5.9084   -1.2905   17.2161 C   0  0  0  0  0  0  0  0  0  0  0  0
    6.5839   -0.1811   16.7602 C   0  0  0  0  0  0  0  0  0  0  0  0
    5.9900    0.7303   15.9176 C   0  0  0  0  0  0  0  0  0  0  0  0
    2.0503    2.6406   15.5202 C   0  0  0  0  0  0  0  0  0  0  0  0
    2.1817    2.7148   16.7669 O   0  0  0  0  0  0  0  0  0  0  0  0
    1.4809    3.7163   14.8301 N   0  0  0  0  0  0  0  0  0  0  0  0
    0.9851    3.5732   13.4901 C   0  0  1  0  0  0  0  0  0  0  0  0
    1.5342    4.8333   12.8336 C   0  0  0  0  0  0  0  0  0  0  0  0
    1.6996    5.8483   13.9393 C   0  0  0  0  0  0  0  0  0  0  0  0
    1.2489    5.0996   15.1958 C   0  0  0  0  0  0  0  0  0  0  0  0
    2.7820    2.7338   12.1466 O   0  0  0  0  0  0  0  0  0  0  0  0
  1  2  2  0
  3  2  1  1
  3  4  1  0
  4  5  1  0
  5  6  1  6
  5  7  1  0
  7  8  1  0
  8  9  2  0
  8 10  1  0
 10 11  2  0
 11 12  1  0
 12 13  2  0
 13 14  1  0
 14 15  2  0
 15 16  1  0
 16 17  1  0
 16 18  2  0
 18 19  1  0
  2 20  1  0
 20 21  1  0
 21 22  1  1
 21 23  1  0
 23 24  1  0
 24 25  1  0
 25 26  1  0
 26 27  2  0
 25 28  1  0
 28 29  1  6
 29 30  1  0
 30 31  2  0
 31 32  1  0
 32 33  2  0
 33 34  1  0
 34 35  2  0
 28 36  1  0
 36 37  2  0
 36 38  1  0
 38 39  1  0
 39 40  1  6
 40 41  1  0
 41 42  1  0
 24 43  1  6
  9  3  1  0
 15 10  1  0
 26 21  1  0
 35 30  1  0
 42 38  1  0
  7 17  1  1
 39 24  1  0
 19 14  1  0
M  CHG  1   5   1
M  END
$$$$
