
     RDKit          3D

 43 50  0  0  0  0  0  0  0  0999 V2000
    1.9477   -1.3300   10.7273 O   0  0  0  0  0  0  0  0  0  0  0  0
    0.8766   -0.9957   10.1667 C   0  0  0  0  0  0  0  0  0  0  0  0
    0.5915   -1.5498    8.8297 C   0  0  1  0  0  0  0  0  0  0  0  0
    0.8329   -0.5525    7.7265 C   0  0  0  0  0  0  0  0  0  0  0  0
    0.3097   -1.1452    6.4967 N   0  0  1  0  0  4  0  0  0  0  0  0
    0.2750   -0.0967    5.5069 C   0  0  0  0  0  0  0  0  0  0  0  0
    1.0973   -2.2880    6.0960 C   0  0  1  0  0  0  0  0  0  0  0  0
    1.5650   -3.0749    7.2594 C   0  0  0  0  0  0  0  0  0  0  0  0
    1.3524   -2.7674    8.5254 C   0  0  0  0  0  0  0  0  0  0  0  0
    2.3221   -4.2892    6.9395 C   0  0  0  0  0  0  0  0  0  0  0  0
    3.2514   -4.8130    7.8297 C   0  0  0  0  0  0  0  0  0  0  0  0
    3.9152   -5.9712    7.3979 C   0  0  0  0  0  0  0  0  0  0  0  0
    3.6554   -6.5561    6.1531 C   0  0  0  0  0  0  0  0  0  0  0  0
    2.7265   -6.0206    5.2802 C   0  0  0  0  0  0  0  0  0  0  0  0
    2.0933   -4.8910    5.7266 C   0  0  0  0  0  0  0  0  0  0  0  0
    1.1830   -4.4022    4.8292 C   0  0  0  0  0  0  0  0  0  0  0  0
    0.3806   -3.1894    5.1289 C   0  0  0  0  0  0  0  0  0  0  0  0
    1.2741   -5.3028    3.7608 C   0  0  0  0  0  0  0  0  0  0  0  0
    2.2043   -6.2511    4.0697 N   0  0  0  0  0  0  0  0  0  0  0  0
   -0.0024   -0.1137   10.8289 N   0  0  0  0  0  0  0  0  0  0  0  0
    0.3124    0.6207   12.0196 C   0  0  2  0  0  0  0  0  0  0  0  0
   -0.8858    0.9536   12.8536 C   0  0  0  0  0  0  0  0  0  0  0  0
    0.9401    1.8076   11.6870 O   0  0  0  0  0  0  0  0  0  0  0  0
    1.8240    2.1460   12.6796 C   0  0  2  0  0  0  0  0  0  0  0  0
    1.9673    1.0277   13.5576 N   0  0  0  0  0  0  0  0  0  0  0  0
    1.2994   -0.0519   12.9030 C   0  0  0  0  0  0  0  0  0  0  0  0
    1.5372   -1.2823   13.0764 O   0  0  0  0  0  0  0  0  0  0  0  0
    2.6793    1.1622   14.8126 C   0  0  1  0  0  0  0  0  0  0  0  0
    4.1630    1.1329   14.5737 C   0  0  0  0  0  0  0  0  0  0  0  0
    4.8018    0.3831   15.7016 C   0  0  0  0  0  0  0  0  0  0  0  0
    5.8428   -0.4764   15.4306 C   0  0  0  0  0  0  0  0  0  0  0  0
    6.4622   -1.1862   16.4271 C   0  0  0  0  0  0  0  0  0  0  0  0
    6.0443   -1.0478   17.7417 C   0  0  0  0  0  0  0  0  0  0  0  0
    5.0031   -0.1871   18.0065 C   0  0  0  0  0  0  0  0  0  0  0  0
    4.3822    0.5247   17.0060 C   0  0  0  0  0  0  0  0  0  0  0  0
    2.3131    2.4635   15.4292 C   0  0  0  0  0  0  0  0  0  0  0  0
    2.4400    2.5780   16.6734 O   0  0  0  0  0  0  0  0  0  0  0  0
    1.8388    3.5525   14.6898 N   0  0  0  0  0  0  0  0  0  0  0  0
    1.3440    3.3950   13.3510 C   0  0  1  0  0  0  0  0  0  0  0  0
    1.9991    4.5784   12.6506 C   0  0  0  0  0  0  0  0  0  0  0  0
    2.2375    5.6213   13.7163 C   0  0  0  0  0  0  0  0  0  0  0  0
    1.7172    4.9638   14.9967 C   0  0  0  0  0  0  0  0  0  0  0  0
    3.0776    2.3583   12.0632 O   0  0  0  0  0  0  0  0  0  0  0  0
  1  2  2  0
  3  2  1  1
  3  4  1  0
  4  5  1  0
  5  6  1  6
  5  7  1  0
  7  8  1  0
  8  9  2  0
  8 10  1  0
 10 11  2  0
 11 12  1  0
 12 13  2  0
 13 14  1  0
 14 15  2  0
 15 16  1  0
 16 17  1  0
 16 18  2  0
 18 19  1  0
  2 20  1  0
 20 21  1  0
 21 22  1  1
 21 23  1  0
 23 24  1  0
 24 25  1  0
 25 26  1  0
 26 27  2  0
 25 28  1  0
 28 29  1  6
 29 30  1  0
 30 31  2  0
 31 32  1  0
 32 33  2  0
 33 34  1  0
 34 35  2  0
 28 36  1  0
 36 37  2  0
 36 38  1  0
 38 39  1  0
 39 40  1  6
 40 41  1  0
 41 42  1  0
 24 43  1  6
  9  3  1  0
 15 10  1  0
 26 21  1  0
 35 30  1  0
 42 38  1  0
  7 17  1  6
 39 24  1  0
 19 14  1  0
M  CHG  1   5   1
M  END
$$$$
