
     RDKit          3D

 43 50  0  0  0  0  0  0  0  0999 V2000
    2.2197   -1.3075   10.6096 O   0  0  0  0  0  0  0  0  0  0  0  0
    1.0668   -1.0530   10.1863 C   0  0  0  0  0  0  0  0  0  0  0  0
    0.6662   -1.6176    8.8837 C   0  0  1  0  0  0  0  0  0  0  0  0
    0.8048   -0.6276    7.7566 C   0  0  0  0  0  0  0  0  0  0  0  0
    0.1767   -1.2308    6.5822 N   0  0  1  0  0  4  0  0  0  0  0  0
    0.0502   -0.1896    5.5922 C   0  0  0  0  0  0  0  0  0  0  0  0
    0.9300   -2.3739    6.1210 C   0  0  1  0  0  0  0  0  0  0  0  0
    1.5023   -3.1509    7.2437 C   0  0  0  0  0  0  0  0  0  0  0  0
    1.4017   -2.8349    8.5214 C   0  0  0  0  0  0  0  0  0  0  0  0
    2.2326   -4.3651    6.8661 C   0  0  0  0  0  0  0  0  0  0  0  0
    3.2393   -4.8794    7.6739 C   0  0  0  0  0  0  0  0  0  0  0  0
    3.8666   -6.0385    7.1928 C   0  0  0  0  0  0  0  0  0  0  0  0
    3.4995   -6.6332    5.9801 C   0  0  0  0  0  0  0  0  0  0  0  0
    2.4947   -6.1071    5.1895 C   0  0  0  0  0  0  0  0  0  0  0  0
    1.8993   -4.9763    5.6825 C   0  0  0  0  0  0  0  0  0  0  0  0
    0.9110   -4.4969    4.8662 C   0  0  0  0  0  0  0  0  0  0  0  0
    0.1337   -3.2846    5.2277 C   0  0  0  0  0  0  0  0  0  0  0  0
    0.9103   -5.4049    3.8002 C   0  0  0  0  0  0  0  0  0  0  0  0
    1.8680   -6.3480    4.0317 N   0  0  0  0  0  0  0  0  0  0  0  0
    0.2092   -0.2466   10.9629 N   0  0  0  0  0  0  0  0  0  0  0  0
    0.5831    0.4205   12.1759 C   0  0  2  0  0  0  0  0  0  0  0  0
   -0.5785    0.7528   13.0605 C   0  0  0  0  0  0  0  0  0  0  0  0
    1.2408    1.6006   11.8792 O   0  0  0  0  0  0  0  0  0  0  0  0
    2.1640    1.8632   12.8589 C   0  0  2  0  0  0  0  0  0  0  0  0
    2.2945    0.7009   13.6798 N   0  0  0  0  0  0  0  0  0  0  0  0
    1.5718   -0.3245   12.9970 C   0  0  0  0  0  0  0  0  0  0  0  0
    1.7726   -1.5687   13.1065 O   0  0  0  0  0  0  0  0  0  0  0  0
    3.0468    0.7532   14.9174 C   0  0  1  0  0  0  0  0  0  0  0  0
    4.5211    0.6869   14.6323 C   0  0  0  0  0  0  0  0  0  0  0  0
    5.0863   -0.4861   15.3720 C   0  0  0  0  0  0  0  0  0  0  0  0
    6.1179   -1.2015   14.8064 C   0  0  0  0  0  0  0  0  0  0  0  0
    6.6711   -2.2832   15.4424 C   0  0  0  0  0  0  0  0  0  0  0  0
    6.1938   -2.6792   16.6822 C   0  0  0  0  0  0  0  0  0  0  0  0
    5.1624   -1.9602   17.2427 C   0  0  0  0  0  0  0  0  0  0  0  0
    4.6079   -0.8749   16.6039 C   0  0  0  0  0  0  0  0  0  0  0  0
    2.7429    2.0354   15.6040 C   0  0  0  0  0  0  0  0  0  0  0  0
    2.9095    2.0873   16.8476 O   0  0  0  0  0  0  0  0  0  0  0  0
    2.2847    3.1727   14.9301 N   0  0  0  0  0  0  0  0  0  0  0  0
    1.7462    3.0943   13.6012 C   0  0  1  0  0  0  0  0  0  0  0  0
    2.4207    4.2873   12.9362 C   0  0  0  0  0  0  0  0  0  0  0  0
    2.7250    5.2708   14.0408 C   0  0  0  0  0  0  0  0  0  0  0  0
    2.2200    4.5713   15.3050 C   0  0  0  0  0  0  0  0  0  0  0  0
    3.4057    2.0632   12.2150 O   0  0  0  0  0  0  0  0  0  0  0  0
  1  2  2  0
  3  2  1  1
  3  4  1  0
  4  5  1  0
  5  6  1  6
  5  7  1  0
  7  8  1  0
  8  9  2  0
  8 10  1  0
 10 11  2  0
 11 12  1  0
 12 13  2  0
 13 14  1  0
 14 15  2  0
 15 16  1  0
 16 17  1  0
 16 18  2  0
 18 19  1  0
  2 20  1  0
 20 21  1  0
 21 22  1  1
 21 23  1  0
 23 24  1  0
 24 25  1  0
 25 26  1  0
 26 27  2  0
 25 28  1  0
 28 29  1  6
 29 30  1  0
 30 31  2  0
 31 32  1  0
 32 33  2  0
 33 34  1  0
 34 35  2  0
 28 36  1  0
 36 37  2  0
 36 38  1  0
 38 39  1  0
 39 40  1  6
 40 41  1  0
 41 42  1  0
 24 43  1  6
  9  3  1  0
 15 10  1  0
 26 21  1  0
 35 30  1  0
 42 38  1  0
  7 17  1  1
 39 24  1  0
 19 14  1  0
M  CHG  1   5   1
M  END
$$$$
