
     RDKit          3D

 43 50  0  0  0  0  0  0  0  0999 V2000
    1.6441   -2.2727   11.0933 O   0  0  0  0  0  0  0  0  0  0  0  0
    0.9421   -1.4509   10.4567 C   0  0  0  0  0  0  0  0  0  0  0  0
    0.6503   -1.7395    9.0398 C   0  0  1  0  0  0  0  0  0  0  0  0
    1.0041   -0.5914    8.1307 C   0  0  0  0  0  0  0  0  0  0  0  0
    0.4688   -0.9159    6.8094 N   0  0  1  0  0  4  0  0  0  0  0  0
    0.5485    0.2867    6.0171 C   0  0  0  0  0  0  0  0  0  0  0  0
    1.1707   -2.0358    6.2264 C   0  0  1  0  0  0  0  0  0  0  0  0
    1.5390   -3.0488    7.2412 C   0  0  0  0  0  0  0  0  0  0  0  0
    1.3167   -2.9472    8.5384 C   0  0  0  0  0  0  0  0  0  0  0  0
    2.2024   -4.2503    6.7247 C   0  0  0  0  0  0  0  0  0  0  0  0
    3.0599   -4.9977    7.5226 C   0  0  0  0  0  0  0  0  0  0  0  0
    3.6380   -6.1167    6.9046 C   0  0  0  0  0  0  0  0  0  0  0  0
    3.3663   -6.4537    5.5735 C   0  0  0  0  0  0  0  0  0  0  0  0
    2.5097   -5.6978    4.7948 C   0  0  0  0  0  0  0  0  0  0  0  0
    1.9592   -4.6120    5.4226 C   0  0  0  0  0  0  0  0  0  0  0  0
    1.1179   -3.8993    4.6118 C   0  0  0  0  0  0  0  0  0  0  0  0
    0.4099   -2.6920    5.1075 C   0  0  0  0  0  0  0  0  0  0  0  0
    1.1648   -4.6066    3.4042 C   0  0  0  0  0  0  0  0  0  0  0  0
    2.0047   -5.6703    3.5557 N   0  0  0  0  0  0  0  0  0  0  0  0
    0.4654   -0.2971   11.1128 N   0  0  0  0  0  0  0  0  0  0  0  0
    1.0490    0.2804   12.2884 C   0  0  2  0  0  0  0  0  0  0  0  0
    0.0420    0.8381   13.2461 C   0  0  0  0  0  0  0  0  0  0  0  0
    1.9072    1.3049   11.9318 O   0  0  0  0  0  0  0  0  0  0  0  0
    2.9304    1.3761   12.8424 C   0  0  2  0  0  0  0  0  0  0  0  0
    2.8827    0.2105   13.6676 N   0  0  0  0  0  0  0  0  0  0  0  0
    1.9235   -0.6485   13.0495 C   0  0  0  0  0  0  0  0  0  0  0  0
    1.8784   -1.9078   13.1612 O   0  0  0  0  0  0  0  0  0  0  0  0
    3.7148    0.1098   14.8499 C   0  0  1  0  0  0  0  0  0  0  0  0
    5.1224   -0.2506   14.4653 C   0  0  0  0  0  0  0  0  0  0  0  0
    5.7973   -0.8387   15.6657 C   0  0  0  0  0  0  0  0  0  0  0  0
    6.2297   -0.0010   16.6692 C   0  0  0  0  0  0  0  0  0  0  0  0
    6.8528   -0.4887   17.7892 C   0  0  0  0  0  0  0  0  0  0  0  0
    7.0605   -1.8521   17.9308 C   0  0  0  0  0  0  0  0  0  0  0  0
    6.6261   -2.6847   16.9242 C   0  0  0  0  0  0  0  0  0  0  0  0
    6.0009   -2.1944   15.8008 C   0  0  0  0  0  0  0  0  0  0  0  0
    3.7223    1.4262   15.5388 C   0  0  0  0  0  0  0  0  0  0  0  0
    3.9824    1.4425   16.7673 O   0  0  0  0  0  0  0  0  0  0  0  0
    3.4550    2.6330   14.8830 N   0  0  0  0  0  0  0  0  0  0  0  0
    2.8203    2.6653   13.5953 C   0  0  1  0  0  0  0  0  0  0  0  0
    3.6717    3.6994   12.8700 C   0  0  0  0  0  0  0  0  0  0  0  0
    4.2431    4.6009   13.9382 C   0  0  0  0  0  0  0  0  0  0  0  0
    3.6978    4.0158   15.2430 C   0  0  0  0  0  0  0  0  0  0  0  0
    4.1389    1.3236   12.1122 O   0  0  0  0  0  0  0  0  0  0  0  0
  1  2  2  0
  3  2  1  1
  3  4  1  0
  4  5  1  0
  5  6  1  6
  5  7  1  0
  7  8  1  0
  8  9  2  0
  8 10  1  0
 10 11  2  0
 11 12  1  0
 12 13  2  0
 13 14  1  0
 14 15  2  0
 15 16  1  0
 16 17  1  0
 16 18  2  0
 18 19  1  0
  2 20  1  0
 20 21  1  0
 21 22  1  1
 21 23  1  0
 23 24  1  0
 24 25  1  0
 25 26  1  0
 26 27  2  0
 25 28  1  0
 28 29  1  6
 29 30  1  0
 30 31  2  0
 31 32  1  0
 32 33  2  0
 33 34  1  0
 34 35  2  0
 28 36  1  0
 36 37  2  0
 36 38  1  0
 38 39  1  0
 39 40  1  6
 40 41  1  0
 41 42  1  0
 24 43  1  6
  9  3  1  0
 15 10  1  0
 26 21  1  0
 35 30  1  0
 42 38  1  0
  7 17  1  6
 39 24  1  0
 19 14  1  0
M  CHG  1   5   1
M  END
$$$$
