
     RDKit          3D

 43 50  0  0  0  0  0  0  0  0999 V2000
    2.3652   -1.3130   10.4627 O   0  0  0  0  0  0  0  0  0  0  0  0
    1.2391   -1.0056   10.0037 C   0  0  0  0  0  0  0  0  0  0  0  0
    0.8502   -1.5583    8.6926 C   0  0  1  0  0  0  0  0  0  0  0  0
    1.0478   -0.5750    7.5684 C   0  0  0  0  0  0  0  0  0  0  0  0
    0.4273   -1.1586    6.3801 N   0  0  1  0  0  4  0  0  0  0  0  0
    0.3585   -0.1151    5.3868 C   0  0  0  0  0  0  0  0  0  0  0  0
    1.1527   -2.3268    5.9372 C   0  0  1  0  0  0  0  0  0  0  0  0
    1.6726   -3.1208    7.0734 C   0  0  0  0  0  0  0  0  0  0  0  0
    1.5531   -2.7999    8.3482 C   0  0  0  0  0  0  0  0  0  0  0  0
    2.3707   -4.3591    6.7136 C   0  0  0  0  0  0  0  0  0  0  0  0
    3.3408   -4.9055    7.5448 C   0  0  0  0  0  0  0  0  0  0  0  0
    3.9401   -6.0855    7.0791 C   0  0  0  0  0  0  0  0  0  0  0  0
    3.5816   -6.6693    5.8585 C   0  0  0  0  0  0  0  0  0  0  0  0
    2.6135   -6.1111    5.0445 C   0  0  0  0  0  0  0  0  0  0  0  0
    2.0448   -4.9606    5.5229 C   0  0  0  0  0  0  0  0  0  0  0  0
    1.0921   -4.4497    4.6836 C   0  0  0  0  0  0  0  0  0  0  0  0
    0.3474   -3.2117    5.0263 C   0  0  0  0  0  0  0  0  0  0  0  0
    1.0859   -5.3587    3.6184 C   0  0  0  0  0  0  0  0  0  0  0  0
    2.0061   -6.3327    3.8727 N   0  0  0  0  0  0  0  0  0  0  0  0
    0.3992   -0.1535   10.7504 N   0  0  0  0  0  0  0  0  0  0  0  0
    0.7608    0.4833   11.9833 C   0  0  2  0  0  0  0  0  0  0  0  0
   -0.4004    0.7236   12.8976 C   0  0  0  0  0  0  0  0  0  0  0  0
    1.3556    1.7049   11.7239 O   0  0  0  0  0  0  0  0  0  0  0  0
    2.2814    1.9739   12.6993 C   0  0  2  0  0  0  0  0  0  0  0  0
    2.4819    0.7883   13.4713 N   0  0  0  0  0  0  0  0  0  0  0  0
    1.7981   -0.2439   12.7592 C   0  0  0  0  0  0  0  0  0  0  0  0
    2.0606   -1.4801   12.8160 O   0  0  0  0  0  0  0  0  0  0  0  0
    3.2515    0.8291   14.6986 C   0  0  1  0  0  0  0  0  0  0  0  0
    4.7222    0.8462   14.3891 C   0  0  0  0  0  0  0  0  0  0  0  0
    5.4021   -0.1259   15.3031 C   0  0  0  0  0  0  0  0  0  0  0  0
    5.3836   -1.4664   14.9895 C   0  0  0  0  0  0  0  0  0  0  0  0
    5.9913   -2.3973   15.7924 C   0  0  0  0  0  0  0  0  0  0  0  0
    6.6429   -1.9978   16.9491 C   0  0  0  0  0  0  0  0  0  0  0  0
    6.6580   -0.6563   17.2575 C   0  0  0  0  0  0  0  0  0  0  0  0
    6.0480    0.2770   16.4511 C   0  0  0  0  0  0  0  0  0  0  0  0
    2.8976    2.0670   15.4401 C   0  0  0  0  0  0  0  0  0  0  0  0
    3.0825    2.0785   16.6822 O   0  0  0  0  0  0  0  0  0  0  0  0
    2.3736    3.2060   14.8190 N   0  0  0  0  0  0  0  0  0  0  0  0
    1.8172    3.1532   13.4962 C   0  0  1  0  0  0  0  0  0  0  0  0
    2.4219    4.4028   12.8692 C   0  0  0  0  0  0  0  0  0  0  0  0
    2.6969    5.3562   14.0074 C   0  0  0  0  0  0  0  0  0  0  0  0
    2.2477    4.5841   15.2501 C   0  0  0  0  0  0  0  0  0  0  0  0
    3.5009    2.2595   12.0454 O   0  0  0  0  0  0  0  0  0  0  0  0
  1  2  2  0
  3  2  1  1
  3  4  1  0
  4  5  1  0
  5  6  1  6
  5  7  1  0
  7  8  1  0
  8  9  2  0
  8 10  1  0
 10 11  2  0
 11 12  1  0
 12 13  2  0
 13 14  1  0
 14 15  2  0
 15 16  1  0
 16 17  1  0
 16 18  2  0
 18 19  1  0
  2 20  1  0
 20 21  1  0
 21 22  1  1
 21 23  1  0
 23 24  1  0
 24 25  1  0
 25 26  1  0
 26 27  2  0
 25 28  1  0
 28 29  1  6
 29 30  1  0
 30 31  2  0
 31 32  1  0
 32 33  2  0
 33 34  1  0
 34 35  2  0
 28 36  1  0
 36 37  2  0
 36 38  1  0
 38 39  1  0
 39 40  1  6
 40 41  1  0
 41 42  1  0
 24 43  1  6
  9  3  1  0
 15 10  1  0
 26 21  1  0
 35 30  1  0
 42 38  1  0
  7 17  1  1
 39 24  1  0
 19 14  1  0
M  CHG  1   5   1
M  END
$$$$
