
     RDKit          3D

 43 50  0  0  0  0  0  0  0  0999 V2000
    2.3000   -0.8553   10.2795 O   0  0  0  0  0  0  0  0  0  0  0  0
    1.1087   -0.8037    9.8904 C   0  0  0  0  0  0  0  0  0  0  0  0
    0.7696   -1.4492    8.6081 C   0  0  1  0  0  0  0  0  0  0  0  0
    1.0025   -0.5450    7.4257 C   0  0  0  0  0  0  0  0  0  0  0  0
    0.4276   -1.2144    6.2599 N   0  0  1  0  0  4  0  0  0  0  0  0
    0.3893   -0.2431    5.1944 C   0  0  0  0  0  0  0  0  0  0  0  0
    1.1740   -2.4052    5.9255 C   0  0  1  0  0  0  0  0  0  0  0  0
    1.6568   -3.1145    7.1319 C   0  0  0  0  0  0  0  0  0  0  0  0
    1.4902   -2.7066    8.3763 C   0  0  0  0  0  0  0  0  0  0  0  0
    2.3732   -4.3697    6.8843 C   0  0  0  0  0  0  0  0  0  0  0  0
    3.3156   -4.8499    7.7853 C   0  0  0  0  0  0  0  0  0  0  0  0
    3.9368   -6.0550    7.4245 C   0  0  0  0  0  0  0  0  0  0  0  0
    3.6251   -6.7250    6.2358 C   0  0  0  0  0  0  0  0  0  0  0  0
    2.6839   -6.2318    5.3512 C   0  0  0  0  0  0  0  0  0  0  0  0
    2.0929   -5.0549    5.7277 C   0  0  0  0  0  0  0  0  0  0  0  0
    1.1684   -4.6106    4.8217 C   0  0  0  0  0  0  0  0  0  0  0  0
    0.4061   -3.3573    5.0506 C   0  0  0  0  0  0  0  0  0  0  0  0
    1.2047   -5.5915    3.8230 C   0  0  0  0  0  0  0  0  0  0  0  0
    2.1198   -6.5388    4.1769 N   0  0  0  0  0  0  0  0  0  0  0  0
    0.1518   -0.1385   10.6847 N   0  0  0  0  0  0  0  0  0  0  0  0
    0.4325    0.5329   11.9203 C   0  0  2  0  0  0  0  0  0  0  0  0
   -0.7820    0.7710   12.7631 C   0  0  0  0  0  0  0  0  0  0  0  0
    1.0185    1.7597   11.6654 O   0  0  0  0  0  0  0  0  0  0  0  0
    1.8835    2.0687   12.6839 C   0  0  2  0  0  0  0  0  0  0  0  0
    2.0622    0.9050   13.4936 N   0  0  0  0  0  0  0  0  0  0  0  0
    1.4381   -0.1562   12.7693 C   0  0  0  0  0  0  0  0  0  0  0  0
    1.7195   -1.3854   12.8698 O   0  0  0  0  0  0  0  0  0  0  0  0
    2.7614    0.9884   14.7602 C   0  0  1  0  0  0  0  0  0  0  0  0
    4.2465    1.0272   14.5322 C   0  0  0  0  0  0  0  0  0  0  0  0
    4.8635   -0.1104   15.2855 C   0  0  0  0  0  0  0  0  0  0  0  0
    6.1820   -0.4317   15.0529 C   0  0  0  0  0  0  0  0  0  0  0  0
    6.7944   -1.4638   15.7165 C   0  0  0  0  0  0  0  0  0  0  0  0
    6.0858   -2.2106   16.6450 C   0  0  0  0  0  0  0  0  0  0  0  0
    4.7680   -1.8847   16.8733 C   0  0  0  0  0  0  0  0  0  0  0  0
    4.1543   -0.8489   16.2071 C   0  0  0  0  0  0  0  0  0  0  0  0
    2.3443    2.2357   15.4516 C   0  0  0  0  0  0  0  0  0  0  0  0
    2.4594    2.2788   16.7014 O   0  0  0  0  0  0  0  0  0  0  0  0
    1.8350    3.3499   14.7756 N   0  0  0  0  0  0  0  0  0  0  0  0
    1.3542    3.2564   13.4258 C   0  0  1  0  0  0  0  0  0  0  0  0
    1.9700    4.5031   12.8037 C   0  0  0  0  0  0  0  0  0  0  0  0
    2.1637    5.4871   13.9326 C   0  0  0  0  0  0  0  0  0  0  0  0
    1.6601    4.7346   15.1665 C   0  0  0  0  0  0  0  0  0  0  0  0
    3.1321    2.3632   12.0918 O   0  0  0  0  0  0  0  0  0  0  0  0
  1  2  2  0
  3  2  1  1
  3  4  1  0
  4  5  1  0
  5  6  1  6
  5  7  1  0
  7  8  1  0
  8  9  2  0
  8 10  1  0
 10 11  2  0
 11 12  1  0
 12 13  2  0
 13 14  1  0
 14 15  2  0
 15 16  1  0
 16 17  1  0
 16 18  2  0
 18 19  1  0
  2 20  1  0
 20 21  1  0
 21 22  1  1
 21 23  1  0
 23 24  1  0
 24 25  1  0
 25 26  1  0
 26 27  2  0
 25 28  1  0
 28 29  1  6
 29 30  1  0
 30 31  2  0
 31 32  1  0
 32 33  2  0
 33 34  1  0
 34 35  2  0
 28 36  1  0
 36 37  2  0
 36 38  1  0
 38 39  1  0
 39 40  1  6
 40 41  1  0
 41 42  1  0
 24 43  1  6
  9  3  1  0
 15 10  1  0
 26 21  1  0
 35 30  1  0
 42 38  1  0
  7 17  1  1
 39 24  1  0
 19 14  1  0
M  CHG  1   5   1
M  END
$$$$
