
     RDKit          3D

 43 50  0  0  0  0  0  0  0  0999 V2000
    2.2454   -1.5184   10.7649 O   0  0  0  0  0  0  0  0  0  0  0  0
    1.2757   -0.9612   10.1970 C   0  0  0  0  0  0  0  0  0  0  0  0
    0.9416   -1.3819    8.8232 C   0  0  1  0  0  0  0  0  0  0  0  0
    1.3467   -0.3620    7.7910 C   0  0  0  0  0  0  0  0  0  0  0  0
    0.7692   -0.7933    6.5189 N   0  0  1  0  0  4  0  0  0  0  0  0
    0.9061    0.3100    5.6001 C   0  0  0  0  0  0  0  0  0  0  0  0
    1.3924   -2.0103    6.0527 C   0  0  1  0  0  0  0  0  0  0  0  0
    1.7179   -2.9290    7.1669 C   0  0  0  0  0  0  0  0  0  0  0  0
    1.5256   -2.6751    8.4479 C   0  0  0  0  0  0  0  0  0  0  0  0
    2.2989   -4.2174    6.7761 C   0  0  0  0  0  0  0  0  0  0  0  0
    3.1246   -4.9258    7.6403 C   0  0  0  0  0  0  0  0  0  0  0  0
    3.6237   -6.1381    7.1406 C   0  0  0  0  0  0  0  0  0  0  0  0
    3.3083   -6.5988    5.8571 C   0  0  0  0  0  0  0  0  0  0  0  0
    2.4843   -5.8800    5.0111 C   0  0  0  0  0  0  0  0  0  0  0  0
    2.0111   -4.7013    5.5237 C   0  0  0  0  0  0  0  0  0  0  0  0
    1.1993   -4.0297    4.6503 C   0  0  0  0  0  0  0  0  0  0  0  0
    0.5736   -2.7350    5.0203 C   0  0  0  0  0  0  0  0  0  0  0  0
    1.1820   -4.8643    3.5260 C   0  0  0  0  0  0  0  0  0  0  0  0
    1.9596   -5.9550    3.7821 N   0  0  0  0  0  0  0  0  0  0  0  0
    0.5519    0.0339   10.8860 N   0  0  0  0  0  0  0  0  0  0  0  0
    0.9293    0.5994   12.1485 C   0  0  2  0  0  0  0  0  0  0  0  0
   -0.2287    0.8483   13.0647 C   0  0  0  0  0  0  0  0  0  0  0  0
    1.5776    1.8047   11.9481 O   0  0  0  0  0  0  0  0  0  0  0  0
    2.5054    1.9904   12.9410 C   0  0  2  0  0  0  0  0  0  0  0  0
    2.6485    0.7643   13.6606 N   0  0  0  0  0  0  0  0  0  0  0  0
    1.9279   -0.2051   12.8984 C   0  0  0  0  0  0  0  0  0  0  0  0
    2.1373   -1.4528   12.9018 O   0  0  0  0  0  0  0  0  0  0  0  0
    3.4084    0.7176   14.8938 C   0  0  1  0  0  0  0  0  0  0  0  0
    4.8812    0.6855   14.5956 C   0  0  0  0  0  0  0  0  0  0  0  0
    5.5311   -0.2594   15.5584 C   0  0  0  0  0  0  0  0  0  0  0  0
    6.5504    0.1987   16.3626 C   0  0  0  0  0  0  0  0  0  0  0  0
    7.1781   -0.6255   17.2611 C   0  0  0  0  0  0  0  0  0  0  0  0
    6.7911   -1.9517   17.3755 C   0  0  0  0  0  0  0  0  0  0  0  0
    5.7715   -2.4042   16.5688 C   0  0  0  0  0  0  0  0  0  0  0  0
    5.1421   -1.5764   15.6676 C   0  0  0  0  0  0  0  0  0  0  0  0
    3.1008    1.9355   15.6874 C   0  0  0  0  0  0  0  0  0  0  0  0
    3.2751    1.8840   16.9300 O   0  0  0  0  0  0  0  0  0  0  0  0
    2.6311    3.1223   15.1141 N   0  0  0  0  0  0  0  0  0  0  0  0
    2.0846    3.1520   13.7865 C   0  0  1  0  0  0  0  0  0  0  0  0
    2.7472    4.4012   13.2201 C   0  0  0  0  0  0  0  0  0  0  0  0
    3.0524    5.2905   14.4016 C   0  0  0  0  0  0  0  0  0  0  0  0
    2.5599    4.4840   15.6055 C   0  0  0  0  0  0  0  0  0  0  0  0
    3.7416    2.2523   12.3089 O   0  0  0  0  0  0  0  0  0  0  0  0
  1  2  2  0
  3  2  1  1
  3  4  1  0
  4  5  1  0
  5  6  1  6
  5  7  1  0
  7  8  1  0
  8  9  2  0
  8 10  1  0
 10 11  2  0
 11 12  1  0
 12 13  2  0
 13 14  1  0
 14 15  2  0
 15 16  1  0
 16 17  1  0
 16 18  2  0
 18 19  1  0
  2 20  1  0
 20 21  1  0
 21 22  1  1
 21 23  1  0
 23 24  1  0
 24 25  1  0
 25 26  1  0
 26 27  2  0
 25 28  1  0
 28 29  1  6
 29 30  1  0
 30 31  2  0
 31 32  1  0
 32 33  2  0
 33 34  1  0
 34 35  2  0
 28 36  1  0
 36 37  2  0
 36 38  1  0
 38 39  1  0
 39 40  1  6
 40 41  1  0
 41 42  1  0
 24 43  1  6
  9  3  1  0
 15 10  1  0
 26 21  1  0
 35 30  1  0
 42 38  1  0
  7 17  1  6
 39 24  1  0
 19 14  1  0
M  CHG  1   5   1
M  END
$$$$
