
     RDKit          3D

 43 50  0  0  0  0  0  0  0  0999 V2000
    1.9638   -1.5199   10.8800 O   0  0  0  0  0  0  0  0  0  0  0  0
    1.0031   -0.9740   10.2865 C   0  0  0  0  0  0  0  0  0  0  0  0
    0.6687   -1.4450    8.9292 C   0  0  1  0  0  0  0  0  0  0  0  0
    0.9714   -0.4179    7.8693 C   0  0  0  0  0  0  0  0  0  0  0  0
    0.3975   -0.9155    6.6201 N   0  0  1  0  0  4  0  0  0  0  0  0
    0.4294    0.1769    5.6789 C   0  0  0  0  0  0  0  0  0  0  0  0
    1.0988   -2.0915    6.1596 C   0  0  1  0  0  0  0  0  0  0  0  0
    1.5189   -2.9617    7.2812 C   0  0  0  0  0  0  0  0  0  0  0  0
    1.3388   -2.6980    8.5620 C   0  0  0  0  0  0  0  0  0  0  0  0
    2.1853   -4.2105    6.8984 C   0  0  0  0  0  0  0  0  0  0  0  0
    3.0823   -4.8386    7.7537 C   0  0  0  0  0  0  0  0  0  0  0  0
    3.6587   -6.0198    7.2629 C   0  0  0  0  0  0  0  0  0  0  0  0
    3.3481   -6.5275    5.9961 C   0  0  0  0  0  0  0  0  0  0  0  0
    2.4525   -5.8886    5.1586 C   0  0  0  0  0  0  0  0  0  0  0  0
    1.9047   -4.7387    5.6624 C   0  0  0  0  0  0  0  0  0  0  0  0
    1.0241   -4.1465    4.7981 C   0  0  0  0  0  0  0  0  0  0  0  0
    0.3122   -2.8951    5.1611 C   0  0  0  0  0  0  0  0  0  0  0  0
    1.0425   -5.0016    3.6894 C   0  0  0  0  0  0  0  0  0  0  0  0
    1.9056   -6.0263    3.9449 N   0  0  0  0  0  0  0  0  0  0  0  0
    0.2892    0.0565   10.9325 N   0  0  0  0  0  0  0  0  0  0  0  0
    0.6693    0.6675   12.1729 C   0  0  2  0  0  0  0  0  0  0  0  0
   -0.4857    0.9419   13.0854 C   0  0  0  0  0  0  0  0  0  0  0  0
    1.3100    1.8686   11.9276 O   0  0  0  0  0  0  0  0  0  0  0  0
    2.2414    2.0936   12.9089 C   0  0  2  0  0  0  0  0  0  0  0  0
    2.3947    0.8940   13.6699 N   0  0  0  0  0  0  0  0  0  0  0  0
    1.6759   -0.1052   12.9453 C   0  0  0  0  0  0  0  0  0  0  0  0
    1.8921   -1.3508   12.9909 O   0  0  0  0  0  0  0  0  0  0  0  0
    3.1605    0.8942   14.9003 C   0  0  1  0  0  0  0  0  0  0  0  0
    4.6320    0.8597   14.5962 C   0  0  0  0  0  0  0  0  0  0  0  0
    5.3061    0.0348   15.6486 C   0  0  0  0  0  0  0  0  0  0  0  0
    5.2853    0.4680   16.9554 C   0  0  0  0  0  0  0  0  0  0  0  0
    5.8869   -0.2503   17.9567 C   0  0  0  0  0  0  0  0  0  0  0  0
    6.5348   -1.4407   17.6651 C   0  0  0  0  0  0  0  0  0  0  0  0
    6.5524   -1.8688   16.3569 C   0  0  0  0  0  0  0  0  0  0  0  0
    5.9484   -1.1474   15.3528 C   0  0  0  0  0  0  0  0  0  0  0  0
    2.8499    2.1373   15.6526 C   0  0  0  0  0  0  0  0  0  0  0  0
    3.0302    2.1298   16.8954 O   0  0  0  0  0  0  0  0  0  0  0  0
    2.3710    3.3009   15.0408 N   0  0  0  0  0  0  0  0  0  0  0  0
    1.8182    3.2816   13.7156 C   0  0  1  0  0  0  0  0  0  0  0  0
    2.4712    4.5139   13.1030 C   0  0  0  0  0  0  0  0  0  0  0  0
    2.7770    5.4453   14.2515 C   0  0  0  0  0  0  0  0  0  0  0  0
    2.2946    4.6784   15.4850 C   0  0  0  0  0  0  0  0  0  0  0  0
    3.4732    2.3400   12.2621 O   0  0  0  0  0  0  0  0  0  0  0  0
  1  2  2  0
  3  2  1  1
  3  4  1  0
  4  5  1  0
  5  6  1  6
  5  7  1  0
  7  8  1  0
  8  9  2  0
  8 10  1  0
 10 11  2  0
 11 12  1  0
 12 13  2  0
 13 14  1  0
 14 15  2  0
 15 16  1  0
 16 17  1  0
 16 18  2  0
 18 19  1  0
  2 20  1  0
 20 21  1  0
 21 22  1  1
 21 23  1  0
 23 24  1  0
 24 25  1  0
 25 26  1  0
 26 27  2  0
 25 28  1  0
 28 29  1  6
 29 30  1  0
 30 31  2  0
 31 32  1  0
 32 33  2  0
 33 34  1  0
 34 35  2  0
 28 36  1  0
 36 37  2  0
 36 38  1  0
 38 39  1  0
 39 40  1  6
 40 41  1  0
 41 42  1  0
 24 43  1  6
  9  3  1  0
 15 10  1  0
 26 21  1  0
 35 30  1  0
 42 38  1  0
  7 17  1  6
 39 24  1  0
 19 14  1  0
M  CHG  1   5   1
M  END
$$$$
