
     RDKit          3D

 43 50  0  0  0  0  0  0  0  0999 V2000
    2.3463   -1.1378   10.5550 O   0  0  0  0  0  0  0  0  0  0  0  0
    1.1757   -0.9247   10.1581 C   0  0  0  0  0  0  0  0  0  0  0  0
    0.7710   -1.4898    8.8571 C   0  0  1  0  0  0  0  0  0  0  0  0
    0.9812   -0.5272    7.7174 C   0  0  0  0  0  0  0  0  0  0  0  0
    0.3449   -1.1172    6.5407 N   0  0  1  0  0  4  0  0  0  0  0  0
    0.2904   -0.0876    5.5322 C   0  0  0  0  0  0  0  0  0  0  0  0
    1.0470   -2.3047    6.1124 C   0  0  1  0  0  0  0  0  0  0  0  0
    1.5577   -3.0910    7.2581 C   0  0  0  0  0  0  0  0  0  0  0  0
    1.4497   -2.7490    8.5284 C   0  0  0  0  0  0  0  0  0  0  0  0
    2.2317   -4.3470    6.9139 C   0  0  0  0  0  0  0  0  0  0  0  0
    3.1955   -4.8984    7.7491 C   0  0  0  0  0  0  0  0  0  0  0  0
    3.7713   -6.0958    7.2987 C   0  0  0  0  0  0  0  0  0  0  0  0
    3.3969   -6.6913    6.0886 C   0  0  0  0  0  0  0  0  0  0  0  0
    2.4353   -6.1279    5.2704 C   0  0  0  0  0  0  0  0  0  0  0  0
    1.8896   -4.9602    5.7339 C   0  0  0  0  0  0  0  0  0  0  0  0
    0.9425   -4.4448    4.8910 C   0  0  0  0  0  0  0  0  0  0  0  0
    0.2218   -3.1885    5.2182 C   0  0  0  0  0  0  0  0  0  0  0  0
    0.9151   -5.3692    3.8397 C   0  0  0  0  0  0  0  0  0  0  0  0
    1.8186   -6.3559    4.1046 N   0  0  0  0  0  0  0  0  0  0  0  0
    0.3030   -0.1620   10.9618 N   0  0  0  0  0  0  0  0  0  0  0  0
    0.6754    0.5063   12.1746 C   0  0  2  0  0  0  0  0  0  0  0  0
   -0.4822    0.7981   13.0785 C   0  0  0  0  0  0  0  0  0  0  0  0
    1.2944    1.7071   11.8779 O   0  0  0  0  0  0  0  0  0  0  0  0
    2.2240    1.9887   12.8462 C   0  0  2  0  0  0  0  0  0  0  0  0
    2.4000    0.8244   13.6558 N   0  0  0  0  0  0  0  0  0  0  0  0
    1.6971   -0.2162   12.9752 C   0  0  0  0  0  0  0  0  0  0  0  0
    1.9351   -1.4549   13.0717 O   0  0  0  0  0  0  0  0  0  0  0  0
    3.1685    0.8889   14.8827 C   0  0  1  0  0  0  0  0  0  0  0  0
    4.6397    0.8674   14.5758 C   0  0  0  0  0  0  0  0  0  0  0  0
    5.2846   -0.1571   15.4574 C   0  0  0  0  0  0  0  0  0  0  0  0
    6.0757    0.2614   16.5037 C   0  0  0  0  0  0  0  0  0  0  0  0
    6.6884   -0.6359   17.3405 C   0  0  0  0  0  0  0  0  0  0  0  0
    6.5189   -1.9976   17.1433 C   0  0  0  0  0  0  0  0  0  0  0  0
    5.7270   -2.4100   16.0955 C   0  0  0  0  0  0  0  0  0  0  0  0
    5.1125   -1.5090   15.2565 C   0  0  0  0  0  0  0  0  0  0  0  0
    2.8381    2.1565   15.5840 C   0  0  0  0  0  0  0  0  0  0  0  0
    3.0214    2.2036   16.8254 O   0  0  0  0  0  0  0  0  0  0  0  0
    2.3375    3.2852   14.9260 N   0  0  0  0  0  0  0  0  0  0  0  0
    1.7820    3.2015   13.6044 C   0  0  1  0  0  0  0  0  0  0  0  0
    2.4120    4.4185   12.9394 C   0  0  0  0  0  0  0  0  0  0  0  0
    2.7041    5.4019   14.0474 C   0  0  0  0  0  0  0  0  0  0  0  0
    2.2380    4.6785   15.3131 C   0  0  0  0  0  0  0  0  0  0  0  0
    3.4498    2.2294   12.1861 O   0  0  0  0  0  0  0  0  0  0  0  0
  1  2  2  0
  3  2  1  1
  3  4  1  0
  4  5  1  0
  5  6  1  6
  5  7  1  0
  7  8  1  0
  8  9  2  0
  8 10  1  0
 10 11  2  0
 11 12  1  0
 12 13  2  0
 13 14  1  0
 14 15  2  0
 15 16  1  0
 16 17  1  0
 16 18  2  0
 18 19  1  0
  2 20  1  0
 20 21  1  0
 21 22  1  1
 21 23  1  0
 23 24  1  0
 24 25  1  0
 25 26  1  0
 26 27  2  0
 25 28  1  0
 28 29  1  6
 29 30  1  0
 30 31  2  0
 31 32  1  0
 32 33  2  0
 33 34  1  0
 34 35  2  0
 28 36  1  0
 36 37  2  0
 36 38  1  0
 38 39  1  0
 39 40  1  6
 40 41  1  0
 41 42  1  0
 24 43  1  6
  9  3  1  0
 15 10  1  0
 26 21  1  0
 35 30  1  0
 42 38  1  0
  7 17  1  1
 39 24  1  0
 19 14  1  0
M  CHG  1   5   1
M  END
$$$$
