
     RDKit          3D

 43 50  0  0  0  0  0  0  0  0999 V2000
    3.2927   -0.2596   10.5878 O   0  0  0  0  0  0  0  0  0  0  0  0
    2.0398   -0.3160   10.5708 C   0  0  0  0  0  0  0  0  0  0  0  0
    1.3897   -0.9420    9.4040 C   0  0  1  0  0  0  0  0  0  0  0  0
    1.4198   -0.0603    8.1826 C   0  0  0  0  0  0  0  0  0  0  0  0
    0.5637   -0.6937    7.1808 N   0  0  1  0  0  4  0  0  0  0  0  0
    0.3593    0.2738    6.1309 C   0  0  0  0  0  0  0  0  0  0  0  0
    1.1405   -1.9337    6.7154 C   0  0  1  0  0  0  0  0  0  0  0  0
    1.8256   -2.6693    7.8021 C   0  0  0  0  0  0  0  0  0  0  0  0
    1.9594   -2.2462    9.0453 C   0  0  0  0  0  0  0  0  0  0  0  0
    2.3879   -3.9712    7.4290 C   0  0  0  0  0  0  0  0  0  0  0  0
    3.4695   -4.5107    8.1143 C   0  0  0  0  0  0  0  0  0  0  0  0
    3.9178   -5.7565    7.6503 C   0  0  0  0  0  0  0  0  0  0  0  0
    3.3130   -6.4084    6.5694 C   0  0  0  0  0  0  0  0  0  0  0  0
    2.2370   -5.8560    5.8996 C   0  0  0  0  0  0  0  0  0  0  0  0
    1.8198   -4.6403    6.3730 C   0  0  0  0  0  0  0  0  0  0  0  0
    0.7521   -4.1379    5.6796 C   0  0  0  0  0  0  0  0  0  0  0  0
    0.1410   -2.8348    6.0444 C   0  0  0  0  0  0  0  0  0  0  0  0
    0.5072   -5.1228    4.7149 C   0  0  0  0  0  0  0  0  0  0  0  0
    1.4133   -6.1286    4.8806 N   0  0  0  0  0  0  0  0  0  0  0  0
    1.3106    0.2151   11.6549 N   0  0  0  0  0  0  0  0  0  0  0  0
    1.8885    0.7136   12.8688 C   0  0  2  0  0  0  0  0  0  0  0  0
    1.4769    2.1152   13.1979 C   0  0  0  0  0  0  0  0  0  0  0  0
    3.2684    0.6878   12.7771 O   0  0  0  0  0  0  0  0  0  0  0  0
    3.8009    0.4674   14.0217 C   0  0  2  0  0  0  0  0  0  0  0  0
    2.7442    0.0843   14.9038 N   0  0  0  0  0  0  0  0  0  0  0  0
    1.6097   -0.1263   14.0620 C   0  0  0  0  0  0  0  0  0  0  0  0
    0.6214   -0.8707   14.3256 O   0  0  0  0  0  0  0  0  0  0  0  0
    2.9744   -0.0133   16.3313 C   0  0  1  0  0  0  0  0  0  0  0  0
    3.6792   -1.3002   16.6571 C   0  0  0  0  0  0  0  0  0  0  0  0
    2.7136   -2.1916   17.3751 C   0  0  0  0  0  0  0  0  0  0  0  0
    2.2488   -1.8152   18.6153 C   0  0  0  0  0  0  0  0  0  0  0  0
    1.3634   -2.5951   19.3141 C   0  0  0  0  0  0  0  0  0  0  0  0
    0.9159   -3.7916   18.7756 C   0  0  0  0  0  0  0  0  0  0  0  0
    1.3841   -4.1627   17.5354 C   0  0  0  0  0  0  0  0  0  0  0  0
    2.2725   -3.3795   16.8348 C   0  0  0  0  0  0  0  0  0  0  0  0
    3.8278    1.1273   16.7537 C   0  0  0  0  0  0  0  0  0  0  0  0
    3.7708    1.4875   17.9554 O   0  0  0  0  0  0  0  0  0  0  0  0
    4.6815    1.8076   15.8785 N   0  0  0  0  0  0  0  0  0  0  0  0
    4.5466    1.6915   14.4536 C   0  0  1  0  0  0  0  0  0  0  0  0
    6.0000    1.5220   14.0301 C   0  0  0  0  0  0  0  0  0  0  0  0
    6.8320    2.1942   15.0960 C   0  0  0  0  0  0  0  0  0  0  0  0
    5.7977    2.7048   16.1019 C   0  0  0  0  0  0  0  0  0  0  0  0
    4.6741   -0.6377   13.9087 O   0  0  0  0  0  0  0  0  0  0  0  0
  1  2  2  0
  3  2  1  1
  3  4  1  0
  4  5  1  0
  5  6  1  6
  5  7  1  0
  7  8  1  0
  8  9  2  0
  8 10  1  0
 10 11  2  0
 11 12  1  0
 12 13  2  0
 13 14  1  0
 14 15  2  0
 15 16  1  0
 16 17  1  0
 16 18  2  0
 18 19  1  0
  2 20  1  0
 20 21  1  0
 21 22  1  1
 21 23  1  0
 23 24  1  0
 24 25  1  0
 25 26  1  0
 26 27  2  0
 25 28  1  0
 28 29  1  6
 29 30  1  0
 30 31  2  0
 31 32  1  0
 32 33  2  0
 33 34  1  0
 34 35  2  0
 28 36  1  0
 36 37  2  0
 36 38  1  0
 38 39  1  0
 39 40  1  6
 40 41  1  0
 41 42  1  0
 24 43  1  6
  9  3  1  0
 15 10  1  0
 26 21  1  0
 35 30  1  0
 42 38  1  0
  7 17  1  1
 39 24  1  0
 19 14  1  0
M  CHG  1   5   1
M  END
$$$$
