
     RDKit          3D

 43 50  0  0  0  0  0  0  0  0999 V2000
    1.9733   -1.4280   10.7921 O   0  0  0  0  0  0  0  0  0  0  0  0
    0.9788   -0.9679   10.1818 C   0  0  0  0  0  0  0  0  0  0  0  0
    0.6910   -1.4898    8.8324 C   0  0  1  0  0  0  0  0  0  0  0  0
    0.9843   -0.4850    7.7487 C   0  0  0  0  0  0  0  0  0  0  0  0
    0.4557   -1.0382    6.5028 N   0  0  1  0  0  4  0  0  0  0  0  0
    0.4734    0.0263    5.5299 C   0  0  0  0  0  0  0  0  0  0  0  0
    1.2053   -2.2033    6.0937 C   0  0  1  0  0  0  0  0  0  0  0  0
    1.6277   -3.0255    7.2501 C   0  0  0  0  0  0  0  0  0  0  0  0
    1.4098   -2.7302    8.5181 C   0  0  0  0  0  0  0  0  0  0  0  0
    2.3431   -4.2623    6.9201 C   0  0  0  0  0  0  0  0  0  0  0  0
    3.2402   -4.8346    7.8135 C   0  0  0  0  0  0  0  0  0  0  0  0
    3.8658   -6.0100    7.3714 C   0  0  0  0  0  0  0  0  0  0  0  0
    3.6010   -6.5650    6.1141 C   0  0  0  0  0  0  0  0  0  0  0  0
    2.7045   -5.9813    5.2383 C   0  0  0  0  0  0  0  0  0  0  0  0
    2.1081   -4.8359    5.6948 C   0  0  0  0  0  0  0  0  0  0  0  0
    1.2288   -4.2991    4.7939 C   0  0  0  0  0  0  0  0  0  0  0  0
    0.4683   -3.0619    5.1031 C   0  0  0  0  0  0  0  0  0  0  0  0
    1.3004   -5.1856    3.7123 C   0  0  0  0  0  0  0  0  0  0  0  0
    2.1903   -6.1729    4.0176 N   0  0  0  0  0  0  0  0  0  0  0  0
    0.1845    0.0185   10.8022 N   0  0  0  0  0  0  0  0  0  0  0  0
    0.5171    0.6942   12.0225 C   0  0  2  0  0  0  0  0  0  0  0  0
   -0.6691    0.9896   12.8873 C   0  0  0  0  0  0  0  0  0  0  0  0
    1.1439    1.8941   11.7388 O   0  0  0  0  0  0  0  0  0  0  0  0
    2.0418    2.1825   12.7347 C   0  0  2  0  0  0  0  0  0  0  0  0
    2.1931    1.0231   13.5561 N   0  0  0  0  0  0  0  0  0  0  0  0
    1.5135   -0.0223   12.8595 C   0  0  0  0  0  0  0  0  0  0  0  0
    1.7498   -1.2602   12.9706 O   0  0  0  0  0  0  0  0  0  0  0  0
    2.9220    1.0956   14.8066 C   0  0  1  0  0  0  0  0  0  0  0  0
    4.4023    1.0743   14.5470 C   0  0  0  0  0  0  0  0  0  0  0  0
    5.0584    0.3069   15.6530 C   0  0  0  0  0  0  0  0  0  0  0  0
    6.3480    0.6244   16.0159 C   0  0  0  0  0  0  0  0  0  0  0  0
    6.9937   -0.0472   17.0222 C   0  0  0  0  0  0  0  0  0  0  0  0
    6.3494   -1.0710   17.6994 C   0  0  0  0  0  0  0  0  0  0  0  0
    5.0602   -1.3840   17.3321 C   0  0  0  0  0  0  0  0  0  0  0  0
    4.4130   -0.7095   16.3223 C   0  0  0  0  0  0  0  0  0  0  0  0
    2.5679    2.3666   15.4897 C   0  0  0  0  0  0  0  0  0  0  0  0
    2.7113    2.4211   16.7361 O   0  0  0  0  0  0  0  0  0  0  0  0
    2.0872    3.4910   14.8096 N   0  0  0  0  0  0  0  0  0  0  0  0
    1.5743    3.3990   13.4715 C   0  0  1  0  0  0  0  0  0  0  0  0
    2.2238    4.6130   12.8199 C   0  0  0  0  0  0  0  0  0  0  0  0
    2.4792    5.6031   13.9311 C   0  0  0  0  0  0  0  0  0  0  0  0
    1.9738    4.8863   15.1853 C   0  0  0  0  0  0  0  0  0  0  0  0
    3.2877    2.4211   12.1127 O   0  0  0  0  0  0  0  0  0  0  0  0
  1  2  2  0
  3  2  1  1
  3  4  1  0
  4  5  1  0
  5  6  1  6
  5  7  1  0
  7  8  1  0
  8  9  2  0
  8 10  1  0
 10 11  2  0
 11 12  1  0
 12 13  2  0
 13 14  1  0
 14 15  2  0
 15 16  1  0
 16 17  1  0
 16 18  2  0
 18 19  1  0
  2 20  1  0
 20 21  1  0
 21 22  1  1
 21 23  1  0
 23 24  1  0
 24 25  1  0
 25 26  1  0
 26 27  2  0
 25 28  1  0
 28 29  1  6
 29 30  1  0
 30 31  2  0
 31 32  1  0
 32 33  2  0
 33 34  1  0
 34 35  2  0
 28 36  1  0
 36 37  2  0
 36 38  1  0
 38 39  1  0
 39 40  1  6
 40 41  1  0
 41 42  1  0
 24 43  1  6
  9  3  1  0
 15 10  1  0
 26 21  1  0
 35 30  1  0
 42 38  1  0
  7 17  1  6
 39 24  1  0
 19 14  1  0
M  CHG  1   5   1
M  END
$$$$
