
     RDKit          3D

 43 50  0  0  0  0  0  0  0  0999 V2000
    2.5759   -1.4761   10.6980 O   0  0  0  0  0  0  0  0  0  0  0  0
    1.4075   -1.1509   10.3782 C   0  0  0  0  0  0  0  0  0  0  0  0
    0.8955   -1.6022    9.0705 C   0  0  1  0  0  0  0  0  0  0  0  0
    1.0491   -0.5565    7.9968 C   0  0  0  0  0  0  0  0  0  0  0  0
    0.3144   -1.0376    6.8278 N   0  0  1  0  0  4  0  0  0  0  0  0
    0.2153    0.0699    5.9091 C   0  0  0  0  0  0  0  0  0  0  0  0
    0.9521   -2.2018    6.2578 C   0  0  1  0  0  0  0  0  0  0  0  0
    1.5224   -3.0872    7.2982 C   0  0  0  0  0  0  0  0  0  0  0  0
    1.5150   -2.8451    8.5958 C   0  0  0  0  0  0  0  0  0  0  0  0
    2.1362   -4.3257    6.8087 C   0  0  0  0  0  0  0  0  0  0  0  0
    3.1424   -4.9619    7.5252 C   0  0  0  0  0  0  0  0  0  0  0  0
    3.6521   -6.1316    6.9418 C   0  0  0  0  0  0  0  0  0  0  0  0
    3.1761   -6.6209    5.7199 C   0  0  0  0  0  0  0  0  0  0  0  0
    2.1737   -5.9741    5.0211 C   0  0  0  0  0  0  0  0  0  0  0  0
    1.6940   -4.8358    5.6129 C   0  0  0  0  0  0  0  0  0  0  0  0
    0.7031   -4.2352    4.8847 C   0  0  0  0  0  0  0  0  0  0  0  0
    0.0416   -2.9941    5.3608 C   0  0  0  0  0  0  0  0  0  0  0  0
    0.5756   -5.0724    3.7695 C   0  0  0  0  0  0  0  0  0  0  0  0
    1.4691   -6.0957    3.8896 N   0  0  0  0  0  0  0  0  0  0  0  0
    0.6385   -0.3756   11.2708 N   0  0  0  0  0  0  0  0  0  0  0  0
    1.1169    0.1710   12.5071 C   0  0  2  0  0  0  0  0  0  0  0  0
    0.0246    0.5385   13.4632 C   0  0  0  0  0  0  0  0  0  0  0  0
    1.8638    1.3086   12.2597 O   0  0  0  0  0  0  0  0  0  0  0  0
    2.8442    1.4226   13.2120 C   0  0  2  0  0  0  0  0  0  0  0  0
    2.9040    0.1990   13.9476 N   0  0  0  0  0  0  0  0  0  0  0  0
    2.0676   -0.7110   13.2318 C   0  0  0  0  0  0  0  0  0  0  0  0
    2.1622   -1.9724   13.2496 O   0  0  0  0  0  0  0  0  0  0  0  0
    3.7058    0.1006   15.1507 C   0  0  1  0  0  0  0  0  0  0  0  0
    5.1562   -0.0710   14.7957 C   0  0  0  0  0  0  0  0  0  0  0  0
    5.8612   -0.6504   15.9831 C   0  0  0  0  0  0  0  0  0  0  0  0
    6.5562    0.1884   16.8252 C   0  0  0  0  0  0  0  0  0  0  0  0
    7.2182   -0.2915   17.9262 C   0  0  0  0  0  0  0  0  0  0  0  0
    7.1980   -1.6477   18.2127 C   0  0  0  0  0  0  0  0  0  0  0  0
    6.5016   -2.4814   17.3672 C   0  0  0  0  0  0  0  0  0  0  0  0
    5.8375   -1.9990   16.2628 C   0  0  0  0  0  0  0  0  0  0  0  0
    3.5432    1.3530   15.9335 C   0  0  0  0  0  0  0  0  0  0  0  0
    3.7623    1.3036   17.1691 O   0  0  0  0  0  0  0  0  0  0  0  0
    3.1608    2.5694   15.3576 N   0  0  0  0  0  0  0  0  0  0  0  0
    2.5658    2.6300   14.0521 C   0  0  1  0  0  0  0  0  0  0  0  0
    3.3161    3.8047   13.4376 C   0  0  0  0  0  0  0  0  0  0  0  0
    3.7489    4.6793   14.5900 C   0  0  0  0  0  0  0  0  0  0  0  0
    3.2341    3.9389   15.8266 C   0  0  0  0  0  0  0  0  0  0  0  0
    4.0725    1.5606   12.5274 O   0  0  0  0  0  0  0  0  0  0  0  0
  1  2  2  0
  3  2  1  1
  3  4  1  0
  4  5  1  0
  5  6  1  6
  5  7  1  0
  7  8  1  0
  8  9  2  0
  8 10  1  0
 10 11  2  0
 11 12  1  0
 12 13  2  0
 13 14  1  0
 14 15  2  0
 15 16  1  0
 16 17  1  0
 16 18  2  0
 18 19  1  0
  2 20  1  0
 20 21  1  0
 21 22  1  1
 21 23  1  0
 23 24  1  0
 24 25  1  0
 25 26  1  0
 26 27  2  0
 25 28  1  0
 28 29  1  6
 29 30  1  0
 30 31  2  0
 31 32  1  0
 32 33  2  0
 33 34  1  0
 34 35  2  0
 28 36  1  0
 36 37  2  0
 36 38  1  0
 38 39  1  0
 39 40  1  6
 40 41  1  0
 41 42  1  0
 24 43  1  6
  9  3  1  0
 15 10  1  0
 26 21  1  0
 35 30  1  0
 42 38  1  0
  7 17  1  1
 39 24  1  0
 19 14  1  0
M  CHG  1   5   1
M  END
$$$$
