
     RDKit          3D

 43 50  0  0  0  0  0  0  0  0999 V2000
    1.7046   -2.2626   11.0459 O   0  0  0  0  0  0  0  0  0  0  0  0
    0.9518   -1.4912   10.4043 C   0  0  0  0  0  0  0  0  0  0  0  0
    0.6350   -1.8364    9.0056 C   0  0  1  0  0  0  0  0  0  0  0  0
    0.9565   -0.7195    8.0468 C   0  0  0  0  0  0  0  0  0  0  0  0
    0.3986   -1.0998    6.7500 N   0  0  1  0  0  4  0  0  0  0  0  0
    0.4477    0.0728    5.9116 C   0  0  0  0  0  0  0  0  0  0  0  0
    1.1022   -2.2329    6.1951 C   0  0  1  0  0  0  0  0  0  0  0  0
    1.5031   -3.2026    7.2394 C   0  0  0  0  0  0  0  0  0  0  0  0
    1.3058   -3.0545    8.5361 C   0  0  0  0  0  0  0  0  0  0  0  0
    2.1704   -4.4151    6.7549 C   0  0  0  0  0  0  0  0  0  0  0  0
    3.0528   -5.1221    7.5624 C   0  0  0  0  0  0  0  0  0  0  0  0
    3.6319   -6.2570    6.9751 C   0  0  0  0  0  0  0  0  0  0  0  0
    3.3376   -6.6470    5.6635 C   0  0  0  0  0  0  0  0  0  0  0  0
    2.4563   -5.9309    4.8748 C   0  0  0  0  0  0  0  0  0  0  0  0
    1.9055   -4.8285    5.4725 C   0  0  0  0  0  0  0  0  0  0  0  0
    1.0394   -4.1565    4.6530 C   0  0  0  0  0  0  0  0  0  0  0  0
    0.3270   -2.9395    5.1175 C   0  0  0  0  0  0  0  0  0  0  0  0
    1.0705   -4.9083    3.4721 C   0  0  0  0  0  0  0  0  0  0  0  0
    1.9262   -5.9560    3.6461 N   0  0  0  0  0  0  0  0  0  0  0  0
    0.4442   -0.3380   11.0378 N   0  0  0  0  0  0  0  0  0  0  0  0
    0.9898    0.2562   12.2234 C   0  0  2  0  0  0  0  0  0  0  0  0
   -0.0474    0.8276   13.1399 C   0  0  0  0  0  0  0  0  0  0  0  0
    1.8596    1.2755   11.8801 O   0  0  0  0  0  0  0  0  0  0  0  0
    2.8528    1.3596   12.8222 C   0  0  2  0  0  0  0  0  0  0  0  0
    2.7779    0.2059   13.6620 N   0  0  0  0  0  0  0  0  0  0  0  0
    1.8387   -0.6618   13.0255 C   0  0  0  0  0  0  0  0  0  0  0  0
    1.7893   -1.9194   13.1537 O   0  0  0  0  0  0  0  0  0  0  0  0
    3.5712    0.1220   14.8719 C   0  0  1  0  0  0  0  0  0  0  0  0
    4.9903   -0.2439   14.5382 C   0  0  0  0  0  0  0  0  0  0  0  0
    5.6682   -0.6797   15.8003 C   0  0  0  0  0  0  0  0  0  0  0  0
    4.9594   -0.6672   16.9807 C   0  0  0  0  0  0  0  0  0  0  0  0
    5.5332   -1.0569   18.1637 C   0  0  0  0  0  0  0  0  0  0  0  0
    6.8545   -1.4755   18.1904 C   0  0  0  0  0  0  0  0  0  0  0  0
    7.5581   -1.4859   17.0072 C   0  0  0  0  0  0  0  0  0  0  0  0
    6.9816   -1.0947   15.8207 C   0  0  0  0  0  0  0  0  0  0  0  0
    3.5571    1.4482   15.5418 C   0  0  0  0  0  0  0  0  0  0  0  0
    3.7773    1.4820   16.7777 O   0  0  0  0  0  0  0  0  0  0  0  0
    3.3118    2.6454   14.8606 N   0  0  0  0  0  0  0  0  0  0  0  0
    2.7191    2.6594   13.5527 C   0  0  1  0  0  0  0  0  0  0  0  0
    3.5940    3.6830   12.8407 C   0  0  0  0  0  0  0  0  0  0  0  0
    4.1310    4.5996   13.9138 C   0  0  0  0  0  0  0  0  0  0  0  0
    3.5435    4.0333   15.2085 C   0  0  0  0  0  0  0  0  0  0  0  0
    4.0843    1.2967   12.1323 O   0  0  0  0  0  0  0  0  0  0  0  0
  1  2  2  0
  3  2  1  1
  3  4  1  0
  4  5  1  0
  5  6  1  6
  5  7  1  0
  7  8  1  0
  8  9  2  0
  8 10  1  0
 10 11  2  0
 11 12  1  0
 12 13  2  0
 13 14  1  0
 14 15  2  0
 15 16  1  0
 16 17  1  0
 16 18  2  0
 18 19  1  0
  2 20  1  0
 20 21  1  0
 21 22  1  1
 21 23  1  0
 23 24  1  0
 24 25  1  0
 25 26  1  0
 26 27  2  0
 25 28  1  0
 28 29  1  6
 29 30  1  0
 30 31  2  0
 31 32  1  0
 32 33  2  0
 33 34  1  0
 34 35  2  0
 28 36  1  0
 36 37  2  0
 36 38  1  0
 38 39  1  0
 39 40  1  6
 40 41  1  0
 41 42  1  0
 24 43  1  6
  9  3  1  0
 15 10  1  0
 26 21  1  0
 35 30  1  0
 42 38  1  0
  7 17  1  6
 39 24  1  0
 19 14  1  0
M  CHG  1   5   1
M  END
$$$$
