
     RDKit          3D

 43 50  0  0  0  0  0  0  0  0999 V2000
    2.2528   -1.8295   11.0653 O   0  0  0  0  0  0  0  0  0  0  0  0
    1.3280   -1.1609   10.5448 C   0  0  0  0  0  0  0  0  0  0  0  0
    0.8631   -1.5501    9.2001 C   0  0  1  0  0  0  0  0  0  0  0  0
    1.0456   -0.4524    8.1845 C   0  0  0  0  0  0  0  0  0  0  0  0
    0.3536   -0.8794    6.9693 N   0  0  1  0  0  4  0  0  0  0  0  0
    0.2780    0.2712    6.1029 C   0  0  0  0  0  0  0  0  0  0  0  0
    1.0176   -2.0111    6.3651 C   0  0  1  0  0  0  0  0  0  0  0  0
    1.5586   -2.9436    7.3797 C   0  0  0  0  0  0  0  0  0  0  0  0
    1.5062   -2.7653    8.6866 C   0  0  0  0  0  0  0  0  0  0  0  0
    2.1965   -4.1536    6.8514 C   0  0  0  0  0  0  0  0  0  0  0  0
    3.1823   -4.8192    7.5696 C   0  0  0  0  0  0  0  0  0  0  0  0
    3.7190   -5.9563    6.9474 C   0  0  0  0  0  0  0  0  0  0  0  0
    3.2873   -6.3876    5.6877 C   0  0  0  0  0  0  0  0  0  0  0  0
    2.3046   -5.7124    4.9879 C   0  0  0  0  0  0  0  0  0  0  0  0
    1.7979   -4.6068    5.6179 C   0  0  0  0  0  0  0  0  0  0  0  0
    0.8279   -3.9761    4.8869 C   0  0  0  0  0  0  0  0  0  0  0  0
    0.1428   -2.7631    5.4003 C   0  0  0  0  0  0  0  0  0  0  0  0
    0.7434   -4.7583    3.7285 C   0  0  0  0  0  0  0  0  0  0  0  0
    1.6391   -5.7819    3.8287 N   0  0  0  0  0  0  0  0  0  0  0  0
    0.7759   -0.0761   11.2572 N   0  0  0  0  0  0  0  0  0  0  0  0
    1.2435    0.3964   12.5277 C   0  0  2  0  0  0  0  0  0  0  0  0
    0.1427    0.7125   13.4924 C   0  0  0  0  0  0  0  0  0  0  0  0
    1.9967    1.5434   12.3538 O   0  0  0  0  0  0  0  0  0  0  0  0
    2.9678    1.5983   13.3209 C   0  0  2  0  0  0  0  0  0  0  0  0
    3.0158    0.3342   13.9852 N   0  0  0  0  0  0  0  0  0  0  0  0
    2.1837   -0.5297   13.2097 C   0  0  0  0  0  0  0  0  0  0  0  0
    2.2738   -1.7904   13.1557 O   0  0  0  0  0  0  0  0  0  0  0  0
    3.8050    0.1633   15.1887 C   0  0  1  0  0  0  0  0  0  0  0  0
    5.2584    0.0067   14.8389 C   0  0  0  0  0  0  0  0  0  0  0  0
    5.7081   -1.3420   15.3092 C   0  0  0  0  0  0  0  0  0  0  0  0
    5.4779   -1.7071   16.6167 C   0  0  0  0  0  0  0  0  0  0  0  0
    5.8692   -2.9305   17.0971 C   0  0  0  0  0  0  0  0  0  0  0  0
    6.5119   -3.8317   16.2624 C   0  0  0  0  0  0  0  0  0  0  0  0
    6.7394   -3.4611   14.9563 C   0  0  0  0  0  0  0  0  0  0  0  0
    6.3463   -2.2334   14.4751 C   0  0  0  0  0  0  0  0  0  0  0  0
    3.6386    1.3691   16.0408 C   0  0  0  0  0  0  0  0  0  0  0  0
    3.8449    1.2477   17.2736 O   0  0  0  0  0  0  0  0  0  0  0  0
    3.2663    2.6182   15.5322 N   0  0  0  0  0  0  0  0  0  0  0  0
    2.6849    2.7564   14.2265 C   0  0  1  0  0  0  0  0  0  0  0  0
    3.4454    3.9616   13.6884 C   0  0  0  0  0  0  0  0  0  0  0  0
    3.8694    4.7665   14.8936 C   0  0  0  0  0  0  0  0  0  0  0  0
    3.3395    3.9581   16.0802 C   0  0  0  0  0  0  0  0  0  0  0  0
    4.2034    1.7707   12.6577 O   0  0  0  0  0  0  0  0  0  0  0  0
  1  2  2  0
  3  2  1  1
  3  4  1  0
  4  5  1  0
  5  6  1  6
  5  7  1  0
  7  8  1  0
  8  9  2  0
  8 10  1  0
 10 11  2  0
 11 12  1  0
 12 13  2  0
 13 14  1  0
 14 15  2  0
 15 16  1  0
 16 17  1  0
 16 18  2  0
 18 19  1  0
  2 20  1  0
 20 21  1  0
 21 22  1  1
 21 23  1  0
 23 24  1  0
 24 25  1  0
 25 26  1  0
 26 27  2  0
 25 28  1  0
 28 29  1  6
 29 30  1  0
 30 31  2  0
 31 32  1  0
 32 33  2  0
 33 34  1  0
 34 35  2  0
 28 36  1  0
 36 37  2  0
 36 38  1  0
 38 39  1  0
 39 40  1  6
 40 41  1  0
 41 42  1  0
 24 43  1  6
  9  3  1  0
 15 10  1  0
 26 21  1  0
 35 30  1  0
 42 38  1  0
  7 17  1  6
 39 24  1  0
 19 14  1  0
M  CHG  1   5   1
M  END
$$$$
