
     RDKit          3D

 43 50  0  0  0  0  0  0  0  0999 V2000
    2.3606   -1.5955   10.7940 O   0  0  0  0  0  0  0  0  0  0  0  0
    1.3037   -1.1248   10.3096 C   0  0  0  0  0  0  0  0  0  0  0  0
    0.9527   -1.4909    8.9244 C   0  0  1  0  0  0  0  0  0  0  0  0
    1.2462   -0.3871    7.9420 C   0  0  0  0  0  0  0  0  0  0  0  0
    0.6569   -0.7875    6.6653 N   0  0  1  0  0  4  0  0  0  0  0  0
    0.6811    0.3730    5.8092 C   0  0  0  0  0  0  0  0  0  0  0  0
    1.3497   -1.9265    6.1090 C   0  0  1  0  0  0  0  0  0  0  0  0
    1.7800   -2.8800    7.1565 C   0  0  0  0  0  0  0  0  0  0  0  0
    1.6151   -2.7138    8.4556 C   0  0  0  0  0  0  0  0  0  0  0  0
    2.4386   -4.0975    6.6727 C   0  0  0  0  0  0  0  0  0  0  0  0
    3.3434   -4.7904    7.4676 C   0  0  0  0  0  0  0  0  0  0  0  0
    3.9109   -5.9320    6.8821 C   0  0  0  0  0  0  0  0  0  0  0  0
    3.5847   -6.3417    5.5841 C   0  0  0  0  0  0  0  0  0  0  0  0
    2.6815   -5.6395    4.8078 C   0  0  0  0  0  0  0  0  0  0  0  0
    2.1425   -4.5300    5.4035 C   0  0  0  0  0  0  0  0  0  0  0  0
    1.2539   -3.8723    4.5967 C   0  0  0  0  0  0  0  0  0  0  0  0
    0.5497   -2.6507    5.0616 C   0  0  0  0  0  0  0  0  0  0  0  0
    1.2574   -4.6410    3.4263 C   0  0  0  0  0  0  0  0  0  0  0  0
    2.1205   -5.6837    3.5935 N   0  0  0  0  0  0  0  0  0  0  0  0
    0.5024   -0.2739   11.0988 N   0  0  0  0  0  0  0  0  0  0  0  0
    0.9302    0.3728   12.3050 C   0  0  2  0  0  0  0  0  0  0  0  0
   -0.2002    0.8237   13.1774 C   0  0  0  0  0  0  0  0  0  0  0  0
    1.6959    1.4827   11.9964 O   0  0  0  0  0  0  0  0  0  0  0  0
    2.6344    1.6725   12.9783 C   0  0  2  0  0  0  0  0  0  0  0  0
    2.6525    0.5150   13.8159 N   0  0  0  0  0  0  0  0  0  0  0  0
    1.8414   -0.4488   13.1425 C   0  0  0  0  0  0  0  0  0  0  0  0
    1.9254   -1.7045   13.2702 O   0  0  0  0  0  0  0  0  0  0  0  0
    3.3999    0.5150   15.0575 C   0  0  1  0  0  0  0  0  0  0  0  0
    4.8632    0.3084   14.7829 C   0  0  0  0  0  0  0  0  0  0  0  0
    5.4153   -0.5873   15.8484 C   0  0  0  0  0  0  0  0  0  0  0  0
    4.5659   -1.0892   16.8087 C   0  0  0  0  0  0  0  0  0  0  0  0
    5.0209   -1.9138   17.8056 C   0  0  0  0  0  0  0  0  0  0  0  0
    6.3620   -2.2600   17.8631 C   0  0  0  0  0  0  0  0  0  0  0  0
    7.2065   -1.7551   16.9003 C   0  0  0  0  0  0  0  0  0  0  0  0
    6.7491   -0.9278   15.9004 C   0  0  0  0  0  0  0  0  0  0  0  0
    3.2126    1.8294   15.7245 C   0  0  0  0  0  0  0  0  0  0  0  0
    3.3769    1.8832   16.9684 O   0  0  0  0  0  0  0  0  0  0  0  0
    2.8652    2.9945   15.0322 N   0  0  0  0  0  0  0  0  0  0  0  0
    2.3286    2.9474   13.7011 C   0  0  1  0  0  0  0  0  0  0  0  0
    3.1141    4.0633   13.0242 C   0  0  0  0  0  0  0  0  0  0  0  0
    3.5025    5.0300   14.1172 C   0  0  0  0  0  0  0  0  0  0  0  0
    2.9283    4.3983   15.3875 C   0  0  0  0  0  0  0  0  0  0  0  0
    3.8926    1.7477   12.3398 O   0  0  0  0  0  0  0  0  0  0  0  0
  1  2  2  0
  3  2  1  1
  3  4  1  0
  4  5  1  0
  5  6  1  6
  5  7  1  0
  7  8  1  0
  8  9  2  0
  8 10  1  0
 10 11  2  0
 11 12  1  0
 12 13  2  0
 13 14  1  0
 14 15  2  0
 15 16  1  0
 16 17  1  0
 16 18  2  0
 18 19  1  0
  2 20  1  0
 20 21  1  0
 21 22  1  1
 21 23  1  0
 23 24  1  0
 24 25  1  0
 25 26  1  0
 26 27  2  0
 25 28  1  0
 28 29  1  6
 29 30  1  0
 30 31  2  0
 31 32  1  0
 32 33  2  0
 33 34  1  0
 34 35  2  0
 28 36  1  0
 36 37  2  0
 36 38  1  0
 38 39  1  0
 39 40  1  6
 40 41  1  0
 41 42  1  0
 24 43  1  6
  9  3  1  0
 15 10  1  0
 26 21  1  0
 35 30  1  0
 42 38  1  0
  7 17  1  6
 39 24  1  0
 19 14  1  0
M  CHG  1   5   1
M  END
$$$$
