
     RDKit          3D

 43 50  0  0  0  0  0  0  0  0999 V2000
    2.6724   -1.2518   11.1415 O   0  0  0  0  0  0  0  0  0  0  0  0
    1.5885   -0.7933   10.7078 C   0  0  0  0  0  0  0  0  0  0  0  0
    1.0858   -1.3045    9.4187 C   0  0  1  0  0  0  0  0  0  0  0  0
    1.2828   -0.3249    8.2911 C   0  0  0  0  0  0  0  0  0  0  0  0
    0.5546   -0.8526    7.1384 N   0  0  1  0  0  4  0  0  0  0  0  0
    0.4981    0.2037    6.1579 C   0  0  0  0  0  0  0  0  0  0  0  0
    1.1711   -2.0622    6.6451 C   0  0  1  0  0  0  0  0  0  0  0  0
    1.7022   -2.9016    7.7428 C   0  0  0  0  0  0  0  0  0  0  0  0
    1.6807   -2.5870    9.0246 C   0  0  0  0  0  0  0  0  0  0  0  0
    2.2918   -4.1804    7.3336 C   0  0  0  0  0  0  0  0  0  0  0  0
    3.2700   -4.8000    8.1016 C   0  0  0  0  0  0  0  0  0  0  0  0
    3.7588   -6.0128    7.5931 C   0  0  0  0  0  0  0  0  0  0  0  0
    3.2897   -6.5580    6.3924 C   0  0  0  0  0  0  0  0  0  0  0  0
    2.3152   -5.9270    5.6416 C   0  0  0  0  0  0  0  0  0  0  0  0
    1.8556   -4.7458    6.1607 C   0  0  0  0  0  0  0  0  0  0  0  0
    0.8918   -4.1628    5.3834 C   0  0  0  0  0  0  0  0  0  0  0  0
    0.2548   -2.8810    5.7782 C   0  0  0  0  0  0  0  0  0  0  0  0
    0.7605   -5.0578    4.3145 C   0  0  0  0  0  0  0  0  0  0  0  0
    1.6256   -6.0945    4.5068 N   0  0  0  0  0  0  0  0  0  0  0  0
    0.9014    0.1815   11.4606 N   0  0  0  0  0  0  0  0  0  0  0  0
    1.4318    0.8586   12.6080 C   0  0  2  0  0  0  0  0  0  0  0  0
    0.7408    2.1512   12.9144 C   0  0  0  0  0  0  0  0  0  0  0  0
    2.7738    1.1315   12.4134 O   0  0  0  0  0  0  0  0  0  0  0  0
    3.4221    1.0998   13.6216 C   0  0  2  0  0  0  0  0  0  0  0  0
    2.5371    0.5417   14.5947 N   0  0  0  0  0  0  0  0  0  0  0  0
    1.4255    0.0427   13.8494 C   0  0  0  0  0  0  0  0  0  0  0  0
    0.6472   -0.8853   14.2145 O   0  0  0  0  0  0  0  0  0  0  0  0
    2.8760    0.5731   16.0034 C   0  0  1  0  0  0  0  0  0  0  0  0
    3.8695   -0.5085   16.3230 C   0  0  0  0  0  0  0  0  0  0  0  0
    3.8958   -0.6928   17.8089 C   0  0  0  0  0  0  0  0  0  0  0  0
    4.8630   -0.0485   18.5472 C   0  0  0  0  0  0  0  0  0  0  0  0
    4.9305   -0.1835   19.9102 C   0  0  0  0  0  0  0  0  0  0  0  0
    4.0134   -0.9821   20.5757 C   0  0  0  0  0  0  0  0  0  0  0  0
    3.0488   -1.6239   19.8323 C   0  0  0  0  0  0  0  0  0  0  0  0
    2.9817   -1.4878   18.4647 C   0  0  0  0  0  0  0  0  0  0  0  0
    3.4797    1.8940   16.3172 C   0  0  0  0  0  0  0  0  0  0  0  0
    3.4225    2.2964   17.5054 O   0  0  0  0  0  0  0  0  0  0  0  0
    4.1014    2.6975   15.3552 N   0  0  0  0  0  0  0  0  0  0  0  0
    3.9030    2.4790   13.9498 C   0  0  1  0  0  0  0  0  0  0  0  0
    5.3268    2.6103   13.4246 C   0  0  0  0  0  0  0  0  0  0  0  0
    6.0560    3.5044   14.3987 C   0  0  0  0  0  0  0  0  0  0  0  0
    5.0019    3.8284   15.4599 C   0  0  0  0  0  0  0  0  0  0  0  0
    4.5102    0.2090   13.4845 O   0  0  0  0  0  0  0  0  0  0  0  0
  1  2  2  0
  3  2  1  1
  3  4  1  0
  4  5  1  0
  5  6  1  6
  5  7  1  0
  7  8  1  0
  8  9  2  0
  8 10  1  0
 10 11  2  0
 11 12  1  0
 12 13  2  0
 13 14  1  0
 14 15  2  0
 15 16  1  0
 16 17  1  0
 16 18  2  0
 18 19  1  0
  2 20  1  0
 20 21  1  0
 21 22  1  1
 21 23  1  0
 23 24  1  0
 24 25  1  0
 25 26  1  0
 26 27  2  0
 25 28  1  0
 28 29  1  6
 29 30  1  0
 30 31  2  0
 31 32  1  0
 32 33  2  0
 33 34  1  0
 34 35  2  0
 28 36  1  0
 36 37  2  0
 36 38  1  0
 38 39  1  0
 39 40  1  6
 40 41  1  0
 41 42  1  0
 24 43  1  6
  9  3  1  0
 15 10  1  0
 26 21  1  0
 35 30  1  0
 42 38  1  0
  7 17  1  1
 39 24  1  0
 19 14  1  0
M  CHG  1   5   1
M  END
$$$$
