
     RDKit          3D

 43 50  0  0  0  0  0  0  0  0999 V2000
    1.7685   -1.8026   10.8982 O   0  0  0  0  0  0  0  0  0  0  0  0
    0.7524   -1.3244   10.3394 C   0  0  0  0  0  0  0  0  0  0  0  0
    0.4143   -1.8052    8.9865 C   0  0  1  0  0  0  0  0  0  0  0  0
    0.6530   -0.7626    7.9254 C   0  0  0  0  0  0  0  0  0  0  0  0
    0.0788   -1.2807    6.6847 N   0  0  1  0  0  4  0  0  0  0  0  0
    0.0463   -0.1850    5.7473 C   0  0  0  0  0  0  0  0  0  0  0  0
    0.8219   -2.4237    6.2071 C   0  0  1  0  0  0  0  0  0  0  0  0
    1.2994   -3.2784    7.3176 C   0  0  0  0  0  0  0  0  0  0  0  0
    1.1313   -3.0268    8.6024 C   0  0  0  0  0  0  0  0  0  0  0  0
    2.0123   -4.4960    6.9180 C   0  0  0  0  0  0  0  0  0  0  0  0
    2.9509   -5.0873    7.7547 C   0  0  0  0  0  0  0  0  0  0  0  0
    3.5689   -6.2408    7.2489 C   0  0  0  0  0  0  0  0  0  0  0  0
    3.2578   -6.7575    5.9859 C   0  0  0  0  0  0  0  0  0  0  0  0
    2.3204   -6.1554    5.1672 C   0  0  0  0  0  0  0  0  0  0  0  0
    1.7325   -5.0320    5.6851 C   0  0  0  0  0  0  0  0  0  0  0  0
    0.8117   -4.4758    4.8391 C   0  0  0  0  0  0  0  0  0  0  0  0
    0.0530   -3.2575    5.2197 C   0  0  0  0  0  0  0  0  0  0  0  0
    0.8471   -5.3258    3.7269 C   0  0  0  0  0  0  0  0  0  0  0  0
    1.7582   -6.3128    3.9629 N   0  0  0  0  0  0  0  0  0  0  0  0
   -0.0172   -0.3572   11.0185 N   0  0  0  0  0  0  0  0  0  0  0  0
    0.3895    0.3284   12.2104 C   0  0  2  0  0  0  0  0  0  0  0  0
   -0.7428    0.6399   13.1395 C   0  0  0  0  0  0  0  0  0  0  0  0
    1.0057    1.5216   11.8786 O   0  0  0  0  0  0  0  0  0  0  0  0
    1.9615    1.8141   12.8177 C   0  0  2  0  0  0  0  0  0  0  0  0
    2.1536    0.6620   13.6408 N   0  0  0  0  0  0  0  0  0  0  0  0
    1.4288   -0.3860   12.9955 C   0  0  0  0  0  0  0  0  0  0  0  0
    1.6640   -1.6241   13.1054 O   0  0  0  0  0  0  0  0  0  0  0  0
    2.9543    0.7423   14.8461 C   0  0  1  0  0  0  0  0  0  0  0  0
    4.4169    0.7091   14.5013 C   0  0  0  0  0  0  0  0  0  0  0  0
    5.1698    0.2427   15.7088 C   0  0  0  0  0  0  0  0  0  0  0  0
    5.5203    1.1586   16.6752 C   0  0  0  0  0  0  0  0  0  0  0  0
    6.2095    0.7834   17.7999 C   0  0  0  0  0  0  0  0  0  0  0  0
    6.5694   -0.5427   17.9842 C   0  0  0  0  0  0  0  0  0  0  0  0
    6.2162   -1.4538   17.0146 C   0  0  0  0  0  0  0  0  0  0  0  0
    5.5246   -1.0764   15.8865 C   0  0  0  0  0  0  0  0  0  0  0  0
    2.6477    2.0223   15.5354 C   0  0  0  0  0  0  0  0  0  0  0  0
    2.8636    2.0882   16.7708 O   0  0  0  0  0  0  0  0  0  0  0  0
    2.1348    3.1428   14.8729 N   0  0  0  0  0  0  0  0  0  0  0  0
    1.5446    3.0408   13.5678 C   0  0  1  0  0  0  0  0  0  0  0  0
    2.1621    4.2442   12.8672 C   0  0  0  0  0  0  0  0  0  0  0  0
    2.4872    5.2436   13.9515 C   0  0  0  0  0  0  0  0  0  0  0  0
    2.0514    4.5424   15.2402 C   0  0  0  0  0  0  0  0  0  0  0  0
    3.1706    2.0387   12.1220 O   0  0  0  0  0  0  0  0  0  0  0  0
  1  2  2  0
  3  2  1  1
  3  4  1  0
  4  5  1  0
  5  6  1  6
  5  7  1  0
  7  8  1  0
  8  9  2  0
  8 10  1  0
 10 11  2  0
 11 12  1  0
 12 13  2  0
 13 14  1  0
 14 15  2  0
 15 16  1  0
 16 17  1  0
 16 18  2  0
 18 19  1  0
  2 20  1  0
 20 21  1  0
 21 22  1  1
 21 23  1  0
 23 24  1  0
 24 25  1  0
 25 26  1  0
 26 27  2  0
 25 28  1  0
 28 29  1  6
 29 30  1  0
 30 31  2  0
 31 32  1  0
 32 33  2  0
 33 34  1  0
 34 35  2  0
 28 36  1  0
 36 37  2  0
 36 38  1  0
 38 39  1  0
 39 40  1  6
 40 41  1  0
 41 42  1  0
 24 43  1  6
  9  3  1  0
 15 10  1  0
 26 21  1  0
 35 30  1  0
 42 38  1  0
  7 17  1  6
 39 24  1  0
 19 14  1  0
M  CHG  1   5   1
M  END
$$$$
