
     RDKit          3D

 28 31  0  0  0  0  0  0  0  0999 V2000
    1.9483   -0.7612    5.9159 C   0  0  0  0  0  0  0  0  0  0  0  0
    1.9514    0.7026    6.2273 C   0  0  0  0  0  0  0  0  0  0  0  0
    2.8630    0.9621    7.3856 C   0  0  0  0  0  0  0  0  0  0  0  0
    2.0707    1.4449    8.5791 C   0  0  0  0  0  0  0  0  0  0  0  0
    1.3216    2.6293    8.2253 N   0  0  0  0  0  0  0  0  0  0  0  0
    0.5493    2.5983    7.0109 C   0  0  0  0  0  0  0  0  0  0  0  0
    0.5354    1.1879    6.4615 C   0  0  0  0  0  0  0  0  0  0  0  0
    1.3850    3.7532    9.0849 C   0  0  0  0  0  0  0  0  0  0  0  0
    0.6667    4.7545    8.8409 O   0  0  0  0  0  0  0  0  0  0  0  0
    2.2157    3.8193   10.2132 N   0  0  0  0  0  0  0  0  0  0  0  0
    2.0682    4.9552   11.1152 C   0  0  0  0  0  0  0  0  0  0  0  0
    1.4134    5.8612   11.3886 N   0  0  0  0  0  0  0  0  0  0  0  0
    1.5532    6.7774   12.3304 C   0  0  0  0  0  0  0  0  0  0  0  0
    0.7511    7.8721   12.6519 C   0  0  0  0  0  0  0  0  0  0  0  0
    1.1052    8.6972   13.6897 C   0  0  0  0  0  0  0  0  0  0  0  0
    2.2236    8.5354   14.4718 C   0  0  0  0  0  0  0  0  0  0  0  0
    3.0280    7.4520   14.1624 C   0  0  0  0  0  0  0  0  0  0  0  0
    2.6728    6.6089   13.1075 C   0  0  0  0  0  0  0  0  0  0  0  0
    3.4457    5.1383   12.4231 S   0  0  0  0  0  0  0  0  0  0  0  0
    4.2160    7.1263   14.8539 N   0  0  0  0  0  0  0  0  0  0  0  0
    4.5126    7.5414   16.2067 C   0  0  0  0  0  0  0  0  0  0  0  0
    5.2854    6.4969   16.9619 C   0  0  0  0  0  0  0  0  0  0  0  0
    6.3062    5.9512   16.2208 O   0  0  0  0  0  0  0  0  0  0  0  0
    5.8188    5.3096   15.0934 C   0  0  0  0  0  0  0  0  0  0  0  0
    5.2082    6.3223   14.1667 C   0  0  0  0  0  0  0  0  0  0  0  0
   -0.4247    8.1513   11.9281 O   0  0  0  0  0  0  0  0  0  0  0  0
   -1.0264    9.4215   12.0120 C   0  0  0  0  0  0  0  0  0  0  0  0
    2.3955    1.3640    5.0645 O   0  0  0  0  0  0  0  0  0  0  0  0
  1  2  1  0
  2  3  1  0
  3  4  1  0
  4  5  1  0
  5  6  1  0
  6  7  1  0
  5  8  1  0
  8  9  2  0
  8 10  1  0
 10 11  1  0
 11 12  2  0
 12 13  1  0
 13 14  2  0
 14 15  1  0
 15 16  2  0
 16 17  1  0
 17 18  2  0
 18 19  1  0
 17 20  1  0
 20 21  1  0
 21 22  1  0
 22 23  1  0
 23 24  1  0
 24 25  1  0
 14 26  1  0
 26 27  1  0
  2 28  1  0
  7  2  1  0
 19 11  1  0
 18 13  1  0
 25 20  1  0
M  END
$$$$
