
     RDKit          3D

 28 31  0  0  0  0  0  0  0  0999 V2000
    5.6981    8.5453   18.2515 C   0  0  0  0  0  0  0  0  0  0  0  0
    4.9282    7.6258   17.3563 C   0  0  0  0  0  0  0  0  0  0  0  0
    5.8832    6.7895   16.5635 C   0  0  0  0  0  0  0  0  0  0  0  0
    5.7857    7.1316   15.0942 C   0  0  0  0  0  0  0  0  0  0  0  0
    4.4264    6.9518   14.6369 N   0  0  0  0  0  0  0  0  0  0  0  0
    3.3702    7.5341   15.4229 C   0  0  0  0  0  0  0  0  0  0  0  0
    3.9715    8.4214   16.4917 C   0  0  0  0  0  0  0  0  0  0  0  0
    4.2033    6.2164   13.4471 C   0  0  0  0  0  0  0  0  0  0  0  0
    5.1662    5.6204   12.9036 O   0  0  0  0  0  0  0  0  0  0  0  0
    2.9501    6.1101   12.8261 N   0  0  0  0  0  0  0  0  0  0  0  0
    2.8103    5.1908   11.7031 C   0  0  0  0  0  0  0  0  0  0  0  0
    3.1843    4.2054   11.2413 N   0  0  0  0  0  0  0  0  0  0  0  0
    2.8383    3.5856   10.1268 C   0  0  0  0  0  0  0  0  0  0  0  0
    3.2998    2.3897    9.5775 C   0  0  0  0  0  0  0  0  0  0  0  0
    2.7818    1.9387    8.3894 C   0  0  0  0  0  0  0  0  0  0  0  0
    1.8105    2.5853    7.6634 C   0  0  0  0  0  0  0  0  0  0  0  0
    1.3441    3.7738    8.1984 C   0  0  0  0  0  0  0  0  0  0  0  0
    1.8674    4.2378    9.4071 C   0  0  0  0  0  0  0  0  0  0  0  0
    1.5223    5.7011   10.3909 S   0  0  0  0  0  0  0  0  0  0  0  0
    0.3497    4.5759    7.5956 N   0  0  0  0  0  0  0  0  0  0  0  0
   -0.5293    5.4671    8.3192 C   0  0  0  0  0  0  0  0  0  0  0  0
   -0.8417    6.7114    7.5365 C   0  0  0  0  0  0  0  0  0  0  0  0
   -1.1358    6.4513    6.2194 O   0  0  0  0  0  0  0  0  0  0  0  0
   -0.0595    5.8661    5.5721 C   0  0  0  0  0  0  0  0  0  0  0  0
    0.1949    4.5052    6.1554 C   0  0  0  0  0  0  0  0  0  0  0  0
    4.2948    1.6283   10.2214 O   0  0  0  0  0  0  0  0  0  0  0  0
    4.4920    0.2780    9.8752 C   0  0  0  0  0  0  0  0  0  0  0  0
    4.1181    6.8302   18.1915 O   0  0  0  0  0  0  0  0  0  0  0  0
  1  2  1  0
  2  3  1  0
  3  4  1  0
  4  5  1  0
  5  6  1  0
  6  7  1  0
  5  8  1  0
  8  9  2  0
  8 10  1  0
 10 11  1  0
 11 12  2  0
 12 13  1  0
 13 14  2  0
 14 15  1  0
 15 16  2  0
 16 17  1  0
 17 18  2  0
 18 19  1  0
 17 20  1  0
 20 21  1  0
 21 22  1  0
 22 23  1  0
 23 24  1  0
 24 25  1  0
 14 26  1  0
 26 27  1  0
  2 28  1  0
  7  2  1  0
 19 11  1  0
 18 13  1  0
 25 20  1  0
M  END
$$$$
