
     RDKit          3D

 28 31  0  0  0  0  0  0  0  0999 V2000
    0.6763    1.4473    4.2894 C   0  0  0  0  0  0  0  0  0  0  0  0
    0.3267    1.7295    5.7170 C   0  0  0  0  0  0  0  0  0  0  0  0
    0.5818    3.1739    6.0147 C   0  0  0  0  0  0  0  0  0  0  0  0
    1.7057    3.3128    7.0161 C   0  0  0  0  0  0  0  0  0  0  0  0
    1.3861    2.5778    8.2188 N   0  0  0  0  0  0  0  0  0  0  0  0
    0.9233    1.2222    8.0751 C   0  0  0  0  0  0  0  0  0  0  0  0
    1.0819    0.7886    6.6335 C   0  0  0  0  0  0  0  0  0  0  0  0
    1.5427    3.2236    9.4696 C   0  0  0  0  0  0  0  0  0  0  0  0
    1.4075    2.5575   10.5261 O   0  0  0  0  0  0  0  0  0  0  0  0
    1.8452    4.5865    9.6049 N   0  0  0  0  0  0  0  0  0  0  0  0
    2.4154    5.0468   10.8653 C   0  0  0  0  0  0  0  0  0  0  0  0
    3.1667    4.8046   11.7027 N   0  0  0  0  0  0  0  0  0  0  0  0
    3.4835    5.4688   12.8001 C   0  0  0  0  0  0  0  0  0  0  0  0
    4.3974    5.1639   13.8084 C   0  0  0  0  0  0  0  0  0  0  0  0
    4.5567    6.0212   14.8682 C   0  0  0  0  0  0  0  0  0  0  0  0
    3.8694    7.1999   15.0316 C   0  0  0  0  0  0  0  0  0  0  0  0
    2.9590    7.5136   14.0370 C   0  0  0  0  0  0  0  0  0  0  0  0
    2.7925    6.6453   12.9562 C   0  0  0  0  0  0  0  0  0  0  0  0
    1.7332    6.7097   11.5064 S   0  0  0  0  0  0  0  0  0  0  0  0
    2.1625    8.6803   14.0336 N   0  0  0  0  0  0  0  0  0  0  0  0
    1.8421    9.4461   12.8499 C   0  0  0  0  0  0  0  0  0  0  0  0
    0.4575   10.0271   12.9102 C   0  0  0  0  0  0  0  0  0  0  0  0
    0.1678   10.5854   14.1322 O   0  0  0  0  0  0  0  0  0  0  0  0
    0.2163    9.6361   15.1405 C   0  0  0  0  0  0  0  0  0  0  0  0
    1.6277    9.1464   15.2985 C   0  0  0  0  0  0  0  0  0  0  0  0
    5.1670    3.9850   13.7621 O   0  0  0  0  0  0  0  0  0  0  0  0
    6.1763    3.7569   14.7168 C   0  0  0  0  0  0  0  0  0  0  0  0
   -1.0359    1.4046    5.8731 O   0  0  0  0  0  0  0  0  0  0  0  0
  1  2  1  0
  2  3  1  0
  3  4  1  0
  4  5  1  0
  5  6  1  0
  6  7  1  0
  5  8  1  0
  8  9  2  0
  8 10  1  0
 10 11  1  0
 11 12  2  0
 12 13  1  0
 13 14  2  0
 14 15  1  0
 15 16  2  0
 16 17  1  0
 17 18  2  0
 18 19  1  0
 17 20  1  0
 20 21  1  0
 21 22  1  0
 22 23  1  0
 23 24  1  0
 24 25  1  0
 14 26  1  0
 26 27  1  0
  2 28  1  0
  7  2  1  0
 19 11  1  0
 18 13  1  0
 25 20  1  0
M  END
$$$$
