
     RDKit          3D

 28 31  0  0  0  0  0  0  0  0999 V2000
   -2.0251   13.1069   10.8020 C   0  0  0  0  0  0  0  0  0  0  0  0
   -0.8773   12.1467   10.7898 C   0  0  0  0  0  0  0  0  0  0  0  0
   -1.2088   10.9876    9.9028 C   0  0  0  0  0  0  0  0  0  0  0  0
   -1.3237    9.7194   10.7175 C   0  0  0  0  0  0  0  0  0  0  0  0
   -0.0960    9.4893   11.4446 N   0  0  0  0  0  0  0  0  0  0  0  0
    0.4608   10.5889   12.1885 C   0  0  0  0  0  0  0  0  0  0  0  0
   -0.5283   11.7346   12.2054 C   0  0  0  0  0  0  0  0  0  0  0  0
    0.4939    8.2028   11.3889 C   0  0  0  0  0  0  0  0  0  0  0  0
    1.4987    7.9563   12.1012 O   0  0  0  0  0  0  0  0  0  0  0  0
    0.0169    7.1670   10.5722 N   0  0  0  0  0  0  0  0  0  0  0  0
    0.7758    5.9233   10.5182 C   0  0  0  0  0  0  0  0  0  0  0  0
    0.8657    4.8970   10.0055 N   0  0  0  0  0  0  0  0  0  0  0  0
    1.7255    3.9105   10.1883 C   0  0  0  0  0  0  0  0  0  0  0  0
    1.8239    2.6697    9.5593 C   0  0  0  0  0  0  0  0  0  0  0  0
    2.8174    1.7958    9.9235 C   0  0  0  0  0  0  0  0  0  0  0  0
    3.7617    2.0433   10.8908 C   0  0  0  0  0  0  0  0  0  0  0  0
    3.6745    3.2720   11.5226 C   0  0  0  0  0  0  0  0  0  0  0  0
    2.6657    4.1653   11.1563 C   0  0  0  0  0  0  0  0  0  0  0  0
    2.2418    5.8127   11.7349 S   0  0  0  0  0  0  0  0  0  0  0  0
    4.5552    3.7021   12.5400 N   0  0  0  0  0  0  0  0  0  0  0  0
    5.0436    5.0559   12.6779 C   0  0  0  0  0  0  0  0  0  0  0  0
    5.2077    5.4537   14.1177 C   0  0  0  0  0  0  0  0  0  0  0  0
    5.8078    4.4760   14.8745 O   0  0  0  0  0  0  0  0  0  0  0  0
    5.0455    3.3190   14.8936 C   0  0  0  0  0  0  0  0  0  0  0  0
    5.0030    2.7255   13.5141 C   0  0  0  0  0  0  0  0  0  0  0  0
    0.9177    2.2909    8.5495 O   0  0  0  0  0  0  0  0  0  0  0  0
    1.2762    1.3119    7.6033 C   0  0  0  0  0  0  0  0  0  0  0  0
    0.2417   12.8576   10.3110 O   0  0  0  0  0  0  0  0  0  0  0  0
  1  2  1  0
  2  3  1  0
  3  4  1  0
  4  5  1  0
  5  6  1  0
  6  7  1  0
  5  8  1  0
  8  9  2  0
  8 10  1  0
 10 11  1  0
 11 12  2  0
 12 13  1  0
 13 14  2  0
 14 15  1  0
 15 16  2  0
 16 17  1  0
 17 18  2  0
 18 19  1  0
 17 20  1  0
 20 21  1  0
 21 22  1  0
 22 23  1  0
 23 24  1  0
 24 25  1  0
 14 26  1  0
 26 27  1  0
  2 28  1  0
  7  2  1  0
 19 11  1  0
 18 13  1  0
 25 20  1  0
M  END
$$$$
