
     RDKit          3D

 28 31  0  0  0  0  0  0  0  0999 V2000
    3.9882    8.2497   18.2390 C   0  0  0  0  0  0  0  0  0  0  0  0
    4.5316    7.7335   16.9435 C   0  0  0  0  0  0  0  0  0  0  0  0
    3.5829    8.0725   15.8367 C   0  0  0  0  0  0  0  0  0  0  0  0
    2.9820    6.8127   15.2561 C   0  0  0  0  0  0  0  0  0  0  0  0
    4.0329    5.9339   14.7956 N   0  0  0  0  0  0  0  0  0  0  0  0
    5.1320    5.6748   15.6886 C   0  0  0  0  0  0  0  0  0  0  0  0
    4.8156    6.2492   17.0528 C   0  0  0  0  0  0  0  0  0  0  0  0
    3.9298    5.3759   13.4978 C   0  0  0  0  0  0  0  0  0  0  0  0
    4.7625    4.5085   13.1341 O   0  0  0  0  0  0  0  0  0  0  0  0
    2.9370    5.7385   12.5758 N   0  0  0  0  0  0  0  0  0  0  0  0
    2.6088    4.8012   11.5082 C   0  0  0  0  0  0  0  0  0  0  0  0
    2.8465    3.7708   11.0544 N   0  0  0  0  0  0  0  0  0  0  0  0
    2.3419    3.1513   10.0020 C   0  0  0  0  0  0  0  0  0  0  0  0
    2.6390    1.9004    9.4616 C   0  0  0  0  0  0  0  0  0  0  0  0
    1.9722    1.4627    8.3449 C   0  0  0  0  0  0  0  0  0  0  0  0
    0.9993    2.1744    7.6850 C   0  0  0  0  0  0  0  0  0  0  0  0
    0.6953    3.4179    8.2119 C   0  0  0  0  0  0  0  0  0  0  0  0
    1.3705    3.8687    9.3481 C   0  0  0  0  0  0  0  0  0  0  0  0
    1.2541    5.3885   10.2994 S   0  0  0  0  0  0  0  0  0  0  0  0
   -0.2747    4.2905    7.6704 N   0  0  0  0  0  0  0  0  0  0  0  0
   -0.1544    5.7310    7.6474 C   0  0  0  0  0  0  0  0  0  0  0  0
   -0.7607    6.3292    6.4093 C   0  0  0  0  0  0  0  0  0  0  0  0
   -1.9832    5.7834    6.0988 O   0  0  0  0  0  0  0  0  0  0  0  0
   -1.8747    4.4263    5.8406 C   0  0  0  0  0  0  0  0  0  0  0  0
   -1.4736    3.7088    7.0981 C   0  0  0  0  0  0  0  0  0  0  0  0
    3.6172    1.0696   10.0424 O   0  0  0  0  0  0  0  0  0  0  0  0
    4.2765    0.0977    9.2659 C   0  0  0  0  0  0  0  0  0  0  0  0
    5.7848    8.3503   16.7544 O   0  0  0  0  0  0  0  0  0  0  0  0
  1  2  1  0
  2  3  1  0
  3  4  1  0
  4  5  1  0
  5  6  1  0
  6  7  1  0
  5  8  1  0
  8  9  2  0
  8 10  1  0
 10 11  1  0
 11 12  2  0
 12 13  1  0
 13 14  2  0
 14 15  1  0
 15 16  2  0
 16 17  1  0
 17 18  2  0
 18 19  1  0
 17 20  1  0
 20 21  1  0
 21 22  1  0
 22 23  1  0
 23 24  1  0
 24 25  1  0
 14 26  1  0
 26 27  1  0
  2 28  1  0
  7  2  1  0
 19 11  1  0
 18 13  1  0
 25 20  1  0
M  END
$$$$
