
     RDKit          3D

 28 31  0  0  0  0  0  0  0  0999 V2000
    1.0108   13.3450   15.4431 C   0  0  0  0  0  0  0  0  0  0  0  0
    0.9710   11.8605   15.2575 C   0  0  0  0  0  0  0  0  0  0  0  0
    2.3577   11.3531   15.0131 C   0  0  0  0  0  0  0  0  0  0  0  0
    2.4749   10.8005   13.6109 C   0  0  0  0  0  0  0  0  0  0  0  0
    1.4922    9.7601   13.4089 N   0  0  0  0  0  0  0  0  0  0  0  0
    0.1329   10.0352   13.7948 C   0  0  0  0  0  0  0  0  0  0  0  0
   -0.0001   11.5002   14.1517 C   0  0  0  0  0  0  0  0  0  0  0  0
    1.9131    8.5304   12.8458 C   0  0  0  0  0  0  0  0  0  0  0  0
    3.1373    8.3341   12.6441 O   0  0  0  0  0  0  0  0  0  0  0  0
    1.0312    7.4984   12.4926 N   0  0  0  0  0  0  0  0  0  0  0  0
    1.5943    6.2269   12.0548 C   0  0  0  0  0  0  0  0  0  0  0  0
    2.3243    5.3786   12.3228 N   0  0  0  0  0  0  0  0  0  0  0  0
    2.6435    4.2736   11.6725 C   0  0  0  0  0  0  0  0  0  0  0  0
    3.5311    3.2519   12.0089 C   0  0  0  0  0  0  0  0  0  0  0  0
    3.6992    2.1861   11.1609 C   0  0  0  0  0  0  0  0  0  0  0  0
    3.0456    2.0288    9.9623 C   0  0  0  0  0  0  0  0  0  0  0  0
    2.1616    3.0367    9.6172 C   0  0  0  0  0  0  0  0  0  0  0  0
    1.9863    4.1237   10.4761 C   0  0  0  0  0  0  0  0  0  0  0  0
    0.9529    5.5900   10.3741 S   0  0  0  0  0  0  0  0  0  0  0  0
    1.4016    3.0484    8.4264 N   0  0  0  0  0  0  0  0  0  0  0  0
    1.8050    2.4078    7.1947 C   0  0  0  0  0  0  0  0  0  0  0  0
    0.6337    1.8430    6.4414 C   0  0  0  0  0  0  0  0  0  0  0  0
   -0.4348    2.7061    6.3945 O   0  0  0  0  0  0  0  0  0  0  0  0
   -0.9102    2.9839    7.6661 C   0  0  0  0  0  0  0  0  0  0  0  0
    0.1313    3.7480    8.4333 C   0  0  0  0  0  0  0  0  0  0  0  0
    4.2650    3.2907   13.2106 O   0  0  0  0  0  0  0  0  0  0  0  0
    5.1587    2.2512   13.5318 C   0  0  0  0  0  0  0  0  0  0  0  0
    0.4250   11.3183   16.4384 O   0  0  0  0  0  0  0  0  0  0  0  0
  1  2  1  0
  2  3  1  0
  3  4  1  0
  4  5  1  0
  5  6  1  0
  6  7  1  0
  5  8  1  0
  8  9  2  0
  8 10  1  0
 10 11  1  0
 11 12  2  0
 12 13  1  0
 13 14  2  0
 14 15  1  0
 15 16  2  0
 16 17  1  0
 17 18  2  0
 18 19  1  0
 17 20  1  0
 20 21  1  0
 21 22  1  0
 22 23  1  0
 23 24  1  0
 24 25  1  0
 14 26  1  0
 26 27  1  0
  2 28  1  0
  7  2  1  0
 19 11  1  0
 18 13  1  0
 25 20  1  0
M  END
$$$$
