
     RDKit          3D

 28 31  0  0  0  0  0  0  0  0999 V2000
    2.6759   -1.5974    7.1479 C   0  0  0  0  0  0  0  0  0  0  0  0
    2.2074   -0.3412    7.8128 C   0  0  0  0  0  0  0  0  0  0  0  0
    3.3273    0.6511    7.8452 C   0  0  0  0  0  0  0  0  0  0  0  0
    3.7559    0.9126    9.2711 C   0  0  0  0  0  0  0  0  0  0  0  0
    2.6263    1.3708   10.0476 N   0  0  0  0  0  0  0  0  0  0  0  0
    1.3995    0.6231    9.9556 C   0  0  0  0  0  0  0  0  0  0  0  0
    1.6488   -0.6561    9.1856 C   0  0  0  0  0  0  0  0  0  0  0  0
    2.7816    2.5248   10.8542 C   0  0  0  0  0  0  0  0  0  0  0  0
    3.8048    3.2396   10.7132 O   0  0  0  0  0  0  0  0  0  0  0  0
    1.8462    2.9267   11.8190 N   0  0  0  0  0  0  0  0  0  0  0  0
    1.3507    4.2972   11.7733 C   0  0  0  0  0  0  0  0  0  0  0  0
    0.7377    5.0566   11.1636 N   0  0  0  0  0  0  0  0  0  0  0  0
    0.4434    6.3224   11.4024 C   0  0  0  0  0  0  0  0  0  0  0  0
   -0.3018    7.2333   10.6542 C   0  0  0  0  0  0  0  0  0  0  0  0
   -0.4744    8.5151   11.1131 C   0  0  0  0  0  0  0  0  0  0  0  0
    0.0416    9.0011   12.2904 C   0  0  0  0  0  0  0  0  0  0  0  0
    0.7834    8.1062   13.0422 C   0  0  0  0  0  0  0  0  0  0  0  0
    0.9625    6.8006   12.5805 C   0  0  0  0  0  0  0  0  0  0  0  0
    1.8398    5.3878   13.2609 S   0  0  0  0  0  0  0  0  0  0  0  0
    1.3908    8.4242   14.2774 N   0  0  0  0  0  0  0  0  0  0  0  0
    2.6878    7.9426   14.6969 C   0  0  0  0  0  0  0  0  0  0  0  0
    3.4345    8.9635   15.5084 C   0  0  0  0  0  0  0  0  0  0  0  0
    2.6433    9.5763   16.4504 O   0  0  0  0  0  0  0  0  0  0  0  0
    1.5994   10.2664   15.8553 C   0  0  0  0  0  0  0  0  0  0  0  0
    0.6704    9.2910   15.1900 C   0  0  0  0  0  0  0  0  0  0  0  0
   -0.8861    6.8628    9.4272 O   0  0  0  0  0  0  0  0  0  0  0  0
   -1.7644    7.7410    8.7641 C   0  0  0  0  0  0  0  0  0  0  0  0
    1.1181    0.1365    7.0565 O   0  0  0  0  0  0  0  0  0  0  0  0
  1  2  1  0
  2  3  1  0
  3  4  1  0
  4  5  1  0
  5  6  1  0
  6  7  1  0
  5  8  1  0
  8  9  2  0
  8 10  1  0
 10 11  1  0
 11 12  2  0
 12 13  1  0
 13 14  2  0
 14 15  1  0
 15 16  2  0
 16 17  1  0
 17 18  2  0
 18 19  1  0
 17 20  1  0
 20 21  1  0
 21 22  1  0
 22 23  1  0
 23 24  1  0
 24 25  1  0
 14 26  1  0
 26 27  1  0
  2 28  1  0
  7  2  1  0
 19 11  1  0
 18 13  1  0
 25 20  1  0
M  END
$$$$
