
     RDKit          3D

 28 31  0  0  0  0  0  0  0  0999 V2000
    6.2182    8.2413   17.5515 C   0  0  0  0  0  0  0  0  0  0  0  0
    5.0805    7.5247   16.8943 C   0  0  0  0  0  0  0  0  0  0  0  0
    5.5914    6.2835   16.2321 C   0  0  0  0  0  0  0  0  0  0  0  0
    5.4450    6.3911   14.7313 C   0  0  0  0  0  0  0  0  0  0  0  0
    4.0626    6.6375   14.3888 N   0  0  0  0  0  0  0  0  0  0  0  0
    3.3696    7.6803   15.0993 C   0  0  0  0  0  0  0  0  0  0  0  0
    4.3595    8.4562   15.9415 C   0  0  0  0  0  0  0  0  0  0  0  0
    3.4630    5.8458   13.3789 C   0  0  0  0  0  0  0  0  0  0  0  0
    2.3357    6.1719   12.9309 O   0  0  0  0  0  0  0  0  0  0  0  0
    4.0610    4.6983   12.8375 N   0  0  0  0  0  0  0  0  0  0  0  0
    3.4442    4.0828   11.6685 C   0  0  0  0  0  0  0  0  0  0  0  0
    3.4388    3.1573   10.9847 N   0  0  0  0  0  0  0  0  0  0  0  0
    2.7075    2.8703    9.9223 C   0  0  0  0  0  0  0  0  0  0  0  0
    2.7107    1.7432    9.1010 C   0  0  0  0  0  0  0  0  0  0  0  0
    1.8451    1.6694    8.0386 C   0  0  0  0  0  0  0  0  0  0  0  0
    0.9394    2.6452    7.6977 C   0  0  0  0  0  0  0  0  0  0  0  0
    0.9266    3.7693    8.5056 C   0  0  0  0  0  0  0  0  0  0  0  0
    1.8051    3.8500    9.5881 C   0  0  0  0  0  0  0  0  0  0  0  0
    2.0763    5.1177   10.8322 S   0  0  0  0  0  0  0  0  0  0  0  0
    0.0667    4.8730    8.3111 N   0  0  0  0  0  0  0  0  0  0  0  0
   -0.2404    5.4509    7.0219 C   0  0  0  0  0  0  0  0  0  0  0  0
   -1.6569    5.9474    6.9479 C   0  0  0  0  0  0  0  0  0  0  0  0
   -2.0348    6.6460    8.0696 O   0  0  0  0  0  0  0  0  0  0  0  0
   -1.9803    5.8460    9.1997 C   0  0  0  0  0  0  0  0  0  0  0  0
   -0.5525    5.4709    9.4782 C   0  0  0  0  0  0  0  0  0  0  0  0
    3.5907    0.6697    9.3406 O   0  0  0  0  0  0  0  0  0  0  0  0
    3.9558   -0.1976    8.2934 C   0  0  0  0  0  0  0  0  0  0  0  0
    4.1512    7.2211   17.9097 O   0  0  0  0  0  0  0  0  0  0  0  0
  1  2  1  0
  2  3  1  0
  3  4  1  0
  4  5  1  0
  5  6  1  0
  6  7  1  0
  5  8  1  0
  8  9  2  0
  8 10  1  0
 10 11  1  0
 11 12  2  0
 12 13  1  0
 13 14  2  0
 14 15  1  0
 15 16  2  0
 16 17  1  0
 17 18  2  0
 18 19  1  0
 17 20  1  0
 20 21  1  0
 21 22  1  0
 22 23  1  0
 23 24  1  0
 24 25  1  0
 14 26  1  0
 26 27  1  0
  2 28  1  0
  7  2  1  0
 19 11  1  0
 18 13  1  0
 25 20  1  0
M  END
$$$$
