
     RDKit          3D

 28 31  0  0  0  0  0  0  0  0999 V2000
    5.9634    8.1290   17.7769 C   0  0  0  0  0  0  0  0  0  0  0  0
    4.8584    7.4230   17.0556 C   0  0  0  0  0  0  0  0  0  0  0  0
    5.4037    6.2005   16.3861 C   0  0  0  0  0  0  0  0  0  0  0  0
    5.3197    6.3435   14.8834 C   0  0  0  0  0  0  0  0  0  0  0  0
    3.9515    6.5915   14.4891 N   0  0  0  0  0  0  0  0  0  0  0  0
    3.2234    7.6138   15.1943 C   0  0  0  0  0  0  0  0  0  0  0  0
    4.1727    8.3738   16.0957 C   0  0  0  0  0  0  0  0  0  0  0  0
    3.3993    5.8215   13.4362 C   0  0  0  0  0  0  0  0  0  0  0  0
    2.2499    6.0971   13.0110 O   0  0  0  0  0  0  0  0  0  0  0  0
    4.0688    4.7500   12.8271 N   0  0  0  0  0  0  0  0  0  0  0  0
    3.4296    4.0879   11.6962 C   0  0  0  0  0  0  0  0  0  0  0  0
    3.4037    3.1311   11.0576 N   0  0  0  0  0  0  0  0  0  0  0  0
    2.6557    2.8038   10.0188 C   0  0  0  0  0  0  0  0  0  0  0  0
    2.6340    1.6388    9.2524 C   0  0  0  0  0  0  0  0  0  0  0  0
    1.7545    1.5263    8.2049 C   0  0  0  0  0  0  0  0  0  0  0  0
    0.8576    2.4970    7.8283 C   0  0  0  0  0  0  0  0  0  0  0  0
    0.8694    3.6584    8.5815 C   0  0  0  0  0  0  0  0  0  0  0  0
    1.7621    3.7787    9.6486 C   0  0  0  0  0  0  0  0  0  0  0  0
    2.0652    5.1004   10.8274 S   0  0  0  0  0  0  0  0  0  0  0  0
    0.0217    4.7633    8.3445 N   0  0  0  0  0  0  0  0  0  0  0  0
   -0.2286    5.3347    7.0402 C   0  0  0  0  0  0  0  0  0  0  0  0
   -1.6392    5.8345    6.9032 C   0  0  0  0  0  0  0  0  0  0  0  0
   -2.0626    6.5403    8.0039 O   0  0  0  0  0  0  0  0  0  0  0  0
   -2.0586    5.7465    9.1397 C   0  0  0  0  0  0  0  0  0  0  0  0
   -0.6450    5.3693    9.4809 C   0  0  0  0  0  0  0  0  0  0  0  0
    3.5028    0.5660    9.5327 O   0  0  0  0  0  0  0  0  0  0  0  0
    3.8565   -0.3458    8.5199 C   0  0  0  0  0  0  0  0  0  0  0  0
    3.8890    7.0908   18.0234 O   0  0  0  0  0  0  0  0  0  0  0  0
  1  2  1  0
  2  3  1  0
  3  4  1  0
  4  5  1  0
  5  6  1  0
  6  7  1  0
  5  8  1  0
  8  9  2  0
  8 10  1  0
 10 11  1  0
 11 12  2  0
 12 13  1  0
 13 14  2  0
 14 15  1  0
 15 16  2  0
 16 17  1  0
 17 18  2  0
 18 19  1  0
 17 20  1  0
 20 21  1  0
 21 22  1  0
 22 23  1  0
 23 24  1  0
 24 25  1  0
 14 26  1  0
 26 27  1  0
  2 28  1  0
  7  2  1  0
 19 11  1  0
 18 13  1  0
 25 20  1  0
M  END
$$$$
