
     RDKit          3D

 28 31  0  0  0  0  0  0  0  0999 V2000
    1.0888    0.5628    4.5755 C   0  0  0  0  0  0  0  0  0  0  0  0
    0.7602    0.8620    6.0046 C   0  0  0  0  0  0  0  0  0  0  0  0
    0.0970    2.2009    6.0920 C   0  0  0  0  0  0  0  0  0  0  0  0
    0.9765    3.1742    6.8433 C   0  0  0  0  0  0  0  0  0  0  0  0
    1.2782    2.6513    8.1565 N   0  0  0  0  0  0  0  0  0  0  0  0
    1.7366    1.2898    8.2490 C   0  0  0  0  0  0  0  0  0  0  0  0
    2.0074    0.7566    6.8584 C   0  0  0  0  0  0  0  0  0  0  0  0
    1.1083    3.4985    9.2789 C   0  0  0  0  0  0  0  0  0  0  0  0
    0.6450    4.6541    9.1117 O   0  0  0  0  0  0  0  0  0  0  0  0
    1.4312    3.1204   10.5904 N   0  0  0  0  0  0  0  0  0  0  0  0
    2.0492    4.1110   11.4636 C   0  0  0  0  0  0  0  0  0  0  0  0
    2.9198    4.3147   12.1880 N   0  0  0  0  0  0  0  0  0  0  0  0
    3.2361    5.3956   12.8790 C   0  0  0  0  0  0  0  0  0  0  0  0
    4.2958    5.6300   13.7548 C   0  0  0  0  0  0  0  0  0  0  0  0
    4.4201    6.8528   14.3652 C   0  0  0  0  0  0  0  0  0  0  0  0
    3.5600    7.9091   14.1839 C   0  0  0  0  0  0  0  0  0  0  0  0
    2.5037    7.6888   13.3167 C   0  0  0  0  0  0  0  0  0  0  0  0
    2.3720    6.4466   12.6926 C   0  0  0  0  0  0  0  0  0  0  0  0
    1.1628    5.7996   11.5317 S   0  0  0  0  0  0  0  0  0  0  0  0
    1.5203    8.6545   13.0070 N   0  0  0  0  0  0  0  0  0  0  0  0
    1.0501    8.9405   11.6700 C   0  0  0  0  0  0  0  0  0  0  0  0
   -0.4117    9.2884   11.6473 C   0  0  0  0  0  0  0  0  0  0  0  0
   -0.7673   10.1573   12.6511 O   0  0  0  0  0  0  0  0  0  0  0  0
   -0.5373    9.6014   13.8993 C   0  0  0  0  0  0  0  0  0  0  0  0
    0.9399    9.4131   14.0982 C   0  0  0  0  0  0  0  0  0  0  0  0
    5.2495    4.6300   14.0285 O   0  0  0  0  0  0  0  0  0  0  0  0
    6.6089    4.9654   14.1759 C   0  0  0  0  0  0  0  0  0  0  0  0
   -0.0956   -0.1663    6.4482 O   0  0  0  0  0  0  0  0  0  0  0  0
  1  2  1  0
  2  3  1  0
  3  4  1  0
  4  5  1  0
  5  6  1  0
  6  7  1  0
  5  8  1  0
  8  9  2  0
  8 10  1  0
 10 11  1  0
 11 12  2  0
 12 13  1  0
 13 14  2  0
 14 15  1  0
 15 16  2  0
 16 17  1  0
 17 18  2  0
 18 19  1  0
 17 20  1  0
 20 21  1  0
 21 22  1  0
 22 23  1  0
 23 24  1  0
 24 25  1  0
 14 26  1  0
 26 27  1  0
  2 28  1  0
  7  2  1  0
 19 11  1  0
 18 13  1  0
 25 20  1  0
M  END
$$$$
