
     RDKit          3D

 28 31  0  0  0  0  0  0  0  0999 V2000
    6.5455    7.4484   17.9991 C   0  0  0  0  0  0  0  0  0  0  0  0
    5.3587    7.4520   17.0874 C   0  0  0  0  0  0  0  0  0  0  0  0
    4.8882    6.0465   16.8790 C   0  0  0  0  0  0  0  0  0  0  0  0
    5.0873    5.6346   15.4382 C   0  0  0  0  0  0  0  0  0  0  0  0
    4.3955    6.5546   14.5640 N   0  0  0  0  0  0  0  0  0  0  0  0
    4.5926    7.9641   14.7800 C   0  0  0  0  0  0  0  0  0  0  0  0
    5.6974    8.1661   15.7948 C   0  0  0  0  0  0  0  0  0  0  0  0
    3.5638    6.0268   13.5462 C   0  0  0  0  0  0  0  0  0  0  0  0
    3.0983    6.7988   12.6714 O   0  0  0  0  0  0  0  0  0  0  0  0
    3.2209    4.6700   13.4524 N   0  0  0  0  0  0  0  0  0  0  0  0
    2.9296    4.1196   12.1340 C   0  0  0  0  0  0  0  0  0  0  0  0
    3.2822    3.3843   11.3222 N   0  0  0  0  0  0  0  0  0  0  0  0
    2.7661    3.0835   10.1436 C   0  0  0  0  0  0  0  0  0  0  0  0
    3.2039    2.1888    9.1674 C   0  0  0  0  0  0  0  0  0  0  0  0
    2.4903    2.0438    8.0042 C   0  0  0  0  0  0  0  0  0  0  0  0
    1.3373    2.7281    7.7028 C   0  0  0  0  0  0  0  0  0  0  0  0
    0.8924    3.6194    8.6641 C   0  0  0  0  0  0  0  0  0  0  0  0
    1.6143    3.7712    9.8498 C   0  0  0  0  0  0  0  0  0  0  0  0
    1.3575    4.8047   11.2970 S   0  0  0  0  0  0  0  0  0  0  0  0
   -0.2708    4.4099    8.5316 N   0  0  0  0  0  0  0  0  0  0  0  0
   -0.5211    5.6244    9.2751 C   0  0  0  0  0  0  0  0  0  0  0  0
   -1.2666    6.6429    8.4595 C   0  0  0  0  0  0  0  0  0  0  0  0
   -2.3118    6.0971    7.7533 O   0  0  0  0  0  0  0  0  0  0  0  0
   -1.8629    5.1512    6.8457 C   0  0  0  0  0  0  0  0  0  0  0  0
   -1.2854    3.9801    7.5887 C   0  0  0  0  0  0  0  0  0  0  0  0
    4.3726    1.4244    9.3514 O   0  0  0  0  0  0  0  0  0  0  0  0
    4.3981    0.0652    8.9852 C   0  0  0  0  0  0  0  0  0  0  0  0
    4.3696    8.2386   17.7117 O   0  0  0  0  0  0  0  0  0  0  0  0
  1  2  1  0
  2  3  1  0
  3  4  1  0
  4  5  1  0
  5  6  1  0
  6  7  1  0
  5  8  1  0
  8  9  2  0
  8 10  1  0
 10 11  1  0
 11 12  2  0
 12 13  1  0
 13 14  2  0
 14 15  1  0
 15 16  2  0
 16 17  1  0
 17 18  2  0
 18 19  1  0
 17 20  1  0
 20 21  1  0
 21 22  1  0
 22 23  1  0
 23 24  1  0
 24 25  1  0
 14 26  1  0
 26 27  1  0
  2 28  1  0
  7  2  1  0
 19 11  1  0
 18 13  1  0
 25 20  1  0
M  END
$$$$
