
     RDKit          3D

 28 31  0  0  0  0  0  0  0  0999 V2000
    5.5776    8.7719   16.7933 C   0  0  0  0  0  0  0  0  0  0  0  0
    4.8347    7.5479   16.3577 C   0  0  0  0  0  0  0  0  0  0  0  0
    5.5571    6.9094   15.2130 C   0  0  0  0  0  0  0  0  0  0  0  0
    4.7204    6.9855   13.9563 C   0  0  0  0  0  0  0  0  0  0  0  0
    3.4372    6.3596   14.1816 N   0  0  0  0  0  0  0  0  0  0  0  0
    2.7086    6.7278   15.3673 C   0  0  0  0  0  0  0  0  0  0  0  0
    3.3967    7.8992   16.0348 C   0  0  0  0  0  0  0  0  0  0  0  0
    2.9645    5.4215   13.2314 C   0  0  0  0  0  0  0  0  0  0  0  0
    1.7830    5.0033   13.3162 O   0  0  0  0  0  0  0  0  0  0  0  0
    3.7483    4.9209   12.1814 N   0  0  0  0  0  0  0  0  0  0  0  0
    3.0889    4.5848   10.9253 C   0  0  0  0  0  0  0  0  0  0  0  0
    3.1130    4.7232    9.7831 N   0  0  0  0  0  0  0  0  0  0  0  0
    2.3164    4.2570    8.8377 C   0  0  0  0  0  0  0  0  0  0  0  0
    2.3567    4.4321    7.4547 C   0  0  0  0  0  0  0  0  0  0  0  0
    1.4053    3.8395    6.6629 C   0  0  0  0  0  0  0  0  0  0  0  0
    0.3755    3.0578    7.1287 C   0  0  0  0  0  0  0  0  0  0  0  0
    0.3247    2.8763    8.5002 C   0  0  0  0  0  0  0  0  0  0  0  0
    1.2900    3.4769    9.3111 C   0  0  0  0  0  0  0  0  0  0  0  0
    1.5477    3.4715   11.0892 S   0  0  0  0  0  0  0  0  0  0  0  0
   -0.6593    2.1070    9.1601 N   0  0  0  0  0  0  0  0  0  0  0  0
   -1.7415    1.4196    8.4917 C   0  0  0  0  0  0  0  0  0  0  0  0
   -2.0846    0.1191    9.1620 C   0  0  0  0  0  0  0  0  0  0  0  0
   -2.1417    0.2253   10.5311 O   0  0  0  0  0  0  0  0  0  0  0  0
   -0.9155    0.6012   11.0557 C   0  0  0  0  0  0  0  0  0  0  0  0
   -0.5848    1.9953   10.6041 C   0  0  0  0  0  0  0  0  0  0  0  0
    3.3615    5.2110    6.8481 O   0  0  0  0  0  0  0  0  0  0  0  0
    3.2276    5.6269    5.5096 C   0  0  0  0  0  0  0  0  0  0  0  0
    4.7777    6.6890   17.4739 O   0  0  0  0  0  0  0  0  0  0  0  0
  1  2  1  0
  2  3  1  0
  3  4  1  0
  4  5  1  0
  5  6  1  0
  6  7  1  0
  5  8  1  0
  8  9  2  0
  8 10  1  0
 10 11  1  0
 11 12  2  0
 12 13  1  0
 13 14  2  0
 14 15  1  0
 15 16  2  0
 16 17  1  0
 17 18  2  0
 18 19  1  0
 17 20  1  0
 20 21  1  0
 21 22  1  0
 22 23  1  0
 23 24  1  0
 24 25  1  0
 14 26  1  0
 26 27  1  0
  2 28  1  0
  7  2  1  0
 19 11  1  0
 18 13  1  0
 25 20  1  0
M  END
$$$$
