
     RDKit          3D

 28 31  0  0  0  0  0  0  0  0999 V2000
    1.5238    2.3751    4.1270 C   0  0  0  0  0  0  0  0  0  0  0  0
    0.9236    3.0052    5.3446 C   0  0  0  0  0  0  0  0  0  0  0  0
    1.8429    4.0690    5.8578 C   0  0  0  0  0  0  0  0  0  0  0  0
    2.3906    3.6807    7.2123 C   0  0  0  0  0  0  0  0  0  0  0  0
    1.3019    3.4396    8.1319 N   0  0  0  0  0  0  0  0  0  0  0  0
    0.2272    2.5883    7.6930 C   0  0  0  0  0  0  0  0  0  0  0  0
    0.6046    1.9429    6.3768 C   0  0  0  0  0  0  0  0  0  0  0  0
    1.3465    4.0493    9.4096 C   0  0  0  0  0  0  0  0  0  0  0  0
    0.7746    3.4892   10.3778 O   0  0  0  0  0  0  0  0  0  0  0  0
    2.0018    5.2625    9.6663 N   0  0  0  0  0  0  0  0  0  0  0  0
    2.5710    5.4744   10.9918 C   0  0  0  0  0  0  0  0  0  0  0  0
    3.2839    5.0494   11.7889 N   0  0  0  0  0  0  0  0  0  0  0  0
    3.6180    5.5059   12.9830 C   0  0  0  0  0  0  0  0  0  0  0  0
    4.4848    4.9805   13.9409 C   0  0  0  0  0  0  0  0  0  0  0  0
    4.6756    5.6441   15.1269 C   0  0  0  0  0  0  0  0  0  0  0  0
    4.0651    6.8268   15.4691 C   0  0  0  0  0  0  0  0  0  0  0  0
    3.2022    7.3585   14.5262 C   0  0  0  0  0  0  0  0  0  0  0  0
    3.0039    6.6878   13.3176 C   0  0  0  0  0  0  0  0  0  0  0  0
    1.9866    7.0571   11.8834 S   0  0  0  0  0  0  0  0  0  0  0  0
    2.4860    8.5637   14.7004 N   0  0  0  0  0  0  0  0  0  0  0  0
    2.0005    9.0476   15.9733 C   0  0  0  0  0  0  0  0  0  0  0  0
    2.0593   10.5463   16.0679 C   0  0  0  0  0  0  0  0  0  0  0  0
    1.6050   11.1692   14.9301 O   0  0  0  0  0  0  0  0  0  0  0  0
    2.3822   10.8358   13.8324 C   0  0  0  0  0  0  0  0  0  0  0  0
    2.2165    9.3739   13.5282 C   0  0  0  0  0  0  0  0  0  0  0  0
    5.1745    3.7732   13.7154 O   0  0  0  0  0  0  0  0  0  0  0  0
    6.0412    3.2555   14.6967 C   0  0  0  0  0  0  0  0  0  0  0  0
   -0.3187    3.5436    4.9526 O   0  0  0  0  0  0  0  0  0  0  0  0
  1  2  1  0
  2  3  1  0
  3  4  1  0
  4  5  1  0
  5  6  1  0
  6  7  1  0
  5  8  1  0
  8  9  2  0
  8 10  1  0
 10 11  1  0
 11 12  2  0
 12 13  1  0
 13 14  2  0
 14 15  1  0
 15 16  2  0
 16 17  1  0
 17 18  2  0
 18 19  1  0
 17 20  1  0
 20 21  1  0
 21 22  1  0
 22 23  1  0
 23 24  1  0
 24 25  1  0
 14 26  1  0
 26 27  1  0
  2 28  1  0
  7  2  1  0
 19 11  1  0
 18 13  1  0
 25 20  1  0
M  END
$$$$
