
     RDKit          3D

 28 31  0  0  0  0  0  0  0  0999 V2000
    1.9019   11.3573   15.4404 C   0  0  0  0  0  0  0  0  0  0  0  0
    2.1161    9.8762   15.4601 C   0  0  0  0  0  0  0  0  0  0  0  0
    2.9565    9.4802   14.2867 C   0  0  0  0  0  0  0  0  0  0  0  0
    2.1550    8.6251   13.3319 C   0  0  0  0  0  0  0  0  0  0  0  0
    1.6406    7.4653   14.0242 N   0  0  0  0  0  0  0  0  0  0  0  0
    0.9789    7.6740   15.2856 C   0  0  0  0  0  0  0  0  0  0  0  0
    0.7829    9.1581   15.5092 C   0  0  0  0  0  0  0  0  0  0  0  0
    1.8126    6.1904   13.4313 C   0  0  0  0  0  0  0  0  0  0  0  0
    1.1785    5.2084   13.8913 O   0  0  0  0  0  0  0  0  0  0  0  0
    2.6631    5.9515   12.3419 N   0  0  0  0  0  0  0  0  0  0  0  0
    2.0899    5.3804   11.1290 C   0  0  0  0  0  0  0  0  0  0  0  0
    1.3578    5.5592   10.2593 N   0  0  0  0  0  0  0  0  0  0  0  0
    1.0276    4.7933    9.2346 C   0  0  0  0  0  0  0  0  0  0  0  0
    0.1376    5.0222    8.1855 C   0  0  0  0  0  0  0  0  0  0  0  0
   -0.0430    4.0627    7.2211 C   0  0  0  0  0  0  0  0  0  0  0  0
    0.5999    2.8484    7.1950 C   0  0  0  0  0  0  0  0  0  0  0  0
    1.4861    2.6093    8.2313 C   0  0  0  0  0  0  0  0  0  0  0  0
    1.6740    3.5818    9.2155 C   0  0  0  0  0  0  0  0  0  0  0  0
    2.7141    3.6340   10.6798 S   0  0  0  0  0  0  0  0  0  0  0  0
    2.2362    1.4205    8.3718 N   0  0  0  0  0  0  0  0  0  0  0  0
    2.5619    0.8062    9.6394 C   0  0  0  0  0  0  0  0  0  0  0  0
    2.5739   -0.6941    9.5539 C   0  0  0  0  0  0  0  0  0  0  0  0
    3.2194   -1.1578    8.4326 O   0  0  0  0  0  0  0  0  0  0  0  0
    2.5890   -0.7251    7.2770 C   0  0  0  0  0  0  0  0  0  0  0  0
    2.7146    0.7680    7.1682 C   0  0  0  0  0  0  0  0  0  0  0  0
   -0.5861    6.2272    8.0939 O   0  0  0  0  0  0  0  0  0  0  0  0
   -1.2478    6.5700    6.8993 C   0  0  0  0  0  0  0  0  0  0  0  0
    2.7583    9.5752   16.6782 O   0  0  0  0  0  0  0  0  0  0  0  0
  1  2  1  0
  2  3  1  0
  3  4  1  0
  4  5  1  0
  5  6  1  0
  6  7  1  0
  5  8  1  0
  8  9  2  0
  8 10  1  0
 10 11  1  0
 11 12  2  0
 12 13  1  0
 13 14  2  0
 14 15  1  0
 15 16  2  0
 16 17  1  0
 17 18  2  0
 18 19  1  0
 17 20  1  0
 20 21  1  0
 21 22  1  0
 22 23  1  0
 23 24  1  0
 24 25  1  0
 14 26  1  0
 26 27  1  0
  2 28  1  0
  7  2  1  0
 19 11  1  0
 18 13  1  0
 25 20  1  0
M  END
$$$$
