
     RDKit          3D

 28 31  0  0  0  0  0  0  0  0999 V2000
    5.2538    8.0360   18.3241 C   0  0  0  0  0  0  0  0  0  0  0  0
    5.3189    7.6276   16.8858 C   0  0  0  0  0  0  0  0  0  0  0  0
    4.0109    7.9296   16.2240 C   0  0  0  0  0  0  0  0  0  0  0  0
    3.3247    6.6482   15.8087 C   0  0  0  0  0  0  0  0  0  0  0  0
    4.1905    5.8873   14.9368 N   0  0  0  0  0  0  0  0  0  0  0  0
    5.5546    5.6876   15.3513 C   0  0  0  0  0  0  0  0  0  0  0  0
    5.7214    6.1711   16.7760 C   0  0  0  0  0  0  0  0  0  0  0  0
    3.6574    5.3801   13.7265 C   0  0  0  0  0  0  0  0  0  0  0  0
    2.5851    5.8580   13.2795 O   0  0  0  0  0  0  0  0  0  0  0  0
    4.2637    4.3578   12.9816 N   0  0  0  0  0  0  0  0  0  0  0  0
    3.5472    3.8228   11.8301 C   0  0  0  0  0  0  0  0  0  0  0  0
    3.4826    2.9483   11.0849 N   0  0  0  0  0  0  0  0  0  0  0  0
    2.6611    2.7325   10.0727 C   0  0  0  0  0  0  0  0  0  0  0  0
    2.5931    1.6667    9.1758 C   0  0  0  0  0  0  0  0  0  0  0  0
    1.6378    1.6627    8.1906 C   0  0  0  0  0  0  0  0  0  0  0  0
    0.7050    2.6538    8.0008 C   0  0  0  0  0  0  0  0  0  0  0  0
    0.7623    3.7175    8.8850 C   0  0  0  0  0  0  0  0  0  0  0  0
    1.7321    3.7272    9.8895 C   0  0  0  0  0  0  0  0  0  0  0  0
    2.1104    4.9049   11.1927 S   0  0  0  0  0  0  0  0  0  0  0  0
   -0.1123    4.8262    8.8458 N   0  0  0  0  0  0  0  0  0  0  0  0
    0.1272    6.0788    9.5268 C   0  0  0  0  0  0  0  0  0  0  0  0
   -0.3824    7.2551    8.7425 C   0  0  0  0  0  0  0  0  0  0  0  0
   -1.6338    7.0412    8.2159 O   0  0  0  0  0  0  0  0  0  0  0  0
   -1.6282    5.9773    7.3281 C   0  0  0  0  0  0  0  0  0  0  0  0
   -1.3335    4.7063    8.0729 C   0  0  0  0  0  0  0  0  0  0  0  0
    3.4916    0.5851    9.2602 O   0  0  0  0  0  0  0  0  0  0  0  0
    3.8808   -0.1082    8.0982 C   0  0  0  0  0  0  0  0  0  0  0  0
    6.3721    8.3609   16.3029 O   0  0  0  0  0  0  0  0  0  0  0  0
  1  2  1  0
  2  3  1  0
  3  4  1  0
  4  5  1  0
  5  6  1  0
  6  7  1  0
  5  8  1  0
  8  9  2  0
  8 10  1  0
 10 11  1  0
 11 12  2  0
 12 13  1  0
 13 14  2  0
 14 15  1  0
 15 16  2  0
 16 17  1  0
 17 18  2  0
 18 19  1  0
 17 20  1  0
 20 21  1  0
 21 22  1  0
 22 23  1  0
 23 24  1  0
 24 25  1  0
 14 26  1  0
 26 27  1  0
  2 28  1  0
  7  2  1  0
 19 11  1  0
 18 13  1  0
 25 20  1  0
M  END
$$$$
