
     RDKit          3D

 28 31  0  0  0  0  0  0  0  0999 V2000
    5.9670    8.7828   17.4382 C   0  0  0  0  0  0  0  0  0  0  0  0
    4.9315    7.9091   16.8024 C   0  0  0  0  0  0  0  0  0  0  0  0
    5.6058    6.7871   16.0768 C   0  0  0  0  0  0  0  0  0  0  0  0
    5.3758    6.9117   14.5879 C   0  0  0  0  0  0  0  0  0  0  0  0
    3.9577    6.9389   14.3102 N   0  0  0  0  0  0  0  0  0  0  0  0
    3.1382    7.8344   15.0842 C   0  0  0  0  0  0  0  0  0  0  0  0
    4.0268    8.7372   15.9128 C   0  0  0  0  0  0  0  0  0  0  0  0
    3.4488    6.0889   13.2979 C   0  0  0  0  0  0  0  0  0  0  0  0
    2.2415    6.1852   12.9644 O   0  0  0  0  0  0  0  0  0  0  0  0
    4.2236    5.1280   12.6318 N   0  0  0  0  0  0  0  0  0  0  0  0
    3.6209    4.4034   11.5194 C   0  0  0  0  0  0  0  0  0  0  0  0
    3.5943    3.4025   10.9522 N   0  0  0  0  0  0  0  0  0  0  0  0
    2.8901    3.0219    9.9009 C   0  0  0  0  0  0  0  0  0  0  0  0
    2.8669    1.8039    9.2220 C   0  0  0  0  0  0  0  0  0  0  0  0
    2.0397    1.6409    8.1392 C   0  0  0  0  0  0  0  0  0  0  0  0
    1.1987    2.6084    7.6440 C   0  0  0  0  0  0  0  0  0  0  0  0
    1.2127    3.8222    8.3095 C   0  0  0  0  0  0  0  0  0  0  0  0
    2.0523    3.9940    9.4120 C   0  0  0  0  0  0  0  0  0  0  0  0
    2.3405    5.3903   10.5055 S   0  0  0  0  0  0  0  0  0  0  0  0
    0.4183    4.9324    7.9462 N   0  0  0  0  0  0  0  0  0  0  0  0
    0.1628    5.3418    6.5833 C   0  0  0  0  0  0  0  0  0  0  0  0
   -1.2227    5.8976    6.4104 C   0  0  0  0  0  0  0  0  0  0  0  0
   -1.5777    6.7637    7.4168 O   0  0  0  0  0  0  0  0  0  0  0  0
   -1.5843    6.1261    8.6470 C   0  0  0  0  0  0  0  0  0  0  0  0
   -0.1838    5.7180    9.0061 C   0  0  0  0  0  0  0  0  0  0  0  0
    3.6812    0.7283    9.6273 O   0  0  0  0  0  0  0  0  0  0  0  0
    3.9969   -0.3042    8.7236 C   0  0  0  0  0  0  0  0  0  0  0  0
    4.1106    7.4295   17.8430 O   0  0  0  0  0  0  0  0  0  0  0  0
  1  2  1  0
  2  3  1  0
  3  4  1  0
  4  5  1  0
  5  6  1  0
  6  7  1  0
  5  8  1  0
  8  9  2  0
  8 10  1  0
 10 11  1  0
 11 12  2  0
 12 13  1  0
 13 14  2  0
 14 15  1  0
 15 16  2  0
 16 17  1  0
 17 18  2  0
 18 19  1  0
 17 20  1  0
 20 21  1  0
 21 22  1  0
 22 23  1  0
 23 24  1  0
 24 25  1  0
 14 26  1  0
 26 27  1  0
  2 28  1  0
  7  2  1  0
 19 11  1  0
 18 13  1  0
 25 20  1  0
M  END
$$$$
