
     RDKit          3D

 28 31  0  0  0  0  0  0  0  0999 V2000
    2.0887   -0.3399    5.3558 C   0  0  0  0  0  0  0  0  0  0  0  0
    1.8820    0.2608    6.7108 C   0  0  0  0  0  0  0  0  0  0  0  0
    0.8868    1.3745    6.6138 C   0  0  0  0  0  0  0  0  0  0  0  0
    1.5488    2.6982    6.9219 C   0  0  0  0  0  0  0  0  0  0  0  0
    2.1568    2.6505    8.2323 N   0  0  0  0  0  0  0  0  0  0  0  0
    2.9876    1.5177    8.5470 C   0  0  0  0  0  0  0  0  0  0  0  0
    3.2103    0.6963    7.2953 C   0  0  0  0  0  0  0  0  0  0  0  0
    1.9060    3.7129    9.1349 C   0  0  0  0  0  0  0  0  0  0  0  0
    0.9279    4.4742    8.9312 O   0  0  0  0  0  0  0  0  0  0  0  0
    2.6970    3.9728   10.2637 N   0  0  0  0  0  0  0  0  0  0  0  0
    2.3136    5.0747   11.1382 C   0  0  0  0  0  0  0  0  0  0  0  0
    1.5682    5.9375   11.2935 N   0  0  0  0  0  0  0  0  0  0  0  0
    1.4709    6.8339   12.2593 C   0  0  0  0  0  0  0  0  0  0  0  0
    0.5613    7.8762   12.4362 C   0  0  0  0  0  0  0  0  0  0  0  0
    0.6604    8.6903   13.5365 C   0  0  0  0  0  0  0  0  0  0  0  0
    1.6134    8.5659   14.5189 C   0  0  0  0  0  0  0  0  0  0  0  0
    2.5223    7.5347   14.3546 C   0  0  0  0  0  0  0  0  0  0  0  0
    2.4264    6.7031   13.2370 C   0  0  0  0  0  0  0  0  0  0  0  0
    3.3990    5.2938   12.6924 S   0  0  0  0  0  0  0  0  0  0  0  0
    3.5702    7.2528   15.2590 N   0  0  0  0  0  0  0  0  0  0  0  0
    4.1478    5.9421   15.4557 C   0  0  0  0  0  0  0  0  0  0  0  0
    5.6224    6.0106   15.7373 C   0  0  0  0  0  0  0  0  0  0  0  0
    5.9463    6.9954   16.6396 O   0  0  0  0  0  0  0  0  0  0  0  0
    5.6015    8.2483   16.1586 C   0  0  0  0  0  0  0  0  0  0  0  0
    4.1066    8.3465   16.0459 C   0  0  0  0  0  0  0  0  0  0  0  0
   -0.4658    8.1132   11.5017 O   0  0  0  0  0  0  0  0  0  0  0  0
   -1.4159    9.1265   11.7314 C   0  0  0  0  0  0  0  0  0  0  0  0
    1.4165   -0.7740    7.5470 O   0  0  0  0  0  0  0  0  0  0  0  0
  1  2  1  0
  2  3  1  0
  3  4  1  0
  4  5  1  0
  5  6  1  0
  6  7  1  0
  5  8  1  0
  8  9  2  0
  8 10  1  0
 10 11  1  0
 11 12  2  0
 12 13  1  0
 13 14  2  0
 14 15  1  0
 15 16  2  0
 16 17  1  0
 17 18  2  0
 18 19  1  0
 17 20  1  0
 20 21  1  0
 21 22  1  0
 22 23  1  0
 23 24  1  0
 24 25  1  0
 14 26  1  0
 26 27  1  0
  2 28  1  0
  7  2  1  0
 19 11  1  0
 18 13  1  0
 25 20  1  0
M  END
$$$$
