
     RDKit          3D

 28 31  0  0  0  0  0  0  0  0999 V2000
    6.1740    7.3886   18.3126 C   0  0  0  0  0  0  0  0  0  0  0  0
    5.1726    6.6861   17.4503 C   0  0  0  0  0  0  0  0  0  0  0  0
    5.8172    5.4982   16.8074 C   0  0  0  0  0  0  0  0  0  0  0  0
    5.8970    5.6907   15.3101 C   0  0  0  0  0  0  0  0  0  0  0  0
    4.5756    5.9250   14.7736 N   0  0  0  0  0  0  0  0  0  0  0  0
    3.7501    6.9080   15.4253 C   0  0  0  0  0  0  0  0  0  0  0  0
    4.5754    7.6554   16.4507 C   0  0  0  0  0  0  0  0  0  0  0  0
    4.1617    5.1807   13.6418 C   0  0  0  0  0  0  0  0  0  0  0  0
    4.7862    4.1358   13.3318 O   0  0  0  0  0  0  0  0  0  0  0  0
    3.0774    5.5447   12.8299 N   0  0  0  0  0  0  0  0  0  0  0  0
    2.7333    4.6806   11.7070 C   0  0  0  0  0  0  0  0  0  0  0  0
    2.9281    3.6615   11.2094 N   0  0  0  0  0  0  0  0  0  0  0  0
    2.4252    3.1238   10.1122 C   0  0  0  0  0  0  0  0  0  0  0  0
    2.6697    1.8855    9.5191 C   0  0  0  0  0  0  0  0  0  0  0  0
    2.0174    1.5416    8.3617 C   0  0  0  0  0  0  0  0  0  0  0  0
    1.1087    2.3393    7.7087 C   0  0  0  0  0  0  0  0  0  0  0  0
    0.8574    3.5713    8.2878 C   0  0  0  0  0  0  0  0  0  0  0  0
    1.5181    3.9269    9.4655 C   0  0  0  0  0  0  0  0  0  0  0  0
    1.4551    5.4030   10.4880 S   0  0  0  0  0  0  0  0  0  0  0  0
   -0.0435    4.5236    7.7612 N   0  0  0  0  0  0  0  0  0  0  0  0
   -0.1950    4.8116    6.3526 C   0  0  0  0  0  0  0  0  0  0  0  0
   -1.6173    5.1365    5.9919 C   0  0  0  0  0  0  0  0  0  0  0  0
   -2.2110    5.9925    6.8883 O   0  0  0  0  0  0  0  0  0  0  0  0
   -2.2679    5.4314    8.1540 C   0  0  0  0  0  0  0  0  0  0  0  0
   -0.8744    5.2650    8.6902 C   0  0  0  0  0  0  0  0  0  0  0  0
    3.5797    0.9725   10.0872 O   0  0  0  0  0  0  0  0  0  0  0  0
    4.4348    0.2155    9.2638 C   0  0  0  0  0  0  0  0  0  0  0  0
    4.1100    6.3019   18.2929 O   0  0  0  0  0  0  0  0  0  0  0  0
  1  2  1  0
  2  3  1  0
  3  4  1  0
  4  5  1  0
  5  6  1  0
  6  7  1  0
  5  8  1  0
  8  9  2  0
  8 10  1  0
 10 11  1  0
 11 12  2  0
 12 13  1  0
 13 14  2  0
 14 15  1  0
 15 16  2  0
 16 17  1  0
 17 18  2  0
 18 19  1  0
 17 20  1  0
 20 21  1  0
 21 22  1  0
 22 23  1  0
 23 24  1  0
 24 25  1  0
 14 26  1  0
 26 27  1  0
  2 28  1  0
  7  2  1  0
 19 11  1  0
 18 13  1  0
 25 20  1  0
M  END
$$$$
