
     RDKit          3D

 28 31  0  0  0  0  0  0  0  0999 V2000
    6.0785    7.7213   18.3319 C   0  0  0  0  0  0  0  0  0  0  0  0
    5.0832    7.0361   17.4488 C   0  0  0  0  0  0  0  0  0  0  0  0
    5.6789    5.7697   16.9182 C   0  0  0  0  0  0  0  0  0  0  0  0
    5.8623    5.8633   15.4206 C   0  0  0  0  0  0  0  0  0  0  0  0
    4.5958    6.1529   14.7874 N   0  0  0  0  0  0  0  0  0  0  0  0
    3.8049    7.2280   15.3269 C   0  0  0  0  0  0  0  0  0  0  0  0
    4.6183    7.9799   16.3585 C   0  0  0  0  0  0  0  0  0  0  0  0
    4.1988    5.3697   13.6760 C   0  0  0  0  0  0  0  0  0  0  0  0
    4.8979    4.3817   13.3396 O   0  0  0  0  0  0  0  0  0  0  0  0
    3.0517    5.6334   12.9131 N   0  0  0  0  0  0  0  0  0  0  0  0
    2.7420    4.7445   11.7997 C   0  0  0  0  0  0  0  0  0  0  0  0
    3.0526    3.7836   11.2479 N   0  0  0  0  0  0  0  0  0  0  0  0
    2.5348    3.1883   10.1880 C   0  0  0  0  0  0  0  0  0  0  0  0
    2.9212    2.0220    9.5281 C   0  0  0  0  0  0  0  0  0  0  0  0
    2.2178    1.5929    8.4307 C   0  0  0  0  0  0  0  0  0  0  0  0
    1.1234    2.2346    7.9025 C   0  0  0  0  0  0  0  0  0  0  0  0
    0.7299    3.3938    8.5489 C   0  0  0  0  0  0  0  0  0  0  0  0
    1.4417    3.8354    9.6661 C   0  0  0  0  0  0  0  0  0  0  0  0
    1.2384    5.2591   10.7433 S   0  0  0  0  0  0  0  0  0  0  0  0
   -0.3696    4.1866    8.1512 N   0  0  0  0  0  0  0  0  0  0  0  0
   -0.8702    5.3200    8.8963 C   0  0  0  0  0  0  0  0  0  0  0  0
   -1.3776    6.4098    7.9944 C   0  0  0  0  0  0  0  0  0  0  0  0
   -2.1486    5.9303    6.9626 O   0  0  0  0  0  0  0  0  0  0  0  0
   -1.4195    5.0815    6.1453 C   0  0  0  0  0  0  0  0  0  0  0  0
   -1.0457    3.8462    6.9143 C   0  0  0  0  0  0  0  0  0  0  0  0
    4.0273    1.2687    9.9676 O   0  0  0  0  0  0  0  0  0  0  0  0
    4.4481    0.1357    9.2453 C   0  0  0  0  0  0  0  0  0  0  0  0
    3.9470    6.7777   18.2419 O   0  0  0  0  0  0  0  0  0  0  0  0
  1  2  1  0
  2  3  1  0
  3  4  1  0
  4  5  1  0
  5  6  1  0
  6  7  1  0
  5  8  1  0
  8  9  2  0
  8 10  1  0
 10 11  1  0
 11 12  2  0
 12 13  1  0
 13 14  2  0
 14 15  1  0
 15 16  2  0
 16 17  1  0
 17 18  2  0
 18 19  1  0
 17 20  1  0
 20 21  1  0
 21 22  1  0
 22 23  1  0
 23 24  1  0
 24 25  1  0
 14 26  1  0
 26 27  1  0
  2 28  1  0
  7  2  1  0
 19 11  1  0
 18 13  1  0
 25 20  1  0
M  END
$$$$
