
     RDKit          3D

 28 31  0  0  0  0  0  0  0  0999 V2000
    1.6301   -0.2044    5.0436 C   0  0  0  0  0  0  0  0  0  0  0  0
    1.3489    0.3615    6.4002 C   0  0  0  0  0  0  0  0  0  0  0  0
    0.6116    1.6559    6.2554 C   0  0  0  0  0  0  0  0  0  0  0  0
    1.4643    2.8035    6.7465 C   0  0  0  0  0  0  0  0  0  0  0  0
    1.8553    2.5731    8.1187 N   0  0  0  0  0  0  0  0  0  0  0  0
    2.3979    1.2829    8.4555 C   0  0  0  0  0  0  0  0  0  0  0  0
    2.6372    0.4930    7.1867 C   0  0  0  0  0  0  0  0  0  0  0  0
    1.6858    3.6207    9.0568 C   0  0  0  0  0  0  0  0  0  0  0  0
    0.8898    4.5567    8.7953 O   0  0  0  0  0  0  0  0  0  0  0  0
    2.3642    3.6794   10.2831 N   0  0  0  0  0  0  0  0  0  0  0  0
    2.1114    4.8165   11.1598 C   0  0  0  0  0  0  0  0  0  0  0  0
    1.3933    5.6856   11.3908 N   0  0  0  0  0  0  0  0  0  0  0  0
    1.4381    6.6210   12.3229 C   0  0  0  0  0  0  0  0  0  0  0  0
    0.5600    7.6703   12.5927 C   0  0  0  0  0  0  0  0  0  0  0  0
    0.8198    8.5288   13.6313 C   0  0  0  0  0  0  0  0  0  0  0  0
    1.9109    8.4442   14.4625 C   0  0  0  0  0  0  0  0  0  0  0  0
    2.7902    7.4065   14.2048 C   0  0  0  0  0  0  0  0  0  0  0  0
    2.5311    6.5297   13.1493 C   0  0  0  0  0  0  0  0  0  0  0  0
    3.4179    5.0985   12.5218 S   0  0  0  0  0  0  0  0  0  0  0  0
    3.9642    7.1611   14.9512 N   0  0  0  0  0  0  0  0  0  0  0  0
    4.2611    7.7696   16.2286 C   0  0  0  0  0  0  0  0  0  0  0  0
    5.0014    6.8337   17.1422 C   0  0  0  0  0  0  0  0  0  0  0  0
    6.0135    6.1574   16.5040 O   0  0  0  0  0  0  0  0  0  0  0  0
    5.5185    5.3640   15.4815 C   0  0  0  0  0  0  0  0  0  0  0  0
    4.9409    6.2385   14.4051 C   0  0  0  0  0  0  0  0  0  0  0  0
   -0.5978    7.8695   11.8154 O   0  0  0  0  0  0  0  0  0  0  0  0
   -1.6130    8.7370   12.2615 C   0  0  0  0  0  0  0  0  0  0  0  0
    0.5767   -0.5965    7.0876 O   0  0  0  0  0  0  0  0  0  0  0  0
  1  2  1  0
  2  3  1  0
  3  4  1  0
  4  5  1  0
  5  6  1  0
  6  7  1  0
  5  8  1  0
  8  9  2  0
  8 10  1  0
 10 11  1  0
 11 12  2  0
 12 13  1  0
 13 14  2  0
 14 15  1  0
 15 16  2  0
 16 17  1  0
 17 18  2  0
 18 19  1  0
 17 20  1  0
 20 21  1  0
 21 22  1  0
 22 23  1  0
 23 24  1  0
 24 25  1  0
 14 26  1  0
 26 27  1  0
  2 28  1  0
  7  2  1  0
 19 11  1  0
 18 13  1  0
 25 20  1  0
M  END
$$$$
