
     RDKit          3D

 28 31  0  0  0  0  0  0  0  0999 V2000
    4.4562    7.6661   18.3897 C   0  0  0  0  0  0  0  0  0  0  0  0
    4.2779    7.7374   16.9055 C   0  0  0  0  0  0  0  0  0  0  0  0
    2.9968    7.0628   16.5261 C   0  0  0  0  0  0  0  0  0  0  0  0
    3.2787    5.8234   15.7079 C   0  0  0  0  0  0  0  0  0  0  0  0
    4.0542    6.1719   14.5391 N   0  0  0  0  0  0  0  0  0  0  0  0
    5.2165    7.0005   14.7261 C   0  0  0  0  0  0  0  0  0  0  0  0
    5.4893    7.1543   16.2070 C   0  0  0  0  0  0  0  0  0  0  0  0
    3.6345    5.6847   13.2771 C   0  0  0  0  0  0  0  0  0  0  0  0
    4.3234    5.9426   12.2589 O   0  0  0  0  0  0  0  0  0  0  0  0
    2.4753    4.9174   13.0898 N   0  0  0  0  0  0  0  0  0  0  0  0
    2.3181    4.1975   11.8317 C   0  0  0  0  0  0  0  0  0  0  0  0
    2.5960    3.2427   11.2526 N   0  0  0  0  0  0  0  0  0  0  0  0
    2.2754    2.8455   10.0338 C   0  0  0  0  0  0  0  0  0  0  0  0
    2.6191    1.6841    9.3425 C   0  0  0  0  0  0  0  0  0  0  0  0
    2.1589    1.4881    8.0645 C   0  0  0  0  0  0  0  0  0  0  0  0
    1.3580    2.3684    7.3775 C   0  0  0  0  0  0  0  0  0  0  0  0
    1.0098    3.5253    8.0532 C   0  0  0  0  0  0  0  0  0  0  0  0
    1.4750    3.7303    9.3538 C   0  0  0  0  0  0  0  0  0  0  0  0
    1.2415    5.0746   10.5229 S   0  0  0  0  0  0  0  0  0  0  0  0
    0.1956    4.5438    7.5097 N   0  0  0  0  0  0  0  0  0  0  0  0
   -0.0466    4.7277    6.0963 C   0  0  0  0  0  0  0  0  0  0  0  0
   -1.4417    5.2134    5.8203 C   0  0  0  0  0  0  0  0  0  0  0  0
   -1.8339    6.2171    6.6734 O   0  0  0  0  0  0  0  0  0  0  0  0
   -1.8462    5.7802    7.9884 C   0  0  0  0  0  0  0  0  0  0  0  0
   -0.4426    5.4700    8.4252 C   0  0  0  0  0  0  0  0  0  0  0  0
    3.4355    0.6995    9.9328 O   0  0  0  0  0  0  0  0  0  0  0  0
    4.1110   -0.2390    9.1297 C   0  0  0  0  0  0  0  0  0  0  0  0
    4.2602    9.1048   16.5640 O   0  0  0  0  0  0  0  0  0  0  0  0
  1  2  1  0
  2  3  1  0
  3  4  1  0
  4  5  1  0
  5  6  1  0
  6  7  1  0
  5  8  1  0
  8  9  2  0
  8 10  1  0
 10 11  1  0
 11 12  2  0
 12 13  1  0
 13 14  2  0
 14 15  1  0
 15 16  2  0
 16 17  1  0
 17 18  2  0
 18 19  1  0
 17 20  1  0
 20 21  1  0
 21 22  1  0
 22 23  1  0
 23 24  1  0
 24 25  1  0
 14 26  1  0
 26 27  1  0
  2 28  1  0
  7  2  1  0
 19 11  1  0
 18 13  1  0
 25 20  1  0
M  END
$$$$
