
     RDKit          3D

 28 31  0  0  0  0  0  0  0  0999 V2000
    6.1566    8.0000   17.8853 C   0  0  0  0  0  0  0  0  0  0  0  0
    6.2557    6.9099   16.8647 C   0  0  0  0  0  0  0  0  0  0  0  0
    5.8294    7.4380   15.5308 C   0  0  0  0  0  0  0  0  0  0  0  0
    4.5570    6.7580   15.0793 C   0  0  0  0  0  0  0  0  0  0  0  0
    4.7524    5.3265   15.0388 N   0  0  0  0  0  0  0  0  0  0  0  0
    5.3515    4.6971   16.1866 C   0  0  0  0  0  0  0  0  0  0  0  0
    5.4560    5.7034   17.3125 C   0  0  0  0  0  0  0  0  0  0  0  0
    4.3481    4.6197   13.8798 C   0  0  0  0  0  0  0  0  0  0  0  0
    4.2363    3.3696   13.9304 O   0  0  0  0  0  0  0  0  0  0  0  0
    4.0591    5.2406   12.6557 N   0  0  0  0  0  0  0  0  0  0  0  0
    3.4417    4.4419   11.6037 C   0  0  0  0  0  0  0  0  0  0  0  0
    3.5216    3.4730   10.9880 N   0  0  0  0  0  0  0  0  0  0  0  0
    2.7486    2.9889   10.0320 C   0  0  0  0  0  0  0  0  0  0  0  0
    2.8564    1.8114    9.2925 C   0  0  0  0  0  0  0  0  0  0  0  0
    1.9170    1.5164    8.3366 C   0  0  0  0  0  0  0  0  0  0  0  0
    0.8365    2.3085    8.0304 C   0  0  0  0  0  0  0  0  0  0  0  0
    0.7185    3.4804    8.7577 C   0  0  0  0  0  0  0  0  0  0  0  0
    1.6713    3.7859    9.7317 C   0  0  0  0  0  0  0  0  0  0  0  0
    1.8505    5.1794   10.8518 S   0  0  0  0  0  0  0  0  0  0  0  0
   -0.3240    4.4177    8.5832 N   0  0  0  0  0  0  0  0  0  0  0  0
   -0.8753    5.2317    9.6433 C   0  0  0  0  0  0  0  0  0  0  0  0
   -1.2747    6.5968    9.1582 C   0  0  0  0  0  0  0  0  0  0  0  0
   -1.9501    6.5596    7.9618 O   0  0  0  0  0  0  0  0  0  0  0  0
   -1.1596    6.0251    6.9571 C   0  0  0  0  0  0  0  0  0  0  0  0
   -0.8828    4.5788    7.2547 C   0  0  0  0  0  0  0  0  0  0  0  0
    3.9180    0.9107    9.5075 O   0  0  0  0  0  0  0  0  0  0  0  0
    4.0873   -0.2032    8.6632 C   0  0  0  0  0  0  0  0  0  0  0  0
    7.6017    6.4919   16.8466 O   0  0  0  0  0  0  0  0  0  0  0  0
  1  2  1  0
  2  3  1  0
  3  4  1  0
  4  5  1  0
  5  6  1  0
  6  7  1  0
  5  8  1  0
  8  9  2  0
  8 10  1  0
 10 11  1  0
 11 12  2  0
 12 13  1  0
 13 14  2  0
 14 15  1  0
 15 16  2  0
 16 17  1  0
 17 18  2  0
 18 19  1  0
 17 20  1  0
 20 21  1  0
 21 22  1  0
 22 23  1  0
 23 24  1  0
 24 25  1  0
 14 26  1  0
 26 27  1  0
  2 28  1  0
  7  2  1  0
 19 11  1  0
 18 13  1  0
 25 20  1  0
M  END
$$$$
