
     RDKit          3D

 28 31  0  0  0  0  0  0  0  0999 V2000
    3.3776   -2.5282    9.9123 C   0  0  0  0  0  0  0  0  0  0  0  0
    3.9265   -1.1439   10.0611 C   0  0  0  0  0  0  0  0  0  0  0  0
    3.5229   -0.5899   11.3916 C   0  0  0  0  0  0  0  0  0  0  0  0
    2.5825    0.5797   11.2097 C   0  0  0  0  0  0  0  0  0  0  0  0
    3.2089    1.5908   10.3885 N   0  0  0  0  0  0  0  0  0  0  0  0
    3.8291    1.1694    9.1596 C   0  0  0  0  0  0  0  0  0  0  0  0
    3.4855   -0.2811    8.8964 C   0  0  0  0  0  0  0  0  0  0  0  0
    3.1817    2.9360   10.8311 C   0  0  0  0  0  0  0  0  0  0  0  0
    2.8685    3.1847   12.0219 O   0  0  0  0  0  0  0  0  0  0  0  0
    3.4886    4.0287   10.0070 N   0  0  0  0  0  0  0  0  0  0  0  0
    2.4951    5.0858    9.8613 C   0  0  0  0  0  0  0  0  0  0  0  0
    1.7050    5.5450    9.1620 N   0  0  0  0  0  0  0  0  0  0  0  0
    0.9031    6.5824    9.3250 C   0  0  0  0  0  0  0  0  0  0  0  0
   -0.0518    7.1295    8.4684 C   0  0  0  0  0  0  0  0  0  0  0  0
   -0.7750    8.2271    8.8631 C   0  0  0  0  0  0  0  0  0  0  0  0
   -0.6374    8.8607   10.0747 C   0  0  0  0  0  0  0  0  0  0  0  0
    0.3076    8.3269   10.9341 C   0  0  0  0  0  0  0  0  0  0  0  0
    1.0466    7.2102   10.5380 C   0  0  0  0  0  0  0  0  0  0  0  0
    2.3302    6.2575   11.3584 S   0  0  0  0  0  0  0  0  0  0  0  0
    0.5887    8.8424   12.2189 N   0  0  0  0  0  0  0  0  0  0  0  0
    0.6033   10.2501   12.5481 C   0  0  0  0  0  0  0  0  0  0  0  0
    0.0993   10.5105   13.9397 C   0  0  0  0  0  0  0  0  0  0  0  0
    0.6108    9.6312   14.8638 O   0  0  0  0  0  0  0  0  0  0  0  0
    0.2411    8.3278   14.5729 C   0  0  0  0  0  0  0  0  0  0  0  0
    0.8833    7.9021   13.2831 C   0  0  0  0  0  0  0  0  0  0  0  0
   -0.2919    6.5751    7.1959 O   0  0  0  0  0  0  0  0  0  0  0  0
   -0.8958    7.3482    6.1860 C   0  0  0  0  0  0  0  0  0  0  0  0
    5.3278   -1.2488    9.9509 O   0  0  0  0  0  0  0  0  0  0  0  0
  1  2  1  0
  2  3  1  0
  3  4  1  0
  4  5  1  0
  5  6  1  0
  6  7  1  0
  5  8  1  0
  8  9  2  0
  8 10  1  0
 10 11  1  0
 11 12  2  0
 12 13  1  0
 13 14  2  0
 14 15  1  0
 15 16  2  0
 16 17  1  0
 17 18  2  0
 18 19  1  0
 17 20  1  0
 20 21  1  0
 21 22  1  0
 22 23  1  0
 23 24  1  0
 24 25  1  0
 14 26  1  0
 26 27  1  0
  2 28  1  0
  7  2  1  0
 19 11  1  0
 18 13  1  0
 25 20  1  0
M  END
$$$$
