
     RDKit          3D

 28 31  0  0  0  0  0  0  0  0999 V2000
    1.0658   11.1466   17.2789 C   0  0  0  0  0  0  0  0  0  0  0  0
    1.9468   10.4952   16.2594 C   0  0  0  0  0  0  0  0  0  0  0  0
    1.1438   10.1839   15.0353 C   0  0  0  0  0  0  0  0  0  0  0  0
    1.0374    8.6881   14.8439 C   0  0  0  0  0  0  0  0  0  0  0  0
    2.3587    8.1073   14.7664 N   0  0  0  0  0  0  0  0  0  0  0  0
    3.3169    8.4801   15.7740 C   0  0  0  0  0  0  0  0  0  0  0  0
    2.6214    9.2771   16.8567 C   0  0  0  0  0  0  0  0  0  0  0  0
    2.6426    7.2072   13.7103 C   0  0  0  0  0  0  0  0  0  0  0  0
    3.7525    6.6196   13.6855 O   0  0  0  0  0  0  0  0  0  0  0  0
    1.7444    6.9257   12.6704 N   0  0  0  0  0  0  0  0  0  0  0  0
    1.9662    5.7272   11.8702 C   0  0  0  0  0  0  0  0  0  0  0  0
    2.5310    4.7264   11.8107 N   0  0  0  0  0  0  0  0  0  0  0  0
    2.5235    3.7819   10.8868 C   0  0  0  0  0  0  0  0  0  0  0  0
    3.2136    2.5715   10.8267 C   0  0  0  0  0  0  0  0  0  0  0  0
    3.0420    1.7399    9.7485 C   0  0  0  0  0  0  0  0  0  0  0  0
    2.2185    2.0032    8.6803 C   0  0  0  0  0  0  0  0  0  0  0  0
    1.5278    3.2019    8.7283 C   0  0  0  0  0  0  0  0  0  0  0  0
    1.6984    4.0522    9.8228 C   0  0  0  0  0  0  0  0  0  0  0  0
    0.9909    5.6524   10.2317 S   0  0  0  0  0  0  0  0  0  0  0  0
    0.6377    3.6425    7.7237 N   0  0  0  0  0  0  0  0  0  0  0  0
    0.1640    5.0021    7.5922 C   0  0  0  0  0  0  0  0  0  0  0  0
   -0.0163    5.4013    6.1546 C   0  0  0  0  0  0  0  0  0  0  0  0
   -0.6394    4.4307    5.4073 O   0  0  0  0  0  0  0  0  0  0  0  0
    0.1084    3.2645    5.3777 C   0  0  0  0  0  0  0  0  0  0  0  0
    0.1637    2.6711    6.7568 C   0  0  0  0  0  0  0  0  0  0  0  0
    4.0905    2.1808   11.8576 O   0  0  0  0  0  0  0  0  0  0  0  0
    4.3427    0.8166   12.0974 C   0  0  0  0  0  0  0  0  0  0  0  0
    2.9836   11.4072   15.9767 O   0  0  0  0  0  0  0  0  0  0  0  0
  1  2  1  0
  2  3  1  0
  3  4  1  0
  4  5  1  0
  5  6  1  0
  6  7  1  0
  5  8  1  0
  8  9  2  0
  8 10  1  0
 10 11  1  0
 11 12  2  0
 12 13  1  0
 13 14  2  0
 14 15  1  0
 15 16  2  0
 16 17  1  0
 17 18  2  0
 18 19  1  0
 17 20  1  0
 20 21  1  0
 21 22  1  0
 22 23  1  0
 23 24  1  0
 24 25  1  0
 14 26  1  0
 26 27  1  0
  2 28  1  0
  7  2  1  0
 19 11  1  0
 18 13  1  0
 25 20  1  0
M  END
$$$$
