
     RDKit          3D

 28 31  0  0  0  0  0  0  0  0999 V2000
    6.1508    8.9113   17.1070 C   0  0  0  0  0  0  0  0  0  0  0  0
    4.9413    8.2095   16.5740 C   0  0  0  0  0  0  0  0  0  0  0  0
    5.2969    6.7960   16.2336 C   0  0  0  0  0  0  0  0  0  0  0  0
    5.1940    6.5736   14.7419 C   0  0  0  0  0  0  0  0  0  0  0  0
    3.8626    6.9039   14.2865 N   0  0  0  0  0  0  0  0  0  0  0  0
    3.2996    8.1595   14.7096 C   0  0  0  0  0  0  0  0  0  0  0  0
    4.3670    8.9793   15.4022 C   0  0  0  0  0  0  0  0  0  0  0  0
    3.1832    5.9820   13.4530 C   0  0  0  0  0  0  0  0  0  0  0  0
    2.0859    6.3121   12.9383 O   0  0  0  0  0  0  0  0  0  0  0  0
    3.6685    4.6988   13.1609 N   0  0  0  0  0  0  0  0  0  0  0  0
    3.2797    4.0831   11.8978 C   0  0  0  0  0  0  0  0  0  0  0  0
    3.4599    3.1947   11.1889 N   0  0  0  0  0  0  0  0  0  0  0  0
    2.9107    2.8898   10.0264 C   0  0  0  0  0  0  0  0  0  0  0  0
    3.1382    1.8082    9.1759 C   0  0  0  0  0  0  0  0  0  0  0  0
    2.4351    1.7024    8.0021 C   0  0  0  0  0  0  0  0  0  0  0  0
    1.4895    2.6022    7.5723 C   0  0  0  0  0  0  0  0  0  0  0  0
    1.2546    3.6804    8.4081 C   0  0  0  0  0  0  0  0  0  0  0  0
    1.9670    3.7935    9.6038 C   0  0  0  0  0  0  0  0  0  0  0  0
    1.9389    5.0210   10.9157 S   0  0  0  0  0  0  0  0  0  0  0  0
    0.3214    4.7049    8.1339 N   0  0  0  0  0  0  0  0  0  0  0  0
    0.2129    5.3919    6.8664 C   0  0  0  0  0  0  0  0  0  0  0  0
   -1.2097    5.7454    6.5350 C   0  0  0  0  0  0  0  0  0  0  0  0
   -1.8914    6.2684    7.6077 O   0  0  0  0  0  0  0  0  0  0  0  0
   -1.9682    5.3542    8.6462 C   0  0  0  0  0  0  0  0  0  0  0  0
   -0.5913    5.0985    9.1899 C   0  0  0  0  0  0  0  0  0  0  0  0
    4.0820    0.8136    9.4985 O   0  0  0  0  0  0  0  0  0  0  0  0
    4.1308   -0.3857    8.7626 C   0  0  0  0  0  0  0  0  0  0  0  0
    3.9613    8.2644   17.5856 O   0  0  0  0  0  0  0  0  0  0  0  0
  1  2  1  0
  2  3  1  0
  3  4  1  0
  4  5  1  0
  5  6  1  0
  6  7  1  0
  5  8  1  0
  8  9  2  0
  8 10  1  0
 10 11  1  0
 11 12  2  0
 12 13  1  0
 13 14  2  0
 14 15  1  0
 15 16  2  0
 16 17  1  0
 17 18  2  0
 18 19  1  0
 17 20  1  0
 20 21  1  0
 21 22  1  0
 22 23  1  0
 23 24  1  0
 24 25  1  0
 14 26  1  0
 26 27  1  0
  2 28  1  0
  7  2  1  0
 19 11  1  0
 18 13  1  0
 25 20  1  0
M  END
$$$$
