
     RDKit          3D

 28 31  0  0  0  0  0  0  0  0999 V2000
    4.2327    8.1819   18.2365 C   0  0  0  0  0  0  0  0  0  0  0  0
    4.7332    7.8257   16.8717 C   0  0  0  0  0  0  0  0  0  0  0  0
    3.6593    8.0917   15.8637 C   0  0  0  0  0  0  0  0  0  0  0  0
    3.1907    6.7960   15.2418 C   0  0  0  0  0  0  0  0  0  0  0  0
    4.3106    6.1040   14.6451 N   0  0  0  0  0  0  0  0  0  0  0  0
    5.5044    5.9510   15.4350 C   0  0  0  0  0  0  0  0  0  0  0  0
    5.2256    6.3929   16.8556 C   0  0  0  0  0  0  0  0  0  0  0  0
    4.1784    5.6149   13.3224 C   0  0  0  0  0  0  0  0  0  0  0  0
    5.1010    4.9191   12.8297 O   0  0  0  0  0  0  0  0  0  0  0  0
    3.0603    5.8638   12.5130 N   0  0  0  0  0  0  0  0  0  0  0  0
    2.7653    4.9283   11.4342 C   0  0  0  0  0  0  0  0  0  0  0  0
    3.0311    3.9073   10.9748 N   0  0  0  0  0  0  0  0  0  0  0  0
    2.5524    3.2855    9.9117 C   0  0  0  0  0  0  0  0  0  0  0  0
    2.8834    2.0461    9.3647 C   0  0  0  0  0  0  0  0  0  0  0  0
    2.2393    1.6030    8.2368 C   0  0  0  0  0  0  0  0  0  0  0  0
    1.2585    2.2985    7.5714 C   0  0  0  0  0  0  0  0  0  0  0  0
    0.9210    3.5306    8.1047 C   0  0  0  0  0  0  0  0  0  0  0  0
    1.5729    3.9867    9.2522 C   0  0  0  0  0  0  0  0  0  0  0  0
    1.4119    5.4957   10.2144 S   0  0  0  0  0  0  0  0  0  0  0  0
   -0.0619    4.3860    7.5590 N   0  0  0  0  0  0  0  0  0  0  0  0
   -0.8233    5.3472    8.3248 C   0  0  0  0  0  0  0  0  0  0  0  0
   -1.1125    6.5948    7.5385 C   0  0  0  0  0  0  0  0  0  0  0  0
   -1.5222    6.3305    6.2535 O   0  0  0  0  0  0  0  0  0  0  0  0
   -0.5385    5.6627    5.5417 C   0  0  0  0  0  0  0  0  0  0  0  0
   -0.3299    4.2989    6.1364 C   0  0  0  0  0  0  0  0  0  0  0  0
    3.8730    1.2323    9.9502 O   0  0  0  0  0  0  0  0  0  0  0  0
    4.4341    0.1631    9.2260 C   0  0  0  0  0  0  0  0  0  0  0  0
    5.8704    8.6242   16.6352 O   0  0  0  0  0  0  0  0  0  0  0  0
  1  2  1  0
  2  3  1  0
  3  4  1  0
  4  5  1  0
  5  6  1  0
  6  7  1  0
  5  8  1  0
  8  9  2  0
  8 10  1  0
 10 11  1  0
 11 12  2  0
 12 13  1  0
 13 14  2  0
 14 15  1  0
 15 16  2  0
 16 17  1  0
 17 18  2  0
 18 19  1  0
 17 20  1  0
 20 21  1  0
 21 22  1  0
 22 23  1  0
 23 24  1  0
 24 25  1  0
 14 26  1  0
 26 27  1  0
  2 28  1  0
  7  2  1  0
 19 11  1  0
 18 13  1  0
 25 20  1  0
M  END
$$$$
