
     RDKit          3D

 28 31  0  0  0  0  0  0  0  0999 V2000
    4.2573    9.0000   17.9542 C   0  0  0  0  0  0  0  0  0  0  0  0
    4.4748    8.4636   16.5741 C   0  0  0  0  0  0  0  0  0  0  0  0
    3.2071    8.5864   15.7879 C   0  0  0  0  0  0  0  0  0  0  0  0
    2.6614    7.2165   15.4548 C   0  0  0  0  0  0  0  0  0  0  0  0
    3.6546    6.4540   14.7330 N   0  0  0  0  0  0  0  0  0  0  0  0
    4.9906    6.4140   15.2677 C   0  0  0  0  0  0  0  0  0  0  0  0
    4.9987    7.0437   16.6441 C   0  0  0  0  0  0  0  0  0  0  0  0
    3.2665    5.7894   13.5439 C   0  0  0  0  0  0  0  0  0  0  0  0
    2.1952    6.1196   12.9772 O   0  0  0  0  0  0  0  0  0  0  0  0
    4.0183    4.7658   12.9484 N   0  0  0  0  0  0  0  0  0  0  0  0
    3.4631    4.0884   11.7828 C   0  0  0  0  0  0  0  0  0  0  0  0
    3.5370    3.1563   11.1120 N   0  0  0  0  0  0  0  0  0  0  0  0
    2.8410    2.7988   10.0473 C   0  0  0  0  0  0  0  0  0  0  0  0
    2.9404    1.6645    9.2420 C   0  0  0  0  0  0  0  0  0  0  0  0
    2.0939    1.5090    8.1731 C   0  0  0  0  0  0  0  0  0  0  0  0
    1.1182    2.4062    7.8104 C   0  0  0  0  0  0  0  0  0  0  0  0
    1.0095    3.5366    8.6022 C   0  0  0  0  0  0  0  0  0  0  0  0
    1.8681    3.7003    9.6912 C   0  0  0  0  0  0  0  0  0  0  0  0
    2.0269    5.0017   10.9198 S   0  0  0  0  0  0  0  0  0  0  0  0
    0.0679    4.5669    8.3845 N   0  0  0  0  0  0  0  0  0  0  0  0
    0.2075    5.9179    8.8799 C   0  0  0  0  0  0  0  0  0  0  0  0
   -0.3527    6.9318    7.9225 C   0  0  0  0  0  0  0  0  0  0  0  0
   -1.5721    6.5607    7.4084 O   0  0  0  0  0  0  0  0  0  0  0  0
   -1.4733    5.3826    6.6857 C   0  0  0  0  0  0  0  0  0  0  0  0
   -1.1203    4.2551    7.6137 C   0  0  0  0  0  0  0  0  0  0  0  0
    3.8993    0.6665    9.5045 O   0  0  0  0  0  0  0  0  0  0  0  0
    3.9015   -0.5301    8.7625 C   0  0  0  0  0  0  0  0  0  0  0  0
    5.5120    9.2267   16.0008 O   0  0  0  0  0  0  0  0  0  0  0  0
  1  2  1  0
  2  3  1  0
  3  4  1  0
  4  5  1  0
  5  6  1  0
  6  7  1  0
  5  8  1  0
  8  9  2  0
  8 10  1  0
 10 11  1  0
 11 12  2  0
 12 13  1  0
 13 14  2  0
 14 15  1  0
 15 16  2  0
 16 17  1  0
 17 18  2  0
 18 19  1  0
 17 20  1  0
 20 21  1  0
 21 22  1  0
 22 23  1  0
 23 24  1  0
 24 25  1  0
 14 26  1  0
 26 27  1  0
  2 28  1  0
  7  2  1  0
 19 11  1  0
 18 13  1  0
 25 20  1  0
M  END
$$$$
