
     RDKit          3D

 28 31  0  0  0  0  0  0  0  0999 V2000
    2.9308    9.0477   17.3961 C   0  0  0  0  0  0  0  0  0  0  0  0
    3.6411    8.2026   16.3857 C   0  0  0  0  0  0  0  0  0  0  0  0
    3.3390    8.7123   15.0113 C   0  0  0  0  0  0  0  0  0  0  0  0
    2.5372    7.6908   14.2372 C   0  0  0  0  0  0  0  0  0  0  0  0
    3.2561    6.4380   14.1860 N   0  0  0  0  0  0  0  0  0  0  0  0
    3.7912    5.9192   15.4176 C   0  0  0  0  0  0  0  0  0  0  0  0
    3.2741    6.7450   16.5760 C   0  0  0  0  0  0  0  0  0  0  0  0
    3.3975    5.7883   12.9353 C   0  0  0  0  0  0  0  0  0  0  0  0
    3.6647    4.5612   12.9072 O   0  0  0  0  0  0  0  0  0  0  0  0
    3.2550    6.4422   11.7026 N   0  0  0  0  0  0  0  0  0  0  0  0
    2.4978    5.7761   10.6496 C   0  0  0  0  0  0  0  0  0  0  0  0
    1.6388    5.8894    9.8924 N   0  0  0  0  0  0  0  0  0  0  0  0
    1.1508    5.0419    9.0039 C   0  0  0  0  0  0  0  0  0  0  0  0
    0.1078    5.1918    8.0903 C   0  0  0  0  0  0  0  0  0  0  0  0
   -0.2233    4.1545    7.2550 C   0  0  0  0  0  0  0  0  0  0  0  0
    0.4056    2.9327    7.2371 C   0  0  0  0  0  0  0  0  0  0  0  0
    1.4429    2.7716    8.1395 C   0  0  0  0  0  0  0  0  0  0  0  0
    1.7843    3.8235    8.9920 C   0  0  0  0  0  0  0  0  0  0  0  0
    3.0411    3.9875   10.2657 S   0  0  0  0  0  0  0  0  0  0  0  0
    2.2038    1.5882    8.2665 N   0  0  0  0  0  0  0  0  0  0  0  0
    2.8461    1.1582    9.4883 C   0  0  0  0  0  0  0  0  0  0  0  0
    2.8356   -0.3373    9.6364 C   0  0  0  0  0  0  0  0  0  0  0  0
    3.1694   -0.9892    8.4734 O   0  0  0  0  0  0  0  0  0  0  0  0
    2.2617   -0.7097    7.4645 C   0  0  0  0  0  0  0  0  0  0  0  0
    2.3548    0.7441    7.0969 C   0  0  0  0  0  0  0  0  0  0  0  0
   -0.6194    6.3953    8.0059 O   0  0  0  0  0  0  0  0  0  0  0  0
   -1.1808    6.8022    6.7805 C   0  0  0  0  0  0  0  0  0  0  0  0
    5.0173    8.2922   16.6770 O   0  0  0  0  0  0  0  0  0  0  0  0
  1  2  1  0
  2  3  1  0
  3  4  1  0
  4  5  1  0
  5  6  1  0
  6  7  1  0
  5  8  1  0
  8  9  2  0
  8 10  1  0
 10 11  1  0
 11 12  2  0
 12 13  1  0
 13 14  2  0
 14 15  1  0
 15 16  2  0
 16 17  1  0
 17 18  2  0
 18 19  1  0
 17 20  1  0
 20 21  1  0
 21 22  1  0
 22 23  1  0
 23 24  1  0
 24 25  1  0
 14 26  1  0
 26 27  1  0
  2 28  1  0
  7  2  1  0
 19 11  1  0
 18 13  1  0
 25 20  1  0
M  END
$$$$
