
     RDKit          3D

 28 31  0  0  0  0  0  0  0  0999 V2000
    1.7381   -0.9398    6.0329 C   0  0  0  0  0  0  0  0  0  0  0  0
    1.7724    0.5243    6.3409 C   0  0  0  0  0  0  0  0  0  0  0  0
    2.6758    0.7651    7.5096 C   0  0  0  0  0  0  0  0  0  0  0  0
    1.8808    1.2697    8.6923 C   0  0  0  0  0  0  0  0  0  0  0  0
    1.1646    2.4707    8.3266 N   0  0  0  0  0  0  0  0  0  0  0  0
    0.4066    2.4550    7.1029 C   0  0  0  0  0  0  0  0  0  0  0  0
    0.3656    1.0439    6.5567 C   0  0  0  0  0  0  0  0  0  0  0  0
    1.2444    3.5951    9.1843 C   0  0  0  0  0  0  0  0  0  0  0  0
    0.4694    4.5660    8.9980 O   0  0  0  0  0  0  0  0  0  0  0  0
    2.1522    3.6940   10.2490 N   0  0  0  0  0  0  0  0  0  0  0  0
    2.0469    4.8405   11.1435 C   0  0  0  0  0  0  0  0  0  0  0  0
    1.4200    5.7656   11.4182 N   0  0  0  0  0  0  0  0  0  0  0  0
    1.5967    6.6852   12.3504 C   0  0  0  0  0  0  0  0  0  0  0  0
    0.8281    7.8031   12.6737 C   0  0  0  0  0  0  0  0  0  0  0  0
    1.2180    8.6268   13.6998 C   0  0  0  0  0  0  0  0  0  0  0  0
    2.3423    8.4416   14.4680 C   0  0  0  0  0  0  0  0  0  0  0  0
    3.1137    7.3350   14.1568 C   0  0  0  0  0  0  0  0  0  0  0  0
    2.7220    6.4933   13.1137 C   0  0  0  0  0  0  0  0  0  0  0  0
    3.4465    4.9974   12.4312 S   0  0  0  0  0  0  0  0  0  0  0  0
    4.3020    6.9835   14.8350 N   0  0  0  0  0  0  0  0  0  0  0  0
    4.4609    7.0133   16.2717 C   0  0  0  0  0  0  0  0  0  0  0  0
    5.3504    5.9070   16.7651 C   0  0  0  0  0  0  0  0  0  0  0  0
    6.4806    5.7515   15.9986 O   0  0  0  0  0  0  0  0  0  0  0  0
    6.1581    5.4146   14.6938 C   0  0  0  0  0  0  0  0  0  0  0  0
    5.4422    6.5640   14.0431 C   0  0  0  0  0  0  0  0  0  0  0  0
   -0.3496    8.1076   11.9635 O   0  0  0  0  0  0  0  0  0  0  0  0
   -1.0315    9.3160   12.2024 C   0  0  0  0  0  0  0  0  0  0  0  0
    2.2463    1.1719    5.1821 O   0  0  0  0  0  0  0  0  0  0  0  0
  1  2  1  0
  2  3  1  0
  3  4  1  0
  4  5  1  0
  5  6  1  0
  6  7  1  0
  5  8  1  0
  8  9  2  0
  8 10  1  0
 10 11  1  0
 11 12  2  0
 12 13  1  0
 13 14  2  0
 14 15  1  0
 15 16  2  0
 16 17  1  0
 17 18  2  0
 18 19  1  0
 17 20  1  0
 20 21  1  0
 21 22  1  0
 22 23  1  0
 23 24  1  0
 24 25  1  0
 14 26  1  0
 26 27  1  0
  2 28  1  0
  7  2  1  0
 19 11  1  0
 18 13  1  0
 25 20  1  0
M  END
$$$$
