
     RDKit          3D

 28 31  0  0  0  0  0  0  0  0999 V2000
    5.5174    8.2772   17.9562 C   0  0  0  0  0  0  0  0  0  0  0  0
    4.7032    7.2911   17.1787 C   0  0  0  0  0  0  0  0  0  0  0  0
    5.6175    6.3508   16.4577 C   0  0  0  0  0  0  0  0  0  0  0  0
    5.4934    6.5407   14.9631 C   0  0  0  0  0  0  0  0  0  0  0  0
    4.1194    6.3519   14.5561 N   0  0  0  0  0  0  0  0  0  0  0  0
    3.0974    7.0419   15.2990 C   0  0  0  0  0  0  0  0  0  0  0  0
    3.7465    8.0185   16.2561 C   0  0  0  0  0  0  0  0  0  0  0  0
    3.8492    5.5032   13.4548 C   0  0  0  0  0  0  0  0  0  0  0  0
    4.7778    4.8080   12.9726 O   0  0  0  0  0  0  0  0  0  0  0  0
    2.5853    5.3883   12.8576 N   0  0  0  0  0  0  0  0  0  0  0  0
    2.4348    4.4815   11.7258 C   0  0  0  0  0  0  0  0  0  0  0  0
    2.7950    3.4947   11.2560 N   0  0  0  0  0  0  0  0  0  0  0  0
    2.4429    2.8906   10.1349 C   0  0  0  0  0  0  0  0  0  0  0  0
    2.8876    1.6928    9.5759 C   0  0  0  0  0  0  0  0  0  0  0  0
    2.3663    1.2607    8.3822 C   0  0  0  0  0  0  0  0  0  0  0  0
    1.4074    1.9288    7.6593 C   0  0  0  0  0  0  0  0  0  0  0  0
    0.9578    3.1195    8.2039 C   0  0  0  0  0  0  0  0  0  0  0  0
    1.4844    3.5643    9.4183 C   0  0  0  0  0  0  0  0  0  0  0  0
    1.1589    5.0237   10.4145 S   0  0  0  0  0  0  0  0  0  0  0  0
   -0.0223    3.9424    7.6055 N   0  0  0  0  0  0  0  0  0  0  0  0
   -0.6872    5.0379    8.2748 C   0  0  0  0  0  0  0  0  0  0  0  0
   -0.9753    6.1795    7.3409 C   0  0  0  0  0  0  0  0  0  0  0  0
   -1.4831    5.7636    6.1334 O   0  0  0  0  0  0  0  0  0  0  0  0
   -0.5802    4.9541    5.4627 C   0  0  0  0  0  0  0  0  0  0  0  0
   -0.3906    3.6756    6.2285 C   0  0  0  0  0  0  0  0  0  0  0  0
    3.8687    0.9102   10.2158 O   0  0  0  0  0  0  0  0  0  0  0  0
    4.5108   -0.1326    9.5211 C   0  0  0  0  0  0  0  0  0  0  0  0
    3.8936    6.6095   18.1096 O   0  0  0  0  0  0  0  0  0  0  0  0
  1  2  1  0
  2  3  1  0
  3  4  1  0
  4  5  1  0
  5  6  1  0
  6  7  1  0
  5  8  1  0
  8  9  2  0
  8 10  1  0
 10 11  1  0
 11 12  2  0
 12 13  1  0
 13 14  2  0
 14 15  1  0
 15 16  2  0
 16 17  1  0
 17 18  2  0
 18 19  1  0
 17 20  1  0
 20 21  1  0
 21 22  1  0
 22 23  1  0
 23 24  1  0
 24 25  1  0
 14 26  1  0
 26 27  1  0
  2 28  1  0
  7  2  1  0
 19 11  1  0
 18 13  1  0
 25 20  1  0
M  END
$$$$
