
     RDKit          3D

 28 31  0  0  0  0  0  0  0  0999 V2000
    6.3843    7.8940   17.3973 C   0  0  0  0  0  0  0  0  0  0  0  0
    5.1750    7.2027   16.8502 C   0  0  0  0  0  0  0  0  0  0  0  0
    5.5798    6.3219   15.7098 C   0  0  0  0  0  0  0  0  0  0  0  0
    4.9843    6.8306   14.4168 C   0  0  0  0  0  0  0  0  0  0  0  0
    3.5459    6.9080   14.5350 N   0  0  0  0  0  0  0  0  0  0  0  0
    3.0011    7.5552   15.6999 C   0  0  0  0  0  0  0  0  0  0  0  0
    4.1194    8.2216   16.4721 C   0  0  0  0  0  0  0  0  0  0  0  0
    2.7501    6.3468   13.5065 C   0  0  0  0  0  0  0  0  0  0  0  0
    1.5036    6.4990   13.5419 O   0  0  0  0  0  0  0  0  0  0  0  0
    3.2770    5.6178   12.4303 N   0  0  0  0  0  0  0  0  0  0  0  0
    2.4451    5.4317   11.2475 C   0  0  0  0  0  0  0  0  0  0  0  0
    1.6281    5.9024   10.5878 N   0  0  0  0  0  0  0  0  0  0  0  0
    1.0308    5.4542    9.4978 C   0  0  0  0  0  0  0  0  0  0  0  0
    0.0406    6.0356    8.7062 C   0  0  0  0  0  0  0  0  0  0  0  0
   -0.4320    5.3687    7.6039 C   0  0  0  0  0  0  0  0  0  0  0  0
   -0.0002    4.1303    7.1935 C   0  0  0  0  0  0  0  0  0  0  0  0
    0.9828    3.5427    7.9712 C   0  0  0  0  0  0  0  0  0  0  0  0
    1.4677    4.2164    9.0941 C   0  0  0  0  0  0  0  0  0  0  0  0
    2.7111    3.7865   10.3178 S   0  0  0  0  0  0  0  0  0  0  0  0
    1.5484    2.2756    7.7063 N   0  0  0  0  0  0  0  0  0  0  0  0
    1.2311    1.4656    6.5515 C   0  0  0  0  0  0  0  0  0  0  0  0
    2.4230    0.6960    6.0561 C   0  0  0  0  0  0  0  0  0  0  0  0
    3.1377    0.1096    7.0732 O   0  0  0  0  0  0  0  0  0  0  0  0
    3.6457    1.0621    7.9420 C   0  0  0  0  0  0  0  0  0  0  0  0
    2.5122    1.7463    8.6519 C   0  0  0  0  0  0  0  0  0  0  0  0
   -0.4893    7.3033    9.0167 O   0  0  0  0  0  0  0  0  0  0  0  0
   -1.1204    7.5261   10.2553 C   0  0  0  0  0  0  0  0  0  0  0  0
    4.6223    6.4533   17.9084 O   0  0  0  0  0  0  0  0  0  0  0  0
  1  2  1  0
  2  3  1  0
  3  4  1  0
  4  5  1  0
  5  6  1  0
  6  7  1  0
  5  8  1  0
  8  9  2  0
  8 10  1  0
 10 11  1  0
 11 12  2  0
 12 13  1  0
 13 14  2  0
 14 15  1  0
 15 16  2  0
 16 17  1  0
 17 18  2  0
 18 19  1  0
 17 20  1  0
 20 21  1  0
 21 22  1  0
 22 23  1  0
 23 24  1  0
 24 25  1  0
 14 26  1  0
 26 27  1  0
  2 28  1  0
  7  2  1  0
 19 11  1  0
 18 13  1  0
 25 20  1  0
M  END
$$$$
