
     RDKit          3D

 28 31  0  0  0  0  0  0  0  0999 V2000
    5.2886    7.5276   18.6237 C   0  0  0  0  0  0  0  0  0  0  0  0
    5.3384    7.5169   17.1280 C   0  0  0  0  0  0  0  0  0  0  0  0
    3.9508    7.3728   16.5858 C   0  0  0  0  0  0  0  0  0  0  0  0
    3.8016    6.0491   15.8710 C   0  0  0  0  0  0  0  0  0  0  0  0
    4.7889    5.9437   14.8207 N   0  0  0  0  0  0  0  0  0  0  0  0
    6.1552    6.2565   15.1487 C   0  0  0  0  0  0  0  0  0  0  0  0
    6.2830    6.4347   16.6464 C   0  0  0  0  0  0  0  0  0  0  0  0
    4.3654    5.5412   13.5304 C   0  0  0  0  0  0  0  0  0  0  0  0
    5.2216    5.3796   12.6255 O   0  0  0  0  0  0  0  0  0  0  0  0
    3.0241    5.3073   13.1935 N   0  0  0  0  0  0  0  0  0  0  0  0
    2.7364    4.5851   11.9600 C   0  0  0  0  0  0  0  0  0  0  0  0
    3.0527    3.7056   11.2886 N   0  0  0  0  0  0  0  0  0  0  0  0
    2.5584    3.2696   10.1435 C   0  0  0  0  0  0  0  0  0  0  0  0
    2.9514    2.2007    9.3385 C   0  0  0  0  0  0  0  0  0  0  0  0
    2.2742    1.9369    8.1744 C   0  0  0  0  0  0  0  0  0  0  0  0
    1.2009    2.6601    7.7122 C   0  0  0  0  0  0  0  0  0  0  0  0
    0.8012    3.7239    8.5026 C   0  0  0  0  0  0  0  0  0  0  0  0
    1.4864    3.9972    9.6882 C   0  0  0  0  0  0  0  0  0  0  0  0
    1.2674    5.2609   10.9467 S   0  0  0  0  0  0  0  0  0  0  0  0
   -0.2793    4.5788    8.1904 N   0  0  0  0  0  0  0  0  0  0  0  0
   -0.4224    5.9283    8.6890 C   0  0  0  0  0  0  0  0  0  0  0  0
   -1.0561    6.8406    7.6767 C   0  0  0  0  0  0  0  0  0  0  0  0
   -2.1390    6.2704    7.0512 O   0  0  0  0  0  0  0  0  0  0  0  0
   -1.7703    5.1348    6.3481 C   0  0  0  0  0  0  0  0  0  0  0  0
   -1.3174    4.0751    7.3120 C   0  0  0  0  0  0  0  0  0  0  0  0
    4.0377    1.3790    9.6978 O   0  0  0  0  0  0  0  0  0  0  0  0
    4.3738    0.2607    8.9112 C   0  0  0  0  0  0  0  0  0  0  0  0
    5.9213    8.7378   16.7325 O   0  0  0  0  0  0  0  0  0  0  0  0
  1  2  1  0
  2  3  1  0
  3  4  1  0
  4  5  1  0
  5  6  1  0
  6  7  1  0
  5  8  1  0
  8  9  2  0
  8 10  1  0
 10 11  1  0
 11 12  2  0
 12 13  1  0
 13 14  2  0
 14 15  1  0
 15 16  2  0
 16 17  1  0
 17 18  2  0
 18 19  1  0
 17 20  1  0
 20 21  1  0
 21 22  1  0
 22 23  1  0
 23 24  1  0
 24 25  1  0
 14 26  1  0
 26 27  1  0
  2 28  1  0
  7  2  1  0
 19 11  1  0
 18 13  1  0
 25 20  1  0
M  END
$$$$
