
     RDKit          3D

 23 25  0  0  0  0  0  0  0  0999 V2000
   -1.1219   -1.3855    7.2771 C   0  0  0  0  0  0  0  0  0  0  0  0
   -0.1155   -0.3934    7.7528 C   0  0  0  0  0  0  0  0  0  0  0  0
    1.0965   -0.4509    7.4371 O   0  0  0  0  0  0  0  0  0  0  0  0
   -0.5021    0.6893    8.6098 N   0  0  0  0  0  0  0  0  0  0  0  0
    0.3749    1.8375    8.8063 C   0  0  0  0  0  0  0  0  0  0  0  0
    0.4939    2.1190   10.2901 C   0  0  0  0  0  0  0  0  0  0  0  0
    1.4638    1.2653   10.9751 C   0  0  0  0  0  0  0  0  0  0  0  0
    2.8132    1.4210   11.1026 C   0  0  0  0  0  0  0  0  0  0  0  0
    3.2246    0.3534   11.8558 N   0  0  0  0  0  0  0  0  0  0  0  0
    2.2106   -0.4236   12.1821 C   0  0  0  0  0  0  0  0  0  0  0  0
    1.0718    0.0992   11.6552 C   0  0  0  0  0  0  0  0  0  0  0  0
   -0.1143   -0.5511   11.8713 C   0  0  0  0  0  0  0  0  0  0  0  0
   -0.1394   -1.7189   12.6149 C   0  0  0  0  0  0  0  0  0  0  0  0
    1.0158   -2.2584   13.1557 C   0  0  0  0  0  0  0  0  0  0  0  0
    2.1908   -1.6051   12.9356 C   0  0  0  0  0  0  0  0  0  0  0  0
   -1.3284   -2.3996   12.8500 O   0  0  0  0  0  0  0  0  0  0  0  0
   -1.5243   -3.2024   13.9916 C   0  0  0  0  0  0  0  0  0  0  0  0
    3.7367    2.4324   10.5919 C   0  0  0  0  0  0  0  0  0  0  0  0
    3.3104    3.3416    9.6173 C   0  0  0  0  0  0  0  0  0  0  0  0
    4.1440    4.3139    9.1055 C   0  0  0  0  0  0  0  0  0  0  0  0
    5.4452    4.4377    9.5319 C   0  0  0  0  0  0  0  0  0  0  0  0
    5.8863    3.5695   10.4762 C   0  0  0  0  0  0  0  0  0  0  0  0
    5.0216    2.5794   10.9910 C   0  0  0  0  0  0  0  0  0  0  0  0
  1  2  1  0
  2  3  2  0
  2  4  1  0
  4  5  1  0
  5  6  1  0
  6  7  1  0
  7  8  2  0
  8  9  1  0
  9 10  1  0
 10 11  2  0
 11 12  1  0
 12 13  2  0
 13 14  1  0
 14 15  2  0
 13 16  1  0
 16 17  1  0
  8 18  1  0
 18 19  2  0
 19 20  1  0
 20 21  2  0
 21 22  1  0
 22 23  2  0
 11  7  1  0
 15 10  1  0
 23 18  1  0
M  END
$$$$
