
     RDKit          3D

 23 25  0  0  0  0  0  0  0  0999 V2000
    3.7751   -1.9907   10.8624 C   0  0  0  0  0  0  0  0  0  0  0  0
    3.3253   -0.5895   11.1024 C   0  0  0  0  0  0  0  0  0  0  0  0
    3.4095    0.3091   10.2322 O   0  0  0  0  0  0  0  0  0  0  0  0
    2.7670   -0.2053   12.3660 N   0  0  0  0  0  0  0  0  0  0  0  0
    2.2694    1.1479   12.5835 C   0  0  0  0  0  0  0  0  0  0  0  0
    0.7948    1.1925   12.2395 C   0  0  0  0  0  0  0  0  0  0  0  0
    0.1584    2.4741   12.5419 C   0  0  0  0  0  0  0  0  0  0  0  0
    0.1141    3.6143   11.7937 C   0  0  0  0  0  0  0  0  0  0  0  0
   -0.6264    4.4969   12.5346 N   0  0  0  0  0  0  0  0  0  0  0  0
   -1.0227    3.9569   13.6703 C   0  0  0  0  0  0  0  0  0  0  0  0
   -0.5584    2.6808   13.7331 C   0  0  0  0  0  0  0  0  0  0  0  0
   -0.8534    1.9251   14.8370 C   0  0  0  0  0  0  0  0  0  0  0  0
   -1.6118    2.4629   15.8631 C   0  0  0  0  0  0  0  0  0  0  0  0
   -2.0890    3.7617   15.8073 C   0  0  0  0  0  0  0  0  0  0  0  0
   -1.7907    4.5060   14.7059 C   0  0  0  0  0  0  0  0  0  0  0  0
   -1.9262    1.7191   16.9945 O   0  0  0  0  0  0  0  0  0  0  0  0
   -3.1147    1.9226   17.7240 C   0  0  0  0  0  0  0  0  0  0  0  0
    0.6919    3.9593   10.4962 C   0  0  0  0  0  0  0  0  0  0  0  0
    0.8805    5.3015   10.1483 C   0  0  0  0  0  0  0  0  0  0  0  0
    1.4226    5.6768    8.9368 C   0  0  0  0  0  0  0  0  0  0  0  0
    1.8069    4.7421    8.0046 C   0  0  0  0  0  0  0  0  0  0  0  0
    1.6356    3.4326    8.3146 C   0  0  0  0  0  0  0  0  0  0  0  0
    1.0795    3.0634    9.5586 C   0  0  0  0  0  0  0  0  0  0  0  0
  1  2  1  0
  2  3  2  0
  2  4  1  0
  4  5  1  0
  5  6  1  0
  6  7  1  0
  7  8  2  0
  8  9  1  0
  9 10  1  0
 10 11  2  0
 11 12  1  0
 12 13  2  0
 13 14  1  0
 14 15  2  0
 13 16  1  0
 16 17  1  0
  8 18  1  0
 18 19  2  0
 19 20  1  0
 20 21  2  0
 21 22  1  0
 22 23  2  0
 11  7  1  0
 15 10  1  0
 23 18  1  0
M  END
$$$$
