
     RDKit          3D

 23 25  0  0  0  0  0  0  0  0999 V2000
    3.6363   -2.5845    9.9275 C   0  0  0  0  0  0  0  0  0  0  0  0
    4.1428   -1.1860   10.0318 C   0  0  0  0  0  0  0  0  0  0  0  0
    5.3001   -0.9108   10.4278 O   0  0  0  0  0  0  0  0  0  0  0  0
    3.3079   -0.0758    9.6762 N   0  0  0  0  0  0  0  0  0  0  0  0
    3.7933    1.2939    9.7969 C   0  0  0  0  0  0  0  0  0  0  0  0
    3.1884    1.9243   11.0344 C   0  0  0  0  0  0  0  0  0  0  0  0
    1.7279    1.8601   11.0737 C   0  0  0  0  0  0  0  0  0  0  0  0
    0.8116    2.6260   10.4138 C   0  0  0  0  0  0  0  0  0  0  0  0
   -0.4068    2.1274   10.7922 N   0  0  0  0  0  0  0  0  0  0  0  0
   -0.2739    1.1192   11.6315 C   0  0  0  0  0  0  0  0  0  0  0  0
    1.0505    0.9027   11.8484 C   0  0  0  0  0  0  0  0  0  0  0  0
    1.4238   -0.1070   12.6957 C   0  0  0  0  0  0  0  0  0  0  0  0
    0.4599   -0.8857   13.3135 C   0  0  0  0  0  0  0  0  0  0  0  0
   -0.8914   -0.6723   13.0981 C   0  0  0  0  0  0  0  0  0  0  0  0
   -1.2535    0.3339   12.2541 C   0  0  0  0  0  0  0  0  0  0  0  0
    0.8099   -1.9167   14.1778 O   0  0  0  0  0  0  0  0  0  0  0  0
   -0.1103   -2.4911   15.0775 C   0  0  0  0  0  0  0  0  0  0  0  0
    0.9548    3.7580    9.5003 C   0  0  0  0  0  0  0  0  0  0  0  0
   -0.1084    4.6492    9.3175 C   0  0  0  0  0  0  0  0  0  0  0  0
   -0.0210    5.7321    8.4678 C   0  0  0  0  0  0  0  0  0  0  0  0
    1.1248    5.9901    7.7531 C   0  0  0  0  0  0  0  0  0  0  0  0
    2.1722    5.1425    7.9103 C   0  0  0  0  0  0  0  0  0  0  0  0
    2.0683    4.0383    8.7837 C   0  0  0  0  0  0  0  0  0  0  0  0
  1  2  1  0
  2  3  2  0
  2  4  1  0
  4  5  1  0
  5  6  1  0
  6  7  1  0
  7  8  2  0
  8  9  1  0
  9 10  1  0
 10 11  2  0
 11 12  1  0
 12 13  2  0
 13 14  1  0
 14 15  2  0
 13 16  1  0
 16 17  1  0
  8 18  1  0
 18 19  2  0
 19 20  1  0
 20 21  2  0
 21 22  1  0
 22 23  2  0
 11  7  1  0
 15 10  1  0
 23 18  1  0
M  END
$$$$
