
     RDKit          3D

 23 25  0  0  0  0  0  0  0  0999 V2000
   -0.9406   -2.8151    8.9286 C   0  0  0  0  0  0  0  0  0  0  0  0
    0.4130   -2.2248    8.7220 C   0  0  0  0  0  0  0  0  0  0  0  0
    1.4550   -2.9194    8.6631 O   0  0  0  0  0  0  0  0  0  0  0  0
    0.5806   -0.8077    8.5801 N   0  0  0  0  0  0  0  0  0  0  0  0
    1.9110   -0.2144    8.5181 C   0  0  0  0  0  0  0  0  0  0  0  0
    2.5670   -0.3311    9.8786 C   0  0  0  0  0  0  0  0  0  0  0  0
    1.9112    0.4615   10.9181 C   0  0  0  0  0  0  0  0  0  0  0  0
    1.8597    1.8167   11.0676 C   0  0  0  0  0  0  0  0  0  0  0  0
    1.1005    2.0219   12.1890 N   0  0  0  0  0  0  0  0  0  0  0  0
    0.6998    0.8806   12.7137 C   0  0  0  0  0  0  0  0  0  0  0  0
    1.1798   -0.1411   11.9563 C   0  0  0  0  0  0  0  0  0  0  0  0
    0.8835   -1.4280   12.3204 C   0  0  0  0  0  0  0  0  0  0  0  0
    0.1080   -1.6703   13.4416 C   0  0  0  0  0  0  0  0  0  0  0  0
   -0.3854   -0.6357   14.2188 C   0  0  0  0  0  0  0  0  0  0  0  0
   -0.0856    0.6409   13.8493 C   0  0  0  0  0  0  0  0  0  0  0  0
   -0.2082   -2.9657   13.8344 O   0  0  0  0  0  0  0  0  0  0  0  0
   -0.3756   -3.3235   15.1872 C   0  0  0  0  0  0  0  0  0  0  0  0
    2.4460    2.9116   10.2970 C   0  0  0  0  0  0  0  0  0  0  0  0
    3.0902    2.6473    9.0832 C   0  0  0  0  0  0  0  0  0  0  0  0
    3.6575    3.6465    8.3202 C   0  0  0  0  0  0  0  0  0  0  0  0
    3.6173    4.9616    8.7191 C   0  0  0  0  0  0  0  0  0  0  0  0
    2.9992    5.2478    9.8923 C   0  0  0  0  0  0  0  0  0  0  0  0
    2.4228    4.2146   10.6626 C   0  0  0  0  0  0  0  0  0  0  0  0
  1  2  1  0
  2  3  2  0
  2  4  1  0
  4  5  1  0
  5  6  1  0
  6  7  1  0
  7  8  2  0
  8  9  1  0
  9 10  1  0
 10 11  2  0
 11 12  1  0
 12 13  2  0
 13 14  1  0
 14 15  2  0
 13 16  1  0
 16 17  1  0
  8 18  1  0
 18 19  2  0
 19 20  1  0
 20 21  2  0
 21 22  1  0
 22 23  2  0
 11  7  1  0
 15 10  1  0
 23 18  1  0
M  END
$$$$
