
     RDKit          3D

 23 25  0  0  0  0  0  0  0  0999 V2000
   -1.6659    6.1536   10.5295 C   0  0  0  0  0  0  0  0  0  0  0  0
   -0.3467    5.4623   10.6024 C   0  0  0  0  0  0  0  0  0  0  0  0
    0.3715    5.2620    9.5945 O   0  0  0  0  0  0  0  0  0  0  0  0
    0.1639    4.9881   11.8556 N   0  0  0  0  0  0  0  0  0  0  0  0
    1.4934    4.3962   11.9457 C   0  0  0  0  0  0  0  0  0  0  0  0
    1.5472    3.1672   11.0617 C   0  0  0  0  0  0  0  0  0  0  0  0
    1.4449    1.9077   11.7979 C   0  0  0  0  0  0  0  0  0  0  0  0
    2.1406    0.7469   11.6245 C   0  0  0  0  0  0  0  0  0  0  0  0
    1.6678   -0.0988   12.5927 N   0  0  0  0  0  0  0  0  0  0  0  0
    0.7394    0.4823   13.3268 C   0  0  0  0  0  0  0  0  0  0  0  0
    0.5541    1.7505   12.8737 C   0  0  0  0  0  0  0  0  0  0  0  0
   -0.3731    2.5443   13.4957 C   0  0  0  0  0  0  0  0  0  0  0  0
   -1.1015    2.0521   14.5654 C   0  0  0  0  0  0  0  0  0  0  0  0
   -0.9191    0.7616   15.0337 C   0  0  0  0  0  0  0  0  0  0  0  0
    0.0049   -0.0208   14.4091 C   0  0  0  0  0  0  0  0  0  0  0  0
   -2.0485    2.8352   15.2152 O   0  0  0  0  0  0  0  0  0  0  0  0
   -3.0066    2.2873   16.0915 C   0  0  0  0  0  0  0  0  0  0  0  0
    3.1657    0.3522   10.6602 C   0  0  0  0  0  0  0  0  0  0  0  0
    3.6334    1.2751    9.7181 C   0  0  0  0  0  0  0  0  0  0  0  0
    4.5998    0.9504    8.7891 C   0  0  0  0  0  0  0  0  0  0  0  0
    5.1547   -0.3066    8.7435 C   0  0  0  0  0  0  0  0  0  0  0  0
    4.7203   -1.2225    9.6449 C   0  0  0  0  0  0  0  0  0  0  0  0
    3.7306   -0.8758   10.5901 C   0  0  0  0  0  0  0  0  0  0  0  0
  1  2  1  0
  2  3  2  0
  2  4  1  0
  4  5  1  0
  5  6  1  0
  6  7  1  0
  7  8  2  0
  8  9  1  0
  9 10  1  0
 10 11  2  0
 11 12  1  0
 12 13  2  0
 13 14  1  0
 14 15  2  0
 13 16  1  0
 16 17  1  0
  8 18  1  0
 18 19  2  0
 19 20  1  0
 20 21  2  0
 21 22  1  0
 22 23  2  0
 11  7  1  0
 15 10  1  0
 23 18  1  0
M  END
$$$$
