
     RDKit          3D

 23 25  0  0  0  0  0  0  0  0999 V2000
   -0.3111   -0.8893   16.0092 C   0  0  0  0  0  0  0  0  0  0  0  0
   -0.5740    0.1840   15.0080 C   0  0  0  0  0  0  0  0  0  0  0  0
   -1.7275    0.5971   14.7426 O   0  0  0  0  0  0  0  0  0  0  0  0
    0.5057    0.7994   14.2926 N   0  0  0  0  0  0  0  0  0  0  0  0
    0.2471    1.7963   13.2605 C   0  0  0  0  0  0  0  0  0  0  0  0
   -0.2261    1.0943   12.0042 C   0  0  0  0  0  0  0  0  0  0  0  0
    0.8349    0.3824   11.2928 C   0  0  0  0  0  0  0  0  0  0  0  0
    1.7559    0.8640   10.4088 C   0  0  0  0  0  0  0  0  0  0  0  0
    2.5207   -0.2197   10.0667 N   0  0  0  0  0  0  0  0  0  0  0  0
    2.1146   -1.3097   10.6875 C   0  0  0  0  0  0  0  0  0  0  0  0
    1.0532   -0.9940   11.4759 C   0  0  0  0  0  0  0  0  0  0  0  0
    0.4660   -1.9838   12.2191 C   0  0  0  0  0  0  0  0  0  0  0  0
    0.9544   -3.2781   12.1595 C   0  0  0  0  0  0  0  0  0  0  0  0
    2.0353   -3.6085   11.3592 C   0  0  0  0  0  0  0  0  0  0  0  0
    2.6129   -2.6180   10.6236 C   0  0  0  0  0  0  0  0  0  0  0  0
    0.3782   -4.3019   12.9025 O   0  0  0  0  0  0  0  0  0  0  0  0
    0.8170   -5.6381   12.8118 C   0  0  0  0  0  0  0  0  0  0  0  0
    1.9787    2.1974    9.8532 C   0  0  0  0  0  0  0  0  0  0  0  0
    3.0032    2.4065    8.9233 C   0  0  0  0  0  0  0  0  0  0  0  0
    3.2516    3.6455    8.3705 C   0  0  0  0  0  0  0  0  0  0  0  0
    2.4981    4.7443    8.7097 C   0  0  0  0  0  0  0  0  0  0  0  0
    1.4977    4.5716    9.6094 C   0  0  0  0  0  0  0  0  0  0  0  0
    1.2550    3.2974   10.1668 C   0  0  0  0  0  0  0  0  0  0  0  0
  1  2  1  0
  2  3  2  0
  2  4  1  0
  4  5  1  0
  5  6  1  0
  6  7  1  0
  7  8  2  0
  8  9  1  0
  9 10  1  0
 10 11  2  0
 11 12  1  0
 12 13  2  0
 13 14  1  0
 14 15  2  0
 13 16  1  0
 16 17  1  0
  8 18  1  0
 18 19  2  0
 19 20  1  0
 20 21  2  0
 21 22  1  0
 22 23  2  0
 11  7  1  0
 15 10  1  0
 23 18  1  0
M  END
$$$$
