
     RDKit          3D

 23 25  0  0  0  0  0  0  0  0999 V2000
   -0.5907   -1.8792    9.3229 C   0  0  0  0  0  0  0  0  0  0  0  0
    0.7895   -1.3170    9.3716 C   0  0  0  0  0  0  0  0  0  0  0  0
    1.2731   -0.6232    8.4461 O   0  0  0  0  0  0  0  0  0  0  0  0
    1.6376   -1.5534   10.5034 N   0  0  0  0  0  0  0  0  0  0  0  0
    3.0133   -1.0705   10.5211 C   0  0  0  0  0  0  0  0  0  0  0  0
    3.1772   -0.0900   11.6642 C   0  0  0  0  0  0  0  0  0  0  0  0
    2.3524    1.1105   11.5327 C   0  0  0  0  0  0  0  0  0  0  0  0
    1.2133    1.4534   12.2008 C   0  0  0  0  0  0  0  0  0  0  0  0
    0.8695    2.6846   11.7087 N   0  0  0  0  0  0  0  0  0  0  0  0
    1.7272    3.0933   10.7945 C   0  0  0  0  0  0  0  0  0  0  0  0
    2.6864    2.1427   10.6389 C   0  0  0  0  0  0  0  0  0  0  0  0
    3.6890    2.3596    9.7309 C   0  0  0  0  0  0  0  0  0  0  0  0
    3.7136    3.5300    8.9915 C   0  0  0  0  0  0  0  0  0  0  0  0
    2.7408    4.5039    9.1438 C   0  0  0  0  0  0  0  0  0  0  0  0
    1.7476    4.2797   10.0489 C   0  0  0  0  0  0  0  0  0  0  0  0
    4.7187    3.7765    8.0634 O   0  0  0  0  0  0  0  0  0  0  0  0
    4.7953    4.9820    7.3376 C   0  0  0  0  0  0  0  0  0  0  0  0
    0.4244    0.7579   13.2160 C   0  0  0  0  0  0  0  0  0  0  0  0
    0.6367   -0.6042   13.4562 C   0  0  0  0  0  0  0  0  0  0  0  0
   -0.0815   -1.3033   14.4038 C   0  0  0  0  0  0  0  0  0  0  0  0
   -1.0489   -0.6903   15.1643 C   0  0  0  0  0  0  0  0  0  0  0  0
   -1.2767    0.6302   14.9531 C   0  0  0  0  0  0  0  0  0  0  0  0
   -0.5337    1.3329   13.9798 C   0  0  0  0  0  0  0  0  0  0  0  0
  1  2  1  0
  2  3  2  0
  2  4  1  0
  4  5  1  0
  5  6  1  0
  6  7  1  0
  7  8  2  0
  8  9  1  0
  9 10  1  0
 10 11  2  0
 11 12  1  0
 12 13  2  0
 13 14  1  0
 14 15  2  0
 13 16  1  0
 16 17  1  0
  8 18  1  0
 18 19  2  0
 19 20  1  0
 20 21  2  0
 21 22  1  0
 22 23  2  0
 11  7  1  0
 15 10  1  0
 23 18  1  0
M  END
$$$$
