
     RDKit          3D

 23 25  0  0  0  0  0  0  0  0999 V2000
    0.5344    5.0663    9.0210 C   0  0  0  0  0  0  0  0  0  0  0  0
    0.0010    4.2351   10.1381 C   0  0  0  0  0  0  0  0  0  0  0  0
   -0.5548    4.7299   11.1471 O   0  0  0  0  0  0  0  0  0  0  0  0
    0.1056    2.8055   10.1025 N   0  0  0  0  0  0  0  0  0  0  0  0
   -0.2486    2.0004   11.2654 C   0  0  0  0  0  0  0  0  0  0  0  0
    1.0139    1.6499   12.0258 C   0  0  0  0  0  0  0  0  0  0  0  0
    1.7481    0.5196   11.4581 C   0  0  0  0  0  0  0  0  0  0  0  0
    2.8266    0.5223   10.6223 C   0  0  0  0  0  0  0  0  0  0  0  0
    3.1254   -0.7996   10.4235 N   0  0  0  0  0  0  0  0  0  0  0  0
    2.2968   -1.5842   11.0841 C   0  0  0  0  0  0  0  0  0  0  0  0
    1.4042   -0.8102   11.7564 C   0  0  0  0  0  0  0  0  0  0  0  0
    0.4420   -1.4213   12.5163 C   0  0  0  0  0  0  0  0  0  0  0  0
    0.3906   -2.8031   12.5900 C   0  0  0  0  0  0  0  0  0  0  0  0
    1.2960   -3.5992   11.9086 C   0  0  0  0  0  0  0  0  0  0  0  0
    2.2493   -2.9830   11.1554 C   0  0  0  0  0  0  0  0  0  0  0  0
   -0.5747   -3.4497   13.3532 O   0  0  0  0  0  0  0  0  0  0  0  0
   -1.7118   -2.7835   13.8524 C   0  0  0  0  0  0  0  0  0  0  0  0
    3.5780    1.6072    9.9940 C   0  0  0  0  0  0  0  0  0  0  0  0
    4.7610    1.3294    9.3000 C   0  0  0  0  0  0  0  0  0  0  0  0
    5.5039    2.3184    8.6899 C   0  0  0  0  0  0  0  0  0  0  0  0
    5.1146    3.6363    8.7348 C   0  0  0  0  0  0  0  0  0  0  0  0
    3.9715    3.9355    9.4010 C   0  0  0  0  0  0  0  0  0  0  0  0
    3.2213    2.9126   10.0206 C   0  0  0  0  0  0  0  0  0  0  0  0
  1  2  1  0
  2  3  2  0
  2  4  1  0
  4  5  1  0
  5  6  1  0
  6  7  1  0
  7  8  2  0
  8  9  1  0
  9 10  1  0
 10 11  2  0
 11 12  1  0
 12 13  2  0
 13 14  1  0
 14 15  2  0
 13 16  1  0
 16 17  1  0
  8 18  1  0
 18 19  2  0
 19 20  1  0
 20 21  2  0
 21 22  1  0
 22 23  2  0
 11  7  1  0
 15 10  1  0
 23 18  1  0
M  END
$$$$
