
     RDKit          3D

 23 25  0  0  0  0  0  0  0  0999 V2000
   -1.7116    0.0397   10.4832 C   0  0  0  0  0  0  0  0  0  0  0  0
   -0.3592   -0.5843   10.4134 C   0  0  0  0  0  0  0  0  0  0  0  0
   -0.1503   -1.6931    9.8669 O   0  0  0  0  0  0  0  0  0  0  0  0
    0.7814    0.0731   10.9819 N   0  0  0  0  0  0  0  0  0  0  0  0
    2.1238   -0.1861   10.4750 C   0  0  0  0  0  0  0  0  0  0  0  0
    2.3388    0.6223    9.2121 C   0  0  0  0  0  0  0  0  0  0  0  0
    3.0458    1.8833    9.4337 C   0  0  0  0  0  0  0  0  0  0  0  0
    2.5730    3.1615    9.3696 C   0  0  0  0  0  0  0  0  0  0  0  0
    3.6449    3.9532    9.6864 N   0  0  0  0  0  0  0  0  0  0  0  0
    4.7199    3.2306    9.9330 C   0  0  0  0  0  0  0  0  0  0  0  0
    4.4052    1.9160    9.7895 C   0  0  0  0  0  0  0  0  0  0  0  0
    5.3807    0.9774   10.0000 C   0  0  0  0  0  0  0  0  0  0  0  0
    6.6598    1.3737   10.3523 C   0  0  0  0  0  0  0  0  0  0  0  0
    6.9890    2.7106   10.5010 C   0  0  0  0  0  0  0  0  0  0  0  0
    6.0128    3.6370   10.2896 C   0  0  0  0  0  0  0  0  0  0  0  0
    7.6689    0.4432   10.5720 O   0  0  0  0  0  0  0  0  0  0  0  0
    8.9397    0.8102   11.0581 C   0  0  0  0  0  0  0  0  0  0  0  0
    1.2581    3.7055    9.0356 C   0  0  0  0  0  0  0  0  0  0  0  0
    0.1733    2.8440    8.8384 C   0  0  0  0  0  0  0  0  0  0  0  0
   -1.0862    3.3094    8.5229 C   0  0  0  0  0  0  0  0  0  0  0  0
   -1.3384    4.6540    8.3857 C   0  0  0  0  0  0  0  0  0  0  0  0
   -0.3052    5.5132    8.5711 C   0  0  0  0  0  0  0  0  0  0  0  0
    0.9785    5.0222    8.8938 C   0  0  0  0  0  0  0  0  0  0  0  0
  1  2  1  0
  2  3  2  0
  2  4  1  0
  4  5  1  0
  5  6  1  0
  6  7  1  0
  7  8  2  0
  8  9  1  0
  9 10  1  0
 10 11  2  0
 11 12  1  0
 12 13  2  0
 13 14  1  0
 14 15  2  0
 13 16  1  0
 16 17  1  0
  8 18  1  0
 18 19  2  0
 19 20  1  0
 20 21  2  0
 21 22  1  0
 22 23  2  0
 11  7  1  0
 15 10  1  0
 23 18  1  0
M  END
$$$$
