
     RDKit          3D

 23 25  0  0  0  0  0  0  0  0999 V2000
    0.0711   -2.2327   10.1777 C   0  0  0  0  0  0  0  0  0  0  0  0
    0.1238   -1.4826   11.4653 C   0  0  0  0  0  0  0  0  0  0  0  0
    0.2951   -2.0454   12.5724 O   0  0  0  0  0  0  0  0  0  0  0  0
   -0.0233   -0.0565   11.4893 N   0  0  0  0  0  0  0  0  0  0  0  0
    0.0822    0.6855   12.7400 C   0  0  0  0  0  0  0  0  0  0  0  0
    1.3200    1.5576   12.6934 C   0  0  0  0  0  0  0  0  0  0  0  0
    1.1982    2.7045   11.7941 C   0  0  0  0  0  0  0  0  0  0  0  0
    0.4467    3.8348   11.9326 C   0  0  0  0  0  0  0  0  0  0  0  0
    0.7232    4.5840   10.8198 N   0  0  0  0  0  0  0  0  0  0  0  0
    1.5866    3.9738   10.0319 C   0  0  0  0  0  0  0  0  0  0  0  0
    1.9239    2.7824   10.5928 C   0  0  0  0  0  0  0  0  0  0  0  0
    2.8167    1.9748    9.9391 C   0  0  0  0  0  0  0  0  0  0  0  0
    3.3586    2.3764    8.7299 C   0  0  0  0  0  0  0  0  0  0  0  0
    3.0208    3.5885    8.1514 C   0  0  0  0  0  0  0  0  0  0  0  0
    2.1322    4.3851    8.8084 C   0  0  0  0  0  0  0  0  0  0  0  0
    4.2666    1.5772    8.0449 O   0  0  0  0  0  0  0  0  0  0  0  0
    5.4105    1.0350    8.6642 C   0  0  0  0  0  0  0  0  0  0  0  0
   -0.4919    4.2683   12.9658 C   0  0  0  0  0  0  0  0  0  0  0  0
   -0.9180    3.3669   13.9477 C   0  0  0  0  0  0  0  0  0  0  0  0
   -1.8013    3.7289   14.9432 C   0  0  0  0  0  0  0  0  0  0  0  0
   -2.3102    5.0038   15.0194 C   0  0  0  0  0  0  0  0  0  0  0  0
   -1.9148    5.8994   14.0803 C   0  0  0  0  0  0  0  0  0  0  0  0
   -1.0100    5.5146   13.0673 C   0  0  0  0  0  0  0  0  0  0  0  0
  1  2  1  0
  2  3  2  0
  2  4  1  0
  4  5  1  0
  5  6  1  0
  6  7  1  0
  7  8  2  0
  8  9  1  0
  9 10  1  0
 10 11  2  0
 11 12  1  0
 12 13  2  0
 13 14  1  0
 14 15  2  0
 13 16  1  0
 16 17  1  0
  8 18  1  0
 18 19  2  0
 19 20  1  0
 20 21  2  0
 21 22  1  0
 22 23  2  0
 11  7  1  0
 15 10  1  0
 23 18  1  0
M  END
$$$$
