
     RDKit          3D

 23 25  0  0  0  0  0  0  0  0999 V2000
    2.0330    0.3223    7.0842 C   0  0  0  0  0  0  0  0  0  0  0  0
    2.5809    1.2096    8.1499 C   0  0  0  0  0  0  0  0  0  0  0  0
    3.8106    1.3588    8.3435 O   0  0  0  0  0  0  0  0  0  0  0  0
    1.7040    1.9432    9.0154 N   0  0  0  0  0  0  0  0  0  0  0  0
    2.2344    2.8853    9.9936 C   0  0  0  0  0  0  0  0  0  0  0  0
    2.6385    2.1262   11.2408 C   0  0  0  0  0  0  0  0  0  0  0  0
    1.5051    1.6475   12.0315 C   0  0  0  0  0  0  0  0  0  0  0  0
    0.5018    2.3591   12.6219 C   0  0  0  0  0  0  0  0  0  0  0  0
   -0.3016    1.4190   13.2109 N   0  0  0  0  0  0  0  0  0  0  0  0
    0.1583    0.1998   13.0099 C   0  0  0  0  0  0  0  0  0  0  0  0
    1.2971    0.2783   12.2718 C   0  0  0  0  0  0  0  0  0  0  0  0
    1.9505   -0.8797   11.9416 C   0  0  0  0  0  0  0  0  0  0  0  0
    1.4495   -2.1014   12.3582 C   0  0  0  0  0  0  0  0  0  0  0  0
    0.2900   -2.1907   13.1102 C   0  0  0  0  0  0  0  0  0  0  0  0
   -0.3531   -1.0341   13.4339 C   0  0  0  0  0  0  0  0  0  0  0  0
    2.0916   -3.2920   12.0378 O   0  0  0  0  0  0  0  0  0  0  0  0
    1.8195   -4.4999   12.7109 C   0  0  0  0  0  0  0  0  0  0  0  0
    0.2326    3.7935   12.7026 C   0  0  0  0  0  0  0  0  0  0  0  0
    0.8623    4.6752   11.8170 C   0  0  0  0  0  0  0  0  0  0  0  0
    0.6398    6.0359   11.8533 C   0  0  0  0  0  0  0  0  0  0  0  0
   -0.2187    6.5963   12.7693 C   0  0  0  0  0  0  0  0  0  0  0  0
   -0.8435    5.7655   13.6409 C   0  0  0  0  0  0  0  0  0  0  0  0
   -0.6060    4.3748   13.5919 C   0  0  0  0  0  0  0  0  0  0  0  0
  1  2  1  0
  2  3  2  0
  2  4  1  0
  4  5  1  0
  5  6  1  0
  6  7  1  0
  7  8  2  0
  8  9  1  0
  9 10  1  0
 10 11  2  0
 11 12  1  0
 12 13  2  0
 13 14  1  0
 14 15  2  0
 13 16  1  0
 16 17  1  0
  8 18  1  0
 18 19  2  0
 19 20  1  0
 20 21  2  0
 21 22  1  0
 22 23  2  0
 11  7  1  0
 15 10  1  0
 23 18  1  0
M  END
$$$$
