
     RDKit          3D

 23 25  0  0  0  0  0  0  0  0999 V2000
    2.1859   -3.9155   12.2688 C   0  0  0  0  0  0  0  0  0  0  0  0
    1.8589   -2.7197   11.4402 C   0  0  0  0  0  0  0  0  0  0  0  0
    1.2950   -2.8011   10.3235 O   0  0  0  0  0  0  0  0  0  0  0  0
    2.1841   -1.4001   11.8974 N   0  0  0  0  0  0  0  0  0  0  0  0
    1.9134   -0.2328   11.0668 C   0  0  0  0  0  0  0  0  0  0  0  0
    0.4448    0.1218   11.1779 C   0  0  0  0  0  0  0  0  0  0  0  0
    0.1814    1.2757   12.0371 C   0  0  0  0  0  0  0  0  0  0  0  0
    0.3393    2.6045   11.7711 C   0  0  0  0  0  0  0  0  0  0  0  0
   -0.0755    3.2462   12.9080 N   0  0  0  0  0  0  0  0  0  0  0  0
   -0.4674    2.3876   13.8287 C   0  0  0  0  0  0  0  0  0  0  0  0
   -0.3288    1.1273   13.3384 C   0  0  0  0  0  0  0  0  0  0  0  0
   -0.6799    0.0680   14.1329 C   0  0  0  0  0  0  0  0  0  0  0  0
   -1.1662    0.2905   15.4102 C   0  0  0  0  0  0  0  0  0  0  0  0
   -1.3109    1.5709   15.9176 C   0  0  0  0  0  0  0  0  0  0  0  0
   -0.9591    2.6183   15.1205 C   0  0  0  0  0  0  0  0  0  0  0  0
   -1.5301   -0.7653   16.2380 O   0  0  0  0  0  0  0  0  0  0  0  0
   -2.6497   -0.7024   17.0916 C   0  0  0  0  0  0  0  0  0  0  0  0
    0.8403    3.3174   10.5976 C   0  0  0  0  0  0  0  0  0  0  0  0
    1.2918    2.6015    9.4833 C   0  0  0  0  0  0  0  0  0  0  0  0
    1.7723    3.2289    8.3528 C   0  0  0  0  0  0  0  0  0  0  0  0
    1.8314    4.5997    8.2658 C   0  0  0  0  0  0  0  0  0  0  0  0
    1.4004    5.3200    9.3314 C   0  0  0  0  0  0  0  0  0  0  0  0
    0.9111    4.6641   10.4817 C   0  0  0  0  0  0  0  0  0  0  0  0
  1  2  1  0
  2  3  2  0
  2  4  1  0
  4  5  1  0
  5  6  1  0
  6  7  1  0
  7  8  2  0
  8  9  1  0
  9 10  1  0
 10 11  2  0
 11 12  1  0
 12 13  2  0
 13 14  1  0
 14 15  2  0
 13 16  1  0
 16 17  1  0
  8 18  1  0
 18 19  2  0
 19 20  1  0
 20 21  2  0
 21 22  1  0
 22 23  2  0
 11  7  1  0
 15 10  1  0
 23 18  1  0
M  END
$$$$
