
     RDKit          3D

 23 25  0  0  0  0  0  0  0  0999 V2000
    5.1221    4.0626    9.9592 C   0  0  0  0  0  0  0  0  0  0  0  0
    4.7345    2.6935    9.5135 C   0  0  0  0  0  0  0  0  0  0  0  0
    4.7908    2.3280    8.3156 O   0  0  0  0  0  0  0  0  0  0  0  0
    4.2711    1.7192   10.4580 N   0  0  0  0  0  0  0  0  0  0  0  0
    3.9430    0.3633   10.0339 C   0  0  0  0  0  0  0  0  0  0  0  0
    2.4778    0.3065    9.6531 C   0  0  0  0  0  0  0  0  0  0  0  0
    1.5685    0.4489   10.7896 C   0  0  0  0  0  0  0  0  0  0  0  0
    0.8697    1.5448   11.2047 C   0  0  0  0  0  0  0  0  0  0  0  0
    0.1604    1.1212   12.2973 N   0  0  0  0  0  0  0  0  0  0  0  0
    0.3924   -0.1505   12.5573 C   0  0  0  0  0  0  0  0  0  0  0  0
    1.2735   -0.6306   11.6402 C   0  0  0  0  0  0  0  0  0  0  0  0
    1.6598   -1.9424   11.7203 C   0  0  0  0  0  0  0  0  0  0  0  0
    1.1546   -2.7542   12.7218 C   0  0  0  0  0  0  0  0  0  0  0  0
    0.2565   -2.2736   13.6600 C   0  0  0  0  0  0  0  0  0  0  0  0
   -0.1221   -0.9678   13.5728 C   0  0  0  0  0  0  0  0  0  0  0  0
    1.5291   -4.0887   12.8269 O   0  0  0  0  0  0  0  0  0  0  0  0
    0.6688   -5.0739   13.3518 C   0  0  0  0  0  0  0  0  0  0  0  0
    0.8107    2.9175   10.7060 C   0  0  0  0  0  0  0  0  0  0  0  0
    1.4290    3.2499    9.4955 C   0  0  0  0  0  0  0  0  0  0  0  0
    1.3999    4.5303    8.9835 C   0  0  0  0  0  0  0  0  0  0  0  0
    0.7565    5.5504    9.6435 C   0  0  0  0  0  0  0  0  0  0  0  0
    0.1481    5.2574   10.8200 C   0  0  0  0  0  0  0  0  0  0  0  0
    0.1861    3.9423   11.3318 C   0  0  0  0  0  0  0  0  0  0  0  0
  1  2  1  0
  2  3  2  0
  2  4  1  0
  4  5  1  0
  5  6  1  0
  6  7  1  0
  7  8  2  0
  8  9  1  0
  9 10  1  0
 10 11  2  0
 11 12  1  0
 12 13  2  0
 13 14  1  0
 14 15  2  0
 13 16  1  0
 16 17  1  0
  8 18  1  0
 18 19  2  0
 19 20  1  0
 20 21  2  0
 21 22  1  0
 22 23  2  0
 11  7  1  0
 15 10  1  0
 23 18  1  0
M  END
$$$$
