
     RDKit          3D

 23 25  0  0  0  0  0  0  0  0999 V2000
    1.1451   -4.1026   12.3250 C   0  0  0  0  0  0  0  0  0  0  0  0
    0.6505   -2.7004   12.2128 C   0  0  0  0  0  0  0  0  0  0  0  0
   -0.3511   -2.2815   12.8397 O   0  0  0  0  0  0  0  0  0  0  0  0
    1.3148   -1.7547   11.3640 N   0  0  0  0  0  0  0  0  0  0  0  0
    0.7749   -0.4141   11.1714 C   0  0  0  0  0  0  0  0  0  0  0  0
    1.5487    0.5586   12.0375 C   0  0  0  0  0  0  0  0  0  0  0  0
    0.7804    1.7409   12.4256 C   0  0  0  0  0  0  0  0  0  0  0  0
    0.6390    2.9313   11.7740 C   0  0  0  0  0  0  0  0  0  0  0  0
   -0.2029    3.6701   12.5624 N   0  0  0  0  0  0  0  0  0  0  0  0
   -0.5689    2.9983   13.6363 C   0  0  0  0  0  0  0  0  0  0  0  0
    0.0194    1.7731   13.6069 C   0  0  0  0  0  0  0  0  0  0  0  0
   -0.2234    0.9000   14.6342 C   0  0  0  0  0  0  0  0  0  0  0  0
   -1.0551    1.2706   15.6774 C   0  0  0  0  0  0  0  0  0  0  0  0
   -1.6587    2.5165   15.7152 C   0  0  0  0  0  0  0  0  0  0  0  0
   -1.4115    3.3784   14.6896 C   0  0  0  0  0  0  0  0  0  0  0  0
   -1.3191    0.4050   16.7326 O   0  0  0  0  0  0  0  0  0  0  0  0
   -2.5682    0.3699   17.3842 C   0  0  0  0  0  0  0  0  0  0  0  0
    1.2087    3.4417   10.5285 C   0  0  0  0  0  0  0  0  0  0  0  0
    2.1382    2.6745    9.8175 C   0  0  0  0  0  0  0  0  0  0  0  0
    2.7025    3.1124    8.6376 C   0  0  0  0  0  0  0  0  0  0  0  0
    2.3762    4.3344    8.0987 C   0  0  0  0  0  0  0  0  0  0  0  0
    1.4775    5.1002    8.7665 C   0  0  0  0  0  0  0  0  0  0  0  0
    0.9080    4.6389    9.9731 C   0  0  0  0  0  0  0  0  0  0  0  0
  1  2  1  0
  2  3  2  0
  2  4  1  0
  4  5  1  0
  5  6  1  0
  6  7  1  0
  7  8  2  0
  8  9  1  0
  9 10  1  0
 10 11  2  0
 11 12  1  0
 12 13  2  0
 13 14  1  0
 14 15  2  0
 13 16  1  0
 16 17  1  0
  8 18  1  0
 18 19  2  0
 19 20  1  0
 20 21  2  0
 21 22  1  0
 22 23  2  0
 11  7  1  0
 15 10  1  0
 23 18  1  0
M  END
$$$$
