
     RDKit          3D

 23 25  0  0  0  0  0  0  0  0999 V2000
   -0.5580    1.1826    6.7210 C   0  0  0  0  0  0  0  0  0  0  0  0
    0.3917    0.2553    7.4002 C   0  0  0  0  0  0  0  0  0  0  0  0
    0.2325   -0.9882    7.4158 O   0  0  0  0  0  0  0  0  0  0  0  0
    1.5501    0.7599    8.0783 N   0  0  0  0  0  0  0  0  0  0  0  0
    2.6132   -0.1385    8.5126 C   0  0  0  0  0  0  0  0  0  0  0  0
    3.1945    0.3774    9.8129 C   0  0  0  0  0  0  0  0  0  0  0  0
    2.1898    0.6455   10.8414 C   0  0  0  0  0  0  0  0  0  0  0  0
    1.5806    1.8218   11.1679 C   0  0  0  0  0  0  0  0  0  0  0  0
    0.7133    1.5040   12.1794 N   0  0  0  0  0  0  0  0  0  0  0  0
    0.7683    0.2200   12.4740 C   0  0  0  0  0  0  0  0  0  0  0  0
    1.6825   -0.3757   11.6633 C   0  0  0  0  0  0  0  0  0  0  0  0
    1.9049   -1.7209   11.7964 C   0  0  0  0  0  0  0  0  0  0  0  0
    1.2044   -2.4492   12.7431 C   0  0  0  0  0  0  0  0  0  0  0  0
    0.2711   -1.8505   13.5728 C   0  0  0  0  0  0  0  0  0  0  0  0
    0.0565   -0.5124   13.4336 C   0  0  0  0  0  0  0  0  0  0  0  0
    1.4097   -3.8150   12.9000 O   0  0  0  0  0  0  0  0  0  0  0  0
    2.6276   -4.4380   12.5612 C   0  0  0  0  0  0  0  0  0  0  0  0
    1.7338    3.1816   10.6542 C   0  0  0  0  0  0  0  0  0  0  0  0
    0.8371    4.1827   11.0440 C   0  0  0  0  0  0  0  0  0  0  0  0
    0.9411    5.4800   10.5874 C   0  0  0  0  0  0  0  0  0  0  0  0
    1.9393    5.8552    9.7196 C   0  0  0  0  0  0  0  0  0  0  0  0
    2.8233    4.9054    9.3242 C   0  0  0  0  0  0  0  0  0  0  0  0
    2.7046    3.5815    9.8000 C   0  0  0  0  0  0  0  0  0  0  0  0
  1  2  1  0
  2  3  2  0
  2  4  1  0
  4  5  1  0
  5  6  1  0
  6  7  1  0
  7  8  2  0
  8  9  1  0
  9 10  1  0
 10 11  2  0
 11 12  1  0
 12 13  2  0
 13 14  1  0
 14 15  2  0
 13 16  1  0
 16 17  1  0
  8 18  1  0
 18 19  2  0
 19 20  1  0
 20 21  2  0
 21 22  1  0
 22 23  2  0
 11  7  1  0
 15 10  1  0
 23 18  1  0
M  END
$$$$
