
     RDKit          3D

 23 25  0  0  0  0  0  0  0  0999 V2000
    0.2197    4.2008    7.8778 C   0  0  0  0  0  0  0  0  0  0  0  0
   -0.1916    3.0907    8.7843 C   0  0  0  0  0  0  0  0  0  0  0  0
   -1.1018    2.2789    8.4939 O   0  0  0  0  0  0  0  0  0  0  0  0
    0.4510    2.9038   10.0525 N   0  0  0  0  0  0  0  0  0  0  0  0
   -0.2067    2.1628   11.1223 C   0  0  0  0  0  0  0  0  0  0  0  0
    0.8349    1.7243   12.1311 C   0  0  0  0  0  0  0  0  0  0  0  0
    1.6966    0.6428   11.6549 C   0  0  0  0  0  0  0  0  0  0  0  0
    2.9012    0.7149   11.0183 C   0  0  0  0  0  0  0  0  0  0  0  0
    3.2782   -0.5874   10.8226 N   0  0  0  0  0  0  0  0  0  0  0  0
    2.3785   -1.4250   11.2994 C   0  0  0  0  0  0  0  0  0  0  0  0
    1.3561   -0.7087   11.8374 C   0  0  0  0  0  0  0  0  0  0  0  0
    0.3013   -1.3815   12.3956 C   0  0  0  0  0  0  0  0  0  0  0  0
    0.2891   -2.7660   12.4055 C   0  0  0  0  0  0  0  0  0  0  0  0
    1.3264   -3.5037   11.8599 C   0  0  0  0  0  0  0  0  0  0  0  0
    2.3711   -2.8264   11.3069 C   0  0  0  0  0  0  0  0  0  0  0  0
   -0.7680   -3.4745   12.9650 O   0  0  0  0  0  0  0  0  0  0  0  0
   -0.5812   -4.6940   13.6462 C   0  0  0  0  0  0  0  0  0  0  0  0
    3.7085    1.8485   10.5717 C   0  0  0  0  0  0  0  0  0  0  0  0
    3.3483    3.1510   10.9349 C   0  0  0  0  0  0  0  0  0  0  0  0
    4.0785    4.2522   10.5390 C   0  0  0  0  0  0  0  0  0  0  0  0
    5.2050    4.1220    9.7617 C   0  0  0  0  0  0  0  0  0  0  0  0
    5.5782    2.8707    9.3940 C   0  0  0  0  0  0  0  0  0  0  0  0
    4.8211    1.7529    9.8068 C   0  0  0  0  0  0  0  0  0  0  0  0
  1  2  1  0
  2  3  2  0
  2  4  1  0
  4  5  1  0
  5  6  1  0
  6  7  1  0
  7  8  2  0
  8  9  1  0
  9 10  1  0
 10 11  2  0
 11 12  1  0
 12 13  2  0
 13 14  1  0
 14 15  2  0
 13 16  1  0
 16 17  1  0
  8 18  1  0
 18 19  2  0
 19 20  1  0
 20 21  2  0
 21 22  1  0
 22 23  2  0
 11  7  1  0
 15 10  1  0
 23 18  1  0
M  END
$$$$
