
     RDKit          3D

 23 25  0  0  0  0  0  0  0  0999 V2000
   -0.6629    2.2464   16.1746 C   0  0  0  0  0  0  0  0  0  0  0  0
    0.4034    1.9917   15.1638 C   0  0  0  0  0  0  0  0  0  0  0  0
    1.4340    2.6994   15.0710 O   0  0  0  0  0  0  0  0  0  0  0  0
    0.2896    0.9036   14.2369 N   0  0  0  0  0  0  0  0  0  0  0  0
    1.2945    0.6950   13.2012 C   0  0  0  0  0  0  0  0  0  0  0  0
    0.6833    1.0078   11.8508 C   0  0  0  0  0  0  0  0  0  0  0  0
    1.1559    2.2629   11.2674 C   0  0  0  0  0  0  0  0  0  0  0  0
    0.6401    3.5201   11.3892 C   0  0  0  0  0  0  0  0  0  0  0  0
    1.4808    4.3210   10.6625 N   0  0  0  0  0  0  0  0  0  0  0  0
    2.4584    3.6232   10.1186 C   0  0  0  0  0  0  0  0  0  0  0  0
    2.3079    2.3171   10.4639 C   0  0  0  0  0  0  0  0  0  0  0  0
    3.2201    1.4040   10.0048 C   0  0  0  0  0  0  0  0  0  0  0  0
    4.2719    1.8168    9.2045 C   0  0  0  0  0  0  0  0  0  0  0  0
    4.4331    3.1453    8.8480 C   0  0  0  0  0  0  0  0  0  0  0  0
    3.5212    4.0464    9.3090 C   0  0  0  0  0  0  0  0  0  0  0  0
    5.2120    0.9123    8.7245 O   0  0  0  0  0  0  0  0  0  0  0  0
    6.5146    1.3036    8.3554 C   0  0  0  0  0  0  0  0  0  0  0  0
   -0.5377    4.0341   12.0855 C   0  0  0  0  0  0  0  0  0  0  0  0
   -1.4176    3.1501   12.7197 C   0  0  0  0  0  0  0  0  0  0  0  0
   -2.5412    3.5869   13.3900 C   0  0  0  0  0  0  0  0  0  0  0  0
   -2.8534    4.9236   13.4677 C   0  0  0  0  0  0  0  0  0  0  0  0
   -2.0182    5.8042   12.8618 C   0  0  0  0  0  0  0  0  0  0  0  0
   -0.8718    5.3424   12.1795 C   0  0  0  0  0  0  0  0  0  0  0  0
  1  2  1  0
  2  3  2  0
  2  4  1  0
  4  5  1  0
  5  6  1  0
  6  7  1  0
  7  8  2  0
  8  9  1  0
  9 10  1  0
 10 11  2  0
 11 12  1  0
 12 13  2  0
 13 14  1  0
 14 15  2  0
 13 16  1  0
 16 17  1  0
  8 18  1  0
 18 19  2  0
 19 20  1  0
 20 21  2  0
 21 22  1  0
 22 23  2  0
 11  7  1  0
 15 10  1  0
 23 18  1  0
M  END
$$$$
