
     RDKit          3D

 23 25  0  0  0  0  0  0  0  0999 V2000
    2.4754   -2.2504   13.3008 C   0  0  0  0  0  0  0  0  0  0  0  0
    1.8399   -1.4797   12.1937 C   0  0  0  0  0  0  0  0  0  0  0  0
    1.0268   -1.9925   11.3889 O   0  0  0  0  0  0  0  0  0  0  0  0
    2.1407   -0.0910   12.0008 N   0  0  0  0  0  0  0  0  0  0  0  0
    1.4855    0.6771   10.9488 C   0  0  0  0  0  0  0  0  0  0  0  0
    0.0874    1.0429   11.4031 C   0  0  0  0  0  0  0  0  0  0  0  0
    0.0287    2.2697   12.1972 C   0  0  0  0  0  0  0  0  0  0  0  0
    0.3508    3.5463   11.8396 C   0  0  0  0  0  0  0  0  0  0  0  0
    0.0878    4.3036   12.9502 N   0  0  0  0  0  0  0  0  0  0  0  0
   -0.3674    3.5619   13.9408 C   0  0  0  0  0  0  0  0  0  0  0  0
   -0.4270    2.2685   13.5269 C   0  0  0  0  0  0  0  0  0  0  0  0
   -0.8757    1.3156   14.4028 C   0  0  0  0  0  0  0  0  0  0  0  0
   -1.2588    1.6763   15.6835 C   0  0  0  0  0  0  0  0  0  0  0  0
   -1.2016    2.9915   16.1135 C   0  0  0  0  0  0  0  0  0  0  0  0
   -0.7540    3.9325   15.2359 C   0  0  0  0  0  0  0  0  0  0  0  0
   -1.7179    0.7306   16.5930 O   0  0  0  0  0  0  0  0  0  0  0  0
   -1.5314    0.8688   17.9830 C   0  0  0  0  0  0  0  0  0  0  0  0
    0.8808    4.1142   10.6014 C   0  0  0  0  0  0  0  0  0  0  0  0
    0.5815    5.4360   10.2528 C   0  0  0  0  0  0  0  0  0  0  0  0
    1.0586    6.0163    9.0961 C   0  0  0  0  0  0  0  0  0  0  0  0
    1.8580    5.3179    8.2223 C   0  0  0  0  0  0  0  0  0  0  0  0
    2.1647    4.0339    8.5344 C   0  0  0  0  0  0  0  0  0  0  0  0
    1.6692    3.4532    9.7219 C   0  0  0  0  0  0  0  0  0  0  0  0
  1  2  1  0
  2  3  2  0
  2  4  1  0
  4  5  1  0
  5  6  1  0
  6  7  1  0
  7  8  2  0
  8  9  1  0
  9 10  1  0
 10 11  2  0
 11 12  1  0
 12 13  2  0
 13 14  1  0
 14 15  2  0
 13 16  1  0
 16 17  1  0
  8 18  1  0
 18 19  2  0
 19 20  1  0
 20 21  2  0
 21 22  1  0
 22 23  2  0
 11  7  1  0
 15 10  1  0
 23 18  1  0
M  END
$$$$
