
     RDKit          3D

 23 25  0  0  0  0  0  0  0  0999 V2000
    1.1401   -1.5054   12.7487 C   0  0  0  0  0  0  0  0  0  0  0  0
    1.0509   -1.0768   11.3233 C   0  0  0  0  0  0  0  0  0  0  0  0
    1.3026   -1.8462   10.3660 O   0  0  0  0  0  0  0  0  0  0  0  0
    0.6661    0.2620   10.9833 N   0  0  0  0  0  0  0  0  0  0  0  0
    0.4278    0.6423    9.5960 C   0  0  0  0  0  0  0  0  0  0  0  0
    1.7602    0.8157    8.8962 C   0  0  0  0  0  0  0  0  0  0  0  0
    2.5079    1.9925    9.3375 C   0  0  0  0  0  0  0  0  0  0  0  0
    2.1270    3.3026    9.3517 C   0  0  0  0  0  0  0  0  0  0  0  0
    3.1944    3.9773    9.8824 N   0  0  0  0  0  0  0  0  0  0  0  0
    4.1811    3.1559   10.1825 C   0  0  0  0  0  0  0  0  0  0  0  0
    3.8081    1.8888    9.8615 C   0  0  0  0  0  0  0  0  0  0  0  0
    4.6878    0.8640   10.0906 C   0  0  0  0  0  0  0  0  0  0  0  0
    5.9313    1.1273   10.6399 C   0  0  0  0  0  0  0  0  0  0  0  0
    6.3195    2.4150   10.9703 C   0  0  0  0  0  0  0  0  0  0  0  0
    5.4383    3.4279   10.7388 C   0  0  0  0  0  0  0  0  0  0  0  0
    6.8436    0.1071   10.8832 O   0  0  0  0  0  0  0  0  0  0  0  0
    6.5231   -1.2520   10.6928 C   0  0  0  0  0  0  0  0  0  0  0  0
    0.9034    3.9733    8.9164 C   0  0  0  0  0  0  0  0  0  0  0  0
    0.9666    5.2596    8.3691 C   0  0  0  0  0  0  0  0  0  0  0  0
   -0.1595    5.9325    7.9432 C   0  0  0  0  0  0  0  0  0  0  0  0
   -1.4092    5.3670    8.0370 C   0  0  0  0  0  0  0  0  0  0  0  0
   -1.5011    4.1204    8.5639 C   0  0  0  0  0  0  0  0  0  0  0  0
   -0.3397    3.4437    8.9955 C   0  0  0  0  0  0  0  0  0  0  0  0
  1  2  1  0
  2  3  2  0
  2  4  1  0
  4  5  1  0
  5  6  1  0
  6  7  1  0
  7  8  2  0
  8  9  1  0
  9 10  1  0
 10 11  2  0
 11 12  1  0
 12 13  2  0
 13 14  1  0
 14 15  2  0
 13 16  1  0
 16 17  1  0
  8 18  1  0
 18 19  2  0
 19 20  1  0
 20 21  2  0
 21 22  1  0
 22 23  2  0
 11  7  1  0
 15 10  1  0
 23 18  1  0
M  END
$$$$
