
     RDKit          3D

 23 25  0  0  0  0  0  0  0  0999 V2000
    6.0063    1.6237   10.5295 C   0  0  0  0  0  0  0  0  0  0  0  0
    4.6433    2.0364   10.0877 C   0  0  0  0  0  0  0  0  0  0  0  0
    4.3375    3.2296    9.8540 O   0  0  0  0  0  0  0  0  0  0  0  0
    3.6049    1.0637    9.9093 N   0  0  0  0  0  0  0  0  0  0  0  0
    2.4414    1.3551    9.0802 C   0  0  0  0  0  0  0  0  0  0  0  0
    1.2596    0.5565    9.5905 C   0  0  0  0  0  0  0  0  0  0  0  0
    0.9099    0.8461   10.9807 C   0  0  0  0  0  0  0  0  0  0  0  0
    0.5943    2.0398   11.5614 C   0  0  0  0  0  0  0  0  0  0  0  0
    0.3300    1.7389   12.8713 N   0  0  0  0  0  0  0  0  0  0  0  0
    0.4683    0.4487   13.1054 C   0  0  0  0  0  0  0  0  0  0  0  0
    0.8334   -0.1684   11.9505 C   0  0  0  0  0  0  0  0  0  0  0  0
    1.0341   -1.5236   11.9616 C   0  0  0  0  0  0  0  0  0  0  0  0
    0.8645   -2.2401   13.1343 C   0  0  0  0  0  0  0  0  0  0  0  0
    0.4925   -1.6195   14.3152 C   0  0  0  0  0  0  0  0  0  0  0  0
    0.2952   -0.2717   14.2949 C   0  0  0  0  0  0  0  0  0  0  0  0
    1.0613   -3.6155   13.1746 O   0  0  0  0  0  0  0  0  0  0  0  0
    1.3026   -4.3768   12.0134 C   0  0  0  0  0  0  0  0  0  0  0  0
    0.5313    3.4013   11.0334 C   0  0  0  0  0  0  0  0  0  0  0  0
    0.1651    4.4609   11.8708 C   0  0  0  0  0  0  0  0  0  0  0  0
    0.0924    5.7622   11.4194 C   0  0  0  0  0  0  0  0  0  0  0  0
    0.3785    6.0836   10.1136 C   0  0  0  0  0  0  0  0  0  0  0  0
    0.7364    5.0763    9.2785 C   0  0  0  0  0  0  0  0  0  0  0  0
    0.8066    3.7491    9.7546 C   0  0  0  0  0  0  0  0  0  0  0  0
  1  2  1  0
  2  3  2  0
  2  4  1  0
  4  5  1  0
  5  6  1  0
  6  7  1  0
  7  8  2  0
  8  9  1  0
  9 10  1  0
 10 11  2  0
 11 12  1  0
 12 13  2  0
 13 14  1  0
 14 15  2  0
 13 16  1  0
 16 17  1  0
  8 18  1  0
 18 19  2  0
 19 20  1  0
 20 21  2  0
 21 22  1  0
 22 23  2  0
 11  7  1  0
 15 10  1  0
 23 18  1  0
M  END
$$$$
