
     RDKit          3D

 23 25  0  0  0  0  0  0  0  0999 V2000
    4.4768    2.8382    7.9876 C   0  0  0  0  0  0  0  0  0  0  0  0
    4.6518    2.2773    9.3580 C   0  0  0  0  0  0  0  0  0  0  0  0
    5.0963    2.9525   10.3164 O   0  0  0  0  0  0  0  0  0  0  0  0
    4.3121    0.9132    9.6405 N   0  0  0  0  0  0  0  0  0  0  0  0
    4.3004    0.4135   11.0102 C   0  0  0  0  0  0  0  0  0  0  0  0
    3.0729    0.9472   11.7196 C   0  0  0  0  0  0  0  0  0  0  0  0
    1.8115    0.4992   11.1305 C   0  0  0  0  0  0  0  0  0  0  0  0
    0.8869    1.2118   10.4241 C   0  0  0  0  0  0  0  0  0  0  0  0
   -0.0830    0.3037   10.0911 N   0  0  0  0  0  0  0  0  0  0  0  0
    0.2044   -0.8974   10.5528 C   0  0  0  0  0  0  0  0  0  0  0  0
    1.3883   -0.8383   11.2182 C   0  0  0  0  0  0  0  0  0  0  0  0
    1.8841   -1.9824   11.7855 C   0  0  0  0  0  0  0  0  0  0  0  0
    1.1825   -3.1711   11.6759 C   0  0  0  0  0  0  0  0  0  0  0  0
   -0.0241   -3.2405   10.9997 C   0  0  0  0  0  0  0  0  0  0  0  0
   -0.5096   -2.0979   10.4388 C   0  0  0  0  0  0  0  0  0  0  0  0
    1.6618   -4.3469   12.2415 O   0  0  0  0  0  0  0  0  0  0  0  0
    0.8055   -5.3258   12.7843 C   0  0  0  0  0  0  0  0  0  0  0  0
    0.8118    2.6231   10.0512 C   0  0  0  0  0  0  0  0  0  0  0  0
   -0.2993    3.1038    9.3493 C   0  0  0  0  0  0  0  0  0  0  0  0
   -0.4162    4.4265    8.9764 C   0  0  0  0  0  0  0  0  0  0  0  0
    0.5618    5.3443    9.2788 C   0  0  0  0  0  0  0  0  0  0  0  0
    1.6510    4.9066    9.9587 C   0  0  0  0  0  0  0  0  0  0  0  0
    1.7569    3.5498   10.3340 C   0  0  0  0  0  0  0  0  0  0  0  0
  1  2  1  0
  2  3  2  0
  2  4  1  0
  4  5  1  0
  5  6  1  0
  6  7  1  0
  7  8  2  0
  8  9  1  0
  9 10  1  0
 10 11  2  0
 11 12  1  0
 12 13  2  0
 13 14  1  0
 14 15  2  0
 13 16  1  0
 16 17  1  0
  8 18  1  0
 18 19  2  0
 19 20  1  0
 20 21  2  0
 21 22  1  0
 22 23  2  0
 11  7  1  0
 15 10  1  0
 23 18  1  0
M  END
$$$$
