
     RDKit          3D

 23 25  0  0  0  0  0  0  0  0999 V2000
    0.5025   -3.8900   12.8413 C   0  0  0  0  0  0  0  0  0  0  0  0
    0.9341   -2.6297   12.1715 C   0  0  0  0  0  0  0  0  0  0  0  0
    2.0194   -2.5271   11.5522 O   0  0  0  0  0  0  0  0  0  0  0  0
    0.1073   -1.4588   12.2104 N   0  0  0  0  0  0  0  0  0  0  0  0
    0.4281   -0.2893   11.4009 C   0  0  0  0  0  0  0  0  0  0  0  0
    1.2561    0.6717   12.2291 C   0  0  0  0  0  0  0  0  0  0  0  0
    0.5667    1.9228   12.5430 C   0  0  0  0  0  0  0  0  0  0  0  0
    0.5553    3.0995   11.8526 C   0  0  0  0  0  0  0  0  0  0  0  0
   -0.2636    3.9271   12.5742 N   0  0  0  0  0  0  0  0  0  0  0  0
   -0.7369    3.3204   13.6449 C   0  0  0  0  0  0  0  0  0  0  0  0
   -0.2486    2.0523   13.6807 C   0  0  0  0  0  0  0  0  0  0  0  0
   -0.6133    1.2339   14.7170 C   0  0  0  0  0  0  0  0  0  0  0  0
   -1.4646    1.7019   15.7036 C   0  0  0  0  0  0  0  0  0  0  0  0
   -1.9670    2.9921   15.6750 C   0  0  0  0  0  0  0  0  0  0  0  0
   -1.5990    3.7990   14.6408 C   0  0  0  0  0  0  0  0  0  0  0  0
   -1.8512    0.8936   16.7664 O   0  0  0  0  0  0  0  0  0  0  0  0
   -1.4389    1.1418   18.0910 C   0  0  0  0  0  0  0  0  0  0  0  0
    1.2273    3.5237   10.6258 C   0  0  0  0  0  0  0  0  0  0  0  0
    2.2344    2.7283   10.0681 C   0  0  0  0  0  0  0  0  0  0  0  0
    2.8964    3.0854    8.9119 C   0  0  0  0  0  0  0  0  0  0  0  0
    2.5961    4.2502    8.2462 C   0  0  0  0  0  0  0  0  0  0  0  0
    1.6237    5.0417    8.7641 C   0  0  0  0  0  0  0  0  0  0  0  0
    0.9546    4.6632    9.9481 C   0  0  0  0  0  0  0  0  0  0  0  0
  1  2  1  0
  2  3  2  0
  2  4  1  0
  4  5  1  0
  5  6  1  0
  6  7  1  0
  7  8  2  0
  8  9  1  0
  9 10  1  0
 10 11  2  0
 11 12  1  0
 12 13  2  0
 13 14  1  0
 14 15  2  0
 13 16  1  0
 16 17  1  0
  8 18  1  0
 18 19  2  0
 19 20  1  0
 20 21  2  0
 21 22  1  0
 22 23  2  0
 11  7  1  0
 15 10  1  0
 23 18  1  0
M  END
$$$$
