
     RDKit          3D

 23 25  0  0  0  0  0  0  0  0999 V2000
    2.9661   -3.4345   12.2628 C   0  0  0  0  0  0  0  0  0  0  0  0
    2.7952   -2.4168   11.1865 C   0  0  0  0  0  0  0  0  0  0  0  0
    2.3459   -2.6989   10.0505 O   0  0  0  0  0  0  0  0  0  0  0  0
    3.1463   -1.0450   11.4124 N   0  0  0  0  0  0  0  0  0  0  0  0
    2.9270   -0.0373   10.3818 C   0  0  0  0  0  0  0  0  0  0  0  0
    1.4434    0.2523   10.2827 C   0  0  0  0  0  0  0  0  0  0  0  0
    0.9586    1.1928   11.2923 C   0  0  0  0  0  0  0  0  0  0  0  0
    0.8926    2.5547   11.2431 C   0  0  0  0  0  0  0  0  0  0  0  0
    0.3389    2.9271   12.4393 N   0  0  0  0  0  0  0  0  0  0  0  0
    0.0733    1.8785   13.1931 C   0  0  0  0  0  0  0  0  0  0  0  0
    0.4424    0.7543   12.5239 C   0  0  0  0  0  0  0  0  0  0  0  0
    0.2554   -0.4625   13.1249 C   0  0  0  0  0  0  0  0  0  0  0  0
   -0.3005   -0.5324   14.3911 C   0  0  0  0  0  0  0  0  0  0  0  0
   -0.6796    0.6076   15.0799 C   0  0  0  0  0  0  0  0  0  0  0  0
   -0.4900    1.8133   14.4747 C   0  0  0  0  0  0  0  0  0  0  0  0
   -0.5017   -1.7532   15.0247 O   0  0  0  0  0  0  0  0  0  0  0  0
   -1.5131   -1.9453   15.9871 C   0  0  0  0  0  0  0  0  0  0  0  0
    1.2985    3.5204   10.2237 C   0  0  0  0  0  0  0  0  0  0  0  0
    0.7399    4.8033   10.2124 C   0  0  0  0  0  0  0  0  0  0  0  0
    1.0915    5.7490    9.2720 C   0  0  0  0  0  0  0  0  0  0  0  0
    2.0156    5.4742    8.2918 C   0  0  0  0  0  0  0  0  0  0  0  0
    2.5738    4.2380    8.2779 C   0  0  0  0  0  0  0  0  0  0  0  0
    2.2043    3.2802    9.2470 C   0  0  0  0  0  0  0  0  0  0  0  0
  1  2  1  0
  2  3  2  0
  2  4  1  0
  4  5  1  0
  5  6  1  0
  6  7  1  0
  7  8  2  0
  8  9  1  0
  9 10  1  0
 10 11  2  0
 11 12  1  0
 12 13  2  0
 13 14  1  0
 14 15  2  0
 13 16  1  0
 16 17  1  0
  8 18  1  0
 18 19  2  0
 19 20  1  0
 20 21  2  0
 21 22  1  0
 22 23  2  0
 11  7  1  0
 15 10  1  0
 23 18  1  0
M  END
$$$$
