
     RDKit          3D

 23 25  0  0  0  0  0  0  0  0999 V2000
    0.4752    0.7414    6.9333 C   0  0  0  0  0  0  0  0  0  0  0  0
    0.3312    0.4779    8.3938 C   0  0  0  0  0  0  0  0  0  0  0  0
   -0.7581    0.6021    9.0020 O   0  0  0  0  0  0  0  0  0  0  0  0
    1.4577    0.0638    9.1784 N   0  0  0  0  0  0  0  0  0  0  0  0
    1.3195   -0.1971   10.6063 C   0  0  0  0  0  0  0  0  0  0  0  0
    1.7364    1.0390   11.3763 C   0  0  0  0  0  0  0  0  0  0  0  0
    2.6228    1.9284   10.6263 C   0  0  0  0  0  0  0  0  0  0  0  0
    2.3236    3.0712    9.9436 C   0  0  0  0  0  0  0  0  0  0  0  0
    3.5223    3.5150    9.4512 N   0  0  0  0  0  0  0  0  0  0  0  0
    4.5101    2.7124    9.7955 C   0  0  0  0  0  0  0  0  0  0  0  0
    4.0055    1.6919   10.5383 C   0  0  0  0  0  0  0  0  0  0  0  0
    4.8619    0.7309   11.0071 C   0  0  0  0  0  0  0  0  0  0  0  0
    6.2148    0.8093   10.7227 C   0  0  0  0  0  0  0  0  0  0  0  0
    6.7374    1.8455    9.9670 C   0  0  0  0  0  0  0  0  0  0  0  0
    5.8784    2.7966    9.5049 C   0  0  0  0  0  0  0  0  0  0  0  0
    7.1065   -0.1515   11.1853 O   0  0  0  0  0  0  0  0  0  0  0  0
    8.3214    0.1880   11.8136 C   0  0  0  0  0  0  0  0  0  0  0  0
    1.0609    3.7650    9.6976 C   0  0  0  0  0  0  0  0  0  0  0  0
    1.0656    5.0979    9.2717 C   0  0  0  0  0  0  0  0  0  0  0  0
   -0.0993    5.7942    9.0257 C   0  0  0  0  0  0  0  0  0  0  0  0
   -1.3318    5.2072    9.1887 C   0  0  0  0  0  0  0  0  0  0  0  0
   -1.3672    3.9154    9.6011 C   0  0  0  0  0  0  0  0  0  0  0  0
   -0.1667    3.2151    9.8489 C   0  0  0  0  0  0  0  0  0  0  0  0
  1  2  1  0
  2  3  2  0
  2  4  1  0
  4  5  1  0
  5  6  1  0
  6  7  1  0
  7  8  2  0
  8  9  1  0
  9 10  1  0
 10 11  2  0
 11 12  1  0
 12 13  2  0
 13 14  1  0
 14 15  2  0
 13 16  1  0
 16 17  1  0
  8 18  1  0
 18 19  2  0
 19 20  1  0
 20 21  2  0
 21 22  1  0
 22 23  2  0
 11  7  1  0
 15 10  1  0
 23 18  1  0
M  END
$$$$
