
     RDKit          3D

 23 25  0  0  0  0  0  0  0  0999 V2000
   -0.8679   -2.0142    8.7784 C   0  0  0  0  0  0  0  0  0  0  0  0
   -0.2491   -0.6738    8.5693 C   0  0  0  0  0  0  0  0  0  0  0  0
   -0.8515    0.2721    8.0087 O   0  0  0  0  0  0  0  0  0  0  0  0
    1.0892   -0.4076    9.0100 N   0  0  0  0  0  0  0  0  0  0  0  0
    1.7846    0.8062    8.5988 C   0  0  0  0  0  0  0  0  0  0  0  0
    2.6437    1.2954    9.7466 C   0  0  0  0  0  0  0  0  0  0  0  0
    1.8788    1.6756   10.9337 C   0  0  0  0  0  0  0  0  0  0  0  0
    1.5845    0.9392   12.0440 C   0  0  0  0  0  0  0  0  0  0  0  0
    0.8682    1.7833   12.8507 N   0  0  0  0  0  0  0  0  0  0  0  0
    0.7180    2.9687   12.2931 C   0  0  0  0  0  0  0  0  0  0  0  0
    1.3340    2.9629   11.0813 C   0  0  0  0  0  0  0  0  0  0  0  0
    1.3037    4.1017   10.3204 C   0  0  0  0  0  0  0  0  0  0  0  0
    0.6544    5.2315   10.7888 C   0  0  0  0  0  0  0  0  0  0  0  0
    0.0246    5.2463   12.0221 C   0  0  0  0  0  0  0  0  0  0  0  0
    0.0597    4.1094   12.7718 C   0  0  0  0  0  0  0  0  0  0  0  0
    0.6080    6.4006   10.0382 O   0  0  0  0  0  0  0  0  0  0  0  0
    1.4315    7.5094   10.3184 C   0  0  0  0  0  0  0  0  0  0  0  0
    1.8839   -0.4433   12.4120 C   0  0  0  0  0  0  0  0  0  0  0  0
    1.2210   -1.0403   13.4901 C   0  0  0  0  0  0  0  0  0  0  0  0
    1.4684   -2.3415   13.8747 C   0  0  0  0  0  0  0  0  0  0  0  0
    2.3862   -3.1214   13.2117 C   0  0  0  0  0  0  0  0  0  0  0  0
    3.0445   -2.5688   12.1621 C   0  0  0  0  0  0  0  0  0  0  0  0
    2.7808   -1.2357   11.7798 C   0  0  0  0  0  0  0  0  0  0  0  0
  1  2  1  0
  2  3  2  0
  2  4  1  0
  4  5  1  0
  5  6  1  0
  6  7  1  0
  7  8  2  0
  8  9  1  0
  9 10  1  0
 10 11  2  0
 11 12  1  0
 12 13  2  0
 13 14  1  0
 14 15  2  0
 13 16  1  0
 16 17  1  0
  8 18  1  0
 18 19  2  0
 19 20  1  0
 20 21  2  0
 21 22  1  0
 22 23  2  0
 11  7  1  0
 15 10  1  0
 23 18  1  0
M  END
$$$$
