
     RDKit          3D

 23 25  0  0  0  0  0  0  0  0999 V2000
    0.8566   -2.7358    9.9112 C   0  0  0  0  0  0  0  0  0  0  0  0
    0.1132   -1.7584   10.7569 C   0  0  0  0  0  0  0  0  0  0  0  0
   -0.9386   -2.0543   11.3716 O   0  0  0  0  0  0  0  0  0  0  0  0
    0.5816   -0.4110   10.9035 N   0  0  0  0  0  0  0  0  0  0  0  0
    0.4681    0.2857   12.1793 C   0  0  0  0  0  0  0  0  0  0  0  0
    1.6523    1.2168   12.3399 C   0  0  0  0  0  0  0  0  0  0  0  0
    1.6892    2.2972   11.3549 C   0  0  0  0  0  0  0  0  0  0  0  0
    2.5349    2.4749   10.2991 C   0  0  0  0  0  0  0  0  0  0  0  0
    2.1126    3.6300    9.6960 N   0  0  0  0  0  0  0  0  0  0  0  0
    1.0752    4.1482   10.3234 C   0  0  0  0  0  0  0  0  0  0  0  0
    0.7608    3.3522   11.3796 C   0  0  0  0  0  0  0  0  0  0  0  0
   -0.2952    3.7030   12.1787 C   0  0  0  0  0  0  0  0  0  0  0  0
   -1.0212    4.8498   11.9047 C   0  0  0  0  0  0  0  0  0  0  0  0
   -0.7081    5.6663   10.8308 C   0  0  0  0  0  0  0  0  0  0  0  0
    0.3436    5.3098   10.0416 C   0  0  0  0  0  0  0  0  0  0  0  0
   -2.0972    5.2298   12.6985 O   0  0  0  0  0  0  0  0  0  0  0  0
   -2.3238    6.5704   13.0695 C   0  0  0  0  0  0  0  0  0  0  0  0
    3.6786    1.7026    9.8174 C   0  0  0  0  0  0  0  0  0  0  0  0
    4.4429    2.1774    8.7457 C   0  0  0  0  0  0  0  0  0  0  0  0
    5.5312    1.4855    8.2566 C   0  0  0  0  0  0  0  0  0  0  0  0
    5.9207    0.2855    8.8031 C   0  0  0  0  0  0  0  0  0  0  0  0
    5.1980   -0.1995    9.8436 C   0  0  0  0  0  0  0  0  0  0  0  0
    4.0866    0.5198   10.3337 C   0  0  0  0  0  0  0  0  0  0  0  0
  1  2  1  0
  2  3  2  0
  2  4  1  0
  4  5  1  0
  5  6  1  0
  6  7  1  0
  7  8  2  0
  8  9  1  0
  9 10  1  0
 10 11  2  0
 11 12  1  0
 12 13  2  0
 13 14  1  0
 14 15  2  0
 13 16  1  0
 16 17  1  0
  8 18  1  0
 18 19  2  0
 19 20  1  0
 20 21  2  0
 21 22  1  0
 22 23  2  0
 11  7  1  0
 15 10  1  0
 23 18  1  0
M  END
$$$$
