
     RDKit          3D

 23 25  0  0  0  0  0  0  0  0999 V2000
    2.2214   -2.9832   11.5657 C   0  0  0  0  0  0  0  0  0  0  0  0
    1.4778   -1.7033   11.7447 C   0  0  0  0  0  0  0  0  0  0  0  0
    0.2663   -1.5748   11.4490 O   0  0  0  0  0  0  0  0  0  0  0  0
    2.1334   -0.5426   12.2730 N   0  0  0  0  0  0  0  0  0  0  0  0
    1.3664    0.5369   12.8834 C   0  0  0  0  0  0  0  0  0  0  0  0
    0.6231    1.2886   11.7984 C   0  0  0  0  0  0  0  0  0  0  0  0
    0.8147    2.7376   11.8495 C   0  0  0  0  0  0  0  0  0  0  0  0
    1.6561    3.5239   11.1177 C   0  0  0  0  0  0  0  0  0  0  0  0
    1.4146    4.8011   11.5499 N   0  0  0  0  0  0  0  0  0  0  0  0
    0.4882    4.8240   12.4879 C   0  0  0  0  0  0  0  0  0  0  0  0
    0.0706    3.5515   12.7210 C   0  0  0  0  0  0  0  0  0  0  0  0
   -0.8976    3.3377   13.6663 C   0  0  0  0  0  0  0  0  0  0  0  0
   -1.4332    4.4068   14.3644 C   0  0  0  0  0  0  0  0  0  0  0  0
   -1.0139    5.7062   14.1332 C   0  0  0  0  0  0  0  0  0  0  0  0
   -0.0506    5.9095   13.1916 C   0  0  0  0  0  0  0  0  0  0  0  0
   -2.4166    4.2191   15.3288 O   0  0  0  0  0  0  0  0  0  0  0  0
   -2.7701    5.2250   16.2505 C   0  0  0  0  0  0  0  0  0  0  0  0
    2.6490    3.2095   10.0922 C   0  0  0  0  0  0  0  0  0  0  0  0
    3.4320    4.2291    9.5395 C   0  0  0  0  0  0  0  0  0  0  0  0
    4.3820    3.9820    8.5707 C   0  0  0  0  0  0  0  0  0  0  0  0
    4.6072    2.7111    8.0970 C   0  0  0  0  0  0  0  0  0  0  0  0
    3.8625    1.7023    8.6146 C   0  0  0  0  0  0  0  0  0  0  0  0
    2.8937    1.9702    9.6059 C   0  0  0  0  0  0  0  0  0  0  0  0
  1  2  1  0
  2  3  2  0
  2  4  1  0
  4  5  1  0
  5  6  1  0
  6  7  1  0
  7  8  2  0
  8  9  1  0
  9 10  1  0
 10 11  2  0
 11 12  1  0
 12 13  2  0
 13 14  1  0
 14 15  2  0
 13 16  1  0
 16 17  1  0
  8 18  1  0
 18 19  2  0
 19 20  1  0
 20 21  2  0
 21 22  1  0
 22 23  2  0
 11  7  1  0
 15 10  1  0
 23 18  1  0
M  END
$$$$
