
     RDKit          3D

 23 25  0  0  0  0  0  0  0  0999 V2000
   -0.0008   -1.3481    9.2977 C   0  0  0  0  0  0  0  0  0  0  0  0
    0.5613   -1.0662   10.6496 C   0  0  0  0  0  0  0  0  0  0  0  0
    1.7071   -1.4360   10.9992 O   0  0  0  0  0  0  0  0  0  0  0  0
   -0.2033   -0.3457   11.6256 N   0  0  0  0  0  0  0  0  0  0  0  0
    0.3475   -0.0596   12.9450 C   0  0  0  0  0  0  0  0  0  0  0  0
    1.2146    1.1796   12.8595 C   0  0  0  0  0  0  0  0  0  0  0  0
    0.4733    2.4292   13.0269 C   0  0  0  0  0  0  0  0  0  0  0  0
    0.3325    3.4728   12.1594 C   0  0  0  0  0  0  0  0  0  0  0  0
   -0.4785    4.3665   12.8073 N   0  0  0  0  0  0  0  0  0  0  0  0
   -0.8266    3.9232   13.9992 C   0  0  0  0  0  0  0  0  0  0  0  0
   -0.2568    2.7047   14.1960 C   0  0  0  0  0  0  0  0  0  0  0  0
   -0.4859    2.0525   15.3787 C   0  0  0  0  0  0  0  0  0  0  0  0
   -1.2854    2.6345   16.3479 C   0  0  0  0  0  0  0  0  0  0  0  0
   -1.8700    3.8752   16.1558 C   0  0  0  0  0  0  0  0  0  0  0  0
   -1.6366    4.5165   14.9768 C   0  0  0  0  0  0  0  0  0  0  0  0
   -1.5349    1.9956   17.5570 O   0  0  0  0  0  0  0  0  0  0  0  0
   -2.5897    2.3797   18.4089 C   0  0  0  0  0  0  0  0  0  0  0  0
    0.8776    3.7206   10.8260 C   0  0  0  0  0  0  0  0  0  0  0  0
    1.7806    2.8143   10.2591 C   0  0  0  0  0  0  0  0  0  0  0  0
    2.3210    3.0039    9.0044 C   0  0  0  0  0  0  0  0  0  0  0  0
    1.9959    4.1021    8.2438 C   0  0  0  0  0  0  0  0  0  0  0  0
    1.1227    4.9981    8.7680 C   0  0  0  0  0  0  0  0  0  0  0  0
    0.5774    4.7908   10.0536 C   0  0  0  0  0  0  0  0  0  0  0  0
  1  2  1  0
  2  3  2  0
  2  4  1  0
  4  5  1  0
  5  6  1  0
  6  7  1  0
  7  8  2  0
  8  9  1  0
  9 10  1  0
 10 11  2  0
 11 12  1  0
 12 13  2  0
 13 14  1  0
 14 15  2  0
 13 16  1  0
 16 17  1  0
  8 18  1  0
 18 19  2  0
 19 20  1  0
 20 21  2  0
 21 22  1  0
 22 23  2  0
 11  7  1  0
 15 10  1  0
 23 18  1  0
M  END
$$$$
