
     RDKit          3D

 28 31  0  0  0  0  0  0  0  0999 V2000
  -13.9212    2.2064    8.4660 C   0  0  0  0  0  0  0  0  0  0  0  0
  -12.4551    2.2458    8.5856 C   0  0  0  0  0  0  0  0  0  0  0  0
  -11.7563    1.3537    7.5550 C   0  0  0  0  0  0  0  0  0  0  0  0
  -11.8692    1.9806    9.9597 C   0  0  0  0  0  0  0  0  0  0  0  0
  -10.4351    2.4972    9.9361 C   0  0  0  0  0  0  0  0  0  0  0  0
   -9.3748    1.6780   10.2450 C   0  0  0  0  0  0  0  0  0  0  0  0
   -8.0627    2.1528   10.2230 C   0  0  0  0  0  0  0  0  0  0  0  0
   -7.7948    3.4606    9.8898 C   0  0  0  0  0  0  0  0  0  0  0  0
   -8.8558    4.2817    9.5803 C   0  0  0  0  0  0  0  0  0  0  0  0
  -10.1603    3.8034    9.6039 C   0  0  0  0  0  0  0  0  0  0  0  0
   -6.1338    4.0713    9.8595 Cl  0  0  0  0  0  0  0  0  0  0  0  0
   -6.7159    1.1020   10.6181 Cl  0  0  0  0  0  0  0  0  0  0  0  0
  -12.5995    2.6109   11.0609 C   0  0  0  0  0  0  0  0  0  0  0  0
  -13.8580    2.3569   11.1423 O   0  0  0  0  0  0  0  0  0  0  0  0
  -12.0336    3.4721   12.0293 N   0  0  0  0  0  0  0  0  0  0  0  0
  -10.5604    3.6048   12.0885 C   0  0  0  0  0  0  0  0  0  0  0  0
  -10.0667    2.8791   13.3330 C   0  0  0  0  0  0  0  0  0  0  0  0
  -11.1355    2.8978   14.3768 C   0  0  0  0  0  0  0  0  0  0  0  0
  -11.9615    4.1618   14.3132 C   0  0  0  0  0  0  0  0  0  0  0  0
  -12.7501    4.2312   13.0159 C   0  0  0  0  0  0  0  0  0  0  0  0
  -10.6250    2.7755   15.7027 O   0  0  0  0  0  0  0  0  0  0  0  0
  -11.5817    2.1467   16.4906 C   0  0  0  0  0  0  0  0  0  0  0  0
  -11.7476    2.0714   17.8544 C   0  0  0  0  0  0  0  0  0  0  0  0
  -12.8165    1.3586   18.3493 C   0  0  0  0  0  0  0  0  0  0  0  0
  -13.6847    0.7444   17.4729 C   0  0  0  0  0  0  0  0  0  0  0  0
  -13.5449    0.8017   16.1027 C   0  0  0  0  0  0  0  0  0  0  0  0
  -12.4500    1.5324   15.6162 C   0  0  0  0  0  0  0  0  0  0  0  0
  -12.0056    1.7989   14.3353 O   0  0  0  0  0  0  0  0  0  0  0  0
  1  2  1  0
  2  3  1  0
  2  4  1  0
  4  5  1  0
  5  6  2  0
  6  7  1  0
  7  8  2  0
  8  9  1  0
  9 10  2  0
  8 11  1  0
  7 12  1  0
  4 13  1  0
 13 14  2  0
 13 15  1  0
 15 16  1  0
 16 17  1  0
 17 18  1  0
 18 19  1  0
 19 20  1  0
 18 21  1  0
 21 22  1  0
 22 23  2  0
 23 24  1  0
 24 25  2  0
 25 26  1  0
 26 27  2  0
 27 28  1  0
 10  5  1  0
 20 15  1  0
 28 18  1  0
 27 22  1  0
M  END
$$$$
