
     RDKit          3D

 28 31  0  0  0  0  0  0  0  0999 V2000
  -10.5992    2.0575    7.2458 C   0  0  0  0  0  0  0  0  0  0  0  0
  -10.5122    1.9068    8.7069 C   0  0  0  0  0  0  0  0  0  0  0  0
  -11.8292    2.2435    9.4129 C   0  0  0  0  0  0  0  0  0  0  0  0
   -9.3704    2.6209    9.4057 C   0  0  0  0  0  0  0  0  0  0  0  0
   -9.5644    2.4057   10.9024 C   0  0  0  0  0  0  0  0  0  0  0  0
  -10.0090    1.2036   11.4003 C   0  0  0  0  0  0  0  0  0  0  0  0
  -10.1861    1.0085   12.7707 C   0  0  0  0  0  0  0  0  0  0  0  0
   -9.9187    2.0201   13.6641 C   0  0  0  0  0  0  0  0  0  0  0  0
   -9.4734    3.2243   13.1667 C   0  0  0  0  0  0  0  0  0  0  0  0
   -9.2989    3.4127   11.8010 C   0  0  0  0  0  0  0  0  0  0  0  0
  -10.1407    1.7816   15.4039 Cl  0  0  0  0  0  0  0  0  0  0  0  0
  -10.7535   -0.5274   13.3979 Cl  0  0  0  0  0  0  0  0  0  0  0  0
   -8.0376    2.1601    9.0127 C   0  0  0  0  0  0  0  0  0  0  0  0
   -7.3802    2.9118    8.2016 O   0  0  0  0  0  0  0  0  0  0  0  0
   -7.4257    0.9622    9.4489 N   0  0  0  0  0  0  0  0  0  0  0  0
   -7.5566    0.5743   10.8716 C   0  0  0  0  0  0  0  0  0  0  0  0
   -6.2105    0.7913   11.5499 C   0  0  0  0  0  0  0  0  0  0  0  0
   -5.1159    0.6323   10.5456 C   0  0  0  0  0  0  0  0  0  0  0  0
   -5.4631   -0.3953    9.4933 C   0  0  0  0  0  0  0  0  0  0  0  0
   -6.6376    0.0680    8.6475 C   0  0  0  0  0  0  0  0  0  0  0  0
   -3.8706    0.2560   11.1299 O   0  0  0  0  0  0  0  0  0  0  0  0
   -2.8410    0.7635   10.3465 C   0  0  0  0  0  0  0  0  0  0  0  0
   -1.5055    0.4442   10.2601 C   0  0  0  0  0  0  0  0  0  0  0  0
   -0.7186    1.1389    9.3692 C   0  0  0  0  0  0  0  0  0  0  0  0
   -1.2848    2.1276    8.5938 C   0  0  0  0  0  0  0  0  0  0  0  0
   -2.6186    2.4700    8.6576 C   0  0  0  0  0  0  0  0  0  0  0  0
   -3.4053    1.7516    9.5711 C   0  0  0  0  0  0  0  0  0  0  0  0
   -4.7460    1.8199    9.8982 O   0  0  0  0  0  0  0  0  0  0  0  0
  1  2  1  0
  2  3  1  0
  2  4  1  0
  4  5  1  0
  5  6  2  0
  6  7  1  0
  7  8  2  0
  8  9  1  0
  9 10  2  0
  8 11  1  0
  7 12  1  0
  4 13  1  0
 13 14  2  0
 13 15  1  0
 15 16  1  0
 16 17  1  0
 17 18  1  0
 18 19  1  0
 19 20  1  0
 18 21  1  0
 21 22  1  0
 22 23  2  0
 23 24  1  0
 24 25  2  0
 25 26  1  0
 26 27  2  0
 27 28  1  0
 10  5  1  0
 20 15  1  0
 28 18  1  0
 27 22  1  0
M  END
$$$$
