
     RDKit          3D

 28 31  0  0  0  0  0  0  0  0999 V2000
  -10.4561   -0.8380    9.9982 C   0  0  0  0  0  0  0  0  0  0  0  0
   -9.9550   -0.4743   11.3331 C   0  0  0  0  0  0  0  0  0  0  0  0
   -9.3378   -1.6641   12.0745 C   0  0  0  0  0  0  0  0  0  0  0  0
  -10.9178    0.2487   12.2562 C   0  0  0  0  0  0  0  0  0  0  0  0
  -10.2938    0.2316   13.6471 C   0  0  0  0  0  0  0  0  0  0  0  0
  -10.3897   -0.8731   14.4602 C   0  0  0  0  0  0  0  0  0  0  0  0
   -9.8180   -0.8869   15.7332 C   0  0  0  0  0  0  0  0  0  0  0  0
   -9.1396    0.2112   16.2100 C   0  0  0  0  0  0  0  0  0  0  0  0
   -9.0430    1.3178   15.3966 C   0  0  0  0  0  0  0  0  0  0  0  0
   -9.6143    1.3258   14.1299 C   0  0  0  0  0  0  0  0  0  0  0  0
   -8.4115    0.2026   17.8233 Cl  0  0  0  0  0  0  0  0  0  0  0  0
   -9.9446   -2.2993   16.7642 Cl  0  0  0  0  0  0  0  0  0  0  0  0
  -11.2085    1.6295   11.8662 C   0  0  0  0  0  0  0  0  0  0  0  0
  -11.7817    1.8017   10.7274 O   0  0  0  0  0  0  0  0  0  0  0  0
  -10.9067    2.7767   12.6359 N   0  0  0  0  0  0  0  0  0  0  0  0
  -10.6679    2.6157   14.0881 C   0  0  0  0  0  0  0  0  0  0  0  0
  -11.8696    3.1809   14.8336 C   0  0  0  0  0  0  0  0  0  0  0  0
  -12.4983    4.2624   14.0167 C   0  0  0  0  0  0  0  0  0  0  0  0
  -11.4738    5.0236   13.2074 C   0  0  0  0  0  0  0  0  0  0  0  0
  -10.8368    4.1290   12.1570 C   0  0  0  0  0  0  0  0  0  0  0  0
  -13.2244    5.2061   14.8015 O   0  0  0  0  0  0  0  0  0  0  0  0
  -14.2638    5.7165   14.0331 C   0  0  0  0  0  0  0  0  0  0  0  0
  -15.0404    6.8444   14.1661 C   0  0  0  0  0  0  0  0  0  0  0  0
  -16.0142    7.0883   13.2239 C   0  0  0  0  0  0  0  0  0  0  0  0
  -16.1840    6.2035   12.1810 C   0  0  0  0  0  0  0  0  0  0  0  0
  -15.4222    5.0658   12.0209 C   0  0  0  0  0  0  0  0  0  0  0  0
  -14.4346    4.8334   12.9905 C   0  0  0  0  0  0  0  0  0  0  0  0
  -13.5075    3.8211   13.1489 O   0  0  0  0  0  0  0  0  0  0  0  0
  1  2  1  0
  2  3  1  0
  2  4  1  0
  4  5  1  0
  5  6  2  0
  6  7  1  0
  7  8  2  0
  8  9  1  0
  9 10  2  0
  8 11  1  0
  7 12  1  0
  4 13  1  0
 13 14  2  0
 13 15  1  0
 15 16  1  0
 16 17  1  0
 17 18  1  0
 18 19  1  0
 19 20  1  0
 18 21  1  0
 21 22  1  0
 22 23  2  0
 23 24  1  0
 24 25  2  0
 25 26  1  0
 26 27  2  0
 27 28  1  0
 10  5  1  0
 20 15  1  0
 28 18  1  0
 27 22  1  0
M  END
$$$$
