
     RDKit          3D

 28 31  0  0  0  0  0  0  0  0999 V2000
   -2.0013    2.2605    5.1095 C   0  0  0  0  0  0  0  0  0  0  0  0
   -1.6809    1.3725    6.2383 C   0  0  0  0  0  0  0  0  0  0  0  0
   -1.0409    0.0557    5.7881 C   0  0  0  0  0  0  0  0  0  0  0  0
   -2.7986    1.0781    7.2211 C   0  0  0  0  0  0  0  0  0  0  0  0
   -2.1525    0.4475    8.4495 C   0  0  0  0  0  0  0  0  0  0  0  0
   -1.1240    1.0709    9.1159 C   0  0  0  0  0  0  0  0  0  0  0  0
   -0.5336    0.4921   10.2401 C   0  0  0  0  0  0  0  0  0  0  0  0
   -0.9682   -0.7247   10.7133 C   0  0  0  0  0  0  0  0  0  0  0  0
   -1.9980   -1.3499   10.0467 C   0  0  0  0  0  0  0  0  0  0  0  0
   -2.5821   -0.7686    8.9277 C   0  0  0  0  0  0  0  0  0  0  0  0
   -0.2252   -1.4664   12.1383 Cl  0  0  0  0  0  0  0  0  0  0  0  0
    0.7775    1.2932   11.0846 Cl  0  0  0  0  0  0  0  0  0  0  0  0
   -3.5753    2.2519    7.6237 C   0  0  0  0  0  0  0  0  0  0  0  0
   -2.9836    3.1061    8.3823 O   0  0  0  0  0  0  0  0  0  0  0  0
   -4.9137    2.5136    7.2497 N   0  0  0  0  0  0  0  0  0  0  0  0
   -5.3929    3.9143    7.2574 C   0  0  0  0  0  0  0  0  0  0  0  0
   -6.3324    4.0895    8.4432 C   0  0  0  0  0  0  0  0  0  0  0  0
   -6.9899    2.7844    8.7541 C   0  0  0  0  0  0  0  0  0  0  0  0
   -7.2210    1.9603    7.5085 C   0  0  0  0  0  0  0  0  0  0  0  0
   -5.9017    1.5375    6.8837 C   0  0  0  0  0  0  0  0  0  0  0  0
   -8.2429    2.9334    9.4184 O   0  0  0  0  0  0  0  0  0  0  0  0
   -8.4481    1.8261   10.2328 C   0  0  0  0  0  0  0  0  0  0  0  0
   -9.5810    1.3112   10.8197 C   0  0  0  0  0  0  0  0  0  0  0  0
   -9.4658    0.1755   11.5895 C   0  0  0  0  0  0  0  0  0  0  0  0
   -8.2290   -0.4106   11.7505 C   0  0  0  0  0  0  0  0  0  0  0  0
   -7.0766    0.0815   11.1757 C   0  0  0  0  0  0  0  0  0  0  0  0
   -7.2130    1.2394   10.3947 C   0  0  0  0  0  0  0  0  0  0  0  0
   -6.2994    1.9945    9.6845 O   0  0  0  0  0  0  0  0  0  0  0  0
  1  2  1  0
  2  3  1  0
  2  4  1  0
  4  5  1  0
  5  6  2  0
  6  7  1  0
  7  8  2  0
  8  9  1  0
  9 10  2  0
  8 11  1  0
  7 12  1  0
  4 13  1  0
 13 14  2  0
 13 15  1  0
 15 16  1  0
 16 17  1  0
 17 18  1  0
 18 19  1  0
 19 20  1  0
 18 21  1  0
 21 22  1  0
 22 23  2  0
 23 24  1  0
 24 25  2  0
 25 26  1  0
 26 27  2  0
 27 28  1  0
 10  5  1  0
 20 15  1  0
 28 18  1  0
 27 22  1  0
M  END
$$$$
