
     RDKit          3D

 28 31  0  0  0  0  0  0  0  0999 V2000
   -2.8972    3.2312   10.8472 C   0  0  0  0  0  0  0  0  0  0  0  0
   -3.0836    2.0980    9.9272 C   0  0  0  0  0  0  0  0  0  0  0  0
   -4.0507    1.0455   10.4780 C   0  0  0  0  0  0  0  0  0  0  0  0
   -1.8301    1.4114    9.4181 C   0  0  0  0  0  0  0  0  0  0  0  0
   -1.4962    0.3059   10.4134 C   0  0  0  0  0  0  0  0  0  0  0  0
   -1.0793   -0.9345    9.9910 C   0  0  0  0  0  0  0  0  0  0  0  0
   -0.7744   -1.9453   10.9036 C   0  0  0  0  0  0  0  0  0  0  0  0
   -0.8836   -1.7253   12.2574 C   0  0  0  0  0  0  0  0  0  0  0  0
   -1.3010   -0.4836   12.6814 C   0  0  0  0  0  0  0  0  0  0  0  0
   -1.6033    0.5191   11.7680 C   0  0  0  0  0  0  0  0  0  0  0  0
   -0.4991   -3.0016   13.4220 Cl  0  0  0  0  0  0  0  0  0  0  0  0
   -0.2433   -3.5244   10.3572 Cl  0  0  0  0  0  0  0  0  0  0  0  0
   -1.9552    0.8411    8.0756 C   0  0  0  0  0  0  0  0  0  0  0  0
   -0.9341    0.2061    7.6182 O   0  0  0  0  0  0  0  0  0  0  0  0
   -3.0993    0.9377    7.2503 N   0  0  0  0  0  0  0  0  0  0  0  0
   -3.3240   -0.1035    6.2221 C   0  0  0  0  0  0  0  0  0  0  0  0
   -3.0386    0.5068    4.8563 C   0  0  0  0  0  0  0  0  0  0  0  0
   -3.3149    1.9744    4.8996 C   0  0  0  0  0  0  0  0  0  0  0  0
   -4.4528    2.3050    5.8377 C   0  0  0  0  0  0  0  0  0  0  0  0
   -4.0818    1.9850    7.2763 C   0  0  0  0  0  0  0  0  0  0  0  0
   -3.6291    2.5226    3.6212 O   0  0  0  0  0  0  0  0  0  0  0  0
   -3.2180    3.8499    3.5939 C   0  0  0  0  0  0  0  0  0  0  0  0
   -3.5514    4.9012    2.7713 C   0  0  0  0  0  0  0  0  0  0  0  0
   -2.9652    6.1262    2.9978 C   0  0  0  0  0  0  0  0  0  0  0  0
   -2.0674    6.2659    4.0339 C   0  0  0  0  0  0  0  0  0  0  0  0
   -1.7135    5.2321    4.8744 C   0  0  0  0  0  0  0  0  0  0  0  0
   -2.3207    3.9910    4.6287 C   0  0  0  0  0  0  0  0  0  0  0  0
   -2.2095    2.7624    5.2511 O   0  0  0  0  0  0  0  0  0  0  0  0
  1  2  1  0
  2  3  1  0
  2  4  1  0
  4  5  1  0
  5  6  2  0
  6  7  1  0
  7  8  2  0
  8  9  1  0
  9 10  2  0
  8 11  1  0
  7 12  1  0
  4 13  1  0
 13 14  2  0
 13 15  1  0
 15 16  1  0
 16 17  1  0
 17 18  1  0
 18 19  1  0
 19 20  1  0
 18 21  1  0
 21 22  1  0
 22 23  2  0
 23 24  1  0
 24 25  2  0
 25 26  1  0
 26 27  2  0
 27 28  1  0
 10  5  1  0
 20 15  1  0
 28 18  1  0
 27 22  1  0
M  END
$$$$
