
     RDKit          3D

 28 31  0  0  0  0  0  0  0  0999 V2000
  -11.0109    3.4875    8.8537 C   0  0  0  0  0  0  0  0  0  0  0  0
  -10.3857    2.1884    9.1481 C   0  0  0  0  0  0  0  0  0  0  0  0
  -11.2562    1.3069   10.0490 C   0  0  0  0  0  0  0  0  0  0  0  0
   -8.9679    2.2134    9.6876 C   0  0  0  0  0  0  0  0  0  0  0  0
   -9.0315    1.6998   11.1216 C   0  0  0  0  0  0  0  0  0  0  0  0
  -10.2229    1.3187   11.6925 C   0  0  0  0  0  0  0  0  0  0  0  0
  -10.2792    0.8490   13.0053 C   0  0  0  0  0  0  0  0  0  0  0  0
   -9.1370    0.7547   13.7668 C   0  0  0  0  0  0  0  0  0  0  0  0
   -7.9435    1.1360   13.1961 C   0  0  0  0  0  0  0  0  0  0  0  0
   -7.8936    1.6030   11.8882 C   0  0  0  0  0  0  0  0  0  0  0  0
   -9.1990    0.1602   15.4328 Cl  0  0  0  0  0  0  0  0  0  0  0  0
  -11.8023    0.3649   13.7263 Cl  0  0  0  0  0  0  0  0  0  0  0  0
   -8.0143    1.4097    8.9207 C   0  0  0  0  0  0  0  0  0  0  0  0
   -8.2846    0.1588    8.7891 O   0  0  0  0  0  0  0  0  0  0  0  0
   -6.8291    1.8976    8.3236 N   0  0  0  0  0  0  0  0  0  0  0  0
   -6.2463    1.1501    7.1863 C   0  0  0  0  0  0  0  0  0  0  0  0
   -4.9862    0.4477    7.6741 C   0  0  0  0  0  0  0  0  0  0  0  0
   -4.3850    1.2277    8.7976 C   0  0  0  0  0  0  0  0  0  0  0  0
   -4.6075    2.7134    8.6331 C   0  0  0  0  0  0  0  0  0  0  0  0
   -6.0848    3.0562    8.7317 C   0  0  0  0  0  0  0  0  0  0  0  0
   -2.9834    1.0091    8.9435 O   0  0  0  0  0  0  0  0  0  0  0  0
   -2.6455    1.1712   10.2818 C   0  0  0  0  0  0  0  0  0  0  0  0
   -1.4402    1.3909   10.9079 C   0  0  0  0  0  0  0  0  0  0  0  0
   -1.4230    1.5121   12.2792 C   0  0  0  0  0  0  0  0  0  0  0  0
   -2.6036    1.4109   12.9828 C   0  0  0  0  0  0  0  0  0  0  0  0
   -3.8259    1.1912   12.3843 C   0  0  0  0  0  0  0  0  0  0  0  0
   -3.8244    1.0703   10.9861 C   0  0  0  0  0  0  0  0  0  0  0  0
   -4.8364    0.8519   10.0710 O   0  0  0  0  0  0  0  0  0  0  0  0
  1  2  1  0
  2  3  1  0
  2  4  1  0
  4  5  1  0
  5  6  2  0
  6  7  1  0
  7  8  2  0
  8  9  1  0
  9 10  2  0
  8 11  1  0
  7 12  1  0
  4 13  1  0
 13 14  2  0
 13 15  1  0
 15 16  1  0
 16 17  1  0
 17 18  1  0
 18 19  1  0
 19 20  1  0
 18 21  1  0
 21 22  1  0
 22 23  2  0
 23 24  1  0
 24 25  2  0
 25 26  1  0
 26 27  2  0
 27 28  1  0
 10  5  1  0
 20 15  1  0
 28 18  1  0
 27 22  1  0
M  END
$$$$
