
     RDKit          3D

 28 31  0  0  0  0  0  0  0  0999 V2000
  -11.5632    1.8094    7.5121 C   0  0  0  0  0  0  0  0  0  0  0  0
  -11.7153    2.2248    8.9155 C   0  0  0  0  0  0  0  0  0  0  0  0
  -12.8483    3.2371    9.1102 C   0  0  0  0  0  0  0  0  0  0  0  0
  -10.4697    2.7218    9.6250 C   0  0  0  0  0  0  0  0  0  0  0  0
  -10.8142    2.8193   11.1069 C   0  0  0  0  0  0  0  0  0  0  0  0
  -11.1246    1.7007   11.8439 C   0  0  0  0  0  0  0  0  0  0  0  0
  -11.4399    1.7919   13.2002 C   0  0  0  0  0  0  0  0  0  0  0  0
  -11.4483    3.0107   13.8386 C   0  0  0  0  0  0  0  0  0  0  0  0
  -11.1375    4.1314   13.1016 C   0  0  0  0  0  0  0  0  0  0  0  0
  -10.8244    4.0344   11.7512 C   0  0  0  0  0  0  0  0  0  0  0  0
  -11.8471    3.1358   15.5586 Cl  0  0  0  0  0  0  0  0  0  0  0  0
  -11.8347    0.3610   14.1333 Cl  0  0  0  0  0  0  0  0  0  0  0  0
   -9.2927    1.8688    9.4503 C   0  0  0  0  0  0  0  0  0  0  0  0
   -9.0463    1.4586    8.2561 O   0  0  0  0  0  0  0  0  0  0  0  0
   -8.4177    1.4623   10.4840 N   0  0  0  0  0  0  0  0  0  0  0  0
   -8.1321    2.4081   11.5865 C   0  0  0  0  0  0  0  0  0  0  0  0
   -6.7089    2.9226   11.4157 C   0  0  0  0  0  0  0  0  0  0  0  0
   -5.8858    1.8877   10.7203 C   0  0  0  0  0  0  0  0  0  0  0  0
   -6.3227    0.4864   11.0803 C   0  0  0  0  0  0  0  0  0  0  0  0
   -7.7263    0.2063   10.5693 C   0  0  0  0  0  0  0  0  0  0  0  0
   -4.4925    1.9975   11.0037 O   0  0  0  0  0  0  0  0  0  0  0  0
   -3.7781    1.5317    9.9064 C   0  0  0  0  0  0  0  0  0  0  0  0
   -2.4730    1.1201    9.7638 C   0  0  0  0  0  0  0  0  0  0  0  0
   -2.0458    0.7034    8.5230 C   0  0  0  0  0  0  0  0  0  0  0  0
   -2.9294    0.7096    7.4655 C   0  0  0  0  0  0  0  0  0  0  0  0
   -4.2419    1.1161    7.5770 C   0  0  0  0  0  0  0  0  0  0  0  0
   -4.6597    1.5374    8.8488 C   0  0  0  0  0  0  0  0  0  0  0  0
   -5.8722    2.0007    9.3226 O   0  0  0  0  0  0  0  0  0  0  0  0
  1  2  1  0
  2  3  1  0
  2  4  1  0
  4  5  1  0
  5  6  2  0
  6  7  1  0
  7  8  2  0
  8  9  1  0
  9 10  2  0
  8 11  1  0
  7 12  1  0
  4 13  1  0
 13 14  2  0
 13 15  1  0
 15 16  1  0
 16 17  1  0
 17 18  1  0
 18 19  1  0
 19 20  1  0
 18 21  1  0
 21 22  1  0
 22 23  2  0
 23 24  1  0
 24 25  2  0
 25 26  1  0
 26 27  2  0
 27 28  1  0
 10  5  1  0
 20 15  1  0
 28 18  1  0
 27 22  1  0
M  END
$$$$
