
     RDKit          3D

 28 31  0  0  0  0  0  0  0  0999 V2000
  -11.4052    0.0650   14.1462 C   0  0  0  0  0  0  0  0  0  0  0  0
  -10.2169    0.8161   13.7113 C   0  0  0  0  0  0  0  0  0  0  0  0
   -9.6555    1.7195   14.8136 C   0  0  0  0  0  0  0  0  0  0  0  0
  -10.3374    1.6095   12.4238 C   0  0  0  0  0  0  0  0  0  0  0  0
  -11.2873    2.7681   12.7057 C   0  0  0  0  0  0  0  0  0  0  0  0
  -11.2359    3.4626   13.8913 C   0  0  0  0  0  0  0  0  0  0  0  0
  -12.1064    4.5228   14.1477 C   0  0  0  0  0  0  0  0  0  0  0  0
  -13.0440    4.9026   13.2151 C   0  0  0  0  0  0  0  0  0  0  0  0
  -13.0964    4.2078   12.0275 C   0  0  0  0  0  0  0  0  0  0  0  0
  -12.2269    3.1529   11.7778 C   0  0  0  0  0  0  0  0  0  0  0  0
  -14.1522    6.2459   13.5318 Cl  0  0  0  0  0  0  0  0  0  0  0  0
  -12.0346    5.4036   15.6620 Cl  0  0  0  0  0  0  0  0  0  0  0  0
   -9.0681    2.1295   11.9123 C   0  0  0  0  0  0  0  0  0  0  0  0
   -8.4680    3.0080   12.6356 O   0  0  0  0  0  0  0  0  0  0  0  0
   -8.4598    1.7469   10.6944 N   0  0  0  0  0  0  0  0  0  0  0  0
   -8.9804    0.5578    9.9826 C   0  0  0  0  0  0  0  0  0  0  0  0
   -7.9686   -0.5699   10.1365 C   0  0  0  0  0  0  0  0  0  0  0  0
   -6.5996    0.0077   10.2922 C   0  0  0  0  0  0  0  0  0  0  0  0
   -6.4383    1.2908    9.5102 C   0  0  0  0  0  0  0  0  0  0  0  0
   -7.3353    2.3837   10.0676 C   0  0  0  0  0  0  0  0  0  0  0  0
   -5.5656   -0.8857    9.8843 O   0  0  0  0  0  0  0  0  0  0  0  0
   -4.4253   -0.6160   10.6317 C   0  0  0  0  0  0  0  0  0  0  0  0
   -3.1007   -0.9346   10.4393 C   0  0  0  0  0  0  0  0  0  0  0  0
   -2.1807   -0.5184   11.3752 C   0  0  0  0  0  0  0  0  0  0  0  0
   -2.6073    0.2003   12.4709 C   0  0  0  0  0  0  0  0  0  0  0  0
   -3.9264    0.5346   12.6911 C   0  0  0  0  0  0  0  0  0  0  0  0
   -4.8500    0.1022   11.7270 C   0  0  0  0  0  0  0  0  0  0  0  0
   -6.2198    0.2492   11.6203 O   0  0  0  0  0  0  0  0  0  0  0  0
  1  2  1  0
  2  3  1  0
  2  4  1  0
  4  5  1  0
  5  6  2  0
  6  7  1  0
  7  8  2  0
  8  9  1  0
  9 10  2  0
  8 11  1  0
  7 12  1  0
  4 13  1  0
 13 14  2  0
 13 15  1  0
 15 16  1  0
 16 17  1  0
 17 18  1  0
 18 19  1  0
 19 20  1  0
 18 21  1  0
 21 22  1  0
 22 23  2  0
 23 24  1  0
 24 25  2  0
 25 26  1  0
 26 27  2  0
 27 28  1  0
 10  5  1  0
 20 15  1  0
 28 18  1  0
 27 22  1  0
M  END
$$$$
