
     RDKit          3D

 28 31  0  0  0  0  0  0  0  0999 V2000
   -7.8085   -0.2052    6.3483 C   0  0  0  0  0  0  0  0  0  0  0  0
   -8.8467    0.6239    6.9808 C   0  0  0  0  0  0  0  0  0  0  0  0
  -10.0195    0.9175    6.0403 C   0  0  0  0  0  0  0  0  0  0  0  0
   -8.3922    1.9147    7.6359 C   0  0  0  0  0  0  0  0  0  0  0  0
   -8.6532    1.7676    9.1307 C   0  0  0  0  0  0  0  0  0  0  0  0
   -9.2568    2.7699    9.8532 C   0  0  0  0  0  0  0  0  0  0  0  0
   -9.4948    2.6335   11.2215 C   0  0  0  0  0  0  0  0  0  0  0  0
   -9.1293    1.4858   11.8867 C   0  0  0  0  0  0  0  0  0  0  0  0
   -8.5249    0.4816   11.1642 C   0  0  0  0  0  0  0  0  0  0  0  0
   -8.2905    0.6231    9.8018 C   0  0  0  0  0  0  0  0  0  0  0  0
   -9.4272    1.3043   13.6220 Cl  0  0  0  0  0  0  0  0  0  0  0  0
  -10.2649    3.9160   12.1359 Cl  0  0  0  0  0  0  0  0  0  0  0  0
   -6.9827    2.2423    7.4142 C   0  0  0  0  0  0  0  0  0  0  0  0
   -6.4221    1.7209    6.3803 O   0  0  0  0  0  0  0  0  0  0  0  0
   -6.1974    3.0760    8.2436 N   0  0  0  0  0  0  0  0  0  0  0  0
   -5.4135    4.1652    7.6184 C   0  0  0  0  0  0  0  0  0  0  0  0
   -3.9421    3.7741    7.6549 C   0  0  0  0  0  0  0  0  0  0  0  0
   -3.6936    2.8810    8.8264 C   0  0  0  0  0  0  0  0  0  0  0  0
   -4.5849    3.2274    9.9967 C   0  0  0  0  0  0  0  0  0  0  0  0
   -6.0440    2.9596    9.6669 C   0  0  0  0  0  0  0  0  0  0  0  0
   -2.3423    2.9167    9.2806 O   0  0  0  0  0  0  0  0  0  0  0  0
   -2.0284    1.6830    9.8381 C   0  0  0  0  0  0  0  0  0  0  0  0
   -1.0204    1.2844   10.6856 C   0  0  0  0  0  0  0  0  0  0  0  0
   -0.9693   -0.0358   11.0729 C   0  0  0  0  0  0  0  0  0  0  0  0
   -1.9213   -0.9158   10.6055 C   0  0  0  0  0  0  0  0  0  0  0  0
   -2.9424   -0.5467    9.7561 C   0  0  0  0  0  0  0  0  0  0  0  0
   -2.9788    0.8025    9.3719 C   0  0  0  0  0  0  0  0  0  0  0  0
   -3.8354    1.5130    8.5529 O   0  0  0  0  0  0  0  0  0  0  0  0
  1  2  1  0
  2  3  1  0
  2  4  1  0
  4  5  1  0
  5  6  2  0
  6  7  1  0
  7  8  2  0
  8  9  1  0
  9 10  2  0
  8 11  1  0
  7 12  1  0
  4 13  1  0
 13 14  2  0
 13 15  1  0
 15 16  1  0
 16 17  1  0
 17 18  1  0
 18 19  1  0
 19 20  1  0
 18 21  1  0
 21 22  1  0
 22 23  2  0
 23 24  1  0
 24 25  2  0
 25 26  1  0
 26 27  2  0
 27 28  1  0
 10  5  1  0
 20 15  1  0
 28 18  1  0
 27 22  1  0
M  END
$$$$
