
     RDKit          3D

 28 31  0  0  0  0  0  0  0  0999 V2000
   -1.2717    1.0930    3.4060 C   0  0  0  0  0  0  0  0  0  0  0  0
   -1.7453    2.1288    4.3377 C   0  0  0  0  0  0  0  0  0  0  0  0
   -1.5260    3.5470    3.8021 C   0  0  0  0  0  0  0  0  0  0  0  0
   -1.2455    2.0487    5.7679 C   0  0  0  0  0  0  0  0  0  0  0  0
   -1.8863    3.2060    6.5257 C   0  0  0  0  0  0  0  0  0  0  0  0
   -1.1897    4.3622    6.7874 C   0  0  0  0  0  0  0  0  0  0  0  0
   -1.7779    5.4205    7.4813 C   0  0  0  0  0  0  0  0  0  0  0  0
   -3.0777    5.3334    7.9242 C   0  0  0  0  0  0  0  0  0  0  0  0
   -3.7761    4.1761    7.6627 C   0  0  0  0  0  0  0  0  0  0  0  0
   -3.1852    3.1255    6.9711 C   0  0  0  0  0  0  0  0  0  0  0  0
   -3.8318    6.6706    8.8052 Cl  0  0  0  0  0  0  0  0  0  0  0  0
   -0.8832    6.8918    7.8111 Cl  0  0  0  0  0  0  0  0  0  0  0  0
   -1.5525    0.7884    6.4466 C   0  0  0  0  0  0  0  0  0  0  0  0
   -1.7947   -0.2292    5.6976 O   0  0  0  0  0  0  0  0  0  0  0  0
   -1.6066    0.6071    7.8479 N   0  0  0  0  0  0  0  0  0  0  0  0
   -0.9622    1.6147    8.7204 C   0  0  0  0  0  0  0  0  0  0  0  0
    0.3034    0.9998    9.3032 C   0  0  0  0  0  0  0  0  0  0  0  0
    0.1351   -0.4811    9.4065 C   0  0  0  0  0  0  0  0  0  0  0  0
   -1.2966   -0.8652    9.7007 C   0  0  0  0  0  0  0  0  0  0  0  0
   -2.2074   -0.4983    8.5408 C   0  0  0  0  0  0  0  0  0  0  0  0
    0.9606   -1.0695   10.4095 O   0  0  0  0  0  0  0  0  0  0  0  0
    1.2684   -2.3691   10.0252 C   0  0  0  0  0  0  0  0  0  0  0  0
    1.7358   -3.4529   10.7323 C   0  0  0  0  0  0  0  0  0  0  0  0
    1.9495   -4.6353   10.0600 C   0  0  0  0  0  0  0  0  0  0  0  0
    1.6917   -4.7014    8.7079 C   0  0  0  0  0  0  0  0  0  0  0  0
    1.2233   -3.6335    7.9726 C   0  0  0  0  0  0  0  0  0  0  0  0
    1.0114   -2.4367    8.6742 C   0  0  0  0  0  0  0  0  0  0  0  0
    0.5600   -1.1931    8.2756 O   0  0  0  0  0  0  0  0  0  0  0  0
  1  2  1  0
  2  3  1  0
  2  4  1  0
  4  5  1  0
  5  6  2  0
  6  7  1  0
  7  8  2  0
  8  9  1  0
  9 10  2  0
  8 11  1  0
  7 12  1  0
  4 13  1  0
 13 14  2  0
 13 15  1  0
 15 16  1  0
 16 17  1  0
 17 18  1  0
 18 19  1  0
 19 20  1  0
 18 21  1  0
 21 22  1  0
 22 23  2  0
 23 24  1  0
 24 25  2  0
 25 26  1  0
 26 27  2  0
 27 28  1  0
 10  5  1  0
 20 15  1  0
 28 18  1  0
 27 22  1  0
M  END
$$$$
