
     RDKit          3D

 28 31  0  0  0  0  0  0  0  0999 V2000
   -6.4812    2.9836    9.6040 C   0  0  0  0  0  0  0  0  0  0  0  0
   -6.8052    1.7161   10.2777 C   0  0  0  0  0  0  0  0  0  0  0  0
   -5.8977    0.5648    9.8338 C   0  0  0  0  0  0  0  0  0  0  0  0
   -8.2522    1.2624   10.2314 C   0  0  0  0  0  0  0  0  0  0  0  0
   -8.7816    1.3268   11.6596 C   0  0  0  0  0  0  0  0  0  0  0  0
   -9.2186    2.5098   12.2075 C   0  0  0  0  0  0  0  0  0  0  0  0
   -9.7027    2.5669   13.5151 C   0  0  0  0  0  0  0  0  0  0  0  0
   -9.7556    1.4340   14.2942 C   0  0  0  0  0  0  0  0  0  0  0  0
   -9.3183    0.2489   13.7466 C   0  0  0  0  0  0  0  0  0  0  0  0
   -8.8372    0.1981   12.4438 C   0  0  0  0  0  0  0  0  0  0  0  0
  -10.3680    1.4971   15.9537 Cl  0  0  0  0  0  0  0  0  0  0  0  0
  -10.2581    4.0792   14.2067 Cl  0  0  0  0  0  0  0  0  0  0  0  0
   -9.1094    2.0617    9.3542 C   0  0  0  0  0  0  0  0  0  0  0  0
   -8.6844    3.2348    9.0407 O   0  0  0  0  0  0  0  0  0  0  0  0
  -10.3577    1.6486    8.8341 N   0  0  0  0  0  0  0  0  0  0  0  0
  -10.9374    2.3988    7.6970 C   0  0  0  0  0  0  0  0  0  0  0  0
  -12.1128    3.2163    8.2160 C   0  0  0  0  0  0  0  0  0  0  0  0
  -12.7151    2.5276    9.3970 C   0  0  0  0  0  0  0  0  0  0  0  0
  -12.6174    1.0239    9.2813 C   0  0  0  0  0  0  0  0  0  0  0  0
  -11.1682    0.5683    9.3230 C   0  0  0  0  0  0  0  0  0  0  0  0
  -14.0863    2.8622    9.6007 O   0  0  0  0  0  0  0  0  0  0  0  0
  -14.3675    2.7756   10.9590 C   0  0  0  0  0  0  0  0  0  0  0  0
  -15.5530    2.6752   11.6500 C   0  0  0  0  0  0  0  0  0  0  0  0
  -15.5102    2.6052   13.0244 C   0  0  0  0  0  0  0  0  0  0  0  0
  -14.2912    2.6372   13.6662 C   0  0  0  0  0  0  0  0  0  0  0  0
  -13.0874    2.7372   13.0019 C   0  0  0  0  0  0  0  0  0  0  0  0
  -13.1502    2.8076   11.6017 C   0  0  0  0  0  0  0  0  0  0  0  0
  -12.1720    2.9118   10.6315 O   0  0  0  0  0  0  0  0  0  0  0  0
  1  2  1  0
  2  3  1  0
  2  4  1  0
  4  5  1  0
  5  6  2  0
  6  7  1  0
  7  8  2  0
  8  9  1  0
  9 10  2  0
  8 11  1  0
  7 12  1  0
  4 13  1  0
 13 14  2  0
 13 15  1  0
 15 16  1  0
 16 17  1  0
 17 18  1  0
 18 19  1  0
 19 20  1  0
 18 21  1  0
 21 22  1  0
 22 23  2  0
 23 24  1  0
 24 25  2  0
 25 26  1  0
 26 27  2  0
 27 28  1  0
 10  5  1  0
 20 15  1  0
 28 18  1  0
 27 22  1  0
M  END
$$$$
