
     RDKit          3D

 28 31  0  0  0  0  0  0  0  0999 V2000
   -8.6990   -1.2445   12.6974 C   0  0  0  0  0  0  0  0  0  0  0  0
   -9.4006    0.0007   13.0476 C   0  0  0  0  0  0  0  0  0  0  0  0
  -10.8603   -0.2381   13.4457 C   0  0  0  0  0  0  0  0  0  0  0  0
   -9.3327    1.1349   12.0422 C   0  0  0  0  0  0  0  0  0  0  0  0
  -10.4633    2.0982   12.3855 C   0  0  0  0  0  0  0  0  0  0  0  0
  -10.5396    2.7006   13.6193 C   0  0  0  0  0  0  0  0  0  0  0  0
  -11.5753    3.5820   13.9318 C   0  0  0  0  0  0  0  0  0  0  0  0
  -12.5527    3.8727   13.0079 C   0  0  0  0  0  0  0  0  0  0  0  0
  -12.4773    3.2701   11.7723 C   0  0  0  0  0  0  0  0  0  0  0  0
  -11.4435    2.3932   11.4667 C   0  0  0  0  0  0  0  0  0  0  0  0
  -13.8701    4.9893   13.3958 Cl  0  0  0  0  0  0  0  0  0  0  0  0
  -11.6657    4.3462   15.5072 Cl  0  0  0  0  0  0  0  0  0  0  0  0
   -8.0596    1.8575   12.0300 C   0  0  0  0  0  0  0  0  0  0  0  0
   -7.4737    2.0187   13.1640 O   0  0  0  0  0  0  0  0  0  0  0  0
   -7.4333    2.3899   10.8794 N   0  0  0  0  0  0  0  0  0  0  0  0
   -7.9859    2.0513    9.5484 C   0  0  0  0  0  0  0  0  0  0  0  0
   -7.0313    1.0775    8.8703 C   0  0  0  0  0  0  0  0  0  0  0  0
   -5.6427    1.3137    9.3685 C   0  0  0  0  0  0  0  0  0  0  0  0
   -5.4002    2.7708    9.6884 C   0  0  0  0  0  0  0  0  0  0  0  0
   -6.2629    3.2221   10.8553 C   0  0  0  0  0  0  0  0  0  0  0  0
   -4.6386    0.8957    8.4462 O   0  0  0  0  0  0  0  0  0  0  0  0
   -3.5100    0.5134    9.1615 C   0  0  0  0  0  0  0  0  0  0  0  0
   -2.1961    0.3458    8.7892 C   0  0  0  0  0  0  0  0  0  0  0  0
   -1.2864   -0.0492    9.7442 C   0  0  0  0  0  0  0  0  0  0  0  0
   -1.7123   -0.2645   11.0370 C   0  0  0  0  0  0  0  0  0  0  0  0
   -3.0210   -0.1050   11.4402 C   0  0  0  0  0  0  0  0  0  0  0  0
   -3.9341    0.2979   10.4536 C   0  0  0  0  0  0  0  0  0  0  0  0
   -5.2920    0.5507   10.4915 O   0  0  0  0  0  0  0  0  0  0  0  0
  1  2  1  0
  2  3  1  0
  2  4  1  0
  4  5  1  0
  5  6  2  0
  6  7  1  0
  7  8  2  0
  8  9  1  0
  9 10  2  0
  8 11  1  0
  7 12  1  0
  4 13  1  0
 13 14  2  0
 13 15  1  0
 15 16  1  0
 16 17  1  0
 17 18  1  0
 18 19  1  0
 19 20  1  0
 18 21  1  0
 21 22  1  0
 22 23  2  0
 23 24  1  0
 24 25  2  0
 25 26  1  0
 26 27  2  0
 27 28  1  0
 10  5  1  0
 20 15  1  0
 28 18  1  0
 27 22  1  0
M  END
$$$$
