
     RDKit          3D

 28 31  0  0  0  0  0  0  0  0999 V2000
  -11.8462    0.1853   15.0675 C   0  0  0  0  0  0  0  0  0  0  0  0
  -10.5841    0.8217   14.6582 C   0  0  0  0  0  0  0  0  0  0  0  0
   -9.9116    1.5853   15.8032 C   0  0  0  0  0  0  0  0  0  0  0  0
  -10.6260    1.7020   13.4233 C   0  0  0  0  0  0  0  0  0  0  0  0
  -11.4361    2.9403   13.7902 C   0  0  0  0  0  0  0  0  0  0  0  0
  -12.6908    3.1539   13.2699 C   0  0  0  0  0  0  0  0  0  0  0  0
  -13.4308    4.2881   13.6068 C   0  0  0  0  0  0  0  0  0  0  0  0
  -12.9208    5.2272   14.4735 C   0  0  0  0  0  0  0  0  0  0  0  0
  -11.6645    5.0143   14.9950 C   0  0  0  0  0  0  0  0  0  0  0  0
  -10.9322    3.8829   14.6559 C   0  0  0  0  0  0  0  0  0  0  0  0
  -13.8522    6.6688   14.9062 Cl  0  0  0  0  0  0  0  0  0  0  0  0
  -15.0302    4.5535   12.9392 Cl  0  0  0  0  0  0  0  0  0  0  0  0
   -9.3108    2.1067   12.9236 C   0  0  0  0  0  0  0  0  0  0  0  0
   -8.3352    2.0669   13.7612 O   0  0  0  0  0  0  0  0  0  0  0  0
   -9.0348    2.5376   11.6054 N   0  0  0  0  0  0  0  0  0  0  0  0
   -9.9445    2.1183   10.5153 C   0  0  0  0  0  0  0  0  0  0  0  0
   -9.2266    1.0730    9.6719 C   0  0  0  0  0  0  0  0  0  0  0  0
   -7.7526    1.3079    9.7371 C   0  0  0  0  0  0  0  0  0  0  0  0
   -7.4222    2.7773    9.8621 C   0  0  0  0  0  0  0  0  0  0  0  0
   -7.9156    3.3347   11.1871 C   0  0  0  0  0  0  0  0  0  0  0  0
   -7.0540    0.7977    8.6034 O   0  0  0  0  0  0  0  0  0  0  0  0
   -5.7705    0.4386    8.9972 C   0  0  0  0  0  0  0  0  0  0  0  0
   -4.6174    0.2097    8.2824 C   0  0  0  0  0  0  0  0  0  0  0  0
   -3.4757   -0.1390    8.9684 C   0  0  0  0  0  0  0  0  0  0  0  0
   -3.5177   -0.2487   10.3414 C   0  0  0  0  0  0  0  0  0  0  0  0
   -4.6570   -0.0259   11.0849 C   0  0  0  0  0  0  0  0  0  0  0  0
   -5.8110    0.3285   10.3692 C   0  0  0  0  0  0  0  0  0  0  0  0
   -7.1009    0.6192   10.7702 O   0  0  0  0  0  0  0  0  0  0  0  0
  1  2  1  0
  2  3  1  0
  2  4  1  0
  4  5  1  0
  5  6  2  0
  6  7  1  0
  7  8  2  0
  8  9  1  0
  9 10  2  0
  8 11  1  0
  7 12  1  0
  4 13  1  0
 13 14  2  0
 13 15  1  0
 15 16  1  0
 16 17  1  0
 17 18  1  0
 18 19  1  0
 19 20  1  0
 18 21  1  0
 21 22  1  0
 22 23  2  0
 23 24  1  0
 24 25  2  0
 25 26  1  0
 26 27  2  0
 27 28  1  0
 10  5  1  0
 20 15  1  0
 28 18  1  0
 27 22  1  0
M  END
$$$$
