
     RDKit          3D

 28 31  0  0  0  0  0  0  0  0999 V2000
  -13.4208    2.9491    8.8222 C   0  0  0  0  0  0  0  0  0  0  0  0
  -12.0694    2.5933    9.2832 C   0  0  0  0  0  0  0  0  0  0  0  0
  -11.4401    1.4714    8.4516 C   0  0  0  0  0  0  0  0  0  0  0  0
  -11.9063    2.2778   10.7582 C   0  0  0  0  0  0  0  0  0  0  0  0
  -10.4442    1.9019   10.9709 C   0  0  0  0  0  0  0  0  0  0  0  0
  -10.0860    0.8642   11.7988 C   0  0  0  0  0  0  0  0  0  0  0  0
   -8.7471    0.5215   11.9924 C   0  0  0  0  0  0  0  0  0  0  0  0
   -7.7452    1.2175   11.3559 C   0  0  0  0  0  0  0  0  0  0  0  0
   -8.1029    2.2567   10.5266 C   0  0  0  0  0  0  0  0  0  0  0  0
   -9.4378    2.5934   10.3377 C   0  0  0  0  0  0  0  0  0  0  0  0
   -6.0444    0.7899   11.5957 Cl  0  0  0  0  0  0  0  0  0  0  0  0
   -8.2981   -0.8031   13.0498 Cl  0  0  0  0  0  0  0  0  0  0  0  0
  -12.2653    3.3774   11.6556 C   0  0  0  0  0  0  0  0  0  0  0  0
  -11.6013    4.4717   11.5260 O   0  0  0  0  0  0  0  0  0  0  0  0
  -13.2729    3.3276   12.6464 N   0  0  0  0  0  0  0  0  0  0  0  0
  -13.8290    4.6002   13.1593 C   0  0  0  0  0  0  0  0  0  0  0  0
  -13.3031    4.8141   14.5725 C   0  0  0  0  0  0  0  0  0  0  0  0
  -13.0315    3.4897   15.2082 C   0  0  0  0  0  0  0  0  0  0  0  0
  -13.9995    2.4298   14.7351 C   0  0  0  0  0  0  0  0  0  0  0  0
  -13.8109    2.1429   13.2547 C   0  0  0  0  0  0  0  0  0  0  0  0
  -13.0894    3.5302   16.6324 O   0  0  0  0  0  0  0  0  0  0  0  0
  -12.2258    2.5666   17.1396 C   0  0  0  0  0  0  0  0  0  0  0  0
  -12.1329    1.9719   18.3768 C   0  0  0  0  0  0  0  0  0  0  0  0
  -11.1505    1.0295   18.5824 C   0  0  0  0  0  0  0  0  0  0  0  0
  -10.2931    0.7095   17.5521 C   0  0  0  0  0  0  0  0  0  0  0  0
  -10.3610    1.2877   16.3024 C   0  0  0  0  0  0  0  0  0  0  0  0
  -11.3683    2.2459   16.1111 C   0  0  0  0  0  0  0  0  0  0  0  0
  -11.7267    3.0123   15.0187 O   0  0  0  0  0  0  0  0  0  0  0  0
  1  2  1  0
  2  3  1  0
  2  4  1  0
  4  5  1  0
  5  6  2  0
  6  7  1  0
  7  8  2  0
  8  9  1  0
  9 10  2  0
  8 11  1  0
  7 12  1  0
  4 13  1  0
 13 14  2  0
 13 15  1  0
 15 16  1  0
 16 17  1  0
 17 18  1  0
 18 19  1  0
 19 20  1  0
 18 21  1  0
 21 22  1  0
 22 23  2  0
 23 24  1  0
 24 25  2  0
 25 26  1  0
 26 27  2  0
 27 28  1  0
 10  5  1  0
 20 15  1  0
 28 18  1  0
 27 22  1  0
M  END
$$$$
