
     RDKit          3D

 28 31  0  0  0  0  0  0  0  0999 V2000
   -4.2808    0.6190    7.5163 C   0  0  0  0  0  0  0  0  0  0  0  0
   -4.4848    0.1636    8.9007 C   0  0  0  0  0  0  0  0  0  0  0  0
   -4.9631   -1.2895    8.9779 C   0  0  0  0  0  0  0  0  0  0  0  0
   -5.3600    1.0288    9.7879 C   0  0  0  0  0  0  0  0  0  0  0  0
   -4.5818    2.3109   10.0613 C   0  0  0  0  0  0  0  0  0  0  0  0
   -5.1700    3.3848   10.6870 C   0  0  0  0  0  0  0  0  0  0  0  0
   -4.4562    4.5577   10.9362 C   0  0  0  0  0  0  0  0  0  0  0  0
   -3.1374    4.6703   10.5600 C   0  0  0  0  0  0  0  0  0  0  0  0
   -2.5474    3.5956    9.9334 C   0  0  0  0  0  0  0  0  0  0  0  0
   -3.2633    2.4301    9.6878 C   0  0  0  0  0  0  0  0  0  0  0  0
   -2.2244    6.1542   10.8720 Cl  0  0  0  0  0  0  0  0  0  0  0  0
   -5.2133    5.9228   11.7346 Cl  0  0  0  0  0  0  0  0  0  0  0  0
   -6.6647    1.3604    9.2125 C   0  0  0  0  0  0  0  0  0  0  0  0
   -6.6811    2.2610    8.2940 O   0  0  0  0  0  0  0  0  0  0  0  0
   -7.8959    0.7753    9.5884 N   0  0  0  0  0  0  0  0  0  0  0  0
   -9.1053    1.0931    8.7959 C   0  0  0  0  0  0  0  0  0  0  0  0
   -9.9888    2.0158    9.6249 C   0  0  0  0  0  0  0  0  0  0  0  0
   -9.7617    1.7495   11.0774 C   0  0  0  0  0  0  0  0  0  0  0  0
   -9.4449    0.2952   11.3396 C   0  0  0  0  0  0  0  0  0  0  0  0
   -8.1180   -0.0945   10.7096 C   0  0  0  0  0  0  0  0  0  0  0  0
  -10.8751    2.1083   11.8929 O   0  0  0  0  0  0  0  0  0  0  0  0
  -10.4061    2.4745   13.1488 C   0  0  0  0  0  0  0  0  0  0  0  0
  -11.0317    2.5891   14.3688 C   0  0  0  0  0  0  0  0  0  0  0  0
  -10.2856    2.9819   15.4572 C   0  0  0  0  0  0  0  0  0  0  0  0
   -8.9429    3.2478   15.2972 C   0  0  0  0  0  0  0  0  0  0  0  0
   -8.2883    3.1421   14.0886 C   0  0  0  0  0  0  0  0  0  0  0  0
   -9.0644    2.7406   12.9905 C   0  0  0  0  0  0  0  0  0  0  0  0
   -8.7550    2.5328   11.6599 O   0  0  0  0  0  0  0  0  0  0  0  0
  1  2  1  0
  2  3  1  0
  2  4  1  0
  4  5  1  0
  5  6  2  0
  6  7  1  0
  7  8  2  0
  8  9  1  0
  9 10  2  0
  8 11  1  0
  7 12  1  0
  4 13  1  0
 13 14  2  0
 13 15  1  0
 15 16  1  0
 16 17  1  0
 17 18  1  0
 18 19  1  0
 19 20  1  0
 18 21  1  0
 21 22  1  0
 22 23  2  0
 23 24  1  0
 24 25  2  0
 25 26  1  0
 26 27  2  0
 27 28  1  0
 10  5  1  0
 20 15  1  0
 28 18  1  0
 27 22  1  0
M  END
$$$$
