
     RDKit          3D

 28 31  0  0  0  0  0  0  0  0999 V2000
   -9.4490    1.8968    6.4233 C   0  0  0  0  0  0  0  0  0  0  0  0
  -10.1807    1.9413    7.6992 C   0  0  0  0  0  0  0  0  0  0  0  0
  -11.4469    2.7997    7.6220 C   0  0  0  0  0  0  0  0  0  0  0  0
   -9.3876    2.3250    8.9344 C   0  0  0  0  0  0  0  0  0  0  0  0
  -10.3128    2.1337   10.1309 C   0  0  0  0  0  0  0  0  0  0  0  0
   -9.8133    1.9541   11.3993 C   0  0  0  0  0  0  0  0  0  0  0  0
  -10.6617    1.7790   12.4934 C   0  0  0  0  0  0  0  0  0  0  0  0
  -12.0279    1.7815   12.3299 C   0  0  0  0  0  0  0  0  0  0  0  0
  -12.5291    1.9613   11.0602 C   0  0  0  0  0  0  0  0  0  0  0  0
  -11.6793    2.1352    9.9744 C   0  0  0  0  0  0  0  0  0  0  0  0
  -13.1115    1.5599   13.7118 Cl  0  0  0  0  0  0  0  0  0  0  0  0
  -10.0173    1.5505   14.1079 Cl  0  0  0  0  0  0  0  0  0  0  0  0
   -8.1627    1.5482    9.1326 C   0  0  0  0  0  0  0  0  0  0  0  0
   -8.0642    0.4444    8.4791 O   0  0  0  0  0  0  0  0  0  0  0  0
   -7.0924    1.9128    9.9818 N   0  0  0  0  0  0  0  0  0  0  0  0
   -6.9460    3.3337   10.3707 C   0  0  0  0  0  0  0  0  0  0  0  0
   -5.7486    3.9098    9.6267 C   0  0  0  0  0  0  0  0  0  0  0  0
   -4.7637    2.8210    9.3501 C   0  0  0  0  0  0  0  0  0  0  0  0
   -4.7548    1.7793   10.4450 C   0  0  0  0  0  0  0  0  0  0  0  0
   -6.0793    1.0359   10.4989 C   0  0  0  0  0  0  0  0  0  0  0  0
   -3.4298    3.2999    9.1916 O   0  0  0  0  0  0  0  0  0  0  0  0
   -2.7523    2.4490    8.3267 C   0  0  0  0  0  0  0  0  0  0  0  0
   -1.4113    2.2534    8.0889 C   0  0  0  0  0  0  0  0  0  0  0  0
   -1.0385    1.3177    7.1503 C   0  0  0  0  0  0  0  0  0  0  0  0
   -2.0103    0.6075    6.4793 C   0  0  0  0  0  0  0  0  0  0  0  0
   -3.3608    0.7808    6.6954 C   0  0  0  0  0  0  0  0  0  0  0  0
   -3.7221    1.7386    7.6554 C   0  0  0  0  0  0  0  0  0  0  0  0
   -4.9491    2.1697    8.1222 O   0  0  0  0  0  0  0  0  0  0  0  0
  1  2  1  0
  2  3  1  0
  2  4  1  0
  4  5  1  0
  5  6  2  0
  6  7  1  0
  7  8  2  0
  8  9  1  0
  9 10  2  0
  8 11  1  0
  7 12  1  0
  4 13  1  0
 13 14  2  0
 13 15  1  0
 15 16  1  0
 16 17  1  0
 17 18  1  0
 18 19  1  0
 19 20  1  0
 18 21  1  0
 21 22  1  0
 22 23  2  0
 23 24  1  0
 24 25  2  0
 25 26  1  0
 26 27  2  0
 27 28  1  0
 10  5  1  0
 20 15  1  0
 28 18  1  0
 27 22  1  0
M  END
$$$$
