
     RDKit          3D

 28 31  0  0  0  0  0  0  0  0999 V2000
  -10.8592    4.1728   13.3944 C   0  0  0  0  0  0  0  0  0  0  0  0
  -10.6126    3.2996   12.2359 C   0  0  0  0  0  0  0  0  0  0  0  0
  -11.7650    2.3240   11.9783 C   0  0  0  0  0  0  0  0  0  0  0  0
   -9.2980    2.5426   12.2121 C   0  0  0  0  0  0  0  0  0  0  0  0
   -9.4352    1.3875   13.1977 C   0  0  0  0  0  0  0  0  0  0  0  0
   -9.4108    0.0796   12.7742 C   0  0  0  0  0  0  0  0  0  0  0  0
   -9.5366   -0.9764   13.6778 C   0  0  0  0  0  0  0  0  0  0  0  0
   -9.6893   -0.7344   15.0236 C   0  0  0  0  0  0  0  0  0  0  0  0
   -9.7138    0.5749   15.4487 C   0  0  0  0  0  0  0  0  0  0  0  0
   -9.5880    1.6225   14.5443 C   0  0  0  0  0  0  0  0  0  0  0  0
   -9.8497   -2.0676   16.1768 Cl  0  0  0  0  0  0  0  0  0  0  0  0
   -9.5045   -2.6417   13.1301 Cl  0  0  0  0  0  0  0  0  0  0  0  0
   -8.9230    2.0223   10.8961 C   0  0  0  0  0  0  0  0  0  0  0  0
   -9.5010    0.9379   10.5153 O   0  0  0  0  0  0  0  0  0  0  0  0
   -7.9805    2.6124   10.0226 N   0  0  0  0  0  0  0  0  0  0  0  0
   -7.9834    2.2109    8.5976 C   0  0  0  0  0  0  0  0  0  0  0  0
   -6.7594    1.3404    8.3460 C   0  0  0  0  0  0  0  0  0  0  0  0
   -5.6718    1.7246    9.2955 C   0  0  0  0  0  0  0  0  0  0  0  0
   -5.7029    3.2006    9.6187 C   0  0  0  0  0  0  0  0  0  0  0  0
   -6.9661    3.5637   10.3816 C   0  0  0  0  0  0  0  0  0  0  0  0
   -4.3683    1.4107    8.8099 O   0  0  0  0  0  0  0  0  0  0  0  0
   -3.5399    1.1535    9.8958 C   0  0  0  0  0  0  0  0  0  0  0  0
   -2.1703    1.1240   10.0233 C   0  0  0  0  0  0  0  0  0  0  0  0
   -1.6298    0.8320   11.2555 C   0  0  0  0  0  0  0  0  0  0  0  0
   -2.4680    0.5791   12.3197 C   0  0  0  0  0  0  0  0  0  0  0  0
   -3.8430    0.6012   12.2232 C   0  0  0  0  0  0  0  0  0  0  0  0
   -4.3761    0.9004   10.9600 C   0  0  0  0  0  0  0  0  0  0  0  0
   -5.6749    1.0083   10.5011 O   0  0  0  0  0  0  0  0  0  0  0  0
  1  2  1  0
  2  3  1  0
  2  4  1  0
  4  5  1  0
  5  6  2  0
  6  7  1  0
  7  8  2  0
  8  9  1  0
  9 10  2  0
  8 11  1  0
  7 12  1  0
  4 13  1  0
 13 14  2  0
 13 15  1  0
 15 16  1  0
 16 17  1  0
 17 18  1  0
 18 19  1  0
 19 20  1  0
 18 21  1  0
 21 22  1  0
 22 23  2  0
 23 24  1  0
 24 25  2  0
 25 26  1  0
 26 27  2  0
 27 28  1  0
 10  5  1  0
 20 15  1  0
 28 18  1  0
 27 22  1  0
M  END
$$$$
