
     RDKit          3D

 28 31  0  0  0  0  0  0  0  0999 V2000
  -11.2935    5.0807   13.4298 C   0  0  0  0  0  0  0  0  0  0  0  0
  -11.6144    3.6525   13.5798 C   0  0  0  0  0  0  0  0  0  0  0  0
  -12.1947    3.3212   14.9582 C   0  0  0  0  0  0  0  0  0  0  0  0
  -10.5155    2.6614   13.2455 C   0  0  0  0  0  0  0  0  0  0  0  0
  -10.7187    1.4532   14.1529 C   0  0  0  0  0  0  0  0  0  0  0  0
   -9.7851    1.1057   15.1006 C   0  0  0  0  0  0  0  0  0  0  0  0
   -9.9727   -0.0007   15.9301 C   0  0  0  0  0  0  0  0  0  0  0  0
  -11.1036   -0.7767   15.8203 C   0  0  0  0  0  0  0  0  0  0  0  0
  -12.0391   -0.4296   14.8717 C   0  0  0  0  0  0  0  0  0  0  0  0
  -11.8468    0.6733   14.0484 C   0  0  0  0  0  0  0  0  0  0  0  0
  -11.3498   -2.1818   16.8682 Cl  0  0  0  0  0  0  0  0  0  0  0  0
   -8.7776   -0.4375   17.1363 Cl  0  0  0  0  0  0  0  0  0  0  0  0
  -10.4969    2.2271   11.8476 C   0  0  0  0  0  0  0  0  0  0  0  0
  -11.3723    2.7534   11.0655 O   0  0  0  0  0  0  0  0  0  0  0  0
   -9.6021    1.2801   11.2981 N   0  0  0  0  0  0  0  0  0  0  0  0
   -8.5045    0.7633   12.1467 C   0  0  0  0  0  0  0  0  0  0  0  0
   -7.1976    1.3738   11.6584 C   0  0  0  0  0  0  0  0  0  0  0  0
   -7.3036    1.6747   10.1989 C   0  0  0  0  0  0  0  0  0  0  0  0
   -8.1789    0.6738    9.4805 C   0  0  0  0  0  0  0  0  0  0  0  0
   -9.6194    0.7721    9.9547 C   0  0  0  0  0  0  0  0  0  0  0  0
   -6.0393    1.7021    9.5399 O   0  0  0  0  0  0  0  0  0  0  0  0
   -6.1141    2.5885    8.4721 C   0  0  0  0  0  0  0  0  0  0  0  0
   -5.3305    2.7513    7.3529 C   0  0  0  0  0  0  0  0  0  0  0  0
   -5.6644    3.7385    6.4532 C   0  0  0  0  0  0  0  0  0  0  0  0
   -6.7655    4.5310    6.6954 C   0  0  0  0  0  0  0  0  0  0  0  0
   -7.5693    4.3922    7.8067 C   0  0  0  0  0  0  0  0  0  0  0  0
   -7.2140    3.3811    8.7127 C   0  0  0  0  0  0  0  0  0  0  0  0
   -7.7731    2.9630    9.9051 O   0  0  0  0  0  0  0  0  0  0  0  0
  1  2  1  0
  2  3  1  0
  2  4  1  0
  4  5  1  0
  5  6  2  0
  6  7  1  0
  7  8  2  0
  8  9  1  0
  9 10  2  0
  8 11  1  0
  7 12  1  0
  4 13  1  0
 13 14  2  0
 13 15  1  0
 15 16  1  0
 16 17  1  0
 17 18  1  0
 18 19  1  0
 19 20  1  0
 18 21  1  0
 21 22  1  0
 22 23  2  0
 23 24  1  0
 24 25  2  0
 25 26  1  0
 26 27  2  0
 27 28  1  0
 10  5  1  0
 20 15  1  0
 28 18  1  0
 27 22  1  0
M  END
$$$$
