
     RDKit          3D

 28 31  0  0  0  0  0  0  0  0999 V2000
   -2.3489   -1.3277    3.6127 C   0  0  0  0  0  0  0  0  0  0  0  0
   -1.5561   -0.3934    4.4274 C   0  0  0  0  0  0  0  0  0  0  0  0
   -0.2410   -1.0083    4.9160 C   0  0  0  0  0  0  0  0  0  0  0  0
   -2.2625    0.2741    5.5924 C   0  0  0  0  0  0  0  0  0  0  0  0
   -1.2489    0.3711    6.7271 C   0  0  0  0  0  0  0  0  0  0  0  0
   -1.4434   -0.2885    7.9178 C   0  0  0  0  0  0  0  0  0  0  0  0
   -0.5147   -0.1985    8.9555 C   0  0  0  0  0  0  0  0  0  0  0  0
    0.6263    0.5572    8.8128 C   0  0  0  0  0  0  0  0  0  0  0  0
    0.8220    1.2181    7.6209 C   0  0  0  0  0  0  0  0  0  0  0  0
   -0.1063    1.1247    6.5911 C   0  0  0  0  0  0  0  0  0  0  0  0
    1.8096    0.6772   10.1236 Cl  0  0  0  0  0  0  0  0  0  0  0  0
   -0.7697   -1.0425   10.4709 Cl  0  0  0  0  0  0  0  0  0  0  0  0
   -2.7947    1.6052    5.2952 C   0  0  0  0  0  0  0  0  0  0  0  0
   -2.3605    2.1780    4.2283 O   0  0  0  0  0  0  0  0  0  0  0  0
   -3.7365    2.3036    6.0856 N   0  0  0  0  0  0  0  0  0  0  0  0
   -4.6714    3.2375    5.4180 C   0  0  0  0  0  0  0  0  0  0  0  0
   -4.2455    4.6600    5.7560 C   0  0  0  0  0  0  0  0  0  0  0  0
   -3.5670    4.6733    7.0871 C   0  0  0  0  0  0  0  0  0  0  0  0
   -4.1445    3.6366    8.0229 C   0  0  0  0  0  0  0  0  0  0  0  0
   -3.8698    2.2313    7.5138 C   0  0  0  0  0  0  0  0  0  0  0  0
   -3.6390    5.9394    7.7392 O   0  0  0  0  0  0  0  0  0  0  0  0
   -2.5144    6.0901    8.5417 C   0  0  0  0  0  0  0  0  0  0  0  0
   -2.2401    6.9316    9.5952 C   0  0  0  0  0  0  0  0  0  0  0  0
   -1.0087    6.8438   10.2048 C   0  0  0  0  0  0  0  0  0  0  0  0
   -0.0910    5.9230    9.7475 C   0  0  0  0  0  0  0  0  0  0  0  0
   -0.3364    5.0671    8.6951 C   0  0  0  0  0  0  0  0  0  0  0  0
   -1.5964    5.1707    8.0859 C   0  0  0  0  0  0  0  0  0  0  0  0
   -2.1775    4.4929    7.0313 O   0  0  0  0  0  0  0  0  0  0  0  0
  1  2  1  0
  2  3  1  0
  2  4  1  0
  4  5  1  0
  5  6  2  0
  6  7  1  0
  7  8  2  0
  8  9  1  0
  9 10  2  0
  8 11  1  0
  7 12  1  0
  4 13  1  0
 13 14  2  0
 13 15  1  0
 15 16  1  0
 16 17  1  0
 17 18  1  0
 18 19  1  0
 19 20  1  0
 18 21  1  0
 21 22  1  0
 22 23  2  0
 23 24  1  0
 24 25  2  0
 25 26  1  0
 26 27  2  0
 27 28  1  0
 10  5  1  0
 20 15  1  0
 28 18  1  0
 27 22  1  0
M  END
$$$$
