
     RDKit          3D

 28 31  0  0  0  0  0  0  0  0999 V2000
   -9.8332    6.1785   11.4185 C   0  0  0  0  0  0  0  0  0  0  0  0
  -10.6561    4.9968   11.7217 C   0  0  0  0  0  0  0  0  0  0  0  0
  -11.9002    5.3417   12.5459 C   0  0  0  0  0  0  0  0  0  0  0  0
   -9.9504    3.8094   12.3493 C   0  0  0  0  0  0  0  0  0  0  0  0
  -10.8484    3.3049   13.4732 C   0  0  0  0  0  0  0  0  0  0  0  0
  -11.9328    2.4997   13.2152 C   0  0  0  0  0  0  0  0  0  0  0  0
  -12.7539    2.0390   14.2452 C   0  0  0  0  0  0  0  0  0  0  0  0
  -12.4978    2.3806   15.5533 C   0  0  0  0  0  0  0  0  0  0  0  0
  -11.4122    3.1868   15.8127 C   0  0  0  0  0  0  0  0  0  0  0  0
  -10.5981    3.6426   14.7828 C   0  0  0  0  0  0  0  0  0  0  0  0
  -13.5339    1.8009   16.8661 Cl  0  0  0  0  0  0  0  0  0  0  0  0
  -14.1348    1.0126   13.9082 Cl  0  0  0  0  0  0  0  0  0  0  0  0
   -9.6655    2.7144   11.4203 C   0  0  0  0  0  0  0  0  0  0  0  0
   -9.7218    2.9899   10.1649 O   0  0  0  0  0  0  0  0  0  0  0  0
   -9.3406    1.3898   11.7937 N   0  0  0  0  0  0  0  0  0  0  0  0
   -8.9303    1.1257   13.1914 C   0  0  0  0  0  0  0  0  0  0  0  0
   -7.4330    0.8473   13.2034 C   0  0  0  0  0  0  0  0  0  0  0  0
   -7.0259    0.2587   11.8919 C   0  0  0  0  0  0  0  0  0  0  0  0
   -8.1185   -0.5993   11.2971 C   0  0  0  0  0  0  0  0  0  0  0  0
   -9.3315    0.2405   10.9324 C   0  0  0  0  0  0  0  0  0  0  0  0
   -5.8444   -0.5352   11.9776 O   0  0  0  0  0  0  0  0  0  0  0  0
   -5.1790   -0.4742   10.7590 C   0  0  0  0  0  0  0  0  0  0  0  0
   -4.2073   -1.2711   10.1988 C   0  0  0  0  0  0  0  0  0  0  0  0
   -3.7330   -0.9495    8.9469 C   0  0  0  0  0  0  0  0  0  0  0  0
   -4.2399    0.1529    8.2934 C   0  0  0  0  0  0  0  0  0  0  0  0
   -5.2129    0.9698    8.8283 C   0  0  0  0  0  0  0  0  0  0  0  0
   -5.6844    0.6270   10.1049 C   0  0  0  0  0  0  0  0  0  0  0  0
   -6.6317    1.2009   10.9310 O   0  0  0  0  0  0  0  0  0  0  0  0
  1  2  1  0
  2  3  1  0
  2  4  1  0
  4  5  1  0
  5  6  2  0
  6  7  1  0
  7  8  2  0
  8  9  1  0
  9 10  2  0
  8 11  1  0
  7 12  1  0
  4 13  1  0
 13 14  2  0
 13 15  1  0
 15 16  1  0
 16 17  1  0
 17 18  1  0
 18 19  1  0
 19 20  1  0
 18 21  1  0
 21 22  1  0
 22 23  2  0
 23 24  1  0
 24 25  2  0
 25 26  1  0
 26 27  2  0
 27 28  1  0
 10  5  1  0
 20 15  1  0
 28 18  1  0
 27 22  1  0
M  END
$$$$
