
     RDKit          3D

 28 31  0  0  0  0  0  0  0  0999 V2000
   -7.0020    4.9204   11.5713 C   0  0  0  0  0  0  0  0  0  0  0  0
   -8.0750    4.0914   10.9999 C   0  0  0  0  0  0  0  0  0  0  0  0
   -9.3317    4.0695   11.8755 C   0  0  0  0  0  0  0  0  0  0  0  0
   -7.7122    2.6720   10.6056 C   0  0  0  0  0  0  0  0  0  0  0  0
   -9.0213    1.9426   10.3254 C   0  0  0  0  0  0  0  0  0  0  0  0
   -9.6265    1.1656   11.2849 C   0  0  0  0  0  0  0  0  0  0  0  0
  -10.8247    0.4986   11.0266 C   0  0  0  0  0  0  0  0  0  0  0  0
  -11.4349    0.6020    9.7977 C   0  0  0  0  0  0  0  0  0  0  0  0
  -10.8298    1.3798    8.8362 C   0  0  0  0  0  0  0  0  0  0  0  0
   -9.6366    2.0417    9.0992 C   0  0  0  0  0  0  0  0  0  0  0  0
  -12.9547   -0.2406    9.4611 Cl  0  0  0  0  0  0  0  0  0  0  0  0
  -11.5903   -0.4904   12.2553 Cl  0  0  0  0  0  0  0  0  0  0  0  0
   -6.8362    2.5736    9.4368 C   0  0  0  0  0  0  0  0  0  0  0  0
   -6.5554    3.6721    8.8289 O   0  0  0  0  0  0  0  0  0  0  0  0
   -6.2843    1.3753    8.9279 N   0  0  0  0  0  0  0  0  0  0  0  0
   -6.4530    0.1279    9.7072 C   0  0  0  0  0  0  0  0  0  0  0  0
   -5.1086   -0.2327   10.3252 C   0  0  0  0  0  0  0  0  0  0  0  0
   -4.0076    0.2892    9.4606 C   0  0  0  0  0  0  0  0  0  0  0  0
   -4.3845    0.2701    7.9972 C   0  0  0  0  0  0  0  0  0  0  0  0
   -5.5250    1.2347    7.7169 C   0  0  0  0  0  0  0  0  0  0  0  0
   -2.7888   -0.4365    9.6076 O   0  0  0  0  0  0  0  0  0  0  0  0
   -1.7265    0.4246    9.3600 C   0  0  0  0  0  0  0  0  0  0  0  0
   -0.4053    0.1937    9.0532 C   0  0  0  0  0  0  0  0  0  0  0  0
    0.4244    1.2752    8.8593 C   0  0  0  0  0  0  0  0  0  0  0  0
   -0.0862    2.5498    8.9765 C   0  0  0  0  0  0  0  0  0  0  0  0
   -1.4043    2.8129    9.2825 C   0  0  0  0  0  0  0  0  0  0  0  0
   -2.2352    1.6988    9.4768 C   0  0  0  0  0  0  0  0  0  0  0  0
   -3.5762    1.5825    9.7888 O   0  0  0  0  0  0  0  0  0  0  0  0
  1  2  1  0
  2  3  1  0
  2  4  1  0
  4  5  1  0
  5  6  2  0
  6  7  1  0
  7  8  2  0
  8  9  1  0
  9 10  2  0
  8 11  1  0
  7 12  1  0
  4 13  1  0
 13 14  2  0
 13 15  1  0
 15 16  1  0
 16 17  1  0
 17 18  1  0
 18 19  1  0
 19 20  1  0
 18 21  1  0
 21 22  1  0
 22 23  2  0
 23 24  1  0
 24 25  2  0
 25 26  1  0
 26 27  2  0
 27 28  1  0
 10  5  1  0
 20 15  1  0
 28 18  1  0
 27 22  1  0
M  END
$$$$
