
     RDKit          3D

 28 31  0  0  0  0  0  0  0  0999 V2000
   -6.0910   -0.0770    3.7260 C   0  0  0  0  0  0  0  0  0  0  0  0
   -5.5596   -0.2402    5.0885 C   0  0  0  0  0  0  0  0  0  0  0  0
   -6.6039   -0.7881    6.0660 C   0  0  0  0  0  0  0  0  0  0  0  0
   -4.8731    0.9626    5.7081 C   0  0  0  0  0  0  0  0  0  0  0  0
   -4.4605    0.5580    7.1189 C   0  0  0  0  0  0  0  0  0  0  0  0
   -5.0165    1.1554    8.2255 C   0  0  0  0  0  0  0  0  0  0  0  0
   -4.6374    0.7839    9.5161 C   0  0  0  0  0  0  0  0  0  0  0  0
   -3.6920   -0.1957    9.7155 C   0  0  0  0  0  0  0  0  0  0  0  0
   -3.1347   -0.7947    8.6081 C   0  0  0  0  0  0  0  0  0  0  0  0
   -3.5161   -0.4205    7.3253 C   0  0  0  0  0  0  0  0  0  0  0  0
   -3.2051   -0.6733   11.3489 Cl  0  0  0  0  0  0  0  0  0  0  0  0
   -5.3509    1.5504   10.9223 Cl  0  0  0  0  0  0  0  0  0  0  0  0
   -3.7003    1.4363    4.9711 C   0  0  0  0  0  0  0  0  0  0  0  0
   -2.9325    0.5374    4.4637 O   0  0  0  0  0  0  0  0  0  0  0  0
   -3.3484    2.7925    4.7800 N   0  0  0  0  0  0  0  0  0  0  0  0
   -2.3882    3.1332    3.7058 C   0  0  0  0  0  0  0  0  0  0  0  0
   -1.0642    3.5149    4.3544 C   0  0  0  0  0  0  0  0  0  0  0  0
   -1.3208    4.0840    5.7117 C   0  0  0  0  0  0  0  0  0  0  0  0
   -2.6266    4.8430    5.7656 C   0  0  0  0  0  0  0  0  0  0  0  0
   -3.8074    3.9089    5.5583 C   0  0  0  0  0  0  0  0  0  0  0  0
   -0.2872    4.9605    6.1555 O   0  0  0  0  0  0  0  0  0  0  0  0
   -0.2215    4.9032    7.5425 C   0  0  0  0  0  0  0  0  0  0  0  0
    0.3408    5.7453    8.4740 C   0  0  0  0  0  0  0  0  0  0  0  0
    0.2410    5.4139    9.8066 C   0  0  0  0  0  0  0  0  0  0  0  0
   -0.4139    4.2569   10.1692 C   0  0  0  0  0  0  0  0  0  0  0  0
   -0.9869    3.3936    9.2599 C   0  0  0  0  0  0  0  0  0  0  0  0
   -0.8755    3.7474    7.9064 C   0  0  0  0  0  0  0  0  0  0  0  0
   -1.3165    3.1384    6.7472 O   0  0  0  0  0  0  0  0  0  0  0  0
  1  2  1  0
  2  3  1  0
  2  4  1  0
  4  5  1  0
  5  6  2  0
  6  7  1  0
  7  8  2  0
  8  9  1  0
  9 10  2  0
  8 11  1  0
  7 12  1  0
  4 13  1  0
 13 14  2  0
 13 15  1  0
 15 16  1  0
 16 17  1  0
 17 18  1  0
 18 19  1  0
 19 20  1  0
 18 21  1  0
 21 22  1  0
 22 23  2  0
 23 24  1  0
 24 25  2  0
 25 26  1  0
 26 27  2  0
 27 28  1  0
 10  5  1  0
 20 15  1  0
 28 18  1  0
 27 22  1  0
M  END
$$$$
