
     RDKit          3D

 28 31  0  0  0  0  0  0  0  0999 V2000
   -5.5249   -3.0603   11.0581 C   0  0  0  0  0  0  0  0  0  0  0  0
   -6.5790   -2.0399   10.9441 C   0  0  0  0  0  0  0  0  0  0  0  0
   -7.8795   -2.5999   10.3598 C   0  0  0  0  0  0  0  0  0  0  0  0
   -6.2173   -0.7541   10.2248 C   0  0  0  0  0  0  0  0  0  0  0  0
   -7.2648    0.2818   10.6173 C   0  0  0  0  0  0  0  0  0  0  0  0
   -7.2938    1.5261   10.0329 C   0  0  0  0  0  0  0  0  0  0  0  0
   -8.2533    2.4731   10.3936 C   0  0  0  0  0  0  0  0  0  0  0  0
   -9.2005    2.1842   11.3489 C   0  0  0  0  0  0  0  0  0  0  0  0
   -9.1723    0.9385   11.9346 C   0  0  0  0  0  0  0  0  0  0  0  0
   -8.2144   -0.0005   11.5714 C   0  0  0  0  0  0  0  0  0  0  0  0
  -10.4210    3.3792   11.8127 Cl  0  0  0  0  0  0  0  0  0  0  0  0
   -8.2839    4.0578    9.6439 Cl  0  0  0  0  0  0  0  0  0  0  0  0
   -4.8813   -0.2422   10.5350 C   0  0  0  0  0  0  0  0  0  0  0  0
   -4.6832    0.1696   11.7376 O   0  0  0  0  0  0  0  0  0  0  0  0
   -3.8043   -0.1630    9.6220 N   0  0  0  0  0  0  0  0  0  0  0  0
   -2.4264   -0.0676   10.1548 C   0  0  0  0  0  0  0  0  0  0  0  0
   -1.9254    1.3525    9.9274 C   0  0  0  0  0  0  0  0  0  0  0  0
   -2.5962    1.9300    8.7238 C   0  0  0  0  0  0  0  0  0  0  0  0
   -2.8840    0.8755    7.6801 C   0  0  0  0  0  0  0  0  0  0  0  0
   -3.9034   -0.1299    8.1896 C   0  0  0  0  0  0  0  0  0  0  0  0
   -1.8366    2.9645    8.1022 O   0  0  0  0  0  0  0  0  0  0  0  0
   -2.7134    3.8559    7.4955 C   0  0  0  0  0  0  0  0  0  0  0  0
   -2.5295    4.8112    6.5225 C   0  0  0  0  0  0  0  0  0  0  0  0
   -3.6145    5.5555    6.1171 C   0  0  0  0  0  0  0  0  0  0  0  0
   -4.8459    5.3259    6.6918 C   0  0  0  0  0  0  0  0  0  0  0  0
   -5.0614    4.3767    7.6680 C   0  0  0  0  0  0  0  0  0  0  0  0
   -3.9443    3.6277    8.0688 C   0  0  0  0  0  0  0  0  0  0  0  0
   -3.7876    2.6169    8.9978 O   0  0  0  0  0  0  0  0  0  0  0  0
  1  2  1  0
  2  3  1  0
  2  4  1  0
  4  5  1  0
  5  6  2  0
  6  7  1  0
  7  8  2  0
  8  9  1  0
  9 10  2  0
  8 11  1  0
  7 12  1  0
  4 13  1  0
 13 14  2  0
 13 15  1  0
 15 16  1  0
 16 17  1  0
 17 18  1  0
 18 19  1  0
 19 20  1  0
 18 21  1  0
 21 22  1  0
 22 23  2  0
 23 24  1  0
 24 25  2  0
 25 26  1  0
 26 27  2  0
 27 28  1  0
 10  5  1  0
 20 15  1  0
 28 18  1  0
 27 22  1  0
M  END
$$$$
