
     RDKit          3D

 28 31  0  0  0  0  0  0  0  0999 V2000
  -13.0274    4.0246   13.0343 C   0  0  0  0  0  0  0  0  0  0  0  0
  -12.1173    2.9524   12.6012 C   0  0  0  0  0  0  0  0  0  0  0  0
  -12.7521    1.5625   12.7084 C   0  0  0  0  0  0  0  0  0  0  0  0
  -10.7373    2.9248   13.2310 C   0  0  0  0  0  0  0  0  0  0  0  0
  -10.9399    2.7553   14.7325 C   0  0  0  0  0  0  0  0  0  0  0  0
  -11.0330    1.5087   15.3052 C   0  0  0  0  0  0  0  0  0  0  0  0
  -11.2186    1.3554   16.6797 C   0  0  0  0  0  0  0  0  0  0  0  0
  -11.3139    2.4544   17.5021 C   0  0  0  0  0  0  0  0  0  0  0  0
  -11.2208    3.7031   16.9298 C   0  0  0  0  0  0  0  0  0  0  0  0
  -11.0359    3.8496   15.5603 C   0  0  0  0  0  0  0  0  0  0  0  0
  -11.5495    2.2694   19.2466 Cl  0  0  0  0  0  0  0  0  0  0  0  0
  -11.3363   -0.2377   17.4026 Cl  0  0  0  0  0  0  0  0  0  0  0  0
   -9.8649    1.8610   12.7308 C   0  0  0  0  0  0  0  0  0  0  0  0
   -9.1998    1.1961   13.6086 O   0  0  0  0  0  0  0  0  0  0  0  0
   -9.6962    1.5149   11.3702 N   0  0  0  0  0  0  0  0  0  0  0  0
   -9.2756    0.1357   11.0344 C   0  0  0  0  0  0  0  0  0  0  0  0
   -7.8255    0.1797   10.5712 C   0  0  0  0  0  0  0  0  0  0  0  0
   -7.5393    1.5115    9.9577 C   0  0  0  0  0  0  0  0  0  0  0  0
   -8.7501    2.0776    9.2524 C   0  0  0  0  0  0  0  0  0  0  0  0
   -9.8599    2.3895   10.2427 C   0  0  0  0  0  0  0  0  0  0  0  0
   -6.4644    1.4769    9.0213 O   0  0  0  0  0  0  0  0  0  0  0  0
   -5.8377    2.7173    9.0184 C   0  0  0  0  0  0  0  0  0  0  0  0
   -4.9927    3.3208    8.1157 C   0  0  0  0  0  0  0  0  0  0  0  0
   -4.5240    4.5847    8.3958 C   0  0  0  0  0  0  0  0  0  0  0  0
   -4.9104    5.2068    9.5631 C   0  0  0  0  0  0  0  0  0  0  0  0
   -5.7550    4.6284   10.4864 C   0  0  0  0  0  0  0  0  0  0  0  0
   -6.2228    3.3402   10.1845 C   0  0  0  0  0  0  0  0  0  0  0  0
   -7.0626    2.4745   10.8587 O   0  0  0  0  0  0  0  0  0  0  0  0
  1  2  1  0
  2  3  1  0
  2  4  1  0
  4  5  1  0
  5  6  2  0
  6  7  1  0
  7  8  2  0
  8  9  1  0
  9 10  2  0
  8 11  1  0
  7 12  1  0
  4 13  1  0
 13 14  2  0
 13 15  1  0
 15 16  1  0
 16 17  1  0
 17 18  1  0
 18 19  1  0
 19 20  1  0
 18 21  1  0
 21 22  1  0
 22 23  2  0
 23 24  1  0
 24 25  2  0
 25 26  1  0
 26 27  2  0
 27 28  1  0
 10  5  1  0
 20 15  1  0
 28 18  1  0
 27 22  1  0
M  END
$$$$
