
     RDKit          3D

 28 31  0  0  0  0  0  0  0  0999 V2000
   -5.6683    1.4639    8.5918 C   0  0  0  0  0  0  0  0  0  0  0  0
   -7.1041    1.7174    8.3925 C   0  0  0  0  0  0  0  0  0  0  0  0
   -7.3810    2.6137    7.1816 C   0  0  0  0  0  0  0  0  0  0  0  0
   -7.8846    2.2315    9.5876 C   0  0  0  0  0  0  0  0  0  0  0  0
   -9.2630    2.6339    9.0755 C   0  0  0  0  0  0  0  0  0  0  0  0
  -10.2699    1.7088    8.9301 C   0  0  0  0  0  0  0  0  0  0  0  0
  -11.5310    2.0790    8.4610 C   0  0  0  0  0  0  0  0  0  0  0  0
  -11.8007    3.3870    8.1299 C   0  0  0  0  0  0  0  0  0  0  0  0
  -10.7933    4.3141    8.2752 C   0  0  0  0  0  0  0  0  0  0  0  0
   -9.5394    3.9396    8.7428 C   0  0  0  0  0  0  0  0  0  0  0  0
  -13.3973    3.8655    7.5341 Cl  0  0  0  0  0  0  0  0  0  0  0  0
  -12.8098    0.8936    8.2783 Cl  0  0  0  0  0  0  0  0  0  0  0  0
   -8.0294    1.2646   10.6772 C   0  0  0  0  0  0  0  0  0  0  0  0
   -8.1086    0.0243   10.3448 O   0  0  0  0  0  0  0  0  0  0  0  0
   -8.0925    1.5870   12.0526 N   0  0  0  0  0  0  0  0  0  0  0  0
   -7.7698    0.5364   13.0445 C   0  0  0  0  0  0  0  0  0  0  0  0
   -9.0662    0.0984   13.7127 C   0  0  0  0  0  0  0  0  0  0  0  0
  -10.0365    1.2344   13.7089 C   0  0  0  0  0  0  0  0  0  0  0  0
   -9.3397    2.5696   13.8347 C   0  0  0  0  0  0  0  0  0  0  0  0
   -8.4797    2.8512   12.6137 C   0  0  0  0  0  0  0  0  0  0  0  0
  -11.0049    1.1468   14.7520 O   0  0  0  0  0  0  0  0  0  0  0  0
  -12.1768    1.7580   14.3226 C   0  0  0  0  0  0  0  0  0  0  0  0
  -13.2728    2.2321   15.0061 C   0  0  0  0  0  0  0  0  0  0  0  0
  -14.3016    2.7995   14.2883 C   0  0  0  0  0  0  0  0  0  0  0  0
  -14.2072    2.8770   12.9157 C   0  0  0  0  0  0  0  0  0  0  0  0
  -13.1229    2.4112   12.2031 C   0  0  0  0  0  0  0  0  0  0  0  0
  -12.0840    1.8361   12.9510 C   0  0  0  0  0  0  0  0  0  0  0  0
  -10.8743    1.2775   12.5852 O   0  0  0  0  0  0  0  0  0  0  0  0
  1  2  1  0
  2  3  1  0
  2  4  1  0
  4  5  1  0
  5  6  2  0
  6  7  1  0
  7  8  2  0
  8  9  1  0
  9 10  2  0
  8 11  1  0
  7 12  1  0
  4 13  1  0
 13 14  2  0
 13 15  1  0
 15 16  1  0
 16 17  1  0
 17 18  1  0
 18 19  1  0
 19 20  1  0
 18 21  1  0
 21 22  1  0
 22 23  2  0
 23 24  1  0
 24 25  2  0
 25 26  1  0
 26 27  2  0
 27 28  1  0
 10  5  1  0
 20 15  1  0
 28 18  1  0
 27 22  1  0
M  END
$$$$
