
     RDKit          3D

 28 31  0  0  0  0  0  0  0  0999 V2000
   -5.1973    0.8342    6.1595 C   0  0  0  0  0  0  0  0  0  0  0  0
   -4.5198    1.1016    7.4381 C   0  0  0  0  0  0  0  0  0  0  0  0
   -3.2559    0.2562    7.6226 C   0  0  0  0  0  0  0  0  0  0  0  0
   -5.3657    1.0221    8.6950 C   0  0  0  0  0  0  0  0  0  0  0  0
   -4.4023    0.8818    9.8682 C   0  0  0  0  0  0  0  0  0  0  0  0
   -4.2131   -0.3260   10.4975 C   0  0  0  0  0  0  0  0  0  0  0  0
   -3.3309   -0.4525   11.5713 C   0  0  0  0  0  0  0  0  0  0  0  0
   -2.6236    0.6347   12.0307 C   0  0  0  0  0  0  0  0  0  0  0  0
   -2.8123    1.8445   11.4012 C   0  0  0  0  0  0  0  0  0  0  0  0
   -3.6922    1.9645   10.3323 C   0  0  0  0  0  0  0  0  0  0  0  0
   -1.5027    0.4835   13.3921 Cl  0  0  0  0  0  0  0  0  0  0  0  0
   -3.0950   -1.9961   12.3687 Cl  0  0  0  0  0  0  0  0  0  0  0  0
   -6.2374    2.1781    8.9119 C   0  0  0  0  0  0  0  0  0  0  0  0
   -6.4142    2.9666    7.9109 O   0  0  0  0  0  0  0  0  0  0  0  0
   -6.8898    2.4929   10.1264 N   0  0  0  0  0  0  0  0  0  0  0  0
   -6.8143    1.5264   11.2452 C   0  0  0  0  0  0  0  0  0  0  0  0
   -8.1768    0.8623   11.3933 C   0  0  0  0  0  0  0  0  0  0  0  0
   -9.2411    1.8008   10.9259 C   0  0  0  0  0  0  0  0  0  0  0  0
   -8.8825    3.2421   11.2055 C   0  0  0  0  0  0  0  0  0  0  0  0
   -7.6709    3.6684   10.3933 C   0  0  0  0  0  0  0  0  0  0  0  0
  -10.5129    1.5441   11.5177 O   0  0  0  0  0  0  0  0  0  0  0  0
  -11.5047    1.9267   10.6225 C   0  0  0  0  0  0  0  0  0  0  0  0
  -12.8435    2.1961   10.7903 C   0  0  0  0  0  0  0  0  0  0  0  0
  -13.5850    2.5600    9.6888 C   0  0  0  0  0  0  0  0  0  0  0  0
  -12.9719    2.6440    8.4575 C   0  0  0  0  0  0  0  0  0  0  0  0
  -11.6336    2.3804    8.2578 C   0  0  0  0  0  0  0  0  0  0  0  0
  -10.8935    2.0110    9.3915 C   0  0  0  0  0  0  0  0  0  0  0  0
   -9.5630    1.6816    9.5663 O   0  0  0  0  0  0  0  0  0  0  0  0
  1  2  1  0
  2  3  1  0
  2  4  1  0
  4  5  1  0
  5  6  2  0
  6  7  1  0
  7  8  2  0
  8  9  1  0
  9 10  2  0
  8 11  1  0
  7 12  1  0
  4 13  1  0
 13 14  2  0
 13 15  1  0
 15 16  1  0
 16 17  1  0
 17 18  1  0
 18 19  1  0
 19 20  1  0
 18 21  1  0
 21 22  1  0
 22 23  2  0
 23 24  1  0
 24 25  2  0
 25 26  1  0
 26 27  2  0
 27 28  1  0
 10  5  1  0
 20 15  1  0
 28 18  1  0
 27 22  1  0
M  END
$$$$
