
     RDKit          3D

 28 31  0  0  0  0  0  0  0  0999 V2000
   -9.2441    1.6760    8.9894 C   0  0  0  0  0  0  0  0  0  0  0  0
   -7.8202    1.7860    9.3439 C   0  0  0  0  0  0  0  0  0  0  0  0
   -7.5984    2.5246   10.6674 C   0  0  0  0  0  0  0  0  0  0  0  0
   -6.8902    2.3550    8.2888 C   0  0  0  0  0  0  0  0  0  0  0  0
   -5.5120    2.4708    8.9301 C   0  0  0  0  0  0  0  0  0  0  0  0
   -4.7514    1.3567    9.1964 C   0  0  0  0  0  0  0  0  0  0  0  0
   -3.4901    1.4646    9.7837 C   0  0  0  0  0  0  0  0  0  0  0  0
   -2.9722    2.6960   10.1134 C   0  0  0  0  0  0  0  0  0  0  0  0
   -3.7330    3.8122    9.8472 C   0  0  0  0  0  0  0  0  0  0  0  0
   -4.9884    3.6986    9.2622 C   0  0  0  0  0  0  0  0  0  0  0  0
   -1.3735    2.8423   10.8587 Cl  0  0  0  0  0  0  0  0  0  0  0  0
   -2.5261    0.0392   10.1200 Cl  0  0  0  0  0  0  0  0  0  0  0  0
   -6.7970    1.5525    7.0679 C   0  0  0  0  0  0  0  0  0  0  0  0
   -6.8929    0.2768    7.2042 O   0  0  0  0  0  0  0  0  0  0  0  0
   -6.6074    2.0669    5.7645 N   0  0  0  0  0  0  0  0  0  0  0  0
   -7.1570    1.3122    4.6155 C   0  0  0  0  0  0  0  0  0  0  0  0
   -5.9958    0.6674    3.8704 C   0  0  0  0  0  0  0  0  0  0  0  0
   -4.7661    1.4962    4.0525 C   0  0  0  0  0  0  0  0  0  0  0  0
   -5.0907    2.9685    4.1572 C   0  0  0  0  0  0  0  0  0  0  0  0
   -5.8891    3.2611    5.4168 C   0  0  0  0  0  0  0  0  0  0  0  0
   -3.8190    1.3311    2.9992 O   0  0  0  0  0  0  0  0  0  0  0  0
   -2.5441    1.5387    3.5119 C   0  0  0  0  0  0  0  0  0  0  0  0
   -1.3409    1.8167    2.9051 C   0  0  0  0  0  0  0  0  0  0  0  0
   -0.2250    1.9728    3.6963 C   0  0  0  0  0  0  0  0  0  0  0  0
   -0.3416    1.8476    5.0637 C   0  0  0  0  0  0  0  0  0  0  0  0
   -1.5324    1.5698    5.7004 C   0  0  0  0  0  0  0  0  0  0  0  0
   -2.6590    1.4138    4.8783 C   0  0  0  0  0  0  0  0  0  0  0  0
   -3.9833    1.1367    5.1590 O   0  0  0  0  0  0  0  0  0  0  0  0
  1  2  1  0
  2  3  1  0
  2  4  1  0
  4  5  1  0
  5  6  2  0
  6  7  1  0
  7  8  2  0
  8  9  1  0
  9 10  2  0
  8 11  1  0
  7 12  1  0
  4 13  1  0
 13 14  2  0
 13 15  1  0
 15 16  1  0
 16 17  1  0
 17 18  1  0
 18 19  1  0
 19 20  1  0
 18 21  1  0
 21 22  1  0
 22 23  2  0
 23 24  1  0
 24 25  2  0
 25 26  1  0
 26 27  2  0
 27 28  1  0
 10  5  1  0
 20 15  1  0
 28 18  1  0
 27 22  1  0
M  END
$$$$
