
     RDKit          3D

 28 31  0  0  0  0  0  0  0  0999 V2000
  -12.1219   -0.0600   16.8666 C   0  0  0  0  0  0  0  0  0  0  0  0
  -12.2973    0.4784   15.5085 C   0  0  0  0  0  0  0  0  0  0  0  0
  -11.0080    0.4251   14.6831 C   0  0  0  0  0  0  0  0  0  0  0  0
  -12.9133    1.8598   15.3900 C   0  0  0  0  0  0  0  0  0  0  0  0
  -11.8162    2.8635   15.7263 C   0  0  0  0  0  0  0  0  0  0  0  0
  -12.0767    3.9799   16.4855 C   0  0  0  0  0  0  0  0  0  0  0  0
  -11.0712    4.8977   16.7922 C   0  0  0  0  0  0  0  0  0  0  0  0
   -9.7856    4.7077   16.3400 C   0  0  0  0  0  0  0  0  0  0  0  0
   -9.5236    3.5902   15.5797 C   0  0  0  0  0  0  0  0  0  0  0  0
  -10.5290    2.6797   15.2775 C   0  0  0  0  0  0  0  0  0  0  0  0
   -8.5040    5.8666   16.7240 Cl  0  0  0  0  0  0  0  0  0  0  0  0
  -11.4112    6.3189   17.7609 Cl  0  0  0  0  0  0  0  0  0  0  0  0
  -13.4681    2.1639   14.0698 C   0  0  0  0  0  0  0  0  0  0  0  0
  -14.3279    1.3319   13.5968 O   0  0  0  0  0  0  0  0  0  0  0  0
  -13.1315    3.2884   13.2813 N   0  0  0  0  0  0  0  0  0  0  0  0
  -14.2192    4.1676   12.7960 C   0  0  0  0  0  0  0  0  0  0  0  0
  -14.3884    3.9342   11.3006 C   0  0  0  0  0  0  0  0  0  0  0  0
  -13.0831    3.5067   10.7129 C   0  0  0  0  0  0  0  0  0  0  0  0
  -11.9112    4.1486   11.4191 C   0  0  0  0  0  0  0  0  0  0  0  0
  -11.8124    3.6663   12.8569 C   0  0  0  0  0  0  0  0  0  0  0  0
  -12.9714    3.8034    9.3225 O   0  0  0  0  0  0  0  0  0  0  0  0
  -12.1432    2.8567    8.7314 C   0  0  0  0  0  0  0  0  0  0  0  0
  -11.4579    2.8484    7.5385 C   0  0  0  0  0  0  0  0  0  0  0  0
  -10.7026    1.7419    7.2207 C   0  0  0  0  0  0  0  0  0  0  0  0
  -10.6534    0.6809    8.0987 C   0  0  0  0  0  0  0  0  0  0  0  0
  -11.3286    0.6598    9.3004 C   0  0  0  0  0  0  0  0  0  0  0  0
  -12.0932    1.7958    9.6077 C   0  0  0  0  0  0  0  0  0  0  0  0
  -12.8820    2.1190   10.6951 O   0  0  0  0  0  0  0  0  0  0  0  0
  1  2  1  0
  2  3  1  0
  2  4  1  0
  4  5  1  0
  5  6  2  0
  6  7  1  0
  7  8  2  0
  8  9  1  0
  9 10  2  0
  8 11  1  0
  7 12  1  0
  4 13  1  0
 13 14  2  0
 13 15  1  0
 15 16  1  0
 16 17  1  0
 17 18  1  0
 18 19  1  0
 19 20  1  0
 18 21  1  0
 21 22  1  0
 22 23  2  0
 23 24  1  0
 24 25  2  0
 25 26  1  0
 26 27  2  0
 27 28  1  0
 10  5  1  0
 20 15  1  0
 28 18  1  0
 27 22  1  0
M  END
$$$$
