
     RDKit          3D

 28 31  0  0  0  0  0  0  0  0999 V2000
   -3.7755    1.2799    6.6318 C   0  0  0  0  0  0  0  0  0  0  0  0
   -5.1657    1.7618    6.6135 C   0  0  0  0  0  0  0  0  0  0  0  0
   -5.2602    3.2891    6.6825 C   0  0  0  0  0  0  0  0  0  0  0  0
   -6.1186    1.1530    7.6250 C   0  0  0  0  0  0  0  0  0  0  0  0
   -5.4907    1.3527    8.9998 C   0  0  0  0  0  0  0  0  0  0  0  0
   -5.4631    2.5893    9.6004 C   0  0  0  0  0  0  0  0  0  0  0  0
   -4.8878    2.7704   10.8588 C   0  0  0  0  0  0  0  0  0  0  0  0
   -4.3301    1.7096   11.5349 C   0  0  0  0  0  0  0  0  0  0  0  0
   -4.3572    0.4710   10.9345 C   0  0  0  0  0  0  0  0  0  0  0  0
   -4.9315    0.2967    9.6811 C   0  0  0  0  0  0  0  0  0  0  0  0
   -3.5981    1.9300   13.1314 Cl  0  0  0  0  0  0  0  0  0  0  0  0
   -4.8564    4.3504   11.6182 Cl  0  0  0  0  0  0  0  0  0  0  0  0
   -7.4643    1.7294    7.6121 C   0  0  0  0  0  0  0  0  0  0  0  0
   -7.5820    2.9158    7.1289 O   0  0  0  0  0  0  0  0  0  0  0  0
   -8.6317    1.0897    8.0891 N   0  0  0  0  0  0  0  0  0  0  0  0
   -9.9508    1.5974    7.6489 C   0  0  0  0  0  0  0  0  0  0  0  0
  -10.6006    2.3158    8.8241 C   0  0  0  0  0  0  0  0  0  0  0  0
  -10.1123    1.7190   10.1037 C   0  0  0  0  0  0  0  0  0  0  0  0
   -9.8374    0.2394    9.9653 C   0  0  0  0  0  0  0  0  0  0  0  0
   -8.6832   -0.0120    9.0092 C   0  0  0  0  0  0  0  0  0  0  0  0
  -11.0233    1.8949   11.1867 O   0  0  0  0  0  0  0  0  0  0  0  0
  -10.2988    1.9557   12.3711 C   0  0  0  0  0  0  0  0  0  0  0  0
  -10.6681    1.7942   13.6866 C   0  0  0  0  0  0  0  0  0  0  0  0
   -9.7032    1.9159   14.6611 C   0  0  0  0  0  0  0  0  0  0  0  0
   -8.4037    2.1938   14.2963 C   0  0  0  0  0  0  0  0  0  0  0  0
   -8.0032    2.3608   12.9878 C   0  0  0  0  0  0  0  0  0  0  0  0
   -8.9999    2.2334   12.0081 C   0  0  0  0  0  0  0  0  0  0  0  0
   -8.9672    2.3337   10.6303 O   0  0  0  0  0  0  0  0  0  0  0  0
  1  2  1  0
  2  3  1  0
  2  4  1  0
  4  5  1  0
  5  6  2  0
  6  7  1  0
  7  8  2  0
  8  9  1  0
  9 10  2  0
  8 11  1  0
  7 12  1  0
  4 13  1  0
 13 14  2  0
 13 15  1  0
 15 16  1  0
 16 17  1  0
 17 18  1  0
 18 19  1  0
 19 20  1  0
 18 21  1  0
 21 22  1  0
 22 23  2  0
 23 24  1  0
 24 25  2  0
 25 26  1  0
 26 27  2  0
 27 28  1  0
 10  5  1  0
 20 15  1  0
 28 18  1  0
 27 22  1  0
M  END
$$$$
