
     RDKit          3D

 28 31  0  0  0  0  0  0  0  0999 V2000
   -4.4907    0.9017    6.1145 C   0  0  0  0  0  0  0  0  0  0  0  0
   -3.8265    1.0189    7.4223 C   0  0  0  0  0  0  0  0  0  0  0  0
   -2.6509    0.0488    7.5745 C   0  0  0  0  0  0  0  0  0  0  0  0
   -4.7100    0.9352    8.6529 C   0  0  0  0  0  0  0  0  0  0  0  0
   -3.7827    0.7838    9.8534 C   0  0  0  0  0  0  0  0  0  0  0  0
   -3.7539   -0.3750   10.5930 C   0  0  0  0  0  0  0  0  0  0  0  0
   -2.9045   -0.5117   11.6918 C   0  0  0  0  0  0  0  0  0  0  0  0
   -2.0690    0.5158   12.0654 C   0  0  0  0  0  0  0  0  0  0  0  0
   -2.0970    1.6765   11.3255 C   0  0  0  0  0  0  0  0  0  0  0  0
   -2.9450    1.8069   10.2323 C   0  0  0  0  0  0  0  0  0  0  0  0
   -0.9885    0.3513   13.4577 Cl  0  0  0  0  0  0  0  0  0  0  0  0
   -2.8735   -1.9925   12.6300 Cl  0  0  0  0  0  0  0  0  0  0  0  0
   -5.5834    2.0933    8.8508 C   0  0  0  0  0  0  0  0  0  0  0  0
   -5.6013    2.9729    7.9122 O   0  0  0  0  0  0  0  0  0  0  0  0
   -6.3971    2.3185    9.9852 N   0  0  0  0  0  0  0  0  0  0  0  0
   -6.4847    1.2618   11.0183 C   0  0  0  0  0  0  0  0  0  0  0  0
   -7.8586    0.6123   10.9195 C   0  0  0  0  0  0  0  0  0  0  0  0
   -8.8413    1.6050   10.3896 C   0  0  0  0  0  0  0  0  0  0  0  0
   -8.5164    3.0116   10.8366 C   0  0  0  0  0  0  0  0  0  0  0  0
   -7.2005    3.4817   10.2391 C   0  0  0  0  0  0  0  0  0  0  0  0
  -10.1849    1.3231   10.7754 O   0  0  0  0  0  0  0  0  0  0  0  0
  -11.0395    1.7959    9.7867 C   0  0  0  0  0  0  0  0  0  0  0  0
  -12.3868    2.0745    9.7892 C   0  0  0  0  0  0  0  0  0  0  0  0
  -12.9649    2.5412    8.6301 C   0  0  0  0  0  0  0  0  0  0  0  0
  -12.1851    2.7155    7.5072 C   0  0  0  0  0  0  0  0  0  0  0  0
  -10.8337    2.4453    7.4737 C   0  0  0  0  0  0  0  0  0  0  0  0
  -10.2617    1.9705    8.6640 C   0  0  0  0  0  0  0  0  0  0  0  0
   -8.9707    1.6041    8.9933 O   0  0  0  0  0  0  0  0  0  0  0  0
  1  2  1  0
  2  3  1  0
  2  4  1  0
  4  5  1  0
  5  6  2  0
  6  7  1  0
  7  8  2  0
  8  9  1  0
  9 10  2  0
  8 11  1  0
  7 12  1  0
  4 13  1  0
 13 14  2  0
 13 15  1  0
 15 16  1  0
 16 17  1  0
 17 18  1  0
 18 19  1  0
 19 20  1  0
 18 21  1  0
 21 22  1  0
 22 23  2  0
 23 24  1  0
 24 25  2  0
 25 26  1  0
 26 27  2  0
 27 28  1  0
 10  5  1  0
 20 15  1  0
 28 18  1  0
 27 22  1  0
M  END
$$$$
