
     RDKit          3D

 28 31  0  0  0  0  0  0  0  0999 V2000
   -5.7297    4.0550   11.8386 C   0  0  0  0  0  0  0  0  0  0  0  0
   -5.1766    3.0257   10.9443 C   0  0  0  0  0  0  0  0  0  0  0  0
   -3.8865    3.4778   10.2533 C   0  0  0  0  0  0  0  0  0  0  0  0
   -6.1178    2.4321    9.9130 C   0  0  0  0  0  0  0  0  0  0  0  0
   -5.2504    1.8942    8.7805 C   0  0  0  0  0  0  0  0  0  0  0  0
   -4.4994    0.7528    8.9354 C   0  0  0  0  0  0  0  0  0  0  0  0
   -3.7058    0.2620    7.8977 C   0  0  0  0  0  0  0  0  0  0  0  0
   -3.6543    0.9114    6.6858 C   0  0  0  0  0  0  0  0  0  0  0  0
   -4.4060    2.0543    6.5296 C   0  0  0  0  0  0  0  0  0  0  0  0
   -5.1944    2.5384    7.5666 C   0  0  0  0  0  0  0  0  0  0  0  0
   -2.6505    0.2961    5.3642 Cl  0  0  0  0  0  0  0  0  0  0  0  0
   -2.7509   -1.1941    8.1029 Cl  0  0  0  0  0  0  0  0  0  0  0  0
   -6.9774    1.3623   10.4229 C   0  0  0  0  0  0  0  0  0  0  0  0
   -6.4499    0.5479   11.2675 O   0  0  0  0  0  0  0  0  0  0  0  0
   -8.3279    1.1557   10.0584 N   0  0  0  0  0  0  0  0  0  0  0  0
   -8.9756    2.1280    9.1491 C   0  0  0  0  0  0  0  0  0  0  0  0
   -9.9588    2.9588    9.9628 C   0  0  0  0  0  0  0  0  0  0  0  0
  -10.4588    2.1503   11.1154 C   0  0  0  0  0  0  0  0  0  0  0  0
  -10.5556    0.6817   10.7721 C   0  0  0  0  0  0  0  0  0  0  0  0
   -9.1792    0.0919   10.5131 C   0  0  0  0  0  0  0  0  0  0  0  0
  -11.7369    2.5749   11.5842 O   0  0  0  0  0  0  0  0  0  0  0  0
  -11.8250    2.3001   12.9437 C   0  0  0  0  0  0  0  0  0  0  0  0
  -12.9005    2.2023   13.7962 C   0  0  0  0  0  0  0  0  0  0  0  0
  -12.6661    1.9108   15.1213 C   0  0  0  0  0  0  0  0  0  0  0  0
  -11.3711    1.7263   15.5550 C   0  0  0  0  0  0  0  0  0  0  0  0
  -10.2738    1.8178   14.7256 C   0  0  0  0  0  0  0  0  0  0  0  0
  -10.5317    2.1155   13.3786 C   0  0  0  0  0  0  0  0  0  0  0  0
   -9.7001    2.2808   12.2875 O   0  0  0  0  0  0  0  0  0  0  0  0
  1  2  1  0
  2  3  1  0
  2  4  1  0
  4  5  1  0
  5  6  2  0
  6  7  1  0
  7  8  2  0
  8  9  1  0
  9 10  2  0
  8 11  1  0
  7 12  1  0
  4 13  1  0
 13 14  2  0
 13 15  1  0
 15 16  1  0
 16 17  1  0
 17 18  1  0
 18 19  1  0
 19 20  1  0
 18 21  1  0
 21 22  1  0
 22 23  2  0
 23 24  1  0
 24 25  2  0
 25 26  1  0
 26 27  2  0
 27 28  1  0
 10  5  1  0
 20 15  1  0
 28 18  1  0
 27 22  1  0
M  END
$$$$
