
     RDKit          3D

 28 31  0  0  0  0  0  0  0  0999 V2000
  -11.2083    2.3859    7.4020 C   0  0  0  0  0  0  0  0  0  0  0  0
  -10.8363    1.8663    8.7275 C   0  0  0  0  0  0  0  0  0  0  0  0
  -11.9288    2.0940    9.7768 C   0  0  0  0  0  0  0  0  0  0  0  0
   -9.4988    2.3096    9.2899 C   0  0  0  0  0  0  0  0  0  0  0  0
   -9.3196    1.5911   10.6225 C   0  0  0  0  0  0  0  0  0  0  0  0
   -9.2904    2.2837   11.8100 C   0  0  0  0  0  0  0  0  0  0  0  0
   -9.1261    1.6244   13.0289 C   0  0  0  0  0  0  0  0  0  0  0  0
   -8.9882    0.2561   13.0739 C   0  0  0  0  0  0  0  0  0  0  0  0
   -9.0173   -0.4384   11.8855 C   0  0  0  0  0  0  0  0  0  0  0  0
   -9.1812    0.2236   10.6747 C   0  0  0  0  0  0  0  0  0  0  0  0
   -8.7792   -0.5885   14.6153 Cl  0  0  0  0  0  0  0  0  0  0  0  0
   -9.0899    2.5146   14.5390 Cl  0  0  0  0  0  0  0  0  0  0  0  0
   -8.3538    2.0268    8.4225 C   0  0  0  0  0  0  0  0  0  0  0  0
   -8.5022    1.0894    7.5540 O   0  0  0  0  0  0  0  0  0  0  0  0
   -7.1088    2.6956    8.4690 N   0  0  0  0  0  0  0  0  0  0  0  0
   -6.2814    2.7435    7.2423 C   0  0  0  0  0  0  0  0  0  0  0  0
   -5.0952    1.8074    7.4314 C   0  0  0  0  0  0  0  0  0  0  0  0
   -4.7608    1.7153    8.8846 C   0  0  0  0  0  0  0  0  0  0  0  0
   -5.0357    3.0133    9.6083 C   0  0  0  0  0  0  0  0  0  0  0  0
   -6.5231    3.3252    9.6194 C   0  0  0  0  0  0  0  0  0  0  0  0
   -3.4005    1.3607    9.1245 O   0  0  0  0  0  0  0  0  0  0  0  0
   -3.3281    0.6646   10.3252 C   0  0  0  0  0  0  0  0  0  0  0  0
   -2.2756    0.3843   11.1658 C   0  0  0  0  0  0  0  0  0  0  0  0
   -2.5214   -0.3431   12.3087 C   0  0  0  0  0  0  0  0  0  0  0  0
   -3.8044   -0.7677   12.5782 C   0  0  0  0  0  0  0  0  0  0  0  0
   -4.8787   -0.5028   11.7559 C   0  0  0  0  0  0  0  0  0  0  0  0
   -4.6096    0.2396   10.5958 C   0  0  0  0  0  0  0  0  0  0  0  0
   -5.4186    0.6815    9.5665 O   0  0  0  0  0  0  0  0  0  0  0  0
  1  2  1  0
  2  3  1  0
  2  4  1  0
  4  5  1  0
  5  6  2  0
  6  7  1  0
  7  8  2  0
  8  9  1  0
  9 10  2  0
  8 11  1  0
  7 12  1  0
  4 13  1  0
 13 14  2  0
 13 15  1  0
 15 16  1  0
 16 17  1  0
 17 18  1  0
 18 19  1  0
 19 20  1  0
 18 21  1  0
 21 22  1  0
 22 23  2  0
 23 24  1  0
 24 25  2  0
 25 26  1  0
 26 27  2  0
 27 28  1  0
 10  5  1  0
 20 15  1  0
 28 18  1  0
 27 22  1  0
M  END
$$$$
