
     RDKit          3D

 26 29  0  0  0  0  0  0  0  0999 V2000
   -1.4501   -5.5154    7.9492 C   0  0  0  0  0  0  0  0  0  0  0  0
   -1.3588   -4.0219    7.8356 C   0  0  0  0  0  0  0  0  0  0  0  0
   -0.8315   -3.2342    8.8433 C   0  0  0  0  0  0  0  0  0  0  0  0
   -0.7291   -1.8747    8.7852 C   0  0  0  0  0  0  0  0  0  0  0  0
   -1.1810   -1.2329    7.6459 C   0  0  0  0  0  0  0  0  0  0  0  0
   -1.7210   -1.9862    6.6032 C   0  0  0  0  0  0  0  0  0  0  0  0
   -1.8051   -3.3590    6.7043 C   0  0  0  0  0  0  0  0  0  0  0  0
   -0.9836    0.0878    7.8074 N   0  0  0  0  0  0  0  0  0  0  0  0
   -0.4151    0.3452    9.0171 C   0  0  0  0  0  0  0  0  0  0  0  0
   -0.2540   -0.8780    9.6315 C   0  0  0  0  0  0  0  0  0  0  0  0
    0.3386   -1.0619   10.9811 C   0  0  0  0  0  0  0  0  0  0  0  0
    0.7729    0.2785   11.5358 C   0  0  0  0  0  0  0  0  0  0  0  0
   -0.1474    1.3204   11.1564 N   0  0  0  0  0  0  0  0  0  0  0  0
    0.0156    1.5588    9.7245 C   0  0  0  0  0  0  0  0  0  0  0  0
   -0.7329    2.8051    9.2993 C   0  0  0  0  0  0  0  0  0  0  0  0
   -0.1597    3.9261   10.0855 C   0  0  0  0  0  0  0  0  0  0  0  0
   -0.6973    4.2743   11.3008 C   0  0  0  0  0  0  0  0  0  0  0  0
   -0.1511    5.3268   12.0232 C   0  0  0  0  0  0  0  0  0  0  0  0
    0.9342    6.0563   11.5628 C   0  0  0  0  0  0  0  0  0  0  0  0
    1.4596    5.6984   10.3504 C   0  0  0  0  0  0  0  0  0  0  0  0
    0.9177    4.6423    9.6174 C   0  0  0  0  0  0  0  0  0  0  0  0
    1.4194    7.0810   12.3290 O   0  0  0  0  0  0  0  0  0  0  0  0
    0.9138    8.3803   12.4206 C   0  0  0  0  0  0  0  0  0  0  0  0
   -0.7115    5.6568   13.2440 O   0  0  0  0  0  0  0  0  0  0  0  0
   -0.0114    5.2781   14.4122 C   0  0  0  0  0  0  0  0  0  0  0  0
   -2.0700    3.4271   11.9885 Cl  0  0  0  0  0  0  0  0  0  0  0  0
  1  2  1  0
  2  3  2  0
  3  4  1  0
  4  5  2  0
  5  6  1  0
  6  7  2  0
  5  8  1  0
  8  9  1  0
  9 10  2  0
 10 11  1  0
 11 12  1  0
 12 13  1  0
 13 14  1  0
 14 15  1  0
 15 16  1  0
 16 17  2  0
 17 18  1  0
 18 19  2  0
 19 20  1  0
 20 21  2  0
 19 22  1  0
 22 23  1  0
 18 24  1  0
 24 25  1  0
 17 26  1  0
  7  2  1  0
 10  4  1  0
 14  9  1  0
 21 16  1  0
M  END
$$$$
