
     RDKit          3D

 26 29  0  0  0  0  0  0  0  0999 V2000
   -1.2904   -5.6577    7.8815 C   0  0  0  0  0  0  0  0  0  0  0  0
   -0.9571   -4.3629    8.5630 C   0  0  0  0  0  0  0  0  0  0  0  0
   -0.8574   -3.1681    7.8730 C   0  0  0  0  0  0  0  0  0  0  0  0
   -0.5563   -1.9682    8.4489 C   0  0  0  0  0  0  0  0  0  0  0  0
   -0.3338   -1.9355    9.8141 C   0  0  0  0  0  0  0  0  0  0  0  0
   -0.4233   -3.1163   10.5517 C   0  0  0  0  0  0  0  0  0  0  0  0
   -0.7306   -4.3074    9.9283 C   0  0  0  0  0  0  0  0  0  0  0  0
   -0.0569   -0.6653   10.1594 N   0  0  0  0  0  0  0  0  0  0  0  0
   -0.0880    0.1479    9.0683 C   0  0  0  0  0  0  0  0  0  0  0  0
   -0.3998   -0.6617    7.9973 C   0  0  0  0  0  0  0  0  0  0  0  0
   -0.5400   -0.1787    6.5996 C   0  0  0  0  0  0  0  0  0  0  0  0
   -0.3392    1.3215    6.5545 C   0  0  0  0  0  0  0  0  0  0  0  0
    0.6740    1.7382    7.4904 N   0  0  0  0  0  0  0  0  0  0  0  0
    0.1280    1.5826    8.8363 C   0  0  0  0  0  0  0  0  0  0  0  0
    1.0345    2.2317    9.8617 C   0  0  0  0  0  0  0  0  0  0  0  0
    0.1672    2.6153   11.0037 C   0  0  0  0  0  0  0  0  0  0  0  0
    0.7169    3.0816   12.1731 C   0  0  0  0  0  0  0  0  0  0  0  0
   -0.1077    3.4342   13.2331 C   0  0  0  0  0  0  0  0  0  0  0  0
   -1.4886    3.3343   13.1619 C   0  0  0  0  0  0  0  0  0  0  0  0
   -2.0225    2.8681   11.9907 C   0  0  0  0  0  0  0  0  0  0  0  0
   -1.2021    2.5115   10.9202 C   0  0  0  0  0  0  0  0  0  0  0  0
   -2.2382    3.7000   14.2467 O   0  0  0  0  0  0  0  0  0  0  0  0
   -3.1886    2.9256   14.9169 C   0  0  0  0  0  0  0  0  0  0  0  0
    0.4715    3.9009   14.3994 O   0  0  0  0  0  0  0  0  0  0  0  0
    0.8482    5.2625   14.4468 C   0  0  0  0  0  0  0  0  0  0  0  0
    2.4493    3.2526   12.3841 Cl  0  0  0  0  0  0  0  0  0  0  0  0
  1  2  1  0
  2  3  2  0
  3  4  1  0
  4  5  2  0
  5  6  1  0
  6  7  2  0
  5  8  1  0
  8  9  1  0
  9 10  2  0
 10 11  1  0
 11 12  1  0
 12 13  1  0
 13 14  1  0
 14 15  1  0
 15 16  1  0
 16 17  2  0
 17 18  1  0
 18 19  2  0
 19 20  1  0
 20 21  2  0
 19 22  1  0
 22 23  1  0
 18 24  1  0
 24 25  1  0
 17 26  1  0
  7  2  1  0
 10  4  1  0
 14  9  1  0
 21 16  1  0
M  END
$$$$
