
     RDKit          3D

 26 29  0  0  0  0  0  0  0  0999 V2000
   -1.2746   -6.0158    7.9167 C   0  0  0  0  0  0  0  0  0  0  0  0
   -1.0712   -4.6446    8.4915 C   0  0  0  0  0  0  0  0  0  0  0  0
   -1.1015   -3.5032    7.7104 C   0  0  0  0  0  0  0  0  0  0  0  0
   -0.9212   -2.2376    8.1877 C   0  0  0  0  0  0  0  0  0  0  0  0
   -0.6917   -2.0760    9.5424 C   0  0  0  0  0  0  0  0  0  0  0  0
   -0.6524   -3.1988   10.3697 C   0  0  0  0  0  0  0  0  0  0  0  0
   -0.8401   -4.4600    9.8445 C   0  0  0  0  0  0  0  0  0  0  0  0
   -0.5448   -0.7611    9.7849 N   0  0  0  0  0  0  0  0  0  0  0  0
   -0.6691   -0.0429    8.6353 C   0  0  0  0  0  0  0  0  0  0  0  0
   -0.9046   -0.9610    7.6347 C   0  0  0  0  0  0  0  0  0  0  0  0
   -1.1059   -0.6054    6.2067 C   0  0  0  0  0  0  0  0  0  0  0  0
   -1.0617    0.8994    6.0435 C   0  0  0  0  0  0  0  0  0  0  0  0
   -0.0891    1.4894    6.9280 N   0  0  0  0  0  0  0  0  0  0  0  0
   -0.6046    1.3839    8.2906 C   0  0  0  0  0  0  0  0  0  0  0  0
    0.2386    2.2004    9.2482 C   0  0  0  0  0  0  0  0  0  0  0  0
   -0.6584    2.5957   10.3628 C   0  0  0  0  0  0  0  0  0  0  0  0
   -1.0258    3.9085   10.5325 C   0  0  0  0  0  0  0  0  0  0  0  0
   -1.8638    4.2627   11.5814 C   0  0  0  0  0  0  0  0  0  0  0  0
   -2.3556    3.3314   12.4830 C   0  0  0  0  0  0  0  0  0  0  0  0
   -1.9813    2.0271   12.3019 C   0  0  0  0  0  0  0  0  0  0  0  0
   -1.1399    1.6616   11.2508 C   0  0  0  0  0  0  0  0  0  0  0  0
   -3.1771    3.7534   13.4927 O   0  0  0  0  0  0  0  0  0  0  0  0
   -4.4382    3.2501   13.8221 C   0  0  0  0  0  0  0  0  0  0  0  0
   -2.2183    5.5915   11.7296 O   0  0  0  0  0  0  0  0  0  0  0  0
   -1.2801    6.4581   12.3355 C   0  0  0  0  0  0  0  0  0  0  0  0
   -0.4689    5.1772    9.4577 Cl  0  0  0  0  0  0  0  0  0  0  0  0
  1  2  1  0
  2  3  2  0
  3  4  1  0
  4  5  2  0
  5  6  1  0
  6  7  2  0
  5  8  1  0
  8  9  1  0
  9 10  2  0
 10 11  1  0
 11 12  1  0
 12 13  1  0
 13 14  1  0
 14 15  1  0
 15 16  1  0
 16 17  2  0
 17 18  1  0
 18 19  2  0
 19 20  1  0
 20 21  2  0
 19 22  1  0
 22 23  1  0
 18 24  1  0
 24 25  1  0
 17 26  1  0
  7  2  1  0
 10  4  1  0
 14  9  1  0
 21 16  1  0
M  END
$$$$
