
     RDKit          3D

 26 29  0  0  0  0  0  0  0  0999 V2000
   -1.2511   -5.6644    8.9300 C   0  0  0  0  0  0  0  0  0  0  0  0
   -1.1918   -4.1948    8.6326 C   0  0  0  0  0  0  0  0  0  0  0  0
   -0.8094   -3.2630    9.5809 C   0  0  0  0  0  0  0  0  0  0  0  0
   -0.7416   -1.9186    9.3570 C   0  0  0  0  0  0  0  0  0  0  0  0
   -1.0765   -1.4472    8.1001 C   0  0  0  0  0  0  0  0  0  0  0  0
   -1.4684   -2.3501    7.1113 C   0  0  0  0  0  0  0  0  0  0  0  0
   -1.5227   -3.7013    7.3815 C   0  0  0  0  0  0  0  0  0  0  0  0
   -0.9388   -0.1092    8.1081 N   0  0  0  0  0  0  0  0  0  0  0  0
   -0.5233    0.3247    9.3295 C   0  0  0  0  0  0  0  0  0  0  0  0
   -0.3985   -0.8023   10.1131 C   0  0  0  0  0  0  0  0  0  0  0  0
    0.0380   -0.7870   11.5328 C   0  0  0  0  0  0  0  0  0  0  0  0
    0.3644    0.6310   11.9521 C   0  0  0  0  0  0  0  0  0  0  0  0
   -0.5361    1.5742   11.3390 N   0  0  0  0  0  0  0  0  0  0  0  0
   -0.2144    1.6362    9.9154 C   0  0  0  0  0  0  0  0  0  0  0  0
   -0.9452    2.7838    9.2496 C   0  0  0  0  0  0  0  0  0  0  0  0
   -0.4800    4.0225    9.9221 C   0  0  0  0  0  0  0  0  0  0  0  0
   -1.1712    4.5395   10.9909 C   0  0  0  0  0  0  0  0  0  0  0  0
   -0.7245    5.7003   11.6079 C   0  0  0  0  0  0  0  0  0  0  0  0
    0.4108    6.3740   11.1846 C   0  0  0  0  0  0  0  0  0  0  0  0
    1.0896    5.8476   10.1187 C   0  0  0  0  0  0  0  0  0  0  0  0
    0.6485    4.6817    9.4923 C   0  0  0  0  0  0  0  0  0  0  0  0
    0.7915    7.5127   11.8410 O   0  0  0  0  0  0  0  0  0  0  0  0
    2.0121    7.7535   12.4769 C   0  0  0  0  0  0  0  0  0  0  0  0
   -1.4391    6.1997   12.6819 O   0  0  0  0  0  0  0  0  0  0  0  0
   -1.0006    5.8540   13.9806 C   0  0  0  0  0  0  0  0  0  0  0  0
   -2.6209    3.7779   11.6181 Cl  0  0  0  0  0  0  0  0  0  0  0  0
  1  2  1  0
  2  3  2  0
  3  4  1  0
  4  5  2  0
  5  6  1  0
  6  7  2  0
  5  8  1  0
  8  9  1  0
  9 10  2  0
 10 11  1  0
 11 12  1  0
 12 13  1  0
 13 14  1  0
 14 15  1  0
 15 16  1  0
 16 17  2  0
 17 18  1  0
 18 19  2  0
 19 20  1  0
 20 21  2  0
 19 22  1  0
 22 23  1  0
 18 24  1  0
 24 25  1  0
 17 26  1  0
  7  2  1  0
 10  4  1  0
 14  9  1  0
 21 16  1  0
M  END
$$$$
