
     RDKit          3D

 26 29  0  0  0  0  0  0  0  0999 V2000
   -1.0664   -5.2088    7.2487 C   0  0  0  0  0  0  0  0  0  0  0  0
   -1.1490   -4.0688    8.2210 C   0  0  0  0  0  0  0  0  0  0  0  0
   -0.9258   -2.7568    7.8433 C   0  0  0  0  0  0  0  0  0  0  0  0
   -0.9888   -1.6893    8.6910 C   0  0  0  0  0  0  0  0  0  0  0  0
   -1.2955   -1.9260   10.0192 C   0  0  0  0  0  0  0  0  0  0  0  0
   -1.5286   -3.2336   10.4464 C   0  0  0  0  0  0  0  0  0  0  0  0
   -1.4544   -4.2831    9.5548 C   0  0  0  0  0  0  0  0  0  0  0  0
   -1.3025   -0.7439   10.6610 N   0  0  0  0  0  0  0  0  0  0  0  0
   -1.0103    0.2714    9.8027 C   0  0  0  0  0  0  0  0  0  0  0  0
   -0.8138   -0.3144    8.5707 C   0  0  0  0  0  0  0  0  0  0  0  0
   -0.4734    0.4363    7.3349 C   0  0  0  0  0  0  0  0  0  0  0  0
   -0.4293    1.9201    7.6338 C   0  0  0  0  0  0  0  0  0  0  0  0
    0.1126    2.1697    8.9454 N   0  0  0  0  0  0  0  0  0  0  0  0
   -0.8757    1.7292    9.9268 C   0  0  0  0  0  0  0  0  0  0  0  0
   -0.4900    2.1851   11.3188 C   0  0  0  0  0  0  0  0  0  0  0  0
   -0.3224    3.6582   11.2453 C   0  0  0  0  0  0  0  0  0  0  0  0
    0.8705    4.2443   11.5925 C   0  0  0  0  0  0  0  0  0  0  0  0
    1.0108    5.6238   11.5204 C   0  0  0  0  0  0  0  0  0  0  0  0
   -0.0205    6.4521   11.1054 C   0  0  0  0  0  0  0  0  0  0  0  0
   -1.2034    5.8545   10.7625 C   0  0  0  0  0  0  0  0  0  0  0  0
   -1.3538    4.4693   10.8315 C   0  0  0  0  0  0  0  0  0  0  0  0
    0.1900    7.8034   11.0593 O   0  0  0  0  0  0  0  0  0  0  0  0
    0.7427    8.5370   10.0064 C   0  0  0  0  0  0  0  0  0  0  0  0
    2.2225    6.1883   11.8759 O   0  0  0  0  0  0  0  0  0  0  0  0
    2.5181    6.2958   13.2541 C   0  0  0  0  0  0  0  0  0  0  0  0
    2.2478    3.3027   12.1325 Cl  0  0  0  0  0  0  0  0  0  0  0  0
  1  2  1  0
  2  3  2  0
  3  4  1  0
  4  5  2  0
  5  6  1  0
  6  7  2  0
  5  8  1  0
  8  9  1  0
  9 10  2  0
 10 11  1  0
 11 12  1  0
 12 13  1  0
 13 14  1  0
 14 15  1  0
 15 16  1  0
 16 17  2  0
 17 18  1  0
 18 19  2  0
 19 20  1  0
 20 21  2  0
 19 22  1  0
 22 23  1  0
 18 24  1  0
 24 25  1  0
 17 26  1  0
  7  2  1  0
 10  4  1  0
 14  9  1  0
 21 16  1  0
M  END
$$$$
