
     RDKit          3D

 26 29  0  0  0  0  0  0  0  0999 V2000
   -1.3545   -4.8136    6.7474 C   0  0  0  0  0  0  0  0  0  0  0  0
   -1.1299   -3.8241    7.8530 C   0  0  0  0  0  0  0  0  0  0  0  0
   -0.9494   -2.4739    7.6120 C   0  0  0  0  0  0  0  0  0  0  0  0
   -0.7414   -1.5385    8.5836 C   0  0  0  0  0  0  0  0  0  0  0  0
   -0.7069   -1.9603    9.9008 C   0  0  0  0  0  0  0  0  0  0  0  0
   -0.8839   -3.3132   10.1923 C   0  0  0  0  0  0  0  0  0  0  0  0
   -1.0916   -4.2245    9.1783 C   0  0  0  0  0  0  0  0  0  0  0  0
   -0.4922   -0.8826   10.6765 N   0  0  0  0  0  0  0  0  0  0  0  0
   -0.3830    0.2423    9.9179 C   0  0  0  0  0  0  0  0  0  0  0  0
   -0.5382   -0.1625    8.6096 C   0  0  0  0  0  0  0  0  0  0  0  0
   -0.4920    0.7542    7.4417 C   0  0  0  0  0  0  0  0  0  0  0  0
   -0.3021    2.1791    7.9174 C   0  0  0  0  0  0  0  0  0  0  0  0
    0.5703    2.2323    9.0630 N   0  0  0  0  0  0  0  0  0  0  0  0
   -0.1519    1.6658   10.1994 C   0  0  0  0  0  0  0  0  0  0  0  0
    0.6003    1.9131   11.4907 C   0  0  0  0  0  0  0  0  0  0  0  0
    0.6270    3.3845   11.6841 C   0  0  0  0  0  0  0  0  0  0  0  0
   -0.4915    4.0529   12.1193 C   0  0  0  0  0  0  0  0  0  0  0  0
   -0.4511    5.4298   12.2932 C   0  0  0  0  0  0  0  0  0  0  0  0
    0.6908    6.1746   12.0419 C   0  0  0  0  0  0  0  0  0  0  0  0
    1.7978    5.4957   11.6088 C   0  0  0  0  0  0  0  0  0  0  0  0
    1.7669    4.1123   11.4312 C   0  0  0  0  0  0  0  0  0  0  0  0
    0.6570    7.5288   12.2354 O   0  0  0  0  0  0  0  0  0  0  0  0
    0.4342    8.5149   11.2710 C   0  0  0  0  0  0  0  0  0  0  0  0
   -1.5914    6.0782   12.7324 O   0  0  0  0  0  0  0  0  0  0  0  0
   -1.6750    6.4028   14.1057 C   0  0  0  0  0  0  0  0  0  0  0  0
   -1.9949    3.2213   12.4706 Cl  0  0  0  0  0  0  0  0  0  0  0  0
  1  2  1  0
  2  3  2  0
  3  4  1  0
  4  5  2  0
  5  6  1  0
  6  7  2  0
  5  8  1  0
  8  9  1  0
  9 10  2  0
 10 11  1  0
 11 12  1  0
 12 13  1  0
 13 14  1  0
 14 15  1  0
 15 16  1  0
 16 17  2  0
 17 18  1  0
 18 19  2  0
 19 20  1  0
 20 21  2  0
 19 22  1  0
 22 23  1  0
 18 24  1  0
 24 25  1  0
 17 26  1  0
  7  2  1  0
 10  4  1  0
 14  9  1  0
 21 16  1  0
M  END
$$$$
