
     RDKit          3D

 26 29  0  0  0  0  0  0  0  0999 V2000
   -1.5077   -5.2986    7.5310 C   0  0  0  0  0  0  0  0  0  0  0  0
   -1.2413   -4.1542    8.4644 C   0  0  0  0  0  0  0  0  0  0  0  0
   -1.1803   -2.8427    8.0283 C   0  0  0  0  0  0  0  0  0  0  0  0
   -0.9402   -1.7714    8.8386 C   0  0  0  0  0  0  0  0  0  0  0  0
   -0.7430   -2.0033   10.1882 C   0  0  0  0  0  0  0  0  0  0  0  0
   -0.7953   -3.3101   10.6740 C   0  0  0  0  0  0  0  0  0  0  0  0
   -1.0411   -4.3637    9.8188 C   0  0  0  0  0  0  0  0  0  0  0  0
   -0.5261   -0.8180   10.7860 N   0  0  0  0  0  0  0  0  0  0  0  0
   -0.5727    0.1948    9.8778 C   0  0  0  0  0  0  0  0  0  0  0  0
   -0.8313   -0.3960    8.6597 C   0  0  0  0  0  0  0  0  0  0  0  0
   -0.9676    0.3505    7.3827 C   0  0  0  0  0  0  0  0  0  0  0  0
   -0.8297    1.8360    7.6417 C   0  0  0  0  0  0  0  0  0  0  0  0
    0.1486    2.0958    8.6673 N   0  0  0  0  0  0  0  0  0  0  0  0
   -0.4136    1.6540    9.9411 C   0  0  0  0  0  0  0  0  0  0  0  0
    0.4467    2.1194   11.0977 C   0  0  0  0  0  0  0  0  0  0  0  0
   -0.3503    3.1354   11.8297 C   0  0  0  0  0  0  0  0  0  0  0  0
   -0.3914    4.4379   11.3947 C   0  0  0  0  0  0  0  0  0  0  0  0
   -1.1398    5.3770   12.0917 C   0  0  0  0  0  0  0  0  0  0  0  0
   -1.8616    5.0518   13.2297 C   0  0  0  0  0  0  0  0  0  0  0  0
   -1.8116    3.7505   13.6516 C   0  0  0  0  0  0  0  0  0  0  0  0
   -1.0625    2.7997   12.9579 C   0  0  0  0  0  0  0  0  0  0  0  0
   -2.5768    6.0301   13.8653 O   0  0  0  0  0  0  0  0  0  0  0  0
   -2.5781    6.3235   15.2313 C   0  0  0  0  0  0  0  0  0  0  0  0
   -1.1639    6.6816   11.6324 O   0  0  0  0  0  0  0  0  0  0  0  0
   -0.9702    7.7146   12.5777 C   0  0  0  0  0  0  0  0  0  0  0  0
    0.4791    4.9709    9.9689 Cl  0  0  0  0  0  0  0  0  0  0  0  0
  1  2  1  0
  2  3  2  0
  3  4  1  0
  4  5  2  0
  5  6  1  0
  6  7  2  0
  5  8  1  0
  8  9  1  0
  9 10  2  0
 10 11  1  0
 11 12  1  0
 12 13  1  0
 13 14  1  0
 14 15  1  0
 15 16  1  0
 16 17  2  0
 17 18  1  0
 18 19  2  0
 19 20  1  0
 20 21  2  0
 19 22  1  0
 22 23  1  0
 18 24  1  0
 24 25  1  0
 17 26  1  0
  7  2  1  0
 10  4  1  0
 14  9  1  0
 21 16  1  0
M  END
$$$$
