
     RDKit          3D

 26 29  0  0  0  0  0  0  0  0999 V2000
   -1.2847   -5.1031    7.1841 C   0  0  0  0  0  0  0  0  0  0  0  0
   -1.2091   -4.0310    8.2313 C   0  0  0  0  0  0  0  0  0  0  0  0
   -1.1176   -2.6884    7.9102 C   0  0  0  0  0  0  0  0  0  0  0  0
   -1.0457   -1.6799    8.8265 C   0  0  0  0  0  0  0  0  0  0  0  0
   -1.0644   -2.0135   10.1691 C   0  0  0  0  0  0  0  0  0  0  0  0
   -1.1555   -3.3551   10.5409 C   0  0  0  0  0  0  0  0  0  0  0  0
   -1.2263   -4.3425    9.5807 C   0  0  0  0  0  0  0  0  0  0  0  0
   -0.9841   -0.8751   10.8811 N   0  0  0  0  0  0  0  0  0  0  0  0
   -0.9126    0.2048   10.0556 C   0  0  0  0  0  0  0  0  0  0  0  0
   -0.9509   -0.2930    8.7710 C   0  0  0  0  0  0  0  0  0  0  0  0
   -0.8996    0.5488    7.5483 C   0  0  0  0  0  0  0  0  0  0  0  0
   -0.8510    2.0117    7.9364 C   0  0  0  0  0  0  0  0  0  0  0  0
   -0.0616    2.2075    9.1258 N   0  0  0  0  0  0  0  0  0  0  0  0
   -0.8104    1.6572   10.2529 C   0  0  0  0  0  0  0  0  0  0  0  0
   -0.1649    2.0456   11.5670 C   0  0  0  0  0  0  0  0  0  0  0  0
   -0.3650    3.5090   11.7150 C   0  0  0  0  0  0  0  0  0  0  0  0
    0.7109    4.3630   11.7360 C   0  0  0  0  0  0  0  0  0  0  0  0
    0.5073    5.7292   11.8774 C   0  0  0  0  0  0  0  0  0  0  0  0
   -0.7588    6.2802   12.0009 C   0  0  0  0  0  0  0  0  0  0  0  0
   -1.8214    5.4175   11.9784 C   0  0  0  0  0  0  0  0  0  0  0  0
   -1.6269    4.0433   11.8366 C   0  0  0  0  0  0  0  0  0  0  0  0
   -0.8831    7.6361   12.1370 O   0  0  0  0  0  0  0  0  0  0  0  0
   -1.8842    8.4508   11.6018 C   0  0  0  0  0  0  0  0  0  0  0  0
    1.6079    6.5670   11.8956 O   0  0  0  0  0  0  0  0  0  0  0  0
    1.7595    7.4758   10.8235 C   0  0  0  0  0  0  0  0  0  0  0  0
    2.3602    3.7861   11.5884 Cl  0  0  0  0  0  0  0  0  0  0  0  0
  1  2  1  0
  2  3  2  0
  3  4  1  0
  4  5  2  0
  5  6  1  0
  6  7  2  0
  5  8  1  0
  8  9  1  0
  9 10  2  0
 10 11  1  0
 11 12  1  0
 12 13  1  0
 13 14  1  0
 14 15  1  0
 15 16  1  0
 16 17  2  0
 17 18  1  0
 18 19  2  0
 19 20  1  0
 20 21  2  0
 19 22  1  0
 22 23  1  0
 18 24  1  0
 24 25  1  0
 17 26  1  0
  7  2  1  0
 10  4  1  0
 14  9  1  0
 21 16  1  0
M  END
$$$$
