
     RDKit          3D

 26 29  0  0  0  0  0  0  0  0999 V2000
   -0.8453   -5.1550    7.1298 C   0  0  0  0  0  0  0  0  0  0  0  0
   -0.9354   -4.0278    8.1163 C   0  0  0  0  0  0  0  0  0  0  0  0
   -0.6924   -2.7129    7.7614 C   0  0  0  0  0  0  0  0  0  0  0  0
   -0.7613   -1.6567    8.6226 C   0  0  0  0  0  0  0  0  0  0  0  0
   -1.0955   -1.9089    9.9413 C   0  0  0  0  0  0  0  0  0  0  0  0
   -1.3492   -3.2198   10.3456 C   0  0  0  0  0  0  0  0  0  0  0  0
   -1.2683   -4.2576    9.4409 C   0  0  0  0  0  0  0  0  0  0  0  0
   -1.1032   -0.7357   10.5994 N   0  0  0  0  0  0  0  0  0  0  0  0
   -0.7850    0.2884    9.7612 C   0  0  0  0  0  0  0  0  0  0  0  0
   -0.5707   -0.2821    8.5250 C   0  0  0  0  0  0  0  0  0  0  0  0
   -0.1995    0.4822    7.3066 C   0  0  0  0  0  0  0  0  0  0  0  0
   -0.1468    1.9612    7.6271 C   0  0  0  0  0  0  0  0  0  0  0  0
    0.3724    2.1872    8.9521 N   0  0  0  0  0  0  0  0  0  0  0  0
   -0.6387    1.7430    9.9083 C   0  0  0  0  0  0  0  0  0  0  0  0
   -0.2751    2.1757   11.3137 C   0  0  0  0  0  0  0  0  0  0  0  0
   -0.1211    3.6514   11.2704 C   0  0  0  0  0  0  0  0  0  0  0  0
    1.1049    4.2328   11.4850 C   0  0  0  0  0  0  0  0  0  0  0  0
    1.2322    5.6149   11.4434 C   0  0  0  0  0  0  0  0  0  0  0  0
    0.1553    6.4503   11.1901 C   0  0  0  0  0  0  0  0  0  0  0  0
   -1.0602    5.8573   10.9783 C   0  0  0  0  0  0  0  0  0  0  0  0
   -1.1980    4.4695   11.0179 C   0  0  0  0  0  0  0  0  0  0  0  0
    0.3556    7.8037   11.1646 O   0  0  0  0  0  0  0  0  0  0  0  0
   -0.6159    8.7994   11.0346 C   0  0  0  0  0  0  0  0  0  0  0  0
    2.4780    6.1747   11.6630 O   0  0  0  0  0  0  0  0  0  0  0  0
    2.8742    6.3910   13.0026 C   0  0  0  0  0  0  0  0  0  0  0  0
    2.5410    3.2822   11.8147 Cl  0  0  0  0  0  0  0  0  0  0  0  0
  1  2  1  0
  2  3  2  0
  3  4  1  0
  4  5  2  0
  5  6  1  0
  6  7  2  0
  5  8  1  0
  8  9  1  0
  9 10  2  0
 10 11  1  0
 11 12  1  0
 12 13  1  0
 13 14  1  0
 14 15  1  0
 15 16  1  0
 16 17  2  0
 17 18  1  0
 18 19  2  0
 19 20  1  0
 20 21  2  0
 19 22  1  0
 22 23  1  0
 18 24  1  0
 24 25  1  0
 17 26  1  0
  7  2  1  0
 10  4  1  0
 14  9  1  0
 21 16  1  0
M  END
$$$$
