
     RDKit          3D

 26 29  0  0  0  0  0  0  0  0999 V2000
   -1.8717   -5.4063    7.2368 C   0  0  0  0  0  0  0  0  0  0  0  0
   -1.5437   -4.3278    8.2272 C   0  0  0  0  0  0  0  0  0  0  0  0
   -1.4659   -2.9937    7.8694 C   0  0  0  0  0  0  0  0  0  0  0  0
   -1.1704   -1.9798    8.7337 C   0  0  0  0  0  0  0  0  0  0  0  0
   -0.9308   -2.2987   10.0585 C   0  0  0  0  0  0  0  0  0  0  0  0
   -0.9979   -3.6314   10.4658 C   0  0  0  0  0  0  0  0  0  0  0  0
   -1.3003   -4.6246    9.5579 C   0  0  0  0  0  0  0  0  0  0  0  0
   -0.6633   -1.1576   10.7185 N   0  0  0  0  0  0  0  0  0  0  0  0
   -0.7173   -0.0901    9.8756 C   0  0  0  0  0  0  0  0  0  0  0  0
   -1.0341   -0.5989    8.6345 C   0  0  0  0  0  0  0  0  0  0  0  0
   -1.1975    0.2276    7.4111 C   0  0  0  0  0  0  0  0  0  0  0  0
   -1.0137    1.6909    7.7543 C   0  0  0  0  0  0  0  0  0  0  0  0
    0.0069    1.8650    8.7565 N   0  0  0  0  0  0  0  0  0  0  0  0
   -0.5200    1.3585   10.0213 C   0  0  0  0  0  0  0  0  0  0  0  0
    0.3926    1.7325   11.1711 C   0  0  0  0  0  0  0  0  0  0  0  0
    0.2773    3.2032   11.3355 C   0  0  0  0  0  0  0  0  0  0  0  0
    0.3177    3.7722   12.5852 C   0  0  0  0  0  0  0  0  0  0  0  0
    0.2063    5.1493   12.7226 C   0  0  0  0  0  0  0  0  0  0  0  0
    0.0529    5.9921   11.6326 C   0  0  0  0  0  0  0  0  0  0  0  0
    0.0142    5.4115   10.3935 C   0  0  0  0  0  0  0  0  0  0  0  0
    0.1255    4.0287   10.2454 C   0  0  0  0  0  0  0  0  0  0  0  0
   -0.0507    7.3401   11.8440 O   0  0  0  0  0  0  0  0  0  0  0  0
    0.9844    8.2785   11.8367 C   0  0  0  0  0  0  0  0  0  0  0  0
    0.2500    5.6966   13.9923 O   0  0  0  0  0  0  0  0  0  0  0  0
    1.5194    5.8690   14.5900 C   0  0  0  0  0  0  0  0  0  0  0  0
    0.5082    2.8113   14.0397 Cl  0  0  0  0  0  0  0  0  0  0  0  0
  1  2  1  0
  2  3  2  0
  3  4  1  0
  4  5  2  0
  5  6  1  0
  6  7  2  0
  5  8  1  0
  8  9  1  0
  9 10  2  0
 10 11  1  0
 11 12  1  0
 12 13  1  0
 13 14  1  0
 14 15  1  0
 15 16  1  0
 16 17  2  0
 17 18  1  0
 18 19  2  0
 19 20  1  0
 20 21  2  0
 19 22  1  0
 22 23  1  0
 18 24  1  0
 24 25  1  0
 17 26  1  0
  7  2  1  0
 10  4  1  0
 14  9  1  0
 21 16  1  0
M  END
$$$$
