
     RDKit          3D

 26 29  0  0  0  0  0  0  0  0999 V2000
   -2.1881   -5.2370    8.3715 C   0  0  0  0  0  0  0  0  0  0  0  0
   -1.5809   -3.8787    8.1766 C   0  0  0  0  0  0  0  0  0  0  0  0
   -1.5079   -2.9477    9.1973 C   0  0  0  0  0  0  0  0  0  0  0  0
   -0.9666   -1.7018    9.0669 C   0  0  0  0  0  0  0  0  0  0  0  0
   -0.4544   -1.3370    7.8346 C   0  0  0  0  0  0  0  0  0  0  0  0
   -0.5061   -2.2433    6.7751 C   0  0  0  0  0  0  0  0  0  0  0  0
   -1.0624   -3.4928    6.9517 C   0  0  0  0  0  0  0  0  0  0  0  0
    0.0212   -0.0830    7.9373 N   0  0  0  0  0  0  0  0  0  0  0  0
   -0.1581    0.3981    9.1979 C   0  0  0  0  0  0  0  0  0  0  0  0
   -0.7747   -0.6099    9.9074 C   0  0  0  0  0  0  0  0  0  0  0  0
   -1.1554   -0.5095   11.3397 C   0  0  0  0  0  0  0  0  0  0  0  0
   -0.7189    0.8311   11.8919 C   0  0  0  0  0  0  0  0  0  0  0  0
   -0.8688    1.8722   10.9071 N   0  0  0  0  0  0  0  0  0  0  0  0
    0.1483    1.6630    9.8796 C   0  0  0  0  0  0  0  0  0  0  0  0
    0.2193    2.8527    8.9447 C   0  0  0  0  0  0  0  0  0  0  0  0
    0.5602    4.0267    9.7865 C   0  0  0  0  0  0  0  0  0  0  0  0
   -0.0404    5.2425    9.5668 C   0  0  0  0  0  0  0  0  0  0  0  0
    0.2909    6.3318   10.3615 C   0  0  0  0  0  0  0  0  0  0  0  0
    1.2195    6.2448   11.3872 C   0  0  0  0  0  0  0  0  0  0  0  0
    1.8100    5.0274   11.5948 C   0  0  0  0  0  0  0  0  0  0  0  0
    1.4836    3.9272   10.8016 C   0  0  0  0  0  0  0  0  0  0  0  0
    1.4962    7.3605   12.1296 O   0  0  0  0  0  0  0  0  0  0  0  0
    1.1270    7.6068   13.4545 C   0  0  0  0  0  0  0  0  0  0  0  0
   -0.3286    7.5446   10.1189 O   0  0  0  0  0  0  0  0  0  0  0  0
    0.2529    8.3979    9.1534 C   0  0  0  0  0  0  0  0  0  0  0  0
   -1.2301    5.4775    8.3002 Cl  0  0  0  0  0  0  0  0  0  0  0  0
  1  2  1  0
  2  3  2  0
  3  4  1  0
  4  5  2  0
  5  6  1  0
  6  7  2  0
  5  8  1  0
  8  9  1  0
  9 10  2  0
 10 11  1  0
 11 12  1  0
 12 13  1  0
 13 14  1  0
 14 15  1  0
 15 16  1  0
 16 17  2  0
 17 18  1  0
 18 19  2  0
 19 20  1  0
 20 21  2  0
 19 22  1  0
 22 23  1  0
 18 24  1  0
 24 25  1  0
 17 26  1  0
  7  2  1  0
 10  4  1  0
 14  9  1  0
 21 16  1  0
M  END
$$$$
