
     RDKit          3D

 26 29  0  0  0  0  0  0  0  0999 V2000
   -1.1497   -5.3649    7.5262 C   0  0  0  0  0  0  0  0  0  0  0  0
   -1.1736   -4.1937    8.4640 C   0  0  0  0  0  0  0  0  0  0  0  0
   -0.9066   -2.9033    8.0429 C   0  0  0  0  0  0  0  0  0  0  0  0
   -0.9157   -1.8090    8.8581 C   0  0  0  0  0  0  0  0  0  0  0  0
   -1.2102   -1.9936   10.1973 C   0  0  0  0  0  0  0  0  0  0  0  0
   -1.4861   -3.2777   10.6679 C   0  0  0  0  0  0  0  0  0  0  0  0
   -1.4659   -4.3557    9.8081 C   0  0  0  0  0  0  0  0  0  0  0  0
   -1.1621   -0.7932   10.8024 N   0  0  0  0  0  0  0  0  0  0  0  0
   -0.8451    0.1837    9.9091 C   0  0  0  0  0  0  0  0  0  0  0  0
   -0.6904   -0.4461    8.6930 C   0  0  0  0  0  0  0  0  0  0  0  0
   -0.3412    0.2531    7.4299 C   0  0  0  0  0  0  0  0  0  0  0  0
   -0.2359    1.7425    7.6822 C   0  0  0  0  0  0  0  0  0  0  0  0
    0.3356    2.0106    8.9775 N   0  0  0  0  0  0  0  0  0  0  0  0
   -0.6532    1.6384    9.9862 C   0  0  0  0  0  0  0  0  0  0  0  0
   -0.2286    2.1209   11.3578 C   0  0  0  0  0  0  0  0  0  0  0  0
   -0.0323    3.5878   11.2431 C   0  0  0  0  0  0  0  0  0  0  0  0
    1.1235    4.1760   11.6961 C   0  0  0  0  0  0  0  0  0  0  0  0
    1.2911    5.5497   11.5836 C   0  0  0  0  0  0  0  0  0  0  0  0
    0.3241    6.3701   11.0233 C   0  0  0  0  0  0  0  0  0  0  0  0
   -0.8224    5.7705   10.5762 C   0  0  0  0  0  0  0  0  0  0  0  0
   -0.9998    4.3910   10.6848 C   0  0  0  0  0  0  0  0  0  0  0  0
    0.5582    7.7160   10.9456 O   0  0  0  0  0  0  0  0  0  0  0  0
    0.2940    8.6776   11.9243 C   0  0  0  0  0  0  0  0  0  0  0  0
    2.4644    6.1166   12.0477 O   0  0  0  0  0  0  0  0  0  0  0  0
    2.6213    6.2501   13.4462 C   0  0  0  0  0  0  0  0  0  0  0  0
    2.4189    3.2443   12.4233 Cl  0  0  0  0  0  0  0  0  0  0  0  0
  1  2  1  0
  2  3  2  0
  3  4  1  0
  4  5  2  0
  5  6  1  0
  6  7  2  0
  5  8  1  0
  8  9  1  0
  9 10  2  0
 10 11  1  0
 11 12  1  0
 12 13  1  0
 13 14  1  0
 14 15  1  0
 15 16  1  0
 16 17  2  0
 17 18  1  0
 18 19  2  0
 19 20  1  0
 20 21  2  0
 19 22  1  0
 22 23  1  0
 18 24  1  0
 24 25  1  0
 17 26  1  0
  7  2  1  0
 10  4  1  0
 14  9  1  0
 21 16  1  0
M  END
$$$$
