
     RDKit          3D

 26 29  0  0  0  0  0  0  0  0999 V2000
   -1.7150   -5.2573    7.0226 C   0  0  0  0  0  0  0  0  0  0  0  0
   -1.3880   -4.2406    8.0768 C   0  0  0  0  0  0  0  0  0  0  0  0
   -1.2894   -2.8896    7.7961 C   0  0  0  0  0  0  0  0  0  0  0  0
   -0.9939   -1.9300    8.7202 C   0  0  0  0  0  0  0  0  0  0  0  0
   -0.7765   -2.3261   10.0279 C   0  0  0  0  0  0  0  0  0  0  0  0
   -0.8652   -3.6787   10.3582 C   0  0  0  0  0  0  0  0  0  0  0  0
   -1.1667   -4.6151    9.3917 C   0  0  0  0  0  0  0  0  0  0  0  0
   -0.5046   -1.2275   10.7549 N   0  0  0  0  0  0  0  0  0  0  0  0
   -0.5342   -0.1136    9.9732 C   0  0  0  0  0  0  0  0  0  0  0  0
   -0.8396   -0.5474    8.7012 C   0  0  0  0  0  0  0  0  0  0  0  0
   -0.9762    0.3487    7.5244 C   0  0  0  0  0  0  0  0  0  0  0  0
   -0.7796    1.7879    7.9523 C   0  0  0  0  0  0  0  0  0  0  0  0
    0.2289    1.8922    8.9762 N   0  0  0  0  0  0  0  0  0  0  0  0
   -0.3216    1.3219   10.2032 C   0  0  0  0  0  0  0  0  0  0  0  0
    0.5792    1.6188   11.3843 C   0  0  0  0  0  0  0  0  0  0  0  0
    0.4894    3.0812   11.6219 C   0  0  0  0  0  0  0  0  0  0  0  0
   -0.3756    3.5847   12.5630 C   0  0  0  0  0  0  0  0  0  0  0  0
   -0.4496    4.9553   12.7719 C   0  0  0  0  0  0  0  0  0  0  0  0
    0.3261    5.8560   12.0584 C   0  0  0  0  0  0  0  0  0  0  0  0
    1.1834    5.3403   11.1240 C   0  0  0  0  0  0  0  0  0  0  0  0
    1.2649    3.9646   10.9071 C   0  0  0  0  0  0  0  0  0  0  0  0
    0.1997    7.1935   12.3181 O   0  0  0  0  0  0  0  0  0  0  0  0
    1.1891    8.0599   12.7899 C   0  0  0  0  0  0  0  0  0  0  0  0
   -1.3289    5.4360   13.7255 O   0  0  0  0  0  0  0  0  0  0  0  0
   -0.8669    5.5278   15.0583 C   0  0  0  0  0  0  0  0  0  0  0  0
   -1.4079    2.5466   13.5282 Cl  0  0  0  0  0  0  0  0  0  0  0  0
  1  2  1  0
  2  3  2  0
  3  4  1  0
  4  5  2  0
  5  6  1  0
  6  7  2  0
  5  8  1  0
  8  9  1  0
  9 10  2  0
 10 11  1  0
 11 12  1  0
 12 13  1  0
 13 14  1  0
 14 15  1  0
 15 16  1  0
 16 17  2  0
 17 18  1  0
 18 19  2  0
 19 20  1  0
 20 21  2  0
 19 22  1  0
 22 23  1  0
 18 24  1  0
 24 25  1  0
 17 26  1  0
  7  2  1  0
 10  4  1  0
 14  9  1  0
 21 16  1  0
M  END
$$$$
