
     RDKit          3D

 26 29  0  0  0  0  0  0  0  0999 V2000
   -1.3607   -5.3518    8.2998 C   0  0  0  0  0  0  0  0  0  0  0  0
   -1.5076   -3.8596    8.3598 C   0  0  0  0  0  0  0  0  0  0  0  0
   -0.7427   -3.0743    9.2036 C   0  0  0  0  0  0  0  0  0  0  0  0
   -0.8416   -1.7162    9.2931 C   0  0  0  0  0  0  0  0  0  0  0  0
   -1.7667   -1.0735    8.4898 C   0  0  0  0  0  0  0  0  0  0  0  0
   -2.5609   -1.8245    7.6227 C   0  0  0  0  0  0  0  0  0  0  0  0
   -2.4272   -3.1959    7.5647 C   0  0  0  0  0  0  0  0  0  0  0  0
   -1.6908    0.2455    8.7424 N   0  0  0  0  0  0  0  0  0  0  0  0
   -0.7452    0.5009    9.6876 C   0  0  0  0  0  0  0  0  0  0  0  0
   -0.2118   -0.7217   10.0345 C   0  0  0  0  0  0  0  0  0  0  0  0
    0.8642   -0.9068   11.0416 C   0  0  0  0  0  0  0  0  0  0  0  0
    1.3034    0.4409   11.5742 C   0  0  0  0  0  0  0  0  0  0  0  0
    0.1849    1.3413   11.6946 N   0  0  0  0  0  0  0  0  0  0  0  0
   -0.2357    1.7118   10.3456 C   0  0  0  0  0  0  0  0  0  0  0  0
   -1.2397    2.8452   10.3887 C   0  0  0  0  0  0  0  0  0  0  0  0
   -0.5578    3.9831   11.0546 C   0  0  0  0  0  0  0  0  0  0  0  0
   -0.3264    5.1542   10.3747 C   0  0  0  0  0  0  0  0  0  0  0  0
    0.3147    6.2087   11.0109 C   0  0  0  0  0  0  0  0  0  0  0  0
    0.7401    6.1303   12.3281 C   0  0  0  0  0  0  0  0  0  0  0  0
    0.5030    4.9576   12.9933 C   0  0  0  0  0  0  0  0  0  0  0  0
   -0.1406    3.8926   12.3625 C   0  0  0  0  0  0  0  0  0  0  0  0
    1.3655    7.2100   12.8899 O   0  0  0  0  0  0  0  0  0  0  0  0
    0.8712    8.0435   13.8963 C   0  0  0  0  0  0  0  0  0  0  0  0
    0.5355    7.3767   10.3034 O   0  0  0  0  0  0  0  0  0  0  0  0
    1.8527    7.6387    9.8624 C   0  0  0  0  0  0  0  0  0  0  0  0
   -0.8175    5.3741    8.7058 Cl  0  0  0  0  0  0  0  0  0  0  0  0
  1  2  1  0
  2  3  2  0
  3  4  1  0
  4  5  2  0
  5  6  1  0
  6  7  2  0
  5  8  1  0
  8  9  1  0
  9 10  2  0
 10 11  1  0
 11 12  1  0
 12 13  1  0
 13 14  1  0
 14 15  1  0
 15 16  1  0
 16 17  2  0
 17 18  1  0
 18 19  2  0
 19 20  1  0
 20 21  2  0
 19 22  1  0
 22 23  1  0
 18 24  1  0
 24 25  1  0
 17 26  1  0
  7  2  1  0
 10  4  1  0
 14  9  1  0
 21 16  1  0
M  END
$$$$
