
     RDKit          3D

 26 29  0  0  0  0  0  0  0  0999 V2000
   -1.8697   -5.0676    6.9938 C   0  0  0  0  0  0  0  0  0  0  0  0
   -1.5152   -4.0481    8.0363 C   0  0  0  0  0  0  0  0  0  0  0  0
   -1.3320   -2.7112    7.7314 C   0  0  0  0  0  0  0  0  0  0  0  0
   -1.0085   -1.7498    8.6442 C   0  0  0  0  0  0  0  0  0  0  0  0
   -0.8511   -2.1288    9.9654 C   0  0  0  0  0  0  0  0  0  0  0  0
   -1.0259   -3.4667   10.3203 C   0  0  0  0  0  0  0  0  0  0  0  0
   -1.3528   -4.4056    9.3645 C   0  0  0  0  0  0  0  0  0  0  0  0
   -0.5378   -1.0317   10.6777 N   0  0  0  0  0  0  0  0  0  0  0  0
   -0.4818    0.0648    9.8731 C   0  0  0  0  0  0  0  0  0  0  0  0
   -0.7754   -0.3789    8.6017 C   0  0  0  0  0  0  0  0  0  0  0  0
   -0.8274    0.4976    7.4036 C   0  0  0  0  0  0  0  0  0  0  0  0
   -0.5615    1.9325    7.8078 C   0  0  0  0  0  0  0  0  0  0  0  0
    0.4220    2.0022    8.8586 N   0  0  0  0  0  0  0  0  0  0  0  0
   -0.1944    1.4908   10.0802 C   0  0  0  0  0  0  0  0  0  0  0  0
    0.6881    1.7622   11.2810 C   0  0  0  0  0  0  0  0  0  0  0  0
    0.6016    3.2207   11.5427 C   0  0  0  0  0  0  0  0  0  0  0  0
   -0.3734    3.7262   12.3679 C   0  0  0  0  0  0  0  0  0  0  0  0
   -0.4425    5.0933   12.6010 C   0  0  0  0  0  0  0  0  0  0  0  0
    0.4467    5.9882   12.0262 C   0  0  0  0  0  0  0  0  0  0  0  0
    1.4130    5.4705   11.2062 C   0  0  0  0  0  0  0  0  0  0  0  0
    1.4904    4.0984   10.9661 C   0  0  0  0  0  0  0  0  0  0  0  0
    0.3179    7.3224   12.3013 O   0  0  0  0  0  0  0  0  0  0  0  0
    0.8885    8.0245   13.3660 C   0  0  0  0  0  0  0  0  0  0  0  0
   -1.4341    5.5761   13.4359 O   0  0  0  0  0  0  0  0  0  0  0  0
   -2.6449    5.9993   12.8417 C   0  0  0  0  0  0  0  0  0  0  0  0
   -1.5550    2.6954   13.1528 Cl  0  0  0  0  0  0  0  0  0  0  0  0
  1  2  1  0
  2  3  2  0
  3  4  1  0
  4  5  2  0
  5  6  1  0
  6  7  2  0
  5  8  1  0
  8  9  1  0
  9 10  2  0
 10 11  1  0
 11 12  1  0
 12 13  1  0
 13 14  1  0
 14 15  1  0
 15 16  1  0
 16 17  2  0
 17 18  1  0
 18 19  2  0
 19 20  1  0
 20 21  2  0
 19 22  1  0
 22 23  1  0
 18 24  1  0
 24 25  1  0
 17 26  1  0
  7  2  1  0
 10  4  1  0
 14  9  1  0
 21 16  1  0
M  END
$$$$
