
     RDKit          3D

 26 29  0  0  0  0  0  0  0  0999 V2000
   -1.2212   -5.3486    7.0115 C   0  0  0  0  0  0  0  0  0  0  0  0
   -1.0419   -4.2540    8.0223 C   0  0  0  0  0  0  0  0  0  0  0  0
   -1.0053   -2.9176    7.6668 C   0  0  0  0  0  0  0  0  0  0  0  0
   -0.8436   -1.8894    8.5493 C   0  0  0  0  0  0  0  0  0  0  0  0
   -0.7059   -2.1951    9.8916 C   0  0  0  0  0  0  0  0  0  0  0  0
   -0.7364   -3.5296   10.2974 C   0  0  0  0  0  0  0  0  0  0  0  0
   -0.9022   -4.5375    9.3708 C   0  0  0  0  0  0  0  0  0  0  0  0
   -0.5607   -1.0413   10.5675 N   0  0  0  0  0  0  0  0  0  0  0  0
   -0.5975    0.0219    9.7184 C   0  0  0  0  0  0  0  0  0  0  0  0
   -0.7742   -0.5030    8.4563 C   0  0  0  0  0  0  0  0  0  0  0  0
   -0.8728    0.3136    7.2195 C   0  0  0  0  0  0  0  0  0  0  0  0
   -0.8002    1.7847    7.5710 C   0  0  0  0  0  0  0  0  0  0  0  0
    0.1161    2.0140    8.6592 N   0  0  0  0  0  0  0  0  0  0  0  0
   -0.4930    1.4791    9.8744 C   0  0  0  0  0  0  0  0  0  0  0  0
    0.2918    1.9020   11.0991 C   0  0  0  0  0  0  0  0  0  0  0  0
    0.1154    3.3707   11.2225 C   0  0  0  0  0  0  0  0  0  0  0  0
    0.4438    4.0186   12.3885 C   0  0  0  0  0  0  0  0  0  0  0  0
    0.2708    5.3926   12.4891 C   0  0  0  0  0  0  0  0  0  0  0  0
   -0.2287    6.1544   11.4441 C   0  0  0  0  0  0  0  0  0  0  0  0
   -0.5517    5.4956   10.2883 C   0  0  0  0  0  0  0  0  0  0  0  0
   -0.3813    4.1154   10.1778 C   0  0  0  0  0  0  0  0  0  0  0  0
   -0.3722    7.5044   11.6151 O   0  0  0  0  0  0  0  0  0  0  0  0
    0.6277    8.4268   11.9338 C   0  0  0  0  0  0  0  0  0  0  0  0
    0.6093    6.0203   13.6744 O   0  0  0  0  0  0  0  0  0  0  0  0
    1.9833    6.1471   13.9816 C   0  0  0  0  0  0  0  0  0  0  0  0
    1.0844    3.1643   13.7795 Cl  0  0  0  0  0  0  0  0  0  0  0  0
  1  2  1  0
  2  3  2  0
  3  4  1  0
  4  5  2  0
  5  6  1  0
  6  7  2  0
  5  8  1  0
  8  9  1  0
  9 10  2  0
 10 11  1  0
 11 12  1  0
 12 13  1  0
 13 14  1  0
 14 15  1  0
 15 16  1  0
 16 17  2  0
 17 18  1  0
 18 19  2  0
 19 20  1  0
 20 21  2  0
 19 22  1  0
 22 23  1  0
 18 24  1  0
 24 25  1  0
 17 26  1  0
  7  2  1  0
 10  4  1  0
 14  9  1  0
 21 16  1  0
M  END
$$$$
