
     RDKit          3D

 26 29  0  0  0  0  0  0  0  0999 V2000
   -1.5452   -5.6462    8.1845 C   0  0  0  0  0  0  0  0  0  0  0  0
   -1.5457   -4.1459    8.2150 C   0  0  0  0  0  0  0  0  0  0  0  0
   -1.1456   -3.4285    9.3281 C   0  0  0  0  0  0  0  0  0  0  0  0
   -1.1302   -2.0660    9.4024 C   0  0  0  0  0  0  0  0  0  0  0  0
   -1.5409   -1.3460    8.2947 C   0  0  0  0  0  0  0  0  0  0  0  0
   -1.9534   -2.0267    7.1489 C   0  0  0  0  0  0  0  0  0  0  0  0
   -1.9529   -3.4054    7.1176 C   0  0  0  0  0  0  0  0  0  0  0  0
   -1.4441   -0.0374    8.5908 N   0  0  0  0  0  0  0  0  0  0  0  0
   -0.9822    0.1362    9.8594 C   0  0  0  0  0  0  0  0  0  0  0  0
   -0.7844   -1.1285   10.3704 C   0  0  0  0  0  0  0  0  0  0  0  0
   -0.2792   -1.4053   11.7395 C   0  0  0  0  0  0  0  0  0  0  0  0
    0.0240   -0.1008   12.4461 C   0  0  0  0  0  0  0  0  0  0  0  0
   -0.9341    0.9159   12.0930 N   0  0  0  0  0  0  0  0  0  0  0  0
   -0.6851    1.2998   10.7058 C   0  0  0  0  0  0  0  0  0  0  0  0
   -1.4827    2.5344   10.3391 C   0  0  0  0  0  0  0  0  0  0  0  0
   -0.9410    3.6428   11.1645 C   0  0  0  0  0  0  0  0  0  0  0  0
   -0.4574    4.7839   10.5717 C   0  0  0  0  0  0  0  0  0  0  0  0
    0.0481    5.8110   11.3575 C   0  0  0  0  0  0  0  0  0  0  0  0
    0.0872    5.7342   12.7411 C   0  0  0  0  0  0  0  0  0  0  0  0
   -0.3979    4.5915   13.3181 C   0  0  0  0  0  0  0  0  0  0  0  0
   -0.9079    3.5541   12.5370 C   0  0  0  0  0  0  0  0  0  0  0  0
    0.5998    6.7857   13.4510 O   0  0  0  0  0  0  0  0  0  0  0  0
   -0.1081    7.7046   14.2299 C   0  0  0  0  0  0  0  0  0  0  0  0
    0.5289    6.9491   10.7353 O   0  0  0  0  0  0  0  0  0  0  0  0
    1.9130    7.0094   10.4544 C   0  0  0  0  0  0  0  0  0  0  0  0
   -0.4533    4.9988    8.8314 Cl  0  0  0  0  0  0  0  0  0  0  0  0
  1  2  1  0
  2  3  2  0
  3  4  1  0
  4  5  2  0
  5  6  1  0
  6  7  2  0
  5  8  1  0
  8  9  1  0
  9 10  2  0
 10 11  1  0
 11 12  1  0
 12 13  1  0
 13 14  1  0
 14 15  1  0
 15 16  1  0
 16 17  2  0
 17 18  1  0
 18 19  2  0
 19 20  1  0
 20 21  2  0
 19 22  1  0
 22 23  1  0
 18 24  1  0
 24 25  1  0
 17 26  1  0
  7  2  1  0
 10  4  1  0
 14  9  1  0
 21 16  1  0
M  END
$$$$
