
     RDKit          3D

 26 29  0  0  0  0  0  0  0  0999 V2000
   -1.8218   -5.2819    8.1343 C   0  0  0  0  0  0  0  0  0  0  0  0
   -1.5547   -3.8084    8.0380 C   0  0  0  0  0  0  0  0  0  0  0  0
   -1.1421   -3.0588    9.1251 C   0  0  0  0  0  0  0  0  0  0  0  0
   -0.8886   -1.7186    9.0856 C   0  0  0  0  0  0  0  0  0  0  0  0
   -1.0529   -1.0571    7.8816 C   0  0  0  0  0  0  0  0  0  0  0  0
   -1.4679   -1.7720    6.7577 C   0  0  0  0  0  0  0  0  0  0  0  0
   -1.7129   -3.1264    6.8430 C   0  0  0  0  0  0  0  0  0  0  0  0
   -0.7510    0.2393    8.0754 N   0  0  0  0  0  0  0  0  0  0  0  0
   -0.3911    0.4614    9.3692 C   0  0  0  0  0  0  0  0  0  0  0  0
   -0.4753   -0.7589   10.0042 C   0  0  0  0  0  0  0  0  0  0  0  0
   -0.1640   -0.9753   11.4404 C   0  0  0  0  0  0  0  0  0  0  0  0
    0.2992    0.3243   12.0645 C   0  0  0  0  0  0  0  0  0  0  0  0
   -0.4208    1.4475   11.5201 N   0  0  0  0  0  0  0  0  0  0  0  0
    0.0271    1.6384   10.1429 C   0  0  0  0  0  0  0  0  0  0  0  0
   -0.4952    2.9463    9.5851 C   0  0  0  0  0  0  0  0  0  0  0  0
    0.1375    4.0247   10.3850 C   0  0  0  0  0  0  0  0  0  0  0  0
   -0.1220    5.3449   10.1075 C   0  0  0  0  0  0  0  0  0  0  0  0
    0.4794    6.3422   10.8636 C   0  0  0  0  0  0  0  0  0  0  0  0
    1.3474    6.0587   11.9067 C   0  0  0  0  0  0  0  0  0  0  0  0
    1.5968    4.7391   12.1720 C   0  0  0  0  0  0  0  0  0  0  0  0
    0.9972    3.7301   11.4180 C   0  0  0  0  0  0  0  0  0  0  0  0
    1.9034    7.0935   12.6086 O   0  0  0  0  0  0  0  0  0  0  0  0
    1.6090    7.4806   13.9184 C   0  0  0  0  0  0  0  0  0  0  0  0
    0.2011    7.6635   10.5631 O   0  0  0  0  0  0  0  0  0  0  0  0
   -0.8513    8.2901   11.2687 C   0  0  0  0  0  0  0  0  0  0  0  0
   -1.2018    5.8293    8.8136 Cl  0  0  0  0  0  0  0  0  0  0  0  0
  1  2  1  0
  2  3  2  0
  3  4  1  0
  4  5  2  0
  5  6  1  0
  6  7  2  0
  5  8  1  0
  8  9  1  0
  9 10  2  0
 10 11  1  0
 11 12  1  0
 12 13  1  0
 13 14  1  0
 14 15  1  0
 15 16  1  0
 16 17  2  0
 17 18  1  0
 18 19  2  0
 19 20  1  0
 20 21  2  0
 19 22  1  0
 22 23  1  0
 18 24  1  0
 24 25  1  0
 17 26  1  0
  7  2  1  0
 10  4  1  0
 14  9  1  0
 21 16  1  0
M  END
$$$$
