
     RDKit          3D

 26 29  0  0  0  0  0  0  0  0999 V2000
   -1.0617   -5.2747    7.3215 C   0  0  0  0  0  0  0  0  0  0  0  0
   -1.0595   -4.1221    8.2823 C   0  0  0  0  0  0  0  0  0  0  0  0
   -0.8857   -2.8137    7.8677 C   0  0  0  0  0  0  0  0  0  0  0  0
   -0.8754   -1.7352    8.7036 C   0  0  0  0  0  0  0  0  0  0  0  0
   -1.0494   -1.9559   10.0582 C   0  0  0  0  0  0  0  0  0  0  0  0
   -1.2282   -3.2592   10.5231 C   0  0  0  0  0  0  0  0  0  0  0  0
   -1.2318   -4.3203    9.6422 C   0  0  0  0  0  0  0  0  0  0  0  0
   -1.0043   -0.7652   10.6822 N   0  0  0  0  0  0  0  0  0  0  0  0
   -0.8060    0.2404    9.7865 C   0  0  0  0  0  0  0  0  0  0  0  0
   -0.7251   -0.3608    8.5489 C   0  0  0  0  0  0  0  0  0  0  0  0
   -0.5131    0.3753    7.2762 C   0  0  0  0  0  0  0  0  0  0  0  0
   -0.4532    1.8634    7.5501 C   0  0  0  0  0  0  0  0  0  0  0  0
    0.2114    2.1352    8.7994 N   0  0  0  0  0  0  0  0  0  0  0  0
   -0.6729    1.7008    9.8780 C   0  0  0  0  0  0  0  0  0  0  0  0
   -0.1576    2.1787   11.2198 C   0  0  0  0  0  0  0  0  0  0  0  0
   -0.0377    3.6549   11.1203 C   0  0  0  0  0  0  0  0  0  0  0  0
    0.9744    4.3193   11.7695 C   0  0  0  0  0  0  0  0  0  0  0  0
    1.0718    5.7007   11.6684 C   0  0  0  0  0  0  0  0  0  0  0  0
    0.1748    6.4538   10.9266 C   0  0  0  0  0  0  0  0  0  0  0  0
   -0.8285    5.7786   10.2851 C   0  0  0  0  0  0  0  0  0  0  0  0
   -0.9344    4.3908   10.3807 C   0  0  0  0  0  0  0  0  0  0  0  0
    0.3328    7.8119   10.8723 O   0  0  0  0  0  0  0  0  0  0  0  0
   -0.2629    8.7657   11.7016 C   0  0  0  0  0  0  0  0  0  0  0  0
    2.1003    6.3451   12.3320 O   0  0  0  0  0  0  0  0  0  0  0  0
    1.9780    6.5101   13.7306 C   0  0  0  0  0  0  0  0  0  0  0  0
    2.1696    3.4773   12.7377 Cl  0  0  0  0  0  0  0  0  0  0  0  0
  1  2  1  0
  2  3  2  0
  3  4  1  0
  4  5  2  0
  5  6  1  0
  6  7  2  0
  5  8  1  0
  8  9  1  0
  9 10  2  0
 10 11  1  0
 11 12  1  0
 12 13  1  0
 13 14  1  0
 14 15  1  0
 15 16  1  0
 16 17  2  0
 17 18  1  0
 18 19  2  0
 19 20  1  0
 20 21  2  0
 19 22  1  0
 22 23  1  0
 18 24  1  0
 24 25  1  0
 17 26  1  0
  7  2  1  0
 10  4  1  0
 14  9  1  0
 21 16  1  0
M  END
$$$$
