
     RDKit          3D

 26 29  0  0  0  0  0  0  0  0999 V2000
   -1.8778   -5.5209    7.1190 C   0  0  0  0  0  0  0  0  0  0  0  0
   -1.4064   -4.4437    8.0513 C   0  0  0  0  0  0  0  0  0  0  0  0
   -1.3589   -3.1121    7.6793 C   0  0  0  0  0  0  0  0  0  0  0  0
   -0.9374   -2.0995    8.4912 C   0  0  0  0  0  0  0  0  0  0  0  0
   -0.5280   -2.4172    9.7740 C   0  0  0  0  0  0  0  0  0  0  0  0
   -0.5583   -3.7474   10.1937 C   0  0  0  0  0  0  0  0  0  0  0  0
   -0.9921   -4.7393    9.3394 C   0  0  0  0  0  0  0  0  0  0  0  0
   -0.1596   -1.2777   10.3865 N   0  0  0  0  0  0  0  0  0  0  0  0
   -0.3109   -0.2124    9.5527 C   0  0  0  0  0  0  0  0  0  0  0  0
   -0.7968   -0.7210    8.3674 C   0  0  0  0  0  0  0  0  0  0  0  0
   -1.1104    0.1035    7.1723 C   0  0  0  0  0  0  0  0  0  0  0  0
   -0.8627    1.5652    7.4802 C   0  0  0  0  0  0  0  0  0  0  0  0
    0.2844    1.7284    8.3369 N   0  0  0  0  0  0  0  0  0  0  0  0
   -0.0763    1.2338    9.6632 C   0  0  0  0  0  0  0  0  0  0  0  0
    0.9860    1.5988   10.6794 C   0  0  0  0  0  0  0  0  0  0  0  0
    0.5593    2.8838   11.2876 C   0  0  0  0  0  0  0  0  0  0  0  0
    0.1128    2.9284   12.5861 C   0  0  0  0  0  0  0  0  0  0  0  0
   -0.2849    4.1379   13.1399 C   0  0  0  0  0  0  0  0  0  0  0  0
   -0.2509    5.3259   12.4262 C   0  0  0  0  0  0  0  0  0  0  0  0
    0.1961    5.2666   11.1336 C   0  0  0  0  0  0  0  0  0  0  0  0
    0.5980    4.0560   10.5685 C   0  0  0  0  0  0  0  0  0  0  0  0
   -0.6586    6.4804   13.0373 O   0  0  0  0  0  0  0  0  0  0  0  0
   -1.7646    7.2670   12.7056 C   0  0  0  0  0  0  0  0  0  0  0  0
   -0.7304    4.1550   14.4494 O   0  0  0  0  0  0  0  0  0  0  0  0
   -2.0891    3.8442   14.6853 C   0  0  0  0  0  0  0  0  0  0  0  0
    0.0241    1.4932   13.5897 Cl  0  0  0  0  0  0  0  0  0  0  0  0
  1  2  1  0
  2  3  2  0
  3  4  1  0
  4  5  2  0
  5  6  1  0
  6  7  2  0
  5  8  1  0
  8  9  1  0
  9 10  2  0
 10 11  1  0
 11 12  1  0
 12 13  1  0
 13 14  1  0
 14 15  1  0
 15 16  1  0
 16 17  2  0
 17 18  1  0
 18 19  2  0
 19 20  1  0
 20 21  2  0
 19 22  1  0
 22 23  1  0
 18 24  1  0
 24 25  1  0
 17 26  1  0
  7  2  1  0
 10  4  1  0
 14  9  1  0
 21 16  1  0
M  END
$$$$
