
     RDKit          3D

 26 29  0  0  0  0  0  0  0  0999 V2000
   -1.5154   -5.7333    8.1910 C   0  0  0  0  0  0  0  0  0  0  0  0
   -1.4818   -4.2332    8.1744 C   0  0  0  0  0  0  0  0  0  0  0  0
   -1.1970   -3.4871    9.3040 C   0  0  0  0  0  0  0  0  0  0  0  0
   -1.1562   -2.1235    9.3371 C   0  0  0  0  0  0  0  0  0  0  0  0
   -1.4162   -1.4328    8.1669 C   0  0  0  0  0  0  0  0  0  0  0  0
   -1.7086   -2.1431    7.0022 C   0  0  0  0  0  0  0  0  0  0  0  0
   -1.7390   -3.5218    7.0142 C   0  0  0  0  0  0  0  0  0  0  0  0
   -1.3219   -0.1174    8.4313 N   0  0  0  0  0  0  0  0  0  0  0  0
   -1.0076    0.0893    9.7395 C   0  0  0  0  0  0  0  0  0  0  0  0
   -0.9028   -1.1612   10.3094 C   0  0  0  0  0  0  0  0  0  0  0  0
   -0.5685   -1.4022   11.7365 C   0  0  0  0  0  0  0  0  0  0  0  0
   -0.3176   -0.0812   12.4329 C   0  0  0  0  0  0  0  0  0  0  0  0
   -1.2019    0.9431   11.9378 N   0  0  0  0  0  0  0  0  0  0  0  0
   -0.7826    1.2744   10.5783 C   0  0  0  0  0  0  0  0  0  0  0  0
   -1.5005    2.5124   10.0820 C   0  0  0  0  0  0  0  0  0  0  0  0
   -1.1454    3.6064   11.0202 C   0  0  0  0  0  0  0  0  0  0  0  0
   -0.0452    4.3960   10.7891 C   0  0  0  0  0  0  0  0  0  0  0  0
    0.2750    5.4139   11.6774 C   0  0  0  0  0  0  0  0  0  0  0  0
   -0.4815    5.6737   12.8097 C   0  0  0  0  0  0  0  0  0  0  0  0
   -1.5749    4.8792   13.0274 C   0  0  0  0  0  0  0  0  0  0  0  0
   -1.9047    3.8541   12.1405 C   0  0  0  0  0  0  0  0  0  0  0  0
   -0.1055    6.6939   13.6406 O   0  0  0  0  0  0  0  0  0  0  0  0
   -0.9220    7.6956   14.1718 C   0  0  0  0  0  0  0  0  0  0  0  0
    1.3882    6.1942   11.4212 O   0  0  0  0  0  0  0  0  0  0  0  0
    2.6025    5.8323   12.0480 C   0  0  0  0  0  0  0  0  0  0  0  0
    0.9890    4.1654    9.3919 Cl  0  0  0  0  0  0  0  0  0  0  0  0
  1  2  1  0
  2  3  2  0
  3  4  1  0
  4  5  2  0
  5  6  1  0
  6  7  2  0
  5  8  1  0
  8  9  1  0
  9 10  2  0
 10 11  1  0
 11 12  1  0
 12 13  1  0
 13 14  1  0
 14 15  1  0
 15 16  1  0
 16 17  2  0
 17 18  1  0
 18 19  2  0
 19 20  1  0
 20 21  2  0
 19 22  1  0
 22 23  1  0
 18 24  1  0
 24 25  1  0
 17 26  1  0
  7  2  1  0
 10  4  1  0
 14  9  1  0
 21 16  1  0
M  END
$$$$
