
     RDKit          3D

 26 29  0  0  0  0  0  0  0  0999 V2000
   -1.7251   -5.1312    7.3055 C   0  0  0  0  0  0  0  0  0  0  0  0
   -1.5570   -4.0169    8.2965 C   0  0  0  0  0  0  0  0  0  0  0  0
   -1.3104   -2.7123    7.9078 C   0  0  0  0  0  0  0  0  0  0  0  0
   -1.1499   -1.6681    8.7714 C   0  0  0  0  0  0  0  0  0  0  0  0
   -1.2377   -1.9223   10.1286 C   0  0  0  0  0  0  0  0  0  0  0  0
   -1.4851   -3.2232   10.5677 C   0  0  0  0  0  0  0  0  0  0  0  0
   -1.6411   -4.2490    9.6593 C   0  0  0  0  0  0  0  0  0  0  0  0
   -1.0496   -0.7615   10.7816 N   0  0  0  0  0  0  0  0  0  0  0  0
   -0.8396    0.2566    9.9028 C   0  0  0  0  0  0  0  0  0  0  0  0
   -0.9015   -0.3050    8.6456 C   0  0  0  0  0  0  0  0  0  0  0  0
   -0.7282    0.4568    7.3823 C   0  0  0  0  0  0  0  0  0  0  0  0
   -0.5280    1.9250    7.6939 C   0  0  0  0  0  0  0  0  0  0  0  0
    0.2493    2.0998    8.8946 N   0  0  0  0  0  0  0  0  0  0  0  0
   -0.5827    1.6980   10.0261 C   0  0  0  0  0  0  0  0  0  0  0  0
    0.0698    2.0865   11.3367 C   0  0  0  0  0  0  0  0  0  0  0  0
    0.1524    3.5686   11.3398 C   0  0  0  0  0  0  0  0  0  0  0  0
    1.1932    4.2094   11.9669 C   0  0  0  0  0  0  0  0  0  0  0  0
    1.2550    5.5965   11.9628 C   0  0  0  0  0  0  0  0  0  0  0  0
    0.2936    6.3787   11.3417 C   0  0  0  0  0  0  0  0  0  0  0  0
   -0.7377    5.7268   10.7208 C   0  0  0  0  0  0  0  0  0  0  0  0
   -0.8084    4.3335   10.7195 C   0  0  0  0  0  0  0  0  0  0  0  0
    0.4196    7.7407   11.3784 O   0  0  0  0  0  0  0  0  0  0  0  0
    0.5129    8.6104   10.2888 C   0  0  0  0  0  0  0  0  0  0  0  0
    2.3136    6.2167   12.6017 O   0  0  0  0  0  0  0  0  0  0  0  0
    2.2615    6.3197   14.0106 C   0  0  0  0  0  0  0  0  0  0  0  0
    2.4695    3.3297   12.7865 Cl  0  0  0  0  0  0  0  0  0  0  0  0
  1  2  1  0
  2  3  2  0
  3  4  1  0
  4  5  2  0
  5  6  1  0
  6  7  2  0
  5  8  1  0
  8  9  1  0
  9 10  2  0
 10 11  1  0
 11 12  1  0
 12 13  1  0
 13 14  1  0
 14 15  1  0
 15 16  1  0
 16 17  2  0
 17 18  1  0
 18 19  2  0
 19 20  1  0
 20 21  2  0
 19 22  1  0
 22 23  1  0
 18 24  1  0
 24 25  1  0
 17 26  1  0
  7  2  1  0
 10  4  1  0
 14  9  1  0
 21 16  1  0
M  END
$$$$
