
     RDKit          3D

 26 29  0  0  0  0  0  0  0  0999 V2000
   -0.9946   -4.4446    6.5244 C   0  0  0  0  0  0  0  0  0  0  0  0
   -0.9886   -3.4321    7.6320 C   0  0  0  0  0  0  0  0  0  0  0  0
   -0.8071   -2.0807    7.3978 C   0  0  0  0  0  0  0  0  0  0  0  0
   -0.7931   -1.1248    8.3716 C   0  0  0  0  0  0  0  0  0  0  0  0
   -0.9713   -1.5253    9.6838 C   0  0  0  0  0  0  0  0  0  0  0  0
   -1.1579   -2.8784    9.9683 C   0  0  0  0  0  0  0  0  0  0  0  0
   -1.1651   -3.8109    8.9524 C   0  0  0  0  0  0  0  0  0  0  0  0
   -0.9214   -0.4298   10.4628 N   0  0  0  0  0  0  0  0  0  0  0  0
   -0.7159    0.6862    9.7112 C   0  0  0  0  0  0  0  0  0  0  0  0
   -0.6353    0.2570    8.4039 C   0  0  0  0  0  0  0  0  0  0  0  0
   -0.4166    1.1568    7.2425 C   0  0  0  0  0  0  0  0  0  0  0  0
   -0.3496    2.5940    7.7147 C   0  0  0  0  0  0  0  0  0  0  0  0
    0.3135    2.6912    8.9902 N   0  0  0  0  0  0  0  0  0  0  0  0
   -0.5754    2.1202    9.9990 C   0  0  0  0  0  0  0  0  0  0  0  0
   -0.0607    2.4100   11.3938 C   0  0  0  0  0  0  0  0  0  0  0  0
   -0.2667    3.8621   11.6225 C   0  0  0  0  0  0  0  0  0  0  0  0
    0.8037    4.6929   11.8488 C   0  0  0  0  0  0  0  0  0  0  0  0
    0.5944    6.0486   12.0633 C   0  0  0  0  0  0  0  0  0  0  0  0
   -0.6724    6.6119   12.0591 C   0  0  0  0  0  0  0  0  0  0  0  0
   -1.7296    5.7723   11.8324 C   0  0  0  0  0  0  0  0  0  0  0  0
   -1.5292    4.4088   11.6158 C   0  0  0  0  0  0  0  0  0  0  0  0
   -0.8026    7.9563   12.2780 O   0  0  0  0  0  0  0  0  0  0  0  0
   -1.3597    8.5801   13.3973 C   0  0  0  0  0  0  0  0  0  0  0  0
    1.6895    6.8630   12.2889 O   0  0  0  0  0  0  0  0  0  0  0  0
    2.0054    7.8269   11.3043 C   0  0  0  0  0  0  0  0  0  0  0  0
    2.4533    4.0987   11.8779 Cl  0  0  0  0  0  0  0  0  0  0  0  0
  1  2  1  0
  2  3  2  0
  3  4  1  0
  4  5  2  0
  5  6  1  0
  6  7  2  0
  5  8  1  0
  8  9  1  0
  9 10  2  0
 10 11  1  0
 11 12  1  0
 12 13  1  0
 13 14  1  0
 14 15  1  0
 15 16  1  0
 16 17  2  0
 17 18  1  0
 18 19  2  0
 19 20  1  0
 20 21  2  0
 19 22  1  0
 22 23  1  0
 18 24  1  0
 24 25  1  0
 17 26  1  0
  7  2  1  0
 10  4  1  0
 14  9  1  0
 21 16  1  0
M  END
$$$$
