
     RDKit          3D

 26 29  0  0  0  0  0  0  0  0999 V2000
   -1.3596   -5.2140    7.2868 C   0  0  0  0  0  0  0  0  0  0  0  0
   -1.3972   -4.1093    8.3018 C   0  0  0  0  0  0  0  0  0  0  0  0
   -1.1161   -2.7947    7.9751 C   0  0  0  0  0  0  0  0  0  0  0  0
   -1.1366   -1.7586    8.8629 C   0  0  0  0  0  0  0  0  0  0  0  0
   -1.4588   -2.0324   10.1803 C   0  0  0  0  0  0  0  0  0  0  0  0
   -1.7497   -3.3440   10.5565 C   0  0  0  0  0  0  0  0  0  0  0  0
   -1.7171   -4.3610    9.6256 C   0  0  0  0  0  0  0  0  0  0  0  0
   -1.4175   -0.8764   10.8668 N   0  0  0  0  0  0  0  0  0  0  0  0
   -1.0783    0.1573   10.0488 C   0  0  0  0  0  0  0  0  0  0  0  0
   -0.9021   -0.3890    8.7957 C   0  0  0  0  0  0  0  0  0  0  0  0
   -0.5245    0.3928    7.5904 C   0  0  0  0  0  0  0  0  0  0  0  0
   -0.4177    1.8608    7.9460 C   0  0  0  0  0  0  0  0  0  0  0  0
    0.1289    2.0367    9.2676 N   0  0  0  0  0  0  0  0  0  0  0  0
   -0.8816    1.6022   10.2289 C   0  0  0  0  0  0  0  0  0  0  0  0
   -0.4824    1.9876   11.6383 C   0  0  0  0  0  0  0  0  0  0  0  0
   -0.3046    3.4613   11.6347 C   0  0  0  0  0  0  0  0  0  0  0  0
    0.8349    4.0292   12.1507 C   0  0  0  0  0  0  0  0  0  0  0  0
    0.9853    5.4095   12.1420 C   0  0  0  0  0  0  0  0  0  0  0  0
    0.0169    6.2565   11.6254 C   0  0  0  0  0  0  0  0  0  0  0  0
   -1.1132    5.6769   11.1146 C   0  0  0  0  0  0  0  0  0  0  0  0
   -1.2732    4.2910   11.1188 C   0  0  0  0  0  0  0  0  0  0  0  0
    0.2336    7.6074   11.6505 O   0  0  0  0  0  0  0  0  0  0  0  0
   -0.0010    8.5201   10.6190 C   0  0  0  0  0  0  0  0  0  0  0  0
    2.1423    5.9556   12.6679 O   0  0  0  0  0  0  0  0  0  0  0  0
    3.1701    6.3117   11.7650 C   0  0  0  0  0  0  0  0  0  0  0  0
    2.1302    3.0631   12.8318 Cl  0  0  0  0  0  0  0  0  0  0  0  0
  1  2  1  0
  2  3  2  0
  3  4  1  0
  4  5  2  0
  5  6  1  0
  6  7  2  0
  5  8  1  0
  8  9  1  0
  9 10  2  0
 10 11  1  0
 11 12  1  0
 12 13  1  0
 13 14  1  0
 14 15  1  0
 15 16  1  0
 16 17  2  0
 17 18  1  0
 18 19  2  0
 19 20  1  0
 20 21  2  0
 19 22  1  0
 22 23  1  0
 18 24  1  0
 24 25  1  0
 17 26  1  0
  7  2  1  0
 10  4  1  0
 14  9  1  0
 21 16  1  0
M  END
$$$$
