
     RDKit          3D

 26 29  0  0  0  0  0  0  0  0999 V2000
   -2.0304   -5.1822    6.8532 C   0  0  0  0  0  0  0  0  0  0  0  0
   -1.5859   -4.2112    7.9075 C   0  0  0  0  0  0  0  0  0  0  0  0
   -1.4757   -2.8539    7.6637 C   0  0  0  0  0  0  0  0  0  0  0  0
   -1.0754   -1.9346    8.5894 C   0  0  0  0  0  0  0  0  0  0  0  0
   -0.7562   -2.3814    9.8593 C   0  0  0  0  0  0  0  0  0  0  0  0
   -0.8522   -3.7423   10.1515 C   0  0  0  0  0  0  0  0  0  0  0  0
   -1.2615   -4.6368    9.1849 C   0  0  0  0  0  0  0  0  0  0  0  0
   -0.3928   -1.3158   10.5953 N   0  0  0  0  0  0  0  0  0  0  0  0
   -0.4601   -0.1748    9.8562 C   0  0  0  0  0  0  0  0  0  0  0  0
   -0.8863   -0.5564    8.6023 C   0  0  0  0  0  0  0  0  0  0  0  0
   -1.1003    0.3835    7.4721 C   0  0  0  0  0  0  0  0  0  0  0  0
   -0.8287    1.8017    7.9282 C   0  0  0  0  0  0  0  0  0  0  0  0
    0.2673    1.8459    8.8626 N   0  0  0  0  0  0  0  0  0  0  0  0
   -0.1898    1.2463   10.1137 C   0  0  0  0  0  0  0  0  0  0  0  0
    0.8178    1.4799   11.2204 C   0  0  0  0  0  0  0  0  0  0  0  0
    0.6793    2.9031   11.6187 C   0  0  0  0  0  0  0  0  0  0  0  0
    0.4781    3.2445   12.9340 C   0  0  0  0  0  0  0  0  0  0  0  0
    0.3483    4.5802   13.2903 C   0  0  0  0  0  0  0  0  0  0  0  0
    0.4141    5.6047   12.3586 C   0  0  0  0  0  0  0  0  0  0  0  0
    0.6150    5.2500   11.0518 C   0  0  0  0  0  0  0  0  0  0  0  0
    0.7466    3.9106   10.6842 C   0  0  0  0  0  0  0  0  0  0  0  0
    0.2774    6.8985   12.7827 O   0  0  0  0  0  0  0  0  0  0  0  0
    1.3002    7.8051   13.0729 C   0  0  0  0  0  0  0  0  0  0  0  0
    0.1462    4.8966   14.6217 O   0  0  0  0  0  0  0  0  0  0  0  0
   -1.1784    4.8539   15.1134 C   0  0  0  0  0  0  0  0  0  0  0  0
    0.3770    2.0391   14.2036 Cl  0  0  0  0  0  0  0  0  0  0  0  0
  1  2  1  0
  2  3  2  0
  3  4  1  0
  4  5  2  0
  5  6  1  0
  6  7  2  0
  5  8  1  0
  8  9  1  0
  9 10  2  0
 10 11  1  0
 11 12  1  0
 12 13  1  0
 13 14  1  0
 14 15  1  0
 15 16  1  0
 16 17  2  0
 17 18  1  0
 18 19  2  0
 19 20  1  0
 20 21  2  0
 19 22  1  0
 22 23  1  0
 18 24  1  0
 24 25  1  0
 17 26  1  0
  7  2  1  0
 10  4  1  0
 14  9  1  0
 21 16  1  0
M  END
$$$$
