
     RDKit          3D

 26 29  0  0  0  0  0  0  0  0999 V2000
   -1.6322   -5.0040    7.2178 C   0  0  0  0  0  0  0  0  0  0  0  0
   -1.4155   -3.9424    8.2561 C   0  0  0  0  0  0  0  0  0  0  0  0
   -1.1506   -2.6259    7.9238 C   0  0  0  0  0  0  0  0  0  0  0  0
   -0.9460   -1.6279    8.8318 C   0  0  0  0  0  0  0  0  0  0  0  0
   -1.0055   -1.9455   10.1771 C   0  0  0  0  0  0  0  0  0  0  0  0
   -1.2699   -3.2608   10.5600 C   0  0  0  0  0  0  0  0  0  0  0  0
   -1.4706   -4.2382    9.6080 C   0  0  0  0  0  0  0  0  0  0  0  0
   -0.7762   -0.8215   10.8796 N   0  0  0  0  0  0  0  0  0  0  0  0
   -0.5662    0.2332   10.0452 C   0  0  0  0  0  0  0  0  0  0  0  0
   -0.6715   -0.2657    8.7647 C   0  0  0  0  0  0  0  0  0  0  0  0
   -0.5133    0.5524    7.5351 C   0  0  0  0  0  0  0  0  0  0  0  0
   -0.2738    1.9995    7.9111 C   0  0  0  0  0  0  0  0  0  0  0  0
    0.5367    2.1003    9.0982 N   0  0  0  0  0  0  0  0  0  0  0  0
   -0.2752    1.6614   10.2304 C   0  0  0  0  0  0  0  0  0  0  0  0
    0.4179    1.9730   11.5407 C   0  0  0  0  0  0  0  0  0  0  0  0
    0.5273    3.4514   11.6150 C   0  0  0  0  0  0  0  0  0  0  0  0
   -0.5892    4.2257   11.8179 C   0  0  0  0  0  0  0  0  0  0  0  0
   -0.4706    5.6076   11.8827 C   0  0  0  0  0  0  0  0  0  0  0  0
    0.7490    6.2532   11.7490 C   0  0  0  0  0  0  0  0  0  0  0  0
    1.8529    5.4692   11.5473 C   0  0  0  0  0  0  0  0  0  0  0  0
    1.7438    4.0800   11.4808 C   0  0  0  0  0  0  0  0  0  0  0  0
    0.7898    7.6189   11.8238 O   0  0  0  0  0  0  0  0  0  0  0  0
    1.4221    8.3932   12.7999 C   0  0  0  0  0  0  0  0  0  0  0  0
   -1.6106    6.3638   12.0877 O   0  0  0  0  0  0  0  0  0  0  0  0
   -2.1648    7.0325   10.9723 C   0  0  0  0  0  0  0  0  0  0  0  0
   -2.1864    3.5258   12.0017 Cl  0  0  0  0  0  0  0  0  0  0  0  0
  1  2  1  0
  2  3  2  0
  3  4  1  0
  4  5  2  0
  5  6  1  0
  6  7  2  0
  5  8  1  0
  8  9  1  0
  9 10  2  0
 10 11  1  0
 11 12  1  0
 12 13  1  0
 13 14  1  0
 14 15  1  0
 15 16  1  0
 16 17  2  0
 17 18  1  0
 18 19  2  0
 19 20  1  0
 20 21  2  0
 19 22  1  0
 22 23  1  0
 18 24  1  0
 24 25  1  0
 17 26  1  0
  7  2  1  0
 10  4  1  0
 14  9  1  0
 21 16  1  0
M  END
$$$$
