
     RDKit          3D

 26 29  0  0  0  0  0  0  0  0999 V2000
   -0.9564   -5.2383    7.2154 C   0  0  0  0  0  0  0  0  0  0  0  0
   -0.9870   -4.1057    8.1994 C   0  0  0  0  0  0  0  0  0  0  0  0
   -0.8932   -2.7824    7.8072 C   0  0  0  0  0  0  0  0  0  0  0  0
   -0.9154   -1.7210    8.6646 C   0  0  0  0  0  0  0  0  0  0  0  0
   -1.0393   -1.9765   10.0186 C   0  0  0  0  0  0  0  0  0  0  0  0
   -1.1369   -3.2960   10.4612 C   0  0  0  0  0  0  0  0  0  0  0  0
   -1.1103   -4.3388    9.5591 C   0  0  0  0  0  0  0  0  0  0  0  0
   -1.0386   -0.7972   10.6656 N   0  0  0  0  0  0  0  0  0  0  0  0
   -0.9182    0.2344    9.7857 C   0  0  0  0  0  0  0  0  0  0  0  0
   -0.8411   -0.3379    8.5342 C   0  0  0  0  0  0  0  0  0  0  0  0
   -0.7037    0.4325    7.2717 C   0  0  0  0  0  0  0  0  0  0  0  0
   -0.7135    1.9162    7.5745 C   0  0  0  0  0  0  0  0  0  0  0  0
   -0.0289    2.1985    8.8106 N   0  0  0  0  0  0  0  0  0  0  0  0
   -0.8586    1.6977    9.9036 C   0  0  0  0  0  0  0  0  0  0  0  0
   -0.3312    2.1763   11.2405 C   0  0  0  0  0  0  0  0  0  0  0  0
   -0.6003    3.6349   11.2986 C   0  0  0  0  0  0  0  0  0  0  0  0
    0.4331    4.5321   11.4190 C   0  0  0  0  0  0  0  0  0  0  0  0
    0.1648    5.8933   11.4742 C   0  0  0  0  0  0  0  0  0  0  0  0
   -1.1254    6.3968   11.4122 C   0  0  0  0  0  0  0  0  0  0  0  0
   -2.1451    5.4914   11.2923 C   0  0  0  0  0  0  0  0  0  0  0  0
   -1.8855    4.1218   11.2359 C   0  0  0  0  0  0  0  0  0  0  0  0
   -1.3140    7.7507   11.4727 O   0  0  0  0  0  0  0  0  0  0  0  0
   -1.9480    8.4710   12.4884 C   0  0  0  0  0  0  0  0  0  0  0  0
    1.2236    6.7752   11.5957 O   0  0  0  0  0  0  0  0  0  0  0  0
    1.7133    7.0389   12.8953 C   0  0  0  0  0  0  0  0  0  0  0  0
    2.1071    4.0175   11.5069 Cl  0  0  0  0  0  0  0  0  0  0  0  0
  1  2  1  0
  2  3  2  0
  3  4  1  0
  4  5  2  0
  5  6  1  0
  6  7  2  0
  5  8  1  0
  8  9  1  0
  9 10  2  0
 10 11  1  0
 11 12  1  0
 12 13  1  0
 13 14  1  0
 14 15  1  0
 15 16  1  0
 16 17  2  0
 17 18  1  0
 18 19  2  0
 19 20  1  0
 20 21  2  0
 19 22  1  0
 22 23  1  0
 18 24  1  0
 24 25  1  0
 17 26  1  0
  7  2  1  0
 10  4  1  0
 14  9  1  0
 21 16  1  0
M  END
$$$$
