
     RDKit          3D

 26 29  0  0  0  0  0  0  0  0999 V2000
   -1.2692   -5.4052    8.3728 C   0  0  0  0  0  0  0  0  0  0  0  0
   -1.1136   -3.9209    8.2157 C   0  0  0  0  0  0  0  0  0  0  0  0
   -0.8143   -3.0916    9.2818 C   0  0  0  0  0  0  0  0  0  0  0  0
   -0.6645   -1.7386    9.1874 C   0  0  0  0  0  0  0  0  0  0  0  0
   -0.8210   -1.1482    7.9460 C   0  0  0  0  0  0  0  0  0  0  0  0
   -1.1235   -1.9449    6.8413 C   0  0  0  0  0  0  0  0  0  0  0  0
   -1.2660   -3.3093    6.9824 C   0  0  0  0  0  0  0  0  0  0  0  0
   -0.6310    0.1757    8.0887 N   0  0  0  0  0  0  0  0  0  0  0  0
   -0.3531    0.4851    9.3849 C   0  0  0  0  0  0  0  0  0  0  0  0
   -0.3727   -0.7078   10.0750 C   0  0  0  0  0  0  0  0  0  0  0  0
   -0.1159   -0.8324   11.5327 C   0  0  0  0  0  0  0  0  0  0  0  0
    0.2134    0.5274   12.1120 C   0  0  0  0  0  0  0  0  0  0  0  0
   -0.5647    1.5630   11.4808 N   0  0  0  0  0  0  0  0  0  0  0  0
   -0.0663    1.7260   10.1174 C   0  0  0  0  0  0  0  0  0  0  0  0
   -0.6612    2.9608    9.4725 C   0  0  0  0  0  0  0  0  0  0  0  0
   -0.2724    4.1089   10.3292 C   0  0  0  0  0  0  0  0  0  0  0  0
   -1.2180    4.7900   11.0568 C   0  0  0  0  0  0  0  0  0  0  0  0
   -0.8387    5.8632   11.8518 C   0  0  0  0  0  0  0  0  0  0  0  0
    0.4782    6.2862   11.9456 C   0  0  0  0  0  0  0  0  0  0  0  0
    1.4097    5.5984   11.2153 C   0  0  0  0  0  0  0  0  0  0  0  0
    1.0382    4.5187   10.4137 C   0  0  0  0  0  0  0  0  0  0  0  0
    0.7783    7.3521   12.7494 O   0  0  0  0  0  0  0  0  0  0  0  0
    1.4802    7.3283   13.9573 C   0  0  0  0  0  0  0  0  0  0  0  0
   -1.8107    6.5318   12.5741 O   0  0  0  0  0  0  0  0  0  0  0  0
   -2.5902    7.4942   11.8925 C   0  0  0  0  0  0  0  0  0  0  0  0
   -2.9150    4.3498   11.0208 Cl  0  0  0  0  0  0  0  0  0  0  0  0
  1  2  1  0
  2  3  2  0
  3  4  1  0
  4  5  2  0
  5  6  1  0
  6  7  2  0
  5  8  1  0
  8  9  1  0
  9 10  2  0
 10 11  1  0
 11 12  1  0
 12 13  1  0
 13 14  1  0
 14 15  1  0
 15 16  1  0
 16 17  2  0
 17 18  1  0
 18 19  2  0
 19 20  1  0
 20 21  2  0
 19 22  1  0
 22 23  1  0
 18 24  1  0
 24 25  1  0
 17 26  1  0
  7  2  1  0
 10  4  1  0
 14  9  1  0
 21 16  1  0
M  END
$$$$
