
     RDKit          3D

 15 17  0  0  0  0  0  0  0  0999 V2000
    0.9852   -0.5971    8.3971 C   0  0  0  0  0  0  0  0  0  0  0  0
    0.5911    0.2899    7.3494 N   0  0  0  0  0  4  0  0  0  0  0  0
    1.0105   -0.1060    6.0383 C   0  0  0  0  0  0  0  0  0  0  0  0
    2.1468   -1.0658    6.1429 C   0  0  0  0  0  0  0  0  0  0  0  0
    1.6899   -2.2526    6.8180 N   0  0  0  0  0  0  0  0  0  0  0  0
    0.7930   -2.0211    7.9367 C   0  0  0  0  0  0  0  0  0  0  0  0
    2.0523   -3.5790    6.4653 C   0  0  0  0  0  0  0  0  0  0  0  0
    1.7838   -4.0854    5.2129 C   0  0  0  0  0  0  0  0  0  0  0  0
    2.1344   -5.3669    4.8734 C   0  0  0  0  0  0  0  0  0  0  0  0
    2.7621   -6.1520    5.7995 C   0  0  0  0  0  0  0  0  0  0  0  0
    3.0376   -5.6537    7.0628 C   0  0  0  0  0  0  0  0  0  0  0  0
    2.6911   -4.3764    7.4095 C   0  0  0  0  0  0  0  0  0  0  0  0
    3.0892   -4.1615    8.7214 C   0  0  0  0  0  0  0  0  0  0  0  0
    3.6714   -5.3094    9.1538 C   0  0  0  0  0  0  0  0  0  0  0  0
    3.6371   -6.2033    8.1508 N   0  0  0  0  0  0  0  0  0  0  0  0
  1  2  1  0
  2  3  1  0
  3  4  1  0
  4  5  1  0
  5  6  1  0
  5  7  1  0
  7  8  2  0
  8  9  1  0
  9 10  2  0
 10 11  1  0
 11 12  2  0
 12 13  1  0
 13 14  2  0
 14 15  1  0
  6  1  1  0
 12  7  1  0
 15 11  1  0
M  CHG  1   2   1
M  END
$$$$
