
     RDKit          3D

 15 17  0  0  0  0  0  0  0  0999 V2000
    0.6058   -0.3119    8.4647 C   0  0  0  0  0  0  0  0  0  0  0  0
    0.1068    0.4690    7.3780 N   0  0  0  0  0  4  0  0  0  0  0  0
    0.4924    0.0053    6.0788 C   0  0  0  0  0  0  0  0  0  0  0  0
    1.6937   -0.8704    6.1942 C   0  0  0  0  0  0  0  0  0  0  0  0
    1.3477   -2.0309    6.9730 N   0  0  0  0  0  0  0  0  0  0  0  0
    0.4885   -1.7751    8.1158 C   0  0  0  0  0  0  0  0  0  0  0  0
    1.7817   -3.3540    6.6970 C   0  0  0  0  0  0  0  0  0  0  0  0
    1.5937   -3.9251    5.4578 C   0  0  0  0  0  0  0  0  0  0  0  0
    2.0133   -5.2034    5.1924 C   0  0  0  0  0  0  0  0  0  0  0  0
    2.6292   -5.9196    6.1802 C   0  0  0  0  0  0  0  0  0  0  0  0
    2.8240   -5.3559    7.4310 C   0  0  0  0  0  0  0  0  0  0  0  0
    2.4083   -4.0812    7.7039 C   0  0  0  0  0  0  0  0  0  0  0  0
    2.7351   -3.7929    9.0214 C   0  0  0  0  0  0  0  0  0  0  0  0
    3.3439   -4.8944    9.5308 C   0  0  0  0  0  0  0  0  0  0  0  0
    3.3942   -5.8313    8.5685 N   0  0  0  0  0  0  0  0  0  0  0  0
  1  2  1  0
  2  3  1  0
  3  4  1  0
  4  5  1  0
  5  6  1  0
  5  7  1  0
  7  8  2  0
  8  9  1  0
  9 10  2  0
 10 11  1  0
 11 12  2  0
 12 13  1  0
 13 14  2  0
 14 15  1  0
  6  1  1  0
 12  7  1  0
 15 11  1  0
M  CHG  1   2   1
M  END
$$$$
