
     RDKit          3D

 15 17  0  0  0  0  0  0  0  0999 V2000
    0.5981   -0.6567    8.3383 C   0  0  0  0  0  0  0  0  0  0  0  0
    0.1726    0.1921    7.2713 N   0  0  0  0  0  4  0  0  0  0  0  0
    0.6231   -0.2062    5.9713 C   0  0  0  0  0  0  0  0  0  0  0  0
    1.8026   -1.1088    6.1032 C   0  0  0  0  0  0  0  0  0  0  0  0
    1.3960   -2.3040    6.7954 N   0  0  0  0  0  0  0  0  0  0  0  0
    0.4783   -2.0960    7.9018 C   0  0  0  0  0  0  0  0  0  0  0  0
    1.8245   -3.6176    6.4697 C   0  0  0  0  0  0  0  0  0  0  0  0
    1.6177   -4.1476    5.2154 C   0  0  0  0  0  0  0  0  0  0  0  0
    2.0321   -5.4167    4.9020 C   0  0  0  0  0  0  0  0  0  0  0  0
    2.6617   -6.1653    5.8567 C   0  0  0  0  0  0  0  0  0  0  0  0
    2.8754   -5.6430    7.1223 C   0  0  0  0  0  0  0  0  0  0  0  0
    2.4651   -4.3778    7.4429 C   0  0  0  0  0  0  0  0  0  0  0  0
    2.8114   -4.1331    8.7643 C   0  0  0  0  0  0  0  0  0  0  0  0
    3.4266   -5.2511    9.2282 C   0  0  0  0  0  0  0  0  0  0  0  0
    3.4618   -6.1558    8.2350 N   0  0  0  0  0  0  0  0  0  0  0  0
  1  2  1  0
  2  3  1  0
  3  4  1  0
  4  5  1  0
  5  6  1  0
  5  7  1  0
  7  8  2  0
  8  9  1  0
  9 10  2  0
 10 11  1  0
 11 12  2  0
 12 13  1  0
 13 14  2  0
 14 15  1  0
  6  1  1  0
 12  7  1  0
 15 11  1  0
M  CHG  1   2   1
M  END
$$$$
