
     RDKit          3D

 15 17  0  0  0  0  0  0  0  0999 V2000
    0.7522   -0.3934    8.2613 C   0  0  0  0  0  0  0  0  0  0  0  0
    0.5281    0.5423    7.2058 N   0  0  0  0  0  4  0  0  0  0  0  0
    1.1259    0.1886    5.9532 C   0  0  0  0  0  0  0  0  0  0  0  0
    2.2194   -0.7995    6.1796 C   0  0  0  0  0  0  0  0  0  0  0  0
    1.6504   -2.0013    6.7319 N   0  0  0  0  0  0  0  0  0  0  0  0
    0.6053   -1.7938    7.7190 C   0  0  0  0  0  0  0  0  0  0  0  0
    2.0382   -3.3207    6.3798 C   0  0  0  0  0  0  0  0  0  0  0  0
    1.7787   -3.8329    5.1279 C   0  0  0  0  0  0  0  0  0  0  0  0
    2.1539   -5.1076    4.7889 C   0  0  0  0  0  0  0  0  0  0  0  0
    2.7973   -5.8799    5.7151 C   0  0  0  0  0  0  0  0  0  0  0  0
    3.0639   -5.3756    6.9779 C   0  0  0  0  0  0  0  0  0  0  0  0
    2.6930   -4.1049    7.3240 C   0  0  0  0  0  0  0  0  0  0  0  0
    3.0877   -3.8816    8.6356 C   0  0  0  0  0  0  0  0  0  0  0  0
    3.6923   -5.0177    9.0683 C   0  0  0  0  0  0  0  0  0  0  0  0
    3.6746   -5.9128    8.0658 N   0  0  0  0  0  0  0  0  0  0  0  0
  1  2  1  0
  2  3  1  0
  3  4  1  0
  4  5  1  0
  5  6  1  0
  5  7  1  0
  7  8  2  0
  8  9  1  0
  9 10  2  0
 10 11  1  0
 11 12  2  0
 12 13  1  0
 13 14  2  0
 14 15  1  0
  6  1  1  0
 12  7  1  0
 15 11  1  0
M  CHG  1   2   1
M  END
$$$$
