
     RDKit          3D

 15 17  0  0  0  0  0  0  0  0999 V2000
    0.6123   -0.5388    8.1724 C   0  0  0  0  0  0  0  0  0  0  0  0
    0.1732    0.3133    7.1136 N   0  0  0  0  0  4  0  0  0  0  0  0
    0.6240   -0.0693    5.8090 C   0  0  0  0  0  0  0  0  0  0  0  0
    1.8145   -0.9589    5.9298 C   0  0  0  0  0  0  0  0  0  0  0  0
    1.4243   -2.1643    6.6138 N   0  0  0  0  0  0  0  0  0  0  0  0
    0.5079   -1.9759    7.7248 C   0  0  0  0  0  0  0  0  0  0  0  0
    1.8671   -3.4701    6.2763 C   0  0  0  0  0  0  0  0  0  0  0  0
    1.6752   -3.9871    5.0142 C   0  0  0  0  0  0  0  0  0  0  0  0
    2.1034   -5.2487    4.6894 C   0  0  0  0  0  0  0  0  0  0  0  0
    2.7319   -6.0029    5.6402 C   0  0  0  0  0  0  0  0  0  0  0  0
    2.9308   -5.4937    6.9136 C   0  0  0  0  0  0  0  0  0  0  0  0
    2.5066   -4.2361    7.2457 C   0  0  0  0  0  0  0  0  0  0  0  0
    2.8402   -4.0038    8.5726 C   0  0  0  0  0  0  0  0  0  0  0  0
    3.4616   -5.1217    9.0284 C   0  0  0  0  0  0  0  0  0  0  0  0
    3.5128   -6.0144    8.0250 N   0  0  0  0  0  0  0  0  0  0  0  0
  1  2  1  0
  2  3  1  0
  3  4  1  0
  4  5  1  0
  5  6  1  0
  5  7  1  0
  7  8  2  0
  8  9  1  0
  9 10  2  0
 10 11  1  0
 11 12  2  0
 12 13  1  0
 13 14  2  0
 14 15  1  0
  6  1  1  0
 12  7  1  0
 15 11  1  0
M  CHG  1   2   1
M  END
$$$$
