
     RDKit          3D

 15 17  0  0  0  0  0  0  0  0999 V2000
    0.9173    0.3715    5.9116 C   0  0  0  0  0  0  0  0  0  0  0  0
    1.1430    0.8639    7.2331 N   0  0  0  0  0  4  0  0  0  0  0  0
    1.4063   -0.1466    8.2134 C   0  0  0  0  0  0  0  0  0  0  0  0
    0.9079   -1.4637    7.7234 C   0  0  0  0  0  0  0  0  0  0  0  0
    1.6398   -1.8234    6.5368 N   0  0  0  0  0  0  0  0  0  0  0  0
    1.9067   -0.7295    5.6194 C   0  0  0  0  0  0  0  0  0  0  0  0
    2.0951   -3.1321    6.2280 C   0  0  0  0  0  0  0  0  0  0  0  0
    1.8860   -3.6880    4.9853 C   0  0  0  0  0  0  0  0  0  0  0  0
    2.3263   -4.9523    4.6882 C   0  0  0  0  0  0  0  0  0  0  0  0
    2.9845   -5.6697    5.6475 C   0  0  0  0  0  0  0  0  0  0  0  0
    3.2008   -5.1211    6.9014 C   0  0  0  0  0  0  0  0  0  0  0  0
    2.7648   -3.8605    7.2058 C   0  0  0  0  0  0  0  0  0  0  0  0
    3.1208   -3.5854    8.5186 C   0  0  0  0  0  0  0  0  0  0  0  0
    3.7674   -4.6807    8.9937 C   0  0  0  0  0  0  0  0  0  0  0  0
    3.8121   -5.6012    8.0154 N   0  0  0  0  0  0  0  0  0  0  0  0
  1  2  1  0
  2  3  1  0
  3  4  1  0
  4  5  1  0
  5  6  1  0
  5  7  1  0
  7  8  2  0
  8  9  1  0
  9 10  2  0
 10 11  1  0
 11 12  2  0
 12 13  1  0
 13 14  2  0
 14 15  1  0
  6  1  1  0
 12  7  1  0
 15 11  1  0
M  CHG  1   2   1
M  END
$$$$
