
     RDKit          3D

 15 17  0  0  0  0  0  0  0  0999 V2000
    1.5247   -0.4884    8.3295 C   0  0  0  0  0  0  0  0  0  0  0  0
    0.6506    0.2226    7.4518 N   0  0  0  0  0  4  0  0  0  0  0  0
    0.6045   -0.2822    6.1121 C   0  0  0  0  0  0  0  0  0  0  0  0
    1.8203   -1.1021    5.8422 C   0  0  0  0  0  0  0  0  0  0  0  0
    1.8165   -2.2402    6.7242 N   0  0  0  0  0  0  0  0  0  0  0  0
    1.3758   -1.9692    8.0814 C   0  0  0  0  0  0  0  0  0  0  0  0
    2.2032   -3.5554    6.3558 C   0  0  0  0  0  0  0  0  0  0  0  0
    2.0174   -4.0236    5.0739 C   0  0  0  0  0  0  0  0  0  0  0  0
    2.3913   -5.2943    4.7193 C   0  0  0  0  0  0  0  0  0  0  0  0
    2.9588   -6.1074    5.6601 C   0  0  0  0  0  0  0  0  0  0  0  0
    3.1508   -5.6477    6.9532 C   0  0  0  0  0  0  0  0  0  0  0  0
    2.7805   -4.3813    7.3150 C   0  0  0  0  0  0  0  0  0  0  0  0
    3.0922   -4.2065    8.6560 C   0  0  0  0  0  0  0  0  0  0  0  0
    3.6468   -5.3671    9.0904 C   0  0  0  0  0  0  0  0  0  0  0  0
    3.6792   -6.2302    8.0607 N   0  0  0  0  0  0  0  0  0  0  0  0
  1  2  1  0
  2  3  1  0
  3  4  1  0
  4  5  1  0
  5  6  1  0
  5  7  1  0
  7  8  2  0
  8  9  1  0
  9 10  2  0
 10 11  1  0
 11 12  2  0
 12 13  1  0
 13 14  2  0
 14 15  1  0
  6  1  1  0
 12  7  1  0
 15 11  1  0
M  CHG  1   2   1
M  END
$$$$
