
     RDKit          3D

 15 17  0  0  0  0  0  0  0  0999 V2000
    0.7749    0.1384    6.2446 C   0  0  0  0  0  0  0  0  0  0  0  0
    0.8344    0.5687    7.6051 N   0  0  0  0  0  4  0  0  0  0  0  0
    0.9730   -0.4871    8.5631 C   0  0  0  0  0  0  0  0  0  0  0  0
    0.5391   -1.7774    7.9548 C   0  0  0  0  0  0  0  0  0  0  0  0
    1.4131   -2.0871    6.8533 N   0  0  0  0  0  0  0  0  0  0  0  0
    1.7926   -0.9542    6.0275 C   0  0  0  0  0  0  0  0  0  0  0  0
    1.9028   -3.3831    6.5437 C   0  0  0  0  0  0  0  0  0  0  0  0
    1.7257   -3.9357    5.2946 C   0  0  0  0  0  0  0  0  0  0  0  0
    2.1993   -5.1877    4.9968 C   0  0  0  0  0  0  0  0  0  0  0  0
    2.8587   -5.8961    5.9619 C   0  0  0  0  0  0  0  0  0  0  0  0
    3.0430   -5.3508    7.2224 C   0  0  0  0  0  0  0  0  0  0  0  0
    2.5737   -4.1023    7.5275 C   0  0  0  0  0  0  0  0  0  0  0  0
    2.9031   -3.8275    8.8473 C   0  0  0  0  0  0  0  0  0  0  0  0
    3.5670   -4.9109    9.3258 C   0  0  0  0  0  0  0  0  0  0  0  0
    3.6478   -5.8239    8.3429 N   0  0  0  0  0  0  0  0  0  0  0  0
  1  2  1  0
  2  3  1  0
  3  4  1  0
  4  5  1  0
  5  6  1  0
  5  7  1  0
  7  8  2  0
  8  9  1  0
  9 10  2  0
 10 11  1  0
 11 12  2  0
 12 13  1  0
 13 14  2  0
 14 15  1  0
  6  1  1  0
 12  7  1  0
 15 11  1  0
M  CHG  1   2   1
M  END
$$$$
