
     RDKit          3D

 15 17  0  0  0  0  0  0  0  0999 V2000
    0.5918    0.0445    6.0595 C   0  0  0  0  0  0  0  0  0  0  0  0
    0.6138    0.4897    7.4164 N   0  0  0  0  0  4  0  0  0  0  0  0
    0.7520   -0.5534    8.3882 C   0  0  0  0  0  0  0  0  0  0  0  0
    0.3560   -1.8580    7.7845 C   0  0  0  0  0  0  0  0  0  0  0  0
    1.2592   -2.1619    6.7052 N   0  0  0  0  0  0  0  0  0  0  0  0
    1.6347   -1.0303    5.8757 C   0  0  0  0  0  0  0  0  0  0  0  0
    1.7802   -3.4513    6.4198 C   0  0  0  0  0  0  0  0  0  0  0  0
    1.6349   -4.0225    5.1750 C   0  0  0  0  0  0  0  0  0  0  0  0
    2.1386   -5.2681    4.9006 C   0  0  0  0  0  0  0  0  0  0  0  0
    2.7964   -5.9510    5.8851 C   0  0  0  0  0  0  0  0  0  0  0  0
    2.9488   -5.3867    7.1414 C   0  0  0  0  0  0  0  0  0  0  0  0
    2.4493   -4.1446    7.4233 C   0  0  0  0  0  0  0  0  0  0  0  0
    2.7513   -3.8470    8.7447 C   0  0  0  0  0  0  0  0  0  0  0  0
    3.4292   -4.9106    9.2474 C   0  0  0  0  0  0  0  0  0  0  0  0
    3.5446   -5.8337    8.2774 N   0  0  0  0  0  0  0  0  0  0  0  0
  1  2  1  0
  2  3  1  0
  3  4  1  0
  4  5  1  0
  5  6  1  0
  5  7  1  0
  7  8  2  0
  8  9  1  0
  9 10  2  0
 10 11  1  0
 11 12  2  0
 12 13  1  0
 13 14  2  0
 14 15  1  0
  6  1  1  0
 12  7  1  0
 15 11  1  0
M  CHG  1   2   1
M  END
$$$$
