
     RDKit          3D

 15 17  0  0  0  0  0  0  0  0999 V2000
    1.0394   -0.5440    8.3259 C   0  0  0  0  0  0  0  0  0  0  0  0
    0.5928    0.3276    7.2865 N   0  0  0  0  0  4  0  0  0  0  0  0
    0.9984   -0.0545    5.9670 C   0  0  0  0  0  0  0  0  0  0  0  0
    2.1696   -0.9738    6.0481 C   0  0  0  0  0  0  0  0  0  0  0  0
    1.7687   -2.1752    6.7328 N   0  0  0  0  0  0  0  0  0  0  0  0
    0.8877   -1.9743    7.8699 C   0  0  0  0  0  0  0  0  0  0  0  0
    2.1700   -3.4884    6.3728 C   0  0  0  0  0  0  0  0  0  0  0  0
    1.9315   -3.9896    5.1123 C   0  0  0  0  0  0  0  0  0  0  0  0
    2.3196   -5.2583    4.7658 C   0  0  0  0  0  0  0  0  0  0  0  0
    2.9549   -6.0359    5.6931 C   0  0  0  0  0  0  0  0  0  0  0  0
    3.2005   -5.5428    6.9646 C   0  0  0  0  0  0  0  0  0  0  0  0
    2.8165   -4.2781    7.3183 C   0  0  0  0  0  0  0  0  0  0  0  0
    3.1913   -4.0657    8.6375 C   0  0  0  0  0  0  0  0  0  0  0  0
    3.7971   -5.2023    9.0672 C   0  0  0  0  0  0  0  0  0  0  0  0
    3.7993   -6.0872    8.0556 N   0  0  0  0  0  0  0  0  0  0  0  0
  1  2  1  0
  2  3  1  0
  3  4  1  0
  4  5  1  0
  5  6  1  0
  5  7  1  0
  7  8  2  0
  8  9  1  0
  9 10  2  0
 10 11  1  0
 11 12  2  0
 12 13  1  0
 13 14  2  0
 14 15  1  0
  6  1  1  0
 12  7  1  0
 15 11  1  0
M  CHG  1   2   1
M  END
$$$$
