
     RDKit          3D

 15 17  0  0  0  0  0  0  0  0999 V2000
   -0.0271   -0.1229    6.5145 C   0  0  0  0  0  0  0  0  0  0  0  0
    0.7520    0.7008    7.3830 N   0  0  0  0  0  4  0  0  0  0  0  0
    1.7200   -0.0033    8.1697 C   0  0  0  0  0  0  0  0  0  0  0  0
    1.3509   -1.4459    8.2471 C   0  0  0  0  0  0  0  0  0  0  0  0
    1.3932   -2.0065    6.9216 N   0  0  0  0  0  0  0  0  0  0  0  0
    0.8715   -1.1500    5.8710 C   0  0  0  0  0  0  0  0  0  0  0  0
    1.8952   -3.2947    6.5995 C   0  0  0  0  0  0  0  0  0  0  0  0
    1.7784   -3.8111    5.3280 C   0  0  0  0  0  0  0  0  0  0  0  0
    2.2638   -5.0556    5.0181 C   0  0  0  0  0  0  0  0  0  0  0  0
    2.8741   -5.7931    5.9936 C   0  0  0  0  0  0  0  0  0  0  0  0
    2.9977   -5.2843    7.2766 C   0  0  0  0  0  0  0  0  0  0  0  0
    2.5161   -4.0436    7.5939 C   0  0  0  0  0  0  0  0  0  0  0  0
    2.7812   -3.8074    8.9355 C   0  0  0  0  0  0  0  0  0  0  0  0
    3.4192   -4.9059    9.4147 C   0  0  0  0  0  0  0  0  0  0  0  0
    3.5463   -5.7909    8.4113 N   0  0  0  0  0  0  0  0  0  0  0  0
  1  2  1  0
  2  3  1  0
  3  4  1  0
  4  5  1  0
  5  6  1  0
  5  7  1  0
  7  8  2  0
  8  9  1  0
  9 10  2  0
 10 11  1  0
 11 12  2  0
 12 13  1  0
 13 14  2  0
 14 15  1  0
  6  1  1  0
 12  7  1  0
 15 11  1  0
M  CHG  1   2   1
M  END
$$$$
