
     RDKit          3D

 15 17  0  0  0  0  0  0  0  0999 V2000
    0.7221   -0.0237    6.1361 C   0  0  0  0  0  0  0  0  0  0  0  0
    0.7667    0.3994    7.4994 N   0  0  0  0  0  4  0  0  0  0  0  0
    0.9157   -0.6597    8.4521 C   0  0  0  0  0  0  0  0  0  0  0  0
    0.5053   -1.9529    7.8337 C   0  0  0  0  0  0  0  0  0  0  0  0
    1.3906   -2.2428    6.7358 N   0  0  0  0  0  0  0  0  0  0  0  0
    1.7578   -1.0993    5.9190 C   0  0  0  0  0  0  0  0  0  0  0  0
    1.9020   -3.5293    6.4218 C   0  0  0  0  0  0  0  0  0  0  0  0
    1.7479   -4.0739    5.1662 C   0  0  0  0  0  0  0  0  0  0  0  0
    2.2423   -5.3168    4.8640 C   0  0  0  0  0  0  0  0  0  0  0  0
    2.8998   -6.0239    5.8314 C   0  0  0  0  0  0  0  0  0  0  0  0
    3.0611   -5.4866    7.0984 C   0  0  0  0  0  0  0  0  0  0  0  0
    2.5708   -4.2473    7.4079 C   0  0  0  0  0  0  0  0  0  0  0  0
    2.8802   -3.9790    8.7339 C   0  0  0  0  0  0  0  0  0  0  0  0
    3.5533   -5.0570    9.2116 C   0  0  0  0  0  0  0  0  0  0  0  0
    3.6588   -5.9606    8.2224 N   0  0  0  0  0  0  0  0  0  0  0  0
  1  2  1  0
  2  3  1  0
  3  4  1  0
  4  5  1  0
  5  6  1  0
  5  7  1  0
  7  8  2  0
  8  9  1  0
  9 10  2  0
 10 11  1  0
 11 12  2  0
 12 13  1  0
 13 14  2  0
 14 15  1  0
  6  1  1  0
 12  7  1  0
 15 11  1  0
M  CHG  1   2   1
M  END
$$$$
