
     RDKit          3D

 15 17  0  0  0  0  0  0  0  0999 V2000
    0.5765    0.1211    6.1482 C   0  0  0  0  0  0  0  0  0  0  0  0
    0.6341    0.5728    7.5019 N   0  0  0  0  0  4  0  0  0  0  0  0
    0.8026   -0.4652    8.4744 C   0  0  0  0  0  0  0  0  0  0  0  0
    0.3947   -1.7740    7.8879 C   0  0  0  0  0  0  0  0  0  0  0  0
    1.2690   -2.0800    6.7856 N   0  0  0  0  0  0  0  0  0  0  0  0
    1.6177   -0.9511    5.9409 C   0  0  0  0  0  0  0  0  0  0  0  0
    1.7864   -3.3689    6.4921 C   0  0  0  0  0  0  0  0  0  0  0  0
    1.6454   -3.9292    5.2418 C   0  0  0  0  0  0  0  0  0  0  0  0
    2.1456   -5.1744    4.9595 C   0  0  0  0  0  0  0  0  0  0  0  0
    2.7956   -5.8681    5.9415 C   0  0  0  0  0  0  0  0  0  0  0  0
    2.9439   -5.3149    7.2033 C   0  0  0  0  0  0  0  0  0  0  0  0
    2.4477   -4.0733    7.4931 C   0  0  0  0  0  0  0  0  0  0  0  0
    2.7441   -3.7880    8.8185 C   0  0  0  0  0  0  0  0  0  0  0  0
    3.4153   -4.8584    9.3156 C   0  0  0  0  0  0  0  0  0  0  0  0
    3.5321   -5.7737    8.3385 N   0  0  0  0  0  0  0  0  0  0  0  0
  1  2  1  0
  2  3  1  0
  3  4  1  0
  4  5  1  0
  5  6  1  0
  5  7  1  0
  7  8  2  0
  8  9  1  0
  9 10  2  0
 10 11  1  0
 11 12  2  0
 12 13  1  0
 13 14  2  0
 14 15  1  0
  6  1  1  0
 12  7  1  0
 15 11  1  0
M  CHG  1   2   1
M  END
$$$$
