
     RDKit          3D

 15 17  0  0  0  0  0  0  0  0999 V2000
    0.7884    0.2009    6.0221 C   0  0  0  0  0  0  0  0  0  0  0  0
    0.8258    0.6271    7.3848 N   0  0  0  0  0  4  0  0  0  0  0  0
    0.9515   -0.4313    8.3416 C   0  0  0  0  0  0  0  0  0  0  0  0
    0.5295   -1.7206    7.7227 C   0  0  0  0  0  0  0  0  0  0  0  0
    1.4211   -2.0253    6.6340 N   0  0  0  0  0  0  0  0  0  0  0  0
    1.8114   -0.8892    5.8177 C   0  0  0  0  0  0  0  0  0  0  0  0
    1.9179   -3.3195    6.3281 C   0  0  0  0  0  0  0  0  0  0  0  0
    1.7444   -3.8765    5.0805 C   0  0  0  0  0  0  0  0  0  0  0  0
    2.2248   -5.1267    4.7863 C   0  0  0  0  0  0  0  0  0  0  0  0
    2.8877   -5.8288    5.7536 C   0  0  0  0  0  0  0  0  0  0  0  0
    3.0686   -5.2790    7.0126 C   0  0  0  0  0  0  0  0  0  0  0  0
    2.5924   -4.0324    7.3142 C   0  0  0  0  0  0  0  0  0  0  0  0
    2.9198   -3.7521    8.6333 C   0  0  0  0  0  0  0  0  0  0  0  0
    3.5895   -4.8306    9.1150 C   0  0  0  0  0  0  0  0  0  0  0  0
    3.6756   -5.7458    8.1346 N   0  0  0  0  0  0  0  0  0  0  0  0
  1  2  1  0
  2  3  1  0
  3  4  1  0
  4  5  1  0
  5  6  1  0
  5  7  1  0
  7  8  2  0
  8  9  1  0
  9 10  2  0
 10 11  1  0
 11 12  2  0
 12 13  1  0
 13 14  2  0
 14 15  1  0
  6  1  1  0
 12  7  1  0
 15 11  1  0
M  CHG  1   2   1
M  END
$$$$
