
     RDKit          3D

 15 17  0  0  0  0  0  0  0  0999 V2000
    1.6490   -0.0020    8.1207 C   0  0  0  0  0  0  0  0  0  0  0  0
    0.5015    0.5333    7.4600 N   0  0  0  0  0  4  0  0  0  0  0  0
    0.1438   -0.1331    6.2436 C   0  0  0  0  0  0  0  0  0  0  0  0
    1.3169   -0.8923    5.7232 C   0  0  0  0  0  0  0  0  0  0  0  0
    1.6690   -1.9116    6.6772 N   0  0  0  0  0  0  0  0  0  0  0  0
    1.5894   -1.5088    8.0703 C   0  0  0  0  0  0  0  0  0  0  0  0
    2.0723   -3.2315    6.3448 C   0  0  0  0  0  0  0  0  0  0  0  0
    1.9402   -3.7191    5.0636 C   0  0  0  0  0  0  0  0  0  0  0  0
    2.3301   -4.9943    4.7438 C   0  0  0  0  0  0  0  0  0  0  0  0
    2.8593   -5.7921    5.7193 C   0  0  0  0  0  0  0  0  0  0  0  0
    2.9972   -5.3128    7.0121 C   0  0  0  0  0  0  0  0  0  0  0  0
    2.6106   -4.0418    7.3393 C   0  0  0  0  0  0  0  0  0  0  0  0
    2.8665   -3.8463    8.6892 C   0  0  0  0  0  0  0  0  0  0  0  0
    3.4042   -4.9993    9.1635 C   0  0  0  0  0  0  0  0  0  0  0  0
    3.4801   -5.8777    8.1492 N   0  0  0  0  0  0  0  0  0  0  0  0
  1  2  1  0
  2  3  1  0
  3  4  1  0
  4  5  1  0
  5  6  1  0
  5  7  1  0
  7  8  2  0
  8  9  1  0
  9 10  2  0
 10 11  1  0
 11 12  2  0
 12 13  1  0
 13 14  2  0
 14 15  1  0
  6  1  1  0
 12  7  1  0
 15 11  1  0
M  CHG  1   2   1
M  END
$$$$
