
     RDKit          3D

 15 17  0  0  0  0  0  0  0  0999 V2000
    1.1058   -0.3382    8.5625 C   0  0  0  0  0  0  0  0  0  0  0  0
    0.6763    0.5573    7.5362 N   0  0  0  0  0  4  0  0  0  0  0  0
    1.0722    0.1855    6.2108 C   0  0  0  0  0  0  0  0  0  0  0  0
    2.2239   -0.7593    6.2771 C   0  0  0  0  0  0  0  0  0  0  0  0
    1.7986   -1.9616    6.9454 N   0  0  0  0  0  0  0  0  0  0  0  0
    0.9235   -1.7583    8.0866 C   0  0  0  0  0  0  0  0  0  0  0  0
    2.1717   -3.2778    6.5663 C   0  0  0  0  0  0  0  0  0  0  0  0
    1.9102   -3.7601    5.3030 C   0  0  0  0  0  0  0  0  0  0  0  0
    2.2711   -5.0317    4.9380 C   0  0  0  0  0  0  0  0  0  0  0  0
    2.9022   -5.8312    5.8494 C   0  0  0  0  0  0  0  0  0  0  0  0
    3.1708   -5.3572    7.1235 C   0  0  0  0  0  0  0  0  0  0  0  0
    2.8140   -4.0898    7.4955 C   0  0  0  0  0  0  0  0  0  0  0  0
    3.2071   -3.8993    8.8127 C   0  0  0  0  0  0  0  0  0  0  0  0
    3.7966   -5.0516    9.2229 C   0  0  0  0  0  0  0  0  0  0  0  0
    3.7714   -5.9248    8.2015 N   0  0  0  0  0  0  0  0  0  0  0  0
  1  2  1  0
  2  3  1  0
  3  4  1  0
  4  5  1  0
  5  6  1  0
  5  7  1  0
  7  8  2  0
  8  9  1  0
  9 10  2  0
 10 11  1  0
 11 12  2  0
 12 13  1  0
 13 14  2  0
 14 15  1  0
  6  1  1  0
 12  7  1  0
 15 11  1  0
M  CHG  1   2   1
M  END
$$$$
