
     RDKit          3D

 15 17  0  0  0  0  0  0  0  0999 V2000
    0.9158    0.1851    5.9813 C   0  0  0  0  0  0  0  0  0  0  0  0
    0.9842    0.6282    7.3373 N   0  0  0  0  0  4  0  0  0  0  0  0
    1.1375   -0.4178    8.3037 C   0  0  0  0  0  0  0  0  0  0  0  0
    0.7064   -1.7163    7.7110 C   0  0  0  0  0  0  0  0  0  0  0  0
    1.5729   -2.0308    6.6049 N   0  0  0  0  0  0  0  0  0  0  0  0
    1.9384   -0.9032    5.7656 C   0  0  0  0  0  0  0  0  0  0  0  0
    2.0679   -3.3266    6.3030 C   0  0  0  0  0  0  0  0  0  0  0  0
    1.8753   -3.8956    5.0637 C   0  0  0  0  0  0  0  0  0  0  0  0
    2.3540   -5.1474    4.7733 C   0  0  0  0  0  0  0  0  0  0  0  0
    3.0346   -5.8389    5.7360 C   0  0  0  0  0  0  0  0  0  0  0  0
    3.2347   -5.2769    6.9867 C   0  0  0  0  0  0  0  0  0  0  0  0
    2.7604   -4.0286    7.2844 C   0  0  0  0  0  0  0  0  0  0  0  0
    3.1087   -3.7352    8.5953 C   0  0  0  0  0  0  0  0  0  0  0  0
    3.7890   -4.8075    9.0760 C   0  0  0  0  0  0  0  0  0  0  0  0
    3.8613   -5.7316    8.1029 N   0  0  0  0  0  0  0  0  0  0  0  0
  1  2  1  0
  2  3  1  0
  3  4  1  0
  4  5  1  0
  5  6  1  0
  5  7  1  0
  7  8  2  0
  8  9  1  0
  9 10  2  0
 10 11  1  0
 11 12  2  0
 12 13  1  0
 13 14  2  0
 14 15  1  0
  6  1  1  0
 12  7  1  0
 15 11  1  0
M  CHG  1   2   1
M  END
$$$$
