
     RDKit          3D

 15 17  0  0  0  0  0  0  0  0999 V2000
    1.0925   -0.3813    8.2087 C   0  0  0  0  0  0  0  0  0  0  0  0
    0.3256    0.3490    7.2504 N   0  0  0  0  0  4  0  0  0  0  0  0
    0.4158   -0.1432    5.9084 C   0  0  0  0  0  0  0  0  0  0  0  0
    1.6431   -0.9770    5.7606 C   0  0  0  0  0  0  0  0  0  0  0  0
    1.5315   -2.1226    6.6256 N   0  0  0  0  0  0  0  0  0  0  0  0
    0.9525   -1.8578    7.9310 C   0  0  0  0  0  0  0  0  0  0  0  0
    1.9388   -3.4397    6.2869 C   0  0  0  0  0  0  0  0  0  0  0  0
    1.7757   -3.9337    5.0117 C   0  0  0  0  0  0  0  0  0  0  0  0
    2.1695   -5.2062    4.6857 C   0  0  0  0  0  0  0  0  0  0  0  0
    2.7340   -5.9947    5.6489 C   0  0  0  0  0  0  0  0  0  0  0  0
    2.9034   -5.5088    6.9355 C   0  0  0  0  0  0  0  0  0  0  0  0
    2.5132   -4.2405    7.2688 C   0  0  0  0  0  0  0  0  0  0  0  0
    2.8049   -4.0371    8.6103 C   0  0  0  0  0  0  0  0  0  0  0  0
    3.3676   -5.1827    9.0734 C   0  0  0  0  0  0  0  0  0  0  0  0
    3.4239   -6.0643    8.0606 N   0  0  0  0  0  0  0  0  0  0  0  0
  1  2  1  0
  2  3  1  0
  3  4  1  0
  4  5  1  0
  5  6  1  0
  5  7  1  0
  7  8  2  0
  8  9  1  0
  9 10  2  0
 10 11  1  0
 11 12  2  0
 12 13  1  0
 13 14  2  0
 14 15  1  0
  6  1  1  0
 12  7  1  0
 15 11  1  0
M  CHG  1   2   1
M  END
$$$$
