
     RDKit          3D

 15 17  0  0  0  0  0  0  0  0999 V2000
    0.6152   -0.6870    8.2422 C   0  0  0  0  0  0  0  0  0  0  0  0
    0.1986    0.1719    7.1799 N   0  0  0  0  0  4  0  0  0  0  0  0
    0.6587   -0.2149    5.8798 C   0  0  0  0  0  0  0  0  0  0  0  0
    1.8363   -1.1198    6.0124 C   0  0  0  0  0  0  0  0  0  0  0  0
    1.4233   -2.3210    6.6905 N   0  0  0  0  0  0  0  0  0  0  0  0
    0.4974   -2.1222    7.7917 C   0  0  0  0  0  0  0  0  0  0  0  0
    1.8530   -3.6319    6.3560 C   0  0  0  0  0  0  0  0  0  0  0  0
    1.6481   -4.1532    5.0978 C   0  0  0  0  0  0  0  0  0  0  0  0
    2.0636   -5.4198    4.7760 C   0  0  0  0  0  0  0  0  0  0  0  0
    2.6927   -6.1747    5.7260 C   0  0  0  0  0  0  0  0  0  0  0  0
    2.9046   -5.6612    6.9955 C   0  0  0  0  0  0  0  0  0  0  0  0
    2.4931   -4.3986    7.3246 C   0  0  0  0  0  0  0  0  0  0  0  0
    2.8378   -4.1629    8.6480 C   0  0  0  0  0  0  0  0  0  0  0  0
    3.4531   -5.2837    9.1048 C   0  0  0  0  0  0  0  0  0  0  0  0
    3.4901   -6.1814    8.1053 N   0  0  0  0  0  0  0  0  0  0  0  0
  1  2  1  0
  2  3  1  0
  3  4  1  0
  4  5  1  0
  5  6  1  0
  5  7  1  0
  7  8  2  0
  8  9  1  0
  9 10  2  0
 10 11  1  0
 11 12  2  0
 12 13  1  0
 13 14  2  0
 14 15  1  0
  6  1  1  0
 12  7  1  0
 15 11  1  0
M  CHG  1   2   1
M  END
$$$$
