
     RDKit          3D

 15 17  0  0  0  0  0  0  0  0999 V2000
    0.8216   -0.4898    8.2256 C   0  0  0  0  0  0  0  0  0  0  0  0
    0.3420    0.3481    7.1731 N   0  0  0  0  0  4  0  0  0  0  0  0
    0.7418   -0.0526    5.8573 C   0  0  0  0  0  0  0  0  0  0  0  0
    1.9359   -0.9414    5.9441 C   0  0  0  0  0  0  0  0  0  0  0  0
    1.5723   -2.1370    6.6591 N   0  0  0  0  0  0  0  0  0  0  0  0
    0.6997   -1.9329    7.8020 C   0  0  0  0  0  0  0  0  0  0  0  0
    2.0014   -3.4477    6.3225 C   0  0  0  0  0  0  0  0  0  0  0  0
    1.8115   -3.9605    5.0584 C   0  0  0  0  0  0  0  0  0  0  0  0
    2.2265   -5.2268    4.7345 C   0  0  0  0  0  0  0  0  0  0  0  0
    2.8397   -5.9898    5.6883 C   0  0  0  0  0  0  0  0  0  0  0  0
    3.0364   -5.4849    6.9636 C   0  0  0  0  0  0  0  0  0  0  0  0
    2.6253   -4.2226    7.2948 C   0  0  0  0  0  0  0  0  0  0  0  0
    2.9530   -3.9964    8.6243 C   0  0  0  0  0  0  0  0  0  0  0  0
    3.5579   -5.1223    9.0824 C   0  0  0  0  0  0  0  0  0  0  0  0
    3.6048   -6.0141    8.0780 N   0  0  0  0  0  0  0  0  0  0  0  0
  1  2  1  0
  2  3  1  0
  3  4  1  0
  4  5  1  0
  5  6  1  0
  5  7  1  0
  7  8  2  0
  8  9  1  0
  9 10  2  0
 10 11  1  0
 11 12  2  0
 12 13  1  0
 13 14  2  0
 14 15  1  0
  6  1  1  0
 12  7  1  0
 15 11  1  0
M  CHG  1   2   1
M  END
$$$$
