
     RDKit          3D

 15 17  0  0  0  0  0  0  0  0999 V2000
    0.9417   -0.2562    8.2540 C   0  0  0  0  0  0  0  0  0  0  0  0
    0.4770    0.5937    7.2046 N   0  0  0  0  0  4  0  0  0  0  0  0
    0.8744    0.1939    5.8879 C   0  0  0  0  0  0  0  0  0  0  0  0
    2.0553   -0.7124    5.9731 C   0  0  0  0  0  0  0  0  0  0  0  0
    1.6727   -1.9063    6.6812 N   0  0  0  0  0  0  0  0  0  0  0  0
    0.8002   -1.6952    7.8230 C   0  0  0  0  0  0  0  0  0  0  0  0
    2.0838   -3.2212    6.3391 C   0  0  0  0  0  0  0  0  0  0  0  0
    1.8809   -3.7285    5.0748 C   0  0  0  0  0  0  0  0  0  0  0  0
    2.2785   -4.9989    4.7455 C   0  0  0  0  0  0  0  0  0  0  0  0
    2.8871   -5.7720    5.6943 C   0  0  0  0  0  0  0  0  0  0  0  0
    3.0966   -5.2728    6.9698 C   0  0  0  0  0  0  0  0  0  0  0  0
    2.7030   -4.0064    7.3063 C   0  0  0  0  0  0  0  0  0  0  0  0
    3.0404   -3.7876    8.6345 C   0  0  0  0  0  0  0  0  0  0  0  0
    3.6335   -4.9221    9.0867 C   0  0  0  0  0  0  0  0  0  0  0  0
    3.6642   -5.8119    8.0799 N   0  0  0  0  0  0  0  0  0  0  0  0
  1  2  1  0
  2  3  1  0
  3  4  1  0
  4  5  1  0
  5  6  1  0
  5  7  1  0
  7  8  2  0
  8  9  1  0
  9 10  2  0
 10 11  1  0
 11 12  2  0
 12 13  1  0
 13 14  2  0
 14 15  1  0
  6  1  1  0
 12  7  1  0
 15 11  1  0
M  CHG  1   2   1
M  END
$$$$
