
     RDKit          3D

 15 17  0  0  0  0  0  0  0  0999 V2000
    0.6029   -0.1167    6.0501 C   0  0  0  0  0  0  0  0  0  0  0  0
    0.6124    0.2944    7.4178 N   0  0  0  0  0  4  0  0  0  0  0  0
    0.7246   -0.7741    8.3651 C   0  0  0  0  0  0  0  0  0  0  0  0
    0.3203   -2.0581    7.7240 C   0  0  0  0  0  0  0  0  0  0  0  0
    1.2339   -2.3469    6.6493 N   0  0  0  0  0  0  0  0  0  0  0  0
    1.6345   -1.2001    5.8532 C   0  0  0  0  0  0  0  0  0  0  0  0
    1.7423   -3.6354    6.3387 C   0  0  0  0  0  0  0  0  0  0  0  0
    1.5677   -4.1922    5.0911 C   0  0  0  0  0  0  0  0  0  0  0  0
    2.0593   -5.4370    4.7924 C   0  0  0  0  0  0  0  0  0  0  0  0
    2.7347   -6.1338    5.7549 C   0  0  0  0  0  0  0  0  0  0  0  0
    2.9167   -5.5841    7.0138 C   0  0  0  0  0  0  0  0  0  0  0  0
    2.4294   -4.3429    7.3199 C   0  0  0  0  0  0  0  0  0  0  0  0
    2.7611   -4.0613    8.6377 C   0  0  0  0  0  0  0  0  0  0  0  0
    3.4444   -5.1335    9.1141 C   0  0  0  0  0  0  0  0  0  0  0  0
    3.5346   -6.0463    8.1318 N   0  0  0  0  0  0  0  0  0  0  0  0
  1  2  1  0
  2  3  1  0
  3  4  1  0
  4  5  1  0
  5  6  1  0
  5  7  1  0
  7  8  2  0
  8  9  1  0
  9 10  2  0
 10 11  1  0
 11 12  2  0
 12 13  1  0
 13 14  2  0
 14 15  1  0
  6  1  1  0
 12  7  1  0
 15 11  1  0
M  CHG  1   2   1
M  END
$$$$
