
     RDKit          3D

 15 17  0  0  0  0  0  0  0  0999 V2000
    0.7670    0.0426    6.2146 C   0  0  0  0  0  0  0  0  0  0  0  0
    0.8070    0.4730    7.5758 N   0  0  0  0  0  4  0  0  0  0  0  0
    0.9400   -0.5821    8.5353 C   0  0  0  0  0  0  0  0  0  0  0  0
    0.5213   -1.8749    7.9216 C   0  0  0  0  0  0  0  0  0  0  0  0
    1.4107   -2.1793    6.8310 N   0  0  0  0  0  0  0  0  0  0  0  0
    1.7937   -1.0440    6.0101 C   0  0  0  0  0  0  0  0  0  0  0  0
    1.9118   -3.4723    6.5274 C   0  0  0  0  0  0  0  0  0  0  0  0
    1.7427   -4.0307    5.2798 C   0  0  0  0  0  0  0  0  0  0  0  0
    2.2273   -5.2799    4.9877 C   0  0  0  0  0  0  0  0  0  0  0  0
    2.8899   -5.9794    5.9571 C   0  0  0  0  0  0  0  0  0  0  0  0
    3.0663   -5.4281    7.2162 C   0  0  0  0  0  0  0  0  0  0  0  0
    2.5859   -4.1825    7.5156 C   0  0  0  0  0  0  0  0  0  0  0  0
    2.9095   -3.9003    8.8353 C   0  0  0  0  0  0  0  0  0  0  0  0
    3.5810   -4.9765    9.3194 C   0  0  0  0  0  0  0  0  0  0  0  0
    3.6719   -5.8922    8.3399 N   0  0  0  0  0  0  0  0  0  0  0  0
  1  2  1  0
  2  3  1  0
  3  4  1  0
  4  5  1  0
  5  6  1  0
  5  7  1  0
  7  8  2  0
  8  9  1  0
  9 10  2  0
 10 11  1  0
 11 12  2  0
 12 13  1  0
 13 14  2  0
 14 15  1  0
  6  1  1  0
 12  7  1  0
 15 11  1  0
M  CHG  1   2   1
M  END
$$$$
