
     RDKit          3D

 15 17  0  0  0  0  0  0  0  0999 V2000
    0.7602    0.0853    5.9210 C   0  0  0  0  0  0  0  0  0  0  0  0
    0.8307    0.5151    7.2812 N   0  0  0  0  0  4  0  0  0  0  0  0
    1.0368   -0.5354    8.2328 C   0  0  0  0  0  0  0  0  0  0  0  0
    0.6466   -1.8424    7.6305 C   0  0  0  0  0  0  0  0  0  0  0  0
    1.5088   -2.1112    6.5091 N   0  0  0  0  0  0  0  0  0  0  0  0
    1.8199   -0.9611    5.6785 C   0  0  0  0  0  0  0  0  0  0  0  0
    2.0480   -3.3838    6.1851 C   0  0  0  0  0  0  0  0  0  0  0  0
    1.9066   -3.9213    4.9249 C   0  0  0  0  0  0  0  0  0  0  0  0
    2.4280   -5.1507    4.6132 C   0  0  0  0  0  0  0  0  0  0  0  0
    3.0997   -5.8515    5.5753 C   0  0  0  0  0  0  0  0  0  0  0  0
    3.2484   -5.3212    6.8469 C   0  0  0  0  0  0  0  0  0  0  0  0
    2.7313   -4.0954    7.1660 C   0  0  0  0  0  0  0  0  0  0  0  0
    3.0339   -3.8312    8.4944 C   0  0  0  0  0  0  0  0  0  0  0  0
    3.7296   -4.8984    8.9640 C   0  0  0  0  0  0  0  0  0  0  0  0
    3.8553   -5.7914    7.9675 N   0  0  0  0  0  0  0  0  0  0  0  0
  1  2  1  0
  2  3  1  0
  3  4  1  0
  4  5  1  0
  5  6  1  0
  5  7  1  0
  7  8  2  0
  8  9  1  0
  9 10  2  0
 10 11  1  0
 11 12  2  0
 12 13  1  0
 13 14  2  0
 14 15  1  0
  6  1  1  0
 12  7  1  0
 15 11  1  0
M  CHG  1   2   1
M  END
$$$$
