
     RDKit          3D

 15 17  0  0  0  0  0  0  0  0999 V2000
    0.4576   -0.2978    5.8689 C   0  0  0  0  0  0  0  0  0  0  0  0
    0.2238    0.6233    6.9351 N   0  0  0  0  0  4  0  0  0  0  0  0
    0.3395    0.0632    8.2484 C   0  0  0  0  0  0  0  0  0  0  0  0
    0.1967   -1.4193    8.1765 C   0  0  0  0  0  0  0  0  0  0  0  0
    1.2804   -1.9513    7.3919 N   0  0  0  0  0  0  0  0  0  0  0  0
    1.6371   -1.1705    6.2203 C   0  0  0  0  0  0  0  0  0  0  0  0
    1.9884   -3.1456    7.6880 C   0  0  0  0  0  0  0  0  0  0  0  0
    2.5506   -3.3558    8.9277 C   0  0  0  0  0  0  0  0  0  0  0  0
    3.2344   -4.5098    9.2125 C   0  0  0  0  0  0  0  0  0  0  0  0
    3.3572   -5.4662    8.2438 C   0  0  0  0  0  0  0  0  0  0  0  0
    2.7959   -5.2662    6.9927 C   0  0  0  0  0  0  0  0  0  0  0  0
    2.1122   -4.1177    6.7005 C   0  0  0  0  0  0  0  0  0  0  0  0
    1.6699   -4.2001    5.3877 C   0  0  0  0  0  0  0  0  0  0  0  0
    2.0900   -5.3957    4.9004 C   0  0  0  0  0  0  0  0  0  0  0  0
    2.7670   -6.0323    5.8714 N   0  0  0  0  0  0  0  0  0  0  0  0
  1  2  1  0
  2  3  1  0
  3  4  1  0
  4  5  1  0
  5  6  1  0
  5  7  1  0
  7  8  2  0
  8  9  1  0
  9 10  2  0
 10 11  1  0
 11 12  2  0
 12 13  1  0
 13 14  2  0
 14 15  1  0
  6  1  1  0
 12  7  1  0
 15 11  1  0
M  CHG  1   2   1
M  END
$$$$
