
     RDKit          3D

 15 17  0  0  0  0  0  0  0  0999 V2000
    0.2961   -0.3690    6.1238 C   0  0  0  0  0  0  0  0  0  0  0  0
    0.6306    0.1629    7.4064 N   0  0  0  0  0  4  0  0  0  0  0  0
    1.0830   -0.8066    8.3588 C   0  0  0  0  0  0  0  0  0  0  0  0
    0.6384   -2.1670    7.9406 C   0  0  0  0  0  0  0  0  0  0  0  0
    1.2571   -2.4895    6.6811 N   0  0  0  0  0  0  0  0  0  0  0  0
    1.3302   -1.3945    5.7297 C   0  0  0  0  0  0  0  0  0  0  0  0
    1.7769   -3.7640    6.3336 C   0  0  0  0  0  0  0  0  0  0  0  0
    1.6554   -4.2622    5.0553 C   0  0  0  0  0  0  0  0  0  0  0  0
    2.1580   -5.4934    4.7207 C   0  0  0  0  0  0  0  0  0  0  0  0
    2.7904   -6.2360    5.6782 C   0  0  0  0  0  0  0  0  0  0  0  0
    2.9187   -5.7454    6.9678 C   0  0  0  0  0  0  0  0  0  0  0  0
    2.4202   -4.5181    7.3097 C   0  0  0  0  0  0  0  0  0  0  0  0
    2.6951   -4.2986    8.6522 C   0  0  0  0  0  0  0  0  0  0  0  0
    3.3560   -5.3938    9.1074 C   0  0  0  0  0  0  0  0  0  0  0  0
    3.4873   -6.2606    8.0888 N   0  0  0  0  0  0  0  0  0  0  0  0
  1  2  1  0
  2  3  1  0
  3  4  1  0
  4  5  1  0
  5  6  1  0
  5  7  1  0
  7  8  2  0
  8  9  1  0
  9 10  2  0
 10 11  1  0
 11 12  2  0
 12 13  1  0
 13 14  2  0
 14 15  1  0
  6  1  1  0
 12  7  1  0
 15 11  1  0
M  CHG  1   2   1
M  END
$$$$
