
     RDKit          3D

 15 17  0  0  0  0  0  0  0  0999 V2000
    0.6123   -0.0146    6.0491 C   0  0  0  0  0  0  0  0  0  0  0  0
    0.6414    0.4102    7.4124 N   0  0  0  0  0  4  0  0  0  0  0  0
    0.7775   -0.6481    8.3680 C   0  0  0  0  0  0  0  0  0  0  0  0
    0.3724   -1.9414    7.7463 C   0  0  0  0  0  0  0  0  0  0  0  0
    1.2702   -2.2339    6.6594 N   0  0  0  0  0  0  0  0  0  0  0  0
    1.6488   -1.0920    5.8456 C   0  0  0  0  0  0  0  0  0  0  0  0
    1.7833   -3.5216    6.3530 C   0  0  0  0  0  0  0  0  0  0  0  0
    1.6155   -4.0807    5.1055 C   0  0  0  0  0  0  0  0  0  0  0  0
    2.1116   -5.3247    4.8107 C   0  0  0  0  0  0  0  0  0  0  0  0
    2.7846   -6.0183    5.7773 C   0  0  0  0  0  0  0  0  0  0  0  0
    2.9598   -5.4662    7.0361 C   0  0  0  0  0  0  0  0  0  0  0  0
    2.4679   -4.2258    7.3382 C   0  0  0  0  0  0  0  0  0  0  0  0
    2.7932   -3.9414    8.6570 C   0  0  0  0  0  0  0  0  0  0  0  0
    3.4772   -5.0111    9.1379 C   0  0  0  0  0  0  0  0  0  0  0  0
    3.5739   -5.9252    8.1574 N   0  0  0  0  0  0  0  0  0  0  0  0
  1  2  1  0
  2  3  1  0
  3  4  1  0
  4  5  1  0
  5  6  1  0
  5  7  1  0
  7  8  2  0
  8  9  1  0
  9 10  2  0
 10 11  1  0
 11 12  2  0
 12 13  1  0
 13 14  2  0
 14 15  1  0
  6  1  1  0
 12  7  1  0
 15 11  1  0
M  CHG  1   2   1
M  END
$$$$
