
     RDKit          3D

 15 17  0  0  0  0  0  0  0  0999 V2000
    0.8660   -0.4617    8.3075 C   0  0  0  0  0  0  0  0  0  0  0  0
    0.4788    0.4340    7.2647 N   0  0  0  0  0  4  0  0  0  0  0  0
    0.9395    0.0695    5.9584 C   0  0  0  0  0  0  0  0  0  0  0  0
    2.0937   -0.8671    6.0761 C   0  0  0  0  0  0  0  0  0  0  0  0
    1.6464   -2.0747    6.7201 N   0  0  0  0  0  0  0  0  0  0  0  0
    0.7169   -1.8815    7.8193 C   0  0  0  0  0  0  0  0  0  0  0  0
    2.0467   -3.3868    6.3552 C   0  0  0  0  0  0  0  0  0  0  0  0
    1.8304   -3.8740    5.0852 C   0  0  0  0  0  0  0  0  0  0  0  0
    2.2176   -5.1418    4.7339 C   0  0  0  0  0  0  0  0  0  0  0  0
    2.8294   -5.9324    5.6659 C   0  0  0  0  0  0  0  0  0  0  0  0
    3.0525   -5.4534    6.9469 C   0  0  0  0  0  0  0  0  0  0  0  0
    2.6693   -4.1899    7.3054 C   0  0  0  0  0  0  0  0  0  0  0  0
    3.0189   -3.9928    8.6339 C   0  0  0  0  0  0  0  0  0  0  0  0
    3.6090   -5.1374    9.0642 C   0  0  0  0  0  0  0  0  0  0  0  0
    3.6260   -6.0123    8.0441 N   0  0  0  0  0  0  0  0  0  0  0  0
  1  2  1  0
  2  3  1  0
  3  4  1  0
  4  5  1  0
  5  6  1  0
  5  7  1  0
  7  8  2  0
  8  9  1  0
  9 10  2  0
 10 11  1  0
 11 12  2  0
 12 13  1  0
 13 14  2  0
 14 15  1  0
  6  1  1  0
 12  7  1  0
 15 11  1  0
M  CHG  1   2   1
M  END
$$$$
