
     RDKit          3D

 15 17  0  0  0  0  0  0  0  0999 V2000
    0.8893   -0.5813    8.2827 C   0  0  0  0  0  0  0  0  0  0  0  0
    0.4567    0.2933    7.2397 N   0  0  0  0  0  4  0  0  0  0  0  0
    0.8700   -0.0917    5.9235 C   0  0  0  0  0  0  0  0  0  0  0  0
    2.0343   -1.0188    6.0137 C   0  0  0  0  0  0  0  0  0  0  0  0
    1.6200   -2.2175    6.6953 N   0  0  0  0  0  0  0  0  0  0  0  0
    0.7316   -2.0105    7.8256 C   0  0  0  0  0  0  0  0  0  0  0  0
    2.0152   -3.5334    6.3386 C   0  0  0  0  0  0  0  0  0  0  0  0
    1.7814   -4.0337    5.0768 C   0  0  0  0  0  0  0  0  0  0  0  0
    2.1637   -5.3051    4.7334 C   0  0  0  0  0  0  0  0  0  0  0  0
    2.7882   -6.0862    5.6651 C   0  0  0  0  0  0  0  0  0  0  0  0
    3.0290   -5.5939    6.9378 C   0  0  0  0  0  0  0  0  0  0  0  0
    2.6508   -4.3267    7.2884 C   0  0  0  0  0  0  0  0  0  0  0  0
    3.0187   -4.1159    8.6098 C   0  0  0  0  0  0  0  0  0  0  0  0
    3.6146   -5.2561    9.0439 C   0  0  0  0  0  0  0  0  0  0  0  0
    3.6175   -6.1415    8.0328 N   0  0  0  0  0  0  0  0  0  0  0  0
  1  2  1  0
  2  3  1  0
  3  4  1  0
  4  5  1  0
  5  6  1  0
  5  7  1  0
  7  8  2  0
  8  9  1  0
  9 10  2  0
 10 11  1  0
 11 12  2  0
 12 13  1  0
 13 14  2  0
 14 15  1  0
  6  1  1  0
 12  7  1  0
 15 11  1  0
M  CHG  1   2   1
M  END
$$$$
