
     RDKit          3D

 15 17  0  0  0  0  0  0  0  0999 V2000
    0.5396   -0.0215    5.9858 C   0  0  0  0  0  0  0  0  0  0  0  0
    0.5867    0.4054    7.3480 N   0  0  0  0  0  4  0  0  0  0  0  0
    0.7709   -0.6478    8.3011 C   0  0  0  0  0  0  0  0  0  0  0  0
    0.3867   -1.9520    7.6889 C   0  0  0  0  0  0  0  0  0  0  0  0
    1.2684   -2.2221    6.5831 N   0  0  0  0  0  0  0  0  0  0  0  0
    1.5994   -1.0716    5.7608 C   0  0  0  0  0  0  0  0  0  0  0  0
    1.8085   -3.4962    6.2665 C   0  0  0  0  0  0  0  0  0  0  0  0
    1.6736   -4.0380    5.0075 C   0  0  0  0  0  0  0  0  0  0  0  0
    2.1958   -5.2689    4.7029 C   0  0  0  0  0  0  0  0  0  0  0  0
    2.8616   -5.9668    5.6712 C   0  0  0  0  0  0  0  0  0  0  0  0
    3.0038   -5.4322    6.9417 C   0  0  0  0  0  0  0  0  0  0  0  0
    2.4858   -4.2048    7.2536 C   0  0  0  0  0  0  0  0  0  0  0  0
    2.7812   -3.9363    8.5828 C   0  0  0  0  0  0  0  0  0  0  0  0
    3.4736   -5.0023    9.0599 C   0  0  0  0  0  0  0  0  0  0  0  0
    3.6041   -5.8989    8.0672 N   0  0  0  0  0  0  0  0  0  0  0  0
  1  2  1  0
  2  3  1  0
  3  4  1  0
  4  5  1  0
  5  6  1  0
  5  7  1  0
  7  8  2  0
  8  9  1  0
  9 10  2  0
 10 11  1  0
 11 12  2  0
 12 13  1  0
 13 14  2  0
 14 15  1  0
  6  1  1  0
 12  7  1  0
 15 11  1  0
M  CHG  1   2   1
M  END
$$$$
