
     RDKit          3D

 15 17  0  0  0  0  0  0  0  0999 V2000
    0.9010    0.0012    6.1244 C   0  0  0  0  0  0  0  0  0  0  0  0
    0.9279    0.3936    7.4974 N   0  0  0  0  0  4  0  0  0  0  0  0
    1.0653   -0.6866    8.4279 C   0  0  0  0  0  0  0  0  0  0  0  0
    0.6635   -1.9657    7.7754 C   0  0  0  0  0  0  0  0  0  0  0  0
    1.5629   -2.2306    6.6827 N   0  0  0  0  0  0  0  0  0  0  0  0
    1.9398   -1.0690    5.8965 C   0  0  0  0  0  0  0  0  0  0  0  0
    2.0789   -3.5096    6.3463 C   0  0  0  0  0  0  0  0  0  0  0  0
    1.9053   -4.0434    5.0886 C   0  0  0  0  0  0  0  0  0  0  0  0
    2.4042   -5.2790    4.7650 C   0  0  0  0  0  0  0  0  0  0  0  0
    3.0859   -5.9899    5.7126 C   0  0  0  0  0  0  0  0  0  0  0  0
    3.2670   -5.4634    6.9816 C   0  0  0  0  0  0  0  0  0  0  0  0
    2.7724   -4.2314    7.3125 C   0  0  0  0  0  0  0  0  0  0  0  0
    3.1049   -3.9732    8.6349 C   0  0  0  0  0  0  0  0  0  0  0  0
    3.7960   -5.0500    9.0891 C   0  0  0  0  0  0  0  0  0  0  0  0
    3.8900   -5.9431    8.0892 N   0  0  0  0  0  0  0  0  0  0  0  0
  1  2  1  0
  2  3  1  0
  3  4  1  0
  4  5  1  0
  5  6  1  0
  5  7  1  0
  7  8  2  0
  8  9  1  0
  9 10  2  0
 10 11  1  0
 11 12  2  0
 12 13  1  0
 13 14  2  0
 14 15  1  0
  6  1  1  0
 12  7  1  0
 15 11  1  0
M  CHG  1   2   1
M  END
$$$$
