
     RDKit          3D

 15 17  0  0  0  0  0  0  0  0999 V2000
    0.6459    0.0778    6.2663 C   0  0  0  0  0  0  0  0  0  0  0  0
    0.6891    0.5075    7.6276 N   0  0  0  0  0  4  0  0  0  0  0  0
    0.8148   -0.5487    8.5869 C   0  0  0  0  0  0  0  0  0  0  0  0
    0.3870   -1.8384    7.9728 C   0  0  0  0  0  0  0  0  0  0  0  0
    1.2742   -2.1487    6.8820 N   0  0  0  0  0  0  0  0  0  0  0  0
    1.6651   -1.0158    6.0614 C   0  0  0  0  0  0  0  0  0  0  0  0
    1.7663   -3.4450    6.5780 C   0  0  0  0  0  0  0  0  0  0  0  0
    1.5995   -3.9991    5.3282 C   0  0  0  0  0  0  0  0  0  0  0  0
    2.0753   -5.2515    5.0357 C   0  0  0  0  0  0  0  0  0  0  0  0
    2.7267   -5.9588    6.0071 C   0  0  0  0  0  0  0  0  0  0  0  0
    2.9006   -5.4121    7.2684 C   0  0  0  0  0  0  0  0  0  0  0  0
    2.4290   -4.1632    7.5682 C   0  0  0  0  0  0  0  0  0  0  0  0
    2.7474   -3.8869    8.8904 C   0  0  0  0  0  0  0  0  0  0  0  0
    3.4073   -4.9698    9.3756 C   0  0  0  0  0  0  0  0  0  0  0  0
    3.4961   -5.8839    8.3944 N   0  0  0  0  0  0  0  0  0  0  0  0
  1  2  1  0
  2  3  1  0
  3  4  1  0
  4  5  1  0
  5  6  1  0
  5  7  1  0
  7  8  2  0
  8  9  1  0
  9 10  2  0
 10 11  1  0
 11 12  2  0
 12 13  1  0
 13 14  2  0
 14 15  1  0
  6  1  1  0
 12  7  1  0
 15 11  1  0
M  CHG  1   2   1
M  END
$$$$
