
     RDKit          3D

 15 17  0  0  0  0  0  0  0  0999 V2000
    0.8412    0.0498    6.1557 C   0  0  0  0  0  0  0  0  0  0  0  0
    0.8847    0.4798    7.5169 N   0  0  0  0  0  4  0  0  0  0  0  0
    0.9813   -0.5780    8.4778 C   0  0  0  0  0  0  0  0  0  0  0  0
    0.5298   -1.8587    7.8619 C   0  0  0  0  0  0  0  0  0  0  0  0
    1.4172   -2.1891    6.7773 N   0  0  0  0  0  0  0  0  0  0  0  0
    1.8379   -1.0657    5.9584 C   0  0  0  0  0  0  0  0  0  0  0  0
    1.8832   -3.4960    6.4776 C   0  0  0  0  0  0  0  0  0  0  0  0
    1.6800   -4.0618    5.2384 C   0  0  0  0  0  0  0  0  0  0  0  0
    2.1306   -5.3245    4.9501 C   0  0  0  0  0  0  0  0  0  0  0  0
    2.7935   -6.0303    5.9148 C   0  0  0  0  0  0  0  0  0  0  0  0
    3.0040   -5.4717    7.1654 C   0  0  0  0  0  0  0  0  0  0  0  0
    2.5576   -4.2127    7.4610 C   0  0  0  0  0  0  0  0  0  0  0  0
    2.9100   -3.9260    8.7723 C   0  0  0  0  0  0  0  0  0  0  0  0
    3.5648   -5.0130    9.2552 C   0  0  0  0  0  0  0  0  0  0  0  0
    3.6179   -5.9395    8.2831 N   0  0  0  0  0  0  0  0  0  0  0  0
  1  2  1  0
  2  3  1  0
  3  4  1  0
  4  5  1  0
  5  6  1  0
  5  7  1  0
  7  8  2  0
  8  9  1  0
  9 10  2  0
 10 11  1  0
 11 12  2  0
 12 13  1  0
 13 14  2  0
 14 15  1  0
  6  1  1  0
 12  7  1  0
 15 11  1  0
M  CHG  1   2   1
M  END
$$$$
