
     RDKit          3D

 15 17  0  0  0  0  0  0  0  0999 V2000
    0.5861   -0.3953    6.1549 C   0  0  0  0  0  0  0  0  0  0  0  0
    0.7183    0.0757    7.4967 N   0  0  0  0  0  4  0  0  0  0  0  0
    0.9282   -0.9494    8.4748 C   0  0  0  0  0  0  0  0  0  0  0  0
    0.4788   -2.2627    7.9302 C   0  0  0  0  0  0  0  0  0  0  0  0
    1.2916   -2.5933    6.7887 N   0  0  0  0  0  0  0  0  0  0  0  0
    1.6056   -1.4803    5.9100 C   0  0  0  0  0  0  0  0  0  0  0  0
    1.7817   -3.8913    6.4883 C   0  0  0  0  0  0  0  0  0  0  0  0
    1.6059   -4.4522    5.2427 C   0  0  0  0  0  0  0  0  0  0  0  0
    2.0798   -5.7062    4.9537 C   0  0  0  0  0  0  0  0  0  0  0  0
    2.7383   -6.4081    5.9242 C   0  0  0  0  0  0  0  0  0  0  0  0
    2.9213   -5.8544    7.1812 C   0  0  0  0  0  0  0  0  0  0  0  0
    2.4517   -4.6040    7.4775 C   0  0  0  0  0  0  0  0  0  0  0  0
    2.7797   -4.3204    8.7958 C   0  0  0  0  0  0  0  0  0  0  0  0
    3.4432   -5.4005    9.2822 C   0  0  0  0  0  0  0  0  0  0  0  0
    3.5250   -6.3200    8.3054 N   0  0  0  0  0  0  0  0  0  0  0  0
  1  2  1  0
  2  3  1  0
  3  4  1  0
  4  5  1  0
  5  6  1  0
  5  7  1  0
  7  8  2  0
  8  9  1  0
  9 10  2  0
 10 11  1  0
 11 12  2  0
 12 13  1  0
 13 14  2  0
 14 15  1  0
  6  1  1  0
 12  7  1  0
 15 11  1  0
M  CHG  1   2   1
M  END
$$$$
