
     RDKit          3D

 15 17  0  0  0  0  0  0  0  0999 V2000
    0.6423    0.1949    6.0067 C   0  0  0  0  0  0  0  0  0  0  0  0
    0.6961    0.6440    7.3614 N   0  0  0  0  0  4  0  0  0  0  0  0
    0.8748   -0.3946    8.3314 C   0  0  0  0  0  0  0  0  0  0  0  0
    0.4792   -1.7059    7.7420 C   0  0  0  0  0  0  0  0  0  0  0  0
    1.3560   -2.0010    6.6387 N   0  0  0  0  0  0  0  0  0  0  0  0
    1.6936   -0.8668    5.7965 C   0  0  0  0  0  0  0  0  0  0  0  0
    1.8856   -3.2842    6.3420 C   0  0  0  0  0  0  0  0  0  0  0  0
    1.7489   -3.8432    5.0907 C   0  0  0  0  0  0  0  0  0  0  0  0
    2.2609   -5.0829    4.8053 C   0  0  0  0  0  0  0  0  0  0  0  0
    2.9185   -5.7723    5.7853 C   0  0  0  0  0  0  0  0  0  0  0  0
    3.0624   -5.2204    7.0482 C   0  0  0  0  0  0  0  0  0  0  0  0
    2.5546   -3.9842    7.3410 C   0  0  0  0  0  0  0  0  0  0  0  0
    2.8493   -3.6989    8.6667 C   0  0  0  0  0  0  0  0  0  0  0  0
    3.5312   -4.7638    9.1610 C   0  0  0  0  0  0  0  0  0  0  0  0
    3.6561   -5.6759    8.1819 N   0  0  0  0  0  0  0  0  0  0  0  0
  1  2  1  0
  2  3  1  0
  3  4  1  0
  4  5  1  0
  5  6  1  0
  5  7  1  0
  7  8  2  0
  8  9  1  0
  9 10  2  0
 10 11  1  0
 11 12  2  0
 12 13  1  0
 13 14  2  0
 14 15  1  0
  6  1  1  0
 12  7  1  0
 15 11  1  0
M  CHG  1   2   1
M  END
$$$$
