
     RDKit          3D

 25 28  0  0  0  0  0  0  0  0999 V2000
   -0.4435   -5.8342   12.2705 C   0  0  0  0  0  0  0  0  0  0  0  0
    0.6820   -5.4352   13.2057 C   0  0  0  0  0  0  0  0  0  0  0  0
    0.8451   -3.9666   13.1207 C   0  0  0  0  0  0  0  0  0  0  0  0
    1.8830   -3.5265   14.1236 C   0  0  0  0  0  0  0  0  0  0  0  0
    1.4247   -3.6715   15.4281 O   0  0  0  0  0  0  0  0  0  0  0  0
    1.1696   -3.4294   11.8533 N   0  0  0  0  0  0  0  0  0  0  0  0
    0.6641   -2.2125   11.3102 C   0  0  0  0  0  0  0  0  0  0  0  0
   -0.4357   -1.8417   11.7918 O   0  0  0  0  0  0  0  0  0  0  0  0
    1.3479   -1.4364   10.2753 C   0  0  0  0  0  0  0  0  0  0  0  0
    1.3013   -2.0153    8.9159 C   0  0  0  0  0  0  0  0  0  0  0  0
    0.8015   -1.1482    7.8736 N   0  0  0  0  0  0  0  0  0  0  0  0
    1.5337    0.1048    7.9738 C   0  0  0  0  0  0  0  0  0  0  0  0
    1.5125    0.9035    6.7394 C   0  0  0  0  0  0  0  0  0  0  0  0
    1.0978    2.3050    6.8797 C   0  0  0  0  0  0  0  0  0  0  0  0
    1.0018    3.3450    5.9785 C   0  0  0  0  0  0  0  0  0  0  0  0
    0.5592    4.4641    6.6245 N   0  0  0  0  0  0  0  0  0  0  0  0
    0.3702    4.1588    7.9231 C   0  0  0  0  0  0  0  0  0  0  0  0
   -0.0509    4.8199    9.0668 C   0  0  0  0  0  0  0  0  0  0  0  0
   -0.1169    4.1300   10.2838 C   0  0  0  0  0  0  0  0  0  0  0  0
    0.2225    2.7990   10.4051 C   0  0  0  0  0  0  0  0  0  0  0  0
    0.6442    2.1380    9.2581 C   0  0  0  0  0  0  0  0  0  0  0  0
    0.6974    2.8504    8.0741 C   0  0  0  0  0  0  0  0  0  0  0  0
    1.0336    0.7561    9.2087 C   0  0  0  0  0  0  0  0  0  0  0  0
    0.9407    0.0161   10.3152 C   0  0  0  0  0  0  0  0  0  0  0  0
   -0.6129   -0.9684    7.9043 C   0  0  0  0  0  0  0  0  0  0  0  0
  1  2  1  0
  2  3  1  0
  3  4  1  0
  4  5  1  0
  3  6  1  0
  6  7  1  0
  7  8  2  0
  7  9  1  0
  9 10  1  0
 10 11  1  0
 11 12  1  0
 12 13  1  0
 13 14  1  0
 14 15  2  0
 15 16  1  0
 16 17  1  0
 17 18  2  0
 18 19  1  0
 19 20  2  0
 20 21  1  0
 21 22  2  0
 21 23  1  0
 23 24  2  0
 11 25  1  0
 24  9  1  0
 23 12  1  0
 22 14  1  0
 22 17  1  0
M  END
$$$$
