
     RDKit          3D

 25 28  0  0  0  0  0  0  0  0999 V2000
    0.2255   -6.1464   11.5711 C   0  0  0  0  0  0  0  0  0  0  0  0
    1.3292   -5.7247   12.5222 C   0  0  0  0  0  0  0  0  0  0  0  0
    1.2305   -4.2602   12.7128 C   0  0  0  0  0  0  0  0  0  0  0  0
    1.8956   -3.8861   14.0144 C   0  0  0  0  0  0  0  0  0  0  0  0
    1.0697   -3.0882   14.7979 O   0  0  0  0  0  0  0  0  0  0  0  0
    1.7439   -3.4427   11.6793 N   0  0  0  0  0  0  0  0  0  0  0  0
    1.0330   -2.4077   11.0050 C   0  0  0  0  0  0  0  0  0  0  0  0
   -0.1609   -2.2686   11.3714 O   0  0  0  0  0  0  0  0  0  0  0  0
    1.6192   -1.5600    9.9664 C   0  0  0  0  0  0  0  0  0  0  0  0
    1.4895   -2.0705    8.5852 C   0  0  0  0  0  0  0  0  0  0  0  0
    0.8927   -1.1672    7.6282 N   0  0  0  0  0  0  0  0  0  0  0  0
    1.5970    0.1005    7.7419 C   0  0  0  0  0  0  0  0  0  0  0  0
    1.4653    0.9597    6.5559 C   0  0  0  0  0  0  0  0  0  0  0  0
    1.0251    2.3393    6.7988 C   0  0  0  0  0  0  0  0  0  0  0  0
    0.8366    3.4201    5.9627 C   0  0  0  0  0  0  0  0  0  0  0  0
    0.4127    4.4914    6.6965 N   0  0  0  0  0  0  0  0  0  0  0  0
    0.3266    4.1152    7.9874 C   0  0  0  0  0  0  0  0  0  0  0  0
   -0.0278    4.7046    9.1914 C   0  0  0  0  0  0  0  0  0  0  0  0
    0.0129    3.9523   10.3719 C   0  0  0  0  0  0  0  0  0  0  0  0
    0.3951    2.6277   10.3986 C   0  0  0  0  0  0  0  0  0  0  0  0
    0.7498    2.0385    9.1914 C   0  0  0  0  0  0  0  0  0  0  0  0
    0.6981    2.8113    8.0457 C   0  0  0  0  0  0  0  0  0  0  0  0
    1.1708    0.6733    9.0418 C   0  0  0  0  0  0  0  0  0  0  0  0
    1.1779   -0.1242   10.1115 C   0  0  0  0  0  0  0  0  0  0  0  0
   -0.5200   -1.0318    7.7687 C   0  0  0  0  0  0  0  0  0  0  0  0
  1  2  1  0
  2  3  1  0
  3  4  1  0
  4  5  1  0
  3  6  1  0
  6  7  1  0
  7  8  2  0
  7  9  1  0
  9 10  1  0
 10 11  1  0
 11 12  1  0
 12 13  1  0
 13 14  1  0
 14 15  2  0
 15 16  1  0
 16 17  1  0
 17 18  2  0
 18 19  1  0
 19 20  2  0
 20 21  1  0
 21 22  2  0
 21 23  1  0
 23 24  2  0
 11 25  1  0
 24  9  1  0
 23 12  1  0
 22 14  1  0
 22 17  1  0
M  END
$$$$
