
     RDKit          3D

 25 28  0  0  0  0  0  0  0  0999 V2000
    3.3378   -5.8295    9.5223 C   0  0  0  0  0  0  0  0  0  0  0  0
    2.7521   -6.0315   10.9067 C   0  0  0  0  0  0  0  0  0  0  0  0
    1.4713   -5.2926   10.9711 C   0  0  0  0  0  0  0  0  0  0  0  0
    0.6185   -5.8780   12.0696 C   0  0  0  0  0  0  0  0  0  0  0  0
   -0.5656   -6.4067   11.5686 O   0  0  0  0  0  0  0  0  0  0  0  0
    1.5472   -3.8907   11.1417 N   0  0  0  0  0  0  0  0  0  0  0  0
    1.2566   -2.9134   10.1460 C   0  0  0  0  0  0  0  0  0  0  0  0
    1.7329   -3.1654    9.0108 O   0  0  0  0  0  0  0  0  0  0  0  0
    0.4702   -1.7050   10.3957 C   0  0  0  0  0  0  0  0  0  0  0  0
    0.6293   -1.1134   11.7410 C   0  0  0  0  0  0  0  0  0  0  0  0
    0.9959    0.2837   11.7807 N   0  0  0  0  0  0  0  0  0  0  0  0
    0.0682    0.9926   10.9129 C   0  0  0  0  0  0  0  0  0  0  0  0
   -0.0235    2.4329   11.1948 C   0  0  0  0  0  0  0  0  0  0  0  0
    0.1556    3.3320   10.0478 C   0  0  0  0  0  0  0  0  0  0  0  0
    0.0938    4.7039    9.9183 C   0  0  0  0  0  0  0  0  0  0  0  0
    0.3394    5.0473    8.6192 N   0  0  0  0  0  0  0  0  0  0  0  0
    0.5573    3.9194    7.9152 C   0  0  0  0  0  0  0  0  0  0  0  0
    0.8492    3.5878    6.6009 C   0  0  0  0  0  0  0  0  0  0  0  0
    1.0096    2.2435    6.2425 C   0  0  0  0  0  0  0  0  0  0  0  0
    0.8896    1.2113    7.1490 C   0  0  0  0  0  0  0  0  0  0  0  0
    0.5971    1.5452    8.4656 C   0  0  0  0  0  0  0  0  0  0  0  0
    0.4453    2.8825    8.7835 C   0  0  0  0  0  0  0  0  0  0  0  0
    0.4385    0.5966    9.5325 C   0  0  0  0  0  0  0  0  0  0  0  0
    0.6350   -0.6994    9.2828 C   0  0  0  0  0  0  0  0  0  0  0  0
    2.3617    0.5294   11.4517 C   0  0  0  0  0  0  0  0  0  0  0  0
  1  2  1  0
  2  3  1  0
  3  4  1  0
  4  5  1  0
  3  6  1  0
  6  7  1  0
  7  8  2  0
  7  9  1  0
  9 10  1  0
 10 11  1  0
 11 12  1  0
 12 13  1  0
 13 14  1  0
 14 15  2  0
 15 16  1  0
 16 17  1  0
 17 18  2  0
 18 19  1  0
 19 20  2  0
 20 21  1  0
 21 22  2  0
 21 23  1  0
 23 24  2  0
 11 25  1  0
 24  9  1  0
 23 12  1  0
 22 14  1  0
 22 17  1  0
M  END
$$$$
