
     RDKit          3D

 25 28  0  0  0  0  0  0  0  0999 V2000
   -0.6275   -5.6955   13.6474 C   0  0  0  0  0  0  0  0  0  0  0  0
   -0.1487   -5.1672   12.3087 C   0  0  0  0  0  0  0  0  0  0  0  0
    0.9755   -4.2383   12.5619 C   0  0  0  0  0  0  0  0  0  0  0  0
    2.1625   -5.0248   13.0609 C   0  0  0  0  0  0  0  0  0  0  0  0
    2.7834   -4.3875   14.1292 O   0  0  0  0  0  0  0  0  0  0  0  0
    1.3841   -3.4171   11.4854 N   0  0  0  0  0  0  0  0  0  0  0  0
    0.9762   -2.0696   11.2642 C   0  0  0  0  0  0  0  0  0  0  0  0
    0.1121   -1.6453   12.0718 O   0  0  0  0  0  0  0  0  0  0  0  0
    1.5030   -1.2247   10.1920 C   0  0  0  0  0  0  0  0  0  0  0  0
    1.4255   -1.8038    8.8341 C   0  0  0  0  0  0  0  0  0  0  0  0
    0.7680   -0.9931    7.8349 N   0  0  0  0  0  0  0  0  0  0  0  0
    1.3696    0.3299    7.8959 C   0  0  0  0  0  0  0  0  0  0  0  0
    1.1811    1.1232    6.6723 C   0  0  0  0  0  0  0  0  0  0  0  0
    0.6319    2.4732    6.8516 C   0  0  0  0  0  0  0  0  0  0  0  0
    0.3664    3.4981    5.9674 C   0  0  0  0  0  0  0  0  0  0  0  0
   -0.1465    4.5638    6.6509 N   0  0  0  0  0  0  0  0  0  0  0  0
   -0.2140    4.2389    7.9567 C   0  0  0  0  0  0  0  0  0  0  0  0
   -0.6238    4.8507    9.1315 C   0  0  0  0  0  0  0  0  0  0  0  0
   -0.5344    4.1564   10.3445 C   0  0  0  0  0  0  0  0  0  0  0  0
   -0.0496    2.8685   10.4318 C   0  0  0  0  0  0  0  0  0  0  0  0
    0.3605    2.2567    9.2537 C   0  0  0  0  0  0  0  0  0  0  0  0
    0.2582    2.9721    8.0746 C   0  0  0  0  0  0  0  0  0  0  0  0
    0.8886    0.9237    9.1669 C   0  0  0  0  0  0  0  0  0  0  0  0
    0.9492    0.1768   10.2710 C   0  0  0  0  0  0  0  0  0  0  0  0
   -0.6522   -0.9634    7.9622 C   0  0  0  0  0  0  0  0  0  0  0  0
  1  2  1  0
  2  3  1  0
  3  4  1  0
  4  5  1  0
  3  6  1  0
  6  7  1  0
  7  8  2  0
  7  9  1  0
  9 10  1  0
 10 11  1  0
 11 12  1  0
 12 13  1  0
 13 14  1  0
 14 15  2  0
 15 16  1  0
 16 17  1  0
 17 18  2  0
 18 19  1  0
 19 20  2  0
 20 21  1  0
 21 22  2  0
 21 23  1  0
 23 24  2  0
 11 25  1  0
 24  9  1  0
 23 12  1  0
 22 14  1  0
 22 17  1  0
M  END
$$$$
