
     RDKit          3D

 25 28  0  0  0  0  0  0  0  0999 V2000
   -1.0930   -5.2132   12.0867 C   0  0  0  0  0  0  0  0  0  0  0  0
    0.3473   -5.6883   12.0633 C   0  0  0  0  0  0  0  0  0  0  0  0
    1.2203   -4.5008   12.1979 C   0  0  0  0  0  0  0  0  0  0  0  0
    2.5736   -4.9379   12.7020 C   0  0  0  0  0  0  0  0  0  0  0  0
    2.9900   -4.1649   13.7799 O   0  0  0  0  0  0  0  0  0  0  0  0
    1.3928   -3.6975   11.0468 N   0  0  0  0  0  0  0  0  0  0  0  0
    1.0863   -2.3093   10.9462 C   0  0  0  0  0  0  0  0  0  0  0  0
    0.3965   -1.8558   11.8937 O   0  0  0  0  0  0  0  0  0  0  0  0
    1.5252   -1.4561    9.8415 C   0  0  0  0  0  0  0  0  0  0  0  0
    1.2311   -1.9725    8.4880 C   0  0  0  0  0  0  0  0  0  0  0  0
    0.5058   -1.0809    7.6122 N   0  0  0  0  0  0  0  0  0  0  0  0
    1.1999    0.1973    7.6355 C   0  0  0  0  0  0  0  0  0  0  0  0
    0.9079    1.0510    6.4743 C   0  0  0  0  0  0  0  0  0  0  0  0
    0.4811    2.4247    6.7690 C   0  0  0  0  0  0  0  0  0  0  0  0
    0.1733    3.5002    5.9619 C   0  0  0  0  0  0  0  0  0  0  0  0
   -0.1713    4.5673    6.7419 N   0  0  0  0  0  0  0  0  0  0  0  0
   -0.0895    4.1936    8.0338 C   0  0  0  0  0  0  0  0  0  0  0  0
   -0.2990    4.7813    9.2721 C   0  0  0  0  0  0  0  0  0  0  0  0
   -0.0997    4.0332   10.4391 C   0  0  0  0  0  0  0  0  0  0  0  0
    0.3026    2.7144   10.4190 C   0  0  0  0  0  0  0  0  0  0  0  0
    0.5120    2.1269    9.1776 C   0  0  0  0  0  0  0  0  0  0  0  0
    0.3058    2.8955    8.0465 C   0  0  0  0  0  0  0  0  0  0  0  0
    0.9312    0.7676    8.9779 C   0  0  0  0  0  0  0  0  0  0  0  0
    1.0842   -0.0266   10.0392 C   0  0  0  0  0  0  0  0  0  0  0  0
   -0.8801   -0.9657    7.9285 C   0  0  0  0  0  0  0  0  0  0  0  0
  1  2  1  0
  2  3  1  0
  3  4  1  0
  4  5  1  0
  3  6  1  0
  6  7  1  0
  7  8  2  0
  7  9  1  0
  9 10  1  0
 10 11  1  0
 11 12  1  0
 12 13  1  0
 13 14  1  0
 14 15  2  0
 15 16  1  0
 16 17  1  0
 17 18  2  0
 18 19  1  0
 19 20  2  0
 20 21  1  0
 21 22  2  0
 21 23  1  0
 23 24  2  0
 11 25  1  0
 24  9  1  0
 23 12  1  0
 22 14  1  0
 22 17  1  0
M  END
$$$$
