
     RDKit          3D

 25 28  0  0  0  0  0  0  0  0999 V2000
   -0.5439   -5.5460   11.9928 C   0  0  0  0  0  0  0  0  0  0  0  0
    0.7291   -5.3407   12.7914 C   0  0  0  0  0  0  0  0  0  0  0  0
    0.9789   -3.8847   12.8828 C   0  0  0  0  0  0  0  0  0  0  0  0
    1.9948   -3.6255   13.9679 C   0  0  0  0  0  0  0  0  0  0  0  0
    1.5055   -3.9811   15.2196 O   0  0  0  0  0  0  0  0  0  0  0  0
    1.3889   -3.2286   11.6990 N   0  0  0  0  0  0  0  0  0  0  0  0
    0.8788   -1.9894   11.2140 C   0  0  0  0  0  0  0  0  0  0  0  0
   -0.1783   -1.6039   11.7735 O   0  0  0  0  0  0  0  0  0  0  0  0
    1.5125   -1.2072   10.1521 C   0  0  0  0  0  0  0  0  0  0  0  0
    1.4613   -1.8120    8.8043 C   0  0  0  0  0  0  0  0  0  0  0  0
    0.9090   -0.9834    7.7573 N   0  0  0  0  0  0  0  0  0  0  0  0
    1.5954    0.2977    7.8208 C   0  0  0  0  0  0  0  0  0  0  0  0
    1.5200    1.0724    6.5734 C   0  0  0  0  0  0  0  0  0  0  0  0
    1.0557    2.4599    6.6974 C   0  0  0  0  0  0  0  0  0  0  0  0
    0.9030    3.4789    5.7803 C   0  0  0  0  0  0  0  0  0  0  0  0
    0.4312    4.5924    6.4155 N   0  0  0  0  0  0  0  0  0  0  0  0
    0.2792    4.3039    7.7228 C   0  0  0  0  0  0  0  0  0  0  0  0
   -0.1441    4.9695    8.8631 C   0  0  0  0  0  0  0  0  0  0  0  0
   -0.1604    4.2999   10.0930 C   0  0  0  0  0  0  0  0  0  0  0  0
    0.2312    2.9849   10.2306 C   0  0  0  0  0  0  0  0  0  0  0  0
    0.6551    2.3193    9.0871 C   0  0  0  0  0  0  0  0  0  0  0  0
    0.6583    3.0116    7.8900 C   0  0  0  0  0  0  0  0  0  0  0  0
    1.0952    0.9523    9.0540 C   0  0  0  0  0  0  0  0  0  0  0  0
    1.0518    0.2296   10.1748 C   0  0  0  0  0  0  0  0  0  0  0  0
   -0.5103   -0.8559    7.8133 C   0  0  0  0  0  0  0  0  0  0  0  0
  1  2  1  0
  2  3  1  0
  3  4  1  0
  4  5  1  0
  3  6  1  0
  6  7  1  0
  7  8  2  0
  7  9  1  0
  9 10  1  0
 10 11  1  0
 11 12  1  0
 12 13  1  0
 13 14  1  0
 14 15  2  0
 15 16  1  0
 16 17  1  0
 17 18  2  0
 18 19  1  0
 19 20  2  0
 20 21  1  0
 21 22  2  0
 21 23  1  0
 23 24  2  0
 11 25  1  0
 24  9  1  0
 23 12  1  0
 22 14  1  0
 22 17  1  0
M  END
$$$$
