
     RDKit          3D

 25 28  0  0  0  0  0  0  0  0999 V2000
   -0.4204   -5.6271   12.2105 C   0  0  0  0  0  0  0  0  0  0  0  0
    0.3650   -5.2069   13.4383 C   0  0  0  0  0  0  0  0  0  0  0  0
    0.5350   -3.7375   13.3887 C   0  0  0  0  0  0  0  0  0  0  0  0
    1.5110   -3.3173   14.4599 C   0  0  0  0  0  0  0  0  0  0  0  0
    1.0100   -3.5675   15.7323 O   0  0  0  0  0  0  0  0  0  0  0  0
    0.9361   -3.1794   12.1527 N   0  0  0  0  0  0  0  0  0  0  0  0
    0.5624   -1.8962   11.6578 C   0  0  0  0  0  0  0  0  0  0  0  0
   -0.4525   -1.3988   12.2071 O   0  0  0  0  0  0  0  0  0  0  0  0
    1.2826   -1.1907   10.5973 C   0  0  0  0  0  0  0  0  0  0  0  0
    1.3492   -1.8966    9.3002 C   0  0  0  0  0  0  0  0  0  0  0  0
    0.8863   -1.1551    8.1496 N   0  0  0  0  0  0  0  0  0  0  0  0
    1.5607    0.1337    8.1735 C   0  0  0  0  0  0  0  0  0  0  0  0
    1.5904    0.8108    6.8686 C   0  0  0  0  0  0  0  0  0  0  0  0
    1.1127    2.1991    6.8461 C   0  0  0  0  0  0  0  0  0  0  0  0
    1.0362    3.1441    5.8442 C   0  0  0  0  0  0  0  0  0  0  0  0
    0.5082    4.2979    6.3498 N   0  0  0  0  0  0  0  0  0  0  0  0
    0.2454    4.1080    7.6575 C   0  0  0  0  0  0  0  0  0  0  0  0
   -0.2764    4.8541    8.7032 C   0  0  0  0  0  0  0  0  0  0  0  0
   -0.3962    4.2796    9.9748 C   0  0  0  0  0  0  0  0  0  0  0  0
   -0.0138    2.9827   10.2455 C   0  0  0  0  0  0  0  0  0  0  0  0
    0.5088    2.2364    9.1966 C   0  0  0  0  0  0  0  0  0  0  0  0
    0.6127    2.8358    7.9547 C   0  0  0  0  0  0  0  0  0  0  0  0
    0.9544    0.8751    9.3057 C   0  0  0  0  0  0  0  0  0  0  0  0
    0.8172    0.2391   10.4707 C   0  0  0  0  0  0  0  0  0  0  0  0
   -0.5330   -1.0375    8.0743 C   0  0  0  0  0  0  0  0  0  0  0  0
  1  2  1  0
  2  3  1  0
  3  4  1  0
  4  5  1  0
  3  6  1  0
  6  7  1  0
  7  8  2  0
  7  9  1  0
  9 10  1  0
 10 11  1  0
 11 12  1  0
 12 13  1  0
 13 14  1  0
 14 15  2  0
 15 16  1  0
 16 17  1  0
 17 18  2  0
 18 19  1  0
 19 20  2  0
 20 21  1  0
 21 22  2  0
 21 23  1  0
 23 24  2  0
 11 25  1  0
 24  9  1  0
 23 12  1  0
 22 14  1  0
 22 17  1  0
M  END
$$$$
