
     RDKit          3D

 25 28  0  0  0  0  0  0  0  0999 V2000
   -1.0723   -5.2666   13.0323 C   0  0  0  0  0  0  0  0  0  0  0  0
    0.2931   -5.4860   12.4093 C   0  0  0  0  0  0  0  0  0  0  0  0
    1.0918   -4.2578   12.6199 C   0  0  0  0  0  0  0  0  0  0  0  0
    2.3557   -4.6127   13.3636 C   0  0  0  0  0  0  0  0  0  0  0  0
    2.9381   -5.7687   12.8562 O   0  0  0  0  0  0  0  0  0  0  0  0
    1.4273   -3.5057   11.4702 N   0  0  0  0  0  0  0  0  0  0  0  0
    1.0153   -2.1683   11.2002 C   0  0  0  0  0  0  0  0  0  0  0  0
    0.1322   -1.7260   11.9772 O   0  0  0  0  0  0  0  0  0  0  0  0
    1.5583   -1.3522   10.1139 C   0  0  0  0  0  0  0  0  0  0  0  0
    1.4386   -1.9380    8.7619 C   0  0  0  0  0  0  0  0  0  0  0  0
    0.7980   -1.1100    7.7659 N   0  0  0  0  0  0  0  0  0  0  0  0
    1.4509    0.1893    7.8077 C   0  0  0  0  0  0  0  0  0  0  0  0
    1.2749    0.9803    6.5807 C   0  0  0  0  0  0  0  0  0  0  0  0
    0.7807    2.3516    6.7571 C   0  0  0  0  0  0  0  0  0  0  0  0
    0.5418    3.3796    5.8688 C   0  0  0  0  0  0  0  0  0  0  0  0
    0.0803    4.4692    6.5511 N   0  0  0  0  0  0  0  0  0  0  0  0
    0.0197    4.1568    7.8603 C   0  0  0  0  0  0  0  0  0  0  0  0
   -0.3489    4.7926    9.0361 C   0  0  0  0  0  0  0  0  0  0  0  0
   -0.2684    4.1043   10.2531 C   0  0  0  0  0  0  0  0  0  0  0  0
    0.1678    2.7993   10.3436 C   0  0  0  0  0  0  0  0  0  0  0  0
    0.5367    2.1636    9.1646 C   0  0  0  0  0  0  0  0  0  0  0  0
    0.4446    2.8736    7.9815 C   0  0  0  0  0  0  0  0  0  0  0  0
    1.0118    0.8105    9.0808 C   0  0  0  0  0  0  0  0  0  0  0  0
    1.0599    0.0701   10.1898 C   0  0  0  0  0  0  0  0  0  0  0  0
   -0.6179   -1.0246    7.9134 C   0  0  0  0  0  0  0  0  0  0  0  0
  1  2  1  0
  2  3  1  0
  3  4  1  0
  4  5  1  0
  3  6  1  0
  6  7  1  0
  7  8  2  0
  7  9  1  0
  9 10  1  0
 10 11  1  0
 11 12  1  0
 12 13  1  0
 13 14  1  0
 14 15  2  0
 15 16  1  0
 16 17  1  0
 17 18  2  0
 18 19  1  0
 19 20  2  0
 20 21  1  0
 21 22  2  0
 21 23  1  0
 23 24  2  0
 11 25  1  0
 24  9  1  0
 23 12  1  0
 22 14  1  0
 22 17  1  0
M  END
$$$$
