
     RDKit          3D

 25 28  0  0  0  0  0  0  0  0999 V2000
   -0.8378   -5.5213   13.9417 C   0  0  0  0  0  0  0  0  0  0  0  0
   -0.5125   -4.8959   12.5987 C   0  0  0  0  0  0  0  0  0  0  0  0
    0.7530   -4.1419   12.7425 C   0  0  0  0  0  0  0  0  0  0  0  0
    1.8523   -5.0947   13.1429 C   0  0  0  0  0  0  0  0  0  0  0  0
    2.7410   -4.5024   14.0329 O   0  0  0  0  0  0  0  0  0  0  0  0
    1.1799   -3.3860   11.6261 N   0  0  0  0  0  0  0  0  0  0  0  0
    0.7721   -2.0562   11.3153 C   0  0  0  0  0  0  0  0  0  0  0  0
   -0.1620   -1.6148   12.0306 O   0  0  0  0  0  0  0  0  0  0  0  0
    1.3735   -1.2465   10.2554 C   0  0  0  0  0  0  0  0  0  0  0  0
    1.2957   -1.8238    8.8968 C   0  0  0  0  0  0  0  0  0  0  0  0
    0.7114   -0.9789    7.8806 N   0  0  0  0  0  0  0  0  0  0  0  0
    1.3877    0.3069    7.9546 C   0  0  0  0  0  0  0  0  0  0  0  0
    1.2760    1.1064    6.7257 C   0  0  0  0  0  0  0  0  0  0  0  0
    0.8025    2.4866    6.8895 C   0  0  0  0  0  0  0  0  0  0  0  0
    0.6191    3.5229    5.9977 C   0  0  0  0  0  0  0  0  0  0  0  0
    0.1528    4.6186    6.6669 N   0  0  0  0  0  0  0  0  0  0  0  0
    0.0344    4.3019    7.9711 C   0  0  0  0  0  0  0  0  0  0  0  0
   -0.3676    4.9399    9.1347 C   0  0  0  0  0  0  0  0  0  0  0  0
   -0.3487    4.2449   10.3504 C   0  0  0  0  0  0  0  0  0  0  0  0
    0.0576    2.9311   10.4513 C   0  0  0  0  0  0  0  0  0  0  0  0
    0.4600    2.2931    9.2845 C   0  0  0  0  0  0  0  0  0  0  0  0
    0.4287    3.0100    8.1023 C   0  0  0  0  0  0  0  0  0  0  0  0
    0.9112    0.9312    9.2126 C   0  0  0  0  0  0  0  0  0  0  0  0
    0.9009    0.1852   10.3188 C   0  0  0  0  0  0  0  0  0  0  0  0
   -0.7073   -0.8659    7.9727 C   0  0  0  0  0  0  0  0  0  0  0  0
  1  2  1  0
  2  3  1  0
  3  4  1  0
  4  5  1  0
  3  6  1  0
  6  7  1  0
  7  8  2  0
  7  9  1  0
  9 10  1  0
 10 11  1  0
 11 12  1  0
 12 13  1  0
 13 14  1  0
 14 15  2  0
 15 16  1  0
 16 17  1  0
 17 18  2  0
 18 19  1  0
 19 20  2  0
 20 21  1  0
 21 22  2  0
 21 23  1  0
 23 24  2  0
 11 25  1  0
 24  9  1  0
 23 12  1  0
 22 14  1  0
 22 17  1  0
M  END
$$$$
