
     RDKit          3D

 25 28  0  0  0  0  0  0  0  0999 V2000
   -0.7404   -5.5506   12.9447 C   0  0  0  0  0  0  0  0  0  0  0  0
    0.7401   -5.3298   13.1897 C   0  0  0  0  0  0  0  0  0  0  0  0
    0.9952   -3.8724   13.1512 C   0  0  0  0  0  0  0  0  0  0  0  0
    2.2079   -3.5613   13.9933 C   0  0  0  0  0  0  0  0  0  0  0  0
    1.8967   -2.6937   15.0340 O   0  0  0  0  0  0  0  0  0  0  0  0
    1.1539   -3.2823   11.8758 N   0  0  0  0  0  0  0  0  0  0  0  0
    0.7899   -1.9503   11.5230 C   0  0  0  0  0  0  0  0  0  0  0  0
   -0.1571   -1.4712   12.1958 O   0  0  0  0  0  0  0  0  0  0  0  0
    1.4472   -1.1785   10.4680 C   0  0  0  0  0  0  0  0  0  0  0  0
    1.4324   -1.7999    9.1268 C   0  0  0  0  0  0  0  0  0  0  0  0
    0.9035   -0.9864    8.0561 N   0  0  0  0  0  0  0  0  0  0  0  0
    1.5830    0.2982    8.1212 C   0  0  0  0  0  0  0  0  0  0  0  0
    1.5362    1.0574    6.8628 C   0  0  0  0  0  0  0  0  0  0  0  0
    1.0635    2.4443    6.9581 C   0  0  0  0  0  0  0  0  0  0  0  0
    0.9301    3.4515    6.0250 C   0  0  0  0  0  0  0  0  0  0  0  0
    0.4381    4.5706    6.6343 N   0  0  0  0  0  0  0  0  0  0  0  0
    0.2543    4.2974    7.9408 C   0  0  0  0  0  0  0  0  0  0  0  0
   -0.2003    4.9751    9.0618 C   0  0  0  0  0  0  0  0  0  0  0  0
   -0.2449    4.3204   10.2990 C   0  0  0  0  0  0  0  0  0  0  0  0
    0.1481    3.0089   10.4626 C   0  0  0  0  0  0  0  0  0  0  0  0
    0.6033    2.3312    9.3384 C   0  0  0  0  0  0  0  0  0  0  0  0
    0.6340    3.0088    8.1333 C   0  0  0  0  0  0  0  0  0  0  0  0
    1.0493    0.9657    9.3332 C   0  0  0  0  0  0  0  0  0  0  0  0
    0.9805    0.2565   10.4614 C   0  0  0  0  0  0  0  0  0  0  0  0
   -0.5173   -0.8642    8.0748 C   0  0  0  0  0  0  0  0  0  0  0  0
  1  2  1  0
  2  3  1  0
  3  4  1  0
  4  5  1  0
  3  6  1  0
  6  7  1  0
  7  8  2  0
  7  9  1  0
  9 10  1  0
 10 11  1  0
 11 12  1  0
 12 13  1  0
 13 14  1  0
 14 15  2  0
 15 16  1  0
 16 17  1  0
 17 18  2  0
 18 19  1  0
 19 20  2  0
 20 21  1  0
 21 22  2  0
 21 23  1  0
 23 24  2  0
 11 25  1  0
 24  9  1  0
 23 12  1  0
 22 14  1  0
 22 17  1  0
M  END
$$$$
