
     RDKit          3D

 25 28  0  0  0  0  0  0  0  0999 V2000
   -1.2969   -4.9756   12.7864 C   0  0  0  0  0  0  0  0  0  0  0  0
   -0.2004   -5.6031   11.9470 C   0  0  0  0  0  0  0  0  0  0  0  0
    1.0153   -4.7712   12.0912 C   0  0  0  0  0  0  0  0  0  0  0  0
    2.1976   -5.6684   12.3627 C   0  0  0  0  0  0  0  0  0  0  0  0
    2.8533   -5.3069   13.5341 O   0  0  0  0  0  0  0  0  0  0  0  0
    1.3296   -3.9033   11.0198 N   0  0  0  0  0  0  0  0  0  0  0  0
    1.1264   -2.4928   11.0033 C   0  0  0  0  0  0  0  0  0  0  0  0
    0.4794   -2.0459   11.9835 O   0  0  0  0  0  0  0  0  0  0  0  0
    1.6192   -1.6111    9.9447 C   0  0  0  0  0  0  0  0  0  0  0  0
    1.3994   -2.0947    8.5652 C   0  0  0  0  0  0  0  0  0  0  0  0
    0.7175   -1.1839    7.6745 N   0  0  0  0  0  0  0  0  0  0  0  0
    1.4036    0.0956    7.7659 C   0  0  0  0  0  0  0  0  0  0  0  0
    1.1696    0.9768    6.6123 C   0  0  0  0  0  0  0  0  0  0  0  0
    0.7216    2.3414    6.9176 C   0  0  0  0  0  0  0  0  0  0  0  0
    0.4521    3.4356    6.1220 C   0  0  0  0  0  0  0  0  0  0  0  0
    0.0620    4.4819    6.9087 N   0  0  0  0  0  0  0  0  0  0  0  0
    0.0770    4.0766    8.1935 C   0  0  0  0  0  0  0  0  0  0  0  0
   -0.2003    4.6328    9.4331 C   0  0  0  0  0  0  0  0  0  0  0  0
   -0.0595    3.8566   10.5902 C   0  0  0  0  0  0  0  0  0  0  0  0
    0.3491    2.5400   10.5591 C   0  0  0  0  0  0  0  0  0  0  0  0
    0.6265    1.9841    9.3164 C   0  0  0  0  0  0  0  0  0  0  0  0
    0.4769    2.7798    8.1952 C   0  0  0  0  0  0  0  0  0  0  0  0
    1.0618    0.6315    9.1058 C   0  0  0  0  0  0  0  0  0  0  0  0
    1.1620   -0.1883   10.1538 C   0  0  0  0  0  0  0  0  0  0  0  0
   -0.6837   -1.0810    7.9196 C   0  0  0  0  0  0  0  0  0  0  0  0
  1  2  1  0
  2  3  1  0
  3  4  1  0
  4  5  1  0
  3  6  1  0
  6  7  1  0
  7  8  2  0
  7  9  1  0
  9 10  1  0
 10 11  1  0
 11 12  1  0
 12 13  1  0
 13 14  1  0
 14 15  2  0
 15 16  1  0
 16 17  1  0
 17 18  2  0
 18 19  1  0
 19 20  2  0
 20 21  1  0
 21 22  2  0
 21 23  1  0
 23 24  2  0
 11 25  1  0
 24  9  1  0
 23 12  1  0
 22 14  1  0
 22 17  1  0
M  END
$$$$
