
     RDKit          3D

 25 28  0  0  0  0  0  0  0  0999 V2000
   -0.4756   -5.5454   12.5332 C   0  0  0  0  0  0  0  0  0  0  0  0
    0.9008   -5.2310   13.0876 C   0  0  0  0  0  0  0  0  0  0  0  0
    1.0557   -3.7593   13.1129 C   0  0  0  0  0  0  0  0  0  0  0  0
    2.1444   -3.3945   14.0919 C   0  0  0  0  0  0  0  0  0  0  0  0
    1.7874   -3.7198   15.3956 O   0  0  0  0  0  0  0  0  0  0  0  0
    1.3112   -3.1197   11.8777 N   0  0  0  0  0  0  0  0  0  0  0  0
    0.9412   -1.7860   11.5381 C   0  0  0  0  0  0  0  0  0  0  0  0
    0.0165   -1.3047   12.2399 O   0  0  0  0  0  0  0  0  0  0  0  0
    1.5688   -1.0148   10.4646 C   0  0  0  0  0  0  0  0  0  0  0  0
    1.5345   -1.6463    9.1285 C   0  0  0  0  0  0  0  0  0  0  0  0
    0.9754   -0.8466    8.0627 N   0  0  0  0  0  0  0  0  0  0  0  0
    1.6416    0.4459    8.1051 C   0  0  0  0  0  0  0  0  0  0  0  0
    1.5614    1.1951    6.8424 C   0  0  0  0  0  0  0  0  0  0  0  0
    1.0751    2.5774    6.9371 C   0  0  0  0  0  0  0  0  0  0  0  0
    0.9120    3.5761    5.9996 C   0  0  0  0  0  0  0  0  0  0  0  0
    0.4196    4.6942    6.6105 N   0  0  0  0  0  0  0  0  0  0  0  0
    0.2647    4.4287    7.9223 C   0  0  0  0  0  0  0  0  0  0  0  0
   -0.1752    5.1096    9.0472 C   0  0  0  0  0  0  0  0  0  0  0  0
   -0.1881    4.4637   10.2897 C   0  0  0  0  0  0  0  0  0  0  0  0
    0.2229    3.1578   10.4550 C   0  0  0  0  0  0  0  0  0  0  0  0
    0.6633    2.4768    9.3269 C   0  0  0  0  0  0  0  0  0  0  0  0
    0.6626    3.1459    8.1165 C   0  0  0  0  0  0  0  0  0  0  0  0
    1.1245    1.1164    9.3226 C   0  0  0  0  0  0  0  0  0  0  0  0
    1.0860    0.4149   10.4570 C   0  0  0  0  0  0  0  0  0  0  0  0
   -0.4460   -0.7400    8.1087 C   0  0  0  0  0  0  0  0  0  0  0  0
  1  2  1  0
  2  3  1  0
  3  4  1  0
  4  5  1  0
  3  6  1  0
  6  7  1  0
  7  8  2  0
  7  9  1  0
  9 10  1  0
 10 11  1  0
 11 12  1  0
 12 13  1  0
 13 14  1  0
 14 15  2  0
 15 16  1  0
 16 17  1  0
 17 18  2  0
 18 19  1  0
 19 20  2  0
 20 21  1  0
 21 22  2  0
 21 23  1  0
 23 24  2  0
 11 25  1  0
 24  9  1  0
 23 12  1  0
 22 14  1  0
 22 17  1  0
M  END
$$$$
