
     RDKit          3D

 25 28  0  0  0  0  0  0  0  0999 V2000
   -0.7360   -5.5146   11.9423 C   0  0  0  0  0  0  0  0  0  0  0  0
    0.5793   -5.4931   12.6973 C   0  0  0  0  0  0  0  0  0  0  0  0
    1.0737   -4.0981   12.7100 C   0  0  0  0  0  0  0  0  0  0  0  0
    2.3924   -4.0486   13.4417 C   0  0  0  0  0  0  0  0  0  0  0  0
    2.2123   -3.8261   14.8021 O   0  0  0  0  0  0  0  0  0  0  0  0
    1.2151   -3.4560   11.4579 N   0  0  0  0  0  0  0  0  0  0  0  0
    0.9231   -2.0879   11.1857 C   0  0  0  0  0  0  0  0  0  0  0  0
    0.0779   -1.5697   11.9578 O   0  0  0  0  0  0  0  0  0  0  0  0
    1.5413   -1.3230   10.1023 C   0  0  0  0  0  0  0  0  0  0  0  0
    1.4210   -1.9220    8.7563 C   0  0  0  0  0  0  0  0  0  0  0  0
    0.8566   -1.0733    7.7320 N   0  0  0  0  0  0  0  0  0  0  0  0
    1.5848    0.1853    7.7722 C   0  0  0  0  0  0  0  0  0  0  0  0
    1.4877    0.9657    6.5297 C   0  0  0  0  0  0  0  0  0  0  0  0
    1.0722    2.3667    6.6734 C   0  0  0  0  0  0  0  0  0  0  0  0
    0.9178    3.3927    5.7644 C   0  0  0  0  0  0  0  0  0  0  0  0
    0.5053    4.5186    6.4187 N   0  0  0  0  0  0  0  0  0  0  0  0
    0.3930    4.2313    7.7302 C   0  0  0  0  0  0  0  0  0  0  0  0
    0.0335    4.9065    8.8866 C   0  0  0  0  0  0  0  0  0  0  0  0
    0.0419    4.2342   10.1151 C   0  0  0  0  0  0  0  0  0  0  0  0
    0.3966    2.9071   10.2358 C   0  0  0  0  0  0  0  0  0  0  0  0
    0.7565    2.2319    9.0761 C   0  0  0  0  0  0  0  0  0  0  0  0
    0.7371    2.9272    7.8809 C   0  0  0  0  0  0  0  0  0  0  0  0
    1.1517    0.8518    9.0243 C   0  0  0  0  0  0  0  0  0  0  0  0
    1.1273    0.1275   10.1447 C   0  0  0  0  0  0  0  0  0  0  0  0
   -0.5550   -0.9014    7.8411 C   0  0  0  0  0  0  0  0  0  0  0  0
  1  2  1  0
  2  3  1  0
  3  4  1  0
  4  5  1  0
  3  6  1  0
  6  7  1  0
  7  8  2  0
  7  9  1  0
  9 10  1  0
 10 11  1  0
 11 12  1  0
 12 13  1  0
 13 14  1  0
 14 15  2  0
 15 16  1  0
 16 17  1  0
 17 18  2  0
 18 19  1  0
 19 20  2  0
 20 21  1  0
 21 22  2  0
 21 23  1  0
 23 24  2  0
 11 25  1  0
 24  9  1  0
 23 12  1  0
 22 14  1  0
 22 17  1  0
M  END
$$$$
