
     RDKit          3D

 25 28  0  0  0  0  0  0  0  0999 V2000
   -0.5115   -5.1808   12.2653 C   0  0  0  0  0  0  0  0  0  0  0  0
    0.9174   -5.6419   12.4800 C   0  0  0  0  0  0  0  0  0  0  0  0
    1.8020   -4.4638   12.3373 C   0  0  0  0  0  0  0  0  0  0  0  0
    3.2399   -4.9142   12.4152 C   0  0  0  0  0  0  0  0  0  0  0  0
    3.6810   -4.9857   13.7317 O   0  0  0  0  0  0  0  0  0  0  0  0
    1.6286   -3.6675   11.1816 N   0  0  0  0  0  0  0  0  0  0  0  0
    1.3736   -2.2655   11.1665 C   0  0  0  0  0  0  0  0  0  0  0  0
    0.6772   -1.8500   12.1266 O   0  0  0  0  0  0  0  0  0  0  0  0
    1.8690   -1.3584   10.1308 C   0  0  0  0  0  0  0  0  0  0  0  0
    1.7136   -1.8393    8.7416 C   0  0  0  0  0  0  0  0  0  0  0  0
    1.0291   -0.9473    7.8341 N   0  0  0  0  0  0  0  0  0  0  0  0
    1.6643    0.3556    7.9567 C   0  0  0  0  0  0  0  0  0  0  0  0
    1.4370    1.2364    6.8014 C   0  0  0  0  0  0  0  0  0  0  0  0
    0.9292    2.5814    7.1000 C   0  0  0  0  0  0  0  0  0  0  0  0
    0.6467    3.6710    6.3027 C   0  0  0  0  0  0  0  0  0  0  0  0
    0.1922    4.6964    7.0823 N   0  0  0  0  0  0  0  0  0  0  0  0
    0.1789    4.2823    8.3643 C   0  0  0  0  0  0  0  0  0  0  0  0
   -0.1602    4.8186    9.5972 C   0  0  0  0  0  0  0  0  0  0  0  0
   -0.0301    4.0394   10.7535 C   0  0  0  0  0  0  0  0  0  0  0  0
    0.4275    2.7388   10.7280 C   0  0  0  0  0  0  0  0  0  0  0  0
    0.7667    2.2028    9.4919 C   0  0  0  0  0  0  0  0  0  0  0  0
    0.6258    3.0010    8.3713 C   0  0  0  0  0  0  0  0  0  0  0  0
    1.2582    0.8686    9.2876 C   0  0  0  0  0  0  0  0  0  0  0  0
    1.3531    0.0451   10.3333 C   0  0  0  0  0  0  0  0  0  0  0  0
   -0.3824   -0.8975    8.0322 C   0  0  0  0  0  0  0  0  0  0  0  0
  1  2  1  0
  2  3  1  0
  3  4  1  0
  4  5  1  0
  3  6  1  0
  6  7  1  0
  7  8  2  0
  7  9  1  0
  9 10  1  0
 10 11  1  0
 11 12  1  0
 12 13  1  0
 13 14  1  0
 14 15  2  0
 15 16  1  0
 16 17  1  0
 17 18  2  0
 18 19  1  0
 19 20  2  0
 20 21  1  0
 21 22  2  0
 21 23  1  0
 23 24  2  0
 11 25  1  0
 24  9  1  0
 23 12  1  0
 22 14  1  0
 22 17  1  0
M  END
$$$$
