
     RDKit          3D

 25 28  0  0  0  0  0  0  0  0999 V2000
   -1.0841   -5.3785   12.3607 C   0  0  0  0  0  0  0  0  0  0  0  0
    0.3715   -5.4591   12.7793 C   0  0  0  0  0  0  0  0  0  0  0  0
    0.8087   -4.0998   13.1691 C   0  0  0  0  0  0  0  0  0  0  0  0
    1.7491   -4.2021   14.3446 C   0  0  0  0  0  0  0  0  0  0  0  0
    2.4720   -3.0281   14.5226 O   0  0  0  0  0  0  0  0  0  0  0  0
    1.4088   -3.3060   12.1643 N   0  0  0  0  0  0  0  0  0  0  0  0
    0.9022   -2.0711   11.6649 C   0  0  0  0  0  0  0  0  0  0  0  0
   -0.1337   -1.6581   12.2442 O   0  0  0  0  0  0  0  0  0  0  0  0
    1.5167   -1.3223   10.5682 C   0  0  0  0  0  0  0  0  0  0  0  0
    1.4793   -1.9879    9.2488 C   0  0  0  0  0  0  0  0  0  0  0  0
    0.9070   -1.2202    8.1667 N   0  0  0  0  0  0  0  0  0  0  0  0
    1.5627    0.0784    8.1719 C   0  0  0  0  0  0  0  0  0  0  0  0
    1.4685    0.7946    6.8912 C   0  0  0  0  0  0  0  0  0  0  0  0
    0.9712    2.1747    6.9538 C   0  0  0  0  0  0  0  0  0  0  0  0
    0.7940    3.1479    5.9923 C   0  0  0  0  0  0  0  0  0  0  0  0
    0.2961    4.2771    6.5778 N   0  0  0  0  0  0  0  0  0  0  0  0
    0.1516    4.0438    7.8969 C   0  0  0  0  0  0  0  0  0  0  0  0
   -0.2870    4.7495    9.0069 C   0  0  0  0  0  0  0  0  0  0  0  0
   -0.2868    4.1353   10.2655 C   0  0  0  0  0  0  0  0  0  0  0  0
    0.1360    2.8375   10.4612 C   0  0  0  0  0  0  0  0  0  0  0  0
    0.5751    2.1317    9.3480 C   0  0  0  0  0  0  0  0  0  0  0  0
    0.5613    2.7696    8.1211 C   0  0  0  0  0  0  0  0  0  0  0  0
    1.0476    0.7754    9.3753 C   0  0  0  0  0  0  0  0  0  0  0  0
    1.0219    0.1027   10.5274 C   0  0  0  0  0  0  0  0  0  0  0  0
   -0.5149   -1.1241    8.2191 C   0  0  0  0  0  0  0  0  0  0  0  0
  1  2  1  0
  2  3  1  0
  3  4  1  0
  4  5  1  0
  3  6  1  0
  6  7  1  0
  7  8  2  0
  7  9  1  0
  9 10  1  0
 10 11  1  0
 11 12  1  0
 12 13  1  0
 13 14  1  0
 14 15  2  0
 15 16  1  0
 16 17  1  0
 17 18  2  0
 18 19  1  0
 19 20  2  0
 20 21  1  0
 21 22  2  0
 21 23  1  0
 23 24  2  0
 11 25  1  0
 24  9  1  0
 23 12  1  0
 22 14  1  0
 22 17  1  0
M  END
$$$$
