
     RDKit          3D

 25 28  0  0  0  0  0  0  0  0999 V2000
   -0.8236   -5.5646   13.6875 C   0  0  0  0  0  0  0  0  0  0  0  0
   -0.6273   -4.8402   12.3694 C   0  0  0  0  0  0  0  0  0  0  0  0
    0.7633   -4.3346   12.3310 C   0  0  0  0  0  0  0  0  0  0  0  0
    1.7151   -5.5042   12.3825 C   0  0  0  0  0  0  0  0  0  0  0  0
    3.0397   -5.0826   12.4068 O   0  0  0  0  0  0  0  0  0  0  0  0
    1.1130   -3.5011   11.2434 N   0  0  0  0  0  0  0  0  0  0  0  0
    1.0434   -2.0777   11.2287 C   0  0  0  0  0  0  0  0  0  0  0  0
    0.4364   -1.5735   12.2067 O   0  0  0  0  0  0  0  0  0  0  0  0
    1.6222   -1.2446   10.1742 C   0  0  0  0  0  0  0  0  0  0  0  0
    1.4821   -1.7741    8.8012 C   0  0  0  0  0  0  0  0  0  0  0  0
    0.8786   -0.8839    7.8362 N   0  0  0  0  0  0  0  0  0  0  0  0
    1.5840    0.3850    7.9272 C   0  0  0  0  0  0  0  0  0  0  0  0
    1.4438    1.2277    6.7304 C   0  0  0  0  0  0  0  0  0  0  0  0
    1.0058    2.6107    6.9574 C   0  0  0  0  0  0  0  0  0  0  0  0
    0.8114    3.6800    6.1079 C   0  0  0  0  0  0  0  0  0  0  0  0
    0.3932    4.7614    6.8299 N   0  0  0  0  0  0  0  0  0  0  0  0
    0.3165    4.4031    8.1265 C   0  0  0  0  0  0  0  0  0  0  0  0
   -0.0288    5.0093    9.3248 C   0  0  0  0  0  0  0  0  0  0  0  0
    0.0203    4.2734   10.5153 C   0  0  0  0  0  0  0  0  0  0  0  0
    0.4024    2.9491   10.5574 C   0  0  0  0  0  0  0  0  0  0  0  0
    0.7480    2.3431    9.3559 C   0  0  0  0  0  0  0  0  0  0  0  0
    0.6881    3.1000    8.2000 C   0  0  0  0  0  0  0  0  0  0  0  0
    1.1675    0.9758    9.2221 C   0  0  0  0  0  0  0  0  0  0  0  0
    1.1823    0.1932   10.3027 C   0  0  0  0  0  0  0  0  0  0  0  0
   -0.5330   -0.7460    7.9852 C   0  0  0  0  0  0  0  0  0  0  0  0
  1  2  1  0
  2  3  1  0
  3  4  1  0
  4  5  1  0
  3  6  1  0
  6  7  1  0
  7  8  2  0
  7  9  1  0
  9 10  1  0
 10 11  1  0
 11 12  1  0
 12 13  1  0
 13 14  1  0
 14 15  2  0
 15 16  1  0
 16 17  1  0
 17 18  2  0
 18 19  1  0
 19 20  2  0
 20 21  1  0
 21 22  2  0
 21 23  1  0
 23 24  2  0
 11 25  1  0
 24  9  1  0
 23 12  1  0
 22 14  1  0
 22 17  1  0
M  END
$$$$
