
     RDKit          3D

 25 28  0  0  0  0  0  0  0  0999 V2000
   -0.5872   -5.7457   12.0854 C   0  0  0  0  0  0  0  0  0  0  0  0
    0.4895   -5.3240   13.0671 C   0  0  0  0  0  0  0  0  0  0  0  0
    0.5579   -3.8455   13.0597 C   0  0  0  0  0  0  0  0  0  0  0  0
    1.6055   -3.3952   14.0479 C   0  0  0  0  0  0  0  0  0  0  0  0
    1.2583   -3.7371   15.3499 O   0  0  0  0  0  0  0  0  0  0  0  0
    0.7981   -3.2206   11.8140 N   0  0  0  0  0  0  0  0  0  0  0  0
    0.4625   -1.8769   11.4777 C   0  0  0  0  0  0  0  0  0  0  0  0
   -0.4802   -1.3891   12.1504 O   0  0  0  0  0  0  0  0  0  0  0  0
    1.1424   -1.1032   10.4385 C   0  0  0  0  0  0  0  0  0  0  0  0
    1.1866   -1.7378    9.1041 C   0  0  0  0  0  0  0  0  0  0  0  0
    0.6810   -0.9448    8.0071 N   0  0  0  0  0  0  0  0  0  0  0  0
    1.3339    0.3529    8.0827 C   0  0  0  0  0  0  0  0  0  0  0  0
    1.3177    1.0988    6.8156 C   0  0  0  0  0  0  0  0  0  0  0  0
    0.8163    2.4774    6.8798 C   0  0  0  0  0  0  0  0  0  0  0  0
    0.6974    3.4727    5.9321 C   0  0  0  0  0  0  0  0  0  0  0  0
    0.1635    4.5882    6.5121 N   0  0  0  0  0  0  0  0  0  0  0  0
   -0.0614    4.3244    7.8141 C   0  0  0  0  0  0  0  0  0  0  0  0
   -0.5679    5.0043    8.9112 C   0  0  0  0  0  0  0  0  0  0  0  0
   -0.6443    4.3610   10.1528 C   0  0  0  0  0  0  0  0  0  0  0  0
   -0.2330    3.0587   10.3438 C   0  0  0  0  0  0  0  0  0  0  0  0
    0.2742    2.3788    9.2435 C   0  0  0  0  0  0  0  0  0  0  0  0
    0.3350    3.0452    8.0332 C   0  0  0  0  0  0  0  0  0  0  0  0
    0.7453    1.0220    9.2682 C   0  0  0  0  0  0  0  0  0  0  0  0
    0.6497    0.3227   10.4006 C   0  0  0  0  0  0  0  0  0  0  0  0
   -0.7416   -0.8493    7.9745 C   0  0  0  0  0  0  0  0  0  0  0  0
  1  2  1  0
  2  3  1  0
  3  4  1  0
  4  5  1  0
  3  6  1  0
  6  7  1  0
  7  8  2  0
  7  9  1  0
  9 10  1  0
 10 11  1  0
 11 12  1  0
 12 13  1  0
 13 14  1  0
 14 15  2  0
 15 16  1  0
 16 17  1  0
 17 18  2  0
 18 19  1  0
 19 20  2  0
 20 21  1  0
 21 22  2  0
 21 23  1  0
 23 24  2  0
 11 25  1  0
 24  9  1  0
 23 12  1  0
 22 14  1  0
 22 17  1  0
M  END
$$$$
