
     RDKit          3D

 25 28  0  0  0  0  0  0  0  0999 V2000
   -0.6976   -5.8424   12.0929 C   0  0  0  0  0  0  0  0  0  0  0  0
    0.3545   -5.4339   13.1063 C   0  0  0  0  0  0  0  0  0  0  0  0
    0.4542   -3.9573   13.0884 C   0  0  0  0  0  0  0  0  0  0  0  0
    1.4983   -3.5211   14.0866 C   0  0  0  0  0  0  0  0  0  0  0  0
    0.9204   -2.9168   15.1973 O   0  0  0  0  0  0  0  0  0  0  0  0
    0.7235   -3.3474   11.8412 N   0  0  0  0  0  0  0  0  0  0  0  0
    0.4756   -1.9836   11.5100 C   0  0  0  0  0  0  0  0  0  0  0  0
   -0.4314   -1.4374   12.1868 O   0  0  0  0  0  0  0  0  0  0  0  0
    1.2021   -1.2525   10.4714 C   0  0  0  0  0  0  0  0  0  0  0  0
    1.2060   -1.8870    9.1362 C   0  0  0  0  0  0  0  0  0  0  0  0
    0.7505   -1.0626    8.0405 N   0  0  0  0  0  0  0  0  0  0  0  0
    1.4833    0.1917    8.1174 C   0  0  0  0  0  0  0  0  0  0  0  0
    1.5132    0.9387    6.8512 C   0  0  0  0  0  0  0  0  0  0  0  0
    1.0990    2.3459    6.9173 C   0  0  0  0  0  0  0  0  0  0  0  0
    1.0422    3.3479    5.9709 C   0  0  0  0  0  0  0  0  0  0  0  0
    0.5793    4.4939    6.5526 N   0  0  0  0  0  0  0  0  0  0  0  0
    0.3389    4.2430    7.8543 C   0  0  0  0  0  0  0  0  0  0  0  0
   -0.1236    4.9518    8.9526 C   0  0  0  0  0  0  0  0  0  0  0  0
   -0.2396    4.3129   10.1934 C   0  0  0  0  0  0  0  0  0  0  0  0
    0.0896    2.9873   10.3826 C   0  0  0  0  0  0  0  0  0  0  0  0
    0.5528    2.2784    9.2812 C   0  0  0  0  0  0  0  0  0  0  0  0
    0.6547    2.9412    8.0717 C   0  0  0  0  0  0  0  0  0  0  0  0
    0.9382    0.8948    9.3039 C   0  0  0  0  0  0  0  0  0  0  0  0
    0.7995    0.2013   10.4355 C   0  0  0  0  0  0  0  0  0  0  0  0
   -0.6633   -0.8783    8.0086 C   0  0  0  0  0  0  0  0  0  0  0  0
  1  2  1  0
  2  3  1  0
  3  4  1  0
  4  5  1  0
  3  6  1  0
  6  7  1  0
  7  8  2  0
  7  9  1  0
  9 10  1  0
 10 11  1  0
 11 12  1  0
 12 13  1  0
 13 14  1  0
 14 15  2  0
 15 16  1  0
 16 17  1  0
 17 18  2  0
 18 19  1  0
 19 20  2  0
 20 21  1  0
 21 22  2  0
 21 23  1  0
 23 24  2  0
 11 25  1  0
 24  9  1  0
 23 12  1  0
 22 14  1  0
 22 17  1  0
M  END
$$$$
