
     RDKit          3D

 25 28  0  0  0  0  0  0  0  0999 V2000
   -0.3722   -5.7836   11.8389 C   0  0  0  0  0  0  0  0  0  0  0  0
    0.7447   -5.5465   12.8374 C   0  0  0  0  0  0  0  0  0  0  0  0
    0.8047   -4.0942   13.1165 C   0  0  0  0  0  0  0  0  0  0  0  0
    1.5007   -3.8738   14.4370 C   0  0  0  0  0  0  0  0  0  0  0  0
    0.6825   -3.2027   15.3385 O   0  0  0  0  0  0  0  0  0  0  0  0
    1.4084   -3.2763   12.1333 N   0  0  0  0  0  0  0  0  0  0  0  0
    0.7492   -2.2734   11.3647 C   0  0  0  0  0  0  0  0  0  0  0  0
   -0.4764   -2.1463   11.6115 O   0  0  0  0  0  0  0  0  0  0  0  0
    1.4188   -1.4436   10.3627 C   0  0  0  0  0  0  0  0  0  0  0  0
    1.4303   -1.9940    8.9908 C   0  0  0  0  0  0  0  0  0  0  0  0
    0.9139   -1.1284    7.9554 N   0  0  0  0  0  0  0  0  0  0  0  0
    1.5838    0.1548    8.0990 C   0  0  0  0  0  0  0  0  0  0  0  0
    1.5529    0.9786    6.8815 C   0  0  0  0  0  0  0  0  0  0  0  0
    1.0695    2.3559    7.0412 C   0  0  0  0  0  0  0  0  0  0  0  0
    0.9450    3.4098    6.1599 C   0  0  0  0  0  0  0  0  0  0  0  0
    0.4357    4.4927    6.8186 N   0  0  0  0  0  0  0  0  0  0  0  0
    0.2321    4.1504    8.1057 C   0  0  0  0  0  0  0  0  0  0  0  0
   -0.2455    4.7658    9.2528 C   0  0  0  0  0  0  0  0  0  0  0  0
   -0.3064    4.0469   10.4531 C   0  0  0  0  0  0  0  0  0  0  0  0
    0.0926    2.7309   10.5545 C   0  0  0  0  0  0  0  0  0  0  0  0
    0.5707    2.1156    9.4042 C   0  0  0  0  0  0  0  0  0  0  0  0
    0.6170    2.8557    8.2369 C   0  0  0  0  0  0  0  0  0  0  0  0
    1.0257    0.7548    9.3351 C   0  0  0  0  0  0  0  0  0  0  0  0
    0.9429   -0.0129   10.4234 C   0  0  0  0  0  0  0  0  0  0  0  0
   -0.5078   -1.0155    7.9565 C   0  0  0  0  0  0  0  0  0  0  0  0
  1  2  1  0
  2  3  1  0
  3  4  1  0
  4  5  1  0
  3  6  1  0
  6  7  1  0
  7  8  2  0
  7  9  1  0
  9 10  1  0
 10 11  1  0
 11 12  1  0
 12 13  1  0
 13 14  1  0
 14 15  2  0
 15 16  1  0
 16 17  1  0
 17 18  2  0
 18 19  1  0
 19 20  2  0
 20 21  1  0
 21 22  2  0
 21 23  1  0
 23 24  2  0
 11 25  1  0
 24  9  1  0
 23 12  1  0
 22 14  1  0
 22 17  1  0
M  END
$$$$
