
     RDKit          3D

 25 28  0  0  0  0  0  0  0  0999 V2000
   -0.8361   -5.4970   12.7275 C   0  0  0  0  0  0  0  0  0  0  0  0
    0.5934   -5.3500   13.2128 C   0  0  0  0  0  0  0  0  0  0  0  0
    0.8948   -3.9041   13.3087 C   0  0  0  0  0  0  0  0  0  0  0  0
    1.9550   -3.6898   14.3608 C   0  0  0  0  0  0  0  0  0  0  0  0
    1.4361   -3.0602   15.4864 O   0  0  0  0  0  0  0  0  0  0  0  0
    1.2862   -3.2499   12.1176 N   0  0  0  0  0  0  0  0  0  0  0  0
    0.8563   -1.9579   11.6969 C   0  0  0  0  0  0  0  0  0  0  0  0
   -0.1430   -1.5121   12.3149 O   0  0  0  0  0  0  0  0  0  0  0  0
    1.5056   -1.1890   10.6348 C   0  0  0  0  0  0  0  0  0  0  0  0
    1.4831   -1.8154    9.2961 C   0  0  0  0  0  0  0  0  0  0  0  0
    0.9461   -1.0066    8.2258 N   0  0  0  0  0  0  0  0  0  0  0  0
    1.6242    0.2792    8.2818 C   0  0  0  0  0  0  0  0  0  0  0  0
    1.5682    1.0336    7.0209 C   0  0  0  0  0  0  0  0  0  0  0  0
    1.0940    2.4202    7.1141 C   0  0  0  0  0  0  0  0  0  0  0  0
    0.9531    3.4237    6.1781 C   0  0  0  0  0  0  0  0  0  0  0  0
    0.4634    4.5443    6.7865 N   0  0  0  0  0  0  0  0  0  0  0  0
    0.2884    4.2757    8.0951 C   0  0  0  0  0  0  0  0  0  0  0  0
   -0.1600    4.9569    9.2165 C   0  0  0  0  0  0  0  0  0  0  0  0
   -0.1957    4.3068   10.4564 C   0  0  0  0  0  0  0  0  0  0  0  0
    0.2003    2.9964   10.6223 C   0  0  0  0  0  0  0  0  0  0  0  0
    0.6492    2.3152    9.4978 C   0  0  0  0  0  0  0  0  0  0  0  0
    0.6713    2.9885    8.2900 C   0  0  0  0  0  0  0  0  0  0  0  0
    1.0973    0.9504    9.4947 C   0  0  0  0  0  0  0  0  0  0  0  0
    1.0368    0.2453   10.6259 C   0  0  0  0  0  0  0  0  0  0  0  0
   -0.4747   -0.8865    8.2532 C   0  0  0  0  0  0  0  0  0  0  0  0
  1  2  1  0
  2  3  1  0
  3  4  1  0
  4  5  1  0
  3  6  1  0
  6  7  1  0
  7  8  2  0
  7  9  1  0
  9 10  1  0
 10 11  1  0
 11 12  1  0
 12 13  1  0
 13 14  1  0
 14 15  2  0
 15 16  1  0
 16 17  1  0
 17 18  2  0
 18 19  1  0
 19 20  2  0
 20 21  1  0
 21 22  2  0
 21 23  1  0
 23 24  2  0
 11 25  1  0
 24  9  1  0
 23 12  1  0
 22 14  1  0
 22 17  1  0
M  END
$$$$
