
     RDKit          3D

 25 28  0  0  0  0  0  0  0  0999 V2000
   -0.4994   -5.9119   13.7418 C   0  0  0  0  0  0  0  0  0  0  0  0
   -0.1557   -5.2968   12.3987 C   0  0  0  0  0  0  0  0  0  0  0  0
    0.9596   -4.3460   12.6058 C   0  0  0  0  0  0  0  0  0  0  0  0
    2.1676   -5.1027   13.1007 C   0  0  0  0  0  0  0  0  0  0  0  0
    2.7093   -4.5114   14.2363 O   0  0  0  0  0  0  0  0  0  0  0  0
    1.3349   -3.5468   11.5011 N   0  0  0  0  0  0  0  0  0  0  0  0
    1.2289   -2.1276   11.4254 C   0  0  0  0  0  0  0  0  0  0  0  0
    0.6380   -1.5945   12.3979 O   0  0  0  0  0  0  0  0  0  0  0  0
    1.7555   -1.3293   10.3180 C   0  0  0  0  0  0  0  0  0  0  0  0
    1.6293   -1.9434    8.9794 C   0  0  0  0  0  0  0  0  0  0  0  0
    0.9731   -1.1413    7.9724 N   0  0  0  0  0  0  0  0  0  0  0  0
    1.6151    0.1640    7.9821 C   0  0  0  0  0  0  0  0  0  0  0  0
    1.4219    0.9282    6.7408 C   0  0  0  0  0  0  0  0  0  0  0  0
    0.9175    2.2987    6.8937 C   0  0  0  0  0  0  0  0  0  0  0  0
    0.6621    3.3063    5.9868 C   0  0  0  0  0  0  0  0  0  0  0  0
    0.1971    4.4056    6.6508 N   0  0  0  0  0  0  0  0  0  0  0  0
    0.1504    4.1195    7.9665 C   0  0  0  0  0  0  0  0  0  0  0  0
   -0.2136    4.7760    9.1323 C   0  0  0  0  0  0  0  0  0  0  0  0
   -0.1167    4.1134   10.3623 C   0  0  0  0  0  0  0  0  0  0  0  0
    0.3314    2.8143   10.4755 C   0  0  0  0  0  0  0  0  0  0  0  0
    0.6956    2.1577    9.3065 C   0  0  0  0  0  0  0  0  0  0  0  0
    0.5873    2.8427    8.1100 C   0  0  0  0  0  0  0  0  0  0  0  0
    1.1817    0.8073    9.2460 C   0  0  0  0  0  0  0  0  0  0  0  0
    1.2456    0.0900   10.3694 C   0  0  0  0  0  0  0  0  0  0  0  0
   -0.4422   -1.0649    8.1305 C   0  0  0  0  0  0  0  0  0  0  0  0
  1  2  1  0
  2  3  1  0
  3  4  1  0
  4  5  1  0
  3  6  1  0
  6  7  1  0
  7  8  2  0
  7  9  1  0
  9 10  1  0
 10 11  1  0
 11 12  1  0
 12 13  1  0
 13 14  1  0
 14 15  2  0
 15 16  1  0
 16 17  1  0
 17 18  2  0
 18 19  1  0
 19 20  2  0
 20 21  1  0
 21 22  2  0
 21 23  1  0
 23 24  2  0
 11 25  1  0
 24  9  1  0
 23 12  1  0
 22 14  1  0
 22 17  1  0
M  END
$$$$
