
     RDKit          3D

 25 28  0  0  0  0  0  0  0  0999 V2000
   -1.1291   -4.9660   12.1318 C   0  0  0  0  0  0  0  0  0  0  0  0
    0.2742   -5.4405   12.4578 C   0  0  0  0  0  0  0  0  0  0  0  0
    1.1224   -4.2452   12.6631 C   0  0  0  0  0  0  0  0  0  0  0  0
    2.3915   -4.6560   13.3683 C   0  0  0  0  0  0  0  0  0  0  0  0
    3.1287   -3.5501   13.7762 O   0  0  0  0  0  0  0  0  0  0  0  0
    1.4551   -3.4896   11.5149 N   0  0  0  0  0  0  0  0  0  0  0  0
    1.0928   -2.1318   11.2775 C   0  0  0  0  0  0  0  0  0  0  0  0
    0.2517   -1.6656   12.0864 O   0  0  0  0  0  0  0  0  0  0  0  0
    1.6391   -1.3214   10.1885 C   0  0  0  0  0  0  0  0  0  0  0  0
    1.4951   -1.8998    8.8358 C   0  0  0  0  0  0  0  0  0  0  0  0
    0.8592   -1.0567    7.8495 N   0  0  0  0  0  0  0  0  0  0  0  0
    1.5356    0.2305    7.8892 C   0  0  0  0  0  0  0  0  0  0  0  0
    1.3612    1.0291    6.6669 C   0  0  0  0  0  0  0  0  0  0  0  0
    0.8935    2.4084    6.8534 C   0  0  0  0  0  0  0  0  0  0  0  0
    0.6638    3.4438    5.9712 C   0  0  0  0  0  0  0  0  0  0  0  0
    0.2289    4.5389    6.6622 N   0  0  0  0  0  0  0  0  0  0  0  0
    0.1762    4.2227    7.9708 C   0  0  0  0  0  0  0  0  0  0  0  0
   -0.1688    4.8605    9.1526 C   0  0  0  0  0  0  0  0  0  0  0  0
   -0.0881    4.1663   10.3662 C   0  0  0  0  0  0  0  0  0  0  0  0
    0.3255    2.8534   10.4475 C   0  0  0  0  0  0  0  0  0  0  0  0
    0.6709    2.2156    9.2625 C   0  0  0  0  0  0  0  0  0  0  0  0
    0.5793    2.9317    8.0830 C   0  0  0  0  0  0  0  0  0  0  0  0
    1.1209    0.8547    9.1689 C   0  0  0  0  0  0  0  0  0  0  0  0
    1.1671    0.1093   10.2747 C   0  0  0  0  0  0  0  0  0  0  0  0
   -0.5534   -0.9466    8.0119 C   0  0  0  0  0  0  0  0  0  0  0  0
  1  2  1  0
  2  3  1  0
  3  4  1  0
  4  5  1  0
  3  6  1  0
  6  7  1  0
  7  8  2  0
  7  9  1  0
  9 10  1  0
 10 11  1  0
 11 12  1  0
 12 13  1  0
 13 14  1  0
 14 15  2  0
 15 16  1  0
 16 17  1  0
 17 18  2  0
 18 19  1  0
 19 20  2  0
 20 21  1  0
 21 22  2  0
 21 23  1  0
 23 24  2  0
 11 25  1  0
 24  9  1  0
 23 12  1  0
 22 14  1  0
 22 17  1  0
M  END
$$$$
