
     RDKit          3D

 25 28  0  0  0  0  0  0  0  0999 V2000
   -1.0316   -5.2940   12.0063 C   0  0  0  0  0  0  0  0  0  0  0  0
   -0.0679   -5.3031   13.1776 C   0  0  0  0  0  0  0  0  0  0  0  0
    0.6264   -3.9963   13.2055 C   0  0  0  0  0  0  0  0  0  0  0  0
    1.9288   -4.1454   13.9528 C   0  0  0  0  0  0  0  0  0  0  0  0
    2.4334   -2.9120   14.3485 O   0  0  0  0  0  0  0  0  0  0  0  0
    0.8765   -3.3759   11.9595 N   0  0  0  0  0  0  0  0  0  0  0  0
    0.6203   -2.0102   11.6426 C   0  0  0  0  0  0  0  0  0  0  0  0
   -0.2236   -1.4500   12.3864 O   0  0  0  0  0  0  0  0  0  0  0  0
    1.2714   -1.2923   10.5465 C   0  0  0  0  0  0  0  0  0  0  0  0
    1.2161   -1.9625    9.2301 C   0  0  0  0  0  0  0  0  0  0  0  0
    0.6820   -1.1782    8.1404 N   0  0  0  0  0  0  0  0  0  0  0  0
    1.3890    0.0932    8.1437 C   0  0  0  0  0  0  0  0  0  0  0  0
    1.3318    0.8060    6.8589 C   0  0  0  0  0  0  0  0  0  0  0  0
    0.8898    2.2052    6.9115 C   0  0  0  0  0  0  0  0  0  0  0  0
    0.7579    3.1797    5.9441 C   0  0  0  0  0  0  0  0  0  0  0  0
    0.3017    4.3309    6.5207 N   0  0  0  0  0  0  0  0  0  0  0  0
    0.1394    4.1103    7.8399 C   0  0  0  0  0  0  0  0  0  0  0  0
   -0.2779    4.8387    8.9435 C   0  0  0  0  0  0  0  0  0  0  0  0
   -0.3105    4.2315   10.2051 C   0  0  0  0  0  0  0  0  0  0  0  0
    0.0588    2.9188   10.4099 C   0  0  0  0  0  0  0  0  0  0  0  0
    0.4766    2.1903    9.3031 C   0  0  0  0  0  0  0  0  0  0  0  0
    0.4964    2.8220    8.0730 C   0  0  0  0  0  0  0  0  0  0  0  0
    0.8943    0.8164    9.3402 C   0  0  0  0  0  0  0  0  0  0  0  0
    0.8342    0.1512   10.4954 C   0  0  0  0  0  0  0  0  0  0  0  0
   -0.7353   -1.0251    8.1827 C   0  0  0  0  0  0  0  0  0  0  0  0
  1  2  1  0
  2  3  1  0
  3  4  1  0
  4  5  1  0
  3  6  1  0
  6  7  1  0
  7  8  2  0
  7  9  1  0
  9 10  1  0
 10 11  1  0
 11 12  1  0
 12 13  1  0
 13 14  1  0
 14 15  2  0
 15 16  1  0
 16 17  1  0
 17 18  2  0
 18 19  1  0
 19 20  2  0
 20 21  1  0
 21 22  2  0
 21 23  1  0
 23 24  2  0
 11 25  1  0
 24  9  1  0
 23 12  1  0
 22 14  1  0
 22 17  1  0
M  END
$$$$
