
     RDKit          3D

 25 28  0  0  0  0  0  0  0  0999 V2000
   -0.4124   -5.9555   12.2471 C   0  0  0  0  0  0  0  0  0  0  0  0
    0.7264   -5.4015   13.0818 C   0  0  0  0  0  0  0  0  0  0  0  0
    0.6627   -3.9243   13.0150 C   0  0  0  0  0  0  0  0  0  0  0  0
    1.8056   -3.3446   13.8114 C   0  0  0  0  0  0  0  0  0  0  0  0
    1.3619   -2.7767   15.0002 O   0  0  0  0  0  0  0  0  0  0  0  0
    0.6531   -3.3401   11.7271 N   0  0  0  0  0  0  0  0  0  0  0  0
    0.3996   -1.9681   11.4366 C   0  0  0  0  0  0  0  0  0  0  0  0
   -0.5113   -1.4467   12.1276 O   0  0  0  0  0  0  0  0  0  0  0  0
    1.1247   -1.2028   10.4220 C   0  0  0  0  0  0  0  0  0  0  0  0
    1.1459   -1.8037    9.0715 C   0  0  0  0  0  0  0  0  0  0  0  0
    0.6884   -0.9578    7.9931 N   0  0  0  0  0  0  0  0  0  0  0  0
    1.4054    0.3029    8.1067 C   0  0  0  0  0  0  0  0  0  0  0  0
    1.4354    1.0815    6.8597 C   0  0  0  0  0  0  0  0  0  0  0  0
    1.0036    2.4815    6.9575 C   0  0  0  0  0  0  0  0  0  0  0  0
    0.9415    3.5061    6.0360 C   0  0  0  0  0  0  0  0  0  0  0  0
    0.4606    4.6316    6.6423 N   0  0  0  0  0  0  0  0  0  0  0  0
    0.2138    4.3455    7.9356 C   0  0  0  0  0  0  0  0  0  0  0  0
   -0.2652    5.0211    9.0476 C   0  0  0  0  0  0  0  0  0  0  0  0
   -0.3824    4.3503   10.2713 C   0  0  0  0  0  0  0  0  0  0  0  0
   -0.0386    3.0244   10.4300 C   0  0  0  0  0  0  0  0  0  0  0  0
    0.4412    2.3487    9.3148 C   0  0  0  0  0  0  0  0  0  0  0  0
    0.5438    3.0426    8.1230 C   0  0  0  0  0  0  0  0  0  0  0  0
    0.8432    0.9696    9.3062 C   0  0  0  0  0  0  0  0  0  0  0  0
    0.7048    0.2466   10.4191 C   0  0  0  0  0  0  0  0  0  0  0  0
   -0.7273   -0.7896    7.9552 C   0  0  0  0  0  0  0  0  0  0  0  0
  1  2  1  0
  2  3  1  0
  3  4  1  0
  4  5  1  0
  3  6  1  0
  6  7  1  0
  7  8  2  0
  7  9  1  0
  9 10  1  0
 10 11  1  0
 11 12  1  0
 12 13  1  0
 13 14  1  0
 14 15  2  0
 15 16  1  0
 16 17  1  0
 17 18  2  0
 18 19  1  0
 19 20  2  0
 20 21  1  0
 21 22  2  0
 21 23  1  0
 23 24  2  0
 11 25  1  0
 24  9  1  0
 23 12  1  0
 22 14  1  0
 22 17  1  0
M  END
$$$$
