
     RDKit          3D

 25 28  0  0  0  0  0  0  0  0999 V2000
   -0.7854   -5.4629   12.1207 C   0  0  0  0  0  0  0  0  0  0  0  0
    0.2877   -5.1900   13.1573 C   0  0  0  0  0  0  0  0  0  0  0  0
    0.5488   -3.7332   13.1690 C   0  0  0  0  0  0  0  0  0  0  0  0
    1.6130   -3.4309   14.1951 C   0  0  0  0  0  0  0  0  0  0  0  0
    1.0555   -3.0849   15.4207 O   0  0  0  0  0  0  0  0  0  0  0  0
    0.9096   -3.1361   11.9388 N   0  0  0  0  0  0  0  0  0  0  0  0
    0.5359   -1.8309   11.5051 C   0  0  0  0  0  0  0  0  0  0  0  0
   -0.4434   -1.3364   12.1179 O   0  0  0  0  0  0  0  0  0  0  0  0
    1.2183   -1.1014   10.4360 C   0  0  0  0  0  0  0  0  0  0  0  0
    1.2391   -1.7778    9.1218 C   0  0  0  0  0  0  0  0  0  0  0  0
    0.7359   -1.0110    8.0052 N   0  0  0  0  0  0  0  0  0  0  0  0
    1.4108    0.2774    8.0342 C   0  0  0  0  0  0  0  0  0  0  0  0
    1.3945    0.9836    6.7446 C   0  0  0  0  0  0  0  0  0  0  0  0
    0.9165    2.3718    6.7703 C   0  0  0  0  0  0  0  0  0  0  0  0
    0.8048    3.3390    5.7931 C   0  0  0  0  0  0  0  0  0  0  0  0
    0.2950    4.4808    6.3429 N   0  0  0  0  0  0  0  0  0  0  0  0
    0.0785    4.2614    7.6544 C   0  0  0  0  0  0  0  0  0  0  0  0
   -0.4061    4.9834    8.7344 C   0  0  0  0  0  0  0  0  0  0  0  0
   -0.4809    4.3804    9.9962 C   0  0  0  0  0  0  0  0  0  0  0  0
   -0.0893    3.0780   10.2240 C   0  0  0  0  0  0  0  0  0  0  0  0
    0.3959    2.3558    9.1408 C   0  0  0  0  0  0  0  0  0  0  0  0
    0.4559    2.9831    7.9098 C   0  0  0  0  0  0  0  0  0  0  0  0
    0.8449    0.9927    9.2036 C   0  0  0  0  0  0  0  0  0  0  0  0
    0.7488    0.3307   10.3581 C   0  0  0  0  0  0  0  0  0  0  0  0
   -0.6852   -0.8927    7.9827 C   0  0  0  0  0  0  0  0  0  0  0  0
  1  2  1  0
  2  3  1  0
  3  4  1  0
  4  5  1  0
  3  6  1  0
  6  7  1  0
  7  8  2  0
  7  9  1  0
  9 10  1  0
 10 11  1  0
 11 12  1  0
 12 13  1  0
 13 14  1  0
 14 15  2  0
 15 16  1  0
 16 17  1  0
 17 18  2  0
 18 19  1  0
 19 20  2  0
 20 21  1  0
 21 22  2  0
 21 23  1  0
 23 24  2  0
 11 25  1  0
 24  9  1  0
 23 12  1  0
 22 14  1  0
 22 17  1  0
M  END
$$$$
