
     RDKit          3D

 25 28  0  0  0  0  0  0  0  0999 V2000
   -0.7752   -5.5576   13.4079 C   0  0  0  0  0  0  0  0  0  0  0  0
   -0.1579   -5.5329   12.0226 C   0  0  0  0  0  0  0  0  0  0  0  0
    1.0312   -4.6530   12.0701 C   0  0  0  0  0  0  0  0  0  0  0  0
    2.2554   -5.4921   12.3423 C   0  0  0  0  0  0  0  0  0  0  0  0
    3.1239   -4.8561   13.2220 O   0  0  0  0  0  0  0  0  0  0  0  0
    1.2714   -3.8374   10.9400 N   0  0  0  0  0  0  0  0  0  0  0  0
    0.9480   -2.4540   10.8272 C   0  0  0  0  0  0  0  0  0  0  0  0
    0.1244   -2.0381   11.6804 O   0  0  0  0  0  0  0  0  0  0  0  0
    1.5128   -1.5655    9.8111 C   0  0  0  0  0  0  0  0  0  0  0  0
    1.3789   -2.0345    8.4156 C   0  0  0  0  0  0  0  0  0  0  0  0
    0.7608   -1.1108    7.4922 N   0  0  0  0  0  0  0  0  0  0  0  0
    1.4473    0.1632    7.6400 C   0  0  0  0  0  0  0  0  0  0  0  0
    1.2929    1.0569    6.4826 C   0  0  0  0  0  0  0  0  0  0  0  0
    0.8345    2.4214    6.7722 C   0  0  0  0  0  0  0  0  0  0  0  0
    0.6230    3.5249    5.9719 C   0  0  0  0  0  0  0  0  0  0  0  0
    0.1896    4.5662    6.7424 N   0  0  0  0  0  0  0  0  0  0  0  0
    0.1199    4.1487    8.0215 C   0  0  0  0  0  0  0  0  0  0  0  0
   -0.2328    4.6948    9.2462 C   0  0  0  0  0  0  0  0  0  0  0  0
   -0.1711    3.9067   10.4022 C   0  0  0  0  0  0  0  0  0  0  0  0
    0.2308    2.5878   10.3842 C   0  0  0  0  0  0  0  0  0  0  0  0
    0.5839    2.0420    9.1563 C   0  0  0  0  0  0  0  0  0  0  0  0
    0.5112    2.8493    8.0358 C   0  0  0  0  0  0  0  0  0  0  0  0
    1.0237    0.6885    8.9606 C   0  0  0  0  0  0  0  0  0  0  0  0
    1.0516   -0.1418   10.0047 C   0  0  0  0  0  0  0  0  0  0  0  0
   -0.6525   -1.0010    7.6482 C   0  0  0  0  0  0  0  0  0  0  0  0
  1  2  1  0
  2  3  1  0
  3  4  1  0
  4  5  1  0
  3  6  1  0
  6  7  1  0
  7  8  2  0
  7  9  1  0
  9 10  1  0
 10 11  1  0
 11 12  1  0
 12 13  1  0
 13 14  1  0
 14 15  2  0
 15 16  1  0
 16 17  1  0
 17 18  2  0
 18 19  1  0
 19 20  2  0
 20 21  1  0
 21 22  2  0
 21 23  1  0
 23 24  2  0
 11 25  1  0
 24  9  1  0
 23 12  1  0
 22 14  1  0
 22 17  1  0
M  END
$$$$
