
     RDKit          3D

 25 28  0  0  0  0  0  0  0  0999 V2000
    2.1611    0.0805    6.2873 C   0  0  0  0  0  0  0  0  0  0  0  0
    3.3800   -0.1573    6.8969 C   0  0  0  0  0  0  0  0  0  0  0  0
    3.5025    0.6591    7.9167 O   0  0  0  0  0  0  0  0  0  0  0  0
    2.4474    1.4293    8.0330 C   0  0  0  0  0  0  0  0  0  0  0  0
    1.5855    1.0938    7.0273 C   0  0  0  0  0  0  0  0  0  0  0  0
    2.2640    2.4598    9.0760 C   0  0  0  0  0  0  0  0  0  0  0  0
    3.0127    2.6086   10.1823 N   0  0  0  0  0  0  0  0  0  0  0  0
    2.5368    3.6370   10.8623 N   0  0  0  0  0  0  0  0  0  0  0  0
    2.9850    4.1444   12.0399 C   0  0  0  0  0  0  0  0  0  0  0  0
    2.3750    5.1932   12.5796 N   0  0  0  0  0  0  0  0  0  0  0  0
    1.3190    5.7461   11.9585 C   0  0  0  0  0  0  0  0  0  0  0  0
    0.8825    5.2235   10.7766 N   0  0  0  0  0  0  0  0  0  0  0  0
    1.4855    4.1746   10.2283 C   0  0  0  0  0  0  0  0  0  0  0  0
    1.3345    3.4235    9.1170 N   0  0  0  0  0  0  0  0  0  0  0  0
    0.6939    6.8593   12.5589 N   0  0  0  0  0  0  0  0  0  0  0  0
    1.1001    7.2829   13.8686 C   0  0  0  0  0  0  0  0  0  0  0  0
    2.3838    8.0505   13.9146 C   0  0  0  0  0  0  0  0  0  0  0  0
    2.7604    8.5227   15.2680 C   0  0  0  0  0  0  0  0  0  0  0  0
    2.7065    9.8763   15.5960 C   0  0  0  0  0  0  0  0  0  0  0  0
    3.0508   10.3563   16.8329 C   0  0  0  0  0  0  0  0  0  0  0  0
    3.4692    9.4548   17.7937 C   0  0  0  0  0  0  0  0  0  0  0  0
    3.5384    8.1191   17.5192 C   0  0  0  0  0  0  0  0  0  0  0  0
    3.1835    7.6627   16.2579 C   0  0  0  0  0  0  0  0  0  0  0  0
    3.8121    9.9520   19.0327 O   0  0  0  0  0  0  0  0  0  0  0  0
    4.1156    3.5541   12.7067 N   0  0  0  0  0  0  0  0  0  0  0  0
  1  2  2  0
  2  3  1  0
  3  4  1  0
  4  5  2  0
  4  6  1  0
  6  7  2  0
  7  8  1  0
  8  9  1  0
  9 10  2  0
 10 11  1  0
 11 12  2  0
 12 13  1  0
 13 14  2  0
 11 15  1  0
 15 16  1  0
 16 17  1  0
 17 18  1  0
 18 19  2  0
 19 20  1  0
 20 21  2  0
 21 22  1  0
 22 23  2  0
 21 24  1  0
  9 25  1  0
  5  1  1  0
 14  6  1  0
 13  8  1  0
 23 18  1  0
M  END
$$$$
