
     RDKit          3D

 25 28  0  0  0  0  0  0  0  0999 V2000
    2.6416    0.3091    6.3253 C   0  0  0  0  0  0  0  0  0  0  0  0
    3.7676    0.0686    7.0923 C   0  0  0  0  0  0  0  0  0  0  0  0
    3.7415    0.8672    8.1331 O   0  0  0  0  0  0  0  0  0  0  0  0
    2.6734    1.6281    8.1165 C   0  0  0  0  0  0  0  0  0  0  0  0
    1.9607    1.3050    6.9965 C   0  0  0  0  0  0  0  0  0  0  0  0
    2.3391    2.6382    9.1418 C   0  0  0  0  0  0  0  0  0  0  0  0
    3.0032    2.8494   10.2912 N   0  0  0  0  0  0  0  0  0  0  0  0
    2.4005    3.8329   10.9362 N   0  0  0  0  0  0  0  0  0  0  0  0
    2.7308    4.3757   12.1368 C   0  0  0  0  0  0  0  0  0  0  0  0
    2.0017    5.3682   12.6335 N   0  0  0  0  0  0  0  0  0  0  0  0
    0.9425    5.8294   11.9465 C   0  0  0  0  0  0  0  0  0  0  0  0
    0.6254    5.2725   10.7425 N   0  0  0  0  0  0  0  0  0  0  0  0
    1.3482    4.2794   10.2367 C   0  0  0  0  0  0  0  0  0  0  0  0
    1.3302    3.5191    9.1216 N   0  0  0  0  0  0  0  0  0  0  0  0
    0.1891    6.8847   12.5027 N   0  0  0  0  0  0  0  0  0  0  0  0
    0.6545    7.5425   13.6904 C   0  0  0  0  0  0  0  0  0  0  0  0
    1.7572    8.5308   13.4745 C   0  0  0  0  0  0  0  0  0  0  0  0
    2.5240    8.8617   14.6989 C   0  0  0  0  0  0  0  0  0  0  0  0
    2.0803    8.4527   15.9553 C   0  0  0  0  0  0  0  0  0  0  0  0
    2.7552    8.7416   17.1129 C   0  0  0  0  0  0  0  0  0  0  0  0
    3.9264    9.4705   17.0254 C   0  0  0  0  0  0  0  0  0  0  0  0
    4.4007    9.8932   15.8169 C   0  0  0  0  0  0  0  0  0  0  0  0
    3.6958    9.5857   14.6621 C   0  0  0  0  0  0  0  0  0  0  0  0
    4.5941    9.7534   18.1976 O   0  0  0  0  0  0  0  0  0  0  0  0
    3.8645    3.8835   12.8741 N   0  0  0  0  0  0  0  0  0  0  0  0
  1  2  2  0
  2  3  1  0
  3  4  1  0
  4  5  2  0
  4  6  1  0
  6  7  2  0
  7  8  1  0
  8  9  1  0
  9 10  2  0
 10 11  1  0
 11 12  2  0
 12 13  1  0
 13 14  2  0
 11 15  1  0
 15 16  1  0
 16 17  1  0
 17 18  1  0
 18 19  2  0
 19 20  1  0
 20 21  2  0
 21 22  1  0
 22 23  2  0
 21 24  1  0
  9 25  1  0
  5  1  1  0
 14  6  1  0
 13  8  1  0
 23 18  1  0
M  END
$$$$
