
     RDKit          3D

 25 28  0  0  0  0  0  0  0  0999 V2000
    1.1713    0.2069    6.6549 C   0  0  0  0  0  0  0  0  0  0  0  0
    2.3539   -0.2476    7.2106 C   0  0  0  0  0  0  0  0  0  0  0  0
    2.7260    0.5944    8.1455 O   0  0  0  0  0  0  0  0  0  0  0  0
    1.8725    1.5842    8.2550 C   0  0  0  0  0  0  0  0  0  0  0  0
    0.8845    1.3735    7.3352 C   0  0  0  0  0  0  0  0  0  0  0  0
    1.9944    2.7035    9.2120 C   0  0  0  0  0  0  0  0  0  0  0  0
    2.8602    2.7776   10.2374 N   0  0  0  0  0  0  0  0  0  0  0  0
    2.6614    3.9277   10.8573 N   0  0  0  0  0  0  0  0  0  0  0  0
    3.3107    4.4181   11.9450 C   0  0  0  0  0  0  0  0  0  0  0  0
    2.9716    5.6050   12.4345 N   0  0  0  0  0  0  0  0  0  0  0  0
    1.9892    6.3135   11.8518 C   0  0  0  0  0  0  0  0  0  0  0  0
    1.3480    5.8056   10.7603 N   0  0  0  0  0  0  0  0  0  0  0  0
    1.6794    4.6194   10.2628 C   0  0  0  0  0  0  0  0  0  0  0  0
    1.2791    3.8357    9.2394 N   0  0  0  0  0  0  0  0  0  0  0  0
    1.6537    7.5708   12.3969 N   0  0  0  0  0  0  0  0  0  0  0  0
    2.3574    8.0576   13.5492 C   0  0  0  0  0  0  0  0  0  0  0  0
    1.4851    8.5444   14.6633 C   0  0  0  0  0  0  0  0  0  0  0  0
    2.1313    8.5163   15.9967 C   0  0  0  0  0  0  0  0  0  0  0  0
    1.5578    7.8166   17.0570 C   0  0  0  0  0  0  0  0  0  0  0  0
    2.1186    7.7690   18.3069 C   0  0  0  0  0  0  0  0  0  0  0  0
    3.3046    8.4460   18.5203 C   0  0  0  0  0  0  0  0  0  0  0  0
    3.9041    9.1454   17.5125 C   0  0  0  0  0  0  0  0  0  0  0  0
    3.3128    9.1755   16.2577 C   0  0  0  0  0  0  0  0  0  0  0  0
    3.8568    8.3891   19.7821 O   0  0  0  0  0  0  0  0  0  0  0  0
    4.3629    3.6614   12.5706 N   0  0  0  0  0  0  0  0  0  0  0  0
  1  2  2  0
  2  3  1  0
  3  4  1  0
  4  5  2  0
  4  6  1  0
  6  7  2  0
  7  8  1  0
  8  9  1  0
  9 10  2  0
 10 11  1  0
 11 12  2  0
 12 13  1  0
 13 14  2  0
 11 15  1  0
 15 16  1  0
 16 17  1  0
 17 18  1  0
 18 19  2  0
 19 20  1  0
 20 21  2  0
 21 22  1  0
 22 23  2  0
 21 24  1  0
  9 25  1  0
  5  1  1  0
 14  6  1  0
 13  8  1  0
 23 18  1  0
M  END
$$$$
