
     RDKit          3D

 25 28  0  0  0  0  0  0  0  0999 V2000
    1.9907    0.2855    6.2778 C   0  0  0  0  0  0  0  0  0  0  0  0
    3.1517   -0.0183    6.9663 C   0  0  0  0  0  0  0  0  0  0  0  0
    3.2590    0.8017    7.9849 O   0  0  0  0  0  0  0  0  0  0  0  0
    2.2479    1.6359    8.0269 C   0  0  0  0  0  0  0  0  0  0  0  0
    1.4325    1.3409    6.9709 C   0  0  0  0  0  0  0  0  0  0  0  0
    2.0621    2.6884    9.0472 C   0  0  0  0  0  0  0  0  0  0  0  0
    2.7848    2.8385   10.1706 N   0  0  0  0  0  0  0  0  0  0  0  0
    2.3163    3.8896   10.8202 N   0  0  0  0  0  0  0  0  0  0  0  0
    2.7456    4.4065   12.0007 C   0  0  0  0  0  0  0  0  0  0  0  0
    2.1473    5.4788   12.5063 N   0  0  0  0  0  0  0  0  0  0  0  0
    1.1218    6.0458   11.8481 C   0  0  0  0  0  0  0  0  0  0  0  0
    0.7039    5.5134   10.6639 N   0  0  0  0  0  0  0  0  0  0  0  0
    1.2955    4.4411   10.1494 C   0  0  0  0  0  0  0  0  0  0  0  0
    1.1556    3.6746    9.0472 N   0  0  0  0  0  0  0  0  0  0  0  0
    0.5083    7.1839   12.4129 N   0  0  0  0  0  0  0  0  0  0  0  0
    0.9860    7.7035   13.6626 C   0  0  0  0  0  0  0  0  0  0  0  0
    2.2515    8.4971   13.5744 C   0  0  0  0  0  0  0  0  0  0  0  0
    2.9781    8.6255   14.8598 C   0  0  0  0  0  0  0  0  0  0  0  0
    2.2906    8.6607   16.0718 C   0  0  0  0  0  0  0  0  0  0  0  0
    2.9223    8.7838   17.2820 C   0  0  0  0  0  0  0  0  0  0  0  0
    4.3014    8.8769   17.2962 C   0  0  0  0  0  0  0  0  0  0  0  0
    5.0182    8.8472   16.1345 C   0  0  0  0  0  0  0  0  0  0  0  0
    4.3511    8.7218   14.9244 C   0  0  0  0  0  0  0  0  0  0  0  0
    4.9228    9.0002   18.5204 O   0  0  0  0  0  0  0  0  0  0  0  0
    3.8435    3.8011   12.7073 N   0  0  0  0  0  0  0  0  0  0  0  0
  1  2  2  0
  2  3  1  0
  3  4  1  0
  4  5  2  0
  4  6  1  0
  6  7  2  0
  7  8  1  0
  8  9  1  0
  9 10  2  0
 10 11  1  0
 11 12  2  0
 12 13  1  0
 13 14  2  0
 11 15  1  0
 15 16  1  0
 16 17  1  0
 17 18  1  0
 18 19  2  0
 19 20  1  0
 20 21  2  0
 21 22  1  0
 22 23  2  0
 21 24  1  0
  9 25  1  0
  5  1  1  0
 14  6  1  0
 13  8  1  0
 23 18  1  0
M  END
$$$$
