
     RDKit          3D

 25 28  0  0  0  0  0  0  0  0999 V2000
    2.0365   -0.3045    7.0814 C   0  0  0  0  0  0  0  0  0  0  0  0
    3.2863   -0.4333    7.6606 C   0  0  0  0  0  0  0  0  0  0  0  0
    3.4399    0.5290    8.5391 O   0  0  0  0  0  0  0  0  0  0  0  0
    2.3770    1.2957    8.5889 C   0  0  0  0  0  0  0  0  0  0  0  0
    1.4765    0.8022    7.6876 C   0  0  0  0  0  0  0  0  0  0  0  0
    2.2221    2.4695    9.4728 C   0  0  0  0  0  0  0  0  0  0  0  0
    3.0386    2.8125   10.4840 N   0  0  0  0  0  0  0  0  0  0  0  0
    2.5671    3.9185   11.0325 N   0  0  0  0  0  0  0  0  0  0  0  0
    3.0737    4.6171   12.0815 C   0  0  0  0  0  0  0  0  0  0  0  0
    2.4580    5.7171   12.4988 N   0  0  0  0  0  0  0  0  0  0  0  0
    1.3386    6.1326   11.8816 C   0  0  0  0  0  0  0  0  0  0  0  0
    0.8441    5.4188   10.8298 N   0  0  0  0  0  0  0  0  0  0  0  0
    1.4523    4.3171   10.4045 C   0  0  0  0  0  0  0  0  0  0  0  0
    1.2571    3.3978    9.4357 N   0  0  0  0  0  0  0  0  0  0  0  0
    0.7092    7.3053   12.3500 N   0  0  0  0  0  0  0  0  0  0  0  0
    1.2974    8.0461   13.4295 C   0  0  0  0  0  0  0  0  0  0  0  0
    1.0935    7.4526   14.7879 C   0  0  0  0  0  0  0  0  0  0  0  0
    2.1397    7.8167   15.7725 C   0  0  0  0  0  0  0  0  0  0  0  0
    3.1086    6.8941   16.1636 C   0  0  0  0  0  0  0  0  0  0  0  0
    4.0900    7.1870   17.0745 C   0  0  0  0  0  0  0  0  0  0  0  0
    4.1161    8.4540   17.6267 C   0  0  0  0  0  0  0  0  0  0  0  0
    3.1881    9.3916   17.2748 C   0  0  0  0  0  0  0  0  0  0  0  0
    2.2063    9.0660   16.3500 C   0  0  0  0  0  0  0  0  0  0  0  0
    5.1088    8.7341   18.5411 O   0  0  0  0  0  0  0  0  0  0  0  0
    4.2721    4.1741   12.7439 N   0  0  0  0  0  0  0  0  0  0  0  0
  1  2  2  0
  2  3  1  0
  3  4  1  0
  4  5  2  0
  4  6  1  0
  6  7  2  0
  7  8  1  0
  8  9  1  0
  9 10  2  0
 10 11  1  0
 11 12  2  0
 12 13  1  0
 13 14  2  0
 11 15  1  0
 15 16  1  0
 16 17  1  0
 17 18  1  0
 18 19  2  0
 19 20  1  0
 20 21  2  0
 21 22  1  0
 22 23  2  0
 21 24  1  0
  9 25  1  0
  5  1  1  0
 14  6  1  0
 13  8  1  0
 23 18  1  0
M  END
$$$$
