
     RDKit          3D

 25 28  0  0  0  0  0  0  0  0999 V2000
    2.1748    0.4293    6.4109 C   0  0  0  0  0  0  0  0  0  0  0  0
    3.4064    0.2757    7.0221 C   0  0  0  0  0  0  0  0  0  0  0  0
    3.4617    1.0807    8.0567 O   0  0  0  0  0  0  0  0  0  0  0  0
    2.3498    1.7648    8.1814 C   0  0  0  0  0  0  0  0  0  0  0  0
    1.5199    1.3816    7.1659 C   0  0  0  0  0  0  0  0  0  0  0  0
    2.0834    2.7591    9.2415 C   0  0  0  0  0  0  0  0  0  0  0  0
    2.8314    2.9661   10.3389 N   0  0  0  0  0  0  0  0  0  0  0  0
    2.2685    3.9346   11.0401 N   0  0  0  0  0  0  0  0  0  0  0  0
    2.6838    4.4683   12.2182 C   0  0  0  0  0  0  0  0  0  0  0  0
    1.9832    5.4457   12.7815 N   0  0  0  0  0  0  0  0  0  0  0  0
    0.8687    5.9007   12.1836 C   0  0  0  0  0  0  0  0  0  0  0  0
    0.4665    5.3531   11.0009 N   0  0  0  0  0  0  0  0  0  0  0  0
    1.1600    4.3751   10.4291 C   0  0  0  0  0  0  0  0  0  0  0  0
    1.0653    3.6270    9.3096 N   0  0  0  0  0  0  0  0  0  0  0  0
    0.1478    6.9400   12.8088 N   0  0  0  0  0  0  0  0  0  0  0  0
    0.7950    8.1920   13.0800 C   0  0  0  0  0  0  0  0  0  0  0  0
    0.7245    8.6441   14.5047 C   0  0  0  0  0  0  0  0  0  0  0  0
    1.9987    8.5064   15.2489 C   0  0  0  0  0  0  0  0  0  0  0  0
    2.0367    8.6365   16.6361 C   0  0  0  0  0  0  0  0  0  0  0  0
    3.1934    8.5221   17.3626 C   0  0  0  0  0  0  0  0  0  0  0  0
    4.3712    8.2667   16.6856 C   0  0  0  0  0  0  0  0  0  0  0  0
    4.3840    8.1314   15.3271 C   0  0  0  0  0  0  0  0  0  0  0  0
    3.1973    8.2523   14.6184 C   0  0  0  0  0  0  0  0  0  0  0  0
    5.5263    8.1542   17.4294 O   0  0  0  0  0  0  0  0  0  0  0  0
    3.8768    3.9826   12.8601 N   0  0  0  0  0  0  0  0  0  0  0  0
  1  2  2  0
  2  3  1  0
  3  4  1  0
  4  5  2  0
  4  6  1  0
  6  7  2  0
  7  8  1  0
  8  9  1  0
  9 10  2  0
 10 11  1  0
 11 12  2  0
 12 13  1  0
 13 14  2  0
 11 15  1  0
 15 16  1  0
 16 17  1  0
 17 18  1  0
 18 19  2  0
 19 20  1  0
 20 21  2  0
 21 22  1  0
 22 23  2  0
 21 24  1  0
  9 25  1  0
  5  1  1  0
 14  6  1  0
 13  8  1  0
 23 18  1  0
M  END
$$$$
