
     RDKit          3D

 25 28  0  0  0  0  0  0  0  0999 V2000
    1.9224    0.2524    6.4789 C   0  0  0  0  0  0  0  0  0  0  0  0
    3.0741   -0.0546    7.1814 C   0  0  0  0  0  0  0  0  0  0  0  0
    3.1594    0.7502    8.2142 O   0  0  0  0  0  0  0  0  0  0  0  0
    2.1422    1.5770    8.2526 C   0  0  0  0  0  0  0  0  0  0  0  0
    1.3460    1.2932    7.1790 C   0  0  0  0  0  0  0  0  0  0  0  0
    1.9329    2.6123    9.2859 C   0  0  0  0  0  0  0  0  0  0  0  0
    2.6426    2.7555   10.4183 N   0  0  0  0  0  0  0  0  0  0  0  0
    2.1542    3.7911   11.0782 N   0  0  0  0  0  0  0  0  0  0  0  0
    2.5653    4.2965   12.2702 C   0  0  0  0  0  0  0  0  0  0  0  0
    1.9482    5.3536   12.7851 N   0  0  0  0  0  0  0  0  0  0  0  0
    0.9218    5.9168   12.1248 C   0  0  0  0  0  0  0  0  0  0  0  0
    0.5224    5.3960   10.9291 N   0  0  0  0  0  0  0  0  0  0  0  0
    1.1329    4.3389   10.4053 C   0  0  0  0  0  0  0  0  0  0  0  0
    1.0137    3.5866    9.2910 N   0  0  0  0  0  0  0  0  0  0  0  0
    0.2881    7.0386   12.6997 N   0  0  0  0  0  0  0  0  0  0  0  0
    0.7596    7.5584   13.9516 C   0  0  0  0  0  0  0  0  0  0  0  0
    1.8726    8.5528   13.8439 C   0  0  0  0  0  0  0  0  0  0  0  0
    2.6319    8.7524   15.1010 C   0  0  0  0  0  0  0  0  0  0  0  0
    3.8305    8.0787   15.3294 C   0  0  0  0  0  0  0  0  0  0  0  0
    4.5613    8.2297   16.4793 C   0  0  0  0  0  0  0  0  0  0  0  0
    4.0847    9.0886   17.4518 C   0  0  0  0  0  0  0  0  0  0  0  0
    2.9153    9.7705   17.2734 C   0  0  0  0  0  0  0  0  0  0  0  0
    2.1972    9.5972   16.0989 C   0  0  0  0  0  0  0  0  0  0  0  0
    4.8302    9.2304   18.6026 O   0  0  0  0  0  0  0  0  0  0  0  0
    3.6641    3.6951   12.9789 N   0  0  0  0  0  0  0  0  0  0  0  0
  1  2  2  0
  2  3  1  0
  3  4  1  0
  4  5  2  0
  4  6  1  0
  6  7  2  0
  7  8  1  0
  8  9  1  0
  9 10  2  0
 10 11  1  0
 11 12  2  0
 12 13  1  0
 13 14  2  0
 11 15  1  0
 15 16  1  0
 16 17  1  0
 17 18  1  0
 18 19  2  0
 19 20  1  0
 20 21  2  0
 21 22  1  0
 22 23  2  0
 21 24  1  0
  9 25  1  0
  5  1  1  0
 14  6  1  0
 13  8  1  0
 23 18  1  0
M  END
$$$$
