
     RDKit          3D

 25 28  0  0  0  0  0  0  0  0999 V2000
    0.4991    0.5648    7.2141 C   0  0  0  0  0  0  0  0  0  0  0  0
    1.6225   -0.0350    7.7547 C   0  0  0  0  0  0  0  0  0  0  0  0
    2.1519    0.7851    8.6314 O   0  0  0  0  0  0  0  0  0  0  0  0
    1.4594    1.8956    8.7160 C   0  0  0  0  0  0  0  0  0  0  0  0
    0.4154    1.7920    7.8408 C   0  0  0  0  0  0  0  0  0  0  0  0
    1.7835    3.0280    9.6082 C   0  0  0  0  0  0  0  0  0  0  0  0
    2.5877    2.9832   10.6843 N   0  0  0  0  0  0  0  0  0  0  0  0
    2.6250    4.1921   11.2169 N   0  0  0  0  0  0  0  0  0  0  0  0
    3.3107    4.6049   12.3143 C   0  0  0  0  0  0  0  0  0  0  0  0
    3.2270    5.8712   12.7052 N   0  0  0  0  0  0  0  0  0  0  0  0
    2.4652    6.7361   12.0136 C   0  0  0  0  0  0  0  0  0  0  0  0
    1.7835    6.3042   10.9141 N   0  0  0  0  0  0  0  0  0  0  0  0
    1.8604    5.0397   10.5147 C   0  0  0  0  0  0  0  0  0  0  0  0
    1.3460    4.2908    9.5164 N   0  0  0  0  0  0  0  0  0  0  0  0
    2.3981    8.0742   12.4558 N   0  0  0  0  0  0  0  0  0  0  0  0
    2.0697    8.3560   13.8243 C   0  0  0  0  0  0  0  0  0  0  0  0
    0.6452    8.0930   14.1992 C   0  0  0  0  0  0  0  0  0  0  0  0
    0.3085    8.4552   15.5963 C   0  0  0  0  0  0  0  0  0  0  0  0
    1.3024    8.5699   16.5668 C   0  0  0  0  0  0  0  0  0  0  0  0
    1.0346    8.8971   17.8707 C   0  0  0  0  0  0  0  0  0  0  0  0
   -0.2798    9.1222   18.2344 C   0  0  0  0  0  0  0  0  0  0  0  0
   -1.2878    9.0215   17.3189 C   0  0  0  0  0  0  0  0  0  0  0  0
   -0.9862    8.6885   16.0062 C   0  0  0  0  0  0  0  0  0  0  0  0
   -0.5338    9.4504   19.5489 O   0  0  0  0  0  0  0  0  0  0  0  0
    4.1270    3.6806   13.0563 N   0  0  0  0  0  0  0  0  0  0  0  0
  1  2  2  0
  2  3  1  0
  3  4  1  0
  4  5  2  0
  4  6  1  0
  6  7  2  0
  7  8  1  0
  8  9  1  0
  9 10  2  0
 10 11  1  0
 11 12  2  0
 12 13  1  0
 13 14  2  0
 11 15  1  0
 15 16  1  0
 16 17  1  0
 17 18  1  0
 18 19  2  0
 19 20  1  0
 20 21  2  0
 21 22  1  0
 22 23  2  0
 21 24  1  0
  9 25  1  0
  5  1  1  0
 14  6  1  0
 13  8  1  0
 23 18  1  0
M  END
$$$$
