
     RDKit          3D

 25 28  0  0  0  0  0  0  0  0999 V2000
    1.9767    1.0677    6.4176 C   0  0  0  0  0  0  0  0  0  0  0  0
    3.1740    0.6273    6.9528 C   0  0  0  0  0  0  0  0  0  0  0  0
    3.3610    1.2265    8.1050 O   0  0  0  0  0  0  0  0  0  0  0  0
    2.3696    2.0398    8.3796 C   0  0  0  0  0  0  0  0  0  0  0  0
    1.4829    1.9655    7.3427 C   0  0  0  0  0  0  0  0  0  0  0  0
    2.2684    2.8677    9.5993 C   0  0  0  0  0  0  0  0  0  0  0  0
    3.1127    2.8434   10.6450 N   0  0  0  0  0  0  0  0  0  0  0  0
    2.6872    3.7240   11.5339 N   0  0  0  0  0  0  0  0  0  0  0  0
    3.2341    4.0317   12.7386 C   0  0  0  0  0  0  0  0  0  0  0  0
    2.6622    4.9528   13.5052 N   0  0  0  0  0  0  0  0  0  0  0  0
    1.5469    5.5746   13.0855 C   0  0  0  0  0  0  0  0  0  0  0  0
    1.0115    5.2529   11.8729 N   0  0  0  0  0  0  0  0  0  0  0  0
    1.5757    4.3331   11.0984 C   0  0  0  0  0  0  0  0  0  0  0  0
    1.3340    3.7824    9.8900 N   0  0  0  0  0  0  0  0  0  0  0  0
    0.9645    6.5481   13.9243 N   0  0  0  0  0  0  0  0  0  0  0  0
    0.7697    7.8836   13.4361 C   0  0  0  0  0  0  0  0  0  0  0  0
    1.8111    8.8702   13.8618 C   0  0  0  0  0  0  0  0  0  0  0  0
    1.5021   10.2735   13.4989 C   0  0  0  0  0  0  0  0  0  0  0  0
    0.3243   10.5979   12.8277 C   0  0  0  0  0  0  0  0  0  0  0  0
    0.0021   11.8810   12.4686 C   0  0  0  0  0  0  0  0  0  0  0  0
    0.8867   12.8939   12.7881 C   0  0  0  0  0  0  0  0  0  0  0  0
    2.0531   12.6250   13.4450 C   0  0  0  0  0  0  0  0  0  0  0  0
    2.3524   11.3164   13.7956 C   0  0  0  0  0  0  0  0  0  0  0  0
    0.5493   14.1789   12.4207 O   0  0  0  0  0  0  0  0  0  0  0  0
    4.4283    3.3674   13.1900 N   0  0  0  0  0  0  0  0  0  0  0  0
  1  2  2  0
  2  3  1  0
  3  4  1  0
  4  5  2  0
  4  6  1  0
  6  7  2  0
  7  8  1  0
  8  9  1  0
  9 10  2  0
 10 11  1  0
 11 12  2  0
 12 13  1  0
 13 14  2  0
 11 15  1  0
 15 16  1  0
 16 17  1  0
 17 18  1  0
 18 19  2  0
 19 20  1  0
 20 21  2  0
 21 22  1  0
 22 23  2  0
 21 24  1  0
  9 25  1  0
  5  1  1  0
 14  6  1  0
 13  8  1  0
 23 18  1  0
M  END
$$$$
