
     RDKit          3D

 25 28  0  0  0  0  0  0  0  0999 V2000
    1.7978    0.4621    6.3248 C   0  0  0  0  0  0  0  0  0  0  0  0
    3.0184    0.1379    6.8897 C   0  0  0  0  0  0  0  0  0  0  0  0
    3.2153    0.9129    7.9300 O   0  0  0  0  0  0  0  0  0  0  0  0
    2.2088    1.7359    8.1018 C   0  0  0  0  0  0  0  0  0  0  0  0
    1.3012    1.4811    7.1128 C   0  0  0  0  0  0  0  0  0  0  0  0
    2.1131    2.7405    9.1811 C   0  0  0  0  0  0  0  0  0  0  0  0
    2.9051    2.8166   10.2644 N   0  0  0  0  0  0  0  0  0  0  0  0
    2.5052    3.8453   10.9912 N   0  0  0  0  0  0  0  0  0  0  0  0
    3.0180    4.2921   12.1671 C   0  0  0  0  0  0  0  0  0  0  0  0
    2.4806    5.3523   12.7592 N   0  0  0  0  0  0  0  0  0  0  0  0
    1.4337    5.9764   12.1924 C   0  0  0  0  0  0  0  0  0  0  0  0
    0.9318    5.5141   11.0115 N   0  0  0  0  0  0  0  0  0  0  0  0
    1.4620    4.4545   10.4110 C   0  0  0  0  0  0  0  0  0  0  0  0
    1.2358    3.7475    9.2837 N   0  0  0  0  0  0  0  0  0  0  0  0
    0.8865    7.0998   12.8476 N   0  0  0  0  0  0  0  0  0  0  0  0
    1.3415    7.4476   14.1637 C   0  0  0  0  0  0  0  0  0  0  0  0
    2.7675    7.8942   14.2417 C   0  0  0  0  0  0  0  0  0  0  0  0
    3.1339    8.5330   15.5278 C   0  0  0  0  0  0  0  0  0  0  0  0
    4.4337    8.9783   15.7628 C   0  0  0  0  0  0  0  0  0  0  0  0
    4.8164    9.5691   16.9390 C   0  0  0  0  0  0  0  0  0  0  0  0
    3.8686    9.7280   17.9325 C   0  0  0  0  0  0  0  0  0  0  0  0
    2.5826    9.3076   17.7487 C   0  0  0  0  0  0  0  0  0  0  0  0
    2.2246    8.7129   16.5474 C   0  0  0  0  0  0  0  0  0  0  0  0
    4.2679   10.3237   19.1097 O   0  0  0  0  0  0  0  0  0  0  0  0
    4.1388    3.6254   12.7757 N   0  0  0  0  0  0  0  0  0  0  0  0
  1  2  2  0
  2  3  1  0
  3  4  1  0
  4  5  2  0
  4  6  1  0
  6  7  2  0
  7  8  1  0
  8  9  1  0
  9 10  2  0
 10 11  1  0
 11 12  2  0
 12 13  1  0
 13 14  2  0
 11 15  1  0
 15 16  1  0
 16 17  1  0
 17 18  1  0
 18 19  2  0
 19 20  1  0
 20 21  2  0
 21 22  1  0
 22 23  2  0
 21 24  1  0
  9 25  1  0
  5  1  1  0
 14  6  1  0
 13  8  1  0
 23 18  1  0
M  END
$$$$
