
     RDKit          3D

 25 28  0  0  0  0  0  0  0  0999 V2000
    0.8007    0.7270    8.0847 C   0  0  0  0  0  0  0  0  0  0  0  0
    2.1562    0.4656    8.1760 C   0  0  0  0  0  0  0  0  0  0  0  0
    2.7226    1.4337    8.8569 O   0  0  0  0  0  0  0  0  0  0  0  0
    1.8384    2.3278    9.2291 C   0  0  0  0  0  0  0  0  0  0  0  0
    0.6220    1.9167    8.7620 C   0  0  0  0  0  0  0  0  0  0  0  0
    2.1436    3.5442   10.0106 C   0  0  0  0  0  0  0  0  0  0  0  0
    3.2963    3.8054   10.6507 N   0  0  0  0  0  0  0  0  0  0  0  0
    3.1822    4.9871   11.2314 N   0  0  0  0  0  0  0  0  0  0  0  0
    4.1027    5.6455   11.9826 C   0  0  0  0  0  0  0  0  0  0  0  0
    3.8081    6.8367   12.4900 N   0  0  0  0  0  0  0  0  0  0  0  0
    2.6024    7.3835   12.2578 C   0  0  0  0  0  0  0  0  0  0  0  0
    1.6903    6.7082   11.5013 N   0  0  0  0  0  0  0  0  0  0  0  0
    1.9749    5.5161   10.9891 C   0  0  0  0  0  0  0  0  0  0  0  0
    1.3452    4.5980   10.2258 N   0  0  0  0  0  0  0  0  0  0  0  0
    2.3216    8.6504   12.8116 N   0  0  0  0  0  0  0  0  0  0  0  0
    1.3012    8.7792   13.8127 C   0  0  0  0  0  0  0  0  0  0  0  0
    1.7495    9.4072   15.0948 C   0  0  0  0  0  0  0  0  0  0  0  0
    1.3759    8.6427   16.3082 C   0  0  0  0  0  0  0  0  0  0  0  0
    1.8674    9.0022   17.5620 C   0  0  0  0  0  0  0  0  0  0  0  0
    1.5519    8.3200   18.7083 C   0  0  0  0  0  0  0  0  0  0  0  0
    0.7092    7.2285   18.6117 C   0  0  0  0  0  0  0  0  0  0  0  0
    0.2027    6.8382   17.4054 C   0  0  0  0  0  0  0  0  0  0  0  0
    0.5399    7.5483   16.2620 C   0  0  0  0  0  0  0  0  0  0  0  0
    0.4008    6.5524   19.7726 O   0  0  0  0  0  0  0  0  0  0  0  0
    5.3943    5.0620   12.2325 N   0  0  0  0  0  0  0  0  0  0  0  0
  1  2  2  0
  2  3  1  0
  3  4  1  0
  4  5  2  0
  4  6  1  0
  6  7  2  0
  7  8  1  0
  8  9  1  0
  9 10  2  0
 10 11  1  0
 11 12  2  0
 12 13  1  0
 13 14  2  0
 11 15  1  0
 15 16  1  0
 16 17  1  0
 17 18  1  0
 18 19  2  0
 19 20  1  0
 20 21  2  0
 21 22  1  0
 22 23  2  0
 21 24  1  0
  9 25  1  0
  5  1  1  0
 14  6  1  0
 13  8  1  0
 23 18  1  0
M  END
$$$$
