
     RDKit          3D

 25 28  0  0  0  0  0  0  0  0999 V2000
    2.2542    0.0053    6.5782 C   0  0  0  0  0  0  0  0  0  0  0  0
    3.4066   -0.2400    7.3034 C   0  0  0  0  0  0  0  0  0  0  0  0
    3.4632    0.6144    8.2976 O   0  0  0  0  0  0  0  0  0  0  0  0
    2.4262    1.4171    8.2888 C   0  0  0  0  0  0  0  0  0  0  0  0
    1.6467    1.0636    7.2238 C   0  0  0  0  0  0  0  0  0  0  0  0
    2.1828    2.4945    9.2703 C   0  0  0  0  0  0  0  0  0  0  0  0
    2.8521    2.6837   10.4205 N   0  0  0  0  0  0  0  0  0  0  0  0
    2.3431    3.7463   11.0191 N   0  0  0  0  0  0  0  0  0  0  0  0
    2.7127    4.3002   12.2031 C   0  0  0  0  0  0  0  0  0  0  0  0
    2.0804    5.3784   12.6514 N   0  0  0  0  0  0  0  0  0  0  0  0
    1.0796    5.9149   11.9321 C   0  0  0  0  0  0  0  0  0  0  0  0
    0.7219    5.3455   10.7455 N   0  0  0  0  0  0  0  0  0  0  0  0
    1.3479    4.2669   10.2880 C   0  0  0  0  0  0  0  0  0  0  0  0
    1.2665    3.4692    9.2022 N   0  0  0  0  0  0  0  0  0  0  0  0
    0.4288    7.0603   12.4371 N   0  0  0  0  0  0  0  0  0  0  0  0
    0.8392    7.6155   13.6953 C   0  0  0  0  0  0  0  0  0  0  0  0
    2.1099    8.4046   13.6533 C   0  0  0  0  0  0  0  0  0  0  0  0
    2.8665    8.4049   14.9277 C   0  0  0  0  0  0  0  0  0  0  0  0
    2.3164    8.9465   16.0882 C   0  0  0  0  0  0  0  0  0  0  0  0
    2.9831    8.9722   17.2856 C   0  0  0  0  0  0  0  0  0  0  0  0
    4.2562    8.4366   17.3397 C   0  0  0  0  0  0  0  0  0  0  0  0
    4.8370    7.8949   16.2291 C   0  0  0  0  0  0  0  0  0  0  0  0
    4.1377    7.8831   15.0308 C   0  0  0  0  0  0  0  0  0  0  0  0
    4.9143    8.4695   18.5505 O   0  0  0  0  0  0  0  0  0  0  0  0
    3.7839    3.7275   12.9749 N   0  0  0  0  0  0  0  0  0  0  0  0
  1  2  2  0
  2  3  1  0
  3  4  1  0
  4  5  2  0
  4  6  1  0
  6  7  2  0
  7  8  1  0
  8  9  1  0
  9 10  2  0
 10 11  1  0
 11 12  2  0
 12 13  1  0
 13 14  2  0
 11 15  1  0
 15 16  1  0
 16 17  1  0
 17 18  1  0
 18 19  2  0
 19 20  1  0
 20 21  2  0
 21 22  1  0
 22 23  2  0
 21 24  1  0
  9 25  1  0
  5  1  1  0
 14  6  1  0
 13  8  1  0
 23 18  1  0
M  END
$$$$
