
     RDKit          3D

 25 28  0  0  0  0  0  0  0  0999 V2000
    1.8159    0.0968    6.7316 C   0  0  0  0  0  0  0  0  0  0  0  0
    3.0240   -0.1836    7.3446 C   0  0  0  0  0  0  0  0  0  0  0  0
    3.2317    0.7084    8.2842 O   0  0  0  0  0  0  0  0  0  0  0  0
    2.2440    1.5691    8.3434 C   0  0  0  0  0  0  0  0  0  0  0  0
    1.3380    1.2159    7.3836 C   0  0  0  0  0  0  0  0  0  0  0  0
    2.1644    2.7005    9.2905 C   0  0  0  0  0  0  0  0  0  0  0  0
    2.9712    2.9084   10.3453 N   0  0  0  0  0  0  0  0  0  0  0  0
    2.5826    4.0208   10.9437 N   0  0  0  0  0  0  0  0  0  0  0  0
    3.1119    4.6088   12.0479 C   0  0  0  0  0  0  0  0  0  0  0  0
    2.5841    5.7360   12.5105 N   0  0  0  0  0  0  0  0  0  0  0  0
    1.5306    6.2881   11.8845 C   0  0  0  0  0  0  0  0  0  0  0  0
    1.0120    5.6839   10.7771 N   0  0  0  0  0  0  0  0  0  0  0  0
    1.5324    4.5562   10.3061 C   0  0  0  0  0  0  0  0  0  0  0  0
    1.2899    3.7152    9.2786 N   0  0  0  0  0  0  0  0  0  0  0  0
    0.9939    7.4858   12.4021 N   0  0  0  0  0  0  0  0  0  0  0  0
    1.6609    8.1566   13.4815 C   0  0  0  0  0  0  0  0  0  0  0  0
    1.2234    7.7404   14.8506 C   0  0  0  0  0  0  0  0  0  0  0  0
    2.2520    7.9306   15.9004 C   0  0  0  0  0  0  0  0  0  0  0  0
    3.4643    8.5549   15.6119 C   0  0  0  0  0  0  0  0  0  0  0  0
    4.4446    8.7462   16.5507 C   0  0  0  0  0  0  0  0  0  0  0  0
    4.2164    8.2986   17.8385 C   0  0  0  0  0  0  0  0  0  0  0  0
    3.0444    7.6812   18.1690 C   0  0  0  0  0  0  0  0  0  0  0  0
    2.0704    7.5015   17.1972 C   0  0  0  0  0  0  0  0  0  0  0  0
    5.2110    8.4979   18.7718 O   0  0  0  0  0  0  0  0  0  0  0  0
    4.2400    4.0195   12.7198 N   0  0  0  0  0  0  0  0  0  0  0  0
  1  2  2  0
  2  3  1  0
  3  4  1  0
  4  5  2  0
  4  6  1  0
  6  7  2  0
  7  8  1  0
  8  9  1  0
  9 10  2  0
 10 11  1  0
 11 12  2  0
 12 13  1  0
 13 14  2  0
 11 15  1  0
 15 16  1  0
 16 17  1  0
 17 18  1  0
 18 19  2  0
 19 20  1  0
 20 21  2  0
 21 22  1  0
 22 23  2  0
 21 24  1  0
  9 25  1  0
  5  1  1  0
 14  6  1  0
 13  8  1  0
 23 18  1  0
M  END
$$$$
