
     RDKit          3D

 25 28  0  0  0  0  0  0  0  0999 V2000
    2.7536   -0.1934    7.3498 C   0  0  0  0  0  0  0  0  0  0  0  0
    2.4372    0.7476    6.3862 C   0  0  0  0  0  0  0  0  0  0  0  0
    2.2191    1.8965    6.9812 O   0  0  0  0  0  0  0  0  0  0  0  0
    2.3677    1.7903    8.2798 C   0  0  0  0  0  0  0  0  0  0  0  0
    2.7032    0.4930    8.5466 C   0  0  0  0  0  0  0  0  0  0  0  0
    2.1948    2.8968    9.2437 C   0  0  0  0  0  0  0  0  0  0  0  0
    1.7451    4.1313    8.9596 N   0  0  0  0  0  0  0  0  0  0  0  0
    1.7329    4.8297   10.0815 N   0  0  0  0  0  0  0  0  0  0  0  0
    1.3526    6.1211   10.2621 C   0  0  0  0  0  0  0  0  0  0  0  0
    1.4085    6.6606   11.4742 N   0  0  0  0  0  0  0  0  0  0  0  0
    1.8403    5.9267   12.5141 C   0  0  0  0  0  0  0  0  0  0  0  0
    2.2182    4.6314   12.3144 N   0  0  0  0  0  0  0  0  0  0  0  0
    2.1662    4.0822   11.1061 C   0  0  0  0  0  0  0  0  0  0  0  0
    2.4482    2.8810   10.5589 N   0  0  0  0  0  0  0  0  0  0  0  0
    1.8874    6.5302   13.7885 N   0  0  0  0  0  0  0  0  0  0  0  0
    1.5889    7.9274   13.9257 C   0  0  0  0  0  0  0  0  0  0  0  0
    2.6817    8.7503   14.5322 C   0  0  0  0  0  0  0  0  0  0  0  0
    3.0396    8.3586   15.9161 C   0  0  0  0  0  0  0  0  0  0  0  0
    4.2765    8.6996   16.4607 C   0  0  0  0  0  0  0  0  0  0  0  0
    4.6500    8.3530   17.7332 C   0  0  0  0  0  0  0  0  0  0  0  0
    3.7578    7.6340   18.5063 C   0  0  0  0  0  0  0  0  0  0  0  0
    2.5344    7.2769   18.0163 C   0  0  0  0  0  0  0  0  0  0  0  0
    2.1842    7.6419   16.7243 C   0  0  0  0  0  0  0  0  0  0  0  0
    4.1471    7.2927   19.7838 O   0  0  0  0  0  0  0  0  0  0  0  0
    0.8898    6.9089    9.1500 N   0  0  0  0  0  0  0  0  0  0  0  0
  1  2  2  0
  2  3  1  0
  3  4  1  0
  4  5  2  0
  4  6  1  0
  6  7  2  0
  7  8  1  0
  8  9  1  0
  9 10  2  0
 10 11  1  0
 11 12  2  0
 12 13  1  0
 13 14  2  0
 11 15  1  0
 15 16  1  0
 16 17  1  0
 17 18  1  0
 18 19  2  0
 19 20  1  0
 20 21  2  0
 21 22  1  0
 22 23  2  0
 21 24  1  0
  9 25  1  0
  5  1  1  0
 14  6  1  0
 13  8  1  0
 23 18  1  0
M  END
$$$$
