
     RDKit          3D

 25 28  0  0  0  0  0  0  0  0999 V2000
    2.9052    0.1695    6.5673 C   0  0  0  0  0  0  0  0  0  0  0  0
    1.8058    0.7829    5.9936 C   0  0  0  0  0  0  0  0  0  0  0  0
    1.4294    1.7728    6.7681 O   0  0  0  0  0  0  0  0  0  0  0  0
    2.2022    1.8655    7.8236 C   0  0  0  0  0  0  0  0  0  0  0  0
    3.1391    0.8753    7.7304 C   0  0  0  0  0  0  0  0  0  0  0  0
    2.0527    2.8720    8.8950 C   0  0  0  0  0  0  0  0  0  0  0  0
    2.8186    2.9775    9.9946 N   0  0  0  0  0  0  0  0  0  0  0  0
    2.3720    3.9972   10.7069 N   0  0  0  0  0  0  0  0  0  0  0  0
    2.8455    4.4651   11.8910 C   0  0  0  0  0  0  0  0  0  0  0  0
    2.2634    5.5113   12.4655 N   0  0  0  0  0  0  0  0  0  0  0  0
    1.2106    6.1005   11.8730 C   0  0  0  0  0  0  0  0  0  0  0  0
    0.7485    5.6172   10.6842 N   0  0  0  0  0  0  0  0  0  0  0  0
    1.3234    4.5713   10.1011 C   0  0  0  0  0  0  0  0  0  0  0  0
    1.1432    3.8523    8.9732 N   0  0  0  0  0  0  0  0  0  0  0  0
    0.6155    7.2098   12.5101 N   0  0  0  0  0  0  0  0  0  0  0  0
    1.0768    7.6179   13.8065 C   0  0  0  0  0  0  0  0  0  0  0  0
    2.3442    8.4133   13.8047 C   0  0  0  0  0  0  0  0  0  0  0  0
    2.6096    9.1350   15.0716 C   0  0  0  0  0  0  0  0  0  0  0  0
    3.2151    8.4921   16.1499 C   0  0  0  0  0  0  0  0  0  0  0  0
    3.4737    9.1199   17.3407 C   0  0  0  0  0  0  0  0  0  0  0  0
    3.1166   10.4487   17.4732 C   0  0  0  0  0  0  0  0  0  0  0  0
    2.5209   11.1207   16.4447 C   0  0  0  0  0  0  0  0  0  0  0  0
    2.2717   10.4587   15.2511 C   0  0  0  0  0  0  0  0  0  0  0  0
    3.3828   11.0668   18.6761 O   0  0  0  0  0  0  0  0  0  0  0  0
    3.9726    3.8359   12.5272 N   0  0  0  0  0  0  0  0  0  0  0  0
  1  2  2  0
  2  3  1  0
  3  4  1  0
  4  5  2  0
  4  6  1  0
  6  7  2  0
  7  8  1  0
  8  9  1  0
  9 10  2  0
 10 11  1  0
 11 12  2  0
 12 13  1  0
 13 14  2  0
 11 15  1  0
 15 16  1  0
 16 17  1  0
 17 18  1  0
 18 19  2  0
 19 20  1  0
 20 21  2  0
 21 22  1  0
 22 23  2  0
 21 24  1  0
  9 25  1  0
  5  1  1  0
 14  6  1  0
 13  8  1  0
 23 18  1  0
M  END
$$$$
