
     RDKit          3D

 25 28  0  0  0  0  0  0  0  0999 V2000
    1.7113    1.4444    6.3781 C   0  0  0  0  0  0  0  0  0  0  0  0
    2.8986    0.9082    6.8437 C   0  0  0  0  0  0  0  0  0  0  0  0
    3.1621    1.4344    8.0164 O   0  0  0  0  0  0  0  0  0  0  0  0
    2.2313    2.2880    8.3698 C   0  0  0  0  0  0  0  0  0  0  0  0
    1.3053    2.3195    7.3656 C   0  0  0  0  0  0  0  0  0  0  0  0
    2.2234    3.0553    9.6325 C   0  0  0  0  0  0  0  0  0  0  0  0
    3.1041    2.9307   10.6402 N   0  0  0  0  0  0  0  0  0  0  0  0
    2.7631    3.7854   11.5888 N   0  0  0  0  0  0  0  0  0  0  0  0
    3.3719    3.9996   12.7840 C   0  0  0  0  0  0  0  0  0  0  0  0
    2.8822    4.9091   13.6186 N   0  0  0  0  0  0  0  0  0  0  0  0
    1.7885    5.6115   13.2764 C   0  0  0  0  0  0  0  0  0  0  0  0
    1.1901    5.3831   12.0722 N   0  0  0  0  0  0  0  0  0  0  0  0
    1.6718    4.4758   11.2301 C   0  0  0  0  0  0  0  0  0  0  0  0
    1.3537    4.0030   10.0066 N   0  0  0  0  0  0  0  0  0  0  0  0
    1.2942    6.5700   14.1861 N   0  0  0  0  0  0  0  0  0  0  0  0
    0.8588    7.8500   13.7045 C   0  0  0  0  0  0  0  0  0  0  0  0
    1.8584    8.9538   13.8515 C   0  0  0  0  0  0  0  0  0  0  0  0
    1.4049   10.2586   13.3146 C   0  0  0  0  0  0  0  0  0  0  0  0
    0.1877   10.3749   12.6457 C   0  0  0  0  0  0  0  0  0  0  0  0
   -0.2670   11.5604   12.1291 C   0  0  0  0  0  0  0  0  0  0  0  0
    0.5195   12.6870   12.2806 C   0  0  0  0  0  0  0  0  0  0  0  0
    1.7197   12.6225   12.9283 C   0  0  0  0  0  0  0  0  0  0  0  0
    2.1539   11.4084   13.4407 C   0  0  0  0  0  0  0  0  0  0  0  0
    0.0494   13.8719   11.7560 O   0  0  0  0  0  0  0  0  0  0  0  0
    4.5431    3.2488   13.1524 N   0  0  0  0  0  0  0  0  0  0  0  0
  1  2  2  0
  2  3  1  0
  3  4  1  0
  4  5  2  0
  4  6  1  0
  6  7  2  0
  7  8  1  0
  8  9  1  0
  9 10  2  0
 10 11  1  0
 11 12  2  0
 12 13  1  0
 13 14  2  0
 11 15  1  0
 15 16  1  0
 16 17  1  0
 17 18  1  0
 18 19  2  0
 19 20  1  0
 20 21  2  0
 21 22  1  0
 22 23  2  0
 21 24  1  0
  9 25  1  0
  5  1  1  0
 14  6  1  0
 13  8  1  0
 23 18  1  0
M  END
$$$$
