
     RDKit          3D

 25 28  0  0  0  0  0  0  0  0999 V2000
    1.8723    0.2350    6.3186 C   0  0  0  0  0  0  0  0  0  0  0  0
    3.0483   -0.1304    6.9491 C   0  0  0  0  0  0  0  0  0  0  0  0
    3.2587    0.6932    7.9486 O   0  0  0  0  0  0  0  0  0  0  0  0
    2.3029    1.5873    8.0317 C   0  0  0  0  0  0  0  0  0  0  0  0
    1.4161    1.3300    7.0246 C   0  0  0  0  0  0  0  0  0  0  0  0
    2.2352    2.6607    9.0449 C   0  0  0  0  0  0  0  0  0  0  0  0
    3.0066    2.7648   10.1407 N   0  0  0  0  0  0  0  0  0  0  0  0
    2.6440    3.8553   10.7933 N   0  0  0  0  0  0  0  0  0  0  0  0
    3.1534    4.3485   11.9519 C   0  0  0  0  0  0  0  0  0  0  0  0
    2.6580    5.4687   12.4647 N   0  0  0  0  0  0  0  0  0  0  0  0
    1.6567    6.1074   11.8353 C   0  0  0  0  0  0  0  0  0  0  0  0
    1.1574    5.5978   10.6729 N   0  0  0  0  0  0  0  0  0  0  0  0
    1.6458    4.4779   10.1514 C   0  0  0  0  0  0  0  0  0  0  0  0
    1.4082    3.7142    9.0642 N   0  0  0  0  0  0  0  0  0  0  0  0
    1.1533    7.2950   12.4071 N   0  0  0  0  0  0  0  0  0  0  0  0
    1.5516    7.6705   13.7338 C   0  0  0  0  0  0  0  0  0  0  0  0
    2.9716    8.1245   13.8625 C   0  0  0  0  0  0  0  0  0  0  0  0
    3.3895    8.4236   15.2527 C   0  0  0  0  0  0  0  0  0  0  0  0
    2.9307    7.6544   16.3206 C   0  0  0  0  0  0  0  0  0  0  0  0
    3.2875    7.8994   17.6213 C   0  0  0  0  0  0  0  0  0  0  0  0
    4.1397    8.9565   17.8801 C   0  0  0  0  0  0  0  0  0  0  0  0
    4.6152    9.7383   16.8668 C   0  0  0  0  0  0  0  0  0  0  0  0
    4.2365    9.4661   15.5601 C   0  0  0  0  0  0  0  0  0  0  0  0
    4.4898    9.1907   19.1926 O   0  0  0  0  0  0  0  0  0  0  0  0
    4.2255    3.6664   12.6275 N   0  0  0  0  0  0  0  0  0  0  0  0
  1  2  2  0
  2  3  1  0
  3  4  1  0
  4  5  2  0
  4  6  1  0
  6  7  2  0
  7  8  1  0
  8  9  1  0
  9 10  2  0
 10 11  1  0
 11 12  2  0
 12 13  1  0
 13 14  2  0
 11 15  1  0
 15 16  1  0
 16 17  1  0
 17 18  1  0
 18 19  2  0
 19 20  1  0
 20 21  2  0
 21 22  1  0
 22 23  2  0
 21 24  1  0
  9 25  1  0
  5  1  1  0
 14  6  1  0
 13  8  1  0
 23 18  1  0
M  END
$$$$
