
     RDKit          3D

 25 28  0  0  0  0  0  0  0  0999 V2000
    6.3828    4.0684   16.0283 C   0  0  0  0  0  0  0  0  0  0  0  0
    6.5789    5.3781   15.6281 C   0  0  0  0  0  0  0  0  0  0  0  0
    5.7746    5.6317   14.6229 O   0  0  0  0  0  0  0  0  0  0  0  0
    5.0513    4.5801   14.3212 C   0  0  0  0  0  0  0  0  0  0  0  0
    5.4066    3.5808   15.1826 C   0  0  0  0  0  0  0  0  0  0  0  0
    4.0464    4.5275   13.2393 C   0  0  0  0  0  0  0  0  0  0  0  0
    3.6571    5.5583   12.4694 N   0  0  0  0  0  0  0  0  0  0  0  0
    2.7464    5.1136   11.6214 N   0  0  0  0  0  0  0  0  0  0  0  0
    2.0819    5.8091   10.6623 C   0  0  0  0  0  0  0  0  0  0  0  0
    1.1924    5.1886    9.8961 N   0  0  0  0  0  0  0  0  0  0  0  0
    0.9549    3.8776   10.0736 C   0  0  0  0  0  0  0  0  0  0  0  0
    1.6314    3.1949   11.0414 N   0  0  0  0  0  0  0  0  0  0  0  0
    2.5231    3.8061   11.8132 C   0  0  0  0  0  0  0  0  0  0  0  0
    3.3453    3.4631   12.8272 N   0  0  0  0  0  0  0  0  0  0  0  0
    0.0037    3.2489    9.2426 N   0  0  0  0  0  0  0  0  0  0  0  0
   -0.3993    3.8799    8.0181 C   0  0  0  0  0  0  0  0  0  0  0  0
    0.6537    3.9285    6.9561 C   0  0  0  0  0  0  0  0  0  0  0  0
    1.2365    2.6084    6.6183 C   0  0  0  0  0  0  0  0  0  0  0  0
    2.6171    2.4184    6.5963 C   0  0  0  0  0  0  0  0  0  0  0  0
    3.1978    1.2166    6.2842 C   0  0  0  0  0  0  0  0  0  0  0  0
    2.3741    0.1493    5.9787 C   0  0  0  0  0  0  0  0  0  0  0  0
    1.0158    0.2870    5.9870 C   0  0  0  0  0  0  0  0  0  0  0  0
    0.4567    1.5159    6.3068 C   0  0  0  0  0  0  0  0  0  0  0  0
    2.9722   -1.0528    5.6669 O   0  0  0  0  0  0  0  0  0  0  0  0
    2.3345    7.2129   10.4704 N   0  0  0  0  0  0  0  0  0  0  0  0
  1  2  2  0
  2  3  1  0
  3  4  1  0
  4  5  2  0
  4  6  1  0
  6  7  2  0
  7  8  1  0
  8  9  1  0
  9 10  2  0
 10 11  1  0
 11 12  2  0
 12 13  1  0
 13 14  2  0
 11 15  1  0
 15 16  1  0
 16 17  1  0
 17 18  1  0
 18 19  2  0
 19 20  1  0
 20 21  2  0
 21 22  1  0
 22 23  2  0
 21 24  1  0
  9 25  1  0
  5  1  1  0
 14  6  1  0
 13  8  1  0
 23 18  1  0
M  END
$$$$
