
     RDKit          3D

 25 28  0  0  0  0  0  0  0  0999 V2000
    1.3675    1.7933    5.1698 C   0  0  0  0  0  0  0  0  0  0  0  0
    2.0122    0.7220    5.7620 C   0  0  0  0  0  0  0  0  0  0  0  0
    2.1510    0.9747    7.0420 O   0  0  0  0  0  0  0  0  0  0  0  0
    1.6427    2.1439    7.3494 C   0  0  0  0  0  0  0  0  0  0  0  0
    1.1424    2.6855    6.1990 C   0  0  0  0  0  0  0  0  0  0  0  0
    1.6333    2.7316    8.7050 C   0  0  0  0  0  0  0  0  0  0  0  0
    2.1039    2.1517    9.8226 N   0  0  0  0  0  0  0  0  0  0  0  0
    1.9163    2.9894   10.8274 N   0  0  0  0  0  0  0  0  0  0  0  0
    2.2395    2.8170   12.1354 C   0  0  0  0  0  0  0  0  0  0  0  0
    1.9723    3.7781   13.0119 N   0  0  0  0  0  0  0  0  0  0  0  0
    1.3843    4.9146   12.6004 C   0  0  0  0  0  0  0  0  0  0  0  0
    1.0667    5.0706   11.2831 N   0  0  0  0  0  0  0  0  0  0  0  0
    1.3297    4.1154   10.3983 C   0  0  0  0  0  0  0  0  0  0  0  0
    1.1632    3.9312    9.0716 N   0  0  0  0  0  0  0  0  0  0  0  0
    1.1143    5.9156   13.5572 N   0  0  0  0  0  0  0  0  0  0  0  0
    1.3164    7.2959   13.2197 C   0  0  0  0  0  0  0  0  0  0  0  0
    2.4806    7.5619   12.3180 C   0  0  0  0  0  0  0  0  0  0  0  0
    3.4366    8.5661   12.8415 C   0  0  0  0  0  0  0  0  0  0  0  0
    4.7170    8.6858   12.3039 C   0  0  0  0  0  0  0  0  0  0  0  0
    5.6337    9.5965   12.7613 C   0  0  0  0  0  0  0  0  0  0  0  0
    5.2679   10.4305   13.8012 C   0  0  0  0  0  0  0  0  0  0  0  0
    4.0248   10.3505   14.3601 C   0  0  0  0  0  0  0  0  0  0  0  0
    3.1179    9.4186   13.8761 C   0  0  0  0  0  0  0  0  0  0  0  0
    6.2000   11.3411   14.2505 O   0  0  0  0  0  0  0  0  0  0  0  0
    2.8691    1.6010   12.5783 N   0  0  0  0  0  0  0  0  0  0  0  0
  1  2  2  0
  2  3  1  0
  3  4  1  0
  4  5  2  0
  4  6  1  0
  6  7  2  0
  7  8  1  0
  8  9  1  0
  9 10  2  0
 10 11  1  0
 11 12  2  0
 12 13  1  0
 13 14  2  0
 11 15  1  0
 15 16  1  0
 16 17  1  0
 17 18  1  0
 18 19  2  0
 19 20  1  0
 20 21  2  0
 21 22  1  0
 22 23  2  0
 21 24  1  0
  9 25  1  0
  5  1  1  0
 14  6  1  0
 13  8  1  0
 23 18  1  0
M  END
$$$$
