
     RDKit          3D

 25 28  0  0  0  0  0  0  0  0999 V2000
    2.3185    0.0765    6.4281 C   0  0  0  0  0  0  0  0  0  0  0  0
    3.4854   -0.1730    7.1280 C   0  0  0  0  0  0  0  0  0  0  0  0
    3.5429    0.6489    8.1492 O   0  0  0  0  0  0  0  0  0  0  0  0
    2.4927    1.4337    8.1821 C   0  0  0  0  0  0  0  0  0  0  0  0
    1.7034    1.1025    7.1172 C   0  0  0  0  0  0  0  0  0  0  0  0
    2.2463    2.4738    9.2024 C   0  0  0  0  0  0  0  0  0  0  0  0
    2.9360    2.6423   10.3437 N   0  0  0  0  0  0  0  0  0  0  0  0
    2.4161    3.6734   10.9865 N   0  0  0  0  0  0  0  0  0  0  0  0
    2.7987    4.1983   12.1795 C   0  0  0  0  0  0  0  0  0  0  0  0
    2.1519    5.2469   12.6751 N   0  0  0  0  0  0  0  0  0  0  0  0
    1.1238    5.7821   11.9945 C   0  0  0  0  0  0  0  0  0  0  0  0
    0.7534    5.2421   10.7981 N   0  0  0  0  0  0  0  0  0  0  0  0
    1.3936    4.1933   10.2934 C   0  0  0  0  0  0  0  0  0  0  0  0
    1.3069    3.4284    9.1847 N   0  0  0  0  0  0  0  0  0  0  0  0
    0.4582    6.8955   12.5493 N   0  0  0  0  0  0  0  0  0  0  0  0
    0.8976    7.4344   13.8049 C   0  0  0  0  0  0  0  0  0  0  0  0
    2.1078    8.3111   13.7274 C   0  0  0  0  0  0  0  0  0  0  0  0
    2.8411    8.4479   15.0080 C   0  0  0  0  0  0  0  0  0  0  0  0
    2.1961    8.8961   16.1595 C   0  0  0  0  0  0  0  0  0  0  0  0
    2.8372    9.0422   17.3622 C   0  0  0  0  0  0  0  0  0  0  0  0
    4.1821    8.7304   17.4313 C   0  0  0  0  0  0  0  0  0  0  0  0
    4.8568    8.2877   16.3299 C   0  0  0  0  0  0  0  0  0  0  0  0
    4.1812    8.1497   15.1259 C   0  0  0  0  0  0  0  0  0  0  0  0
    4.8134    8.8821   18.6472 O   0  0  0  0  0  0  0  0  0  0  0  0
    3.8992    3.6269   12.9099 N   0  0  0  0  0  0  0  0  0  0  0  0
  1  2  2  0
  2  3  1  0
  3  4  1  0
  4  5  2  0
  4  6  1  0
  6  7  2  0
  7  8  1  0
  8  9  1  0
  9 10  2  0
 10 11  1  0
 11 12  2  0
 12 13  1  0
 13 14  2  0
 11 15  1  0
 15 16  1  0
 16 17  1  0
 17 18  1  0
 18 19  2  0
 19 20  1  0
 20 21  2  0
 21 22  1  0
 22 23  2  0
 21 24  1  0
  9 25  1  0
  5  1  1  0
 14  6  1  0
 13  8  1  0
 23 18  1  0
M  END
$$$$
