
     RDKit          3D

 25 28  0  0  0  0  0  0  0  0999 V2000
    5.4432    7.2527   16.0963 C   0  0  0  0  0  0  0  0  0  0  0  0
    6.1216    6.0854   15.7947 C   0  0  0  0  0  0  0  0  0  0  0  0
    5.4829    5.4699   14.8279 O   0  0  0  0  0  0  0  0  0  0  0  0
    4.4209    6.1456   14.4598 C   0  0  0  0  0  0  0  0  0  0  0  0
    4.3648    7.2697   15.2345 C   0  0  0  0  0  0  0  0  0  0  0  0
    3.4820    5.7315   13.3966 C   0  0  0  0  0  0  0  0  0  0  0  0
    3.5395    4.5893   12.6904 N   0  0  0  0  0  0  0  0  0  0  0  0
    2.5296    4.5849   11.8380 N   0  0  0  0  0  0  0  0  0  0  0  0
    2.2014    3.6289   10.9305 C   0  0  0  0  0  0  0  0  0  0  0  0
    1.1404    3.7985   10.1501 N   0  0  0  0  0  0  0  0  0  0  0  0
    0.3983    4.9135   10.2625 C   0  0  0  0  0  0  0  0  0  0  0  0
    0.7426    5.8629   11.1792 N   0  0  0  0  0  0  0  0  0  0  0  0
    1.8019    5.7031   11.9646 C   0  0  0  0  0  0  0  0  0  0  0  0
    2.4153    6.4025   12.9426 N   0  0  0  0  0  0  0  0  0  0  0  0
   -0.7222    5.0623    9.4182 N   0  0  0  0  0  0  0  0  0  0  0  0
   -0.9666    4.0983    8.3834 C   0  0  0  0  0  0  0  0  0  0  0  0
   -0.1490    4.2812    7.1436 C   0  0  0  0  0  0  0  0  0  0  0  0
    0.3456    3.0162    6.5506 C   0  0  0  0  0  0  0  0  0  0  0  0
    1.2889    3.0258    5.5245 C   0  0  0  0  0  0  0  0  0  0  0  0
    1.7689    1.8803    4.9446 C   0  0  0  0  0  0  0  0  0  0  0  0
    1.2938    0.6650    5.4005 C   0  0  0  0  0  0  0  0  0  0  0  0
    0.3693    0.6050    6.4034 C   0  0  0  0  0  0  0  0  0  0  0  0
   -0.0983    1.7814    6.9713 C   0  0  0  0  0  0  0  0  0  0  0  0
    1.7855   -0.4783    4.8079 O   0  0  0  0  0  0  0  0  0  0  0  0
    2.9945    2.4342   10.8085 N   0  0  0  0  0  0  0  0  0  0  0  0
  1  2  2  0
  2  3  1  0
  3  4  1  0
  4  5  2  0
  4  6  1  0
  6  7  2  0
  7  8  1  0
  8  9  1  0
  9 10  2  0
 10 11  1  0
 11 12  2  0
 12 13  1  0
 13 14  2  0
 11 15  1  0
 15 16  1  0
 16 17  1  0
 17 18  1  0
 18 19  2  0
 19 20  1  0
 20 21  2  0
 21 22  1  0
 22 23  2  0
 21 24  1  0
  9 25  1  0
  5  1  1  0
 14  6  1  0
 13  8  1  0
 23 18  1  0
M  END
$$$$
