
     RDKit          3D

 25 28  0  0  0  0  0  0  0  0999 V2000
    1.8162    0.3435    6.6236 C   0  0  0  0  0  0  0  0  0  0  0  0
    3.0564    0.1166    7.1930 C   0  0  0  0  0  0  0  0  0  0  0  0
    3.2543    1.0118    8.1316 O   0  0  0  0  0  0  0  0  0  0  0  0
    2.2301    1.8248    8.2308 C   0  0  0  0  0  0  0  0  0  0  0  0
    1.3091    1.4350    7.2998 C   0  0  0  0  0  0  0  0  0  0  0  0
    2.1301    2.9456    9.1885 C   0  0  0  0  0  0  0  0  0  0  0  0
    2.9380    3.1624   10.2407 N   0  0  0  0  0  0  0  0  0  0  0  0
    2.5277    4.2603   10.8513 N   0  0  0  0  0  0  0  0  0  0  0  0
    3.0497    4.8503   11.9578 C   0  0  0  0  0  0  0  0  0  0  0  0
    2.4991    5.9611   12.4335 N   0  0  0  0  0  0  0  0  0  0  0  0
    1.4298    6.4946   11.8182 C   0  0  0  0  0  0  0  0  0  0  0  0
    0.9187    5.8887   10.7082 N   0  0  0  0  0  0  0  0  0  0  0  0
    1.4620    4.7773   10.2243 C   0  0  0  0  0  0  0  0  0  0  0  0
    1.2328    3.9402    9.1906 N   0  0  0  0  0  0  0  0  0  0  0  0
    0.8690    7.6752   12.3495 N   0  0  0  0  0  0  0  0  0  0  0  0
    1.5113    8.3355   13.4502 C   0  0  0  0  0  0  0  0  0  0  0  0
    1.2432    7.7315   14.7928 C   0  0  0  0  0  0  0  0  0  0  0  0
    2.1344    8.2251   15.8692 C   0  0  0  0  0  0  0  0  0  0  0  0
    2.1411    9.5703   16.2342 C   0  0  0  0  0  0  0  0  0  0  0  0
    2.9527   10.0696   17.2195 C   0  0  0  0  0  0  0  0  0  0  0  0
    3.7997    9.1973   17.8771 C   0  0  0  0  0  0  0  0  0  0  0  0
    3.8287    7.8710   17.5544 C   0  0  0  0  0  0  0  0  0  0  0  0
    2.9956    7.3944   16.5524 C   0  0  0  0  0  0  0  0  0  0  0  0
    4.6099    9.7137   18.8655 O   0  0  0  0  0  0  0  0  0  0  0  0
    4.1947    4.2809   12.6182 N   0  0  0  0  0  0  0  0  0  0  0  0
  1  2  2  0
  2  3  1  0
  3  4  1  0
  4  5  2  0
  4  6  1  0
  6  7  2  0
  7  8  1  0
  8  9  1  0
  9 10  2  0
 10 11  1  0
 11 12  2  0
 12 13  1  0
 13 14  2  0
 11 15  1  0
 15 16  1  0
 16 17  1  0
 17 18  1  0
 18 19  2  0
 19 20  1  0
 20 21  2  0
 21 22  1  0
 22 23  2  0
 21 24  1  0
  9 25  1  0
  5  1  1  0
 14  6  1  0
 13  8  1  0
 23 18  1  0
M  END
$$$$
