
     RDKit          3D

 25 28  0  0  0  0  0  0  0  0999 V2000
    1.9799    0.1494    6.3195 C   0  0  0  0  0  0  0  0  0  0  0  0
    3.1438   -0.1722    6.9946 C   0  0  0  0  0  0  0  0  0  0  0  0
    3.2639    0.6314    8.0248 O   0  0  0  0  0  0  0  0  0  0  0  0
    2.2586    1.4714    8.0869 C   0  0  0  0  0  0  0  0  0  0  0  0
    1.4337    1.1977    7.0327 C   0  0  0  0  0  0  0  0  0  0  0  0
    2.0872    2.5094    9.1244 C   0  0  0  0  0  0  0  0  0  0  0  0
    2.8362    2.6539   10.2311 N   0  0  0  0  0  0  0  0  0  0  0  0
    2.3729    3.6918   10.9052 N   0  0  0  0  0  0  0  0  0  0  0  0
    2.8261    4.1992   12.0809 C   0  0  0  0  0  0  0  0  0  0  0  0
    2.2291    5.2586   12.6145 N   0  0  0  0  0  0  0  0  0  0  0  0
    1.1812    5.8221   11.9891 C   0  0  0  0  0  0  0  0  0  0  0  0
    0.7396    5.2993   10.8092 N   0  0  0  0  0  0  0  0  0  0  0  0
    1.3296    4.2399   10.2670 C   0  0  0  0  0  0  0  0  0  0  0  0
    1.1704    3.4853    9.1593 N   0  0  0  0  0  0  0  0  0  0  0  0
    0.5699    6.9464   12.5830 N   0  0  0  0  0  0  0  0  0  0  0  0
    1.0312    7.4166   13.8582 C   0  0  0  0  0  0  0  0  0  0  0  0
    2.2183    8.3261   13.8045 C   0  0  0  0  0  0  0  0  0  0  0  0
    2.8660    8.5567   15.1174 C   0  0  0  0  0  0  0  0  0  0  0  0
    2.1668    9.1485   16.1679 C   0  0  0  0  0  0  0  0  0  0  0  0
    2.7286    9.3850   17.3957 C   0  0  0  0  0  0  0  0  0  0  0  0
    4.0463    9.0188   17.5960 C   0  0  0  0  0  0  0  0  0  0  0  0
    4.7719    8.4360   16.5970 C   0  0  0  0  0  0  0  0  0  0  0  0
    4.1763    8.2092   15.3646 C   0  0  0  0  0  0  0  0  0  0  0  0
    4.5978    9.2626   18.8356 O   0  0  0  0  0  0  0  0  0  0  0  0
    3.9478    3.5976   12.7524 N   0  0  0  0  0  0  0  0  0  0  0  0
  1  2  2  0
  2  3  1  0
  3  4  1  0
  4  5  2  0
  4  6  1  0
  6  7  2  0
  7  8  1  0
  8  9  1  0
  9 10  2  0
 10 11  1  0
 11 12  2  0
 12 13  1  0
 13 14  2  0
 11 15  1  0
 15 16  1  0
 16 17  1  0
 17 18  1  0
 18 19  2  0
 19 20  1  0
 20 21  2  0
 21 22  1  0
 22 23  2  0
 21 24  1  0
  9 25  1  0
  5  1  1  0
 14  6  1  0
 13  8  1  0
 23 18  1  0
M  END
$$$$
