
     RDKit          3D

 25 28  0  0  0  0  0  0  0  0999 V2000
    2.5502    0.3313    6.5926 C   0  0  0  0  0  0  0  0  0  0  0  0
    3.7202    0.2182    7.3223 C   0  0  0  0  0  0  0  0  0  0  0  0
    3.6672    1.0591    8.3281 O   0  0  0  0  0  0  0  0  0  0  0  0
    2.5400    1.7295    8.3229 C   0  0  0  0  0  0  0  0  0  0  0  0
    1.8149    1.2986    7.2480 C   0  0  0  0  0  0  0  0  0  0  0  0
    2.1620    2.7554    9.3169 C   0  0  0  0  0  0  0  0  0  0  0  0
    2.8322    3.0505   10.4441 N   0  0  0  0  0  0  0  0  0  0  0  0
    2.1813    4.0189   11.0646 N   0  0  0  0  0  0  0  0  0  0  0  0
    2.4987    4.6262   12.2375 C   0  0  0  0  0  0  0  0  0  0  0  0
    1.7183    5.5900   12.7121 N   0  0  0  0  0  0  0  0  0  0  0  0
    0.6202    5.9588   12.0303 C   0  0  0  0  0  0  0  0  0  0  0  0
    0.3168    5.3381   10.8542 N   0  0  0  0  0  0  0  0  0  0  0  0
    1.0907    4.3729   10.3707 C   0  0  0  0  0  0  0  0  0  0  0  0
    1.1000    3.5711    9.2849 N   0  0  0  0  0  0  0  0  0  0  0  0
   -0.1872    6.9861   12.5625 N   0  0  0  0  0  0  0  0  0  0  0  0
    0.2990    7.7797   13.6550 C   0  0  0  0  0  0  0  0  0  0  0  0
    1.0454    9.0139   13.2565 C   0  0  0  0  0  0  0  0  0  0  0  0
    1.7997    9.6506   14.3620 C   0  0  0  0  0  0  0  0  0  0  0  0
    1.6810    9.1873   15.6712 C   0  0  0  0  0  0  0  0  0  0  0  0
    2.3557    9.7499   16.7234 C   0  0  0  0  0  0  0  0  0  0  0  0
    3.1889   10.8234   16.4702 C   0  0  0  0  0  0  0  0  0  0  0  0
    3.3374   11.3126   15.2042 C   0  0  0  0  0  0  0  0  0  0  0  0
    2.6414   10.7224   14.1590 C   0  0  0  0  0  0  0  0  0  0  0  0
    3.8608   11.3788   17.5380 O   0  0  0  0  0  0  0  0  0  0  0  0
    3.6739    4.2330   12.9692 N   0  0  0  0  0  0  0  0  0  0  0  0
  1  2  2  0
  2  3  1  0
  3  4  1  0
  4  5  2  0
  4  6  1  0
  6  7  2  0
  7  8  1  0
  8  9  1  0
  9 10  2  0
 10 11  1  0
 11 12  2  0
 12 13  1  0
 13 14  2  0
 11 15  1  0
 15 16  1  0
 16 17  1  0
 17 18  1  0
 18 19  2  0
 19 20  1  0
 20 21  2  0
 21 22  1  0
 22 23  2  0
 21 24  1  0
  9 25  1  0
  5  1  1  0
 14  6  1  0
 13  8  1  0
 23 18  1  0
M  END
$$$$
