
     RDKit          3D

 25 28  0  0  0  0  0  0  0  0999 V2000
    3.5453   -0.2984    6.8769 C   0  0  0  0  0  0  0  0  0  0  0  0
    2.5209    0.0645    6.0207 C   0  0  0  0  0  0  0  0  0  0  0  0
    1.9075    1.1095    6.5239 O   0  0  0  0  0  0  0  0  0  0  0  0
    2.4511    1.4729    7.6607 C   0  0  0  0  0  0  0  0  0  0  0  0
    3.4815    0.6118    7.9129 C   0  0  0  0  0  0  0  0  0  0  0  0
    2.0010    2.6122    8.4870 C   0  0  0  0  0  0  0  0  0  0  0  0
    0.9986    3.4574    8.1912 N   0  0  0  0  0  0  0  0  0  0  0  0
    0.9033    4.3373    9.1727 N   0  0  0  0  0  0  0  0  0  0  0  0
    0.0304    5.3713    9.2912 C   0  0  0  0  0  0  0  0  0  0  0  0
    0.0840    6.1591   10.3588 N   0  0  0  0  0  0  0  0  0  0  0  0
    1.0005    5.9293   11.3148 C   0  0  0  0  0  0  0  0  0  0  0  0
    1.8691    4.8865   11.1793 N   0  0  0  0  0  0  0  0  0  0  0  0
    1.8239    4.0925   10.1154 C   0  0  0  0  0  0  0  0  0  0  0  0
    2.4964    3.0120    9.6655 N   0  0  0  0  0  0  0  0  0  0  0  0
    1.0303    6.7851   12.4361 N   0  0  0  0  0  0  0  0  0  0  0  0
    1.9420    6.5173   13.5117 C   0  0  0  0  0  0  0  0  0  0  0  0
    3.2646    7.2093   13.4061 C   0  0  0  0  0  0  0  0  0  0  0  0
    4.1035    7.1040   14.6233 C   0  0  0  0  0  0  0  0  0  0  0  0
    4.2492    8.1860   15.4897 C   0  0  0  0  0  0  0  0  0  0  0  0
    5.0191    8.1335   16.6226 C   0  0  0  0  0  0  0  0  0  0  0  0
    5.6780    6.9539   16.9143 C   0  0  0  0  0  0  0  0  0  0  0  0
    5.5659    5.8670   16.0956 C   0  0  0  0  0  0  0  0  0  0  0  0
    4.7793    5.9500   14.9557 C   0  0  0  0  0  0  0  0  0  0  0  0
    6.4484    6.9160   18.0567 O   0  0  0  0  0  0  0  0  0  0  0  0
   -0.9517    5.6192    8.2688 N   0  0  0  0  0  0  0  0  0  0  0  0
  1  2  2  0
  2  3  1  0
  3  4  1  0
  4  5  2  0
  4  6  1  0
  6  7  2  0
  7  8  1  0
  8  9  1  0
  9 10  2  0
 10 11  1  0
 11 12  2  0
 12 13  1  0
 13 14  2  0
 11 15  1  0
 15 16  1  0
 16 17  1  0
 17 18  1  0
 18 19  2  0
 19 20  1  0
 20 21  2  0
 21 22  1  0
 22 23  2  0
 21 24  1  0
  9 25  1  0
  5  1  1  0
 14  6  1  0
 13  8  1  0
 23 18  1  0
M  END
$$$$
