
     RDKit          3D

 25 28  0  0  0  0  0  0  0  0999 V2000
    2.1860    0.2124    6.4721 C   0  0  0  0  0  0  0  0  0  0  0  0
    3.3643   -0.0293    7.1556 C   0  0  0  0  0  0  0  0  0  0  0  0
    3.4412    0.8080    8.1629 O   0  0  0  0  0  0  0  0  0  0  0  0
    2.3935    1.5958    8.2018 C   0  0  0  0  0  0  0  0  0  0  0  0
    1.5852    1.2503    7.1558 C   0  0  0  0  0  0  0  0  0  0  0  0
    2.1671    2.6521    9.2100 C   0  0  0  0  0  0  0  0  0  0  0  0
    2.8753    2.8349   10.3378 N   0  0  0  0  0  0  0  0  0  0  0  0
    2.3695    3.8776   10.9730 N   0  0  0  0  0  0  0  0  0  0  0  0
    2.7727    4.4188   12.1518 C   0  0  0  0  0  0  0  0  0  0  0  0
    2.1378    5.4772   12.6417 N   0  0  0  0  0  0  0  0  0  0  0  0
    1.1012    6.0063   11.9693 C   0  0  0  0  0  0  0  0  0  0  0  0
    0.7099    5.4499   10.7871 N   0  0  0  0  0  0  0  0  0  0  0  0
    1.3382    4.3911   10.2883 C   0  0  0  0  0  0  0  0  0  0  0  0
    1.2311    3.6101    9.1927 N   0  0  0  0  0  0  0  0  0  0  0  0
    0.4486    7.1306   12.5177 N   0  0  0  0  0  0  0  0  0  0  0  0
    0.7604    7.5533   13.8533 C   0  0  0  0  0  0  0  0  0  0  0  0
    1.5045    8.8480   13.9488 C   0  0  0  0  0  0  0  0  0  0  0  0
    2.4362    8.9292   15.0986 C   0  0  0  0  0  0  0  0  0  0  0  0
    2.9705    7.7763   15.6714 C   0  0  0  0  0  0  0  0  0  0  0  0
    3.8306    7.8057   16.7383 C   0  0  0  0  0  0  0  0  0  0  0  0
    4.1804    9.0346   17.2658 C   0  0  0  0  0  0  0  0  0  0  0  0
    3.6825   10.1914   16.7385 C   0  0  0  0  0  0  0  0  0  0  0  0
    2.8137   10.1303   15.6585 C   0  0  0  0  0  0  0  0  0  0  0  0
    5.0461    9.0485   18.3383 O   0  0  0  0  0  0  0  0  0  0  0  0
    3.8824    3.8540   12.8735 N   0  0  0  0  0  0  0  0  0  0  0  0
  1  2  2  0
  2  3  1  0
  3  4  1  0
  4  5  2  0
  4  6  1  0
  6  7  2  0
  7  8  1  0
  8  9  1  0
  9 10  2  0
 10 11  1  0
 11 12  2  0
 12 13  1  0
 13 14  2  0
 11 15  1  0
 15 16  1  0
 16 17  1  0
 17 18  1  0
 18 19  2  0
 19 20  1  0
 20 21  2  0
 21 22  1  0
 22 23  2  0
 21 24  1  0
  9 25  1  0
  5  1  1  0
 14  6  1  0
 13  8  1  0
 23 18  1  0
M  END
$$$$
