
     RDKit          3D

 25 28  0  0  0  0  0  0  0  0999 V2000
    1.9351    0.3277    6.3953 C   0  0  0  0  0  0  0  0  0  0  0  0
    3.1982    0.0944    6.9092 C   0  0  0  0  0  0  0  0  0  0  0  0
    3.4402    0.9859    7.8411 O   0  0  0  0  0  0  0  0  0  0  0  0
    2.4244    1.8023    7.9874 C   0  0  0  0  0  0  0  0  0  0  0  0
    1.4622    1.4188    7.0964 C   0  0  0  0  0  0  0  0  0  0  0  0
    2.3706    2.9204    8.9520 C   0  0  0  0  0  0  0  0  0  0  0  0
    3.2261    3.1323    9.9669 N   0  0  0  0  0  0  0  0  0  0  0  0
    2.8464    4.2291   10.5988 N   0  0  0  0  0  0  0  0  0  0  0  0
    3.4197    4.8147   11.6821 C   0  0  0  0  0  0  0  0  0  0  0  0
    2.8937    5.9251   12.1857 N   0  0  0  0  0  0  0  0  0  0  0  0
    1.7985    6.4626   11.6215 C   0  0  0  0  0  0  0  0  0  0  0  0
    1.2361    5.8611   10.5342 N   0  0  0  0  0  0  0  0  0  0  0  0
    1.7543    4.7502   10.0226 C   0  0  0  0  0  0  0  0  0  0  0  0
    1.4765    3.9167    8.9980 N   0  0  0  0  0  0  0  0  0  0  0  0
    1.2651    7.6427   12.1813 N   0  0  0  0  0  0  0  0  0  0  0  0
    1.9167    8.2557   13.3036 C   0  0  0  0  0  0  0  0  0  0  0  0
    1.6822    7.5790   14.6174 C   0  0  0  0  0  0  0  0  0  0  0  0
    2.6074    8.0059   15.6937 C   0  0  0  0  0  0  0  0  0  0  0  0
    3.2646    7.0680   16.4881 C   0  0  0  0  0  0  0  0  0  0  0  0
    4.1236    7.4192   17.4970 C   0  0  0  0  0  0  0  0  0  0  0  0
    4.3446    8.7631   17.7330 C   0  0  0  0  0  0  0  0  0  0  0  0
    3.7234    9.7186   16.9810 C   0  0  0  0  0  0  0  0  0  0  0  0
    2.8590    9.3329   15.9665 C   0  0  0  0  0  0  0  0  0  0  0  0
    5.2109    9.1010   18.7505 O   0  0  0  0  0  0  0  0  0  0  0  0
    4.5923    4.2410   12.2879 N   0  0  0  0  0  0  0  0  0  0  0  0
  1  2  2  0
  2  3  1  0
  3  4  1  0
  4  5  2  0
  4  6  1  0
  6  7  2  0
  7  8  1  0
  8  9  1  0
  9 10  2  0
 10 11  1  0
 11 12  2  0
 12 13  1  0
 13 14  2  0
 11 15  1  0
 15 16  1  0
 16 17  1  0
 17 18  1  0
 18 19  2  0
 19 20  1  0
 20 21  2  0
 21 22  1  0
 22 23  2  0
 21 24  1  0
  9 25  1  0
  5  1  1  0
 14  6  1  0
 13  8  1  0
 23 18  1  0
M  END
$$$$
