
     RDKit          3D

 25 28  0  0  0  0  0  0  0  0999 V2000
    1.9876    0.4775    6.1387 C   0  0  0  0  0  0  0  0  0  0  0  0
    3.2399    0.3366    6.7097 C   0  0  0  0  0  0  0  0  0  0  0  0
    3.3311    1.1640    7.7239 O   0  0  0  0  0  0  0  0  0  0  0  0
    2.2241    1.8513    7.8724 C   0  0  0  0  0  0  0  0  0  0  0  0
    1.3593    1.4465    6.8952 C   0  0  0  0  0  0  0  0  0  0  0  0
    1.9948    2.8687    8.9191 C   0  0  0  0  0  0  0  0  0  0  0  0
    2.6663    2.9772   10.0785 N   0  0  0  0  0  0  0  0  0  0  0  0
    2.1712    4.0071   10.7423 N   0  0  0  0  0  0  0  0  0  0  0  0
    2.5479    4.4814   11.9582 C   0  0  0  0  0  0  0  0  0  0  0  0
    1.9297    5.5379   12.4730 N   0  0  0  0  0  0  0  0  0  0  0  0
    0.9362    6.1312   11.7891 C   0  0  0  0  0  0  0  0  0  0  0  0
    0.5712    5.6414   10.5696 N   0  0  0  0  0  0  0  0  0  0  0  0
    1.1830    4.5852   10.0456 C   0  0  0  0  0  0  0  0  0  0  0  0
    1.0914    3.8577    8.9124 N   0  0  0  0  0  0  0  0  0  0  0  0
    0.3004    7.2514   12.3647 N   0  0  0  0  0  0  0  0  0  0  0  0
    0.7247    7.7280   13.6504 C   0  0  0  0  0  0  0  0  0  0  0  0
    1.9171    8.6317   13.6273 C   0  0  0  0  0  0  0  0  0  0  0  0
    2.5627    8.8184   14.9482 C   0  0  0  0  0  0  0  0  0  0  0  0
    3.8594    8.3644   15.1832 C   0  0  0  0  0  0  0  0  0  0  0  0
    4.4917    8.5114   16.3904 C   0  0  0  0  0  0  0  0  0  0  0  0
    3.8097    9.1379   17.4166 C   0  0  0  0  0  0  0  0  0  0  0  0
    2.5377    9.5994   17.2342 C   0  0  0  0  0  0  0  0  0  0  0  0
    1.9233    9.4362   16.0009 C   0  0  0  0  0  0  0  0  0  0  0  0
    4.4582    9.2786   18.6248 O   0  0  0  0  0  0  0  0  0  0  0  0
    3.6113    3.8478   12.6922 N   0  0  0  0  0  0  0  0  0  0  0  0
  1  2  2  0
  2  3  1  0
  3  4  1  0
  4  5  2  0
  4  6  1  0
  6  7  2  0
  7  8  1  0
  8  9  1  0
  9 10  2  0
 10 11  1  0
 11 12  2  0
 12 13  1  0
 13 14  2  0
 11 15  1  0
 15 16  1  0
 16 17  1  0
 17 18  1  0
 18 19  2  0
 19 20  1  0
 20 21  2  0
 21 22  1  0
 22 23  2  0
 21 24  1  0
  9 25  1  0
  5  1  1  0
 14  6  1  0
 13  8  1  0
 23 18  1  0
M  END
$$$$
