
     RDKit          3D

 25 28  0  0  0  0  0  0  0  0999 V2000
    1.5483    0.0024    6.5822 C   0  0  0  0  0  0  0  0  0  0  0  0
    2.7555   -0.3399    7.1649 C   0  0  0  0  0  0  0  0  0  0  0  0
    3.0249    0.5313    8.1083 O   0  0  0  0  0  0  0  0  0  0  0  0
    2.0796    1.4358    8.1984 C   0  0  0  0  0  0  0  0  0  0  0  0
    1.1371    1.1351    7.2559 C   0  0  0  0  0  0  0  0  0  0  0  0
    2.0733    2.5593    9.1581 C   0  0  0  0  0  0  0  0  0  0  0  0
    2.9378    2.7398   10.1714 N   0  0  0  0  0  0  0  0  0  0  0  0
    2.6047    3.8541   10.7989 N   0  0  0  0  0  0  0  0  0  0  0  0
    3.2029    4.4200   11.8792 C   0  0  0  0  0  0  0  0  0  0  0  0
    2.7239    5.5535   12.3785 N   0  0  0  0  0  0  0  0  0  0  0  0
    1.6515    6.1336   11.8129 C   0  0  0  0  0  0  0  0  0  0  0  0
    1.0634    5.5513   10.7286 N   0  0  0  0  0  0  0  0  0  0  0  0
    1.5346    4.4176   10.2214 C   0  0  0  0  0  0  0  0  0  0  0  0
    1.2213    3.5920    9.2006 N   0  0  0  0  0  0  0  0  0  0  0  0
    1.1680    7.3372   12.3681 N   0  0  0  0  0  0  0  0  0  0  0  0
    1.8722    7.9518   13.4573 C   0  0  0  0  0  0  0  0  0  0  0  0
    1.3720    7.5863   14.8194 C   0  0  0  0  0  0  0  0  0  0  0  0
    2.1788    8.1420   15.9315 C   0  0  0  0  0  0  0  0  0  0  0  0
    1.7958    7.9551   17.2585 C   0  0  0  0  0  0  0  0  0  0  0  0
    2.5092    8.4561   18.3164 C   0  0  0  0  0  0  0  0  0  0  0  0
    3.6579    9.1776   18.0505 C   0  0  0  0  0  0  0  0  0  0  0  0
    4.0731    9.3871   16.7669 C   0  0  0  0  0  0  0  0  0  0  0  0
    3.3303    8.8677   15.7163 C   0  0  0  0  0  0  0  0  0  0  0  0
    4.3649    9.6751   19.1241 O   0  0  0  0  0  0  0  0  0  0  0  0
    4.3513    3.8007   12.4864 N   0  0  0  0  0  0  0  0  0  0  0  0
  1  2  2  0
  2  3  1  0
  3  4  1  0
  4  5  2  0
  4  6  1  0
  6  7  2  0
  7  8  1  0
  8  9  1  0
  9 10  2  0
 10 11  1  0
 11 12  2  0
 12 13  1  0
 13 14  2  0
 11 15  1  0
 15 16  1  0
 16 17  1  0
 17 18  1  0
 18 19  2  0
 19 20  1  0
 20 21  2  0
 21 22  1  0
 22 23  2  0
 21 24  1  0
  9 25  1  0
  5  1  1  0
 14  6  1  0
 13  8  1  0
 23 18  1  0
M  END
$$$$
