
     RDKit          3D

 25 28  0  0  0  0  0  0  0  0999 V2000
    1.9807    0.3972    6.4565 C   0  0  0  0  0  0  0  0  0  0  0  0
    3.1638    0.1456    7.1280 C   0  0  0  0  0  0  0  0  0  0  0  0
    3.2507    0.9719    8.1435 O   0  0  0  0  0  0  0  0  0  0  0  0
    2.2052    1.7618    8.1990 C   0  0  0  0  0  0  0  0  0  0  0  0
    1.3878    1.4292    7.1559 C   0  0  0  0  0  0  0  0  0  0  0  0
    1.9893    2.8078    9.2201 C   0  0  0  0  0  0  0  0  0  0  0  0
    2.7159    2.9860   10.3368 N   0  0  0  0  0  0  0  0  0  0  0  0
    2.2142    4.0196   10.9898 N   0  0  0  0  0  0  0  0  0  0  0  0
    2.6344    4.5536   12.1660 C   0  0  0  0  0  0  0  0  0  0  0  0
    2.0009    5.6033   12.6761 N   0  0  0  0  0  0  0  0  0  0  0  0
    0.9490    6.1308   12.0266 C   0  0  0  0  0  0  0  0  0  0  0  0
    0.5409    5.5818   10.8466 N   0  0  0  0  0  0  0  0  0  0  0  0
    1.1676    4.5317   10.3278 C   0  0  0  0  0  0  0  0  0  0  0  0
    1.0466    3.7593    9.2275 N   0  0  0  0  0  0  0  0  0  0  0  0
    0.2985    7.2458   12.5959 N   0  0  0  0  0  0  0  0  0  0  0  0
    0.7643    7.7811   13.8435 C   0  0  0  0  0  0  0  0  0  0  0  0
    2.0107    8.6040   13.7519 C   0  0  0  0  0  0  0  0  0  0  0  0
    2.6023    8.9576   15.0640 C   0  0  0  0  0  0  0  0  0  0  0  0
    2.1202   10.0386   15.8000 C   0  0  0  0  0  0  0  0  0  0  0  0
    2.6414   10.4034   17.0142 C   0  0  0  0  0  0  0  0  0  0  0  0
    3.6907    9.6641   17.5270 C   0  0  0  0  0  0  0  0  0  0  0  0
    4.1968    8.5966   16.8425 C   0  0  0  0  0  0  0  0  0  0  0  0
    3.6488    8.2511   15.6156 C   0  0  0  0  0  0  0  0  0  0  0  0
    4.2044   10.0426   18.7488 O   0  0  0  0  0  0  0  0  0  0  0  0
    3.7604    3.9905   12.8632 N   0  0  0  0  0  0  0  0  0  0  0  0
  1  2  2  0
  2  3  1  0
  3  4  1  0
  4  5  2  0
  4  6  1  0
  6  7  2  0
  7  8  1  0
  8  9  1  0
  9 10  2  0
 10 11  1  0
 11 12  2  0
 12 13  1  0
 13 14  2  0
 11 15  1  0
 15 16  1  0
 16 17  1  0
 17 18  1  0
 18 19  2  0
 19 20  1  0
 20 21  2  0
 21 22  1  0
 22 23  2  0
 21 24  1  0
  9 25  1  0
  5  1  1  0
 14  6  1  0
 13  8  1  0
 23 18  1  0
M  END
$$$$
