
     RDKit          3D

 25 28  0  0  0  0  0  0  0  0999 V2000
    1.6221    0.0710    6.7386 C   0  0  0  0  0  0  0  0  0  0  0  0
    2.8460   -0.2030    7.3225 C   0  0  0  0  0  0  0  0  0  0  0  0
    3.0689    0.6869    8.2606 O   0  0  0  0  0  0  0  0  0  0  0  0
    2.0767    1.5402    8.3460 C   0  0  0  0  0  0  0  0  0  0  0  0
    1.1514    1.1841    7.4059 C   0  0  0  0  0  0  0  0  0  0  0  0
    2.0108    2.6674    9.2991 C   0  0  0  0  0  0  0  0  0  0  0  0
    2.8234    2.8625   10.3520 N   0  0  0  0  0  0  0  0  0  0  0  0
    2.4471    3.9752   10.9575 N   0  0  0  0  0  0  0  0  0  0  0  0
    2.9858    4.5527   12.0627 C   0  0  0  0  0  0  0  0  0  0  0  0
    2.4700    5.6823   12.5332 N   0  0  0  0  0  0  0  0  0  0  0  0
    1.4191    6.2470   11.9139 C   0  0  0  0  0  0  0  0  0  0  0  0
    0.8910    5.6533   10.8054 N   0  0  0  0  0  0  0  0  0  0  0  0
    1.3995    4.5234   10.3267 C   0  0  0  0  0  0  0  0  0  0  0  0
    1.1456    3.6899    9.2958 N   0  0  0  0  0  0  0  0  0  0  0  0
    0.8953    7.4469   12.4396 N   0  0  0  0  0  0  0  0  0  0  0  0
    1.5534    8.0880   13.5423 C   0  0  0  0  0  0  0  0  0  0  0  0
    1.0774    7.6630   14.8958 C   0  0  0  0  0  0  0  0  0  0  0  0
    1.9848    8.0418   16.0048 C   0  0  0  0  0  0  0  0  0  0  0  0
    3.3685    8.0157   15.8399 C   0  0  0  0  0  0  0  0  0  0  0  0
    4.2433    8.3527   16.8399 C   0  0  0  0  0  0  0  0  0  0  0  0
    3.7259    8.7343   18.0636 C   0  0  0  0  0  0  0  0  0  0  0  0
    2.3774    8.7751   18.2729 C   0  0  0  0  0  0  0  0  0  0  0  0
    1.5163    8.4284   17.2416 C   0  0  0  0  0  0  0  0  0  0  0  0
    4.6176    9.0704   19.0596 O   0  0  0  0  0  0  0  0  0  0  0  0
    4.1110    3.9498   12.7274 N   0  0  0  0  0  0  0  0  0  0  0  0
  1  2  2  0
  2  3  1  0
  3  4  1  0
  4  5  2  0
  4  6  1  0
  6  7  2  0
  7  8  1  0
  8  9  1  0
  9 10  2  0
 10 11  1  0
 11 12  2  0
 12 13  1  0
 13 14  2  0
 11 15  1  0
 15 16  1  0
 16 17  1  0
 17 18  1  0
 18 19  2  0
 19 20  1  0
 20 21  2  0
 21 22  1  0
 22 23  2  0
 21 24  1  0
  9 25  1  0
  5  1  1  0
 14  6  1  0
 13  8  1  0
 23 18  1  0
M  END
$$$$
