
     RDKit          3D

 25 28  0  0  0  0  0  0  0  0999 V2000
    2.1743    0.5998    6.0289 C   0  0  0  0  0  0  0  0  0  0  0  0
    3.4327    0.3823    6.5610 C   0  0  0  0  0  0  0  0  0  0  0  0
    3.5950    1.1823    7.5882 O   0  0  0  0  0  0  0  0  0  0  0  0
    2.5299    1.9227    7.7818 C   0  0  0  0  0  0  0  0  0  0  0  0
    1.6186    1.5838    6.8219 C   0  0  0  0  0  0  0  0  0  0  0  0
    2.3829    2.9283    8.8544 C   0  0  0  0  0  0  0  0  0  0  0  0
    3.1255    3.0080    9.9720 N   0  0  0  0  0  0  0  0  0  0  0  0
    2.6903    4.0364   10.6789 N   0  0  0  0  0  0  0  0  0  0  0  0
    3.1486    4.4861   11.8759 C   0  0  0  0  0  0  0  0  0  0  0  0
    2.5820    5.5453   12.4420 N   0  0  0  0  0  0  0  0  0  0  0  0
    1.5598    6.1656   11.8282 C   0  0  0  0  0  0  0  0  0  0  0  0
    1.1126    5.7003   10.6265 N   0  0  0  0  0  0  0  0  0  0  0  0
    1.6723    4.6416   10.0518 C   0  0  0  0  0  0  0  0  0  0  0  0
    1.4989    3.9327    8.9163 N   0  0  0  0  0  0  0  0  0  0  0  0
    0.9804    7.2880   12.4568 N   0  0  0  0  0  0  0  0  0  0  0  0
    1.3679    7.6332   13.7949 C   0  0  0  0  0  0  0  0  0  0  0  0
    2.8261    7.9150   13.9776 C   0  0  0  0  0  0  0  0  0  0  0  0
    3.1776    8.4529   15.3131 C   0  0  0  0  0  0  0  0  0  0  0  0
    2.1919    8.7132   16.2635 C   0  0  0  0  0  0  0  0  0  0  0  0
    2.4723    9.2156   17.5077 C   0  0  0  0  0  0  0  0  0  0  0  0
    3.7916    9.4737   17.8293 C   0  0  0  0  0  0  0  0  0  0  0  0
    4.7920    9.2350   16.9313 C   0  0  0  0  0  0  0  0  0  0  0  0
    4.4776    8.7262   15.6793 C   0  0  0  0  0  0  0  0  0  0  0  0
    4.0584    9.9786   19.0839 O   0  0  0  0  0  0  0  0  0  0  0  0
    4.2430    3.8235   12.5350 N   0  0  0  0  0  0  0  0  0  0  0  0
  1  2  2  0
  2  3  1  0
  3  4  1  0
  4  5  2  0
  4  6  1  0
  6  7  2  0
  7  8  1  0
  8  9  1  0
  9 10  2  0
 10 11  1  0
 11 12  2  0
 12 13  1  0
 13 14  2  0
 11 15  1  0
 15 16  1  0
 16 17  1  0
 17 18  1  0
 18 19  2  0
 19 20  1  0
 20 21  2  0
 21 22  1  0
 22 23  2  0
 21 24  1  0
  9 25  1  0
  5  1  1  0
 14  6  1  0
 13  8  1  0
 23 18  1  0
M  END
$$$$
