
     RDKit          3D

 25 28  0  0  0  0  0  0  0  0999 V2000
    3.3210    9.8145   15.7182 C   0  0  0  0  0  0  0  0  0  0  0  0
    4.2279    8.8048   15.9865 C   0  0  0  0  0  0  0  0  0  0  0  0
    3.9964    7.8076   15.1657 O   0  0  0  0  0  0  0  0  0  0  0  0
    2.9948    8.0798   14.3641 C   0  0  0  0  0  0  0  0  0  0  0  0
    2.5469    9.3307   14.6826 C   0  0  0  0  0  0  0  0  0  0  0  0
    2.4765    7.1715   13.3203 C   0  0  0  0  0  0  0  0  0  0  0  0
    2.9694    5.9604   13.0087 N   0  0  0  0  0  0  0  0  0  0  0  0
    2.2377    5.4618   12.0276 N   0  0  0  0  0  0  0  0  0  0  0  0
    2.3769    4.2642   11.4019 C   0  0  0  0  0  0  0  0  0  0  0  0
    1.5394    3.9294   10.4273 N   0  0  0  0  0  0  0  0  0  0  0  0
    0.5600    4.7761   10.0660 C   0  0  0  0  0  0  0  0  0  0  0  0
    0.4350    5.9745   10.7053 N   0  0  0  0  0  0  0  0  0  0  0  0
    1.2675    6.3191   11.6814 C   0  0  0  0  0  0  0  0  0  0  0  0
    1.4368    7.3778   12.5013 N   0  0  0  0  0  0  0  0  0  0  0  0
   -0.3126    4.3895    9.0269 N   0  0  0  0  0  0  0  0  0  0  0  0
   -0.1895    3.0843    8.4429 C   0  0  0  0  0  0  0  0  0  0  0  0
    0.4738    3.0520    7.1020 C   0  0  0  0  0  0  0  0  0  0  0  0
    1.4185    1.9248    6.9192 C   0  0  0  0  0  0  0  0  0  0  0  0
    2.4428    1.6918    7.8353 C   0  0  0  0  0  0  0  0  0  0  0  0
    3.3410    0.6650    7.7017 C   0  0  0  0  0  0  0  0  0  0  0  0
    3.2218   -0.1733    6.6091 C   0  0  0  0  0  0  0  0  0  0  0  0
    2.2347    0.0152    5.6849 C   0  0  0  0  0  0  0  0  0  0  0  0
    1.3400    1.0633    5.8467 C   0  0  0  0  0  0  0  0  0  0  0  0
    4.1320   -1.2014    6.4880 O   0  0  0  0  0  0  0  0  0  0  0  0
    3.4248    3.3560   11.7870 N   0  0  0  0  0  0  0  0  0  0  0  0
  1  2  2  0
  2  3  1  0
  3  4  1  0
  4  5  2  0
  4  6  1  0
  6  7  2  0
  7  8  1  0
  8  9  1  0
  9 10  2  0
 10 11  1  0
 11 12  2  0
 12 13  1  0
 13 14  2  0
 11 15  1  0
 15 16  1  0
 16 17  1  0
 17 18  1  0
 18 19  2  0
 19 20  1  0
 20 21  2  0
 21 22  1  0
 22 23  2  0
 21 24  1  0
  9 25  1  0
  5  1  1  0
 14  6  1  0
 13  8  1  0
 23 18  1  0
M  END
$$$$
