
     RDKit          3D

 25 28  0  0  0  0  0  0  0  0999 V2000
    2.4821    0.2334    6.1798 C   0  0  0  0  0  0  0  0  0  0  0  0
    3.6951    0.0241    6.8112 C   0  0  0  0  0  0  0  0  0  0  0  0
    3.7795    0.8419    7.8337 O   0  0  0  0  0  0  0  0  0  0  0  0
    2.7044    1.5866    7.9314 C   0  0  0  0  0  0  0  0  0  0  0  0
    1.8691    1.2318    6.9101 C   0  0  0  0  0  0  0  0  0  0  0  0
    2.4774    2.6111    8.9717 C   0  0  0  0  0  0  0  0  0  0  0  0
    3.2055    2.7799   10.0889 N   0  0  0  0  0  0  0  0  0  0  0  0
    2.6916    3.7945   10.7619 N   0  0  0  0  0  0  0  0  0  0  0  0
    3.1084    4.3135   11.9460 C   0  0  0  0  0  0  0  0  0  0  0  0
    2.4621    5.3449   12.4768 N   0  0  0  0  0  0  0  0  0  0  0  0
    1.4005    5.8688   11.8403 C   0  0  0  0  0  0  0  0  0  0  0  0
    0.9958    5.3350   10.6521 N   0  0  0  0  0  0  0  0  0  0  0  0
    1.6354    4.3034   10.1126 C   0  0  0  0  0  0  0  0  0  0  0  0
    1.5214    3.5489    8.9992 N   0  0  0  0  0  0  0  0  0  0  0  0
    0.7363    6.9642   12.4316 N   0  0  0  0  0  0  0  0  0  0  0  0
    1.1830    7.4674   13.6993 C   0  0  0  0  0  0  0  0  0  0  0  0
    2.3192    8.4385   13.6288 C   0  0  0  0  0  0  0  0  0  0  0  0
    2.9803    8.6947   14.9303 C   0  0  0  0  0  0  0  0  0  0  0  0
    4.1284    7.9969   15.3011 C   0  0  0  0  0  0  0  0  0  0  0  0
    4.7679    8.1986   16.4967 C   0  0  0  0  0  0  0  0  0  0  0  0
    4.2477    9.1360   17.3694 C   0  0  0  0  0  0  0  0  0  0  0  0
    3.1249    9.8442   17.0502 C   0  0  0  0  0  0  0  0  0  0  0  0
    2.4991    9.6183   15.8326 C   0  0  0  0  0  0  0  0  0  0  0  0
    4.9014    9.3280   18.5677 O   0  0  0  0  0  0  0  0  0  0  0  0
    4.2449    3.7541   12.6293 N   0  0  0  0  0  0  0  0  0  0  0  0
  1  2  2  0
  2  3  1  0
  3  4  1  0
  4  5  2  0
  4  6  1  0
  6  7  2  0
  7  8  1  0
  8  9  1  0
  9 10  2  0
 10 11  1  0
 11 12  2  0
 12 13  1  0
 13 14  2  0
 11 15  1  0
 15 16  1  0
 16 17  1  0
 17 18  1  0
 18 19  2  0
 19 20  1  0
 20 21  2  0
 21 22  1  0
 22 23  2  0
 21 24  1  0
  9 25  1  0
  5  1  1  0
 14  6  1  0
 13  8  1  0
 23 18  1  0
M  END
$$$$
