
     RDKit          3D

 33 35  0  0  0  0  0  0  0  0999 V2000
   -5.8778   -0.9745  -18.7750 C   0  0  0  0  0  0  0  0  0  0  0  0
   -5.6917    0.2276  -17.8754 C   0  0  0  0  0  0  0  0  0  0  0  0
   -4.2978    0.7667  -18.0473 C   0  0  0  0  0  0  0  0  0  0  0  0
   -5.9712   -0.1008  -16.4562 C   0  0  0  0  0  0  0  0  0  0  0  0
   -6.7705    0.6909  -15.6874 C   0  0  0  0  0  0  0  0  0  0  0  0
   -7.0442    0.3970  -14.3458 C   0  0  0  0  0  0  0  0  0  0  0  0
   -6.4501   -0.7497  -13.8528 C   0  0  0  0  0  0  0  0  0  0  0  0
   -5.6388   -1.5679  -14.6062 C   0  0  0  0  0  0  0  0  0  0  0  0
   -5.4028   -1.2302  -15.9233 C   0  0  0  0  0  0  0  0  0  0  0  0
   -5.0476   -2.7825  -13.9792 C   0  0  0  0  0  0  0  0  0  0  0  0
   -3.5515   -2.7250  -14.2294 C   0  0  0  0  0  0  0  0  0  0  0  0
   -5.5333   -4.0445  -14.6627 C   0  0  0  0  0  0  0  0  0  0  0  0
   -6.7382   -1.0877  -12.4064 C   0  0  0  0  0  0  0  0  0  0  0  0
   -5.8567   -0.6764  -11.4212 C   0  0  0  0  0  0  0  0  0  0  0  0
   -6.7380   -1.3577   -9.9334 S   0  0  0  0  0  0  0  0  0  0  0  0
   -8.0976   -2.0571  -10.8596 C   0  0  0  0  0  0  0  0  0  0  0  0
   -7.7562   -1.7290  -12.0233 N   0  0  0  0  0  0  0  0  0  0  0  0
   -9.2072   -2.7653  -10.3207 N   0  0  0  0  0  0  0  0  0  0  0  0
  -10.4860   -2.9491  -10.8937 C   0  0  0  0  0  0  0  0  0  0  0  0
  -10.6955   -4.0305  -11.8863 C   0  0  0  0  0  0  0  0  0  0  0  0
  -11.9676   -4.6450  -11.9088 N   0  0  0  0  0  0  0  0  0  0  0  0
  -13.1494   -3.9794  -12.1942 C   0  0  0  0  0  0  0  0  0  0  0  0
  -12.0845   -5.7251  -10.9494 C   0  0  0  0  0  0  0  0  0  0  0  0
   -9.0123   -3.2406   -8.9405 C   0  0  0  0  0  0  0  0  0  0  0  0
   -9.4263   -2.2450   -7.9436 C   0  0  0  0  0  0  0  0  0  0  0  0
   -9.8946   -0.9969   -8.3099 C   0  0  0  0  0  0  0  0  0  0  0  0
  -10.2727   -0.0898   -7.3908 N   0  0  0  0  0  0  0  0  0  0  0  0
  -10.2323   -0.3049   -6.0666 C   0  0  0  0  0  0  0  0  0  0  0  0
   -9.7686   -1.5457   -5.6461 C   0  0  0  0  0  0  0  0  0  0  0  0
   -9.3738   -2.4958   -6.5707 C   0  0  0  0  0  0  0  0  0  0  0  0
   -7.9088    1.2444  -13.4998 C   0  0  0  0  0  0  0  0  0  0  0  0
   -9.3518    1.2362  -13.9557 C   0  0  0  0  0  0  0  0  0  0  0  0
   -7.4150    2.6712  -13.6406 C   0  0  0  0  0  0  0  0  0  0  0  0
  1  2  1  0
  2  3  1  0
  2  4  1  0
  4  5  2  0
  5  6  1  0
  6  7  2  0
  7  8  1  0
  8  9  2  0
  8 10  1  0
 10 11  1  0
 10 12  1  0
  7 13  1  0
 13 14  2  0
 14 15  1  0
 15 16  1  0
 16 17  2  0
 16 18  1  0
 18 19  1  0
 19 20  1  0
 20 21  1  0
 21 22  1  0
 21 23  1  0
 18 24  1  0
 24 25  1  0
 25 26  2  0
 26 27  1  0
 27 28  2  0
 28 29  1  0
 29 30  2  0
  6 31  1  0
 31 32  1  0
 31 33  1  0
  9  4  1  0
 17 13  1  0
 30 25  1  0
M  END
$$$$
