
     RDKit          3D

 33 35  0  0  0  0  0  0  0  0999 V2000
   -8.0361   -6.3989    9.7478 C   0  0  0  0  0  0  0  0  0  0  0  0
   -6.9424   -5.4790   10.2442 C   0  0  0  0  0  0  0  0  0  0  0  0
   -7.4733   -4.0737   10.3264 C   0  0  0  0  0  0  0  0  0  0  0  0
   -5.7347   -5.5493    9.3858 C   0  0  0  0  0  0  0  0  0  0  0  0
   -5.3973   -6.6926    8.7257 C   0  0  0  0  0  0  0  0  0  0  0  0
   -4.2606   -6.7775    7.9123 C   0  0  0  0  0  0  0  0  0  0  0  0
   -3.5031   -5.6245    7.8230 C   0  0  0  0  0  0  0  0  0  0  0  0
   -3.8200   -4.4559    8.4782 C   0  0  0  0  0  0  0  0  0  0  0  0
   -4.9522   -4.4286    9.2670 C   0  0  0  0  0  0  0  0  0  0  0  0
   -2.9371   -3.2679    8.3144 C   0  0  0  0  0  0  0  0  0  0  0  0
   -2.0119   -3.2359    9.5174 C   0  0  0  0  0  0  0  0  0  0  0  0
   -3.7336   -1.9803    8.3705 C   0  0  0  0  0  0  0  0  0  0  0  0
   -2.2735   -5.6941    6.9442 C   0  0  0  0  0  0  0  0  0  0  0  0
   -2.3684   -5.3403    5.6090 C   0  0  0  0  0  0  0  0  0  0  0  0
   -0.6010   -5.6156    5.1043 S   0  0  0  0  0  0  0  0  0  0  0  0
   -0.0532   -6.1429    6.7222 C   0  0  0  0  0  0  0  0  0  0  0  0
   -1.1351   -6.0548    7.3546 N   0  0  0  0  0  0  0  0  0  0  0  0
    1.2686   -6.5282    7.0792 N   0  0  0  0  0  0  0  0  0  0  0  0
    2.1140   -7.4531    6.4257 C   0  0  0  0  0  0  0  0  0  0  0  0
    3.0205   -6.9841    5.3501 C   0  0  0  0  0  0  0  0  0  0  0  0
    3.0424   -7.7361    4.1542 N   0  0  0  0  0  0  0  0  0  0  0  0
    3.6273   -7.3055    2.9736 C   0  0  0  0  0  0  0  0  0  0  0  0
    1.8640   -8.5642    3.9921 C   0  0  0  0  0  0  0  0  0  0  0  0
    1.7353   -5.9791    8.3637 C   0  0  0  0  0  0  0  0  0  0  0  0
    1.5054   -6.9026    9.4820 C   0  0  0  0  0  0  0  0  0  0  0  0
    1.4202   -8.2696    9.2937 C   0  0  0  0  0  0  0  0  0  0  0  0
    1.2098   -9.1098   10.3233 N   0  0  0  0  0  0  0  0  0  0  0  0
    1.0666   -8.7113   11.5969 C   0  0  0  0  0  0  0  0  0  0  0  0
    1.1443   -7.3450   11.8396 C   0  0  0  0  0  0  0  0  0  0  0  0
    1.3599   -6.4601   10.7986 C   0  0  0  0  0  0  0  0  0  0  0  0
   -3.8819   -8.0087    7.1899 C   0  0  0  0  0  0  0  0  0  0  0  0
   -4.9727   -8.4923    6.2589 C   0  0  0  0  0  0  0  0  0  0  0  0
   -3.6816   -9.0951    8.2286 C   0  0  0  0  0  0  0  0  0  0  0  0
  1  2  1  0
  2  3  1  0
  2  4  1  0
  4  5  2  0
  5  6  1  0
  6  7  2  0
  7  8  1  0
  8  9  2  0
  8 10  1  0
 10 11  1  0
 10 12  1  0
  7 13  1  0
 13 14  2  0
 14 15  1  0
 15 16  1  0
 16 17  2  0
 16 18  1  0
 18 19  1  0
 19 20  1  0
 20 21  1  0
 21 22  1  0
 21 23  1  0
 18 24  1  0
 24 25  1  0
 25 26  2  0
 26 27  1  0
 27 28  2  0
 28 29  1  0
 29 30  2  0
  6 31  1  0
 31 32  1  0
 31 33  1  0
  9  4  1  0
 17 13  1  0
 30 25  1  0
M  END
$$$$
