
     RDKit          3D

 33 35  0  0  0  0  0  0  0  0999 V2000
    0.1947    0.6230    6.5312 C   0  0  0  0  0  0  0  0  0  0  0  0
   -0.5341    0.5363    7.8541 C   0  0  0  0  0  0  0  0  0  0  0  0
    0.2589    1.2608    8.9076 C   0  0  0  0  0  0  0  0  0  0  0  0
   -0.7928   -0.8705    8.2468 C   0  0  0  0  0  0  0  0  0  0  0  0
   -2.0604   -1.3636    8.3306 C   0  0  0  0  0  0  0  0  0  0  0  0
   -2.3232   -2.6883    8.7008 C   0  0  0  0  0  0  0  0  0  0  0  0
   -1.2118   -3.4631    8.9755 C   0  0  0  0  0  0  0  0  0  0  0  0
    0.0794   -2.9917    8.8988 C   0  0  0  0  0  0  0  0  0  0  0  0
    0.2804   -1.6774    8.5289 C   0  0  0  0  0  0  0  0  0  0  0  0
    1.2086   -3.9098    9.2145 C   0  0  0  0  0  0  0  0  0  0  0  0
    2.1993   -3.1202   10.0509 C   0  0  0  0  0  0  0  0  0  0  0  0
    1.9555   -4.3129    7.9594 C   0  0  0  0  0  0  0  0  0  0  0  0
   -1.4747   -4.8993    9.3719 C   0  0  0  0  0  0  0  0  0  0  0  0
   -1.8780   -5.1873   10.6647 C   0  0  0  0  0  0  0  0  0  0  0  0
   -2.0396   -7.0331   10.5194 S   0  0  0  0  0  0  0  0  0  0  0  0
   -1.5529   -7.1012    8.8007 C   0  0  0  0  0  0  0  0  0  0  0  0
   -1.3562   -5.8794    8.5845 N   0  0  0  0  0  0  0  0  0  0  0  0
   -1.4551   -8.2722    7.9992 N   0  0  0  0  0  0  0  0  0  0  0  0
   -1.2118   -8.3602    6.6098 C   0  0  0  0  0  0  0  0  0  0  0  0
   -2.3550   -8.4575    5.6705 C   0  0  0  0  0  0  0  0  0  0  0  0
   -2.0496   -8.5830    4.2968 N   0  0  0  0  0  0  0  0  0  0  0  0
   -0.9607   -7.9843    3.6828 C   0  0  0  0  0  0  0  0  0  0  0  0
   -3.2332   -8.7061    3.4693 C   0  0  0  0  0  0  0  0  0  0  0  0
   -1.7825   -9.5217    8.7068 C   0  0  0  0  0  0  0  0  0  0  0  0
   -0.6101  -10.1160    9.3614 C   0  0  0  0  0  0  0  0  0  0  0  0
   -0.1939   -9.7146   10.6171 C   0  0  0  0  0  0  0  0  0  0  0  0
    0.8812  -10.2642   11.2110 N   0  0  0  0  0  0  0  0  0  0  0  0
    1.6315  -11.2284   10.6554 C   0  0  0  0  0  0  0  0  0  0  0  0
    1.2545  -11.6675    9.3919 C   0  0  0  0  0  0  0  0  0  0  0  0
    0.1532  -11.1189    8.7597 C   0  0  0  0  0  0  0  0  0  0  0  0
   -3.6908   -3.2378    8.7954 C   0  0  0  0  0  0  0  0  0  0  0  0
   -4.2395   -3.6600    7.4497 C   0  0  0  0  0  0  0  0  0  0  0  0
   -4.5876   -2.1252    9.3025 C   0  0  0  0  0  0  0  0  0  0  0  0
  1  2  1  0
  2  3  1  0
  2  4  1  0
  4  5  2  0
  5  6  1  0
  6  7  2  0
  7  8  1  0
  8  9  2  0
  8 10  1  0
 10 11  1  0
 10 12  1  0
  7 13  1  0
 13 14  2  0
 14 15  1  0
 15 16  1  0
 16 17  2  0
 16 18  1  0
 18 19  1  0
 19 20  1  0
 20 21  1  0
 21 22  1  0
 21 23  1  0
 18 24  1  0
 24 25  1  0
 25 26  2  0
 26 27  1  0
 27 28  2  0
 28 29  1  0
 29 30  2  0
  6 31  1  0
 31 32  1  0
 31 33  1  0
  9  4  1  0
 17 13  1  0
 30 25  1  0
M  END
$$$$
