
     RDKit          3D

 33 35  0  0  0  0  0  0  0  0999 V2000
   -5.7508  -10.8027    7.0164 C   0  0  0  0  0  0  0  0  0  0  0  0
   -4.4272  -10.9080    7.7417 C   0  0  0  0  0  0  0  0  0  0  0  0
   -4.6754  -11.2752    9.1794 C   0  0  0  0  0  0  0  0  0  0  0  0
   -3.6412   -9.6546    7.6337 C   0  0  0  0  0  0  0  0  0  0  0  0
   -2.3237   -9.6694    7.2862 C   0  0  0  0  0  0  0  0  0  0  0  0
   -1.5662   -8.4964    7.1806 C   0  0  0  0  0  0  0  0  0  0  0  0
   -2.2432   -7.3221    7.4520 C   0  0  0  0  0  0  0  0  0  0  0  0
   -3.5732   -7.2774    7.8050 C   0  0  0  0  0  0  0  0  0  0  0  0
   -4.2718   -8.4643    7.8941 C   0  0  0  0  0  0  0  0  0  0  0  0
   -4.2096   -5.9586    8.0762 C   0  0  0  0  0  0  0  0  0  0  0  0
   -4.5689   -5.9364    9.5509 C   0  0  0  0  0  0  0  0  0  0  0  0
   -5.5200   -5.8176    7.3288 C   0  0  0  0  0  0  0  0  0  0  0  0
   -1.4434   -6.0430    7.3379 C   0  0  0  0  0  0  0  0  0  0  0  0
   -1.0765   -5.5772    6.0867 C   0  0  0  0  0  0  0  0  0  0  0  0
   -0.1693   -4.0381    6.5989 S   0  0  0  0  0  0  0  0  0  0  0  0
   -0.4292   -4.2754    8.3515 C   0  0  0  0  0  0  0  0  0  0  0  0
   -1.0832   -5.3478    8.3286 N   0  0  0  0  0  0  0  0  0  0  0  0
    0.0224   -3.4185    9.3931 N   0  0  0  0  0  0  0  0  0  0  0  0
    0.5895   -3.7805   10.6360 C   0  0  0  0  0  0  0  0  0  0  0  0
    2.0638   -3.7894   10.7938 C   0  0  0  0  0  0  0  0  0  0  0  0
    2.5723   -4.1352   12.0659 N   0  0  0  0  0  0  0  0  0  0  0  0
    3.3757   -3.3080   12.8350 C   0  0  0  0  0  0  0  0  0  0  0  0
    2.8469   -5.5526   12.1924 C   0  0  0  0  0  0  0  0  0  0  0  0
   -0.2712   -1.9917    9.1761 C   0  0  0  0  0  0  0  0  0  0  0  0
   -1.6235   -1.6267    9.6172 C   0  0  0  0  0  0  0  0  0  0  0  0
   -2.3694   -2.4497   10.4402 C   0  0  0  0  0  0  0  0  0  0  0  0
   -3.6077   -2.1084   10.8408 N   0  0  0  0  0  0  0  0  0  0  0  0
   -4.2200   -0.9671   10.4887 C   0  0  0  0  0  0  0  0  0  0  0  0
   -3.5115   -0.1042    9.6610 C   0  0  0  0  0  0  0  0  0  0  0  0
   -2.2368   -0.4315    9.2353 C   0  0  0  0  0  0  0  0  0  0  0  0
   -0.1380   -8.4957    6.8043 C   0  0  0  0  0  0  0  0  0  0  0  0
    0.1911   -9.5591    5.7791 C   0  0  0  0  0  0  0  0  0  0  0  0
    0.6551   -8.8324    8.0521 C   0  0  0  0  0  0  0  0  0  0  0  0
  1  2  1  0
  2  3  1  0
  2  4  1  0
  4  5  2  0
  5  6  1  0
  6  7  2  0
  7  8  1  0
  8  9  2  0
  8 10  1  0
 10 11  1  0
 10 12  1  0
  7 13  1  0
 13 14  2  0
 14 15  1  0
 15 16  1  0
 16 17  2  0
 16 18  1  0
 18 19  1  0
 19 20  1  0
 20 21  1  0
 21 22  1  0
 21 23  1  0
 18 24  1  0
 24 25  1  0
 25 26  2  0
 26 27  1  0
 27 28  2  0
 28 29  1  0
 29 30  2  0
  6 31  1  0
 31 32  1  0
 31 33  1  0
  9  4  1  0
 17 13  1  0
 30 25  1  0
M  END
$$$$
