
     RDKit          3D

 33 35  0  0  0  0  0  0  0  0999 V2000
  -10.0469   -4.3691   -8.2224 C   0  0  0  0  0  0  0  0  0  0  0  0
   -9.8718   -5.8368   -7.8997 C   0  0  0  0  0  0  0  0  0  0  0  0
  -10.5521   -6.1438   -6.5935 C   0  0  0  0  0  0  0  0  0  0  0  0
   -8.4403   -6.2241   -7.8659 C   0  0  0  0  0  0  0  0  0  0  0  0
   -7.6854   -6.2558   -8.9998 C   0  0  0  0  0  0  0  0  0  0  0  0
   -6.3333   -6.6201   -8.9867 C   0  0  0  0  0  0  0  0  0  0  0  0
   -5.8147   -6.9453   -7.7472 C   0  0  0  0  0  0  0  0  0  0  0  0
   -6.5535   -6.9218   -6.5857 C   0  0  0  0  0  0  0  0  0  0  0  0
   -7.8822   -6.5552   -6.6570 C   0  0  0  0  0  0  0  0  0  0  0  0
   -5.8987   -7.2894   -5.2998 C   0  0  0  0  0  0  0  0  0  0  0  0
   -6.9763   -7.8796   -4.4082 C   0  0  0  0  0  0  0  0  0  0  0  0
   -5.3874   -6.0619   -4.5737 C   0  0  0  0  0  0  0  0  0  0  0  0
   -4.3536   -7.3362   -7.7111 C   0  0  0  0  0  0  0  0  0  0  0  0
   -3.4024   -6.3899   -7.3693 C   0  0  0  0  0  0  0  0  0  0  0  0
   -1.8781   -7.4463   -7.4907 S   0  0  0  0  0  0  0  0  0  0  0  0
   -2.7510   -8.9323   -7.9652 C   0  0  0  0  0  0  0  0  0  0  0  0
   -3.9294   -8.4970   -7.9705 N   0  0  0  0  0  0  0  0  0  0  0  0
   -2.1680  -10.2018   -8.2332 N   0  0  0  0  0  0  0  0  0  0  0  0
   -0.8128  -10.5000   -8.5012 C   0  0  0  0  0  0  0  0  0  0  0  0
   -0.2759  -10.3029   -9.8692 C   0  0  0  0  0  0  0  0  0  0  0  0
    1.1292  -10.2459  -10.0065 N   0  0  0  0  0  0  0  0  0  0  0  0
    2.0213  -10.8838   -9.1589 C   0  0  0  0  0  0  0  0  0  0  0  0
    1.5879   -8.9813  -10.5459 C   0  0  0  0  0  0  0  0  0  0  0  0
   -3.1401  -11.2995   -8.3719 C   0  0  0  0  0  0  0  0  0  0  0  0
   -3.2752  -12.0845   -7.1383 C   0  0  0  0  0  0  0  0  0  0  0  0
   -2.4086  -13.1172   -6.8320 C   0  0  0  0  0  0  0  0  0  0  0  0
   -2.5383  -13.8318   -5.6994 N   0  0  0  0  0  0  0  0  0  0  0  0
   -3.4956  -13.6158   -4.7838 C   0  0  0  0  0  0  0  0  0  0  0  0
   -4.3933  -12.5874   -5.0450 C   0  0  0  0  0  0  0  0  0  0  0  0
   -4.2818  -11.8377   -6.2021 C   0  0  0  0  0  0  0  0  0  0  0  0
   -5.5016   -6.6585  -10.2065 C   0  0  0  0  0  0  0  0  0  0  0  0
   -5.2369   -5.2793  -10.7704 C   0  0  0  0  0  0  0  0  0  0  0  0
   -6.2847   -7.4175  -11.2601 C   0  0  0  0  0  0  0  0  0  0  0  0
  1  2  1  0
  2  3  1  0
  2  4  1  0
  4  5  2  0
  5  6  1  0
  6  7  2  0
  7  8  1  0
  8  9  2  0
  8 10  1  0
 10 11  1  0
 10 12  1  0
  7 13  1  0
 13 14  2  0
 14 15  1  0
 15 16  1  0
 16 17  2  0
 16 18  1  0
 18 19  1  0
 19 20  1  0
 20 21  1  0
 21 22  1  0
 21 23  1  0
 18 24  1  0
 24 25  1  0
 25 26  2  0
 26 27  1  0
 27 28  2  0
 28 29  1  0
 29 30  2  0
  6 31  1  0
 31 32  1  0
 31 33  1  0
  9  4  1  0
 17 13  1  0
 30 25  1  0
M  END
$$$$
