
     RDKit          3D

 33 35  0  0  0  0  0  0  0  0999 V2000
   -0.8482   -8.8367    3.7973 C   0  0  0  0  0  0  0  0  0  0  0  0
   -0.3613   -8.8858    5.2288 C   0  0  0  0  0  0  0  0  0  0  0  0
   -0.7853  -10.1866    5.8544 C   0  0  0  0  0  0  0  0  0  0  0  0
   -0.8490   -7.7259    6.0143 C   0  0  0  0  0  0  0  0  0  0  0  0
   -1.8882   -7.8451    6.8876 C   0  0  0  0  0  0  0  0  0  0  0  0
   -2.3626   -6.7609    7.6362 C   0  0  0  0  0  0  0  0  0  0  0  0
   -1.7068   -5.5614    7.4310 C   0  0  0  0  0  0  0  0  0  0  0  0
   -0.6546   -5.4120    6.5559 C   0  0  0  0  0  0  0  0  0  0  0  0
   -0.2281   -6.5144    5.8435 C   0  0  0  0  0  0  0  0  0  0  0  0
   -0.0152   -4.0751    6.4088 C   0  0  0  0  0  0  0  0  0  0  0  0
    0.1121   -3.8077    4.9200 C   0  0  0  0  0  0  0  0  0  0  0  0
    1.3996   -4.0808    6.9508 C   0  0  0  0  0  0  0  0  0  0  0  0
   -2.2009   -4.3788    8.2350 C   0  0  0  0  0  0  0  0  0  0  0  0
   -3.2647   -3.6292    7.7623 C   0  0  0  0  0  0  0  0  0  0  0  0
   -3.3899   -2.3911    9.1427 S   0  0  0  0  0  0  0  0  0  0  0  0
   -2.0343   -3.0700   10.0896 C   0  0  0  0  0  0  0  0  0  0  0  0
   -1.7034   -4.0217    9.3393 N   0  0  0  0  0  0  0  0  0  0  0  0
   -1.5536   -2.5859   11.3377 N   0  0  0  0  0  0  0  0  0  0  0  0
   -1.3336   -1.2451   11.7268 C   0  0  0  0  0  0  0  0  0  0  0  0
   -1.8271   -0.1424   10.8672 C   0  0  0  0  0  0  0  0  0  0  0  0
   -1.5687    1.1769   11.3021 N   0  0  0  0  0  0  0  0  0  0  0  0
   -1.9245    2.3143   10.5943 C   0  0  0  0  0  0  0  0  0  0  0  0
   -0.3411    1.2843   12.0649 C   0  0  0  0  0  0  0  0  0  0  0  0
   -1.1161   -3.6388   12.2699 C   0  0  0  0  0  0  0  0  0  0  0  0
    0.3295   -3.8859   12.1941 C   0  0  0  0  0  0  0  0  0  0  0  0
    1.1429   -3.1942   11.3159 C   0  0  0  0  0  0  0  0  0  0  0  0
    2.4668   -3.4257   11.2524 N   0  0  0  0  0  0  0  0  0  0  0  0
    3.1064   -4.3260   12.0151 C   0  0  0  0  0  0  0  0  0  0  0  0
    2.3326   -5.0486   12.9156 C   0  0  0  0  0  0  0  0  0  0  0  0
    0.9694   -4.8296   13.0006 C   0  0  0  0  0  0  0  0  0  0  0  0
   -3.4870   -6.8740    8.5871 C   0  0  0  0  0  0  0  0  0  0  0  0
   -3.6115   -8.2635    9.1738 C   0  0  0  0  0  0  0  0  0  0  0  0
   -4.7616   -6.6137    7.8080 C   0  0  0  0  0  0  0  0  0  0  0  0
  1  2  1  0
  2  3  1  0
  2  4  1  0
  4  5  2  0
  5  6  1  0
  6  7  2  0
  7  8  1  0
  8  9  2  0
  8 10  1  0
 10 11  1  0
 10 12  1  0
  7 13  1  0
 13 14  2  0
 14 15  1  0
 15 16  1  0
 16 17  2  0
 16 18  1  0
 18 19  1  0
 19 20  1  0
 20 21  1  0
 21 22  1  0
 21 23  1  0
 18 24  1  0
 24 25  1  0
 25 26  2  0
 26 27  1  0
 27 28  2  0
 28 29  1  0
 29 30  2  0
  6 31  1  0
 31 32  1  0
 31 33  1  0
  9  4  1  0
 17 13  1  0
 30 25  1  0
M  END
$$$$
