
     RDKit          3D

 33 35  0  0  0  0  0  0  0  0999 V2000
   -1.5890   -6.6069    1.6130 C   0  0  0  0  0  0  0  0  0  0  0  0
   -1.1247   -7.6475    2.6083 C   0  0  0  0  0  0  0  0  0  0  0  0
   -1.9951   -8.8692    2.4934 C   0  0  0  0  0  0  0  0  0  0  0  0
   -1.1198   -7.1177    3.9938 C   0  0  0  0  0  0  0  0  0  0  0  0
   -0.1636   -6.2444    4.4177 C   0  0  0  0  0  0  0  0  0  0  0  0
   -0.1427   -5.7353    5.7220 C   0  0  0  0  0  0  0  0  0  0  0  0
   -1.1566   -6.1769    6.5515 C   0  0  0  0  0  0  0  0  0  0  0  0
   -2.1353   -7.0581    6.1504 C   0  0  0  0  0  0  0  0  0  0  0  0
   -2.1074   -7.5284    4.8531 C   0  0  0  0  0  0  0  0  0  0  0  0
   -3.1849   -7.4710    7.1227 C   0  0  0  0  0  0  0  0  0  0  0  0
   -3.2295   -8.9883    7.1069 C   0  0  0  0  0  0  0  0  0  0  0  0
   -4.5580   -7.0120    6.6759 C   0  0  0  0  0  0  0  0  0  0  0  0
   -1.1548   -5.6337    7.9636 C   0  0  0  0  0  0  0  0  0  0  0  0
   -1.9931   -4.5815    8.2908 C   0  0  0  0  0  0  0  0  0  0  0  0
   -1.5492   -4.3978   10.0862 S   0  0  0  0  0  0  0  0  0  0  0  0
   -0.3506   -5.7239   10.0909 C   0  0  0  0  0  0  0  0  0  0  0  0
   -0.4289   -6.0887    8.8913 N   0  0  0  0  0  0  0  0  0  0  0  0
    0.4174   -6.1605   11.2057 N   0  0  0  0  0  0  0  0  0  0  0  0
    0.4809   -5.5912   12.4976 C   0  0  0  0  0  0  0  0  0  0  0  0
    1.7016   -4.8616   12.9175 C   0  0  0  0  0  0  0  0  0  0  0  0
    1.5692   -3.4775   13.1683 N   0  0  0  0  0  0  0  0  0  0  0  0
    1.1801   -2.9399   14.3852 C   0  0  0  0  0  0  0  0  0  0  0  0
    1.1373   -2.7359   12.0003 C   0  0  0  0  0  0  0  0  0  0  0  0
    1.3487   -7.2619   10.9078 C   0  0  0  0  0  0  0  0  0  0  0  0
    0.7004   -8.5772   10.9848 C   0  0  0  0  0  0  0  0  0  0  0  0
    0.3871   -9.3037    9.8511 C   0  0  0  0  0  0  0  0  0  0  0  0
   -0.2065  -10.5087    9.9295 N   0  0  0  0  0  0  0  0  0  0  0  0
   -0.5417  -11.1039   11.0849 C   0  0  0  0  0  0  0  0  0  0  0  0
   -0.2475  -10.4138   12.2549 C   0  0  0  0  0  0  0  0  0  0  0  0
    0.3625   -9.1735   12.2017 C   0  0  0  0  0  0  0  0  0  0  0  0
    0.8861   -4.7877    6.1963 C   0  0  0  0  0  0  0  0  0  0  0  0
    1.0821   -3.6240    5.2488 C   0  0  0  0  0  0  0  0  0  0  0  0
    2.2021   -5.5396    6.2417 C   0  0  0  0  0  0  0  0  0  0  0  0
  1  2  1  0
  2  3  1  0
  2  4  1  0
  4  5  2  0
  5  6  1  0
  6  7  2  0
  7  8  1  0
  8  9  2  0
  8 10  1  0
 10 11  1  0
 10 12  1  0
  7 13  1  0
 13 14  2  0
 14 15  1  0
 15 16  1  0
 16 17  2  0
 16 18  1  0
 18 19  1  0
 19 20  1  0
 20 21  1  0
 21 22  1  0
 21 23  1  0
 18 24  1  0
 24 25  1  0
 25 26  2  0
 26 27  1  0
 27 28  2  0
 28 29  1  0
 29 30  2  0
  6 31  1  0
 31 32  1  0
 31 33  1  0
  9  4  1  0
 17 13  1  0
 30 25  1  0
M  END
$$$$
