
     RDKit          3D

 33 35  0  0  0  0  0  0  0  0999 V2000
   -5.3289  -10.0821    5.1950 C   0  0  0  0  0  0  0  0  0  0  0  0
   -4.4267   -9.1472    4.4198 C   0  0  0  0  0  0  0  0  0  0  0  0
   -3.4871   -9.9555    3.5672 C   0  0  0  0  0  0  0  0  0  0  0  0
   -3.6846   -8.2300    5.3189 C   0  0  0  0  0  0  0  0  0  0  0  0
   -2.3361   -8.0664    5.2119 C   0  0  0  0  0  0  0  0  0  0  0  0
   -1.6193   -7.2061    6.0527 C   0  0  0  0  0  0  0  0  0  0  0  0
   -2.3701   -6.5334    6.9986 C   0  0  0  0  0  0  0  0  0  0  0  0
   -3.7328   -6.6791    7.1294 C   0  0  0  0  0  0  0  0  0  0  0  0
   -4.3887   -7.5408    6.2738 C   0  0  0  0  0  0  0  0  0  0  0  0
   -4.4491   -5.9066    8.1820 C   0  0  0  0  0  0  0  0  0  0  0  0
   -4.9064   -6.9059    9.2291 C   0  0  0  0  0  0  0  0  0  0  0  0
   -5.7121   -5.2737    7.6344 C   0  0  0  0  0  0  0  0  0  0  0  0
   -1.6145   -5.5945    7.9133 C   0  0  0  0  0  0  0  0  0  0  0  0
   -1.4109   -4.2811    7.5253 C   0  0  0  0  0  0  0  0  0  0  0  0
   -0.4780   -3.6747    9.0139 S   0  0  0  0  0  0  0  0  0  0  0  0
   -0.5190   -5.2398    9.8765 C   0  0  0  0  0  0  0  0  0  0  0  0
   -1.1504   -5.9306    9.0385 N   0  0  0  0  0  0  0  0  0  0  0  0
    0.0389   -5.5104   11.1567 N   0  0  0  0  0  0  0  0  0  0  0  0
    1.0425   -4.7880   11.8410 C   0  0  0  0  0  0  0  0  0  0  0  0
    0.8896   -3.3259   12.0349 C   0  0  0  0  0  0  0  0  0  0  0  0
    2.0187   -2.6179   12.5040 N   0  0  0  0  0  0  0  0  0  0  0  0
    2.9238   -3.1180   13.4270 C   0  0  0  0  0  0  0  0  0  0  0  0
    1.7932   -1.1879   12.5742 C   0  0  0  0  0  0  0  0  0  0  0  0
   -0.4092   -6.7774   11.7591 C   0  0  0  0  0  0  0  0  0  0  0  0
    0.3628   -7.9291   11.2754 C   0  0  0  0  0  0  0  0  0  0  0  0
    1.5168   -7.7730   10.5303 C   0  0  0  0  0  0  0  0  0  0  0  0
    2.2192   -8.8331   10.0908 N   0  0  0  0  0  0  0  0  0  0  0  0
    1.8756  -10.1087   10.3278 C   0  0  0  0  0  0  0  0  0  0  0  0
    0.7219  -10.3197   11.0736 C   0  0  0  0  0  0  0  0  0  0  0  0
   -0.0182   -9.2470   11.5371 C   0  0  0  0  0  0  0  0  0  0  0  0
   -0.1582   -7.0171    5.9488 C   0  0  0  0  0  0  0  0  0  0  0  0
    0.3015   -6.8328    4.5187 C   0  0  0  0  0  0  0  0  0  0  0  0
    0.4959   -8.2873    6.4568 C   0  0  0  0  0  0  0  0  0  0  0  0
  1  2  1  0
  2  3  1  0
  2  4  1  0
  4  5  2  0
  5  6  1  0
  6  7  2  0
  7  8  1  0
  8  9  2  0
  8 10  1  0
 10 11  1  0
 10 12  1  0
  7 13  1  0
 13 14  2  0
 14 15  1  0
 15 16  1  0
 16 17  2  0
 16 18  1  0
 18 19  1  0
 19 20  1  0
 20 21  1  0
 21 22  1  0
 21 23  1  0
 18 24  1  0
 24 25  1  0
 25 26  2  0
 26 27  1  0
 27 28  2  0
 28 29  1  0
 29 30  2  0
  6 31  1  0
 31 32  1  0
 31 33  1  0
  9  4  1  0
 17 13  1  0
 30 25  1  0
M  END
$$$$
