
     RDKit          3D

 33 35  0  0  0  0  0  0  0  0999 V2000
   -0.9408  -11.0336    5.0958 C   0  0  0  0  0  0  0  0  0  0  0  0
   -0.5217   -9.7088    4.4972 C   0  0  0  0  0  0  0  0  0  0  0  0
    0.7222   -9.9058    3.6744 C   0  0  0  0  0  0  0  0  0  0  0  0
   -0.3191   -8.6747    5.5412 C   0  0  0  0  0  0  0  0  0  0  0  0
   -0.6201   -8.9154    6.8482 C   0  0  0  0  0  0  0  0  0  0  0  0
   -0.4365   -7.9508    7.8466 C   0  0  0  0  0  0  0  0  0  0  0  0
    0.0707   -6.7380    7.4188 C   0  0  0  0  0  0  0  0  0  0  0  0
    0.3837   -6.4673    6.1058 C   0  0  0  0  0  0  0  0  0  0  0  0
    0.1825   -7.4550    5.1630 C   0  0  0  0  0  0  0  0  0  0  0  0
    0.9263   -5.1271    5.7490 C   0  0  0  0  0  0  0  0  0  0  0  0
   -0.0979   -4.4616    4.8477 C   0  0  0  0  0  0  0  0  0  0  0  0
    2.1892   -5.2491    4.9209 C   0  0  0  0  0  0  0  0  0  0  0  0
    0.2817   -5.6842    8.4837 C   0  0  0  0  0  0  0  0  0  0  0  0
    1.4359   -5.7083    9.2480 C   0  0  0  0  0  0  0  0  0  0  0  0
    1.1158   -4.2193   10.3132 S   0  0  0  0  0  0  0  0  0  0  0  0
   -0.4645   -3.8307    9.5736 C   0  0  0  0  0  0  0  0  0  0  0  0
   -0.5386   -4.7553    8.7264 N   0  0  0  0  0  0  0  0  0  0  0  0
   -1.3146   -2.7458    9.9253 N   0  0  0  0  0  0  0  0  0  0  0  0
   -1.3450   -2.0190   11.1370 C   0  0  0  0  0  0  0  0  0  0  0  0
   -0.2303   -1.0988   11.4676 C   0  0  0  0  0  0  0  0  0  0  0  0
    0.0893   -0.9409   12.8347 N   0  0  0  0  0  0  0  0  0  0  0  0
    0.5574   -1.9609   13.6483 C   0  0  0  0  0  0  0  0  0  0  0  0
   -0.7488    0.0395   13.4958 C   0  0  0  0  0  0  0  0  0  0  0  0
   -2.3675   -2.4542    8.9377 C   0  0  0  0  0  0  0  0  0  0  0  0
   -3.5676   -3.2754    9.1425 C   0  0  0  0  0  0  0  0  0  0  0  0
   -3.8758   -3.8227   10.3741 C   0  0  0  0  0  0  0  0  0  0  0  0
   -4.9775   -4.5737   10.5544 N   0  0  0  0  0  0  0  0  0  0  0  0
   -5.8583   -4.8554    9.5817 C   0  0  0  0  0  0  0  0  0  0  0  0
   -5.5937   -4.3281    8.3233 C   0  0  0  0  0  0  0  0  0  0  0  0
   -4.4680   -3.5528    8.1116 C   0  0  0  0  0  0  0  0  0  0  0  0
   -0.7570   -8.1964    9.2672 C   0  0  0  0  0  0  0  0  0  0  0  0
    0.2809   -9.0571    9.9544 C   0  0  0  0  0  0  0  0  0  0  0  0
   -2.0604   -8.9704    9.3060 C   0  0  0  0  0  0  0  0  0  0  0  0
  1  2  1  0
  2  3  1  0
  2  4  1  0
  4  5  2  0
  5  6  1  0
  6  7  2  0
  7  8  1  0
  8  9  2  0
  8 10  1  0
 10 11  1  0
 10 12  1  0
  7 13  1  0
 13 14  2  0
 14 15  1  0
 15 16  1  0
 16 17  2  0
 16 18  1  0
 18 19  1  0
 19 20  1  0
 20 21  1  0
 21 22  1  0
 21 23  1  0
 18 24  1  0
 24 25  1  0
 25 26  2  0
 26 27  1  0
 27 28  2  0
 28 29  1  0
 29 30  2  0
  6 31  1  0
 31 32  1  0
 31 33  1  0
  9  4  1  0
 17 13  1  0
 30 25  1  0
M  END
$$$$
