
     RDKit          3D

 33 35  0  0  0  0  0  0  0  0999 V2000
   -4.0905   -1.2005  -20.8632 C   0  0  0  0  0  0  0  0  0  0  0  0
   -5.5412   -1.6081  -20.9975 C   0  0  0  0  0  0  0  0  0  0  0  0
   -6.1964   -0.7722  -22.0631 C   0  0  0  0  0  0  0  0  0  0  0  0
   -6.2637   -1.4984  -19.7067 C   0  0  0  0  0  0  0  0  0  0  0  0
   -7.3464   -0.6833  -19.5649 C   0  0  0  0  0  0  0  0  0  0  0  0
   -8.0396   -0.5665  -18.3538 C   0  0  0  0  0  0  0  0  0  0  0  0
   -7.5531   -1.3329  -17.3112 C   0  0  0  0  0  0  0  0  0  0  0  0
   -6.4621   -2.1647  -17.4259 C   0  0  0  0  0  0  0  0  0  0  0  0
   -5.8165   -2.2411  -18.6432 C   0  0  0  0  0  0  0  0  0  0  0  0
   -6.0185   -2.9498  -16.2407 C   0  0  0  0  0  0  0  0  0  0  0  0
   -4.6403   -2.4382  -15.8626 C   0  0  0  0  0  0  0  0  0  0  0  0
   -5.8357   -4.4130  -16.5889 C   0  0  0  0  0  0  0  0  0  0  0  0
   -8.2921   -1.2250  -15.9954 C   0  0  0  0  0  0  0  0  0  0  0  0
   -9.2029   -2.2061  -15.6420 C   0  0  0  0  0  0  0  0  0  0  0  0
   -9.7345   -1.5350  -13.9924 S   0  0  0  0  0  0  0  0  0  0  0  0
   -8.6760   -0.0960  -14.0568 C   0  0  0  0  0  0  0  0  0  0  0  0
   -8.1275   -0.2823  -15.1716 N   0  0  0  0  0  0  0  0  0  0  0  0
   -8.5652    0.9129  -13.0602 N   0  0  0  0  0  0  0  0  0  0  0  0
   -9.0998    0.9088  -11.7519 C   0  0  0  0  0  0  0  0  0  0  0  0
  -10.3143    0.1102  -11.4592 C   0  0  0  0  0  0  0  0  0  0  0  0
  -10.7443    0.0632  -10.1142 N   0  0  0  0  0  0  0  0  0  0  0  0
   -9.9213    0.3001   -9.0244 C   0  0  0  0  0  0  0  0  0  0  0  0
  -11.7911   -0.9151   -9.8951 C   0  0  0  0  0  0  0  0  0  0  0  0
   -7.9228    2.1551  -13.5220 C   0  0  0  0  0  0  0  0  0  0  0  0
   -6.4750    2.1593  -13.2764 C   0  0  0  0  0  0  0  0  0  0  0  0
   -5.8299    3.2562  -12.7361 C   0  0  0  0  0  0  0  0  0  0  0  0
   -4.5029    3.2527  -12.5134 N   0  0  0  0  0  0  0  0  0  0  0  0
   -3.7011    2.2118  -12.7872 C   0  0  0  0  0  0  0  0  0  0  0  0
   -4.3016    1.0832  -13.3324 C   0  0  0  0  0  0  0  0  0  0  0  0
   -5.6640    1.0612  -13.5711 C   0  0  0  0  0  0  0  0  0  0  0  0
   -9.2150    0.3116  -18.1844 C   0  0  0  0  0  0  0  0  0  0  0  0
  -10.1624    0.2445  -19.3626 C   0  0  0  0  0  0  0  0  0  0  0  0
   -8.7039    1.7376  -18.1163 C   0  0  0  0  0  0  0  0  0  0  0  0
  1  2  1  0
  2  3  1  0
  2  4  1  0
  4  5  2  0
  5  6  1  0
  6  7  2  0
  7  8  1  0
  8  9  2  0
  8 10  1  0
 10 11  1  0
 10 12  1  0
  7 13  1  0
 13 14  2  0
 14 15  1  0
 15 16  1  0
 16 17  2  0
 16 18  1  0
 18 19  1  0
 19 20  1  0
 20 21  1  0
 21 22  1  0
 21 23  1  0
 18 24  1  0
 24 25  1  0
 25 26  2  0
 26 27  1  0
 27 28  2  0
 28 29  1  0
 29 30  2  0
  6 31  1  0
 31 32  1  0
 31 33  1  0
  9  4  1  0
 17 13  1  0
 30 25  1  0
M  END
$$$$
