
     RDKit          3D

 33 35  0  0  0  0  0  0  0  0999 V2000
   -2.3430   -9.8350    6.4454 C   0  0  0  0  0  0  0  0  0  0  0  0
   -1.4080   -8.9030    5.7065 C   0  0  0  0  0  0  0  0  0  0  0  0
   -0.1945   -9.6696    5.2560 C   0  0  0  0  0  0  0  0  0  0  0  0
   -1.0291   -7.7340    6.5372 C   0  0  0  0  0  0  0  0  0  0  0  0
   -1.3654   -6.4645    6.1738 C   0  0  0  0  0  0  0  0  0  0  0  0
   -1.0151   -5.3494    6.9449 C   0  0  0  0  0  0  0  0  0  0  0  0
   -0.3056   -5.6213    8.0998 C   0  0  0  0  0  0  0  0  0  0  0  0
    0.0474   -6.8930    8.4915 C   0  0  0  0  0  0  0  0  0  0  0  0
   -0.3239   -7.9557    7.6931 C   0  0  0  0  0  0  0  0  0  0  0  0
    0.8123   -7.0785    9.7558 C   0  0  0  0  0  0  0  0  0  0  0  0
    2.1393   -7.7127    9.3803 C   0  0  0  0  0  0  0  0  0  0  0  0
    0.1247   -8.0694   10.6728 C   0  0  0  0  0  0  0  0  0  0  0  0
    0.0775   -4.4299    8.9499 C   0  0  0  0  0  0  0  0  0  0  0  0
    1.1563   -3.6455    8.5784 C   0  0  0  0  0  0  0  0  0  0  0  0
    1.1033   -2.3991    9.9560 S   0  0  0  0  0  0  0  0  0  0  0  0
   -0.3143   -3.1216   10.7706 C   0  0  0  0  0  0  0  0  0  0  0  0
   -0.5374   -4.0868    9.9980 N   0  0  0  0  0  0  0  0  0  0  0  0
   -0.9353   -2.6463   11.9588 N   0  0  0  0  0  0  0  0  0  0  0  0
   -0.3161   -2.1374   13.1228 C   0  0  0  0  0  0  0  0  0  0  0  0
   -0.0002   -0.6914   13.2121 C   0  0  0  0  0  0  0  0  0  0  0  0
    0.8210   -0.2777   14.2848 N   0  0  0  0  0  0  0  0  0  0  0  0
    2.1660    0.0339   14.1611 C   0  0  0  0  0  0  0  0  0  0  0  0
    0.4419   -0.8832   15.5458 C   0  0  0  0  0  0  0  0  0  0  0  0
   -2.3941   -2.8442   12.0027 C   0  0  0  0  0  0  0  0  0  0  0  0
   -3.1139   -1.8777   11.1635 C   0  0  0  0  0  0  0  0  0  0  0  0
   -2.4567   -0.8664   10.4878 C   0  0  0  0  0  0  0  0  0  0  0  0
   -3.1228    0.0153    9.7202 N   0  0  0  0  0  0  0  0  0  0  0  0
   -4.4531   -0.0028    9.5424 C   0  0  0  0  0  0  0  0  0  0  0  0
   -5.1608   -1.0012   10.2011 C   0  0  0  0  0  0  0  0  0  0  0  0
   -4.4997   -1.9201   10.9961 C   0  0  0  0  0  0  0  0  0  0  0  0
   -1.3728   -3.9677    6.5651 C   0  0  0  0  0  0  0  0  0  0  0  0
   -2.8516   -3.6881    6.7237 C   0  0  0  0  0  0  0  0  0  0  0  0
   -1.0549   -3.8108    5.0908 C   0  0  0  0  0  0  0  0  0  0  0  0
  1  2  1  0
  2  3  1  0
  2  4  1  0
  4  5  2  0
  5  6  1  0
  6  7  2  0
  7  8  1  0
  8  9  2  0
  8 10  1  0
 10 11  1  0
 10 12  1  0
  7 13  1  0
 13 14  2  0
 14 15  1  0
 15 16  1  0
 16 17  2  0
 16 18  1  0
 18 19  1  0
 19 20  1  0
 20 21  1  0
 21 22  1  0
 21 23  1  0
 18 24  1  0
 24 25  1  0
 25 26  2  0
 26 27  1  0
 27 28  2  0
 28 29  1  0
 29 30  2  0
  6 31  1  0
 31 32  1  0
 31 33  1  0
  9  4  1  0
 17 13  1  0
 30 25  1  0
M  END
$$$$
