
     RDKit          3D

 33 35  0  0  0  0  0  0  0  0999 V2000
    4.4816   -6.1014    4.8963 C   0  0  0  0  0  0  0  0  0  0  0  0
    3.6238   -4.8724    4.6900 C   0  0  0  0  0  0  0  0  0  0  0  0
    4.3305   -3.6713    5.2569 C   0  0  0  0  0  0  0  0  0  0  0  0
    2.2765   -5.0370    5.2884 C   0  0  0  0  0  0  0  0  0  0  0  0
    1.4055   -5.9796    4.8304 C   0  0  0  0  0  0  0  0  0  0  0  0
    0.1296   -6.1483    5.3823 C   0  0  0  0  0  0  0  0  0  0  0  0
   -0.1882   -5.2954    6.4228 C   0  0  0  0  0  0  0  0  0  0  0  0
    0.6715   -4.3346    6.9058 C   0  0  0  0  0  0  0  0  0  0  0  0
    1.9171   -4.2122    6.3242 C   0  0  0  0  0  0  0  0  0  0  0  0
    0.2320   -3.4658    8.0327 C   0  0  0  0  0  0  0  0  0  0  0  0
    0.9378   -2.1325    7.8638 C   0  0  0  0  0  0  0  0  0  0  0  0
    0.6999   -4.0161    9.3645 C   0  0  0  0  0  0  0  0  0  0  0  0
   -1.5605   -5.4655    7.0365 C   0  0  0  0  0  0  0  0  0  0  0  0
   -2.5604   -4.5567    6.7343 C   0  0  0  0  0  0  0  0  0  0  0  0
   -3.9395   -5.2890    7.7422 S   0  0  0  0  0  0  0  0  0  0  0  0
   -2.9683   -6.6483    8.3780 C   0  0  0  0  0  0  0  0  0  0  0  0
   -1.8690   -6.4065    7.8199 N   0  0  0  0  0  0  0  0  0  0  0  0
   -3.4218   -7.6657    9.2625 N   0  0  0  0  0  0  0  0  0  0  0  0
   -4.6315   -7.7116    9.9919 C   0  0  0  0  0  0  0  0  0  0  0  0
   -5.3841   -6.4588   10.2421 C   0  0  0  0  0  0  0  0  0  0  0  0
   -6.7945   -6.5421   10.2279 N   0  0  0  0  0  0  0  0  0  0  0  0
   -7.6397   -5.4438   10.2051 C   0  0  0  0  0  0  0  0  0  0  0  0
   -7.2947   -7.6899   10.9579 C   0  0  0  0  0  0  0  0  0  0  0  0
   -2.4316   -8.7220    9.5322 C   0  0  0  0  0  0  0  0  0  0  0  0
   -2.6197   -9.8964    8.6708 C   0  0  0  0  0  0  0  0  0  0  0  0
   -2.7854   -9.7791    7.3033 C   0  0  0  0  0  0  0  0  0  0  0  0
   -2.9567  -10.8598    6.5203 N   0  0  0  0  0  0  0  0  0  0  0  0
   -2.9823  -12.1205    6.9801 C   0  0  0  0  0  0  0  0  0  0  0  0
   -2.8199  -12.2925    8.3496 C   0  0  0  0  0  0  0  0  0  0  0  0
   -2.6420  -11.1980    9.1765 C   0  0  0  0  0  0  0  0  0  0  0  0
   -0.8253   -7.1655    4.8979 C   0  0  0  0  0  0  0  0  0  0  0  0
   -0.2588   -8.5675    4.9604 C   0  0  0  0  0  0  0  0  0  0  0  0
   -1.0940   -6.8685    3.4354 C   0  0  0  0  0  0  0  0  0  0  0  0
  1  2  1  0
  2  3  1  0
  2  4  1  0
  4  5  2  0
  5  6  1  0
  6  7  2  0
  7  8  1  0
  8  9  2  0
  8 10  1  0
 10 11  1  0
 10 12  1  0
  7 13  1  0
 13 14  2  0
 14 15  1  0
 15 16  1  0
 16 17  2  0
 16 18  1  0
 18 19  1  0
 19 20  1  0
 20 21  1  0
 21 22  1  0
 21 23  1  0
 18 24  1  0
 24 25  1  0
 25 26  2  0
 26 27  1  0
 27 28  2  0
 28 29  1  0
 29 30  2  0
  6 31  1  0
 31 32  1  0
 31 33  1  0
  9  4  1  0
 17 13  1  0
 30 25  1  0
M  END
$$$$
