
     RDKit          3D

 33 35  0  0  0  0  0  0  0  0999 V2000
   -5.3722   -7.8507    4.0885 C   0  0  0  0  0  0  0  0  0  0  0  0
   -5.2762   -8.8526    5.2181 C   0  0  0  0  0  0  0  0  0  0  0  0
   -6.6203   -8.9859    5.8806 C   0  0  0  0  0  0  0  0  0  0  0  0
   -4.2277   -8.4762    6.1976 C   0  0  0  0  0  0  0  0  0  0  0  0
   -2.9033   -8.5541    5.8865 C   0  0  0  0  0  0  0  0  0  0  0  0
   -1.9002   -8.2043    6.7988 C   0  0  0  0  0  0  0  0  0  0  0  0
   -2.3421   -7.7742    8.0360 C   0  0  0  0  0  0  0  0  0  0  0  0
   -3.6728   -7.6854    8.3775 C   0  0  0  0  0  0  0  0  0  0  0  0
   -4.6194   -8.0433    7.4392 C   0  0  0  0  0  0  0  0  0  0  0  0
   -4.0440   -7.2084    9.7385 C   0  0  0  0  0  0  0  0  0  0  0  0
   -5.0407   -8.2064   10.2998 C   0  0  0  0  0  0  0  0  0  0  0  0
   -4.7762   -5.8834    9.6749 C   0  0  0  0  0  0  0  0  0  0  0  0
   -1.2734   -7.3860    9.0341 C   0  0  0  0  0  0  0  0  0  0  0  0
   -0.6698   -8.3665    9.8032 C   0  0  0  0  0  0  0  0  0  0  0  0
    0.5042   -7.3004   10.7724 S   0  0  0  0  0  0  0  0  0  0  0  0
   -0.0003   -5.7675   10.0036 C   0  0  0  0  0  0  0  0  0  0  0  0
   -0.8772   -6.2008    9.2153 N   0  0  0  0  0  0  0  0  0  0  0  0
    0.5207   -4.4739   10.2836 N   0  0  0  0  0  0  0  0  0  0  0  0
    0.0147   -3.2213    9.8684 C   0  0  0  0  0  0  0  0  0  0  0  0
   -0.5465   -3.0737    8.5039 C   0  0  0  0  0  0  0  0  0  0  0  0
   -1.2340   -1.8730    8.2178 N   0  0  0  0  0  0  0  0  0  0  0  0
   -2.3831   -1.7980    7.4464 C   0  0  0  0  0  0  0  0  0  0  0  0
   -0.3473   -0.7311    8.1158 C   0  0  0  0  0  0  0  0  0  0  0  0
    1.8177   -4.4793   10.9813 C   0  0  0  0  0  0  0  0  0  0  0  0
    1.7111   -3.9896   12.3616 C   0  0  0  0  0  0  0  0  0  0  0  0
    2.6769   -3.1755   12.9236 C   0  0  0  0  0  0  0  0  0  0  0  0
    2.5721   -2.7301   14.1889 N   0  0  0  0  0  0  0  0  0  0  0  0
    1.5475   -3.0259   15.0038 C   0  0  0  0  0  0  0  0  0  0  0  0
    0.5489   -3.8421   14.4858 C   0  0  0  0  0  0  0  0  0  0  0  0
    0.6328   -4.3132   13.1879 C   0  0  0  0  0  0  0  0  0  0  0  0
   -0.4609   -8.2824    6.4766 C   0  0  0  0  0  0  0  0  0  0  0  0
   -0.1829   -8.0473    5.0077 C   0  0  0  0  0  0  0  0  0  0  0  0
   -0.0079   -9.6961    6.7855 C   0  0  0  0  0  0  0  0  0  0  0  0
  1  2  1  0
  2  3  1  0
  2  4  1  0
  4  5  2  0
  5  6  1  0
  6  7  2  0
  7  8  1  0
  8  9  2  0
  8 10  1  0
 10 11  1  0
 10 12  1  0
  7 13  1  0
 13 14  2  0
 14 15  1  0
 15 16  1  0
 16 17  2  0
 16 18  1  0
 18 19  1  0
 19 20  1  0
 20 21  1  0
 21 22  1  0
 21 23  1  0
 18 24  1  0
 24 25  1  0
 25 26  2  0
 26 27  1  0
 27 28  2  0
 28 29  1  0
 29 30  2  0
  6 31  1  0
 31 32  1  0
 31 33  1  0
  9  4  1  0
 17 13  1  0
 30 25  1  0
M  END
$$$$
