
     RDKit          3D

 33 35  0  0  0  0  0  0  0  0999 V2000
   -3.4236   -9.5507    3.1003 C   0  0  0  0  0  0  0  0  0  0  0  0
   -3.4314   -8.0604    3.3612 C   0  0  0  0  0  0  0  0  0  0  0  0
   -2.5592   -7.3730    2.3463 C   0  0  0  0  0  0  0  0  0  0  0  0
   -3.0008   -7.7434    4.7448 C   0  0  0  0  0  0  0  0  0  0  0  0
   -3.8841   -7.2898    5.6780 C   0  0  0  0  0  0  0  0  0  0  0  0
   -3.4950   -6.9844    6.9880 C   0  0  0  0  0  0  0  0  0  0  0  0
   -2.1555   -7.1737    7.2724 C   0  0  0  0  0  0  0  0  0  0  0  0
   -1.2413   -7.6306    6.3500 C   0  0  0  0  0  0  0  0  0  0  0  0
   -1.6798   -7.9161    5.0730 C   0  0  0  0  0  0  0  0  0  0  0  0
    0.1806   -7.8014    6.7585 C   0  0  0  0  0  0  0  0  0  0  0  0
    1.0044   -6.8656    5.8924 C   0  0  0  0  0  0  0  0  0  0  0  0
    0.6771   -9.1984    6.4467 C   0  0  0  0  0  0  0  0  0  0  0  0
   -1.7163   -6.8547    8.6846 C   0  0  0  0  0  0  0  0  0  0  0  0
   -1.9163   -7.7872    9.6883 C   0  0  0  0  0  0  0  0  0  0  0  0
   -1.1855   -6.8466   11.1151 S   0  0  0  0  0  0  0  0  0  0  0  0
   -0.7498   -5.4062   10.1503 C   0  0  0  0  0  0  0  0  0  0  0  0
   -1.1589   -5.7725    9.0204 N   0  0  0  0  0  0  0  0  0  0  0  0
   -0.1139   -4.2296   10.6344 N   0  0  0  0  0  0  0  0  0  0  0  0
    0.1822   -3.0436    9.9252 C   0  0  0  0  0  0  0  0  0  0  0  0
   -0.6433   -1.8319   10.1468 C   0  0  0  0  0  0  0  0  0  0  0  0
   -1.0292   -1.0985    9.0024 N   0  0  0  0  0  0  0  0  0  0  0  0
   -2.1651   -1.3636    8.2537 C   0  0  0  0  0  0  0  0  0  0  0  0
    0.1041   -0.6007    8.2484 C   0  0  0  0  0  0  0  0  0  0  0  0
    0.4052   -4.3410   12.0082 C   0  0  0  0  0  0  0  0  0  0  0  0
    1.6876   -5.0542   12.0640 C   0  0  0  0  0  0  0  0  0  0  0  0
    2.3280   -5.4945   10.9207 C   0  0  0  0  0  0  0  0  0  0  0  0
    3.5032   -6.1470   10.9796 N   0  0  0  0  0  0  0  0  0  0  0  0
    4.1482   -6.4249   12.1234 C   0  0  0  0  0  0  0  0  0  0  0  0
    3.5453   -6.0030   13.3024 C   0  0  0  0  0  0  0  0  0  0  0  0
    2.3372   -5.3302   13.2692 C   0  0  0  0  0  0  0  0  0  0  0  0
   -4.4401   -6.4929    8.0110 C   0  0  0  0  0  0  0  0  0  0  0  0
   -5.8412   -7.0285    7.8098 C   0  0  0  0  0  0  0  0  0  0  0  0
   -4.5231   -4.9865    7.8585 C   0  0  0  0  0  0  0  0  0  0  0  0
  1  2  1  0
  2  3  1  0
  2  4  1  0
  4  5  2  0
  5  6  1  0
  6  7  2  0
  7  8  1  0
  8  9  2  0
  8 10  1  0
 10 11  1  0
 10 12  1  0
  7 13  1  0
 13 14  2  0
 14 15  1  0
 15 16  1  0
 16 17  2  0
 16 18  1  0
 18 19  1  0
 19 20  1  0
 20 21  1  0
 21 22  1  0
 21 23  1  0
 18 24  1  0
 24 25  1  0
 25 26  2  0
 26 27  1  0
 27 28  2  0
 28 29  1  0
 29 30  2  0
  6 31  1  0
 31 32  1  0
 31 33  1  0
  9  4  1  0
 17 13  1  0
 30 25  1  0
M  END
$$$$
