
     RDKit          3D

 33 35  0  0  0  0  0  0  0  0999 V2000
   -3.5336   -7.4631  -13.9329 C   0  0  0  0  0  0  0  0  0  0  0  0
   -3.4121   -6.6170  -12.6846 C   0  0  0  0  0  0  0  0  0  0  0  0
   -2.8024   -7.4401  -11.5828 C   0  0  0  0  0  0  0  0  0  0  0  0
   -4.7214   -6.0531  -12.2746 C   0  0  0  0  0  0  0  0  0  0  0  0
   -5.7380   -5.8937  -13.1678 C   0  0  0  0  0  0  0  0  0  0  0  0
   -6.9798   -5.3621  -12.7987 C   0  0  0  0  0  0  0  0  0  0  0  0
   -7.1066   -5.0097  -11.4680 C   0  0  0  0  0  0  0  0  0  0  0  0
   -6.0970   -5.1597  -10.5440 C   0  0  0  0  0  0  0  0  0  0  0  0
   -4.8933   -5.6890  -10.9629 C   0  0  0  0  0  0  0  0  0  0  0  0
   -6.3363   -4.7494   -9.1325 C   0  0  0  0  0  0  0  0  0  0  0  0
   -5.3684   -3.6196   -8.8308 C   0  0  0  0  0  0  0  0  0  0  0  0
   -5.9836   -5.8647   -8.1696 C   0  0  0  0  0  0  0  0  0  0  0  0
   -8.4431   -4.4385  -11.0480 C   0  0  0  0  0  0  0  0  0  0  0  0
   -9.4255   -5.2859  -10.5644 C   0  0  0  0  0  0  0  0  0  0  0  0
  -10.7562   -4.0331  -10.2272 S   0  0  0  0  0  0  0  0  0  0  0  0
   -9.7963   -2.6287  -10.7764 C   0  0  0  0  0  0  0  0  0  0  0  0
   -8.7314   -3.2103  -11.1019 N   0  0  0  0  0  0  0  0  0  0  0  0
  -10.2224   -1.2717  -10.7914 N   0  0  0  0  0  0  0  0  0  0  0  0
  -11.5431   -0.7731  -10.8574 C   0  0  0  0  0  0  0  0  0  0  0  0
  -11.8994    0.2219  -11.8975 C   0  0  0  0  0  0  0  0  0  0  0  0
  -13.2397    0.6682  -11.9282 N   0  0  0  0  0  0  0  0  0  0  0  0
  -14.3106   -0.1096  -12.3398 C   0  0  0  0  0  0  0  0  0  0  0  0
  -13.3522    2.0814  -12.2297 C   0  0  0  0  0  0  0  0  0  0  0  0
   -9.1266   -0.2918  -10.8813 C   0  0  0  0  0  0  0  0  0  0  0  0
   -8.5438   -0.2283  -12.2276 C   0  0  0  0  0  0  0  0  0  0  0  0
   -9.1092   -0.8935  -13.2996 C   0  0  0  0  0  0  0  0  0  0  0  0
   -8.5699   -0.8302  -14.5306 N   0  0  0  0  0  0  0  0  0  0  0  0
   -7.4614   -0.1339  -14.8269 C   0  0  0  0  0  0  0  0  0  0  0  0
   -6.8541    0.5535  -13.7827 C   0  0  0  0  0  0  0  0  0  0  0  0
   -7.3886    0.5048  -12.5079 C   0  0  0  0  0  0  0  0  0  0  0  0
   -8.0915   -5.1838  -13.7545 C   0  0  0  0  0  0  0  0  0  0  0  0
   -8.3759   -6.4381  -14.5522 C   0  0  0  0  0  0  0  0  0  0  0  0
   -7.6628   -4.1224  -14.7489 C   0  0  0  0  0  0  0  0  0  0  0  0
  1  2  1  0
  2  3  1  0
  2  4  1  0
  4  5  2  0
  5  6  1  0
  6  7  2  0
  7  8  1  0
  8  9  2  0
  8 10  1  0
 10 11  1  0
 10 12  1  0
  7 13  1  0
 13 14  2  0
 14 15  1  0
 15 16  1  0
 16 17  2  0
 16 18  1  0
 18 19  1  0
 19 20  1  0
 20 21  1  0
 21 22  1  0
 21 23  1  0
 18 24  1  0
 24 25  1  0
 25 26  2  0
 26 27  1  0
 27 28  2  0
 28 29  1  0
 29 30  2  0
  6 31  1  0
 31 32  1  0
 31 33  1  0
  9  4  1  0
 17 13  1  0
 30 25  1  0
M  END
$$$$
