
     RDKit          3D

 33 35  0  0  0  0  0  0  0  0999 V2000
   -1.2787   -7.7626    4.3850 C   0  0  0  0  0  0  0  0  0  0  0  0
   -1.5586   -6.2812    4.5108 C   0  0  0  0  0  0  0  0  0  0  0  0
   -0.6490   -5.5222    3.5835 C   0  0  0  0  0  0  0  0  0  0  0  0
   -1.4138   -5.8124    5.9107 C   0  0  0  0  0  0  0  0  0  0  0  0
   -0.1890   -5.6804    6.4931 C   0  0  0  0  0  0  0  0  0  0  0  0
   -0.0335   -5.2407    7.8135 C   0  0  0  0  0  0  0  0  0  0  0  0
   -1.2048   -4.9490    8.4873 C   0  0  0  0  0  0  0  0  0  0  0  0
   -2.4549   -5.0729    7.9243 C   0  0  0  0  0  0  0  0  0  0  0  0
   -2.5495   -5.5109    6.6189 C   0  0  0  0  0  0  0  0  0  0  0  0
   -3.6554   -4.7315    8.7367 C   0  0  0  0  0  0  0  0  0  0  0  0
   -4.5083   -5.9850    8.8129 C   0  0  0  0  0  0  0  0  0  0  0  0
   -4.5102   -3.6910    8.0422 C   0  0  0  0  0  0  0  0  0  0  0  0
   -1.0576   -4.4667    9.9138 C   0  0  0  0  0  0  0  0  0  0  0  0
   -0.8909   -5.3898   10.9322 C   0  0  0  0  0  0  0  0  0  0  0  0
   -0.7631   -4.2213   12.3718 S   0  0  0  0  0  0  0  0  0  0  0  0
   -0.9498   -2.7386   11.3910 C   0  0  0  0  0  0  0  0  0  0  0  0
   -1.0693   -3.2495   10.2495 N   0  0  0  0  0  0  0  0  0  0  0  0
   -0.9445   -1.4017   11.8767 N   0  0  0  0  0  0  0  0  0  0  0  0
   -0.0613   -0.8174   12.8126 C   0  0  0  0  0  0  0  0  0  0  0  0
    0.5904   -1.6696   13.8361 C   0  0  0  0  0  0  0  0  0  0  0  0
    1.8068   -1.2024   14.3823 N   0  0  0  0  0  0  0  0  0  0  0  0
    2.5926   -1.9253   15.2661 C   0  0  0  0  0  0  0  0  0  0  0  0
    1.8159    0.2332   14.5816 C   0  0  0  0  0  0  0  0  0  0  0  0
   -2.0898   -0.5894   11.4324 C   0  0  0  0  0  0  0  0  0  0  0  0
   -1.7327    0.3317   10.3459 C   0  0  0  0  0  0  0  0  0  0  0  0
   -0.5356    0.2248    9.6627 C   0  0  0  0  0  0  0  0  0  0  0  0
   -0.2154    1.0722    8.6677 N   0  0  0  0  0  0  0  0  0  0  0  0
   -1.0066    2.0748    8.2552 C   0  0  0  0  0  0  0  0  0  0  0  0
   -2.2229    2.2250    8.9107 C   0  0  0  0  0  0  0  0  0  0  0  0
   -2.5759    1.3671    9.9367 C   0  0  0  0  0  0  0  0  0  0  0  0
    1.2867   -5.0916    8.4585 C   0  0  0  0  0  0  0  0  0  0  0  0
    2.2126   -4.1831    7.6790 C   0  0  0  0  0  0  0  0  0  0  0  0
    1.9346   -6.4624    8.4772 C   0  0  0  0  0  0  0  0  0  0  0  0
  1  2  1  0
  2  3  1  0
  2  4  1  0
  4  5  2  0
  5  6  1  0
  6  7  2  0
  7  8  1  0
  8  9  2  0
  8 10  1  0
 10 11  1  0
 10 12  1  0
  7 13  1  0
 13 14  2  0
 14 15  1  0
 15 16  1  0
 16 17  2  0
 16 18  1  0
 18 19  1  0
 19 20  1  0
 20 21  1  0
 21 22  1  0
 21 23  1  0
 18 24  1  0
 24 25  1  0
 25 26  2  0
 26 27  1  0
 27 28  2  0
 28 29  1  0
 29 30  2  0
  6 31  1  0
 31 32  1  0
 31 33  1  0
  9  4  1  0
 17 13  1  0
 30 25  1  0
M  END
$$$$
