
     RDKit          3D

 33 35  0  0  0  0  0  0  0  0999 V2000
   -7.2866   -1.5932  -20.1217 C   0  0  0  0  0  0  0  0  0  0  0  0
   -6.2994   -2.6556  -19.6907 C   0  0  0  0  0  0  0  0  0  0  0  0
   -6.6899   -3.9744  -20.3002 C   0  0  0  0  0  0  0  0  0  0  0  0
   -6.2066   -2.7512  -18.2133 C   0  0  0  0  0  0  0  0  0  0  0  0
   -5.6486   -1.7548  -17.4700 C   0  0  0  0  0  0  0  0  0  0  0  0
   -5.5516   -1.8286  -16.0750 C   0  0  0  0  0  0  0  0  0  0  0  0
   -6.0594   -2.9793  -15.5014 C   0  0  0  0  0  0  0  0  0  0  0  0
   -6.6285   -4.0014  -16.2273 C   0  0  0  0  0  0  0  0  0  0  0  0
   -6.6980   -3.8758  -17.5999 C   0  0  0  0  0  0  0  0  0  0  0  0
   -7.1474   -5.2001  -15.5119 C   0  0  0  0  0  0  0  0  0  0  0  0
   -6.4236   -6.4047  -16.0858 C   0  0  0  0  0  0  0  0  0  0  0  0
   -8.6171   -5.4213  -15.8063 C   0  0  0  0  0  0  0  0  0  0  0  0
   -5.9690   -3.0758  -13.9943 C   0  0  0  0  0  0  0  0  0  0  0  0
   -4.7998   -3.5308  -13.4087 C   0  0  0  0  0  0  0  0  0  0  0  0
   -5.2975   -3.4092  -11.6222 S   0  0  0  0  0  0  0  0  0  0  0  0
   -6.9399   -2.7875  -11.9560 C   0  0  0  0  0  0  0  0  0  0  0  0
   -6.9066   -2.7554  -13.2114 N   0  0  0  0  0  0  0  0  0  0  0  0
   -7.9260   -2.4519  -10.9874 N   0  0  0  0  0  0  0  0  0  0  0  0
   -8.6768   -3.3254  -10.1684 C   0  0  0  0  0  0  0  0  0  0  0  0
   -9.8341   -4.0537  -10.7419 C   0  0  0  0  0  0  0  0  0  0  0  0
  -10.4433   -5.0353   -9.9285 N   0  0  0  0  0  0  0  0  0  0  0  0
  -11.5423   -5.7897  -10.3086 C   0  0  0  0  0  0  0  0  0  0  0  0
  -10.3746   -4.7138   -8.5169 C   0  0  0  0  0  0  0  0  0  0  0  0
   -8.2795   -1.0227  -10.9503 C   0  0  0  0  0  0  0  0  0  0  0  0
   -7.6481   -0.3206   -9.8257 C   0  0  0  0  0  0  0  0  0  0  0  0
   -6.6009    0.5625  -10.0122 C   0  0  0  0  0  0  0  0  0  0  0  0
   -6.0276    1.2026   -8.9768 N   0  0  0  0  0  0  0  0  0  0  0  0
   -6.4078    1.0488   -7.6989 C   0  0  0  0  0  0  0  0  0  0  0  0
   -7.4579    0.1708   -7.4578 C   0  0  0  0  0  0  0  0  0  0  0  0
   -8.0644   -0.4996   -8.5047 C   0  0  0  0  0  0  0  0  0  0  0  0
   -4.9506   -0.7571  -15.2554 C   0  0  0  0  0  0  0  0  0  0  0  0
   -5.5897    0.5915  -15.5067 C   0  0  0  0  0  0  0  0  0  0  0  0
   -3.4974   -0.6353  -15.6712 C   0  0  0  0  0  0  0  0  0  0  0  0
  1  2  1  0
  2  3  1  0
  2  4  1  0
  4  5  2  0
  5  6  1  0
  6  7  2  0
  7  8  1  0
  8  9  2  0
  8 10  1  0
 10 11  1  0
 10 12  1  0
  7 13  1  0
 13 14  2  0
 14 15  1  0
 15 16  1  0
 16 17  2  0
 16 18  1  0
 18 19  1  0
 19 20  1  0
 20 21  1  0
 21 22  1  0
 21 23  1  0
 18 24  1  0
 24 25  1  0
 25 26  2  0
 26 27  1  0
 27 28  2  0
 28 29  1  0
 29 30  2  0
  6 31  1  0
 31 32  1  0
 31 33  1  0
  9  4  1  0
 17 13  1  0
 30 25  1  0
M  END
$$$$
