
     RDKit          3D

 33 35  0  0  0  0  0  0  0  0999 V2000
  -12.7936   -0.7373   -4.9056 C   0  0  0  0  0  0  0  0  0  0  0  0
  -11.6293   -1.1482   -4.0312 C   0  0  0  0  0  0  0  0  0  0  0  0
  -10.9962    0.0799   -3.4360 C   0  0  0  0  0  0  0  0  0  0  0  0
  -10.6373   -1.9557   -4.7823 C   0  0  0  0  0  0  0  0  0  0  0  0
   -9.3662   -1.5095   -4.9871 C   0  0  0  0  0  0  0  0  0  0  0  0
   -8.4171   -2.2576   -5.6946 C   0  0  0  0  0  0  0  0  0  0  0  0
   -8.8548   -3.4791   -6.1715 C   0  0  0  0  0  0  0  0  0  0  0  0
  -10.1323   -3.9549   -5.9795 C   0  0  0  0  0  0  0  0  0  0  0  0
  -11.0270   -3.1756   -5.2747 C   0  0  0  0  0  0  0  0  0  0  0  0
  -10.5035   -5.2862   -6.5342 C   0  0  0  0  0  0  0  0  0  0  0  0
  -11.2666   -5.0312   -7.8215 C   0  0  0  0  0  0  0  0  0  0  0  0
  -11.4675   -6.0128   -5.6186 C   0  0  0  0  0  0  0  0  0  0  0  0
   -7.8423   -4.3052   -6.9340 C   0  0  0  0  0  0  0  0  0  0  0  0
   -7.2431   -5.3900   -6.3166 C   0  0  0  0  0  0  0  0  0  0  0  0
   -6.1629   -5.9661   -7.7150 S   0  0  0  0  0  0  0  0  0  0  0  0
   -6.6837   -4.6913   -8.8547 C   0  0  0  0  0  0  0  0  0  0  0  0
   -7.5010   -4.0737   -8.1275 N   0  0  0  0  0  0  0  0  0  0  0  0
   -6.2325   -4.5230  -10.1931 N   0  0  0  0  0  0  0  0  0  0  0  0
   -5.5893   -5.4698  -11.0221 C   0  0  0  0  0  0  0  0  0  0  0  0
   -5.3765   -6.8516  -10.5280 C   0  0  0  0  0  0  0  0  0  0  0  0
   -4.8149   -7.7790  -11.4339 N   0  0  0  0  0  0  0  0  0  0  0  0
   -4.1878   -8.9558  -11.0555 C   0  0  0  0  0  0  0  0  0  0  0  0
   -4.2732   -7.1455  -12.6196 C   0  0  0  0  0  0  0  0  0  0  0  0
   -6.3442   -3.1459  -10.7033 C   0  0  0  0  0  0  0  0  0  0  0  0
   -7.4513   -2.9916  -11.6556 C   0  0  0  0  0  0  0  0  0  0  0  0
   -8.4218   -3.9641  -11.8100 C   0  0  0  0  0  0  0  0  0  0  0  0
   -9.4336   -3.8155  -12.6843 N   0  0  0  0  0  0  0  0  0  0  0  0
   -9.5927   -2.7379  -13.4686 C   0  0  0  0  0  0  0  0  0  0  0  0
   -8.6425   -1.7305  -13.3512 C   0  0  0  0  0  0  0  0  0  0  0  0
   -7.5925   -1.8586  -12.4599 C   0  0  0  0  0  0  0  0  0  0  0  0
   -7.0357   -1.7884   -5.9243 C   0  0  0  0  0  0  0  0  0  0  0  0
   -6.2610   -1.6161   -4.6357 C   0  0  0  0  0  0  0  0  0  0  0  0
   -7.1280   -0.4169   -6.5644 C   0  0  0  0  0  0  0  0  0  0  0  0
  1  2  1  0
  2  3  1  0
  2  4  1  0
  4  5  2  0
  5  6  1  0
  6  7  2  0
  7  8  1  0
  8  9  2  0
  8 10  1  0
 10 11  1  0
 10 12  1  0
  7 13  1  0
 13 14  2  0
 14 15  1  0
 15 16  1  0
 16 17  2  0
 16 18  1  0
 18 19  1  0
 19 20  1  0
 20 21  1  0
 21 22  1  0
 21 23  1  0
 18 24  1  0
 24 25  1  0
 25 26  2  0
 26 27  1  0
 27 28  2  0
 28 29  1  0
 29 30  2  0
  6 31  1  0
 31 32  1  0
 31 33  1  0
  9  4  1  0
 17 13  1  0
 30 25  1  0
M  END
$$$$
