
     RDKit          3D

 33 35  0  0  0  0  0  0  0  0999 V2000
   -3.7937   -8.2156    4.3788 C   0  0  0  0  0  0  0  0  0  0  0  0
   -2.4174   -8.6155    4.8633 C   0  0  0  0  0  0  0  0  0  0  0  0
   -2.3730  -10.1063    5.0606 C   0  0  0  0  0  0  0  0  0  0  0  0
   -2.0424   -7.8962    6.1051 C   0  0  0  0  0  0  0  0  0  0  0  0
   -0.8025   -8.0259    6.6551 C   0  0  0  0  0  0  0  0  0  0  0  0
   -0.4317   -7.3556    7.8273 C   0  0  0  0  0  0  0  0  0  0  0  0
   -1.4067   -6.5531    8.3899 C   0  0  0  0  0  0  0  0  0  0  0  0
   -2.6669   -6.4032    7.8563 C   0  0  0  0  0  0  0  0  0  0  0  0
   -2.9784   -7.0878    6.6991 C   0  0  0  0  0  0  0  0  0  0  0  0
   -3.6450   -5.5126    8.5403 C   0  0  0  0  0  0  0  0  0  0  0  0
   -4.4600   -6.3874    9.4757 C   0  0  0  0  0  0  0  0  0  0  0  0
   -4.6350   -4.9256    7.5550 C   0  0  0  0  0  0  0  0  0  0  0  0
   -1.0236   -5.8157    9.6542 C   0  0  0  0  0  0  0  0  0  0  0  0
   -1.1912   -6.4338   10.8818 C   0  0  0  0  0  0  0  0  0  0  0  0
   -0.5558   -5.0788   11.9838 S   0  0  0  0  0  0  0  0  0  0  0  0
   -0.1853   -3.9484   10.6495 C   0  0  0  0  0  0  0  0  0  0  0  0
   -0.5425   -4.6483    9.6693 N   0  0  0  0  0  0  0  0  0  0  0  0
    0.3646   -2.6431   10.7802 N   0  0  0  0  0  0  0  0  0  0  0  0
    0.6169   -1.9178   11.9666 C   0  0  0  0  0  0  0  0  0  0  0  0
    1.2556   -2.5977   13.1192 C   0  0  0  0  0  0  0  0  0  0  0  0
    2.1266   -1.8250   13.9196 N   0  0  0  0  0  0  0  0  0  0  0  0
    3.3798   -2.2451   14.3368 C   0  0  0  0  0  0  0  0  0  0  0  0
    1.4192   -0.9728   14.8545 C   0  0  0  0  0  0  0  0  0  0  0  0
    0.5616   -1.9362    9.5032 C   0  0  0  0  0  0  0  0  0  0  0  0
   -0.5320   -1.0017    9.2081 C   0  0  0  0  0  0  0  0  0  0  0  0
   -1.7078   -1.0015    9.9354 C   0  0  0  0  0  0  0  0  0  0  0  0
   -2.7054   -0.1418    9.6596 N   0  0  0  0  0  0  0  0  0  0  0  0
   -2.6552    0.7727    8.6785 C   0  0  0  0  0  0  0  0  0  0  0  0
   -1.4931    0.8134    7.9173 C   0  0  0  0  0  0  0  0  0  0  0  0
   -0.4527   -0.0594    8.1804 C   0  0  0  0  0  0  0  0  0  0  0  0
    0.9081   -7.4851    8.4352 C   0  0  0  0  0  0  0  0  0  0  0  0
    2.0202   -7.1743    7.4569 C   0  0  0  0  0  0  0  0  0  0  0  0
    1.0781   -8.9358    8.8422 C   0  0  0  0  0  0  0  0  0  0  0  0
  1  2  1  0
  2  3  1  0
  2  4  1  0
  4  5  2  0
  5  6  1  0
  6  7  2  0
  7  8  1  0
  8  9  2  0
  8 10  1  0
 10 11  1  0
 10 12  1  0
  7 13  1  0
 13 14  2  0
 14 15  1  0
 15 16  1  0
 16 17  2  0
 16 18  1  0
 18 19  1  0
 19 20  1  0
 20 21  1  0
 21 22  1  0
 21 23  1  0
 18 24  1  0
 24 25  1  0
 25 26  2  0
 26 27  1  0
 27 28  2  0
 28 29  1  0
 29 30  2  0
  6 31  1  0
 31 32  1  0
 31 33  1  0
  9  4  1  0
 17 13  1  0
 30 25  1  0
M  END
$$$$
