
     RDKit          3D

 33 35  0  0  0  0  0  0  0  0999 V2000
   -5.3875   -8.8094    3.9851 C   0  0  0  0  0  0  0  0  0  0  0  0
   -3.8864   -8.6328    4.0520 C   0  0  0  0  0  0  0  0  0  0  0  0
   -3.2215   -9.9774    3.9358 C   0  0  0  0  0  0  0  0  0  0  0  0
   -3.4712   -7.9318    5.2915 C   0  0  0  0  0  0  0  0  0  0  0  0
   -4.3672   -7.2431    6.0530 C   0  0  0  0  0  0  0  0  0  0  0  0
   -3.9928   -6.5746    7.2251 C   0  0  0  0  0  0  0  0  0  0  0  0
   -2.6541   -6.6594    7.5591 C   0  0  0  0  0  0  0  0  0  0  0  0
   -1.7272   -7.3479    6.8091 C   0  0  0  0  0  0  0  0  0  0  0  0
   -2.1516   -7.9885    5.6627 C   0  0  0  0  0  0  0  0  0  0  0  0
   -0.3074   -7.3788    7.2573 C   0  0  0  0  0  0  0  0  0  0  0  0
    0.5079   -6.6696    6.1911 C   0  0  0  0  0  0  0  0  0  0  0  0
    0.2215   -8.7977    7.3072 C   0  0  0  0  0  0  0  0  0  0  0  0
   -2.2306   -5.9482    8.8255 C   0  0  0  0  0  0  0  0  0  0  0  0
   -3.1815   -5.2970    9.5927 C   0  0  0  0  0  0  0  0  0  0  0  0
   -2.0824   -4.6660   10.9521 S   0  0  0  0  0  0  0  0  0  0  0  0
   -0.5800   -5.3626   10.2791 C   0  0  0  0  0  0  0  0  0  0  0  0
   -1.0410   -5.9115    9.2474 N   0  0  0  0  0  0  0  0  0  0  0  0
    0.7213   -5.2626   10.8446 N   0  0  0  0  0  0  0  0  0  0  0  0
    1.1392   -4.4680   11.9361 C   0  0  0  0  0  0  0  0  0  0  0  0
    1.1974   -2.9936   11.7891 C   0  0  0  0  0  0  0  0  0  0  0  0
    1.3485   -2.2350   12.9715 N   0  0  0  0  0  0  0  0  0  0  0  0
    0.3711   -1.4021   13.4930 C   0  0  0  0  0  0  0  0  0  0  0  0
    2.7124   -1.7921   13.1817 C   0  0  0  0  0  0  0  0  0  0  0  0
    1.7652   -5.9852   10.0982 C   0  0  0  0  0  0  0  0  0  0  0  0
    1.8515   -7.3988   10.4862 C   0  0  0  0  0  0  0  0  0  0  0  0
    1.0022   -7.9502   11.4275 C   0  0  0  0  0  0  0  0  0  0  0  0
    1.0868   -9.2466   11.7777 N   0  0  0  0  0  0  0  0  0  0  0  0
    1.9799  -10.1046   11.2604 C   0  0  0  0  0  0  0  0  0  0  0  0
    2.8577   -9.5990   10.3087 C   0  0  0  0  0  0  0  0  0  0  0  0
    2.7914   -8.2699    9.9312 C   0  0  0  0  0  0  0  0  0  0  0  0
   -4.9518   -5.8248    8.0614 C   0  0  0  0  0  0  0  0  0  0  0  0
   -5.8997   -6.7346    8.8125 C   0  0  0  0  0  0  0  0  0  0  0  0
   -5.8015   -4.9853    7.1273 C   0  0  0  0  0  0  0  0  0  0  0  0
  1  2  1  0
  2  3  1  0
  2  4  1  0
  4  5  2  0
  5  6  1  0
  6  7  2  0
  7  8  1  0
  8  9  2  0
  8 10  1  0
 10 11  1  0
 10 12  1  0
  7 13  1  0
 13 14  2  0
 14 15  1  0
 15 16  1  0
 16 17  2  0
 16 18  1  0
 18 19  1  0
 19 20  1  0
 20 21  1  0
 21 22  1  0
 21 23  1  0
 18 24  1  0
 24 25  1  0
 25 26  2  0
 26 27  1  0
 27 28  2  0
 28 29  1  0
 29 30  2  0
  6 31  1  0
 31 32  1  0
 31 33  1  0
  9  4  1  0
 17 13  1  0
 30 25  1  0
M  END
$$$$
