
     RDKit          3D

 33 35  0  0  0  0  0  0  0  0999 V2000
   -0.7156   -8.8541    3.0935 C   0  0  0  0  0  0  0  0  0  0  0  0
   -0.8307   -9.2166    4.5579 C   0  0  0  0  0  0  0  0  0  0  0  0
   -2.0172  -10.1202    4.7552 C   0  0  0  0  0  0  0  0  0  0  0  0
   -0.9234   -8.0102    5.4160 C   0  0  0  0  0  0  0  0  0  0  0  0
   -0.0343   -6.9843    5.2988 C   0  0  0  0  0  0  0  0  0  0  0  0
   -0.1060   -5.8388    6.1011 C   0  0  0  0  0  0  0  0  0  0  0  0
   -1.1386   -5.8173    7.0200 C   0  0  0  0  0  0  0  0  0  0  0  0
   -2.0509   -6.8387    7.1601 C   0  0  0  0  0  0  0  0  0  0  0  0
   -1.9329   -7.9446    6.3429 C   0  0  0  0  0  0  0  0  0  0  0  0
   -3.1280   -6.7167    8.1812 C   0  0  0  0  0  0  0  0  0  0  0  0
   -3.0686   -7.9687    9.0377 C   0  0  0  0  0  0  0  0  0  0  0  0
   -4.4989   -6.7214    7.5360 C   0  0  0  0  0  0  0  0  0  0  0  0
   -1.2365   -4.5853    7.8927 C   0  0  0  0  0  0  0  0  0  0  0  0
   -1.8689   -3.4535    7.4067 C   0  0  0  0  0  0  0  0  0  0  0  0
   -1.6765   -2.3485    8.8885 S   0  0  0  0  0  0  0  0  0  0  0  0
   -0.8064   -3.5571    9.8772 C   0  0  0  0  0  0  0  0  0  0  0  0
   -0.7765   -4.5165    9.0666 N   0  0  0  0  0  0  0  0  0  0  0  0
   -0.3305   -3.3735   11.2049 N   0  0  0  0  0  0  0  0  0  0  0  0
    0.9170   -2.8552   11.6204 C   0  0  0  0  0  0  0  0  0  0  0  0
    1.1631   -1.3946   11.5517 C   0  0  0  0  0  0  0  0  0  0  0  0
    2.4478   -0.9407   11.9255 N   0  0  0  0  0  0  0  0  0  0  0  0
    3.6266   -1.3624   11.3308 C   0  0  0  0  0  0  0  0  0  0  0  0
    2.5447   -0.6373   13.3394 C   0  0  0  0  0  0  0  0  0  0  0  0
   -1.2140   -3.9214   12.2482 C   0  0  0  0  0  0  0  0  0  0  0  0
   -0.9215   -5.3297   12.5441 C   0  0  0  0  0  0  0  0  0  0  0  0
    0.0805   -6.0203   11.8880 C   0  0  0  0  0  0  0  0  0  0  0  0
    0.3431   -7.3105   12.1648 N   0  0  0  0  0  0  0  0  0  0  0  0
   -0.3249   -8.0305   13.0797 C   0  0  0  0  0  0  0  0  0  0  0  0
   -1.3432   -7.3814   13.7678 C   0  0  0  0  0  0  0  0  0  0  0  0
   -1.6331   -6.0553   13.5020 C   0  0  0  0  0  0  0  0  0  0  0  0
    0.8492   -4.7183    5.9858 C   0  0  0  0  0  0  0  0  0  0  0  0
    0.9534   -4.1896    4.5716 C   0  0  0  0  0  0  0  0  0  0  0  0
    2.2187   -5.2564    6.3522 C   0  0  0  0  0  0  0  0  0  0  0  0
  1  2  1  0
  2  3  1  0
  2  4  1  0
  4  5  2  0
  5  6  1  0
  6  7  2  0
  7  8  1  0
  8  9  2  0
  8 10  1  0
 10 11  1  0
 10 12  1  0
  7 13  1  0
 13 14  2  0
 14 15  1  0
 15 16  1  0
 16 17  2  0
 16 18  1  0
 18 19  1  0
 19 20  1  0
 20 21  1  0
 21 22  1  0
 21 23  1  0
 18 24  1  0
 24 25  1  0
 25 26  2  0
 26 27  1  0
 27 28  2  0
 28 29  1  0
 29 30  2  0
  6 31  1  0
 31 32  1  0
 31 33  1  0
  9  4  1  0
 17 13  1  0
 30 25  1  0
M  END
$$$$
