
     RDKit          3D

 33 35  0  0  0  0  0  0  0  0999 V2000
   -4.1377   -9.2892  -12.1811 C   0  0  0  0  0  0  0  0  0  0  0  0
   -4.4329   -7.8605  -12.5819 C   0  0  0  0  0  0  0  0  0  0  0  0
   -3.1406   -7.0994  -12.6993 C   0  0  0  0  0  0  0  0  0  0  0  0
   -5.3603   -7.2038  -11.6285 C   0  0  0  0  0  0  0  0  0  0  0  0
   -5.0767   -7.1292  -10.2978 C   0  0  0  0  0  0  0  0  0  0  0  0
   -5.9409   -6.5143   -9.3835 C   0  0  0  0  0  0  0  0  0  0  0  0
   -7.1009   -5.9874   -9.9200 C   0  0  0  0  0  0  0  0  0  0  0  0
   -7.4130   -6.0480  -11.2595 C   0  0  0  0  0  0  0  0  0  0  0  0
   -6.5247   -6.6661  -12.1160 C   0  0  0  0  0  0  0  0  0  0  0  0
   -8.6897   -5.4477  -11.7365 C   0  0  0  0  0  0  0  0  0  0  0  0
   -9.6184   -6.5988  -12.0784 C   0  0  0  0  0  0  0  0  0  0  0  0
   -8.4871   -4.6818  -13.0280 C   0  0  0  0  0  0  0  0  0  0  0  0
   -8.0453   -5.3136   -8.9489 C   0  0  0  0  0  0  0  0  0  0  0  0
   -9.0809   -6.0416   -8.3880 C   0  0  0  0  0  0  0  0  0  0  0  0
   -9.8335   -4.7147   -7.3264 S   0  0  0  0  0  0  0  0  0  0  0  0
   -8.6656   -3.4479   -7.8022 C   0  0  0  0  0  0  0  0  0  0  0  0
   -7.9493   -4.1041   -8.5988 N   0  0  0  0  0  0  0  0  0  0  0  0
   -8.6468   -2.1032   -7.3388 N   0  0  0  0  0  0  0  0  0  0  0  0
   -9.5106   -1.4914   -6.4025 C   0  0  0  0  0  0  0  0  0  0  0  0
   -9.9715   -2.2587   -5.2203 C   0  0  0  0  0  0  0  0  0  0  0  0
  -10.8071   -1.5846   -4.3019 N   0  0  0  0  0  0  0  0  0  0  0  0
  -10.7178   -0.2314   -4.0153 C   0  0  0  0  0  0  0  0  0  0  0  0
  -11.2111   -2.4245   -3.1920 C   0  0  0  0  0  0  0  0  0  0  0  0
   -7.6833   -1.2340   -8.0353 C   0  0  0  0  0  0  0  0  0  0  0  0
   -8.2018   -0.7413   -9.3178 C   0  0  0  0  0  0  0  0  0  0  0  0
   -8.4817    0.5964   -9.5261 C   0  0  0  0  0  0  0  0  0  0  0  0
   -8.9561    1.0407  -10.7042 N   0  0  0  0  0  0  0  0  0  0  0  0
   -9.1962    0.2486  -11.7608 C   0  0  0  0  0  0  0  0  0  0  0  0
   -8.9308   -1.1064  -11.6025 C   0  0  0  0  0  0  0  0  0  0  0  0
   -8.4425   -1.5887  -10.4016 C   0  0  0  0  0  0  0  0  0  0  0  0
   -5.6475   -6.4247   -7.9388 C   0  0  0  0  0  0  0  0  0  0  0  0
   -4.3082   -5.7779   -7.6590 C   0  0  0  0  0  0  0  0  0  0  0  0
   -5.5662   -7.8430   -7.4084 C   0  0  0  0  0  0  0  0  0  0  0  0
  1  2  1  0
  2  3  1  0
  2  4  1  0
  4  5  2  0
  5  6  1  0
  6  7  2  0
  7  8  1  0
  8  9  2  0
  8 10  1  0
 10 11  1  0
 10 12  1  0
  7 13  1  0
 13 14  2  0
 14 15  1  0
 15 16  1  0
 16 17  2  0
 16 18  1  0
 18 19  1  0
 19 20  1  0
 20 21  1  0
 21 22  1  0
 21 23  1  0
 18 24  1  0
 24 25  1  0
 25 26  2  0
 26 27  1  0
 27 28  2  0
 28 29  1  0
 29 30  2  0
  6 31  1  0
 31 32  1  0
 31 33  1  0
  9  4  1  0
 17 13  1  0
 30 25  1  0
M  END
$$$$
