
     RDKit          3D

 33 35  0  0  0  0  0  0  0  0999 V2000
   -2.7709  -11.1214    7.1127 C   0  0  0  0  0  0  0  0  0  0  0  0
   -2.6742  -10.0980    6.0026 C   0  0  0  0  0  0  0  0  0  0  0  0
   -1.5145  -10.4422    5.1081 C   0  0  0  0  0  0  0  0  0  0  0  0
   -2.5522   -8.7194    6.5364 C   0  0  0  0  0  0  0  0  0  0  0  0
   -3.4971   -8.1914    7.3642 C   0  0  0  0  0  0  0  0  0  0  0  0
   -3.3990   -6.8918    7.8764 C   0  0  0  0  0  0  0  0  0  0  0  0
   -2.2799   -6.1797    7.4871 C   0  0  0  0  0  0  0  0  0  0  0  0
   -1.3098   -6.6876    6.6527 C   0  0  0  0  0  0  0  0  0  0  0  0
   -1.4575   -7.9747    6.1769 C   0  0  0  0  0  0  0  0  0  0  0  0
   -0.1409   -5.8373    6.2943 C   0  0  0  0  0  0  0  0  0  0  0  0
   -0.0489   -5.8288    4.7792 C   0  0  0  0  0  0  0  0  0  0  0  0
    1.1548   -6.4511    6.7842 C   0  0  0  0  0  0  0  0  0  0  0  0
   -2.1526   -4.7751    8.0347 C   0  0  0  0  0  0  0  0  0  0  0  0
   -2.7255   -3.7197    7.3454 C   0  0  0  0  0  0  0  0  0  0  0  0
   -2.2510   -2.3304    8.4851 S   0  0  0  0  0  0  0  0  0  0  0  0
   -1.3908   -3.3714    9.6563 C   0  0  0  0  0  0  0  0  0  0  0  0
   -1.5512   -4.4902    9.1078 N   0  0  0  0  0  0  0  0  0  0  0  0
   -0.7442   -2.9418   10.8481 N   0  0  0  0  0  0  0  0  0  0  0  0
   -0.2923   -1.6433   11.1757 C   0  0  0  0  0  0  0  0  0  0  0  0
   -1.0958   -0.7969   12.0903 C   0  0  0  0  0  0  0  0  0  0  0  0
   -1.1333    0.5889   11.8174 N   0  0  0  0  0  0  0  0  0  0  0  0
   -0.1656    1.2666   11.0926 C   0  0  0  0  0  0  0  0  0  0  0  0
   -1.7537    1.3523   12.8818 C   0  0  0  0  0  0  0  0  0  0  0  0
   -0.3994   -4.0302   11.7785 C   0  0  0  0  0  0  0  0  0  0  0  0
    0.8990   -4.6410   11.4662 C   0  0  0  0  0  0  0  0  0  0  0  0
    1.3189   -5.8115   12.0703 C   0  0  0  0  0  0  0  0  0  0  0  0
    2.5097   -6.3657   11.7787 N   0  0  0  0  0  0  0  0  0  0  0  0
    3.3798   -5.8487   10.8972 C   0  0  0  0  0  0  0  0  0  0  0  0
    3.0045   -4.6710   10.2618 C   0  0  0  0  0  0  0  0  0  0  0  0
    1.7856   -4.0811   10.5437 C   0  0  0  0  0  0  0  0  0  0  0  0
   -4.4139   -6.3056    8.7750 C   0  0  0  0  0  0  0  0  0  0  0  0
   -4.7756   -7.2275    9.9195 C   0  0  0  0  0  0  0  0  0  0  0  0
   -5.6763   -6.1083    7.9584 C   0  0  0  0  0  0  0  0  0  0  0  0
  1  2  1  0
  2  3  1  0
  2  4  1  0
  4  5  2  0
  5  6  1  0
  6  7  2  0
  7  8  1  0
  8  9  2  0
  8 10  1  0
 10 11  1  0
 10 12  1  0
  7 13  1  0
 13 14  2  0
 14 15  1  0
 15 16  1  0
 16 17  2  0
 16 18  1  0
 18 19  1  0
 19 20  1  0
 20 21  1  0
 21 22  1  0
 21 23  1  0
 18 24  1  0
 24 25  1  0
 25 26  2  0
 26 27  1  0
 27 28  2  0
 28 29  1  0
 29 30  2  0
  6 31  1  0
 31 32  1  0
 31 33  1  0
  9  4  1  0
 17 13  1  0
 30 25  1  0
M  END
$$$$
