
     RDKit          3D

 33 35  0  0  0  0  0  0  0  0999 V2000
  -10.3262   -1.6374   -2.8586 C   0  0  0  0  0  0  0  0  0  0  0  0
  -10.9872   -2.7560   -3.6338 C   0  0  0  0  0  0  0  0  0  0  0  0
  -10.5787   -4.0787   -3.0447 C   0  0  0  0  0  0  0  0  0  0  0  0
  -10.6636   -2.6872   -5.0798 C   0  0  0  0  0  0  0  0  0  0  0  0
  -10.0479   -3.7202   -5.7205 C   0  0  0  0  0  0  0  0  0  0  0  0
   -9.7339   -3.6721   -7.0843 C   0  0  0  0  0  0  0  0  0  0  0  0
  -10.0899   -2.5073   -7.7381 C   0  0  0  0  0  0  0  0  0  0  0  0
  -10.7126   -1.4484   -7.1165 C   0  0  0  0  0  0  0  0  0  0  0  0
  -10.9985   -1.5498   -5.7702 C   0  0  0  0  0  0  0  0  0  0  0  0
  -11.0553   -0.2373   -7.9125 C   0  0  0  0  0  0  0  0  0  0  0  0
  -10.3408    0.9345   -7.2638 C   0  0  0  0  0  0  0  0  0  0  0  0
  -12.5344    0.0784   -7.8219 C   0  0  0  0  0  0  0  0  0  0  0  0
   -9.7641   -2.4380   -9.2139 C   0  0  0  0  0  0  0  0  0  0  0  0
  -10.7033   -2.8583  -10.1403 C   0  0  0  0  0  0  0  0  0  0  0  0
   -9.7494   -2.5245  -11.7001 S   0  0  0  0  0  0  0  0  0  0  0  0
   -8.2971   -1.8971  -10.8679 C   0  0  0  0  0  0  0  0  0  0  0  0
   -8.6701   -2.0059   -9.6732 N   0  0  0  0  0  0  0  0  0  0  0  0
   -7.1072   -1.4279  -11.4901 N   0  0  0  0  0  0  0  0  0  0  0  0
   -6.8468   -1.2751  -12.8707 C   0  0  0  0  0  0  0  0  0  0  0  0
   -6.5237   -2.4668  -13.6917 C   0  0  0  0  0  0  0  0  0  0  0  0
   -6.4209   -2.2772  -15.0880 N   0  0  0  0  0  0  0  0  0  0  0  0
   -7.1040   -1.2993  -15.7938 C   0  0  0  0  0  0  0  0  0  0  0  0
   -6.2019   -3.5167  -15.8065 C   0  0  0  0  0  0  0  0  0  0  0  0
   -5.9835   -1.2079  -10.5638 C   0  0  0  0  0  0  0  0  0  0  0  0
   -6.0299    0.1184   -9.9351 C   0  0  0  0  0  0  0  0  0  0  0  0
   -6.1836    1.2735  -10.6789 C   0  0  0  0  0  0  0  0  0  0  0  0
   -6.2258    2.4853  -10.0958 N   0  0  0  0  0  0  0  0  0  0  0  0
   -6.1253    2.6825   -8.7720 C   0  0  0  0  0  0  0  0  0  0  0  0
   -5.9692    1.5519   -7.9790 C   0  0  0  0  0  0  0  0  0  0  0  0
   -5.9229    0.2945   -8.5538 C   0  0  0  0  0  0  0  0  0  0  0  0
   -9.0677   -4.7834   -7.7932 C   0  0  0  0  0  0  0  0  0  0  0  0
   -9.6592   -6.1314   -7.4420 C   0  0  0  0  0  0  0  0  0  0  0  0
   -7.6231   -4.8077   -7.3328 C   0  0  0  0  0  0  0  0  0  0  0  0
  1  2  1  0
  2  3  1  0
  2  4  1  0
  4  5  2  0
  5  6  1  0
  6  7  2  0
  7  8  1  0
  8  9  2  0
  8 10  1  0
 10 11  1  0
 10 12  1  0
  7 13  1  0
 13 14  2  0
 14 15  1  0
 15 16  1  0
 16 17  2  0
 16 18  1  0
 18 19  1  0
 19 20  1  0
 20 21  1  0
 21 22  1  0
 21 23  1  0
 18 24  1  0
 24 25  1  0
 25 26  2  0
 26 27  1  0
 27 28  2  0
 28 29  1  0
 29 30  2  0
  6 31  1  0
 31 32  1  0
 31 33  1  0
  9  4  1  0
 17 13  1  0
 30 25  1  0
M  END
$$$$
