
     RDKit          3D

 33 35  0  0  0  0  0  0  0  0999 V2000
   -3.1133  -10.4164    4.4303 C   0  0  0  0  0  0  0  0  0  0  0  0
   -2.3406  -10.2785    5.7237 C   0  0  0  0  0  0  0  0  0  0  0  0
   -2.9564  -11.1687    6.7685 C   0  0  0  0  0  0  0  0  0  0  0  0
   -2.2848   -8.8688    6.1818 C   0  0  0  0  0  0  0  0  0  0  0  0
   -1.3916   -7.9849    5.6549 C   0  0  0  0  0  0  0  0  0  0  0  0
   -1.3239   -6.6511    6.0761 C   0  0  0  0  0  0  0  0  0  0  0  0
   -2.2235   -6.2900    7.0617 C   0  0  0  0  0  0  0  0  0  0  0  0
   -3.1366   -7.1614    7.6117 C   0  0  0  0  0  0  0  0  0  0  0  0
   -3.1592   -8.4649    7.1589 C   0  0  0  0  0  0  0  0  0  0  0  0
   -4.0638   -6.6714    8.6690 C   0  0  0  0  0  0  0  0  0  0  0  0
   -3.4154   -6.9851   10.0052 C   0  0  0  0  0  0  0  0  0  0  0  0
   -5.3699   -7.4392    8.6523 C   0  0  0  0  0  0  0  0  0  0  0  0
   -2.1701   -4.8512    7.5265 C   0  0  0  0  0  0  0  0  0  0  0  0
   -3.1871   -3.9814    7.1711 C   0  0  0  0  0  0  0  0  0  0  0  0
   -2.5727   -2.4464    8.0200 S   0  0  0  0  0  0  0  0  0  0  0  0
   -1.1006   -3.2108    8.6864 C   0  0  0  0  0  0  0  0  0  0  0  0
   -1.2430   -4.3766    8.2404 N   0  0  0  0  0  0  0  0  0  0  0  0
   -0.1133   -2.5770    9.4905 N   0  0  0  0  0  0  0  0  0  0  0  0
    0.9213   -3.1818   10.2396 C   0  0  0  0  0  0  0  0  0  0  0  0
    0.5873   -4.2177   11.2467 C   0  0  0  0  0  0  0  0  0  0  0  0
    1.5774   -5.1864   11.5254 N   0  0  0  0  0  0  0  0  0  0  0  0
    2.7125   -4.9445   12.2833 C   0  0  0  0  0  0  0  0  0  0  0  0
    1.7480   -6.1388   10.4463 C   0  0  0  0  0  0  0  0  0  0  0  0
   -0.2983   -1.1243    9.6473 C   0  0  0  0  0  0  0  0  0  0  0  0
   -0.6850   -0.7553   11.0150 C   0  0  0  0  0  0  0  0  0  0  0  0
   -1.8891   -1.1535   11.5654 C   0  0  0  0  0  0  0  0  0  0  0  0
   -2.2364   -0.8119   12.8196 N   0  0  0  0  0  0  0  0  0  0  0  0
   -1.4675   -0.0721   13.6337 C   0  0  0  0  0  0  0  0  0  0  0  0
   -0.2453    0.3537   13.1272 C   0  0  0  0  0  0  0  0  0  0  0  0
    0.1354    0.0162   11.8410 C   0  0  0  0  0  0  0  0  0  0  0  0
   -0.3624   -5.6809    5.5146 C   0  0  0  0  0  0  0  0  0  0  0  0
   -0.2594   -5.7739    4.0075 C   0  0  0  0  0  0  0  0  0  0  0  0
    1.0050   -6.0326    6.0677 C   0  0  0  0  0  0  0  0  0  0  0  0
  1  2  1  0
  2  3  1  0
  2  4  1  0
  4  5  2  0
  5  6  1  0
  6  7  2  0
  7  8  1  0
  8  9  2  0
  8 10  1  0
 10 11  1  0
 10 12  1  0
  7 13  1  0
 13 14  2  0
 14 15  1  0
 15 16  1  0
 16 17  2  0
 16 18  1  0
 18 19  1  0
 19 20  1  0
 20 21  1  0
 21 22  1  0
 21 23  1  0
 18 24  1  0
 24 25  1  0
 25 26  2  0
 26 27  1  0
 27 28  2  0
 28 29  1  0
 29 30  2  0
  6 31  1  0
 31 32  1  0
 31 33  1  0
  9  4  1  0
 17 13  1  0
 30 25  1  0
M  END
$$$$
