
     RDKit          3D

 33 35  0  0  0  0  0  0  0  0999 V2000
   -8.6418    0.6936   -1.6504 C   0  0  0  0  0  0  0  0  0  0  0  0
   -9.8513    0.5960   -2.5539 C   0  0  0  0  0  0  0  0  0  0  0  0
  -10.9805   -0.0577   -1.8049 C   0  0  0  0  0  0  0  0  0  0  0  0
   -9.5422   -0.1343   -3.8075 C   0  0  0  0  0  0  0  0  0  0  0  0
  -10.0646   -1.3674   -4.0593 C   0  0  0  0  0  0  0  0  0  0  0  0
   -9.7827   -2.0716   -5.2363 C   0  0  0  0  0  0  0  0  0  0  0  0
   -8.9394   -1.4332   -6.1265 C   0  0  0  0  0  0  0  0  0  0  0  0
   -8.3975   -0.1883   -5.8985 C   0  0  0  0  0  0  0  0  0  0  0  0
   -8.7092    0.4607   -4.7210 C   0  0  0  0  0  0  0  0  0  0  0  0
   -7.4999    0.4128   -6.9235 C   0  0  0  0  0  0  0  0  0  0  0  0
   -6.1077    0.4572   -6.3200 C   0  0  0  0  0  0  0  0  0  0  0  0
   -7.8753    1.8535   -7.2045 C   0  0  0  0  0  0  0  0  0  0  0  0
   -8.6271   -2.1756   -7.4072 C   0  0  0  0  0  0  0  0  0  0  0  0
   -7.8769   -3.3382   -7.3562 C   0  0  0  0  0  0  0  0  0  0  0  0
   -7.8549   -3.7550   -9.1673 S   0  0  0  0  0  0  0  0  0  0  0  0
   -8.8265   -2.3407   -9.6685 C   0  0  0  0  0  0  0  0  0  0  0  0
   -9.0184   -1.8042   -8.5489 N   0  0  0  0  0  0  0  0  0  0  0  0
   -9.2174   -2.0161  -10.9970 N   0  0  0  0  0  0  0  0  0  0  0  0
   -8.5238   -1.2263  -11.9418 C   0  0  0  0  0  0  0  0  0  0  0  0
   -7.6597   -0.1155  -11.4748 C   0  0  0  0  0  0  0  0  0  0  0  0
   -7.1948    0.7923  -12.4526 N   0  0  0  0  0  0  0  0  0  0  0  0
   -8.0045    1.6916  -13.1285 C   0  0  0  0  0  0  0  0  0  0  0  0
   -6.0821    0.2679  -13.2191 C   0  0  0  0  0  0  0  0  0  0  0  0
  -10.5742   -2.4615  -11.3571 C   0  0  0  0  0  0  0  0  0  0  0  0
  -10.5635   -3.6942  -12.1551 C   0  0  0  0  0  0  0  0  0  0  0  0
  -10.1608   -3.7037  -13.4776 C   0  0  0  0  0  0  0  0  0  0  0  0
  -10.1532   -4.8373  -14.2025 N   0  0  0  0  0  0  0  0  0  0  0  0
  -10.5257   -6.0343  -13.7233 C   0  0  0  0  0  0  0  0  0  0  0  0
  -10.9396   -6.0785  -12.3972 C   0  0  0  0  0  0  0  0  0  0  0  0
  -10.9567   -4.9273  -11.6304 C   0  0  0  0  0  0  0  0  0  0  0  0
  -10.3416   -3.4081   -5.5243 C   0  0  0  0  0  0  0  0  0  0  0  0
  -11.6351   -3.3383   -6.3068 C   0  0  0  0  0  0  0  0  0  0  0  0
  -10.6719   -4.0530   -4.1922 C   0  0  0  0  0  0  0  0  0  0  0  0
  1  2  1  0
  2  3  1  0
  2  4  1  0
  4  5  2  0
  5  6  1  0
  6  7  2  0
  7  8  1  0
  8  9  2  0
  8 10  1  0
 10 11  1  0
 10 12  1  0
  7 13  1  0
 13 14  2  0
 14 15  1  0
 15 16  1  0
 16 17  2  0
 16 18  1  0
 18 19  1  0
 19 20  1  0
 20 21  1  0
 21 22  1  0
 21 23  1  0
 18 24  1  0
 24 25  1  0
 25 26  2  0
 26 27  1  0
 27 28  2  0
 28 29  1  0
 29 30  2  0
  6 31  1  0
 31 32  1  0
 31 33  1  0
  9  4  1  0
 17 13  1  0
 30 25  1  0
M  END
$$$$
