
     RDKit          3D

 33 35  0  0  0  0  0  0  0  0999 V2000
   -2.5377   -9.0667    3.6593 C   0  0  0  0  0  0  0  0  0  0  0  0
   -2.3981   -7.5863    3.3804 C   0  0  0  0  0  0  0  0  0  0  0  0
   -1.4147   -7.3814    2.2605 C   0  0  0  0  0  0  0  0  0  0  0  0
   -1.9964   -6.8348    4.5946 C   0  0  0  0  0  0  0  0  0  0  0  0
   -2.9226   -6.3272    5.4555 C   0  0  0  0  0  0  0  0  0  0  0  0
   -2.5616   -5.6143    6.6054 C   0  0  0  0  0  0  0  0  0  0  0  0
   -1.2032   -5.4597    6.8100 C   0  0  0  0  0  0  0  0  0  0  0  0
   -0.2456   -5.9616    5.9576 C   0  0  0  0  0  0  0  0  0  0  0  0
   -0.6581   -6.6563    4.8387 C   0  0  0  0  0  0  0  0  0  0  0  0
    1.1936   -5.7404    6.2697 C   0  0  0  0  0  0  0  0  0  0  0  0
    1.8979   -5.4856    4.9493 C   0  0  0  0  0  0  0  0  0  0  0  0
    1.8291   -6.9905    6.8432 C   0  0  0  0  0  0  0  0  0  0  0  0
   -0.7925   -4.6970    8.0504 C   0  0  0  0  0  0  0  0  0  0  0  0
   -0.5432   -3.3378    7.9642 C   0  0  0  0  0  0  0  0  0  0  0  0
   -0.1167   -3.0025    9.7418 S   0  0  0  0  0  0  0  0  0  0  0  0
   -0.3387   -4.6924   10.2808 C   0  0  0  0  0  0  0  0  0  0  0  0
   -0.6645   -5.2247    9.1904 N   0  0  0  0  0  0  0  0  0  0  0  0
   -0.1697   -5.1827   11.6052 N   0  0  0  0  0  0  0  0  0  0  0  0
    0.9510   -5.8474   12.1526 C   0  0  0  0  0  0  0  0  0  0  0  0
    2.1142   -6.1570   11.2869 C   0  0  0  0  0  0  0  0  0  0  0  0
    3.2755   -6.6509   11.9224 N   0  0  0  0  0  0  0  0  0  0  0  0
    4.4483   -6.9760   11.2590 C   0  0  0  0  0  0  0  0  0  0  0  0
    2.9747   -7.4695   13.0800 C   0  0  0  0  0  0  0  0  0  0  0  0
   -1.3752   -5.0893   12.4461 C   0  0  0  0  0  0  0  0  0  0  0  0
   -2.3259   -6.1768   12.1814 C   0  0  0  0  0  0  0  0  0  0  0  0
   -3.3308   -6.0543   11.2400 C   0  0  0  0  0  0  0  0  0  0  0  0
   -4.1980   -7.0553   11.0025 N   0  0  0  0  0  0  0  0  0  0  0  0
   -4.1705   -8.2361   11.6399 C   0  0  0  0  0  0  0  0  0  0  0  0
   -3.1778   -8.4097   12.5970 C   0  0  0  0  0  0  0  0  0  0  0  0
   -2.2739   -7.3963   12.8601 C   0  0  0  0  0  0  0  0  0  0  0  0
   -3.5532   -5.0588    7.5485 C   0  0  0  0  0  0  0  0  0  0  0  0
   -4.7493   -5.9675    7.7328 C   0  0  0  0  0  0  0  0  0  0  0  0
   -4.0742   -3.7693    6.9442 C   0  0  0  0  0  0  0  0  0  0  0  0
  1  2  1  0
  2  3  1  0
  2  4  1  0
  4  5  2  0
  5  6  1  0
  6  7  2  0
  7  8  1  0
  8  9  2  0
  8 10  1  0
 10 11  1  0
 10 12  1  0
  7 13  1  0
 13 14  2  0
 14 15  1  0
 15 16  1  0
 16 17  2  0
 16 18  1  0
 18 19  1  0
 19 20  1  0
 20 21  1  0
 21 22  1  0
 21 23  1  0
 18 24  1  0
 24 25  1  0
 25 26  2  0
 26 27  1  0
 27 28  2  0
 28 29  1  0
 29 30  2  0
  6 31  1  0
 31 32  1  0
 31 33  1  0
  9  4  1  0
 17 13  1  0
 30 25  1  0
M  END
$$$$
