
     RDKit          3D

 33 35  0  0  0  0  0  0  0  0999 V2000
   -6.4019   -3.9789  -17.8803 C   0  0  0  0  0  0  0  0  0  0  0  0
   -5.5708   -4.7452  -16.8747 C   0  0  0  0  0  0  0  0  0  0  0  0
   -5.2718   -6.1160  -17.4177 C   0  0  0  0  0  0  0  0  0  0  0  0
   -6.2419   -4.8233  -15.5542 C   0  0  0  0  0  0  0  0  0  0  0  0
   -7.5398   -4.4410  -15.3926 C   0  0  0  0  0  0  0  0  0  0  0  0
   -8.1888   -4.5067  -14.1534 C   0  0  0  0  0  0  0  0  0  0  0  0
   -7.4259   -4.9854  -13.1047 C   0  0  0  0  0  0  0  0  0  0  0  0
   -6.1134   -5.3786  -13.2389 C   0  0  0  0  0  0  0  0  0  0  0  0
   -5.5235   -5.2925  -14.4836 C   0  0  0  0  0  0  0  0  0  0  0  0
   -5.3791   -5.8814  -12.0448 C   0  0  0  0  0  0  0  0  0  0  0  0
   -4.1919   -4.9589  -11.8355 C   0  0  0  0  0  0  0  0  0  0  0  0
   -4.7953   -7.2563  -12.2983 C   0  0  0  0  0  0  0  0  0  0  0  0
   -8.1110   -5.0694  -11.7583 C   0  0  0  0  0  0  0  0  0  0  0  0
   -8.7455   -6.2429  -11.3879 C   0  0  0  0  0  0  0  0  0  0  0  0
   -9.3489   -5.7338   -9.7053 S   0  0  0  0  0  0  0  0  0  0  0  0
   -8.6675   -4.0831   -9.7840 C   0  0  0  0  0  0  0  0  0  0  0  0
   -8.1397   -4.1225  -10.9234 N   0  0  0  0  0  0  0  0  0  0  0  0
   -8.7567   -3.0864   -8.7731 N   0  0  0  0  0  0  0  0  0  0  0  0
   -9.6206   -3.0530   -7.6552 C   0  0  0  0  0  0  0  0  0  0  0  0
   -9.3739   -3.9635   -6.5111 C   0  0  0  0  0  0  0  0  0  0  0  0
  -10.3484   -3.9897   -5.4884 N   0  0  0  0  0  0  0  0  0  0  0  0
  -11.0629   -2.8803   -5.0644 C   0  0  0  0  0  0  0  0  0  0  0  0
  -10.0504   -4.9626   -4.4563 C   0  0  0  0  0  0  0  0  0  0  0  0
   -7.9284   -1.8941   -9.0209 C   0  0  0  0  0  0  0  0  0  0  0  0
   -8.6395   -0.8727   -9.8002 C   0  0  0  0  0  0  0  0  0  0  0  0
   -8.5948   -0.8467  -11.1817 C   0  0  0  0  0  0  0  0  0  0  0  0
   -9.2495    0.0920  -11.8892 N   0  0  0  0  0  0  0  0  0  0  0  0
   -9.9882    1.0664  -11.3358 C   0  0  0  0  0  0  0  0  0  0  0  0
  -10.0654    1.0843   -9.9482 C   0  0  0  0  0  0  0  0  0  0  0  0
   -9.4018    0.1305   -9.1977 C   0  0  0  0  0  0  0  0  0  0  0  0
   -9.5948   -4.0971  -13.9622 C   0  0  0  0  0  0  0  0  0  0  0  0
  -10.5711   -5.0670  -14.5917 C   0  0  0  0  0  0  0  0  0  0  0  0
   -9.7769   -2.7709  -14.6746 C   0  0  0  0  0  0  0  0  0  0  0  0
  1  2  1  0
  2  3  1  0
  2  4  1  0
  4  5  2  0
  5  6  1  0
  6  7  2  0
  7  8  1  0
  8  9  2  0
  8 10  1  0
 10 11  1  0
 10 12  1  0
  7 13  1  0
 13 14  2  0
 14 15  1  0
 15 16  1  0
 16 17  2  0
 16 18  1  0
 18 19  1  0
 19 20  1  0
 20 21  1  0
 21 22  1  0
 21 23  1  0
 18 24  1  0
 24 25  1  0
 25 26  2  0
 26 27  1  0
 27 28  2  0
 28 29  1  0
 29 30  2  0
  6 31  1  0
 31 32  1  0
 31 33  1  0
  9  4  1  0
 17 13  1  0
 30 25  1  0
M  END
$$$$
