
     RDKit          3D

 33 35  0  0  0  0  0  0  0  0999 V2000
   -2.1115   -1.1824  -16.6998 C   0  0  0  0  0  0  0  0  0  0  0  0
   -2.8990   -0.1851  -17.5209 C   0  0  0  0  0  0  0  0  0  0  0  0
   -2.2354    1.1625  -17.4377 C   0  0  0  0  0  0  0  0  0  0  0  0
   -4.3161   -0.1156  -17.0881 C   0  0  0  0  0  0  0  0  0  0  0  0
   -5.2149   -1.0775  -17.4397 C   0  0  0  0  0  0  0  0  0  0  0  0
   -6.5565   -1.0273  -17.0413 C   0  0  0  0  0  0  0  0  0  0  0  0
   -6.9090    0.0625  -16.2673 C   0  0  0  0  0  0  0  0  0  0  0  0
   -6.0225    1.0486  -15.8970 C   0  0  0  0  0  0  0  0  0  0  0  0
   -4.7119    0.9488  -16.3180 C   0  0  0  0  0  0  0  0  0  0  0  0
   -6.5037    2.1820  -15.0594 C   0  0  0  0  0  0  0  0  0  0  0  0
   -6.1046    3.4602  -15.7744 C   0  0  0  0  0  0  0  0  0  0  0  0
   -5.7927    2.2165  -13.7220 C   0  0  0  0  0  0  0  0  0  0  0  0
   -8.3532    0.1319  -15.8218 C   0  0  0  0  0  0  0  0  0  0  0  0
   -9.2822    0.7800  -16.6180 C   0  0  0  0  0  0  0  0  0  0  0  0
  -10.7984    0.5180  -15.5755 S   0  0  0  0  0  0  0  0  0  0  0  0
   -9.9522   -0.3887  -14.2881 C   0  0  0  0  0  0  0  0  0  0  0  0
   -8.7842   -0.3789  -14.7505 N   0  0  0  0  0  0  0  0  0  0  0  0
  -10.5421   -0.9287  -13.1119 N   0  0  0  0  0  0  0  0  0  0  0  0
   -9.8922   -1.4804  -11.9846 C   0  0  0  0  0  0  0  0  0  0  0  0
   -9.5268   -2.9174  -11.9800 C   0  0  0  0  0  0  0  0  0  0  0  0
   -8.2237   -3.2482  -11.5453 N   0  0  0  0  0  0  0  0  0  0  0  0
   -7.4201   -4.2031  -12.1483 C   0  0  0  0  0  0  0  0  0  0  0  0
   -8.0647   -3.1259  -10.1099 C   0  0  0  0  0  0  0  0  0  0  0  0
  -12.0104   -1.0322  -13.1611 C   0  0  0  0  0  0  0  0  0  0  0  0
  -12.6665   -0.1141  -12.2214 C   0  0  0  0  0  0  0  0  0  0  0  0
  -12.3340    1.2264  -12.1589 C   0  0  0  0  0  0  0  0  0  0  0  0
  -12.9398    2.0619  -11.2956 N   0  0  0  0  0  0  0  0  0  0  0  0
  -13.8988    1.6835  -10.4362 C   0  0  0  0  0  0  0  0  0  0  0  0
  -14.2696    0.3442  -10.4595 C   0  0  0  0  0  0  0  0  0  0  0  0
  -13.6623   -0.5353  -11.3375 C   0  0  0  0  0  0  0  0  0  0  0  0
   -7.5424   -2.0621  -17.4134 C   0  0  0  0  0  0  0  0  0  0  0  0
   -7.0999   -3.4534  -17.0146 C   0  0  0  0  0  0  0  0  0  0  0  0
   -7.6508   -2.0557  -18.9258 C   0  0  0  0  0  0  0  0  0  0  0  0
  1  2  1  0
  2  3  1  0
  2  4  1  0
  4  5  2  0
  5  6  1  0
  6  7  2  0
  7  8  1  0
  8  9  2  0
  8 10  1  0
 10 11  1  0
 10 12  1  0
  7 13  1  0
 13 14  2  0
 14 15  1  0
 15 16  1  0
 16 17  2  0
 16 18  1  0
 18 19  1  0
 19 20  1  0
 20 21  1  0
 21 22  1  0
 21 23  1  0
 18 24  1  0
 24 25  1  0
 25 26  2  0
 26 27  1  0
 27 28  2  0
 28 29  1  0
 29 30  2  0
  6 31  1  0
 31 32  1  0
 31 33  1  0
  9  4  1  0
 17 13  1  0
 30 25  1  0
M  END
$$$$
