
     RDKit          3D

 14 15  0  0  0  0  0  0  0  0999 V2000
    2.9301    1.5257    9.0909 C   0  0  0  0  0  0  0  0  0  0  0  0
    1.9269    2.5363    8.7912 N   0  0  0  0  0  0  0  0  0  0  0  0
    1.0111    2.5761    7.8321 C   0  0  0  0  0  0  0  0  0  0  0  0
    0.2698    3.6980    7.9018 N   0  0  0  0  0  0  0  0  0  0  0  0
    0.7403    4.3908    8.9482 C   0  0  0  0  0  0  0  0  0  0  0  0
    1.7743    3.6661    9.5033 C   0  0  0  0  0  0  0  0  0  0  0  0
    2.4232    4.1829   10.6059 C   0  0  0  0  0  0  0  0  0  0  0  0
    3.3738    3.5481   11.1405 O   0  0  0  0  0  0  0  0  0  0  0  0
    2.0555    5.3664   11.1273 N   0  0  0  0  0  0  0  0  0  0  0  0
    1.0393    6.0216   10.5376 C   0  0  0  0  0  0  0  0  0  0  0  0
    0.7254    7.1402   11.0666 O   0  0  0  0  0  0  0  0  0  0  0  0
    0.3729    5.5851    9.4783 N   0  0  0  0  0  0  0  0  0  0  0  0
   -0.7150    6.3258    8.8775 C   0  0  0  0  0  0  0  0  0  0  0  0
    2.7386    5.9090   12.2868 C   0  0  0  0  0  0  0  0  0  0  0  0
  1  2  1  0
  2  3  1  0
  3  4  2  0
  4  5  1  0
  5  6  2  0
  6  7  1  0
  7  8  2  0
  7  9  1  0
  9 10  1  0
 10 11  2  0
 10 12  1  0
 12 13  1  0
  9 14  1  0
  6  2  1  0
 12  5  1  0
M  END
$$$$
