
     RDKit          3D

 14 15  0  0  0  0  0  0  0  0999 V2000
    2.5243    1.3103    8.6735 C   0  0  0  0  0  0  0  0  0  0  0  0
    2.5517    2.4300    9.6024 N   0  0  0  0  0  0  0  0  0  0  0  0
    3.3133    2.6403   10.6682 C   0  0  0  0  0  0  0  0  0  0  0  0
    3.0207    3.8127   11.2621 N   0  0  0  0  0  0  0  0  0  0  0  0
    2.0344    4.3607   10.5388 C   0  0  0  0  0  0  0  0  0  0  0  0
    1.7416    3.4981    9.5031 C   0  0  0  0  0  0  0  0  0  0  0  0
    0.7473    3.8502    8.6136 C   0  0  0  0  0  0  0  0  0  0  0  0
    0.4520    3.0861    7.6538 O   0  0  0  0  0  0  0  0  0  0  0  0
    0.0790    5.0085    8.7536 N   0  0  0  0  0  0  0  0  0  0  0  0
    0.4142    5.8039    9.7855 C   0  0  0  0  0  0  0  0  0  0  0  0
   -0.2465    6.8921    9.8784 O   0  0  0  0  0  0  0  0  0  0  0  0
    1.3568    5.5288   10.6758 N   0  0  0  0  0  0  0  0  0  0  0  0
    1.6830    6.4164   11.7707 C   0  0  0  0  0  0  0  0  0  0  0  0
   -0.9664    5.3780    7.8177 C   0  0  0  0  0  0  0  0  0  0  0  0
  1  2  1  0
  2  3  1  0
  3  4  2  0
  4  5  1  0
  5  6  2  0
  6  7  1  0
  7  8  2  0
  7  9  1  0
  9 10  1  0
 10 11  2  0
 10 12  1  0
 12 13  1  0
  9 14  1  0
  6  2  1  0
 12  5  1  0
M  END
$$$$
