
     RDKit          3D

 14 15  0  0  0  0  0  0  0  0999 V2000
    2.1100    1.4508    8.3066 C   0  0  0  0  0  0  0  0  0  0  0  0
    1.3757    2.6983    8.4545 N   0  0  0  0  0  0  0  0  0  0  0  0
    0.3803    3.1969    7.7329 C   0  0  0  0  0  0  0  0  0  0  0  0
   -0.0243    4.3908    8.2062 N   0  0  0  0  0  0  0  0  0  0  0  0
    0.7494    4.6518    9.2689 C   0  0  0  0  0  0  0  0  0  0  0  0
    1.6230    3.5958    9.4241 C   0  0  0  0  0  0  0  0  0  0  0  0
    2.5288    3.6376   10.4642 C   0  0  0  0  0  0  0  0  0  0  0  0
    3.3434    2.6896   10.6372 O   0  0  0  0  0  0  0  0  0  0  0  0
    2.5588    4.6845   11.3073 N   0  0  0  0  0  0  0  0  0  0  0  0
    1.6792    5.6810   11.0996 C   0  0  0  0  0  0  0  0  0  0  0  0
    1.7446    6.6531   11.9243 O   0  0  0  0  0  0  0  0  0  0  0  0
    0.7837    5.7063   10.1228 N   0  0  0  0  0  0  0  0  0  0  0  0
   -0.1435    6.8016    9.9385 C   0  0  0  0  0  0  0  0  0  0  0  0
    3.5116    4.7275   12.4007 C   0  0  0  0  0  0  0  0  0  0  0  0
  1  2  1  0
  2  3  1  0
  3  4  2  0
  4  5  1  0
  5  6  2  0
  6  7  1  0
  7  8  2  0
  7  9  1  0
  9 10  1  0
 10 11  2  0
 10 12  1  0
 12 13  1  0
  9 14  1  0
  6  2  1  0
 12  5  1  0
M  END
$$$$
