
     RDKit          3D

 14 15  0  0  0  0  0  0  0  0999 V2000
    2.6004    5.3009   12.0290 C   0  0  0  0  0  0  0  0  0  0  0  0
    2.4097    4.2954   10.9946 N   0  0  0  0  0  0  0  0  0  0  0  0
    2.9627    3.0980   10.8518 C   0  0  0  0  0  0  0  0  0  0  0  0
    2.5129    2.4736    9.7469 N   0  0  0  0  0  0  0  0  0  0  0  0
    1.6414    3.3145    9.1727 C   0  0  0  0  0  0  0  0  0  0  0  0
    1.5768    4.4513    9.9512 C   0  0  0  0  0  0  0  0  0  0  0  0
    0.7361    5.4723    9.5577 C   0  0  0  0  0  0  0  0  0  0  0  0
    0.6510    6.5272   10.2448 O   0  0  0  0  0  0  0  0  0  0  0  0
   -0.0034    5.3610    8.4403 N   0  0  0  0  0  0  0  0  0  0  0  0
    0.1069    4.2258    7.7270 C   0  0  0  0  0  0  0  0  0  0  0  0
   -0.6135    4.1650    6.6750 O   0  0  0  0  0  0  0  0  0  0  0  0
    0.8927    3.2071    8.0457 N   0  0  0  0  0  0  0  0  0  0  0  0
    0.9784    2.0042    7.2464 C   0  0  0  0  0  0  0  0  0  0  0  0
   -0.8872    6.4352    8.0274 C   0  0  0  0  0  0  0  0  0  0  0  0
  1  2  1  0
  2  3  1  0
  3  4  2  0
  4  5  1  0
  5  6  2  0
  6  7  1  0
  7  8  2  0
  7  9  1  0
  9 10  1  0
 10 11  2  0
 10 12  1  0
 12 13  1  0
  9 14  1  0
  6  2  1  0
 12  5  1  0
M  END
$$$$
