
     RDKit          3D

 14 15  0  0  0  0  0  0  0  0999 V2000
    2.0973    6.0312   12.0871 C   0  0  0  0  0  0  0  0  0  0  0  0
    2.2312    4.8129   11.3027 N   0  0  0  0  0  0  0  0  0  0  0  0
    2.9988    3.7486   11.4978 C   0  0  0  0  0  0  0  0  0  0  0  0
    2.8235    2.8280   10.5308 N   0  0  0  0  0  0  0  0  0  0  0  0
    1.9078    3.3361    9.6945 C   0  0  0  0  0  0  0  0  0  0  0  0
    1.5381    4.5746   10.1759 C   0  0  0  0  0  0  0  0  0  0  0  0
    0.5958    5.2993    9.4752 C   0  0  0  0  0  0  0  0  0  0  0  0
    0.2329    6.4361    9.8854 O   0  0  0  0  0  0  0  0  0  0  0  0
    0.0504    4.8086    8.3484 N   0  0  0  0  0  0  0  0  0  0  0  0
    0.4555    3.5945    7.9341 C   0  0  0  0  0  0  0  0  0  0  0  0
   -0.0891    3.1698    6.8605 O   0  0  0  0  0  0  0  0  0  0  0  0
    1.3543    2.8453    8.5564 N   0  0  0  0  0  0  0  0  0  0  0  0
    1.7592    1.5434    8.0724 C   0  0  0  0  0  0  0  0  0  0  0  0
   -0.9404    5.5714    7.6123 C   0  0  0  0  0  0  0  0  0  0  0  0
  1  2  1  0
  2  3  1  0
  3  4  2  0
  4  5  1  0
  5  6  2  0
  6  7  1  0
  7  8  2  0
  7  9  1  0
  9 10  1  0
 10 11  2  0
 10 12  1  0
 12 13  1  0
  9 14  1  0
  6  2  1  0
 12  5  1  0
M  END
$$$$
