
     RDKit          3D

 14 15  0  0  0  0  0  0  0  0999 V2000
    3.7037    1.9372   10.7980 C   0  0  0  0  0  0  0  0  0  0  0  0
    2.7143    2.3727    9.8238 N   0  0  0  0  0  0  0  0  0  0  0  0
    2.2641    1.7690    8.7317 C   0  0  0  0  0  0  0  0  0  0  0  0
    1.3406    2.5163    8.0980 N   0  0  0  0  0  0  0  0  0  0  0  0
    1.2059    3.6355    8.8229 C   0  0  0  0  0  0  0  0  0  0  0  0
    2.0630    3.5461    9.8999 C   0  0  0  0  0  0  0  0  0  0  0  0
    2.1024    4.5920   10.7990 C   0  0  0  0  0  0  0  0  0  0  0  0
    2.8742    4.5455   11.7962 O   0  0  0  0  0  0  0  0  0  0  0  0
    1.3225    5.6740   10.6288 N   0  0  0  0  0  0  0  0  0  0  0  0
    0.5094    5.6972    9.5573 C   0  0  0  0  0  0  0  0  0  0  0  0
   -0.2119    6.7435    9.4367 O   0  0  0  0  0  0  0  0  0  0  0  0
    0.4206    4.7299    8.6556 N   0  0  0  0  0  0  0  0  0  0  0  0
   -0.4700    4.7993    7.5175 C   0  0  0  0  0  0  0  0  0  0  0  0
    1.3646    6.7734   11.5747 C   0  0  0  0  0  0  0  0  0  0  0  0
  1  2  1  0
  2  3  1  0
  3  4  2  0
  4  5  1  0
  5  6  2  0
  6  7  1  0
  7  8  2  0
  7  9  1  0
  9 10  1  0
 10 11  2  0
 10 12  1  0
 12 13  1  0
  9 14  1  0
  6  2  1  0
 12  5  1  0
M  END
$$$$
