
     RDKit          3D

 14 15  0  0  0  0  0  0  0  0999 V2000
    2.9974    1.1312    8.6767 C   0  0  0  0  0  0  0  0  0  0  0  0
    1.9772    2.1620    8.5586 N   0  0  0  0  0  0  0  0  0  0  0  0
    1.0003    2.3027    7.6720 C   0  0  0  0  0  0  0  0  0  0  0  0
    0.2657    3.4046    7.9157 N   0  0  0  0  0  0  0  0  0  0  0  0
    0.8043    3.9789    9.0003 C   0  0  0  0  0  0  0  0  0  0  0  0
    1.8722    3.2037    9.4016 C   0  0  0  0  0  0  0  0  0  0  0  0
    2.5925    3.5981   10.5105 C   0  0  0  0  0  0  0  0  0  0  0  0
    3.5758    2.9139   10.9071 O   0  0  0  0  0  0  0  0  0  0  0  0
    2.2604    4.7131   11.1845 N   0  0  0  0  0  0  0  0  0  0  0  0
    1.2079    5.4232   10.7398 C   0  0  0  0  0  0  0  0  0  0  0  0
    0.9299    6.4732   11.4106 O   0  0  0  0  0  0  0  0  0  0  0  0
    0.4731    5.1036    9.6841 N   0  0  0  0  0  0  0  0  0  0  0  0
   -0.6516    5.8995    9.2427 C   0  0  0  0  0  0  0  0  0  0  0  0
    3.0184    5.1269   12.3505 C   0  0  0  0  0  0  0  0  0  0  0  0
  1  2  1  0
  2  3  1  0
  3  4  2  0
  4  5  1  0
  5  6  2  0
  6  7  1  0
  7  8  2  0
  7  9  1  0
  9 10  1  0
 10 11  2  0
 10 12  1  0
 12 13  1  0
  9 14  1  0
  6  2  1  0
 12  5  1  0
M  END
$$$$
