
     RDKit          3D

 14 15  0  0  0  0  0  0  0  0999 V2000
    2.6131    5.5045   12.5139 C   0  0  0  0  0  0  0  0  0  0  0  0
    2.4733    4.4960   11.4743 N   0  0  0  0  0  0  0  0  0  0  0  0
    3.1242    3.3538   11.2960 C   0  0  0  0  0  0  0  0  0  0  0  0
    2.6901    2.7026   10.2002 N   0  0  0  0  0  0  0  0  0  0  0  0
    1.7270    3.4684    9.6691 C   0  0  0  0  0  0  0  0  0  0  0  0
    1.5915    4.5875   10.4640 C   0  0  0  0  0  0  0  0  0  0  0  0
    0.6499    5.5336   10.1145 C   0  0  0  0  0  0  0  0  0  0  0  0
    0.4977    6.5702   10.8178 O   0  0  0  0  0  0  0  0  0  0  0  0
   -0.1183    5.3680    9.0235 N   0  0  0  0  0  0  0  0  0  0  0  0
    0.0650    4.2539    8.2921 C   0  0  0  0  0  0  0  0  0  0  0  0
   -0.6861    4.1396    7.2663 O   0  0  0  0  0  0  0  0  0  0  0  0
    0.9490    3.3059    8.5688 N   0  0  0  0  0  0  0  0  0  0  0  0
    1.1107    2.1231    7.7515 C   0  0  0  0  0  0  0  0  0  0  0  0
   -1.1082    6.3634    8.6569 C   0  0  0  0  0  0  0  0  0  0  0  0
  1  2  1  0
  2  3  1  0
  3  4  2  0
  4  5  1  0
  5  6  2  0
  6  7  1  0
  7  8  2  0
  7  9  1  0
  9 10  1  0
 10 11  2  0
 10 12  1  0
 12 13  1  0
  9 14  1  0
  6  2  1  0
 12  5  1  0
M  END
$$$$
