
     RDKit          3D

 14 15  0  0  0  0  0  0  0  0999 V2000
    3.6501    4.0344   11.9512 C   0  0  0  0  0  0  0  0  0  0  0  0
    2.6273    4.7231   11.1785 N   0  0  0  0  0  0  0  0  0  0  0  0
    2.0432    5.8963   11.3844 C   0  0  0  0  0  0  0  0  0  0  0  0
    1.1388    6.1738   10.4262 N   0  0  0  0  0  0  0  0  0  0  0  0
    1.1563    5.1312    9.5843 C   0  0  0  0  0  0  0  0  0  0  0  0
    2.0851    4.2258   10.0536 C   0  0  0  0  0  0  0  0  0  0  0  0
    2.2831    3.0583    9.3453 C   0  0  0  0  0  0  0  0  0  0  0  0
    3.1244    2.2067    9.7443 O   0  0  0  0  0  0  0  0  0  0  0  0
    1.5861    2.8092    8.2228 N   0  0  0  0  0  0  0  0  0  0  0  0
    0.6960    3.7341    7.8204 C   0  0  0  0  0  0  0  0  0  0  0  0
    0.0581    3.4548    6.7506 O   0  0  0  0  0  0  0  0  0  0  0  0
    0.4553    4.8750    8.4506 N   0  0  0  0  0  0  0  0  0  0  0  0
   -0.5132    5.8410    7.9793 C   0  0  0  0  0  0  0  0  0  0  0  0
    1.7950    1.5812    7.4787 C   0  0  0  0  0  0  0  0  0  0  0  0
  1  2  1  0
  2  3  1  0
  3  4  2  0
  4  5  1  0
  5  6  2  0
  6  7  1  0
  7  8  2  0
  7  9  1  0
  9 10  1  0
 10 11  2  0
 10 12  1  0
 12 13  1  0
  9 14  1  0
  6  2  1  0
 12  5  1  0
M  END
$$$$
