
     RDKit          3D

 14 15  0  0  0  0  0  0  0  0999 V2000
    3.5747    3.9715   11.9639 C   0  0  0  0  0  0  0  0  0  0  0  0
    2.5372    4.5886   11.1513 N   0  0  0  0  0  0  0  0  0  0  0  0
    1.8860    5.7323   11.3176 C   0  0  0  0  0  0  0  0  0  0  0  0
    0.9936    5.9417   10.3312 N   0  0  0  0  0  0  0  0  0  0  0  0
    1.0891    4.8852    9.5121 C   0  0  0  0  0  0  0  0  0  0  0  0
    2.0523    4.0408   10.0236 C   0  0  0  0  0  0  0  0  0  0  0  0
    2.3311    2.8720    9.3453 C   0  0  0  0  0  0  0  0  0  0  0  0
    3.2060    2.0751    9.7832 O   0  0  0  0  0  0  0  0  0  0  0  0
    1.6783    2.5636    8.2110 N   0  0  0  0  0  0  0  0  0  0  0  0
    0.7509    3.4309    7.7669 C   0  0  0  0  0  0  0  0  0  0  0  0
    0.1573    3.0966    6.6874 O   0  0  0  0  0  0  0  0  0  0  0  0
    0.4330    4.5693    8.3667 N   0  0  0  0  0  0  0  0  0  0  0  0
   -0.5731    5.4721    7.8509 C   0  0  0  0  0  0  0  0  0  0  0  0
    1.9723    1.3343    7.4984 C   0  0  0  0  0  0  0  0  0  0  0  0
  1  2  1  0
  2  3  1  0
  3  4  2  0
  4  5  1  0
  5  6  2  0
  6  7  1  0
  7  8  2  0
  7  9  1  0
  9 10  1  0
 10 11  2  0
 10 12  1  0
 12 13  1  0
  9 14  1  0
  6  2  1  0
 12  5  1  0
M  END
$$$$
