
     RDKit          3D

 14 15  0  0  0  0  0  0  0  0999 V2000
    2.8690    1.4754    9.0855 C   0  0  0  0  0  0  0  0  0  0  0  0
    1.8839    2.5024    8.7818 N   0  0  0  0  0  0  0  0  0  0  0  0
    0.9626    2.5504    7.8285 C   0  0  0  0  0  0  0  0  0  0  0  0
    0.2439    3.6873    7.8914 N   0  0  0  0  0  0  0  0  0  0  0  0
    0.7350    4.3814    8.9273 C   0  0  0  0  0  0  0  0  0  0  0  0
    1.7583    3.6422    9.4831 C   0  0  0  0  0  0  0  0  0  0  0  0
    2.4247    4.1574   10.5761 C   0  0  0  0  0  0  0  0  0  0  0  0
    3.3662    3.5095   11.1110 O   0  0  0  0  0  0  0  0  0  0  0  0
    2.0839    5.3533   11.0875 N   0  0  0  0  0  0  0  0  0  0  0  0
    1.0768    6.0223   10.4977 C   0  0  0  0  0  0  0  0  0  0  0  0
    0.7885    7.1522   11.0171 O   0  0  0  0  0  0  0  0  0  0  0  0
    0.3948    5.5882    9.4474 N   0  0  0  0  0  0  0  0  0  0  0  0
   -0.6824    6.3439    8.8460 C   0  0  0  0  0  0  0  0  0  0  0  0
    2.7853    5.8941   12.2368 C   0  0  0  0  0  0  0  0  0  0  0  0
  1  2  1  0
  2  3  1  0
  3  4  2  0
  4  5  1  0
  5  6  2  0
  6  7  1  0
  7  8  2  0
  7  9  1  0
  9 10  1  0
 10 11  2  0
 10 12  1  0
 12 13  1  0
  9 14  1  0
  6  2  1  0
 12  5  1  0
M  END
$$$$
