
     RDKit          3D

 14 15  0  0  0  0  0  0  0  0999 V2000
    3.5582    3.9693   12.3165 C   0  0  0  0  0  0  0  0  0  0  0  0
    2.8977    3.5966   11.0746 N   0  0  0  0  0  0  0  0  0  0  0  0
    3.0607    2.5283   10.3051 C   0  0  0  0  0  0  0  0  0  0  0  0
    2.2472    2.5621    9.2326 N   0  0  0  0  0  0  0  0  0  0  0  0
    1.5447    3.6989    9.3338 C   0  0  0  0  0  0  0  0  0  0  0  0
    1.9504    4.3446   10.4831 C   0  0  0  0  0  0  0  0  0  0  0  0
    1.3622    5.5509   10.8037 C   0  0  0  0  0  0  0  0  0  0  0  0
    1.7079    6.1703   11.8472 O   0  0  0  0  0  0  0  0  0  0  0  0
    0.4146    6.0847   10.0131 N   0  0  0  0  0  0  0  0  0  0  0  0
    0.0653    5.4032    8.9070 C   0  0  0  0  0  0  0  0  0  0  0  0
   -0.8374    5.9480    8.1875 O   0  0  0  0  0  0  0  0  0  0  0  0
    0.5877    4.2421    8.5390 N   0  0  0  0  0  0  0  0  0  0  0  0
    0.1797    3.5448    7.3388 C   0  0  0  0  0  0  0  0  0  0  0  0
   -0.2034    7.3532   10.3510 C   0  0  0  0  0  0  0  0  0  0  0  0
  1  2  1  0
  2  3  1  0
  3  4  2  0
  4  5  1  0
  5  6  2  0
  6  7  1  0
  7  8  2  0
  7  9  1  0
  9 10  1  0
 10 11  2  0
 10 12  1  0
 12 13  1  0
  9 14  1  0
  6  2  1  0
 12  5  1  0
M  END
$$$$
