
     RDKit          3D

 14 15  0  0  0  0  0  0  0  0999 V2000
    2.5916    5.6674   12.1123 C   0  0  0  0  0  0  0  0  0  0  0  0
    2.4912    4.6018   11.1264 N   0  0  0  0  0  0  0  0  0  0  0  0
    3.1437    3.4499   11.0409 C   0  0  0  0  0  0  0  0  0  0  0  0
    2.7533    2.7385    9.9663 N   0  0  0  0  0  0  0  0  0  0  0  0
    1.8168    3.4749    9.3524 C   0  0  0  0  0  0  0  0  0  0  0  0
    1.6531    4.6376   10.0761 C   0  0  0  0  0  0  0  0  0  0  0  0
    0.7313    5.5644    9.6341 C   0  0  0  0  0  0  0  0  0  0  0  0
    0.5543    6.6395   10.2705 O   0  0  0  0  0  0  0  0  0  0  0  0
    0.0090    5.3387    8.5227 N   0  0  0  0  0  0  0  0  0  0  0  0
    0.2180    4.1845    7.8640 C   0  0  0  0  0  0  0  0  0  0  0  0
   -0.4898    4.0137    6.8154 O   0  0  0  0  0  0  0  0  0  0  0  0
    1.0852    3.2519    8.2311 N   0  0  0  0  0  0  0  0  0  0  0  0
    1.2758    2.0242    7.4897 C   0  0  0  0  0  0  0  0  0  0  0  0
   -0.9601    6.3138    8.0587 C   0  0  0  0  0  0  0  0  0  0  0  0
  1  2  1  0
  2  3  1  0
  3  4  2  0
  4  5  1  0
  5  6  2  0
  6  7  1  0
  7  8  2  0
  7  9  1  0
  9 10  1  0
 10 11  2  0
 10 12  1  0
 12 13  1  0
  9 14  1  0
  6  2  1  0
 12  5  1  0
M  END
$$$$
