
     RDKit          3D

 14 15  0  0  0  0  0  0  0  0999 V2000
    2.6223    2.9989   12.4658 C   0  0  0  0  0  0  0  0  0  0  0  0
    2.4456    3.6756   11.1898 N   0  0  0  0  0  0  0  0  0  0  0  0
    3.1575    4.6440   10.6281 C   0  0  0  0  0  0  0  0  0  0  0  0
    2.6560    4.9951    9.4288 N   0  0  0  0  0  0  0  0  0  0  0  0
    1.5849    4.2144    9.2300 C   0  0  0  0  0  0  0  0  0  0  0  0
    1.4535    3.3909   10.3287 C   0  0  0  0  0  0  0  0  0  0  0  0
    0.4102    2.4883   10.3543 C   0  0  0  0  0  0  0  0  0  0  0  0
    0.2584    1.7189   11.3428 O   0  0  0  0  0  0  0  0  0  0  0  0
   -0.4587    2.4134    9.3310 N   0  0  0  0  0  0  0  0  0  0  0  0
   -0.2732    3.2453    8.2901 C   0  0  0  0  0  0  0  0  0  0  0  0
   -1.1219    3.1385    7.3426 O   0  0  0  0  0  0  0  0  0  0  0  0
    0.7051    4.1349    8.1995 N   0  0  0  0  0  0  0  0  0  0  0  0
    0.8649    5.0099    7.0584 C   0  0  0  0  0  0  0  0  0  0  0  0
   -1.5555    1.4639    9.3588 C   0  0  0  0  0  0  0  0  0  0  0  0
  1  2  1  0
  2  3  1  0
  3  4  2  0
  4  5  1  0
  5  6  2  0
  6  7  1  0
  7  8  2  0
  7  9  1  0
  9 10  1  0
 10 11  2  0
 10 12  1  0
 12 13  1  0
  9 14  1  0
  6  2  1  0
 12  5  1  0
M  END
$$$$
