
     RDKit          3D

 14 15  0  0  0  0  0  0  0  0999 V2000
    3.0150    4.4890   12.1471 C   0  0  0  0  0  0  0  0  0  0  0  0
    2.6402    3.8685   10.8854 N   0  0  0  0  0  0  0  0  0  0  0  0
    3.0668    2.7450   10.3234 C   0  0  0  0  0  0  0  0  0  0  0  0
    2.4632    2.5230    9.1404 N   0  0  0  0  0  0  0  0  0  0  0  0
    1.6230    3.5502    8.9525 C   0  0  0  0  0  0  0  0  0  0  0  0
    1.7333    4.3898   10.0412 C   0  0  0  0  0  0  0  0  0  0  0  0
    0.9565    5.5298   10.0753 C   0  0  0  0  0  0  0  0  0  0  0  0
    1.0306    6.3214   11.0552 O   0  0  0  0  0  0  0  0  0  0  0  0
    0.1112    5.8153    9.0695 N   0  0  0  0  0  0  0  0  0  0  0  0
    0.0524    4.9542    8.0377 C   0  0  0  0  0  0  0  0  0  0  0  0
   -0.7635    5.2661    7.1068 O   0  0  0  0  0  0  0  0  0  0  0  0
    0.7681    3.8429    7.9398 N   0  0  0  0  0  0  0  0  0  0  0  0
    0.6709    2.9458    6.8089 C   0  0  0  0  0  0  0  0  0  0  0  0
   -0.7052    7.0142    9.1063 C   0  0  0  0  0  0  0  0  0  0  0  0
  1  2  1  0
  2  3  1  0
  3  4  2  0
  4  5  1  0
  5  6  2  0
  6  7  1  0
  7  8  2  0
  7  9  1  0
  9 10  1  0
 10 11  2  0
 10 12  1  0
 12 13  1  0
  9 14  1  0
  6  2  1  0
 12  5  1  0
M  END
$$$$
