
     RDKit          3D

 14 15  0  0  0  0  0  0  0  0999 V2000
    2.1870    1.3873    8.6287 C   0  0  0  0  0  0  0  0  0  0  0  0
    1.3685    2.5902    8.6517 N   0  0  0  0  0  0  0  0  0  0  0  0
    0.3823    2.9705    7.8499 C   0  0  0  0  0  0  0  0  0  0  0  0
   -0.1210    4.1644    8.2163 N   0  0  0  0  0  0  0  0  0  0  0  0
    0.5786    4.5489    9.2928 C   0  0  0  0  0  0  0  0  0  0  0  0
    1.5081    3.5668    9.5646 C   0  0  0  0  0  0  0  0  0  0  0  0
    2.3544    3.7404   10.6406 C   0  0  0  0  0  0  0  0  0  0  0  0
    3.2173    2.8630   10.9196 O   0  0  0  0  0  0  0  0  0  0  0  0
    2.2744    4.8424   11.4067 N   0  0  0  0  0  0  0  0  0  0  0  0
    1.3455    5.7613   11.0865 C   0  0  0  0  0  0  0  0  0  0  0  0
    1.3064    6.7901   11.8413 O   0  0  0  0  0  0  0  0  0  0  0  0
    0.5019    5.6596   10.0693 N   0  0  0  0  0  0  0  0  0  0  0  0
   -0.4819    6.6753    9.7631 C   0  0  0  0  0  0  0  0  0  0  0  0
    3.1647    5.0240   12.5379 C   0  0  0  0  0  0  0  0  0  0  0  0
  1  2  1  0
  2  3  1  0
  3  4  2  0
  4  5  1  0
  5  6  2  0
  6  7  1  0
  7  8  2  0
  7  9  1  0
  9 10  1  0
 10 11  2  0
 10 12  1  0
 12 13  1  0
  9 14  1  0
  6  2  1  0
 12  5  1  0
M  END
$$$$
