
     RDKit          3D

 14 15  0  0  0  0  0  0  0  0999 V2000
    2.2304    1.2247    7.9954 C   0  0  0  0  0  0  0  0  0  0  0  0
    2.4768    2.1716    9.0724 N   0  0  0  0  0  0  0  0  0  0  0  0
    3.3967    2.1612   10.0283 C   0  0  0  0  0  0  0  0  0  0  0  0
    3.2836    3.2328   10.8358 N   0  0  0  0  0  0  0  0  0  0  0  0
    2.2496    3.9449   10.3669 C   0  0  0  0  0  0  0  0  0  0  0  0
    1.7460    3.2830    9.2666 C   0  0  0  0  0  0  0  0  0  0  0  0
    0.6652    3.8304    8.6061 C   0  0  0  0  0  0  0  0  0  0  0  0
    0.1776    3.2530    7.5956 O   0  0  0  0  0  0  0  0  0  0  0  0
    0.1155    4.9833    9.0261 N   0  0  0  0  0  0  0  0  0  0  0  0
    0.6552    5.5774   10.1057 C   0  0  0  0  0  0  0  0  0  0  0  0
    0.1009    6.6688   10.4677 O   0  0  0  0  0  0  0  0  0  0  0  0
    1.6910    5.1085   10.7869 N   0  0  0  0  0  0  0  0  0  0  0  0
    2.2379    5.7834   11.9438 C   0  0  0  0  0  0  0  0  0  0  0  0
   -1.0210    5.5582    8.3310 C   0  0  0  0  0  0  0  0  0  0  0  0
  1  2  1  0
  2  3  1  0
  3  4  2  0
  4  5  1  0
  5  6  2  0
  6  7  1  0
  7  8  2  0
  7  9  1  0
  9 10  1  0
 10 11  2  0
 10 12  1  0
 12 13  1  0
  9 14  1  0
  6  2  1  0
 12  5  1  0
M  END
$$$$
