
     RDKit          3D

 14 15  0  0  0  0  0  0  0  0999 V2000
    3.2699    1.0427    8.7623 C   0  0  0  0  0  0  0  0  0  0  0  0
    2.1774    1.9609    8.4782 N   0  0  0  0  0  0  0  0  0  0  0  0
    1.2438    1.9160    7.5367 C   0  0  0  0  0  0  0  0  0  0  0  0
    0.4093    2.9698    7.6166 N   0  0  0  0  0  0  0  0  0  0  0  0
    0.8374    3.7062    8.6513 C   0  0  0  0  0  0  0  0  0  0  0  0
    1.9406    3.0768    9.1891 C   0  0  0  0  0  0  0  0  0  0  0  0
    2.5628    3.6536   10.2773 C   0  0  0  0  0  0  0  0  0  0  0  0
    3.5746    3.1065   10.7959 O   0  0  0  0  0  0  0  0  0  0  0  0
    2.1035    4.8035   10.8014 N   0  0  0  0  0  0  0  0  0  0  0  0
    1.0234    5.3650   10.2289 C   0  0  0  0  0  0  0  0  0  0  0  0
    0.6235    6.4549   10.7598 O   0  0  0  0  0  0  0  0  0  0  0  0
    0.3777    4.8669    9.1841 N   0  0  0  0  0  0  0  0  0  0  0  0
   -0.7815    5.5073    8.6015 C   0  0  0  0  0  0  0  0  0  0  0  0
    2.7584    5.4093   11.9457 C   0  0  0  0  0  0  0  0  0  0  0  0
  1  2  1  0
  2  3  1  0
  3  4  2  0
  4  5  1  0
  5  6  2  0
  6  7  1  0
  7  8  2  0
  7  9  1  0
  9 10  1  0
 10 11  2  0
 10 12  1  0
 12 13  1  0
  9 14  1  0
  6  2  1  0
 12  5  1  0
M  END
$$$$
