
     RDKit          3D

 14 15  0  0  0  0  0  0  0  0999 V2000
    3.3798    1.1684    8.7753 C   0  0  0  0  0  0  0  0  0  0  0  0
    2.2790    2.0663    8.4600 N   0  0  0  0  0  0  0  0  0  0  0  0
    1.3739    2.0047    7.4920 C   0  0  0  0  0  0  0  0  0  0  0  0
    0.5180    3.0427    7.5480 N   0  0  0  0  0  0  0  0  0  0  0  0
    0.9023    3.7863    8.5947 C   0  0  0  0  0  0  0  0  0  0  0  0
    2.0011    3.1772    9.1639 C   0  0  0  0  0  0  0  0  0  0  0  0
    2.5809    3.7648   10.2697 C   0  0  0  0  0  0  0  0  0  0  0  0
    3.5874    3.2362   10.8171 O   0  0  0  0  0  0  0  0  0  0  0  0
    2.0854    4.9056   10.7805 N   0  0  0  0  0  0  0  0  0  0  0  0
    1.0119    5.4473   10.1772 C   0  0  0  0  0  0  0  0  0  0  0  0
    0.5767    6.5291   10.6965 O   0  0  0  0  0  0  0  0  0  0  0  0
    0.4059    4.9379    9.1142 N   0  0  0  0  0  0  0  0  0  0  0  0
   -0.7477    5.5570    8.4985 C   0  0  0  0  0  0  0  0  0  0  0  0
    2.6957    5.5227   11.9432 C   0  0  0  0  0  0  0  0  0  0  0  0
  1  2  1  0
  2  3  1  0
  3  4  2  0
  4  5  1  0
  5  6  2  0
  6  7  1  0
  7  8  2  0
  7  9  1  0
  9 10  1  0
 10 11  2  0
 10 12  1  0
 12 13  1  0
  9 14  1  0
  6  2  1  0
 12  5  1  0
M  END
$$$$
