
     RDKit          3D

 14 15  0  0  0  0  0  0  0  0999 V2000
    2.7882    5.2271   12.6744 C   0  0  0  0  0  0  0  0  0  0  0  0
    2.4926    4.3352   11.5632 N   0  0  0  0  0  0  0  0  0  0  0  0
    3.0081    3.1527   11.2537 C   0  0  0  0  0  0  0  0  0  0  0  0
    2.4560    2.6501   10.1330 N   0  0  0  0  0  0  0  0  0  0  0  0
    1.5568    3.5552    9.7227 C   0  0  0  0  0  0  0  0  0  0  0  0
    1.5795    4.6068   10.6150 C   0  0  0  0  0  0  0  0  0  0  0  0
    0.7295    5.6721   10.3993 C   0  0  0  0  0  0  0  0  0  0  0  0
    0.7224    6.6518   11.1945 O   0  0  0  0  0  0  0  0  0  0  0  0
   -0.1021    5.6845    9.3429 N   0  0  0  0  0  0  0  0  0  0  0  0
   -0.0737    4.6273    8.5115 C   0  0  0  0  0  0  0  0  0  0  0  0
   -0.8799    4.6829    7.5232 O   0  0  0  0  0  0  0  0  0  0  0  0
    0.7154    3.5725    8.6578 N   0  0  0  0  0  0  0  0  0  0  0  0
    0.7109    2.4571    7.7364 C   0  0  0  0  0  0  0  0  0  0  0  0
   -0.9956    6.8052    9.1169 C   0  0  0  0  0  0  0  0  0  0  0  0
  1  2  1  0
  2  3  1  0
  3  4  2  0
  4  5  1  0
  5  6  2  0
  6  7  1  0
  7  8  2  0
  7  9  1  0
  9 10  1  0
 10 11  2  0
 10 12  1  0
 12 13  1  0
  9 14  1  0
  6  2  1  0
 12  5  1  0
M  END
$$$$
