
     RDKit          3D

 14 15  0  0  0  0  0  0  0  0999 V2000
    2.9774    1.1547    8.6462 C   0  0  0  0  0  0  0  0  0  0  0  0
    1.9796    2.2087    8.5422 N   0  0  0  0  0  0  0  0  0  0  0  0
    0.9998    2.3769    7.6637 C   0  0  0  0  0  0  0  0  0  0  0  0
    0.2917    3.4933    7.9198 N   0  0  0  0  0  0  0  0  0  0  0  0
    0.8508    4.0483    9.0040 C   0  0  0  0  0  0  0  0  0  0  0  0
    1.9040    3.2470    9.3926 C   0  0  0  0  0  0  0  0  0  0  0  0
    2.6408    3.6179   10.4987 C   0  0  0  0  0  0  0  0  0  0  0  0
    3.6115    2.9095   10.8837 O   0  0  0  0  0  0  0  0  0  0  0  0
    2.3386    4.7356   11.1822 N   0  0  0  0  0  0  0  0  0  0  0  0
    1.2991    5.4719   10.7498 C   0  0  0  0  0  0  0  0  0  0  0  0
    1.0494    6.5234   11.4292 O   0  0  0  0  0  0  0  0  0  0  0  0
    0.5497    5.1757    9.6974 N   0  0  0  0  0  0  0  0  0  0  0  0
   -0.5601    5.9993    9.2694 C   0  0  0  0  0  0  0  0  0  0  0  0
    3.1140    5.1248   12.3452 C   0  0  0  0  0  0  0  0  0  0  0  0
  1  2  1  0
  2  3  1  0
  3  4  2  0
  4  5  1  0
  5  6  2  0
  6  7  1  0
  7  8  2  0
  7  9  1  0
  9 10  1  0
 10 11  2  0
 10 12  1  0
 12 13  1  0
  9 14  1  0
  6  2  1  0
 12  5  1  0
M  END
$$$$
