
     RDKit          3D

 14 15  0  0  0  0  0  0  0  0999 V2000
    3.5146    0.9512    9.3844 C   0  0  0  0  0  0  0  0  0  0  0  0
    3.0419    2.1858    9.9924 N   0  0  0  0  0  0  0  0  0  0  0  0
    3.4226    2.7905   11.1102 C   0  0  0  0  0  0  0  0  0  0  0  0
    2.7281    3.9248   11.3204 N   0  0  0  0  0  0  0  0  0  0  0  0
    1.8764    4.0361   10.2917 C   0  0  0  0  0  0  0  0  0  0  0  0
    2.0720    2.9511    9.4629 C   0  0  0  0  0  0  0  0  0  0  0  0
    1.3009    2.8450    8.3235 C   0  0  0  0  0  0  0  0  0  0  0  0
    1.4519    1.8661    7.5417 O   0  0  0  0  0  0  0  0  0  0  0  0
    0.3795    3.7786    8.0282 N   0  0  0  0  0  0  0  0  0  0  0  0
    0.2397    4.8112    8.8790 C   0  0  0  0  0  0  0  0  0  0  0  0
   -0.6464    5.6723    8.5580 O   0  0  0  0  0  0  0  0  0  0  0  0
    0.9449    4.9759    9.9891 N   0  0  0  0  0  0  0  0  0  0  0  0
    0.7591    6.1046   10.8749 C   0  0  0  0  0  0  0  0  0  0  0  0
   -0.4308    3.6662    6.8299 C   0  0  0  0  0  0  0  0  0  0  0  0
  1  2  1  0
  2  3  1  0
  3  4  2  0
  4  5  1  0
  5  6  2  0
  6  7  1  0
  7  8  2  0
  7  9  1  0
  9 10  1  0
 10 11  2  0
 10 12  1  0
 12 13  1  0
  9 14  1  0
  6  2  1  0
 12  5  1  0
M  END
$$$$
