
     RDKit          3D

 14 15  0  0  0  0  0  0  0  0999 V2000
    3.3779    2.3686   10.9497 C   0  0  0  0  0  0  0  0  0  0  0  0
    2.5471    3.5478   10.7590 N   0  0  0  0  0  0  0  0  0  0  0  0
    2.3715    4.6070   11.5384 C   0  0  0  0  0  0  0  0  0  0  0  0
    1.5098    5.4859   10.9923 N   0  0  0  0  0  0  0  0  0  0  0  0
    1.1290    4.9559    9.8217 C   0  0  0  0  0  0  0  0  0  0  0  0
    1.7762    3.7466    9.6760 C   0  0  0  0  0  0  0  0  0  0  0  0
    1.5408    3.0068    8.5352 C   0  0  0  0  0  0  0  0  0  0  0  0
    2.1149    1.8957    8.3673 O   0  0  0  0  0  0  0  0  0  0  0  0
    0.6993    3.4551    7.5872 N   0  0  0  0  0  0  0  0  0  0  0  0
    0.1009    4.6424    7.7920 C   0  0  0  0  0  0  0  0  0  0  0  0
   -0.6888    5.0274    6.8659 O   0  0  0  0  0  0  0  0  0  0  0  0
    0.2805    5.4040    8.8618 N   0  0  0  0  0  0  0  0  0  0  0  0
   -0.3860    6.6759    9.0386 C   0  0  0  0  0  0  0  0  0  0  0  0
    0.4524    2.6765    6.3880 C   0  0  0  0  0  0  0  0  0  0  0  0
  1  2  1  0
  2  3  1  0
  3  4  2  0
  4  5  1  0
  5  6  2  0
  6  7  1  0
  7  8  2  0
  7  9  1  0
  9 10  1  0
 10 11  2  0
 10 12  1  0
 12 13  1  0
  9 14  1  0
  6  2  1  0
 12  5  1  0
M  END
$$$$
