
     RDKit          3D

 14 15  0  0  0  0  0  0  0  0999 V2000
    3.3826    1.5346    9.6743 C   0  0  0  0  0  0  0  0  0  0  0  0
    2.3319    2.3215    9.0463 N   0  0  0  0  0  0  0  0  0  0  0  0
    1.5924    2.0634    7.9756 C   0  0  0  0  0  0  0  0  0  0  0  0
    0.7227    3.0598    7.7228 N   0  0  0  0  0  0  0  0  0  0  0  0
    0.9252    3.9813    8.6747 C   0  0  0  0  0  0  0  0  0  0  0  0
    1.9293    3.5208    9.5006 C   0  0  0  0  0  0  0  0  0  0  0  0
    2.3179    4.3064   10.5664 C   0  0  0  0  0  0  0  0  0  0  0  0
    3.2331    3.9178   11.3433 O   0  0  0  0  0  0  0  0  0  0  0  0
    1.7305    5.4942   10.7943 N   0  0  0  0  0  0  0  0  0  0  0  0
    0.7579    5.8838    9.9505 C   0  0  0  0  0  0  0  0  0  0  0  0
    0.2295    7.0174   10.2060 O   0  0  0  0  0  0  0  0  0  0  0  0
    0.3355    5.1811    8.9091 N   0  0  0  0  0  0  0  0  0  0  0  0
   -0.7156    5.6415    8.0279 C   0  0  0  0  0  0  0  0  0  0  0  0
    2.1397    6.3196   11.9153 C   0  0  0  0  0  0  0  0  0  0  0  0
  1  2  1  0
  2  3  1  0
  3  4  2  0
  4  5  1  0
  5  6  2  0
  6  7  1  0
  7  8  2  0
  7  9  1  0
  9 10  1  0
 10 11  2  0
 10 12  1  0
 12 13  1  0
  9 14  1  0
  6  2  1  0
 12  5  1  0
M  END
$$$$
