
     RDKit          3D

 14 15  0  0  0  0  0  0  0  0999 V2000
    3.3417    3.5848   12.2881 C   0  0  0  0  0  0  0  0  0  0  0  0
    2.3571    4.3451   11.5331 N   0  0  0  0  0  0  0  0  0  0  0  0
    1.7996    5.5205   11.7931 C   0  0  0  0  0  0  0  0  0  0  0  0
    0.9270    5.8779   10.8319 N   0  0  0  0  0  0  0  0  0  0  0  0
    0.9377    4.8852    9.9315 C   0  0  0  0  0  0  0  0  0  0  0  0
    1.8300    3.9286   10.3689 C   0  0  0  0  0  0  0  0  0  0  0  0
    2.0144    2.7986    9.5988 C   0  0  0  0  0  0  0  0  0  0  0  0
    2.8225    1.9022    9.9671 O   0  0  0  0  0  0  0  0  0  0  0  0
    1.3391    2.6340    8.4478 N   0  0  0  0  0  0  0  0  0  0  0  0
    0.4842    3.6051    8.0792 C   0  0  0  0  0  0  0  0  0  0  0  0
   -0.1341    3.4057    6.9804 O   0  0  0  0  0  0  0  0  0  0  0  0
    0.2585    4.7142    8.7688 N   0  0  0  0  0  0  0  0  0  0  0  0
   -0.6719    5.7325    8.3320 C   0  0  0  0  0  0  0  0  0  0  0  0
    1.5337    1.4454    7.6387 C   0  0  0  0  0  0  0  0  0  0  0  0
  1  2  1  0
  2  3  1  0
  3  4  2  0
  4  5  1  0
  5  6  2  0
  6  7  1  0
  7  8  2  0
  7  9  1  0
  9 10  1  0
 10 11  2  0
 10 12  1  0
 12 13  1  0
  9 14  1  0
  6  2  1  0
 12  5  1  0
M  END
$$$$
