
     RDKit          3D

 14 15  0  0  0  0  0  0  0  0999 V2000
    3.6569    1.5951   10.2837 C   0  0  0  0  0  0  0  0  0  0  0  0
    2.9131    2.8307   10.4774 N   0  0  0  0  0  0  0  0  0  0  0  0
    2.9682    3.7181   11.4620 C   0  0  0  0  0  0  0  0  0  0  0  0
    2.1066    4.7334   11.2620 N   0  0  0  0  0  0  0  0  0  0  0  0
    1.4853    4.4718   10.1037 C   0  0  0  0  0  0  0  0  0  0  0  0
    1.9884    3.2846    9.6139 C   0  0  0  0  0  0  0  0  0  0  0  0
    1.4962    2.8042    8.4177 C   0  0  0  0  0  0  0  0  0  0  0  0
    1.9326    1.7214    7.9388 O   0  0  0  0  0  0  0  0  0  0  0  0
    0.5474    3.4787    7.7448 N   0  0  0  0  0  0  0  0  0  0  0  0
    0.1004    4.6299    8.2782 C   0  0  0  0  0  0  0  0  0  0  0  0
   -0.7995    5.2352    7.6049 O   0  0  0  0  0  0  0  0  0  0  0  0
    0.5275    5.1489    9.4205 N   0  0  0  0  0  0  0  0  0  0  0  0
    0.0163    6.3921    9.9557 C   0  0  0  0  0  0  0  0  0  0  0  0
    0.0306    2.9727    6.4870 C   0  0  0  0  0  0  0  0  0  0  0  0
  1  2  1  0
  2  3  1  0
  3  4  2  0
  4  5  1  0
  5  6  2  0
  6  7  1  0
  7  8  2  0
  7  9  1  0
  9 10  1  0
 10 11  2  0
 10 12  1  0
 12 13  1  0
  9 14  1  0
  6  2  1  0
 12  5  1  0
M  END
$$$$
