
     RDKit          3D

 14 15  0  0  0  0  0  0  0  0999 V2000
    3.5206    3.4870   11.6930 C   0  0  0  0  0  0  0  0  0  0  0  0
    2.5370    4.3275   11.0269 N   0  0  0  0  0  0  0  0  0  0  0  0
    2.0444    5.5092   11.3745 C   0  0  0  0  0  0  0  0  0  0  0  0
    1.1453    5.9542   10.4763 N   0  0  0  0  0  0  0  0  0  0  0  0
    1.0709    5.0123    9.5258 C   0  0  0  0  0  0  0  0  0  0  0  0
    1.9393    3.9972    9.8692 C   0  0  0  0  0  0  0  0  0  0  0  0
    2.0382    2.9039    9.0331 C   0  0  0  0  0  0  0  0  0  0  0  0
    2.8220    1.9561    9.3148 O   0  0  0  0  0  0  0  0  0  0  0  0
    1.3043    2.8303    7.9089 N   0  0  0  0  0  0  0  0  0  0  0  0
    0.4771    3.8547    7.6331 C   0  0  0  0  0  0  0  0  0  0  0  0
   -0.1990    3.7411    6.5563 O   0  0  0  0  0  0  0  0  0  0  0  0
    0.3323    4.9331    8.3898 N   0  0  0  0  0  0  0  0  0  0  0  0
   -0.5713    6.0114    8.0520 C   0  0  0  0  0  0  0  0  0  0  0  0
    1.4091    1.6803    7.0303 C   0  0  0  0  0  0  0  0  0  0  0  0
  1  2  1  0
  2  3  1  0
  3  4  2  0
  4  5  1  0
  5  6  2  0
  6  7  1  0
  7  8  2  0
  7  9  1  0
  9 10  1  0
 10 11  2  0
 10 12  1  0
 12 13  1  0
  9 14  1  0
  6  2  1  0
 12  5  1  0
M  END
$$$$
