
     RDKit          3D

 14 15  0  0  0  0  0  0  0  0999 V2000
    0.7316    2.4414    7.5386 C   0  0  0  0  0  0  0  0  0  0  0  0
    1.6222    2.7758    8.6397 N   0  0  0  0  0  0  0  0  0  0  0  0
    2.6568    2.1105    9.1367 C   0  0  0  0  0  0  0  0  0  0  0  0
    3.2208    2.7699   10.1663 N   0  0  0  0  0  0  0  0  0  0  0  0
    2.5103    3.8957   10.3215 C   0  0  0  0  0  0  0  0  0  0  0  0
    1.5128    3.8995    9.3690 C   0  0  0  0  0  0  0  0  0  0  0  0
    0.6429    4.9700    9.3305 C   0  0  0  0  0  0  0  0  0  0  0  0
   -0.2820    5.0080    8.4729 O   0  0  0  0  0  0  0  0  0  0  0  0
    0.7653    5.9864   10.2021 N   0  0  0  0  0  0  0  0  0  0  0  0
    1.7600    5.9200   11.1054 C   0  0  0  0  0  0  0  0  0  0  0  0
    1.8374    6.9065   11.9118 O   0  0  0  0  0  0  0  0  0  0  0  0
    2.6297    4.9242   11.1992 N   0  0  0  0  0  0  0  0  0  0  0  0
    3.6847    4.8963   12.1888 C   0  0  0  0  0  0  0  0  0  0  0  0
   -0.1499    7.1115   10.1608 C   0  0  0  0  0  0  0  0  0  0  0  0
  1  2  1  0
  2  3  1  0
  3  4  2  0
  4  5  1  0
  5  6  2  0
  6  7  1  0
  7  8  2  0
  7  9  1  0
  9 10  1  0
 10 11  2  0
 10 12  1  0
 12 13  1  0
  9 14  1  0
  6  2  1  0
 12  5  1  0
M  END
$$$$
