
     RDKit          3D

 14 15  0  0  0  0  0  0  0  0999 V2000
    2.0037    6.4213   12.0254 C   0  0  0  0  0  0  0  0  0  0  0  0
    2.3495    5.1643   11.3791 N   0  0  0  0  0  0  0  0  0  0  0  0
    3.2499    4.2489   11.7129 C   0  0  0  0  0  0  0  0  0  0  0  0
    3.2570    3.2213   10.8429 N   0  0  0  0  0  0  0  0  0  0  0  0
    2.3221    3.5038    9.9252 C   0  0  0  0  0  0  0  0  0  0  0  0
    1.7557    4.7162   10.2596 C   0  0  0  0  0  0  0  0  0  0  0  0
    0.7567    5.2214    9.4529 C   0  0  0  0  0  0  0  0  0  0  0  0
    0.2153    6.3276    9.7275 O   0  0  0  0  0  0  0  0  0  0  0  0
    0.3449    4.5467    8.3653 N   0  0  0  0  0  0  0  0  0  0  0  0
    0.9392    3.3702    8.0962 C   0  0  0  0  0  0  0  0  0  0  0  0
    0.5161    2.7657    7.0545 O   0  0  0  0  0  0  0  0  0  0  0  0
    1.9028    2.8266    8.8261 N   0  0  0  0  0  0  0  0  0  0  0  0
    2.5131    1.5568    8.4970 C   0  0  0  0  0  0  0  0  0  0  0  0
   -0.7057    5.0788    7.5176 C   0  0  0  0  0  0  0  0  0  0  0  0
  1  2  1  0
  2  3  1  0
  3  4  2  0
  4  5  1  0
  5  6  2  0
  6  7  1  0
  7  8  2  0
  7  9  1  0
  9 10  1  0
 10 11  2  0
 10 12  1  0
 12 13  1  0
  9 14  1  0
  6  2  1  0
 12  5  1  0
M  END
$$$$
