
     RDKit          3D

 14 15  0  0  0  0  0  0  0  0999 V2000
    2.8552    4.7359   12.4174 C   0  0  0  0  0  0  0  0  0  0  0  0
    2.4890    3.9892   11.2234 N   0  0  0  0  0  0  0  0  0  0  0  0
    2.9228    2.8164   10.7801 C   0  0  0  0  0  0  0  0  0  0  0  0
    2.3259    2.4732    9.6229 N   0  0  0  0  0  0  0  0  0  0  0  0
    1.4827    3.4723    9.3281 C   0  0  0  0  0  0  0  0  0  0  0  0
    1.5843    4.4184   10.3267 C   0  0  0  0  0  0  0  0  0  0  0  0
    0.8030    5.5525   10.2416 C   0  0  0  0  0  0  0  0  0  0  0  0
    0.8691    6.4396   11.1365 O   0  0  0  0  0  0  0  0  0  0  0  0
   -0.0385    5.7310    9.2082 N   0  0  0  0  0  0  0  0  0  0  0  0
   -0.0889    4.7696    8.2687 C   0  0  0  0  0  0  0  0  0  0  0  0
   -0.9013    4.9821    7.3073 O   0  0  0  0  0  0  0  0  0  0  0  0
    0.6316    3.6573    8.2871 N   0  0  0  0  0  0  0  0  0  0  0  0
    0.5435    2.6498    7.2524 C   0  0  0  0  0  0  0  0  0  0  0  0
   -0.8598    6.9239    9.1197 C   0  0  0  0  0  0  0  0  0  0  0  0
  1  2  1  0
  2  3  1  0
  3  4  2  0
  4  5  1  0
  5  6  2  0
  6  7  1  0
  7  8  2  0
  7  9  1  0
  9 10  1  0
 10 11  2  0
 10 12  1  0
 12 13  1  0
  9 14  1  0
  6  2  1  0
 12  5  1  0
M  END
$$$$
