
     RDKit          3D

 14 15  0  0  0  0  0  0  0  0999 V2000
    2.4185    5.3984   11.9252 C   0  0  0  0  0  0  0  0  0  0  0  0
    2.3011    4.2844   10.9965 N   0  0  0  0  0  0  0  0  0  0  0  0
    2.8723    3.0872   11.0184 C   0  0  0  0  0  0  0  0  0  0  0  0
    2.4974    2.3405    9.9625 N   0  0  0  0  0  0  0  0  0  0  0  0
    1.6559    3.1010    9.2486 C   0  0  0  0  0  0  0  0  0  0  0  0
    1.5333    4.3140    9.8936 C   0  0  0  0  0  0  0  0  0  0  0  0
    0.7098    5.2735    9.3412 C   0  0  0  0  0  0  0  0  0  0  0  0
    0.5729    6.3950    9.9032 O   0  0  0  0  0  0  0  0  0  0  0  0
    0.0419    5.0311    8.1997 N   0  0  0  0  0  0  0  0  0  0  0  0
    0.2062    3.8274    7.6219 C   0  0  0  0  0  0  0  0  0  0  0  0
   -0.4470    3.6424    6.5409 O   0  0  0  0  0  0  0  0  0  0  0  0
    0.9795    2.8612    8.0964 N   0  0  0  0  0  0  0  0  0  0  0  0
    1.1252    1.5806    7.4392 C   0  0  0  0  0  0  0  0  0  0  0  0
   -0.8238    6.0407    7.6196 C   0  0  0  0  0  0  0  0  0  0  0  0
  1  2  1  0
  2  3  1  0
  3  4  2  0
  4  5  1  0
  5  6  2  0
  6  7  1  0
  7  8  2  0
  7  9  1  0
  9 10  1  0
 10 11  2  0
 10 12  1  0
 12 13  1  0
  9 14  1  0
  6  2  1  0
 12  5  1  0
M  END
$$$$
