
     RDKit          3D

 43 50  0  0  0  0  0  0  0  0999 V2000
   -1.6597    2.9446   13.0505 C   0  0  0  0  0  0  0  0  0  0  0  0
   -0.2459    3.2274   12.6092 C   0  0  0  0  0  0  0  0  0  0  0  0
    0.7271    3.0676   13.7231 C   0  0  0  0  0  0  0  0  0  0  0  0
    1.1095    2.0070   14.2836 O   0  0  0  0  0  0  0  0  0  0  0  0
    1.1414    4.4111   14.0233 N   0  0  0  0  0  0  0  0  0  0  0  0
    2.2928    4.9386   14.7473 C   0  0  0  0  0  0  0  0  0  0  0  0
    2.6875    6.2840   14.2359 C   0  0  0  0  0  0  0  0  0  0  0  0
    3.8700    6.6768   14.2897 O   0  0  0  0  0  0  0  0  0  0  0  0
    1.6982    7.1074   13.6887 N   0  0  0  0  0  0  0  0  0  0  0  0
    1.6854    8.5448   13.3624 C   0  0  0  0  0  0  0  0  0  0  0  0
    0.9480    8.5576   12.0652 C   0  0  0  0  0  0  0  0  0  0  0  0
    0.2845    7.2021   11.9037 C   0  0  0  0  0  0  0  0  0  0  0  0
    0.3905    6.6537   13.3101 C   0  0  0  0  0  0  0  0  0  0  0  0
    0.1234    5.2100   13.4224 C   0  0  0  0  0  0  0  0  0  0  0  0
   -0.0645    4.5598   12.1895 O   0  0  0  0  0  0  0  0  0  0  0  0
   -1.0757    5.0101   14.1214 O   0  0  0  0  0  0  0  0  0  0  0  0
    1.9968    5.0778   16.2001 C   0  0  0  0  0  0  0  0  0  0  0  0
    3.1120    5.2567   17.1006 C   0  0  0  0  0  0  0  0  0  0  0  0
    3.6956    6.4899   17.2730 C   0  0  0  0  0  0  0  0  0  0  0  0
    4.7789    6.6505   18.1542 C   0  0  0  0  0  0  0  0  0  0  0  0
    5.2631    5.5614   18.8539 C   0  0  0  0  0  0  0  0  0  0  0  0
    4.6828    4.3256   18.6848 C   0  0  0  0  0  0  0  0  0  0  0  0
    3.6289    4.2074   17.8178 C   0  0  0  0  0  0  0  0  0  0  0  0
    0.0951    2.2890   11.5896 N   0  0  0  0  0  0  0  0  0  0  0  0
   -0.8546    1.6046   10.7828 C   0  0  0  0  0  0  0  0  0  0  0  0
   -2.0610    1.6838   11.1130 O   0  0  0  0  0  0  0  0  0  0  0  0
   -0.4992    0.8139    9.5895 C   0  0  0  0  0  0  0  0  0  0  0  0
   -1.1291    1.4170    8.3835 C   0  0  0  0  0  0  0  0  0  0  0  0
   -1.4834    0.4782    7.3419 N   0  0  0  0  0  0  0  0  0  0  0  0
   -0.5767   -0.6706    7.4116 C   0  0  0  0  0  0  0  0  0  0  0  0
   -0.5657   -1.4795    6.1802 C   0  0  0  0  0  0  0  0  0  0  0  0
   -0.9157   -2.9021    6.3664 C   0  0  0  0  0  0  0  0  0  0  0  0
   -1.0218   -3.9286    5.4556 C   0  0  0  0  0  0  0  0  0  0  0  0
   -1.3746   -5.0691    6.1239 N   0  0  0  0  0  0  0  0  0  0  0  0
   -1.4930   -4.7867    7.4298 C   0  0  0  0  0  0  0  0  0  0  0  0
   -1.8087   -5.4563    8.6021 C   0  0  0  0  0  0  0  0  0  0  0  0
   -1.8258   -4.7880    9.8143 C   0  0  0  0  0  0  0  0  0  0  0  0
   -1.5309   -3.4235    9.9254 C   0  0  0  0  0  0  0  0  0  0  0  0
   -1.2213   -2.7828    8.7507 C   0  0  0  0  0  0  0  0  0  0  0  0
   -1.2106   -3.4669    7.5567 C   0  0  0  0  0  0  0  0  0  0  0  0
   -0.8845   -1.3528    8.6742 C   0  0  0  0  0  0  0  0  0  0  0  0
   -0.8563   -0.6423    9.7812 C   0  0  0  0  0  0  0  0  0  0  0  0
   -1.3745    1.1673    6.0718 C   0  0  0  0  0  0  0  0  0  0  0  0
  1  2  1  0
  2  3  1  0
  3  4  2  0
  3  5  1  0
  5  6  1  0
  6  7  1  0
  7  8  2  0
  7  9  1  0
  9 10  1  0
 10 11  1  0
 11 12  1  0
 12 13  1  0
 13 14  1  0
 14 15  1  0
 14 16  1  0
  6 17  1  0
 17 18  1  0
 18 19  2  0
 19 20  1  0
 20 21  2  0
 21 22  1  0
 22 23  2  0
  2 24  1  0
 24 25  1  0
 25 26  2  0
 25 27  1  0
 27 28  1  0
 28 29  1  0
 29 30  1  0
 30 31  1  0
 31 32  1  0
 32 33  2  0
 33 34  1  0
 34 35  1  0
 35 36  2  0
 36 37  1  0
 37 38  2  0
 38 39  1  0
 39 40  2  0
 39 41  1  0
 41 42  2  0
 29 43  1  0
 15  2  1  0
 14  5  1  0
 13  9  1  0
 23 18  1  0
 42 27  1  0
 41 30  1  0
 40 32  1  0
 40 35  1  0
M  END
$$$$
