
     RDKit          3D

 43 50  0  0  0  0  0  0  0  0999 V2000
    0.3131    5.6071   10.9722 C   0  0  0  0  0  0  0  0  0  0  0  0
    0.4848    4.1678   11.3876 C   0  0  0  0  0  0  0  0  0  0  0  0
   -0.6212    3.7075   12.2695 C   0  0  0  0  0  0  0  0  0  0  0  0
   -1.8225    3.4817   11.9673 O   0  0  0  0  0  0  0  0  0  0  0  0
   -0.0075    3.5750   13.5627 N   0  0  0  0  0  0  0  0  0  0  0  0
   -0.4153    2.8615   14.7681 C   0  0  0  0  0  0  0  0  0  0  0  0
    0.7665    2.4243   15.5679 C   0  0  0  0  0  0  0  0  0  0  0  0
    0.7239    1.4033   16.2829 O   0  0  0  0  0  0  0  0  0  0  0  0
    1.9371    3.1871   15.5019 N   0  0  0  0  0  0  0  0  0  0  0  0
    3.1479    3.2041   16.3425 C   0  0  0  0  0  0  0  0  0  0  0  0
    4.2259    3.3626   15.3230 C   0  0  0  0  0  0  0  0  0  0  0  0
    3.5655    3.7766   14.0207 C   0  0  0  0  0  0  0  0  0  0  0  0
    2.1921    4.1876   14.5053 C   0  0  0  0  0  0  0  0  0  0  0  0
    1.1901    4.3403   13.4373 C   0  0  0  0  0  0  0  0  0  0  0  0
    1.6436    3.9605   12.1612 O   0  0  0  0  0  0  0  0  0  0  0  0
    0.8469    5.6939   13.3093 O   0  0  0  0  0  0  0  0  0  0  0  0
   -1.2581    3.7223   15.6434 C   0  0  0  0  0  0  0  0  0  0  0  0
   -2.6880    3.6937   15.4409 C   0  0  0  0  0  0  0  0  0  0  0  0
   -3.2381    3.9857   14.2147 C   0  0  0  0  0  0  0  0  0  0  0  0
   -4.6313    3.9521   14.0308 C   0  0  0  0  0  0  0  0  0  0  0  0
   -5.4567    3.6232   15.0893 C   0  0  0  0  0  0  0  0  0  0  0  0
   -4.9113    3.3304   16.3179 C   0  0  0  0  0  0  0  0  0  0  0  0
   -3.5495    3.3733   16.4595 C   0  0  0  0  0  0  0  0  0  0  0  0
    0.4712    3.3629   10.2092 N   0  0  0  0  0  0  0  0  0  0  0  0
    0.0537    2.0042   10.1738 C   0  0  0  0  0  0  0  0  0  0  0  0
   -0.4875    1.5365   11.2028 O   0  0  0  0  0  0  0  0  0  0  0  0
    0.2220    1.1247    9.0019 C   0  0  0  0  0  0  0  0  0  0  0  0
   -0.5309    1.6821    7.8453 C   0  0  0  0  0  0  0  0  0  0  0  0
   -1.0529    0.6992    6.9217 N   0  0  0  0  0  0  0  0  0  0  0  0
   -0.1925   -0.4862    6.9558 C   0  0  0  0  0  0  0  0  0  0  0  0
   -0.3712   -1.3695    5.7901 C   0  0  0  0  0  0  0  0  0  0  0  0
   -0.7527   -2.7588    6.1142 C   0  0  0  0  0  0  0  0  0  0  0  0
   -1.0157   -3.8333    5.2951 C   0  0  0  0  0  0  0  0  0  0  0  0
   -1.3271   -4.9115    6.0776 N   0  0  0  0  0  0  0  0  0  0  0  0
   -1.2669   -4.5433    7.3660 C   0  0  0  0  0  0  0  0  0  0  0  0
   -1.4583   -5.1227    8.6110 C   0  0  0  0  0  0  0  0  0  0  0  0
   -1.2938   -4.3805    9.7679 C   0  0  0  0  0  0  0  0  0  0  0  0
   -0.9315   -3.0280    9.7490 C   0  0  0  0  0  0  0  0  0  0  0  0
   -0.7478   -2.4773    8.5044 C   0  0  0  0  0  0  0  0  0  0  0  0
   -0.9169   -3.2337    7.3673 C   0  0  0  0  0  0  0  0  0  0  0  0
   -0.3651   -1.0730    8.2901 C   0  0  0  0  0  0  0  0  0  0  0  0
   -0.1673   -0.2976    9.3344 C   0  0  0  0  0  0  0  0  0  0  0  0
   -1.0781    1.3021    5.6043 C   0  0  0  0  0  0  0  0  0  0  0  0
  1  2  1  0
  2  3  1  0
  3  4  2  0
  3  5  1  0
  5  6  1  0
  6  7  1  0
  7  8  2  0
  7  9  1  0
  9 10  1  0
 10 11  1  0
 11 12  1  0
 12 13  1  0
 13 14  1  0
 14 15  1  0
 14 16  1  0
  6 17  1  0
 17 18  1  0
 18 19  2  0
 19 20  1  0
 20 21  2  0
 21 22  1  0
 22 23  2  0
  2 24  1  0
 24 25  1  0
 25 26  2  0
 25 27  1  0
 27 28  1  0
 28 29  1  0
 29 30  1  0
 30 31  1  0
 31 32  1  0
 32 33  2  0
 33 34  1  0
 34 35  1  0
 35 36  2  0
 36 37  1  0
 37 38  2  0
 38 39  1  0
 39 40  2  0
 39 41  1  0
 41 42  2  0
 29 43  1  0
 15  2  1  0
 14  5  1  0
 13  9  1  0
 23 18  1  0
 42 27  1  0
 41 30  1  0
 40 32  1  0
 40 35  1  0
M  END
$$$$
