
     RDKit          3D

 43 50  0  0  0  0  0  0  0  0999 V2000
   -1.2388    4.5784   12.1295 C   0  0  0  0  0  0  0  0  0  0  0  0
   -0.1962    3.4892   12.1336 C   0  0  0  0  0  0  0  0  0  0  0  0
   -0.4054    2.5229   13.2451 C   0  0  0  0  0  0  0  0  0  0  0  0
   -1.3136    1.6602   13.3732 O   0  0  0  0  0  0  0  0  0  0  0  0
    0.6740    2.7946   14.1548 N   0  0  0  0  0  0  0  0  0  0  0  0
    1.2528    2.0146   15.2434 C   0  0  0  0  0  0  0  0  0  0  0  0
    2.6993    2.3309   15.4304 C   0  0  0  0  0  0  0  0  0  0  0  0
    3.4969    1.4810   15.8742 O   0  0  0  0  0  0  0  0  0  0  0  0
    3.1518    3.6114   15.0958 N   0  0  0  0  0  0  0  0  0  0  0  0
    4.4050    4.3232   15.4056 C   0  0  0  0  0  0  0  0  0  0  0  0
    4.6889    5.0183   14.1161 C   0  0  0  0  0  0  0  0  0  0  0  0
    3.4267    4.9547   13.2755 C   0  0  0  0  0  0  0  0  0  0  0  0
    2.4020    4.5526   14.3140 C   0  0  0  0  0  0  0  0  0  0  0  0
    1.1199    4.0902   13.7570 C   0  0  0  0  0  0  0  0  0  0  0  0
    1.1044    3.9833   12.3547 O   0  0  0  0  0  0  0  0  0  0  0  0
    0.1167    5.0225   14.0581 O   0  0  0  0  0  0  0  0  0  0  0  0
    0.5605    2.2932   16.5319 C   0  0  0  0  0  0  0  0  0  0  0  0
    1.0074    1.5787   17.7051 C   0  0  0  0  0  0  0  0  0  0  0  0
    1.1000    2.2047   18.9261 C   0  0  0  0  0  0  0  0  0  0  0  0
    1.5345    1.4970   20.0603 C   0  0  0  0  0  0  0  0  0  0  0  0
    1.8719    0.1614   19.9497 C   0  0  0  0  0  0  0  0  0  0  0  0
    1.7811   -0.4693   18.7304 C   0  0  0  0  0  0  0  0  0  0  0  0
    1.3536    0.2524   17.6474 C   0  0  0  0  0  0  0  0  0  0  0  0
   -0.2998    2.7732   10.9035 N   0  0  0  0  0  0  0  0  0  0  0  0
    0.0638    1.4085   10.7396 C   0  0  0  0  0  0  0  0  0  0  0  0
    0.2889    0.7396   11.7752 O   0  0  0  0  0  0  0  0  0  0  0  0
    0.1890    0.7447    9.4284 C   0  0  0  0  0  0  0  0  0  0  0  0
   -0.6426    1.4611    8.4232 C   0  0  0  0  0  0  0  0  0  0  0  0
   -1.1895    0.6291    7.3743 N   0  0  0  0  0  0  0  0  0  0  0  0
   -0.2973   -0.5137    7.1628 C   0  0  0  0  0  0  0  0  0  0  0  0
   -0.5180   -1.1945    5.8749 C   0  0  0  0  0  0  0  0  0  0  0  0
   -0.8434   -2.6313    5.9778 C   0  0  0  0  0  0  0  0  0  0  0  0
   -1.1235   -3.5618    5.0030 C   0  0  0  0  0  0  0  0  0  0  0  0
   -1.3614   -4.7665    5.6063 N   0  0  0  0  0  0  0  0  0  0  0  0
   -1.2384   -4.6179    6.9336 C   0  0  0  0  0  0  0  0  0  0  0  0
   -1.3437   -5.4045    8.0705 C   0  0  0  0  0  0  0  0  0  0  0  0
   -1.1339   -4.8616    9.3266 C   0  0  0  0  0  0  0  0  0  0  0  0
   -0.8094   -3.5130    9.5188 C   0  0  0  0  0  0  0  0  0  0  0  0
   -0.7110   -2.7550    8.3778 C   0  0  0  0  0  0  0  0  0  0  0  0
   -0.9238   -3.3153    7.1390 C   0  0  0  0  0  0  0  0  0  0  0  0
   -0.3786   -1.3219    8.3854 C   0  0  0  0  0  0  0  0  0  0  0  0
   -0.1428   -0.7262    9.5345 C   0  0  0  0  0  0  0  0  0  0  0  0
   -1.3051    1.4433    6.1812 C   0  0  0  0  0  0  0  0  0  0  0  0
  1  2  1  0
  2  3  1  0
  3  4  2  0
  3  5  1  0
  5  6  1  0
  6  7  1  0
  7  8  2  0
  7  9  1  0
  9 10  1  0
 10 11  1  0
 11 12  1  0
 12 13  1  0
 13 14  1  0
 14 15  1  0
 14 16  1  0
  6 17  1  0
 17 18  1  0
 18 19  2  0
 19 20  1  0
 20 21  2  0
 21 22  1  0
 22 23  2  0
  2 24  1  0
 24 25  1  0
 25 26  2  0
 25 27  1  0
 27 28  1  0
 28 29  1  0
 29 30  1  0
 30 31  1  0
 31 32  1  0
 32 33  2  0
 33 34  1  0
 34 35  1  0
 35 36  2  0
 36 37  1  0
 37 38  2  0
 38 39  1  0
 39 40  2  0
 39 41  1  0
 41 42  2  0
 29 43  1  0
 15  2  1  0
 14  5  1  0
 13  9  1  0
 23 18  1  0
 42 27  1  0
 41 30  1  0
 40 32  1  0
 40 35  1  0
M  END
$$$$
