
     RDKit          3D

 43 50  0  0  0  0  0  0  0  0999 V2000
   -2.7625    2.4711   13.7234 C   0  0  0  0  0  0  0  0  0  0  0  0
   -1.5691    1.6577   13.2898 C   0  0  0  0  0  0  0  0  0  0  0  0
   -1.0343    0.8207   14.3971 C   0  0  0  0  0  0  0  0  0  0  0  0
   -1.5457   -0.2023   14.9238 O   0  0  0  0  0  0  0  0  0  0  0  0
    0.2143    1.4459   14.7388 N   0  0  0  0  0  0  0  0  0  0  0  0
    1.3766    0.9651   15.4779 C   0  0  0  0  0  0  0  0  0  0  0  0
    2.6308    1.6240   15.0084 C   0  0  0  0  0  0  0  0  0  0  0  0
    3.7322    1.0425   15.0733 O   0  0  0  0  0  0  0  0  0  0  0  0
    2.5503    2.9199   14.4882 N   0  0  0  0  0  0  0  0  0  0  0  0
    3.5843    3.9321   14.2070 C   0  0  0  0  0  0  0  0  0  0  0  0
    3.1108    4.5016   12.9116 C   0  0  0  0  0  0  0  0  0  0  0  0
    1.6778    4.0445   12.7085 C   0  0  0  0  0  0  0  0  0  0  0  0
    1.3253    3.5567   14.0970 C   0  0  0  0  0  0  0  0  0  0  0  0
    0.0976    2.7467   14.1643 C   0  0  0  0  0  0  0  0  0  0  0  0
   -0.4742    2.4593   12.9118 O   0  0  0  0  0  0  0  0  0  0  0  0
   -0.8928    3.4569   14.8578 O   0  0  0  0  0  0  0  0  0  0  0  0
    1.2400    1.2424   16.9345 C   0  0  0  0  0  0  0  0  0  0  0  0
    2.1754    0.6053   17.8321 C   0  0  0  0  0  0  0  0  0  0  0  0
    3.3372    1.2354   18.2124 C   0  0  0  0  0  0  0  0  0  0  0  0
    4.2378    0.6049   19.0883 C   0  0  0  0  0  0  0  0  0  0  0  0
    3.9557   -0.6585   19.5723 C   0  0  0  0  0  0  0  0  0  0  0  0
    2.7949   -1.2931   19.1947 C   0  0  0  0  0  0  0  0  0  0  0  0
    1.9411   -0.6476   18.3398 C   0  0  0  0  0  0  0  0  0  0  0  0
   -1.9866    0.7847   12.2410 N   0  0  0  0  0  0  0  0  0  0  0  0
   -1.0998    0.1486   11.3296 C   0  0  0  0  0  0  0  0  0  0  0  0
    0.0914    0.5377   11.3119 O   0  0  0  0  0  0  0  0  0  0  0  0
   -1.5032   -0.9341   10.4129 C   0  0  0  0  0  0  0  0  0  0  0  0
   -0.8815   -2.2149   10.8466 C   0  0  0  0  0  0  0  0  0  0  0  0
   -0.5767   -3.1416    9.7788 N   0  0  0  0  0  0  0  0  0  0  0  0
   -1.5149   -2.9179    8.6759 C   0  0  0  0  0  0  0  0  0  0  0  0
   -1.5755   -4.0424    7.7256 C   0  0  0  0  0  0  0  0  0  0  0  0
   -1.2633   -3.6918    6.3255 C   0  0  0  0  0  0  0  0  0  0  0  0
   -1.2064   -4.4738    5.1941 C   0  0  0  0  0  0  0  0  0  0  0  0
   -0.8730   -3.6789    4.1316 N   0  0  0  0  0  0  0  0  0  0  0  0
   -0.7189   -2.4189    4.5650 C   0  0  0  0  0  0  0  0  0  0  0  0
   -0.3982   -1.1801    4.0314 C   0  0  0  0  0  0  0  0  0  0  0  0
   -0.3362   -0.0579    4.8396 C   0  0  0  0  0  0  0  0  0  0  0  0
   -0.5887   -0.1072    6.2161 C   0  0  0  0  0  0  0  0  0  0  0  0
   -0.9041   -1.3451    6.7205 C   0  0  0  0  0  0  0  0  0  0  0  0
   -0.9600   -2.4474    5.8987 C   0  0  0  0  0  0  0  0  0  0  0  0
   -1.2006   -1.5878    8.1409 C   0  0  0  0  0  0  0  0  0  0  0  0
   -1.1848   -0.5743    8.9798 C   0  0  0  0  0  0  0  0  0  0  0  0
   -0.6923   -4.4834   10.3135 C   0  0  0  0  0  0  0  0  0  0  0  0
  1  2  1  0
  2  3  1  0
  3  4  2  0
  3  5  1  0
  5  6  1  0
  6  7  1  0
  7  8  2  0
  7  9  1  0
  9 10  1  0
 10 11  1  0
 11 12  1  0
 12 13  1  0
 13 14  1  0
 14 15  1  0
 14 16  1  0
  6 17  1  0
 17 18  1  0
 18 19  2  0
 19 20  1  0
 20 21  2  0
 21 22  1  0
 22 23  2  0
  2 24  1  0
 24 25  1  0
 25 26  2  0
 25 27  1  0
 27 28  1  0
 28 29  1  0
 29 30  1  0
 30 31  1  0
 31 32  1  0
 32 33  2  0
 33 34  1  0
 34 35  1  0
 35 36  2  0
 36 37  1  0
 37 38  2  0
 38 39  1  0
 39 40  2  0
 39 41  1  0
 41 42  2  0
 29 43  1  0
 15  2  1  0
 14  5  1  0
 13  9  1  0
 23 18  1  0
 42 27  1  0
 41 30  1  0
 40 32  1  0
 40 35  1  0
M  END
$$$$
