
     RDKit          3D

 43 50  0  0  0  0  0  0  0  0999 V2000
    1.6720    4.8960   10.7644 C   0  0  0  0  0  0  0  0  0  0  0  0
    0.9441    4.3052   11.9454 C   0  0  0  0  0  0  0  0  0  0  0  0
   -0.4060    4.9041   12.1231 C   0  0  0  0  0  0  0  0  0  0  0  0
   -1.4316    4.7512   11.4088 O   0  0  0  0  0  0  0  0  0  0  0  0
   -0.2805    5.7081   13.3083 N   0  0  0  0  0  0  0  0  0  0  0  0
   -1.2747    6.2748   14.2131 C   0  0  0  0  0  0  0  0  0  0  0  0
   -0.7360    6.4092   15.5984 C   0  0  0  0  0  0  0  0  0  0  0  0
   -1.4839    6.3438   16.5943 O   0  0  0  0  0  0  0  0  0  0  0  0
    0.6380    6.6122   15.7641 N   0  0  0  0  0  0  0  0  0  0  0  0
    1.4338    7.0505   16.9249 C   0  0  0  0  0  0  0  0  0  0  0  0
    2.6317    6.1663   16.8260 C   0  0  0  0  0  0  0  0  0  0  0  0
    2.6211    5.5357   15.4454 C   0  0  0  0  0  0  0  0  0  0  0  0
    1.6131    6.4095   14.7311 C   0  0  0  0  0  0  0  0  0  0  0  0
    1.1306    5.8618   13.4522 C   0  0  0  0  0  0  0  0  0  0  0  0
    1.5933    4.5643   13.1684 O   0  0  0  0  0  0  0  0  0  0  0  0
    1.6064    6.6527   12.3966 O   0  0  0  0  0  0  0  0  0  0  0  0
   -1.7024    7.6281   13.7626 C   0  0  0  0  0  0  0  0  0  0  0  0
   -2.9707    8.1277   14.2407 C   0  0  0  0  0  0  0  0  0  0  0  0
   -3.1154    8.5802   15.5312 C   0  0  0  0  0  0  0  0  0  0  0  0
   -4.3548    9.0657   15.9830 C   0  0  0  0  0  0  0  0  0  0  0  0
   -5.4380    9.0893   15.1249 C   0  0  0  0  0  0  0  0  0  0  0  0
   -5.2983    8.6375   13.8330 C   0  0  0  0  0  0  0  0  0  0  0  0
   -4.0754    8.1717   13.4282 C   0  0  0  0  0  0  0  0  0  0  0  0
    0.7772    2.9079   11.7081 N   0  0  0  0  0  0  0  0  0  0  0  0
   -0.1511    2.3595   10.7812 C   0  0  0  0  0  0  0  0  0  0  0  0
   -0.5835    3.1133    9.8782 O   0  0  0  0  0  0  0  0  0  0  0  0
   -0.6276    0.9644   10.8256 C   0  0  0  0  0  0  0  0  0  0  0  0
    0.2656    0.1580   11.7014 C   0  0  0  0  0  0  0  0  0  0  0  0
    0.4000   -1.2325   11.3267 N   0  0  0  0  0  0  0  0  0  0  0  0
   -0.8236   -1.6588   10.6427 C   0  0  0  0  0  0  0  0  0  0  0  0
   -0.9767   -3.1229   10.5814 C   0  0  0  0  0  0  0  0  0  0  0  0
   -1.1085   -3.6789    9.2197 C   0  0  0  0  0  0  0  0  0  0  0  0
   -1.2480   -4.9787    8.7888 C   0  0  0  0  0  0  0  0  0  0  0  0
   -1.3321   -4.9782    7.4232 N   0  0  0  0  0  0  0  0  0  0  0  0
   -1.2492   -3.7132    6.9847 C   0  0  0  0  0  0  0  0  0  0  0  0
   -1.2661   -3.0424    5.7715 C   0  0  0  0  0  0  0  0  0  0  0  0
   -1.1496   -1.6637    5.7254 C   0  0  0  0  0  0  0  0  0  0  0  0
   -1.0107   -0.8814    6.8785 C   0  0  0  0  0  0  0  0  0  0  0  0
   -0.9968   -1.5689    8.0673 C   0  0  0  0  0  0  0  0  0  0  0  0
   -1.1139   -2.9398    8.0898 C   0  0  0  0  0  0  0  0  0  0  0  0
   -0.8600   -0.9148    9.3779 C   0  0  0  0  0  0  0  0  0  0  0  0
   -0.7637    0.3963    9.4314 C   0  0  0  0  0  0  0  0  0  0  0  0
    0.6273   -1.9952   12.5377 C   0  0  0  0  0  0  0  0  0  0  0  0
  1  2  1  0
  2  3  1  0
  3  4  2  0
  3  5  1  0
  5  6  1  0
  6  7  1  0
  7  8  2  0
  7  9  1  0
  9 10  1  0
 10 11  1  0
 11 12  1  0
 12 13  1  0
 13 14  1  0
 14 15  1  0
 14 16  1  0
  6 17  1  0
 17 18  1  0
 18 19  2  0
 19 20  1  0
 20 21  2  0
 21 22  1  0
 22 23  2  0
  2 24  1  0
 24 25  1  0
 25 26  2  0
 25 27  1  0
 27 28  1  0
 28 29  1  0
 29 30  1  0
 30 31  1  0
 31 32  1  0
 32 33  2  0
 33 34  1  0
 34 35  1  0
 35 36  2  0
 36 37  1  0
 37 38  2  0
 38 39  1  0
 39 40  2  0
 39 41  1  0
 41 42  2  0
 29 43  1  0
 15  2  1  0
 14  5  1  0
 13  9  1  0
 23 18  1  0
 42 27  1  0
 41 30  1  0
 40 32  1  0
 40 35  1  0
M  END
$$$$
