
     RDKit          3D

 43 50  0  0  0  0  0  0  0  0999 V2000
   -1.7649   -2.7999   10.3435 C   0  0  0  0  0  0  0  0  0  0  0  0
   -1.0612   -1.5670   10.8515 C   0  0  0  0  0  0  0  0  0  0  0  0
    0.0768   -1.9054   11.7477 C   0  0  0  0  0  0  0  0  0  0  0  0
    1.1859   -2.4197   11.4462 O   0  0  0  0  0  0  0  0  0  0  0  0
   -0.3749   -1.5099   13.0539 N   0  0  0  0  0  0  0  0  0  0  0  0
    0.3424   -1.2495   14.2973 C   0  0  0  0  0  0  0  0  0  0  0  0
   -0.3718   -0.2435   15.1372 C   0  0  0  0  0  0  0  0  0  0  0  0
    0.2478    0.5091   15.9151 O   0  0  0  0  0  0  0  0  0  0  0  0
   -1.7642   -0.1571   15.0368 N   0  0  0  0  0  0  0  0  0  0  0  0
   -2.7723    0.4992   15.8889 C   0  0  0  0  0  0  0  0  0  0  0  0
   -3.7049    1.0713   14.8742 C   0  0  0  0  0  0  0  0  0  0  0  0
   -3.3823    0.4227   13.5404 C   0  0  0  0  0  0  0  0  0  0  0  0
   -2.5347   -0.7507   13.9817 C   0  0  0  0  0  0  0  0  0  0  0  0
   -1.7889   -1.4060   12.8943 C   0  0  0  0  0  0  0  0  0  0  0  0
   -1.8925   -0.7577   11.6504 O   0  0  0  0  0  0  0  0  0  0  0  0
   -2.3119   -2.6886   12.6764 O   0  0  0  0  0  0  0  0  0  0  0  0
    0.4853   -2.4916   15.1061 C   0  0  0  0  0  0  0  0  0  0  0  0
    1.5449   -2.5389   16.0866 C   0  0  0  0  0  0  0  0  0  0  0  0
    1.8440   -1.4439   16.8631 C   0  0  0  0  0  0  0  0  0  0  0  0
    2.8764   -1.5042   17.8152 C   0  0  0  0  0  0  0  0  0  0  0  0
    3.5980   -2.6722   17.9738 C   0  0  0  0  0  0  0  0  0  0  0  0
    3.3028   -3.7702   17.1993 C   0  0  0  0  0  0  0  0  0  0  0  0
    2.2899   -3.6743   16.2820 C   0  0  0  0  0  0  0  0  0  0  0  0
   -0.5397   -0.8604    9.7266 N   0  0  0  0  0  0  0  0  0  0  0  0
    0.2933    0.2881    9.8198 C   0  0  0  0  0  0  0  0  0  0  0  0
    1.1100    0.3371   10.7691 O   0  0  0  0  0  0  0  0  0  0  0  0
    0.2476    1.4140    8.8681 C   0  0  0  0  0  0  0  0  0  0  0  0
    1.1494    1.1339    7.7177 C   0  0  0  0  0  0  0  0  0  0  0  0
    1.7559    2.3005    7.1152 N   0  0  0  0  0  0  0  0  0  0  0  0
    0.8688    3.4499    7.3118 C   0  0  0  0  0  0  0  0  0  0  0  0
    1.1666    4.5765    6.4101 C   0  0  0  0  0  0  0  0  0  0  0  0
    1.4714    5.8527    7.0877 C   0  0  0  0  0  0  0  0  0  0  0  0
    1.8058    7.0855    6.5748 C   0  0  0  0  0  0  0  0  0  0  0  0
    1.9929    7.9539    7.6154 N   0  0  0  0  0  0  0  0  0  0  0  0
    1.7851    7.3000    8.7679 C   0  0  0  0  0  0  0  0  0  0  0  0
    1.8088    7.5772   10.1261 C   0  0  0  0  0  0  0  0  0  0  0  0
    1.5227    6.5899   11.0533 C   0  0  0  0  0  0  0  0  0  0  0  0
    1.1988    5.2793   10.6812 C   0  0  0  0  0  0  0  0  0  0  0  0
    1.1819    5.0299    9.3308 C   0  0  0  0  0  0  0  0  0  0  0  0
    1.4698    6.0265    8.4265 C   0  0  0  0  0  0  0  0  0  0  0  0
    0.8629    3.7139    8.7556 C   0  0  0  0  0  0  0  0  0  0  0  0
    0.5583    2.7202    9.5624 C   0  0  0  0  0  0  0  0  0  0  0  0
    1.9564    2.0161    5.7085 C   0  0  0  0  0  0  0  0  0  0  0  0
  1  2  1  0
  2  3  1  0
  3  4  2  0
  3  5  1  0
  5  6  1  0
  6  7  1  0
  7  8  2  0
  7  9  1  0
  9 10  1  0
 10 11  1  0
 11 12  1  0
 12 13  1  0
 13 14  1  0
 14 15  1  0
 14 16  1  0
  6 17  1  0
 17 18  1  0
 18 19  2  0
 19 20  1  0
 20 21  2  0
 21 22  1  0
 22 23  2  0
  2 24  1  0
 24 25  1  0
 25 26  2  0
 25 27  1  0
 27 28  1  0
 28 29  1  0
 29 30  1  0
 30 31  1  0
 31 32  1  0
 32 33  2  0
 33 34  1  0
 34 35  1  0
 35 36  2  0
 36 37  1  0
 37 38  2  0
 38 39  1  0
 39 40  2  0
 39 41  1  0
 41 42  2  0
 29 43  1  0
 15  2  1  0
 14  5  1  0
 13  9  1  0
 23 18  1  0
 42 27  1  0
 41 30  1  0
 40 32  1  0
 40 35  1  0
M  END
$$$$
