
     RDKit          3D

 43 50  0  0  0  0  0  0  0  0999 V2000
   -1.4460    3.3023   12.9036 C   0  0  0  0  0  0  0  0  0  0  0  0
   -0.0235    2.8198   12.7726 C   0  0  0  0  0  0  0  0  0  0  0  0
    0.3000    1.7644   13.7698 C   0  0  0  0  0  0  0  0  0  0  0  0
   -0.1051    0.5729   13.8095 O   0  0  0  0  0  0  0  0  0  0  0  0
    1.1910    2.4139   14.6923 N   0  0  0  0  0  0  0  0  0  0  0  0
    2.1279    1.8875   15.6790 C   0  0  0  0  0  0  0  0  0  0  0  0
    3.2796    2.8142   15.8845 C   0  0  0  0  0  0  0  0  0  0  0  0
    4.4027    2.3883   16.2203 O   0  0  0  0  0  0  0  0  0  0  0  0
    3.0770    4.1847   15.6921 N   0  0  0  0  0  0  0  0  0  0  0  0
    3.8844    5.3598   16.0665 C   0  0  0  0  0  0  0  0  0  0  0  0
    3.7397    6.2271   14.8610 C   0  0  0  0  0  0  0  0  0  0  0  0
    2.5960    5.6708   14.0327 C   0  0  0  0  0  0  0  0  0  0  0  0
    1.9338    4.7454   15.0303 C   0  0  0  0  0  0  0  0  0  0  0  0
    0.9716    3.8007   14.4388 C   0  0  0  0  0  0  0  0  0  0  0  0
    0.9197    3.8331   13.0337 O   0  0  0  0  0  0  0  0  0  0  0  0
   -0.3254    4.1337   14.8548 O   0  0  0  0  0  0  0  0  0  0  0  0
    1.4659    1.6921   16.9985 C   0  0  0  0  0  0  0  0  0  0  0  0
    2.1157    0.8284   17.9568 C   0  0  0  0  0  0  0  0  0  0  0  0
    2.9130   -0.2147   17.5474 C   0  0  0  0  0  0  0  0  0  0  0  0
    3.5412   -1.0462   18.4907 C   0  0  0  0  0  0  0  0  0  0  0  0
    3.3573   -0.8156   19.8410 C   0  0  0  0  0  0  0  0  0  0  0  0
    2.5606    0.2265   20.2555 C   0  0  0  0  0  0  0  0  0  0  0  0
    1.9648    1.0158   19.3076 C   0  0  0  0  0  0  0  0  0  0  0  0
    0.1347    2.2576   11.4705 N   0  0  0  0  0  0  0  0  0  0  0  0
   -0.0836    0.8875   11.1594 C   0  0  0  0  0  0  0  0  0  0  0  0
   -0.4396    0.1301   12.0923 O   0  0  0  0  0  0  0  0  0  0  0  0
    0.0852    0.3157    9.8103 C   0  0  0  0  0  0  0  0  0  0  0  0
   -0.6941    1.1156    8.8265 C   0  0  0  0  0  0  0  0  0  0  0  0
   -1.2100    0.3693    7.7002 N   0  0  0  0  0  0  0  0  0  0  0  0
   -0.3268   -0.7712    7.4435 C   0  0  0  0  0  0  0  0  0  0  0  0
   -0.5048   -1.3555    6.1027 C   0  0  0  0  0  0  0  0  0  0  0  0
   -0.8551   -2.7901    6.0901 C   0  0  0  0  0  0  0  0  0  0  0  0
   -1.1088   -3.6445    5.0412 C   0  0  0  0  0  0  0  0  0  0  0  0
   -1.3888   -4.8844    5.5473 N   0  0  0  0  0  0  0  0  0  0  0  0
   -1.3178   -4.8318    6.8857 C   0  0  0  0  0  0  0  0  0  0  0  0
   -1.4808   -5.6947    7.9587 C   0  0  0  0  0  0  0  0  0  0  0  0
   -1.3144   -5.2455    9.2575 C   0  0  0  0  0  0  0  0  0  0  0  0
   -0.9783   -3.9197    9.5579 C   0  0  0  0  0  0  0  0  0  0  0  0
   -0.8224   -3.0849    8.4785 C   0  0  0  0  0  0  0  0  0  0  0  0
   -0.9928   -3.5527    7.1956 C   0  0  0  0  0  0  0  0  0  0  0  0
   -0.4696   -1.6620    8.6012 C   0  0  0  0  0  0  0  0  0  0  0  0
   -0.2722   -1.1530    9.7983 C   0  0  0  0  0  0  0  0  0  0  0  0
   -1.2650    1.2675    6.5644 C   0  0  0  0  0  0  0  0  0  0  0  0
  1  2  1  0
  2  3  1  0
  3  4  2  0
  3  5  1  0
  5  6  1  0
  6  7  1  0
  7  8  2  0
  7  9  1  0
  9 10  1  0
 10 11  1  0
 11 12  1  0
 12 13  1  0
 13 14  1  0
 14 15  1  0
 14 16  1  0
  6 17  1  0
 17 18  1  0
 18 19  2  0
 19 20  1  0
 20 21  2  0
 21 22  1  0
 22 23  2  0
  2 24  1  0
 24 25  1  0
 25 26  2  0
 25 27  1  0
 27 28  1  0
 28 29  1  0
 29 30  1  0
 30 31  1  0
 31 32  1  0
 32 33  2  0
 33 34  1  0
 34 35  1  0
 35 36  2  0
 36 37  1  0
 37 38  2  0
 38 39  1  0
 39 40  2  0
 39 41  1  0
 41 42  2  0
 29 43  1  0
 15  2  1  0
 14  5  1  0
 13  9  1  0
 23 18  1  0
 42 27  1  0
 41 30  1  0
 40 32  1  0
 40 35  1  0
M  END
$$$$
