
     RDKit          3D

 43 50  0  0  0  0  0  0  0  0999 V2000
    4.1982    2.4107   13.2579 C   0  0  0  0  0  0  0  0  0  0  0  0
    2.7332    2.4583   12.9040 C   0  0  0  0  0  0  0  0  0  0  0  0
    2.2744    3.8444   12.6193 C   0  0  0  0  0  0  0  0  0  0  0  0
    2.5424    4.5703   11.6260 O   0  0  0  0  0  0  0  0  0  0  0  0
    1.4445    4.1780   13.7448 N   0  0  0  0  0  0  0  0  0  0  0  0
    0.4359    5.2136   13.9408 C   0  0  0  0  0  0  0  0  0  0  0  0
   -0.6083    4.7790   14.9146 C   0  0  0  0  0  0  0  0  0  0  0  0
   -1.7783    5.2052   14.8442 O   0  0  0  0  0  0  0  0  0  0  0  0
   -0.2494    3.8751   15.9199 N   0  0  0  0  0  0  0  0  0  0  0  0
   -0.9268    3.4696   17.1647 C   0  0  0  0  0  0  0  0  0  0  0  0
   -0.6628    2.0013   17.1925 C   0  0  0  0  0  0  0  0  0  0  0  0
    0.4269    1.7139   16.1757 C   0  0  0  0  0  0  0  0  0  0  0  0
    0.9619    3.1057   15.9171 C   0  0  0  0  0  0  0  0  0  0  0  0
    1.8230    3.2157   14.7278 C   0  0  0  0  0  0  0  0  0  0  0  0
    1.9049    2.0381   13.9632 O   0  0  0  0  0  0  0  0  0  0  0  0
    3.1411    3.4773   15.1285 O   0  0  0  0  0  0  0  0  0  0  0  0
    1.0465    6.4669   14.4642 C   0  0  0  0  0  0  0  0  0  0  0  0
    0.8215    7.6863   13.7235 C   0  0  0  0  0  0  0  0  0  0  0  0
    1.1819    7.7909   12.4004 C   0  0  0  0  0  0  0  0  0  0  0  0
    0.9553    8.9829   11.6906 C   0  0  0  0  0  0  0  0  0  0  0  0
    0.3659   10.0597   12.3256 C   0  0  0  0  0  0  0  0  0  0  0  0
    0.0038    9.9601   13.6491 C   0  0  0  0  0  0  0  0  0  0  0  0
    0.2400    8.7828   14.3083 C   0  0  0  0  0  0  0  0  0  0  0  0
    2.5378    1.6795   11.7242 N   0  0  0  0  0  0  0  0  0  0  0  0
    1.2799    1.1670   11.3038 C   0  0  0  0  0  0  0  0  0  0  0  0
    0.3380    1.1910   12.1301 O   0  0  0  0  0  0  0  0  0  0  0  0
    1.0272    0.6140    9.9600 C   0  0  0  0  0  0  0  0  0  0  0  0
    0.1186    1.5217    9.2079 C   0  0  0  0  0  0  0  0  0  0  0  0
   -0.7535    0.8674    8.2576 N   0  0  0  0  0  0  0  0  0  0  0  0
   -0.1051   -0.3591    7.7865 C   0  0  0  0  0  0  0  0  0  0  0  0
   -0.6897   -0.8854    6.5407 C   0  0  0  0  0  0  0  0  0  0  0  0
   -1.1956   -2.2702    6.6267 C   0  0  0  0  0  0  0  0  0  0  0  0
   -1.8089   -3.0636    5.6839 C   0  0  0  0  0  0  0  0  0  0  0  0
   -2.0907   -4.2761    6.2516 N   0  0  0  0  0  0  0  0  0  0  0  0
   -1.6711   -4.2657    7.5255 C   0  0  0  0  0  0  0  0  0  0  0  0
   -1.6507   -5.1313    8.6084 C   0  0  0  0  0  0  0  0  0  0  0  0
   -1.1037   -4.7368    9.8174 C   0  0  0  0  0  0  0  0  0  0  0  0
   -0.5498   -3.4657   10.0136 C   0  0  0  0  0  0  0  0  0  0  0  0
   -0.5819   -2.6270    8.9264 C   0  0  0  0  0  0  0  0  0  0  0  0
   -1.1308   -3.0400    7.7340 C   0  0  0  0  0  0  0  0  0  0  0  0
   -0.0467   -1.2568    8.9462 C   0  0  0  0  0  0  0  0  0  0  0  0
    0.5107   -0.8039   10.0485 C   0  0  0  0  0  0  0  0  0  0  0  0
   -0.9951    1.7944    7.1704 C   0  0  0  0  0  0  0  0  0  0  0  0
  1  2  1  0
  2  3  1  0
  3  4  2  0
  3  5  1  0
  5  6  1  0
  6  7  1  0
  7  8  2  0
  7  9  1  0
  9 10  1  0
 10 11  1  0
 11 12  1  0
 12 13  1  0
 13 14  1  0
 14 15  1  0
 14 16  1  0
  6 17  1  0
 17 18  1  0
 18 19  2  0
 19 20  1  0
 20 21  2  0
 21 22  1  0
 22 23  2  0
  2 24  1  0
 24 25  1  0
 25 26  2  0
 25 27  1  0
 27 28  1  0
 28 29  1  0
 29 30  1  0
 30 31  1  0
 31 32  1  0
 32 33  2  0
 33 34  1  0
 34 35  1  0
 35 36  2  0
 36 37  1  0
 37 38  2  0
 38 39  1  0
 39 40  2  0
 39 41  1  0
 41 42  2  0
 29 43  1  0
 15  2  1  0
 14  5  1  0
 13  9  1  0
 23 18  1  0
 42 27  1  0
 41 30  1  0
 40 32  1  0
 40 35  1  0
M  END
$$$$
