
     RDKit          3D

 43 50  0  0  0  0  0  0  0  0999 V2000
   -1.5824    4.6411   12.2608 C   0  0  0  0  0  0  0  0  0  0  0  0
   -0.6892    3.4309   12.3666 C   0  0  0  0  0  0  0  0  0  0  0  0
   -0.8913    2.7006   13.6468 C   0  0  0  0  0  0  0  0  0  0  0  0
   -1.8795    2.0082   14.0067 O   0  0  0  0  0  0  0  0  0  0  0  0
    0.3084    2.9629   14.3941 N   0  0  0  0  0  0  0  0  0  0  0  0
    0.9039    2.2990   15.5487 C   0  0  0  0  0  0  0  0  0  0  0  0
    2.3902    2.4337   15.5473 C   0  0  0  0  0  0  0  0  0  0  0  0
    3.1207    1.5643   16.0631 O   0  0  0  0  0  0  0  0  0  0  0  0
    2.9580    3.5644   14.9510 N   0  0  0  0  0  0  0  0  0  0  0  0
    4.3165    4.1327   15.0165 C   0  0  0  0  0  0  0  0  0  0  0  0
    4.5386    4.5585   13.6037 C   0  0  0  0  0  0  0  0  0  0  0  0
    3.1923    4.5366   12.9032 C   0  0  0  0  0  0  0  0  0  0  0  0
    2.2482    4.4604   14.0834 C   0  0  0  0  0  0  0  0  0  0  0  0
    0.8644    4.0988   13.7336 C   0  0  0  0  0  0  0  0  0  0  0  0
    0.6791    3.7654   12.3798 O   0  0  0  0  0  0  0  0  0  0  0  0
    0.0248    5.2005   13.9514 O   0  0  0  0  0  0  0  0  0  0  0  0
    0.3999    2.8814   16.8231 C   0  0  0  0  0  0  0  0  0  0  0  0
    0.9994    2.4256   18.0557 C   0  0  0  0  0  0  0  0  0  0  0  0
    2.3306    2.6453   18.3223 C   0  0  0  0  0  0  0  0  0  0  0  0
    2.9009    2.1982   19.5268 C   0  0  0  0  0  0  0  0  0  0  0  0
    2.1194    1.5321   20.4519 C   0  0  0  0  0  0  0  0  0  0  0  0
    0.7873    1.3097   20.1897 C   0  0  0  0  0  0  0  0  0  0  0  0
    0.2664    1.7600   19.0055 C   0  0  0  0  0  0  0  0  0  0  0  0
   -1.0178    2.5439   11.2980 N   0  0  0  0  0  0  0  0  0  0  0  0
   -0.4243    1.2659   11.1086 C   0  0  0  0  0  0  0  0  0  0  0  0
   -0.0429    0.6462   12.1289 O   0  0  0  0  0  0  0  0  0  0  0  0
   -0.2353    0.6369    9.7880 C   0  0  0  0  0  0  0  0  0  0  0  0
   -1.1259    1.2901    8.7903 C   0  0  0  0  0  0  0  0  0  0  0  0
   -1.5917    0.4282    7.7264 N   0  0  0  0  0  0  0  0  0  0  0  0
   -0.5984   -0.6251    7.5013 C   0  0  0  0  0  0  0  0  0  0  0  0
   -0.7524   -1.3030    6.2022 C   0  0  0  0  0  0  0  0  0  0  0  0
   -0.9458   -2.7649    6.2817 C   0  0  0  0  0  0  0  0  0  0  0  0
   -1.1371   -3.7017    5.2916 C   0  0  0  0  0  0  0  0  0  0  0  0
   -1.2659   -4.9323    5.8753 N   0  0  0  0  0  0  0  0  0  0  0  0
   -1.1608   -4.7938    7.2053 C   0  0  0  0  0  0  0  0  0  0  0  0
   -1.1971   -5.6044    8.3296 C   0  0  0  0  0  0  0  0  0  0  0  0
   -1.0413   -5.0645    9.5947 C   0  0  0  0  0  0  0  0  0  0  0  0
   -0.8417   -3.6950    9.8088 C   0  0  0  0  0  0  0  0  0  0  0  0
   -0.8095   -2.9134    8.6800 C   0  0  0  0  0  0  0  0  0  0  0  0
   -0.9668   -3.4715    7.4320 C   0  0  0  0  0  0  0  0  0  0  0  0
   -0.6091   -1.4563    8.7110 C   0  0  0  0  0  0  0  0  0  0  0  0
   -0.4320   -0.8596    9.8701 C   0  0  0  0  0  0  0  0  0  0  0  0
   -1.7776    1.2470    6.5454 C   0  0  0  0  0  0  0  0  0  0  0  0
  1  2  1  0
  2  3  1  0
  3  4  2  0
  3  5  1  0
  5  6  1  0
  6  7  1  0
  7  8  2  0
  7  9  1  0
  9 10  1  0
 10 11  1  0
 11 12  1  0
 12 13  1  0
 13 14  1  0
 14 15  1  0
 14 16  1  0
  6 17  1  0
 17 18  1  0
 18 19  2  0
 19 20  1  0
 20 21  2  0
 21 22  1  0
 22 23  2  0
  2 24  1  0
 24 25  1  0
 25 26  2  0
 25 27  1  0
 27 28  1  0
 28 29  1  0
 29 30  1  0
 30 31  1  0
 31 32  1  0
 32 33  2  0
 33 34  1  0
 34 35  1  0
 35 36  2  0
 36 37  1  0
 37 38  2  0
 38 39  1  0
 39 40  2  0
 39 41  1  0
 41 42  2  0
 29 43  1  0
 15  2  1  0
 14  5  1  0
 13  9  1  0
 23 18  1  0
 42 27  1  0
 41 30  1  0
 40 32  1  0
 40 35  1  0
M  END
$$$$
