
     RDKit          3D

 43 50  0  0  0  0  0  0  0  0999 V2000
    2.3437    3.0256   14.3924 C   0  0  0  0  0  0  0  0  0  0  0  0
    1.0645    3.4935   13.7456 C   0  0  0  0  0  0  0  0  0  0  0  0
    1.3220    4.2930   12.5178 C   0  0  0  0  0  0  0  0  0  0  0  0
    1.7478    3.8985   11.4005 O   0  0  0  0  0  0  0  0  0  0  0  0
    0.9721    5.6359   12.8932 N   0  0  0  0  0  0  0  0  0  0  0  0
    0.6671    6.8226   12.1013 C   0  0  0  0  0  0  0  0  0  0  0  0
   -0.2750    7.7295   12.8206 C   0  0  0  0  0  0  0  0  0  0  0  0
   -1.0667    8.4666   12.1998 O   0  0  0  0  0  0  0  0  0  0  0  0
   -0.2557    7.7399   14.2191 N   0  0  0  0  0  0  0  0  0  0  0  0
   -0.8266    8.6773   15.2031 C   0  0  0  0  0  0  0  0  0  0  0  0
   -1.3335    7.7468   16.2537 C   0  0  0  0  0  0  0  0  0  0  0  0
   -0.7217    6.3831   15.9899 C   0  0  0  0  0  0  0  0  0  0  0  0
    0.3869    6.7405   15.0238 C   0  0  0  0  0  0  0  0  0  0  0  0
    0.9751    5.5891   14.3191 C   0  0  0  0  0  0  0  0  0  0  0  0
    0.3271    4.3662   14.5697 O   0  0  0  0  0  0  0  0  0  0  0  0
    2.2922    5.3955   14.7595 O   0  0  0  0  0  0  0  0  0  0  0  0
    1.9009    7.6007   11.8014 C   0  0  0  0  0  0  0  0  0  0  0  0
    1.8739    8.4961   10.6683 C   0  0  0  0  0  0  0  0  0  0  0  0
    1.8136    9.8592   10.8409 C   0  0  0  0  0  0  0  0  0  0  0  0
    1.7900   10.7194    9.7294 C   0  0  0  0  0  0  0  0  0  0  0  0
    1.8274   10.1932    8.4520 C   0  0  0  0  0  0  0  0  0  0  0  0
    1.8875    8.8303    8.2741 C   0  0  0  0  0  0  0  0  0  0  0  0
    1.9091    8.0234    9.3808 C   0  0  0  0  0  0  0  0  0  0  0  0
    0.3117    2.3409   13.3697 N   0  0  0  0  0  0  0  0  0  0  0  0
    0.2043    1.8556   12.0376 C   0  0  0  0  0  0  0  0  0  0  0  0
    0.6737    2.5691   11.1204 O   0  0  0  0  0  0  0  0  0  0  0  0
   -0.4240    0.5697   11.6812 C   0  0  0  0  0  0  0  0  0  0  0  0
    0.3204   -0.5467   12.3251 C   0  0  0  0  0  0  0  0  0  0  0  0
    0.3242   -1.7892   11.5849 N   0  0  0  0  0  0  0  0  0  0  0  0
   -0.8948   -1.8615   10.7753 C   0  0  0  0  0  0  0  0  0  0  0  0
   -1.2035   -3.2242   10.3076 C   0  0  0  0  0  0  0  0  0  0  0  0
   -1.3124   -3.3699    8.8421 C   0  0  0  0  0  0  0  0  0  0  0  0
   -1.5670   -4.4772    8.0651 C   0  0  0  0  0  0  0  0  0  0  0  0
   -1.5674   -4.0964    6.7510 N   0  0  0  0  0  0  0  0  0  0  0  0
   -1.3198   -2.7800    6.6816 C   0  0  0  0  0  0  0  0  0  0  0  0
   -1.1893   -1.8086    5.7009 C   0  0  0  0  0  0  0  0  0  0  0  0
   -0.9199   -0.4940    6.0408 C   0  0  0  0  0  0  0  0  0  0  0  0
   -0.7664   -0.0764    7.3686 C   0  0  0  0  0  0  0  0  0  0  0  0
   -0.9002   -1.0567    8.3211 C   0  0  0  0  0  0  0  0  0  0  0  0
   -1.1680   -2.3575    7.9607 C   0  0  0  0  0  0  0  0  0  0  0  0
   -0.7726   -0.8040    9.7648 C   0  0  0  0  0  0  0  0  0  0  0  0
   -0.5365    0.4216   10.1811 C   0  0  0  0  0  0  0  0  0  0  0  0
    0.3925   -2.8733   12.5440 C   0  0  0  0  0  0  0  0  0  0  0  0
  1  2  1  0
  2  3  1  0
  3  4  2  0
  3  5  1  0
  5  6  1  0
  6  7  1  0
  7  8  2  0
  7  9  1  0
  9 10  1  0
 10 11  1  0
 11 12  1  0
 12 13  1  0
 13 14  1  0
 14 15  1  0
 14 16  1  0
  6 17  1  0
 17 18  1  0
 18 19  2  0
 19 20  1  0
 20 21  2  0
 21 22  1  0
 22 23  2  0
  2 24  1  0
 24 25  1  0
 25 26  2  0
 25 27  1  0
 27 28  1  0
 28 29  1  0
 29 30  1  0
 30 31  1  0
 31 32  1  0
 32 33  2  0
 33 34  1  0
 34 35  1  0
 35 36  2  0
 36 37  1  0
 37 38  2  0
 38 39  1  0
 39 40  2  0
 39 41  1  0
 41 42  2  0
 29 43  1  0
 15  2  1  0
 14  5  1  0
 13  9  1  0
 23 18  1  0
 42 27  1  0
 41 30  1  0
 40 32  1  0
 40 35  1  0
M  END
$$$$
