
     RDKit          3D

 43 50  0  0  0  0  0  0  0  0999 V2000
   -0.8228    4.8133   11.0108 C   0  0  0  0  0  0  0  0  0  0  0  0
    0.0470    3.6476   11.4085 C   0  0  0  0  0  0  0  0  0  0  0  0
   -0.6119    2.7826   12.4236 C   0  0  0  0  0  0  0  0  0  0  0  0
   -1.5919    2.0062   12.2745 O   0  0  0  0  0  0  0  0  0  0  0  0
    0.1277    3.0317   13.6310 N   0  0  0  0  0  0  0  0  0  0  0  0
    0.2345    2.2875   14.8812 C   0  0  0  0  0  0  0  0  0  0  0  0
    1.5618    2.5003   15.5296 C   0  0  0  0  0  0  0  0  0  0  0  0
    2.0800    1.6234   16.2493 O   0  0  0  0  0  0  0  0  0  0  0  0
    2.2235    3.7137   15.3147 N   0  0  0  0  0  0  0  0  0  0  0  0
    3.3678    4.3437   15.9977 C   0  0  0  0  0  0  0  0  0  0  0  0
    4.1288    4.9206   14.8511 C   0  0  0  0  0  0  0  0  0  0  0  0
    3.2154    4.8979   13.6392 C   0  0  0  0  0  0  0  0  0  0  0  0
    1.8708    4.6535   14.2891 C   0  0  0  0  0  0  0  0  0  0  0  0
    0.8055    4.2561   13.3535 C   0  0  0  0  0  0  0  0  0  0  0  0
    1.2436    4.0512   12.0328 O   0  0  0  0  0  0  0  0  0  0  0  0
   -0.1435    5.2843   13.2627 O   0  0  0  0  0  0  0  0  0  0  0  0
   -0.8136    2.7113   15.8505 C   0  0  0  0  0  0  0  0  0  0  0  0
   -2.1660    2.2590   15.6209 C   0  0  0  0  0  0  0  0  0  0  0  0
   -3.1941    3.1547   15.4412 C   0  0  0  0  0  0  0  0  0  0  0  0
   -4.5054    2.7009   15.2164 C   0  0  0  0  0  0  0  0  0  0  0  0
   -4.7659    1.3443   15.1755 C   0  0  0  0  0  0  0  0  0  0  0  0
   -3.7409    0.4443   15.3549 C   0  0  0  0  0  0  0  0  0  0  0  0
   -2.4760    0.9234   15.5713 C   0  0  0  0  0  0  0  0  0  0  0  0
    0.2854    2.8565   10.2450 N   0  0  0  0  0  0  0  0  0  0  0  0
    0.0284    1.4606   10.1609 C   0  0  0  0  0  0  0  0  0  0  0  0
   -0.3911    0.8846   11.1918 O   0  0  0  0  0  0  0  0  0  0  0  0
    0.2272    0.6622    8.9368 C   0  0  0  0  0  0  0  0  0  0  0  0
   -0.5563    1.2558    7.8192 C   0  0  0  0  0  0  0  0  0  0  0  0
   -1.0410    0.3091    6.8391 N   0  0  0  0  0  0  0  0  0  0  0  0
   -0.1299   -0.8376    6.7976 C   0  0  0  0  0  0  0  0  0  0  0  0
   -0.2775   -1.6551    5.5807 C   0  0  0  0  0  0  0  0  0  0  0  0
   -0.5965   -3.0769    5.8206 C   0  0  0  0  0  0  0  0  0  0  0  0
   -0.8178   -4.1100    4.9383 C   0  0  0  0  0  0  0  0  0  0  0  0
   -1.0774   -5.2464    5.6546 N   0  0  0  0  0  0  0  0  0  0  0  0
   -1.0251   -4.9551    6.9628 C   0  0  0  0  0  0  0  0  0  0  0  0
   -1.1835   -5.6170    8.1707 C   0  0  0  0  0  0  0  0  0  0  0  0
   -1.0439   -4.9403    9.3703 C   0  0  0  0  0  0  0  0  0  0  0  0
   -0.7407   -3.5746    9.4328 C   0  0  0  0  0  0  0  0  0  0  0  0
   -0.5887   -2.9416    8.2235 C   0  0  0  0  0  0  0  0  0  0  0  0
   -0.7321   -3.6339    7.0429 C   0  0  0  0  0  0  0  0  0  0  0  0
   -0.2686   -1.5115    8.0941 C   0  0  0  0  0  0  0  0  0  0  0  0
   -0.0980   -0.7932    9.1832 C   0  0  0  0  0  0  0  0  0  0  0  0
   -1.1005    0.9895    5.5611 C   0  0  0  0  0  0  0  0  0  0  0  0
  1  2  1  0
  2  3  1  0
  3  4  2  0
  3  5  1  0
  5  6  1  0
  6  7  1  0
  7  8  2  0
  7  9  1  0
  9 10  1  0
 10 11  1  0
 11 12  1  0
 12 13  1  0
 13 14  1  0
 14 15  1  0
 14 16  1  0
  6 17  1  0
 17 18  1  0
 18 19  2  0
 19 20  1  0
 20 21  2  0
 21 22  1  0
 22 23  2  0
  2 24  1  0
 24 25  1  0
 25 26  2  0
 25 27  1  0
 27 28  1  0
 28 29  1  0
 29 30  1  0
 30 31  1  0
 31 32  1  0
 32 33  2  0
 33 34  1  0
 34 35  1  0
 35 36  2  0
 36 37  1  0
 37 38  2  0
 38 39  1  0
 39 40  2  0
 39 41  1  0
 41 42  2  0
 29 43  1  0
 15  2  1  0
 14  5  1  0
 13  9  1  0
 23 18  1  0
 42 27  1  0
 41 30  1  0
 40 32  1  0
 40 35  1  0
M  END
$$$$
