
     RDKit          3D

 43 50  0  0  0  0  0  0  0  0999 V2000
   -0.8598    4.2448   12.0908 C   0  0  0  0  0  0  0  0  0  0  0  0
    0.3720    3.4418   12.4245 C   0  0  0  0  0  0  0  0  0  0  0  0
    0.1396    2.5140   13.5639 C   0  0  0  0  0  0  0  0  0  0  0  0
   -0.5568    1.4654   13.5912 O   0  0  0  0  0  0  0  0  0  0  0  0
    0.8968    3.0867   14.6434 N   0  0  0  0  0  0  0  0  0  0  0  0
    1.3749    2.5287   15.9037 C   0  0  0  0  0  0  0  0  0  0  0  0
    2.6331    3.1950   16.3514 C   0  0  0  0  0  0  0  0  0  0  0  0
    3.4798    2.5880   17.0371 O   0  0  0  0  0  0  0  0  0  0  0  0
    2.8503    4.5273   15.9852 N   0  0  0  0  0  0  0  0  0  0  0  0
    3.8088    5.5364   16.4709 C   0  0  0  0  0  0  0  0  0  0  0  0
    4.2130    6.2101   15.2023 C   0  0  0  0  0  0  0  0  0  0  0  0
    3.2203    5.7986   14.1304 C   0  0  0  0  0  0  0  0  0  0  0  0
    2.1048    5.2163   14.9710 C   0  0  0  0  0  0  0  0  0  0  0  0
    1.1186    4.4286   14.2126 C   0  0  0  0  0  0  0  0  0  0  0  0
    1.4443    4.2468   12.8565 O   0  0  0  0  0  0  0  0  0  0  0  0
   -0.1095    5.1053   14.2004 O   0  0  0  0  0  0  0  0  0  0  0  0
    0.3653    2.6996   16.9849 C   0  0  0  0  0  0  0  0  0  0  0  0
    0.4681    1.8438   18.1440 C   0  0  0  0  0  0  0  0  0  0  0  0
   -0.6482    1.4807   18.8606 C   0  0  0  0  0  0  0  0  0  0  0  0
   -0.5342    0.6456   19.9855 C   0  0  0  0  0  0  0  0  0  0  0  0
    0.7087    0.1846   20.3764 C   0  0  0  0  0  0  0  0  0  0  0  0
    1.8284    0.5451   19.6630 C   0  0  0  0  0  0  0  0  0  0  0  0
    1.6785    1.3603   18.5723 C   0  0  0  0  0  0  0  0  0  0  0  0
    0.7119    2.6578   11.2815 N   0  0  0  0  0  0  0  0  0  0  0  0
    0.2169    1.3480   11.0345 C   0  0  0  0  0  0  0  0  0  0  0  0
   -0.3475    0.7527   11.9820 O   0  0  0  0  0  0  0  0  0  0  0  0
    0.3312    0.6594    9.7353 C   0  0  0  0  0  0  0  0  0  0  0  0
   -0.4150    1.4215    8.6974 C   0  0  0  0  0  0  0  0  0  0  0  0
   -0.9909    0.6182    7.6416 N   0  0  0  0  0  0  0  0  0  0  0  0
   -0.1798   -0.5900    7.4701 C   0  0  0  0  0  0  0  0  0  0  0  0
   -0.4122   -1.2698    6.1837 C   0  0  0  0  0  0  0  0  0  0  0  0
   -0.8460   -2.6772    6.2927 C   0  0  0  0  0  0  0  0  0  0  0  0
   -1.1653   -3.5975    5.3202 C   0  0  0  0  0  0  0  0  0  0  0  0
   -1.5094   -4.7733    5.9293 N   0  0  0  0  0  0  0  0  0  0  0  0
   -1.4149   -4.6163    7.2581 C   0  0  0  0  0  0  0  0  0  0  0  0
   -1.6116   -5.3778    8.3999 C   0  0  0  0  0  0  0  0  0  0  0  0
   -1.3994   -4.8352    9.6556 C   0  0  0  0  0  0  0  0  0  0  0  0
   -0.9818   -3.5117    9.8426 C   0  0  0  0  0  0  0  0  0  0  0  0
   -0.7939   -2.7783    8.6968 C   0  0  0  0  0  0  0  0  0  0  0  0
   -1.0110   -3.3379    7.4585 C   0  0  0  0  0  0  0  0  0  0  0  0
   -0.3567   -1.3736    8.6985 C   0  0  0  0  0  0  0  0  0  0  0  0
   -0.1115   -0.7815    9.8476 C   0  0  0  0  0  0  0  0  0  0  0  0
   -1.0107    1.4227    6.4365 C   0  0  0  0  0  0  0  0  0  0  0  0
  1  2  1  0
  2  3  1  0
  3  4  2  0
  3  5  1  0
  5  6  1  0
  6  7  1  0
  7  8  2  0
  7  9  1  0
  9 10  1  0
 10 11  1  0
 11 12  1  0
 12 13  1  0
 13 14  1  0
 14 15  1  0
 14 16  1  0
  6 17  1  0
 17 18  1  0
 18 19  2  0
 19 20  1  0
 20 21  2  0
 21 22  1  0
 22 23  2  0
  2 24  1  0
 24 25  1  0
 25 26  2  0
 25 27  1  0
 27 28  1  0
 28 29  1  0
 29 30  1  0
 30 31  1  0
 31 32  1  0
 32 33  2  0
 33 34  1  0
 34 35  1  0
 35 36  2  0
 36 37  1  0
 37 38  2  0
 38 39  1  0
 39 40  2  0
 39 41  1  0
 41 42  2  0
 29 43  1  0
 15  2  1  0
 14  5  1  0
 13  9  1  0
 23 18  1  0
 42 27  1  0
 41 30  1  0
 40 32  1  0
 40 35  1  0
M  END
$$$$
