
     RDKit          3D

 43 50  0  0  0  0  0  0  0  0999 V2000
   -2.2284    2.2587   13.0768 C   0  0  0  0  0  0  0  0  0  0  0  0
   -0.7914    1.9299   12.7599 C   0  0  0  0  0  0  0  0  0  0  0  0
   -0.1624    1.1022   13.8239 C   0  0  0  0  0  0  0  0  0  0  0  0
   -0.3801   -0.1046   14.1097 O   0  0  0  0  0  0  0  0  0  0  0  0
    0.7633    1.9968   14.4639 N   0  0  0  0  0  0  0  0  0  0  0  0
    1.9133    1.7565   15.3288 C   0  0  0  0  0  0  0  0  0  0  0  0
    2.9376    2.8322   15.1836 C   0  0  0  0  0  0  0  0  0  0  0  0
    4.1497    2.6025   15.3669 O   0  0  0  0  0  0  0  0  0  0  0  0
    2.5115    4.1178   14.8343 N   0  0  0  0  0  0  0  0  0  0  0  0
    3.1913    5.4249   14.8802 C   0  0  0  0  0  0  0  0  0  0  0  0
    2.7301    6.0544   13.6082 C   0  0  0  0  0  0  0  0  0  0  0  0
    1.5595    5.2374   13.0925 C   0  0  0  0  0  0  0  0  0  0  0  0
    1.2077    4.4223   14.3180 C   0  0  0  0  0  0  0  0  0  0  0  0
    0.3085    3.2861   14.0559 C   0  0  0  0  0  0  0  0  0  0  0  0
    0.0259    3.0754   12.6943 O   0  0  0  0  0  0  0  0  0  0  0  0
   -0.9383    3.5311   14.6488 O   0  0  0  0  0  0  0  0  0  0  0  0
    1.5087    1.7100   16.7611 C   0  0  0  0  0  0  0  0  0  0  0  0
    2.4864    1.2568   17.7230 C   0  0  0  0  0  0  0  0  0  0  0  0
    2.2200    1.2800   19.0720 C   0  0  0  0  0  0  0  0  0  0  0  0
    3.1797    0.8341   19.9972 C   0  0  0  0  0  0  0  0  0  0  0  0
    4.4015    0.3683   19.5498 C   0  0  0  0  0  0  0  0  0  0  0  0
    4.6729    0.3432   18.2013 C   0  0  0  0  0  0  0  0  0  0  0  0
    3.7134    0.7856   17.3294 C   0  0  0  0  0  0  0  0  0  0  0  0
   -0.7668    1.1790   11.5466 N   0  0  0  0  0  0  0  0  0  0  0  0
   -0.0247    1.5496   10.3919 C   0  0  0  0  0  0  0  0  0  0  0  0
    0.4597    2.7050   10.3595 O   0  0  0  0  0  0  0  0  0  0  0  0
    0.2029    0.6555    9.2412 C   0  0  0  0  0  0  0  0  0  0  0  0
   -0.4188    1.2403    8.0220 C   0  0  0  0  0  0  0  0  0  0  0  0
   -0.9045    0.2772    7.0586 N   0  0  0  0  0  0  0  0  0  0  0  0
   -0.1079   -0.9474    7.1706 C   0  0  0  0  0  0  0  0  0  0  0  0
   -0.2262   -1.8287    5.9958 C   0  0  0  0  0  0  0  0  0  0  0  0
   -0.7003   -3.1963    6.2886 C   0  0  0  0  0  0  0  0  0  0  0  0
   -0.9418   -4.2625    5.4522 C   0  0  0  0  0  0  0  0  0  0  0  0
   -1.3714   -5.3197    6.2071 N   0  0  0  0  0  0  0  0  0  0  0  0
   -1.4063   -4.9463    7.4949 C   0  0  0  0  0  0  0  0  0  0  0  0
   -1.7329   -5.5078    8.7198 C   0  0  0  0  0  0  0  0  0  0  0  0
   -1.6346   -4.7668    9.8849 C   0  0  0  0  0  0  0  0  0  0  0  0
   -1.2080   -3.4330    9.8946 C   0  0  0  0  0  0  0  0  0  0  0  0
   -0.8904   -2.8997    8.6694 C   0  0  0  0  0  0  0  0  0  0  0  0
   -0.9956   -3.6547    7.5237 C   0  0  0  0  0  0  0  0  0  0  0  0
   -0.4239   -1.5166    8.4861 C   0  0  0  0  0  0  0  0  0  0  0  0
   -0.2812   -0.7446    9.5418 C   0  0  0  0  0  0  0  0  0  0  0  0
   -0.7859    0.8720    5.7426 C   0  0  0  0  0  0  0  0  0  0  0  0
  1  2  1  0
  2  3  1  0
  3  4  2  0
  3  5  1  0
  5  6  1  0
  6  7  1  0
  7  8  2  0
  7  9  1  0
  9 10  1  0
 10 11  1  0
 11 12  1  0
 12 13  1  0
 13 14  1  0
 14 15  1  0
 14 16  1  0
  6 17  1  0
 17 18  1  0
 18 19  2  0
 19 20  1  0
 20 21  2  0
 21 22  1  0
 22 23  2  0
  2 24  1  0
 24 25  1  0
 25 26  2  0
 25 27  1  0
 27 28  1  0
 28 29  1  0
 29 30  1  0
 30 31  1  0
 31 32  1  0
 32 33  2  0
 33 34  1  0
 34 35  1  0
 35 36  2  0
 36 37  1  0
 37 38  2  0
 38 39  1  0
 39 40  2  0
 39 41  1  0
 41 42  2  0
 29 43  1  0
 15  2  1  0
 14  5  1  0
 13  9  1  0
 23 18  1  0
 42 27  1  0
 41 30  1  0
 40 32  1  0
 40 35  1  0
M  END
$$$$
