
     RDKit          3D

 43 50  0  0  0  0  0  0  0  0999 V2000
   -1.4899    5.2241   11.0891 C   0  0  0  0  0  0  0  0  0  0  0  0
   -0.6920    3.9864   11.4129 C   0  0  0  0  0  0  0  0  0  0  0  0
   -1.3350    3.1732   12.4798 C   0  0  0  0  0  0  0  0  0  0  0  0
   -2.3863    2.4834   12.4133 O   0  0  0  0  0  0  0  0  0  0  0  0
   -0.4788    3.3504   13.6209 N   0  0  0  0  0  0  0  0  0  0  0  0
   -0.3317    2.5913   14.8580 C   0  0  0  0  0  0  0  0  0  0  0  0
    1.0583    2.6867   15.3930 C   0  0  0  0  0  0  0  0  0  0  0  0
    1.5584    1.7641   16.0670 O   0  0  0  0  0  0  0  0  0  0  0  0
    1.8003    3.8412   15.1233 N   0  0  0  0  0  0  0  0  0  0  0  0
    3.0468    4.3676   15.7081 C   0  0  0  0  0  0  0  0  0  0  0  0
    3.7558    4.8859   14.5017 C   0  0  0  0  0  0  0  0  0  0  0  0
    2.7459    4.9489   13.3704 C   0  0  0  0  0  0  0  0  0  0  0  0
    1.4443    4.8145   14.1307 C   0  0  0  0  0  0  0  0  0  0  0  0
    0.2749    4.5151   13.2875 C   0  0  0  0  0  0  0  0  0  0  0  0
    0.5824    4.2830   11.9348 O   0  0  0  0  0  0  0  0  0  0  0  0
   -0.5877    5.6205   13.2762 O   0  0  0  0  0  0  0  0  0  0  0  0
   -1.2555    3.0955   15.9115 C   0  0  0  0  0  0  0  0  0  0  0  0
   -2.0857    2.1323   16.5967 C   0  0  0  0  0  0  0  0  0  0  0  0
   -3.1694    1.5579   15.9746 C   0  0  0  0  0  0  0  0  0  0  0  0
   -3.9678    0.6203   16.6523 C   0  0  0  0  0  0  0  0  0  0  0  0
   -3.6631    0.2715   17.9545 C   0  0  0  0  0  0  0  0  0  0  0  0
   -2.5802    0.8434   18.5812 C   0  0  0  0  0  0  0  0  0  0  0  0
   -1.8251    1.7530   17.8892 C   0  0  0  0  0  0  0  0  0  0  0  0
   -0.6194    3.1860   10.2337 N   0  0  0  0  0  0  0  0  0  0  0  0
   -0.1049    1.8610   10.1971 C   0  0  0  0  0  0  0  0  0  0  0  0
    0.2511    1.3465   11.2830 O   0  0  0  0  0  0  0  0  0  0  0  0
    0.0307    1.0676    8.9612 C   0  0  0  0  0  0  0  0  0  0  0  0
   -0.7776    1.6882    7.8766 C   0  0  0  0  0  0  0  0  0  0  0  0
   -1.3197    0.7610    6.9080 N   0  0  0  0  0  0  0  0  0  0  0  0
   -0.4386   -0.4068    6.8260 C   0  0  0  0  0  0  0  0  0  0  0  0
   -0.6493   -1.2111    5.6096 C   0  0  0  0  0  0  0  0  0  0  0  0
   -0.9937   -2.6267    5.8510 C   0  0  0  0  0  0  0  0  0  0  0  0
   -1.2713   -3.6473    4.9702 C   0  0  0  0  0  0  0  0  0  0  0  0
   -1.5325   -4.7827    5.6875 N   0  0  0  0  0  0  0  0  0  0  0  0
   -1.4266   -4.5028    6.9950 C   0  0  0  0  0  0  0  0  0  0  0  0
   -1.5576   -5.1701    8.2033 C   0  0  0  0  0  0  0  0  0  0  0  0
   -1.3591   -4.5061    9.4016 C   0  0  0  0  0  0  0  0  0  0  0  0
   -1.0209   -3.1486    9.4626 C   0  0  0  0  0  0  0  0  0  0  0  0
   -0.8970   -2.5101    8.2530 C   0  0  0  0  0  0  0  0  0  0  0  0
   -1.0990   -3.1897    7.0736 C   0  0  0  0  0  0  0  0  0  0  0  0
   -0.5472   -1.0872    8.1220 C   0  0  0  0  0  0  0  0  0  0  0  0
   -0.3205   -0.3816    9.2091 C   0  0  0  0  0  0  0  0  0  0  0  0
   -1.4083    1.4524    5.6376 C   0  0  0  0  0  0  0  0  0  0  0  0
  1  2  1  0
  2  3  1  0
  3  4  2  0
  3  5  1  0
  5  6  1  0
  6  7  1  0
  7  8  2  0
  7  9  1  0
  9 10  1  0
 10 11  1  0
 11 12  1  0
 12 13  1  0
 13 14  1  0
 14 15  1  0
 14 16  1  0
  6 17  1  0
 17 18  1  0
 18 19  2  0
 19 20  1  0
 20 21  2  0
 21 22  1  0
 22 23  2  0
  2 24  1  0
 24 25  1  0
 25 26  2  0
 25 27  1  0
 27 28  1  0
 28 29  1  0
 29 30  1  0
 30 31  1  0
 31 32  1  0
 32 33  2  0
 33 34  1  0
 34 35  1  0
 35 36  2  0
 36 37  1  0
 37 38  2  0
 38 39  1  0
 39 40  2  0
 39 41  1  0
 41 42  2  0
 29 43  1  0
 15  2  1  0
 14  5  1  0
 13  9  1  0
 23 18  1  0
 42 27  1  0
 41 30  1  0
 40 32  1  0
 40 35  1  0
M  END
$$$$
