
     RDKit          3D

 43 50  0  0  0  0  0  0  0  0999 V2000
   -2.9311    3.1480   12.3907 C   0  0  0  0  0  0  0  0  0  0  0  0
   -1.4649    2.8554   12.1959 C   0  0  0  0  0  0  0  0  0  0  0  0
   -0.7737    2.5927   13.4867 C   0  0  0  0  0  0  0  0  0  0  0  0
   -0.8778    1.5906   14.2418 O   0  0  0  0  0  0  0  0  0  0  0  0
    0.0523    3.7524   13.6854 N   0  0  0  0  0  0  0  0  0  0  0  0
    1.2081    3.9922   14.5427 C   0  0  0  0  0  0  0  0  0  0  0  0
    2.1257    5.0078   13.9478 C   0  0  0  0  0  0  0  0  0  0  0  0
    3.3517    4.9869   14.1762 O   0  0  0  0  0  0  0  0  0  0  0  0
    1.5824    5.9955   13.1197 N   0  0  0  0  0  0  0  0  0  0  0  0
    2.1321    7.2666   12.6149 C   0  0  0  0  0  0  0  0  0  0  0  0
    1.6301    7.2805   11.2098 C   0  0  0  0  0  0  0  0  0  0  0  0
    0.5511    6.2187   11.0998 C   0  0  0  0  0  0  0  0  0  0  0  0
    0.2626    5.9408   12.5591 C   0  0  0  0  0  0  0  0  0  0  0  0
   -0.5190    4.7170   12.8029 C   0  0  0  0  0  0  0  0  0  0  0  0
   -0.7611    3.9473   11.6509 O   0  0  0  0  0  0  0  0  0  0  0  0
   -1.7918    5.0630   13.2788 O   0  0  0  0  0  0  0  0  0  0  0  0
    0.7900    4.4922   15.8816 C   0  0  0  0  0  0  0  0  0  0  0  0
    1.8263    4.8896   16.8061 C   0  0  0  0  0  0  0  0  0  0  0  0
    2.4993    3.9587   17.5623 C   0  0  0  0  0  0  0  0  0  0  0  0
    3.5072    4.3589   18.4566 C   0  0  0  0  0  0  0  0  0  0  0  0
    3.8260    5.6981   18.5787 C   0  0  0  0  0  0  0  0  0  0  0  0
    3.1555    6.6332   17.8246 C   0  0  0  0  0  0  0  0  0  0  0  0
    2.1795    6.2060   16.9636 C   0  0  0  0  0  0  0  0  0  0  0  0
   -1.3511    1.6833   11.3899 N   0  0  0  0  0  0  0  0  0  0  0  0
   -0.1437    0.9563   11.2020 C   0  0  0  0  0  0  0  0  0  0  0  0
    0.9314    1.5324   11.4902 O   0  0  0  0  0  0  0  0  0  0  0  0
   -0.0896   -0.4262   10.6908 C   0  0  0  0  0  0  0  0  0  0  0  0
    1.2481   -0.6869   10.0929 C   0  0  0  0  0  0  0  0  0  0  0  0
    1.2558   -1.6242    8.9914 N   0  0  0  0  0  0  0  0  0  0  0  0
    0.1402   -2.5594    9.1580 C   0  0  0  0  0  0  0  0  0  0  0  0
    0.2810   -3.7836    8.3503 C   0  0  0  0  0  0  0  0  0  0  0  0
   -0.8321   -4.0443    7.4155 C   0  0  0  0  0  0  0  0  0  0  0  0
   -1.0267   -5.0635    6.5111 C   0  0  0  0  0  0  0  0  0  0  0  0
   -2.2214   -4.8602    5.8761 N   0  0  0  0  0  0  0  0  0  0  0  0
   -2.7825   -3.7408    6.3572 C   0  0  0  0  0  0  0  0  0  0  0  0
   -3.9382   -3.0017    6.1565 C   0  0  0  0  0  0  0  0  0  0  0  0
   -4.1723   -1.8462    6.8820 C   0  0  0  0  0  0  0  0  0  0  0  0
   -3.2733   -1.3657    7.8422 C   0  0  0  0  0  0  0  0  0  0  0  0
   -2.1366   -2.1150    8.0226 C   0  0  0  0  0  0  0  0  0  0  0  0
   -1.9242   -3.2605    7.2902 C   0  0  0  0  0  0  0  0  0  0  0  0
   -1.0823   -1.7652    8.9871 C   0  0  0  0  0  0  0  0  0  0  0  0
   -1.2299   -0.6930    9.7351 C   0  0  0  0  0  0  0  0  0  0  0  0
    2.5326   -2.3093    9.0047 C   0  0  0  0  0  0  0  0  0  0  0  0
  1  2  1  0
  2  3  1  0
  3  4  2  0
  3  5  1  0
  5  6  1  0
  6  7  1  0
  7  8  2  0
  7  9  1  0
  9 10  1  0
 10 11  1  0
 11 12  1  0
 12 13  1  0
 13 14  1  0
 14 15  1  0
 14 16  1  0
  6 17  1  0
 17 18  1  0
 18 19  2  0
 19 20  1  0
 20 21  2  0
 21 22  1  0
 22 23  2  0
  2 24  1  0
 24 25  1  0
 25 26  2  0
 25 27  1  0
 27 28  1  0
 28 29  1  0
 29 30  1  0
 30 31  1  0
 31 32  1  0
 32 33  2  0
 33 34  1  0
 34 35  1  0
 35 36  2  0
 36 37  1  0
 37 38  2  0
 38 39  1  0
 39 40  2  0
 39 41  1  0
 41 42  2  0
 29 43  1  0
 15  2  1  0
 14  5  1  0
 13  9  1  0
 23 18  1  0
 42 27  1  0
 41 30  1  0
 40 32  1  0
 40 35  1  0
M  END
$$$$
