
     RDKit          3D

 43 50  0  0  0  0  0  0  0  0999 V2000
   -2.8983    4.4516   13.0936 C   0  0  0  0  0  0  0  0  0  0  0  0
   -1.7583    3.4961   12.8471 C   0  0  0  0  0  0  0  0  0  0  0  0
   -1.3195    2.8192   14.0969 C   0  0  0  0  0  0  0  0  0  0  0  0
   -1.9214    1.9362   14.7629 O   0  0  0  0  0  0  0  0  0  0  0  0
   -0.0373    3.4036   14.3815 N   0  0  0  0  0  0  0  0  0  0  0  0
    1.0642    2.9721   15.2353 C   0  0  0  0  0  0  0  0  0  0  0  0
    2.3772    3.4545   14.7151 C   0  0  0  0  0  0  0  0  0  0  0  0
    3.4293    2.8162   14.9183 O   0  0  0  0  0  0  0  0  0  0  0  0
    2.4096    4.6484   13.9871 N   0  0  0  0  0  0  0  0  0  0  0  0
    3.5247    5.5250   13.5859 C   0  0  0  0  0  0  0  0  0  0  0  0
    3.1321    5.9032   12.1968 C   0  0  0  0  0  0  0  0  0  0  0  0
    1.6749    5.5201   12.0139 C   0  0  0  0  0  0  0  0  0  0  0  0
    1.2478    5.2955   13.4482 C   0  0  0  0  0  0  0  0  0  0  0  0
   -0.0391    4.5958   13.5978 C   0  0  0  0  0  0  0  0  0  0  0  0
   -0.5957    4.1452   12.3872 O   0  0  0  0  0  0  0  0  0  0  0  0
   -0.9920    5.4789   14.1255 O   0  0  0  0  0  0  0  0  0  0  0  0
    0.9082    3.4962   16.6204 C   0  0  0  0  0  0  0  0  0  0  0  0
    1.1459    2.5855   17.7160 C   0  0  0  0  0  0  0  0  0  0  0  0
    1.7345    3.0151   18.8824 C   0  0  0  0  0  0  0  0  0  0  0  0
    1.9581    2.1187   19.9418 C   0  0  0  0  0  0  0  0  0  0  0  0
    1.5844    0.7944   19.8122 C   0  0  0  0  0  0  0  0  0  0  0  0
    0.9955    0.3597   18.6474 C   0  0  0  0  0  0  0  0  0  0  0  0
    0.7933    1.2620   17.6367 C   0  0  0  0  0  0  0  0  0  0  0  0
   -2.2110    2.4924   11.9393 N   0  0  0  0  0  0  0  0  0  0  0  0
   -1.3525    1.7099   11.1194 C   0  0  0  0  0  0  0  0  0  0  0  0
   -0.2857    2.2375   10.7266 O   0  0  0  0  0  0  0  0  0  0  0  0
   -1.6477    0.3239   10.7104 C   0  0  0  0  0  0  0  0  0  0  0  0
   -0.9599   -0.6257   11.6270 C   0  0  0  0  0  0  0  0  0  0  0  0
   -0.5534   -1.8756   11.0234 N   0  0  0  0  0  0  0  0  0  0  0  0
   -1.4610   -2.1832    9.9150 C   0  0  0  0  0  0  0  0  0  0  0  0
   -1.4102   -3.5946    9.4952 C   0  0  0  0  0  0  0  0  0  0  0  0
   -1.0680   -3.8098    8.0748 C   0  0  0  0  0  0  0  0  0  0  0  0
   -0.9158   -4.9717    7.3527 C   0  0  0  0  0  0  0  0  0  0  0  0
   -0.5948   -4.6445    6.0636 N   0  0  0  0  0  0  0  0  0  0  0  0
   -0.5412   -3.3085    5.9565 C   0  0  0  0  0  0  0  0  0  0  0  0
   -0.2827   -2.3654    4.9737 C   0  0  0  0  0  0  0  0  0  0  0  0
   -0.3264   -1.0126    5.2644 C   0  0  0  0  0  0  0  0  0  0  0  0
   -0.6282   -0.5271    6.5428 C   0  0  0  0  0  0  0  0  0  0  0  0
   -0.8803   -1.4806    7.4985 C   0  0  0  0  0  0  0  0  0  0  0  0
   -0.8313   -2.8202    7.1874 C   0  0  0  0  0  0  0  0  0  0  0  0
   -1.2148   -1.1577    8.8942 C   0  0  0  0  0  0  0  0  0  0  0  0
   -1.2985    0.1045    9.2562 C   0  0  0  0  0  0  0  0  0  0  0  0
   -0.6006   -2.8969   12.0504 C   0  0  0  0  0  0  0  0  0  0  0  0
  1  2  1  0
  2  3  1  0
  3  4  2  0
  3  5  1  0
  5  6  1  0
  6  7  1  0
  7  8  2  0
  7  9  1  0
  9 10  1  0
 10 11  1  0
 11 12  1  0
 12 13  1  0
 13 14  1  0
 14 15  1  0
 14 16  1  0
  6 17  1  0
 17 18  1  0
 18 19  2  0
 19 20  1  0
 20 21  2  0
 21 22  1  0
 22 23  2  0
  2 24  1  0
 24 25  1  0
 25 26  2  0
 25 27  1  0
 27 28  1  0
 28 29  1  0
 29 30  1  0
 30 31  1  0
 31 32  1  0
 32 33  2  0
 33 34  1  0
 34 35  1  0
 35 36  2  0
 36 37  1  0
 37 38  2  0
 38 39  1  0
 39 40  2  0
 39 41  1  0
 41 42  2  0
 29 43  1  0
 15  2  1  0
 14  5  1  0
 13  9  1  0
 23 18  1  0
 42 27  1  0
 41 30  1  0
 40 32  1  0
 40 35  1  0
M  END
$$$$
