
     RDKit          3D

 43 50  0  0  0  0  0  0  0  0999 V2000
   -0.3913    5.4489   10.7126 C   0  0  0  0  0  0  0  0  0  0  0  0
    0.0892    4.1270   11.2560 C   0  0  0  0  0  0  0  0  0  0  0  0
   -0.9103    3.5021   12.1634 C   0  0  0  0  0  0  0  0  0  0  0  0
   -2.0193    2.9833   11.8696 O   0  0  0  0  0  0  0  0  0  0  0  0
   -0.3224    3.6224   13.4698 N   0  0  0  0  0  0  0  0  0  0  0  0
   -0.5948    2.9386   14.7294 C   0  0  0  0  0  0  0  0  0  0  0  0
    0.6302    2.8517   15.5774 C   0  0  0  0  0  0  0  0  0  0  0  0
    0.7982    1.9117   16.3798 O   0  0  0  0  0  0  0  0  0  0  0  0
    1.5989    3.8533   15.4566 N   0  0  0  0  0  0  0  0  0  0  0  0
    2.7480    4.2170   16.3053 C   0  0  0  0  0  0  0  0  0  0  0  0
    3.7929    4.5312   15.2873 C   0  0  0  0  0  0  0  0  0  0  0  0
    3.0961    4.6725   13.9463 C   0  0  0  0  0  0  0  0  0  0  0  0
    1.6511    4.7982   14.3778 C   0  0  0  0  0  0  0  0  0  0  0  0
    0.6738    4.6277   13.2897 C   0  0  0  0  0  0  0  0  0  0  0  0
    1.2405    4.2557   12.0574 O   0  0  0  0  0  0  0  0  0  0  0  0
    0.0370    5.8514   13.0383 O   0  0  0  0  0  0  0  0  0  0  0  0
   -1.6372    3.6546   15.5157 C   0  0  0  0  0  0  0  0  0  0  0  0
   -3.0201    3.3291   15.2546 C   0  0  0  0  0  0  0  0  0  0  0  0
   -3.9445    4.3129   14.9925 C   0  0  0  0  0  0  0  0  0  0  0  0
   -5.2868    3.9821   14.7380 C   0  0  0  0  0  0  0  0  0  0  0  0
   -5.6829    2.6580   14.7511 C   0  0  0  0  0  0  0  0  0  0  0  0
   -4.7619    1.6702   15.0129 C   0  0  0  0  0  0  0  0  0  0  0  0
   -3.4628    2.0305   15.2561 C   0  0  0  0  0  0  0  0  0  0  0  0
    0.2946    3.2442   10.1537 N   0  0  0  0  0  0  0  0  0  0  0  0
   -0.0079    1.8551   10.1749 C   0  0  0  0  0  0  0  0  0  0  0  0
   -0.5148    1.3874   11.2212 O   0  0  0  0  0  0  0  0  0  0  0  0
    0.2410    0.9441    9.0419 C   0  0  0  0  0  0  0  0  0  0  0  0
   -0.4528    1.4539    7.8279 C   0  0  0  0  0  0  0  0  0  0  0  0
   -0.9057    0.4352    6.9066 N   0  0  0  0  0  0  0  0  0  0  0  0
   -0.0304   -0.7338    7.0259 C   0  0  0  0  0  0  0  0  0  0  0  0
   -0.1283   -1.6542    5.8796 C   0  0  0  0  0  0  0  0  0  0  0  0
   -0.5062   -3.0397    6.2238 C   0  0  0  0  0  0  0  0  0  0  0  0
   -0.7051   -4.1424    5.4244 C   0  0  0  0  0  0  0  0  0  0  0  0
   -1.0443   -5.2021    6.2206 N   0  0  0  0  0  0  0  0  0  0  0  0
   -1.0639   -4.7947    7.4985 C   0  0  0  0  0  0  0  0  0  0  0  0
   -1.3174   -5.3401    8.7477 C   0  0  0  0  0  0  0  0  0  0  0  0
   -1.2310   -4.5612    9.8889 C   0  0  0  0  0  0  0  0  0  0  0  0
   -0.8892   -3.2037    9.8492 C   0  0  0  0  0  0  0  0  0  0  0  0
   -0.6428   -2.6872    8.6007 C   0  0  0  0  0  0  0  0  0  0  0  0
   -0.7347   -3.4798    7.4795 C   0  0  0  0  0  0  0  0  0  0  0  0
   -0.2702   -1.2835    8.3656 C   0  0  0  0  0  0  0  0  0  0  0  0
   -0.1447   -0.4741    9.3952 C   0  0  0  0  0  0  0  0  0  0  0  0
   -0.8645    0.9981    5.5720 C   0  0  0  0  0  0  0  0  0  0  0  0
  1  2  1  0
  2  3  1  0
  3  4  2  0
  3  5  1  0
  5  6  1  0
  6  7  1  0
  7  8  2  0
  7  9  1  0
  9 10  1  0
 10 11  1  0
 11 12  1  0
 12 13  1  0
 13 14  1  0
 14 15  1  0
 14 16  1  0
  6 17  1  0
 17 18  1  0
 18 19  2  0
 19 20  1  0
 20 21  2  0
 21 22  1  0
 22 23  2  0
  2 24  1  0
 24 25  1  0
 25 26  2  0
 25 27  1  0
 27 28  1  0
 28 29  1  0
 29 30  1  0
 30 31  1  0
 31 32  1  0
 32 33  2  0
 33 34  1  0
 34 35  1  0
 35 36  2  0
 36 37  1  0
 37 38  2  0
 38 39  1  0
 39 40  2  0
 39 41  1  0
 41 42  2  0
 29 43  1  0
 15  2  1  0
 14  5  1  0
 13  9  1  0
 23 18  1  0
 42 27  1  0
 41 30  1  0
 40 32  1  0
 40 35  1  0
M  END
$$$$
