
     RDKit          3D

 43 50  0  0  0  0  0  0  0  0999 V2000
   -1.2307    2.7478   13.4862 C   0  0  0  0  0  0  0  0  0  0  0  0
    0.1217    3.1683   12.9689 C   0  0  0  0  0  0  0  0  0  0  0  0
    1.1596    3.1355   14.0342 C   0  0  0  0  0  0  0  0  0  0  0  0
    1.6794    2.1333   14.5915 O   0  0  0  0  0  0  0  0  0  0  0  0
    1.4431    4.5213   14.2912 N   0  0  0  0  0  0  0  0  0  0  0  0
    2.5661    5.1823   14.9471 C   0  0  0  0  0  0  0  0  0  0  0  0
    2.7903    6.5505   14.3947 C   0  0  0  0  0  0  0  0  0  0  0  0
    3.9257    7.0667   14.3818 O   0  0  0  0  0  0  0  0  0  0  0  0
    1.6936    7.2534   13.8854 N   0  0  0  0  0  0  0  0  0  0  0  0
    1.5123    8.6743   13.5371 C   0  0  0  0  0  0  0  0  0  0  0  0
    0.7151    8.5816   12.2792 C   0  0  0  0  0  0  0  0  0  0  0  0
    0.1922    7.1607   12.1735 C   0  0  0  0  0  0  0  0  0  0  0  0
    0.4244    6.6567   13.5814 C   0  0  0  0  0  0  0  0  0  0  0  0
    0.3179    5.1957   13.7303 C   0  0  0  0  0  0  0  0  0  0  0  0
    0.1400    4.5031   12.5192 O   0  0  0  0  0  0  0  0  0  0  0  0
   -0.8175    4.8857   14.4925 O   0  0  0  0  0  0  0  0  0  0  0  0
    2.3286    5.3207   16.4106 C   0  0  0  0  0  0  0  0  0  0  0  0
    2.7034    4.2152   17.2615 C   0  0  0  0  0  0  0  0  0  0  0  0
    4.0245    3.8932   17.4676 C   0  0  0  0  0  0  0  0  0  0  0  0
    4.3755    2.8161   18.2998 C   0  0  0  0  0  0  0  0  0  0  0  0
    3.3867    2.0733   18.9167 C   0  0  0  0  0  0  0  0  0  0  0  0
    2.0637    2.3913   18.7135 C   0  0  0  0  0  0  0  0  0  0  0  0
    1.7598    3.4477   17.8961 C   0  0  0  0  0  0  0  0  0  0  0  0
    0.5101    2.2494   11.9485 N   0  0  0  0  0  0  0  0  0  0  0  0
   -0.3524    1.2704   11.3837 C   0  0  0  0  0  0  0  0  0  0  0  0
   -1.3333    0.8968   12.0684 O   0  0  0  0  0  0  0  0  0  0  0  0
   -0.1561    0.6768   10.0478 C   0  0  0  0  0  0  0  0  0  0  0  0
   -0.8922    1.4769    9.0314 C   0  0  0  0  0  0  0  0  0  0  0  0
   -1.3897    0.7245    7.9009 N   0  0  0  0  0  0  0  0  0  0  0  0
   -0.5208   -0.4354    7.6849 C   0  0  0  0  0  0  0  0  0  0  0  0
   -0.6715   -1.0351    6.3476 C   0  0  0  0  0  0  0  0  0  0  0  0
   -1.0479   -2.4631    6.3443 C   0  0  0  0  0  0  0  0  0  0  0  0
   -1.2876   -3.3273    5.3002 C   0  0  0  0  0  0  0  0  0  0  0  0
   -1.6048   -4.5547    5.8147 N   0  0  0  0  0  0  0  0  0  0  0  0
   -1.5708   -4.4847    7.1538 C   0  0  0  0  0  0  0  0  0  0  0  0
   -1.7802   -5.3294    8.2331 C   0  0  0  0  0  0  0  0  0  0  0  0
   -1.6424   -4.8652    9.5300 C   0  0  0  0  0  0  0  0  0  0  0  0
   -1.2904   -3.5417    9.8220 C   0  0  0  0  0  0  0  0  0  0  0  0
   -1.0885   -2.7250    8.7364 C   0  0  0  0  0  0  0  0  0  0  0  0
   -1.2311   -3.2076    7.4556 C   0  0  0  0  0  0  0  0  0  0  0  0
   -0.7130   -1.3072    8.8500 C   0  0  0  0  0  0  0  0  0  0  0  0
   -0.5402   -0.7852   10.0453 C   0  0  0  0  0  0  0  0  0  0  0  0
   -1.3957    1.6075    6.7520 C   0  0  0  0  0  0  0  0  0  0  0  0
  1  2  1  0
  2  3  1  0
  3  4  2  0
  3  5  1  0
  5  6  1  0
  6  7  1  0
  7  8  2  0
  7  9  1  0
  9 10  1  0
 10 11  1  0
 11 12  1  0
 12 13  1  0
 13 14  1  0
 14 15  1  0
 14 16  1  0
  6 17  1  0
 17 18  1  0
 18 19  2  0
 19 20  1  0
 20 21  2  0
 21 22  1  0
 22 23  2  0
  2 24  1  0
 24 25  1  0
 25 26  2  0
 25 27  1  0
 27 28  1  0
 28 29  1  0
 29 30  1  0
 30 31  1  0
 31 32  1  0
 32 33  2  0
 33 34  1  0
 34 35  1  0
 35 36  2  0
 36 37  1  0
 37 38  2  0
 38 39  1  0
 39 40  2  0
 39 41  1  0
 41 42  2  0
 29 43  1  0
 15  2  1  0
 14  5  1  0
 13  9  1  0
 23 18  1  0
 42 27  1  0
 41 30  1  0
 40 32  1  0
 40 35  1  0
M  END
$$$$
