
     RDKit          3D

 43 50  0  0  0  0  0  0  0  0999 V2000
    1.1804    4.6895   11.5715 C   0  0  0  0  0  0  0  0  0  0  0  0
    1.0500    3.2216   11.8907 C   0  0  0  0  0  0  0  0  0  0  0  0
   -0.2665    2.9005   12.5044 C   0  0  0  0  0  0  0  0  0  0  0  0
   -1.4023    2.8878   11.9611 O   0  0  0  0  0  0  0  0  0  0  0  0
    0.0481    2.6029   13.8752 N   0  0  0  0  0  0  0  0  0  0  0  0
   -0.6949    1.9026   14.9172 C   0  0  0  0  0  0  0  0  0  0  0  0
    0.2238    1.2389   15.8882 C   0  0  0  0  0  0  0  0  0  0  0  0
   -0.1124    0.2021   16.4945 O   0  0  0  0  0  0  0  0  0  0  0  0
    1.4834    1.8050   16.1102 N   0  0  0  0  0  0  0  0  0  0  0  0
    2.4893    1.5821   17.1645 C   0  0  0  0  0  0  0  0  0  0  0  0
    3.7617    1.6175   16.3858 C   0  0  0  0  0  0  0  0  0  0  0  0
    3.4455    2.2004   15.0205 C   0  0  0  0  0  0  0  0  0  0  0  0
    2.0790    2.8019   15.2672 C   0  0  0  0  0  0  0  0  0  0  0  0
    1.3462    3.1703   14.0443 C   0  0  0  0  0  0  0  0  0  0  0  0
    1.9858    2.7896   12.8509 O   0  0  0  0  0  0  0  0  0  0  0  0
    1.2400    4.5663   13.9664 O   0  0  0  0  0  0  0  0  0  0  0  0
   -1.5597    2.8411   15.6844 C   0  0  0  0  0  0  0  0  0  0  0  0
   -2.9399    2.4688   15.8918 C   0  0  0  0  0  0  0  0  0  0  0  0
   -3.8957    3.4149   16.1791 C   0  0  0  0  0  0  0  0  0  0  0  0
   -5.2358    3.0392   16.3765 C   0  0  0  0  0  0  0  0  0  0  0  0
   -5.5978    1.7088   16.2817 C   0  0  0  0  0  0  0  0  0  0  0  0
   -4.6453    0.7585   15.9947 C   0  0  0  0  0  0  0  0  0  0  0  0
   -3.3495    1.1621   15.8085 C   0  0  0  0  0  0  0  0  0  0  0  0
    1.1548    2.4923   10.6685 N   0  0  0  0  0  0  0  0  0  0  0  0
    0.0600    2.2213    9.8028 C   0  0  0  0  0  0  0  0  0  0  0  0
   -1.0279    2.7938   10.0463 O   0  0  0  0  0  0  0  0  0  0  0  0
    0.1358    1.3110    8.6447 C   0  0  0  0  0  0  0  0  0  0  0  0
   -0.8890    1.6969    7.6367 C   0  0  0  0  0  0  0  0  0  0  0  0
   -1.4239    0.6034    6.8559 N   0  0  0  0  0  0  0  0  0  0  0  0
   -0.4097   -0.4496    6.7590 C   0  0  0  0  0  0  0  0  0  0  0  0
   -0.6696   -1.4106    5.6728 C   0  0  0  0  0  0  0  0  0  0  0  0
   -0.7803   -2.8195    6.1012 C   0  0  0  0  0  0  0  0  0  0  0  0
   -1.0309   -3.9625    5.3764 C   0  0  0  0  0  0  0  0  0  0  0  0
   -1.0344   -5.0294    6.2330 N   0  0  0  0  0  0  0  0  0  0  0  0
   -0.7928   -4.5873    7.4761 C   0  0  0  0  0  0  0  0  0  0  0  0
   -0.6668   -5.1194    8.7502 C   0  0  0  0  0  0  0  0  0  0  0  0
   -0.4018   -4.3004    9.8343 C   0  0  0  0  0  0  0  0  0  0  0  0
   -0.2485   -2.9139    9.7102 C   0  0  0  0  0  0  0  0  0  0  0  0
   -0.3778   -2.4113    8.4387 C   0  0  0  0  0  0  0  0  0  0  0  0
   -0.6414   -3.2440    7.3753 C   0  0  0  0  0  0  0  0  0  0  0  0
   -0.2479   -0.9815    8.1174 C   0  0  0  0  0  0  0  0  0  0  0  0
    0.0239   -0.1311    9.0838 C   0  0  0  0  0  0  0  0  0  0  0  0
   -1.7771    1.1252    5.5510 C   0  0  0  0  0  0  0  0  0  0  0  0
  1  2  1  0
  2  3  1  0
  3  4  2  0
  3  5  1  0
  5  6  1  0
  6  7  1  0
  7  8  2  0
  7  9  1  0
  9 10  1  0
 10 11  1  0
 11 12  1  0
 12 13  1  0
 13 14  1  0
 14 15  1  0
 14 16  1  0
  6 17  1  0
 17 18  1  0
 18 19  2  0
 19 20  1  0
 20 21  2  0
 21 22  1  0
 22 23  2  0
  2 24  1  0
 24 25  1  0
 25 26  2  0
 25 27  1  0
 27 28  1  0
 28 29  1  0
 29 30  1  0
 30 31  1  0
 31 32  1  0
 32 33  2  0
 33 34  1  0
 34 35  1  0
 35 36  2  0
 36 37  1  0
 37 38  2  0
 38 39  1  0
 39 40  2  0
 39 41  1  0
 41 42  2  0
 29 43  1  0
 15  2  1  0
 14  5  1  0
 13  9  1  0
 23 18  1  0
 42 27  1  0
 41 30  1  0
 40 32  1  0
 40 35  1  0
M  END
$$$$
