
     RDKit          3D

 43 50  0  0  0  0  0  0  0  0999 V2000
   -1.5479    3.7393   13.5837 C   0  0  0  0  0  0  0  0  0  0  0  0
   -0.3944    2.8176   13.2783 C   0  0  0  0  0  0  0  0  0  0  0  0
   -0.3852    1.6246   14.1668 C   0  0  0  0  0  0  0  0  0  0  0  0
   -1.1742    0.6434   14.1698 O   0  0  0  0  0  0  0  0  0  0  0  0
    0.7403    1.8414   15.0346 N   0  0  0  0  0  0  0  0  0  0  0  0
    1.5057    0.9363   15.8850 C   0  0  0  0  0  0  0  0  0  0  0  0
    2.9189    1.3928   16.0325 C   0  0  0  0  0  0  0  0  0  0  0  0
    3.8460    0.5809   16.2244 O   0  0  0  0  0  0  0  0  0  0  0  0
    3.1905    2.7625   15.9512 N   0  0  0  0  0  0  0  0  0  0  0  0
    4.3801    3.5521   16.3175 C   0  0  0  0  0  0  0  0  0  0  0  0
    4.4578    4.5285   15.1917 C   0  0  0  0  0  0  0  0  0  0  0  0
    3.1351    4.4755   14.4492 C   0  0  0  0  0  0  0  0  0  0  0  0
    2.2677    3.7386   15.4465 C   0  0  0  0  0  0  0  0  0  0  0  0
    0.9974    3.2379   14.8953 C   0  0  0  0  0  0  0  0  0  0  0  0
    0.8579    3.4206   13.5078 O   0  0  0  0  0  0  0  0  0  0  0  0
   -0.0699    3.9498   15.4613 O   0  0  0  0  0  0  0  0  0  0  0  0
    0.9148    0.8515   17.2492 C   0  0  0  0  0  0  0  0  0  0  0  0
    1.1813   -0.3368   18.0261 C   0  0  0  0  0  0  0  0  0  0  0  0
    0.6890   -0.4765   19.3026 C   0  0  0  0  0  0  0  0  0  0  0  0
    0.9541   -1.6391   20.0469 C   0  0  0  0  0  0  0  0  0  0  0  0
    1.7154   -2.6511   19.4934 C   0  0  0  0  0  0  0  0  0  0  0  0
    2.2103   -2.5160   18.2169 C   0  0  0  0  0  0  0  0  0  0  0  0
    1.9312   -1.3690   17.5218 C   0  0  0  0  0  0  0  0  0  0  0  0
   -0.5361    2.3627   11.9331 N   0  0  0  0  0  0  0  0  0  0  0  0
   -0.1510    1.0707   11.4813 C   0  0  0  0  0  0  0  0  0  0  0  0
    0.1668    0.2236   12.3484 O   0  0  0  0  0  0  0  0  0  0  0  0
   -0.1060    0.6784   10.0602 C   0  0  0  0  0  0  0  0  0  0  0  0
   -1.0653    1.5079    9.2812 C   0  0  0  0  0  0  0  0  0  0  0  0
   -1.6550    0.8510    8.1356 N   0  0  0  0  0  0  0  0  0  0  0  0
   -0.7202   -0.1612    7.6372 C   0  0  0  0  0  0  0  0  0  0  0  0
   -1.0161   -0.6004    6.2622 C   0  0  0  0  0  0  0  0  0  0  0  0
   -1.2463   -2.0509    6.1079 C   0  0  0  0  0  0  0  0  0  0  0  0
   -1.5583   -2.7984    4.9950 C   0  0  0  0  0  0  0  0  0  0  0  0
   -1.6701   -4.1098    5.3684 N   0  0  0  0  0  0  0  0  0  0  0  0
   -1.4368   -4.2063    6.6857 C   0  0  0  0  0  0  0  0  0  0  0  0
   -1.3929   -5.1996    7.6521 C   0  0  0  0  0  0  0  0  0  0  0  0
   -1.1027   -4.8902    8.9698 C   0  0  0  0  0  0  0  0  0  0  0  0
   -0.8416   -3.5819    9.3956 C   0  0  0  0  0  0  0  0  0  0  0  0
   -0.8910   -2.6164    8.4202 C   0  0  0  0  0  0  0  0  0  0  0  0
   -1.1816   -2.9465    7.1162 C   0  0  0  0  0  0  0  0  0  0  0  0
   -0.6436   -1.1899    8.6813 C   0  0  0  0  0  0  0  0  0  0  0  0
   -0.3403   -0.8066    9.9028 C   0  0  0  0  0  0  0  0  0  0  0  0
   -1.9252    1.8654    7.1367 C   0  0  0  0  0  0  0  0  0  0  0  0
  1  2  1  0
  2  3  1  0
  3  4  2  0
  3  5  1  0
  5  6  1  0
  6  7  1  0
  7  8  2  0
  7  9  1  0
  9 10  1  0
 10 11  1  0
 11 12  1  0
 12 13  1  0
 13 14  1  0
 14 15  1  0
 14 16  1  0
  6 17  1  0
 17 18  1  0
 18 19  2  0
 19 20  1  0
 20 21  2  0
 21 22  1  0
 22 23  2  0
  2 24  1  0
 24 25  1  0
 25 26  2  0
 25 27  1  0
 27 28  1  0
 28 29  1  0
 29 30  1  0
 30 31  1  0
 31 32  1  0
 32 33  2  0
 33 34  1  0
 34 35  1  0
 35 36  2  0
 36 37  1  0
 37 38  2  0
 38 39  1  0
 39 40  2  0
 39 41  1  0
 41 42  2  0
 29 43  1  0
 15  2  1  0
 14  5  1  0
 13  9  1  0
 23 18  1  0
 42 27  1  0
 41 30  1  0
 40 32  1  0
 40 35  1  0
M  END
$$$$
