
     RDKit          3D

 43 50  0  0  0  0  0  0  0  0999 V2000
    0.1745    5.2430   10.4257 C   0  0  0  0  0  0  0  0  0  0  0  0
    0.5522    4.0668   11.2903 C   0  0  0  0  0  0  0  0  0  0  0  0
   -0.5821    3.6132   12.1391 C   0  0  0  0  0  0  0  0  0  0  0  0
   -1.6366    3.0217   11.7875 O   0  0  0  0  0  0  0  0  0  0  0  0
   -0.2037    4.0043   13.4697 N   0  0  0  0  0  0  0  0  0  0  0  0
   -0.6751    3.5792   14.7832 C   0  0  0  0  0  0  0  0  0  0  0  0
    0.4022    3.6900   15.8102 C   0  0  0  0  0  0  0  0  0  0  0  0
    0.4344    2.9327   16.8006 O   0  0  0  0  0  0  0  0  0  0  0  0
    1.3872    4.6688   15.6422 N   0  0  0  0  0  0  0  0  0  0  0  0
    2.3935    5.2196   16.5679 C   0  0  0  0  0  0  0  0  0  0  0  0
    3.5869    5.3478   15.6814 C   0  0  0  0  0  0  0  0  0  0  0  0
    3.1087    5.2037   14.2481 C   0  0  0  0  0  0  0  0  0  0  0  0
    1.6154    5.3808   14.4174 C   0  0  0  0  0  0  0  0  0  0  0  0
    0.8178    4.9753   13.2479 C   0  0  0  0  0  0  0  0  0  0  0  0
    1.5659    4.3779   12.2176 O   0  0  0  0  0  0  0  0  0  0  0  0
    0.2393    6.1100   12.6614 O   0  0  0  0  0  0  0  0  0  0  0  0
   -1.8204    4.4141   15.2397 C   0  0  0  0  0  0  0  0  0  0  0  0
   -2.6381    3.9054   16.3163 C   0  0  0  0  0  0  0  0  0  0  0  0
   -2.7388    2.5548   16.5551 C   0  0  0  0  0  0  0  0  0  0  0  0
   -3.5365    2.0732   17.6075 C   0  0  0  0  0  0  0  0  0  0  0  0
   -4.2262    2.9623   18.4099 C   0  0  0  0  0  0  0  0  0  0  0  0
   -4.1288    4.3144   18.1750 C   0  0  0  0  0  0  0  0  0  0  0  0
   -3.3419    4.7467   17.1405 C   0  0  0  0  0  0  0  0  0  0  0  0
    0.9184    2.9868   10.4322 N   0  0  0  0  0  0  0  0  0  0  0  0
    0.1500    1.8022   10.2655 C   0  0  0  0  0  0  0  0  0  0  0  0
   -0.6355    1.4853   11.1891 O   0  0  0  0  0  0  0  0  0  0  0  0
    0.2275    0.9349    9.0750 C   0  0  0  0  0  0  0  0  0  0  0  0
   -0.4861    1.5793    7.9390 C   0  0  0  0  0  0  0  0  0  0  0  0
   -1.1025    0.6646    7.0035 N   0  0  0  0  0  0  0  0  0  0  0  0
   -0.3492   -0.5922    7.0042 C   0  0  0  0  0  0  0  0  0  0  0  0
   -0.6176   -1.4328    5.8242 C   0  0  0  0  0  0  0  0  0  0  0  0
   -1.1160   -2.7896    6.1266 C   0  0  0  0  0  0  0  0  0  0  0  0
   -1.4813   -3.8203    5.2907 C   0  0  0  0  0  0  0  0  0  0  0  0
   -1.8777   -4.8825    6.0565 N   0  0  0  0  0  0  0  0  0  0  0  0
   -1.7712   -4.5469    7.3507 C   0  0  0  0  0  0  0  0  0  0  0  0
   -1.9991   -5.1321    8.5868 C   0  0  0  0  0  0  0  0  0  0  0  0
   -1.7573   -4.4306    9.7555 C   0  0  0  0  0  0  0  0  0  0  0  0
   -1.2779   -3.1149    9.7577 C   0  0  0  0  0  0  0  0  0  0  0  0
   -1.0601   -2.5575    8.5215 C   0  0  0  0  0  0  0  0  0  0  0  0
   -1.3075   -3.2733    7.3725 C   0  0  0  0  0  0  0  0  0  0  0  0
   -0.5580   -1.1882    8.3291 C   0  0  0  0  0  0  0  0  0  0  0  0
   -0.2814   -0.4541    9.3854 C   0  0  0  0  0  0  0  0  0  0  0  0
   -1.0891    1.2936    5.6982 C   0  0  0  0  0  0  0  0  0  0  0  0
  1  2  1  0
  2  3  1  0
  3  4  2  0
  3  5  1  0
  5  6  1  0
  6  7  1  0
  7  8  2  0
  7  9  1  0
  9 10  1  0
 10 11  1  0
 11 12  1  0
 12 13  1  0
 13 14  1  0
 14 15  1  0
 14 16  1  0
  6 17  1  0
 17 18  1  0
 18 19  2  0
 19 20  1  0
 20 21  2  0
 21 22  1  0
 22 23  2  0
  2 24  1  0
 24 25  1  0
 25 26  2  0
 25 27  1  0
 27 28  1  0
 28 29  1  0
 29 30  1  0
 30 31  1  0
 31 32  1  0
 32 33  2  0
 33 34  1  0
 34 35  1  0
 35 36  2  0
 36 37  1  0
 37 38  2  0
 38 39  1  0
 39 40  2  0
 39 41  1  0
 41 42  2  0
 29 43  1  0
 15  2  1  0
 14  5  1  0
 13  9  1  0
 23 18  1  0
 42 27  1  0
 41 30  1  0
 40 32  1  0
 40 35  1  0
M  END
$$$$
