
     RDKit          3D

 43 50  0  0  0  0  0  0  0  0999 V2000
    0.2483    5.5252   10.8183 C   0  0  0  0  0  0  0  0  0  0  0  0
    0.5142    4.1056   11.2514 C   0  0  0  0  0  0  0  0  0  0  0  0
   -0.5100    3.6162   12.2129 C   0  0  0  0  0  0  0  0  0  0  0  0
   -1.7161    3.3283   11.9943 O   0  0  0  0  0  0  0  0  0  0  0  0
    0.1910    3.5428   13.4659 N   0  0  0  0  0  0  0  0  0  0  0  0
   -0.1045    2.8403   14.7098 C   0  0  0  0  0  0  0  0  0  0  0  0
    1.1455    2.4769   15.4398 C   0  0  0  0  0  0  0  0  0  0  0  0
    1.1972    1.4723   16.1771 O   0  0  0  0  0  0  0  0  0  0  0  0
    2.2720    3.2908   15.2819 N   0  0  0  0  0  0  0  0  0  0  0  0
    3.5320    3.3833   16.0413 C   0  0  0  0  0  0  0  0  0  0  0  0
    4.5338    3.5668   14.9508 C   0  0  0  0  0  0  0  0  0  0  0  0
    3.7724    3.9189   13.6858 C   0  0  0  0  0  0  0  0  0  0  0  0
    2.4150    4.2779   14.2502 C   0  0  0  0  0  0  0  0  0  0  0  0
    1.3405    4.3590   13.2468 C   0  0  0  0  0  0  0  0  0  0  0  0
    1.7287    3.9702   11.9521 O   0  0  0  0  0  0  0  0  0  0  0  0
    0.9261    5.6920   13.1133 O   0  0  0  0  0  0  0  0  0  0  0  0
   -0.9293    3.6821   15.6201 C   0  0  0  0  0  0  0  0  0  0  0  0
   -1.6043    3.0270   16.7163 C   0  0  0  0  0  0  0  0  0  0  0  0
   -2.9620    2.8098   16.6869 C   0  0  0  0  0  0  0  0  0  0  0  0
   -3.6060    2.1692   17.7597 C   0  0  0  0  0  0  0  0  0  0  0  0
   -2.8709    1.7537   18.8538 C   0  0  0  0  0  0  0  0  0  0  0  0
   -1.5125    1.9689   18.8879 C   0  0  0  0  0  0  0  0  0  0  0  0
   -0.9195    2.5960   17.8243 C   0  0  0  0  0  0  0  0  0  0  0  0
    0.4633    3.2731   10.0934 N   0  0  0  0  0  0  0  0  0  0  0  0
    0.1895    1.8782   10.1230 C   0  0  0  0  0  0  0  0  0  0  0  0
   -0.2398    1.3937   11.1960 O   0  0  0  0  0  0  0  0  0  0  0  0
    0.3821    0.9799    8.9691 C   0  0  0  0  0  0  0  0  0  0  0  0
   -0.3444    1.5198    7.7876 C   0  0  0  0  0  0  0  0  0  0  0  0
   -0.8475    0.5229    6.8685 N   0  0  0  0  0  0  0  0  0  0  0  0
    0.0101   -0.6629    6.9404 C   0  0  0  0  0  0  0  0  0  0  0  0
   -0.1444   -1.5644    5.7852 C   0  0  0  0  0  0  0  0  0  0  0  0
   -0.5351   -2.9479    6.1229 C   0  0  0  0  0  0  0  0  0  0  0  0
   -0.7817   -4.0351    5.3155 C   0  0  0  0  0  0  0  0  0  0  0  0
   -1.1120   -5.1003    6.1080 N   0  0  0  0  0  0  0  0  0  0  0  0
   -1.0795   -4.7116    7.3914 C   0  0  0  0  0  0  0  0  0  0  0  0
   -1.2990   -5.2709    8.6409 C   0  0  0  0  0  0  0  0  0  0  0  0
   -1.1587   -4.5106    9.7892 C   0  0  0  0  0  0  0  0  0  0  0  0
   -0.7940   -3.1589    9.7568 C   0  0  0  0  0  0  0  0  0  0  0  0
   -0.5821   -2.6283    8.5079 C   0  0  0  0  0  0  0  0  0  0  0  0
   -0.7275   -3.4026    7.3795 C   0  0  0  0  0  0  0  0  0  0  0  0
   -0.1927   -1.2282    8.2797 C   0  0  0  0  0  0  0  0  0  0  0  0
   -0.0166   -0.4364    9.3157 C   0  0  0  0  0  0  0  0  0  0  0  0
   -0.8429    1.1047    5.5414 C   0  0  0  0  0  0  0  0  0  0  0  0
  1  2  1  0
  2  3  1  0
  3  4  2  0
  3  5  1  0
  5  6  1  0
  6  7  1  0
  7  8  2  0
  7  9  1  0
  9 10  1  0
 10 11  1  0
 11 12  1  0
 12 13  1  0
 13 14  1  0
 14 15  1  0
 14 16  1  0
  6 17  1  0
 17 18  1  0
 18 19  2  0
 19 20  1  0
 20 21  2  0
 21 22  1  0
 22 23  2  0
  2 24  1  0
 24 25  1  0
 25 26  2  0
 25 27  1  0
 27 28  1  0
 28 29  1  0
 29 30  1  0
 30 31  1  0
 31 32  1  0
 32 33  2  0
 33 34  1  0
 34 35  1  0
 35 36  2  0
 36 37  1  0
 37 38  2  0
 38 39  1  0
 39 40  2  0
 39 41  1  0
 41 42  2  0
 29 43  1  0
 15  2  1  0
 14  5  1  0
 13  9  1  0
 23 18  1  0
 42 27  1  0
 41 30  1  0
 40 32  1  0
 40 35  1  0
M  END
$$$$
