
     RDKit          3D

 43 50  0  0  0  0  0  0  0  0999 V2000
    2.2380    3.6392   10.0044 C   0  0  0  0  0  0  0  0  0  0  0  0
    1.0512    2.8465   10.4910 C   0  0  0  0  0  0  0  0  0  0  0  0
    1.3107    1.3820   10.4622 C   0  0  0  0  0  0  0  0  0  0  0  0
    2.0716    0.7061   11.2035 O   0  0  0  0  0  0  0  0  0  0  0  0
    0.4887    0.9006    9.3855 N   0  0  0  0  0  0  0  0  0  0  0  0
    0.0124   -0.4352    9.0432 C   0  0  0  0  0  0  0  0  0  0  0  0
   -1.2978   -0.3798    8.3306 C   0  0  0  0  0  0  0  0  0  0  0  0
   -2.1227   -1.3113    8.4167 O   0  0  0  0  0  0  0  0  0  0  0  0
   -1.5895    0.7471    7.5553 N   0  0  0  0  0  0  0  0  0  0  0  0
   -2.6237    0.9975    6.5351 C   0  0  0  0  0  0  0  0  0  0  0  0
   -3.0346    2.3963    6.8529 C   0  0  0  0  0  0  0  0  0  0  0  0
   -1.9882    2.9791    7.7852 C   0  0  0  0  0  0  0  0  0  0  0  0
   -0.8616    1.9820    7.6222 C   0  0  0  0  0  0  0  0  0  0  0  0
    0.1936    2.0834    8.6442 C   0  0  0  0  0  0  0  0  0  0  0  0
   -0.0819    3.0060    9.6694 O   0  0  0  0  0  0  0  0  0  0  0  0
    1.3758    2.5478    8.0500 O   0  0  0  0  0  0  0  0  0  0  0  0
    0.9786   -1.1396    8.1557 C   0  0  0  0  0  0  0  0  0  0  0  0
    0.7385   -2.5355    7.8720 C   0  0  0  0  0  0  0  0  0  0  0  0
    0.5218   -2.9724    6.5862 C   0  0  0  0  0  0  0  0  0  0  0  0
    0.2915   -4.3340    6.3238 C   0  0  0  0  0  0  0  0  0  0  0  0
    0.2823   -5.2428    7.3651 C   0  0  0  0  0  0  0  0  0  0  0  0
    0.4984   -4.8107    8.6532 C   0  0  0  0  0  0  0  0  0  0  0  0
    0.7195   -3.4763    8.8704 C   0  0  0  0  0  0  0  0  0  0  0  0
    0.7940    3.2208   11.8439 N   0  0  0  0  0  0  0  0  0  0  0  0
    1.3021    2.5265   12.9759 C   0  0  0  0  0  0  0  0  0  0  0  0
    2.3038    1.7930   12.8053 O   0  0  0  0  0  0  0  0  0  0  0  0
    0.7185    2.6227   14.3270 C   0  0  0  0  0  0  0  0  0  0  0  0
    1.7949    2.8910   15.3193 C   0  0  0  0  0  0  0  0  0  0  0  0
    1.5671    2.3382   16.6362 N   0  0  0  0  0  0  0  0  0  0  0  0
    0.1233    2.2478   16.8683 C   0  0  0  0  0  0  0  0  0  0  0  0
   -0.2296    2.0946   18.2906 C   0  0  0  0  0  0  0  0  0  0  0  0
   -1.0240    0.8911   18.6090 C   0  0  0  0  0  0  0  0  0  0  0  0
   -1.5078    0.4251   19.8104 C   0  0  0  0  0  0  0  0  0  0  0  0
   -2.1895   -0.7392   19.5832 N   0  0  0  0  0  0  0  0  0  0  0  0
   -2.1470   -1.0170   18.2716 C   0  0  0  0  0  0  0  0  0  0  0  0
   -2.6144   -2.0003   17.4132 C   0  0  0  0  0  0  0  0  0  0  0  0
   -2.3529   -1.9348   16.0554 C   0  0  0  0  0  0  0  0  0  0  0  0
   -1.6156   -0.8922   15.4807 C   0  0  0  0  0  0  0  0  0  0  0  0
   -1.1637    0.0691   16.3513 C   0  0  0  0  0  0  0  0  0  0  0  0
   -1.4353   -0.0161   17.6977 C   0  0  0  0  0  0  0  0  0  0  0  0
   -0.3749    1.2366   15.9283 C   0  0  0  0  0  0  0  0  0  0  0  0
   -0.0957    1.3913   14.6519 C   0  0  0  0  0  0  0  0  0  0  0  0
    2.2081    3.2123   17.5979 C   0  0  0  0  0  0  0  0  0  0  0  0
  1  2  1  0
  2  3  1  0
  3  4  2  0
  3  5  1  0
  5  6  1  0
  6  7  1  0
  7  8  2  0
  7  9  1  0
  9 10  1  0
 10 11  1  0
 11 12  1  0
 12 13  1  0
 13 14  1  0
 14 15  1  0
 14 16  1  0
  6 17  1  0
 17 18  1  0
 18 19  2  0
 19 20  1  0
 20 21  2  0
 21 22  1  0
 22 23  2  0
  2 24  1  0
 24 25  1  0
 25 26  2  0
 25 27  1  0
 27 28  1  0
 28 29  1  0
 29 30  1  0
 30 31  1  0
 31 32  1  0
 32 33  2  0
 33 34  1  0
 34 35  1  0
 35 36  2  0
 36 37  1  0
 37 38  2  0
 38 39  1  0
 39 40  2  0
 39 41  1  0
 41 42  2  0
 29 43  1  0
 15  2  1  0
 14  5  1  0
 13  9  1  0
 23 18  1  0
 42 27  1  0
 41 30  1  0
 40 32  1  0
 40 35  1  0
M  END
$$$$
