
     RDKit          3D

 43 50  0  0  0  0  0  0  0  0999 V2000
   -1.2804    4.7861   12.3051 C   0  0  0  0  0  0  0  0  0  0  0  0
   -0.2832    3.6553   12.3263 C   0  0  0  0  0  0  0  0  0  0  0  0
   -0.5732    2.6782   13.4099 C   0  0  0  0  0  0  0  0  0  0  0  0
   -1.5195    1.8511   13.4868 O   0  0  0  0  0  0  0  0  0  0  0  0
    0.4809    2.8888   14.3644 N   0  0  0  0  0  0  0  0  0  0  0  0
    0.9861    2.0659   15.4580 C   0  0  0  0  0  0  0  0  0  0  0  0
    2.4360    2.3194   15.7050 C   0  0  0  0  0  0  0  0  0  0  0  0
    3.1814    1.4296   16.1612 O   0  0  0  0  0  0  0  0  0  0  0  0
    2.9519    3.5863   15.4131 N   0  0  0  0  0  0  0  0  0  0  0  0
    4.2199    4.2405   15.7834 C   0  0  0  0  0  0  0  0  0  0  0  0
    4.5803    4.9470   14.5195 C   0  0  0  0  0  0  0  0  0  0  0  0
    3.3495    4.9504   13.6313 C   0  0  0  0  0  0  0  0  0  0  0  0
    2.2708    4.5715   14.6227 C   0  0  0  0  0  0  0  0  0  0  0  0
    0.9932    4.1722   14.0092 C   0  0  0  0  0  0  0  0  0  0  0  0
    1.0267    4.0917   12.6054 O   0  0  0  0  0  0  0  0  0  0  0  0
    0.0176    5.1391   14.2913 O   0  0  0  0  0  0  0  0  0  0  0  0
    0.2570    2.3489   16.7252 C   0  0  0  0  0  0  0  0  0  0  0  0
    0.7181    1.6955   17.9280 C   0  0  0  0  0  0  0  0  0  0  0  0
   -0.0530    1.6763   19.0666 C   0  0  0  0  0  0  0  0  0  0  0  0
    0.4069    1.0350   20.2298 C   0  0  0  0  0  0  0  0  0  0  0  0
    1.6437    0.4182   20.2316 C   0  0  0  0  0  0  0  0  0  0  0  0
    2.4188    0.4347   19.0951 C   0  0  0  0  0  0  0  0  0  0  0  0
    1.9377    1.0692   17.9805 C   0  0  0  0  0  0  0  0  0  0  0  0
   -0.3687    2.9669   11.0792 N   0  0  0  0  0  0  0  0  0  0  0  0
   -0.1533    1.5705   10.9204 C   0  0  0  0  0  0  0  0  0  0  0  0
   -0.0572    0.8763   11.9593 O   0  0  0  0  0  0  0  0  0  0  0  0
   -0.0380    0.9020    9.6107 C   0  0  0  0  0  0  0  0  0  0  0  0
   -0.9487    1.5569    8.6325 C   0  0  0  0  0  0  0  0  0  0  0  0
   -1.4837    0.6829    7.6119 N   0  0  0  0  0  0  0  0  0  0  0  0
   -0.5328   -0.4064    7.3755 C   0  0  0  0  0  0  0  0  0  0  0  0
   -0.7606   -1.1124    6.1025 C   0  0  0  0  0  0  0  0  0  0  0  0
   -0.9946   -2.5650    6.2292 C   0  0  0  0  0  0  0  0  0  0  0  0
   -1.2547   -3.5206    5.2732 C   0  0  0  0  0  0  0  0  0  0  0  0
   -1.3965   -4.7311    5.8947 N   0  0  0  0  0  0  0  0  0  0  0  0
   -1.2325   -4.5618    7.2152 C   0  0  0  0  0  0  0  0  0  0  0  0
   -1.2471   -5.3416    8.3614 C   0  0  0  0  0  0  0  0  0  0  0  0
   -1.0230   -4.7744    9.6042 C   0  0  0  0  0  0  0  0  0  0  0  0
   -0.7735   -3.4068    9.7731 C   0  0  0  0  0  0  0  0  0  0  0  0
   -0.7642   -2.6559    8.6232 C   0  0  0  0  0  0  0  0  0  0  0  0
   -0.9896   -3.2407    7.3980 C   0  0  0  0  0  0  0  0  0  0  0  0
   -0.5188   -1.2055    8.6066 C   0  0  0  0  0  0  0  0  0  0  0  0
   -0.2762   -0.5850    9.7411 C   0  0  0  0  0  0  0  0  0  0  0  0
   -1.6933    1.4764    6.4177 C   0  0  0  0  0  0  0  0  0  0  0  0
  1  2  1  0
  2  3  1  0
  3  4  2  0
  3  5  1  0
  5  6  1  0
  6  7  1  0
  7  8  2  0
  7  9  1  0
  9 10  1  0
 10 11  1  0
 11 12  1  0
 12 13  1  0
 13 14  1  0
 14 15  1  0
 14 16  1  0
  6 17  1  0
 17 18  1  0
 18 19  2  0
 19 20  1  0
 20 21  2  0
 21 22  1  0
 22 23  2  0
  2 24  1  0
 24 25  1  0
 25 26  2  0
 25 27  1  0
 27 28  1  0
 28 29  1  0
 29 30  1  0
 30 31  1  0
 31 32  1  0
 32 33  2  0
 33 34  1  0
 34 35  1  0
 35 36  2  0
 36 37  1  0
 37 38  2  0
 38 39  1  0
 39 40  2  0
 39 41  1  0
 41 42  2  0
 29 43  1  0
 15  2  1  0
 14  5  1  0
 13  9  1  0
 23 18  1  0
 42 27  1  0
 41 30  1  0
 40 32  1  0
 40 35  1  0
M  END
$$$$
