
     RDKit          3D

 43 50  0  0  0  0  0  0  0  0999 V2000
   -1.3958    4.4977   12.5666 C   0  0  0  0  0  0  0  0  0  0  0  0
   -0.3565    3.4070   12.5065 C   0  0  0  0  0  0  0  0  0  0  0  0
   -0.5374    2.4057   13.5917 C   0  0  0  0  0  0  0  0  0  0  0  0
   -1.4440    1.5410   13.7171 O   0  0  0  0  0  0  0  0  0  0  0  0
    0.5677    2.6458   14.4792 N   0  0  0  0  0  0  0  0  0  0  0  0
    1.1744    1.8300   15.5254 C   0  0  0  0  0  0  0  0  0  0  0  0
    2.6264    2.1375   15.6821 C   0  0  0  0  0  0  0  0  0  0  0  0
    3.4338    1.2722   16.0758 O   0  0  0  0  0  0  0  0  0  0  0  0
    3.0730    3.4273   15.3765 N   0  0  0  0  0  0  0  0  0  0  0  0
    4.3362    4.1263   15.6740 C   0  0  0  0  0  0  0  0  0  0  0  0
    4.5860    4.8622   14.4002 C   0  0  0  0  0  0  0  0  0  0  0  0
    3.3008    4.8282   13.5935 C   0  0  0  0  0  0  0  0  0  0  0  0
    2.3043    4.3946   14.6467 C   0  0  0  0  0  0  0  0  0  0  0  0
    1.0058    3.9528   14.1110 C   0  0  0  0  0  0  0  0  0  0  0  0
    0.9510    3.8913   12.7070 O   0  0  0  0  0  0  0  0  0  0  0  0
    0.0141    4.8768   14.4700 O   0  0  0  0  0  0  0  0  0  0  0  0
    0.5189    2.0681   16.8411 C   0  0  0  0  0  0  0  0  0  0  0  0
    0.8347    1.1660   17.9241 C   0  0  0  0  0  0  0  0  0  0  0  0
    0.3206   -0.1091   17.9598 C   0  0  0  0  0  0  0  0  0  0  0  0
    0.6377   -0.9775   19.0187 C   0  0  0  0  0  0  0  0  0  0  0  0
    1.4725   -0.5486   20.0332 C   0  0  0  0  0  0  0  0  0  0  0  0
    1.9892    0.7261   20.0021 C   0  0  0  0  0  0  0  0  0  0  0  0
    1.6582    1.5441   18.9543 C   0  0  0  0  0  0  0  0  0  0  0  0
   -0.4963    2.7313   11.2572 N   0  0  0  0  0  0  0  0  0  0  0  0
   -0.1264    1.3765   11.0352 C   0  0  0  0  0  0  0  0  0  0  0  0
    0.0699    0.6562   12.0418 O   0  0  0  0  0  0  0  0  0  0  0  0
    0.0369    0.7797    9.6964 C   0  0  0  0  0  0  0  0  0  0  0  0
   -0.7985    1.5208    8.7126 C   0  0  0  0  0  0  0  0  0  0  0  0
   -1.3064    0.7255    7.6165 N   0  0  0  0  0  0  0  0  0  0  0  0
   -0.3801   -0.3817    7.3661 C   0  0  0  0  0  0  0  0  0  0  0  0
   -0.5624   -1.0059    6.0439 C   0  0  0  0  0  0  0  0  0  0  0  0
   -0.8498   -2.4541    6.0734 C   0  0  0  0  0  0  0  0  0  0  0  0
   -1.0894   -3.3442    5.0511 C   0  0  0  0  0  0  0  0  0  0  0  0
   -1.3035   -4.5822    5.5927 N   0  0  0  0  0  0  0  0  0  0  0  0
   -1.2049   -4.4939    6.9275 C   0  0  0  0  0  0  0  0  0  0  0  0
   -1.3059   -5.3363    8.0240 C   0  0  0  0  0  0  0  0  0  0  0  0
   -1.1303   -4.8487    9.3076 C   0  0  0  0  0  0  0  0  0  0  0  0
   -0.8458   -3.5026    9.5687 C   0  0  0  0  0  0  0  0  0  0  0  0
   -0.7508   -2.6886    8.4666 C   0  0  0  0  0  0  0  0  0  0  0  0
   -0.9292   -3.1947    7.1995 C   0  0  0  0  0  0  0  0  0  0  0  0
   -0.4579   -1.2492    8.5475 C   0  0  0  0  0  0  0  0  0  0  0  0
   -0.2561   -0.7029    9.7273 C   0  0  0  0  0  0  0  0  0  0  0  0
   -1.4260    1.5924    6.4615 C   0  0  0  0  0  0  0  0  0  0  0  0
  1  2  1  0
  2  3  1  0
  3  4  2  0
  3  5  1  0
  5  6  1  0
  6  7  1  0
  7  8  2  0
  7  9  1  0
  9 10  1  0
 10 11  1  0
 11 12  1  0
 12 13  1  0
 13 14  1  0
 14 15  1  0
 14 16  1  0
  6 17  1  0
 17 18  1  0
 18 19  2  0
 19 20  1  0
 20 21  2  0
 21 22  1  0
 22 23  2  0
  2 24  1  0
 24 25  1  0
 25 26  2  0
 25 27  1  0
 27 28  1  0
 28 29  1  0
 29 30  1  0
 30 31  1  0
 31 32  1  0
 32 33  2  0
 33 34  1  0
 34 35  1  0
 35 36  2  0
 36 37  1  0
 37 38  2  0
 38 39  1  0
 39 40  2  0
 39 41  1  0
 41 42  2  0
 29 43  1  0
 15  2  1  0
 14  5  1  0
 13  9  1  0
 23 18  1  0
 42 27  1  0
 41 30  1  0
 40 32  1  0
 40 35  1  0
M  END
$$$$
