
     RDKit          3D

 43 50  0  0  0  0  0  0  0  0999 V2000
    2.9034    4.8889   11.7459 C   0  0  0  0  0  0  0  0  0  0  0  0
    1.8358    3.8641   12.0348 C   0  0  0  0  0  0  0  0  0  0  0  0
    0.4823    4.4767   12.1094 C   0  0  0  0  0  0  0  0  0  0  0  0
   -0.2172    4.9484   11.1748 O   0  0  0  0  0  0  0  0  0  0  0  0
    0.1430    4.4104   13.5048 N   0  0  0  0  0  0  0  0  0  0  0  0
   -1.1325    4.5144   14.2052 C   0  0  0  0  0  0  0  0  0  0  0  0
   -1.1235    3.7261   15.4724 C   0  0  0  0  0  0  0  0  0  0  0  0
   -2.1702    3.2304   15.9353 O   0  0  0  0  0  0  0  0  0  0  0  0
    0.0924    3.5498   16.1410 N   0  0  0  0  0  0  0  0  0  0  0  0
    0.4061    3.0880   17.5052 C   0  0  0  0  0  0  0  0  0  0  0  0
    1.6035    2.2293   17.2698 C   0  0  0  0  0  0  0  0  0  0  0  0
    2.1106    2.5264   15.8704 C   0  0  0  0  0  0  0  0  0  0  0  0
    1.3776    3.8133   15.5594 C   0  0  0  0  0  0  0  0  0  0  0  0
    1.4037    4.2009   14.1391 C   0  0  0  0  0  0  0  0  0  0  0  0
    1.9992    3.2493   13.2917 O   0  0  0  0  0  0  0  0  0  0  0  0
    2.1818    5.3572   13.9851 O   0  0  0  0  0  0  0  0  0  0  0  0
   -1.4394    5.9286   14.5565 C   0  0  0  0  0  0  0  0  0  0  0  0
   -2.8205    6.3494   14.5116 C   0  0  0  0  0  0  0  0  0  0  0  0
   -3.8411    5.4310   14.4327 C   0  0  0  0  0  0  0  0  0  0  0  0
   -5.1809    5.8541   14.3918 C   0  0  0  0  0  0  0  0  0  0  0  0
   -5.4772    7.2035   14.4308 C   0  0  0  0  0  0  0  0  0  0  0  0
   -4.4598    8.1262   14.5096 C   0  0  0  0  0  0  0  0  0  0  0  0
   -3.1664    7.6766   14.5477 C   0  0  0  0  0  0  0  0  0  0  0  0
    1.8314    2.9171   10.9671 N   0  0  0  0  0  0  0  0  0  0  0  0
    0.8525    1.8986   10.8060 C   0  0  0  0  0  0  0  0  0  0  0  0
    0.0766    1.6822   11.7660 O   0  0  0  0  0  0  0  0  0  0  0  0
    0.7032    1.0909    9.5809 C   0  0  0  0  0  0  0  0  0  0  0  0
   -0.2436    1.7636    8.6501 C   0  0  0  0  0  0  0  0  0  0  0  0
   -1.0182    0.8736    7.8137 N   0  0  0  0  0  0  0  0  0  0  0  0
   -0.2523   -0.3561    7.5943 C   0  0  0  0  0  0  0  0  0  0  0  0
   -0.7385   -1.1491    6.4517 C   0  0  0  0  0  0  0  0  0  0  0  0
   -1.1328   -2.5344    6.7779 C   0  0  0  0  0  0  0  0  0  0  0  0
   -1.6386   -3.5365    5.9813 C   0  0  0  0  0  0  0  0  0  0  0  0
   -1.8444   -4.6459    6.7550 N   0  0  0  0  0  0  0  0  0  0  0  0
   -1.4816   -4.3677    8.0160 C   0  0  0  0  0  0  0  0  0  0  0  0
   -1.4367   -5.0173    9.2401 C   0  0  0  0  0  0  0  0  0  0  0  0
   -0.9757   -4.3635   10.3698 C   0  0  0  0  0  0  0  0  0  0  0  0
   -0.5363   -3.0341   10.3431 C   0  0  0  0  0  0  0  0  0  0  0  0
   -0.5905   -2.4127    9.1196 C   0  0  0  0  0  0  0  0  0  0  0  0
   -1.0526   -3.0818    8.0094 C   0  0  0  0  0  0  0  0  0  0  0  0
   -0.1702   -1.0200    8.9008 C   0  0  0  0  0  0  0  0  0  0  0  0
    0.3009   -0.3273    9.9153 C   0  0  0  0  0  0  0  0  0  0  0  0
   -1.2882    1.5630    6.5681 C   0  0  0  0  0  0  0  0  0  0  0  0
  1  2  1  0
  2  3  1  0
  3  4  2  0
  3  5  1  0
  5  6  1  0
  6  7  1  0
  7  8  2  0
  7  9  1  0
  9 10  1  0
 10 11  1  0
 11 12  1  0
 12 13  1  0
 13 14  1  0
 14 15  1  0
 14 16  1  0
  6 17  1  0
 17 18  1  0
 18 19  2  0
 19 20  1  0
 20 21  2  0
 21 22  1  0
 22 23  2  0
  2 24  1  0
 24 25  1  0
 25 26  2  0
 25 27  1  0
 27 28  1  0
 28 29  1  0
 29 30  1  0
 30 31  1  0
 31 32  1  0
 32 33  2  0
 33 34  1  0
 34 35  1  0
 35 36  2  0
 36 37  1  0
 37 38  2  0
 38 39  1  0
 39 40  2  0
 39 41  1  0
 41 42  2  0
 29 43  1  0
 15  2  1  0
 14  5  1  0
 13  9  1  0
 23 18  1  0
 42 27  1  0
 41 30  1  0
 40 32  1  0
 40 35  1  0
M  END
$$$$
