
     RDKit          3D

 43 50  0  0  0  0  0  0  0  0999 V2000
    0.0859    5.8924   10.3538 C   0  0  0  0  0  0  0  0  0  0  0  0
    0.2272    4.4962   10.9051 C   0  0  0  0  0  0  0  0  0  0  0  0
   -0.9206    4.1225   11.7745 C   0  0  0  0  0  0  0  0  0  0  0  0
   -2.1091    3.8750   11.4403 O   0  0  0  0  0  0  0  0  0  0  0  0
   -0.3660    4.1056   13.1007 N   0  0  0  0  0  0  0  0  0  0  0  0
   -0.8328    3.5063   14.3462 C   0  0  0  0  0  0  0  0  0  0  0  0
    0.3088    3.1388   15.2347 C   0  0  0  0  0  0  0  0  0  0  0  0
    0.2261    2.1872   16.0366 O   0  0  0  0  0  0  0  0  0  0  0  0
    1.4872    3.8877   15.1526 N   0  0  0  0  0  0  0  0  0  0  0  0
    2.6596    3.9761   16.0418 C   0  0  0  0  0  0  0  0  0  0  0  0
    3.7831    4.0368   15.0617 C   0  0  0  0  0  0  0  0  0  0  0  0
    3.1846    4.3334   13.6987 C   0  0  0  0  0  0  0  0  0  0  0  0
    1.7944    4.7923   14.0819 C   0  0  0  0  0  0  0  0  0  0  0  0
    0.8421    4.8514   12.9604 C   0  0  0  0  0  0  0  0  0  0  0  0
    1.3488    4.3553   11.7457 O   0  0  0  0  0  0  0  0  0  0  0  0
    0.5160    6.1891   12.6950 O   0  0  0  0  0  0  0  0  0  0  0  0
   -1.7066    4.4465   15.1011 C   0  0  0  0  0  0  0  0  0  0  0  0
   -2.4415    3.9244   16.2297 C   0  0  0  0  0  0  0  0  0  0  0  0
   -2.8196    4.7400   17.2704 C   0  0  0  0  0  0  0  0  0  0  0  0
   -3.5364    4.2193   18.3618 C   0  0  0  0  0  0  0  0  0  0  0  0
   -3.8646    2.8771   18.3913 C   0  0  0  0  0  0  0  0  0  0  0  0
   -3.4885    2.0570   17.3527 C   0  0  0  0  0  0  0  0  0  0  0  0
   -2.7912    2.5999   16.3060 C   0  0  0  0  0  0  0  0  0  0  0  0
    0.2595    3.5875    9.8052 N   0  0  0  0  0  0  0  0  0  0  0  0
    0.0752    2.1826    9.9230 C   0  0  0  0  0  0  0  0  0  0  0  0
   -0.1835    1.7247   11.0605 O   0  0  0  0  0  0  0  0  0  0  0  0
    0.1715    1.2447    8.7888 C   0  0  0  0  0  0  0  0  0  0  0  0
   -0.6898    1.7197    7.6719 C   0  0  0  0  0  0  0  0  0  0  0  0
   -1.2577    0.6754    6.8481 N   0  0  0  0  0  0  0  0  0  0  0  0
   -0.3637   -0.4852    6.8720 C   0  0  0  0  0  0  0  0  0  0  0  0
   -0.6124   -1.4348    5.7733 C   0  0  0  0  0  0  0  0  0  0  0  0
   -0.9258   -2.8132    6.2006 C   0  0  0  0  0  0  0  0  0  0  0  0
   -1.2244   -3.9369    5.4639 C   0  0  0  0  0  0  0  0  0  0  0  0
   -1.4392   -4.9780    6.3252 N   0  0  0  0  0  0  0  0  0  0  0  0
   -1.2836   -4.5386    7.5829 C   0  0  0  0  0  0  0  0  0  0  0  0
   -1.3550   -5.0536    8.8682 C   0  0  0  0  0  0  0  0  0  0  0  0
   -1.1170   -4.2456    9.9668 C   0  0  0  0  0  0  0  0  0  0  0  0
   -0.7965   -2.8877    9.8467 C   0  0  0  0  0  0  0  0  0  0  0  0
   -0.7319   -2.4015    8.5639 C   0  0  0  0  0  0  0  0  0  0  0  0
   -0.9724   -3.2228    7.4862 C   0  0  0  0  0  0  0  0  0  0  0  0
   -0.4088   -1.0022    8.2449 C   0  0  0  0  0  0  0  0  0  0  0  0
   -0.1479   -0.1663    9.2269 C   0  0  0  0  0  0  0  0  0  0  0  0
   -1.4087    1.2047    5.5076 C   0  0  0  0  0  0  0  0  0  0  0  0
  1  2  1  0
  2  3  1  0
  3  4  2  0
  3  5  1  0
  5  6  1  0
  6  7  1  0
  7  8  2  0
  7  9  1  0
  9 10  1  0
 10 11  1  0
 11 12  1  0
 12 13  1  0
 13 14  1  0
 14 15  1  0
 14 16  1  0
  6 17  1  0
 17 18  1  0
 18 19  2  0
 19 20  1  0
 20 21  2  0
 21 22  1  0
 22 23  2  0
  2 24  1  0
 24 25  1  0
 25 26  2  0
 25 27  1  0
 27 28  1  0
 28 29  1  0
 29 30  1  0
 30 31  1  0
 31 32  1  0
 32 33  2  0
 33 34  1  0
 34 35  1  0
 35 36  2  0
 36 37  1  0
 37 38  2  0
 38 39  1  0
 39 40  2  0
 39 41  1  0
 41 42  2  0
 29 43  1  0
 15  2  1  0
 14  5  1  0
 13  9  1  0
 23 18  1  0
 42 27  1  0
 41 30  1  0
 40 32  1  0
 40 35  1  0
M  END
$$$$
