
     RDKit          3D

 43 50  0  0  0  0  0  0  0  0999 V2000
    1.3281    5.2071   12.0816 C   0  0  0  0  0  0  0  0  0  0  0  0
    1.2548    3.7302   12.3764 C   0  0  0  0  0  0  0  0  0  0  0  0
    0.0422    3.3796   13.1635 C   0  0  0  0  0  0  0  0  0  0  0  0
   -1.1598    3.3689   12.7885 O   0  0  0  0  0  0  0  0  0  0  0  0
    0.5522    3.0502   14.4666 N   0  0  0  0  0  0  0  0  0  0  0  0
   -0.0288    2.3155   15.5851 C   0  0  0  0  0  0  0  0  0  0  0  0
    1.0243    1.6368   16.3961 C   0  0  0  0  0  0  0  0  0  0  0  0
    0.7855    0.5812   17.0162 O   0  0  0  0  0  0  0  0  0  0  0  0
    2.2988    2.2102   16.4505 N   0  0  0  0  0  0  0  0  0  0  0  0
    3.4471    1.9709   17.3434 C   0  0  0  0  0  0  0  0  0  0  0  0
    4.5943    2.0398   16.3917 C   0  0  0  0  0  0  0  0  0  0  0  0
    4.0815    2.6542   15.1020 C   0  0  0  0  0  0  0  0  0  0  0  0
    2.7605    3.2347   15.5581 C   0  0  0  0  0  0  0  0  0  0  0  0
    1.8573    3.6267   14.4632 C   0  0  0  0  0  0  0  0  0  0  0  0
    2.3216    3.2836   13.1807 O   0  0  0  0  0  0  0  0  0  0  0  0
    1.7316    5.0230   14.4390 O   0  0  0  0  0  0  0  0  0  0  0  0
   -0.7808    3.2248   16.4934 C   0  0  0  0  0  0  0  0  0  0  0  0
   -2.0868    3.6723   16.0685 C   0  0  0  0  0  0  0  0  0  0  0  0
   -2.9846    4.1994   16.9671 C   0  0  0  0  0  0  0  0  0  0  0  0
   -4.2516    4.6331   16.5399 C   0  0  0  0  0  0  0  0  0  0  0  0
   -4.6001    4.5297   15.2065 C   0  0  0  0  0  0  0  0  0  0  0  0
   -3.7056    4.0029   14.3037 C   0  0  0  0  0  0  0  0  0  0  0  0
   -2.4802    3.5910   14.7566 C   0  0  0  0  0  0  0  0  0  0  0  0
    1.1880    3.0338   11.1326 N   0  0  0  0  0  0  0  0  0  0  0  0
    0.7674    1.6826   10.9944 C   0  0  0  0  0  0  0  0  0  0  0  0
    0.3923    1.0830   12.0289 O   0  0  0  0  0  0  0  0  0  0  0  0
    0.7493    0.9564    9.7108 C   0  0  0  0  0  0  0  0  0  0  0  0
   -0.0817    1.7011    8.7260 C   0  0  0  0  0  0  0  0  0  0  0  0
   -0.7653    0.8778    7.7530 N   0  0  0  0  0  0  0  0  0  0  0  0
    0.0099   -0.3473    7.5413 C   0  0  0  0  0  0  0  0  0  0  0  0
   -0.3520   -1.0589    6.3029 C   0  0  0  0  0  0  0  0  0  0  0  0
   -0.7919   -2.4557    6.4933 C   0  0  0  0  0  0  0  0  0  0  0  0
   -1.2138   -3.3976    5.5825 C   0  0  0  0  0  0  0  0  0  0  0  0
   -1.5143   -4.5503    6.2554 N   0  0  0  0  0  0  0  0  0  0  0  0
   -1.2925   -4.3580    7.5642 C   0  0  0  0  0  0  0  0  0  0  0  0
   -1.3903   -5.0841    8.7413 C   0  0  0  0  0  0  0  0  0  0  0  0
   -1.0531   -4.5102    9.9551 C   0  0  0  0  0  0  0  0  0  0  0  0
   -0.6024   -3.1888   10.0631 C   0  0  0  0  0  0  0  0  0  0  0  0
   -0.5141   -2.4906    8.8837 C   0  0  0  0  0  0  0  0  0  0  0  0
   -0.8547   -3.0810    7.6883 C   0  0  0  0  0  0  0  0  0  0  0  0
   -0.0603   -1.0935    8.8033 C   0  0  0  0  0  0  0  0  0  0  0  0
    0.3002   -0.4737    9.9064 C   0  0  0  0  0  0  0  0  0  0  0  0
   -0.8884    1.6487    6.5322 C   0  0  0  0  0  0  0  0  0  0  0  0
  1  2  1  0
  2  3  1  0
  3  4  2  0
  3  5  1  0
  5  6  1  0
  6  7  1  0
  7  8  2  0
  7  9  1  0
  9 10  1  0
 10 11  1  0
 11 12  1  0
 12 13  1  0
 13 14  1  0
 14 15  1  0
 14 16  1  0
  6 17  1  0
 17 18  1  0
 18 19  2  0
 19 20  1  0
 20 21  2  0
 21 22  1  0
 22 23  2  0
  2 24  1  0
 24 25  1  0
 25 26  2  0
 25 27  1  0
 27 28  1  0
 28 29  1  0
 29 30  1  0
 30 31  1  0
 31 32  1  0
 32 33  2  0
 33 34  1  0
 34 35  1  0
 35 36  2  0
 36 37  1  0
 37 38  2  0
 38 39  1  0
 39 40  2  0
 39 41  1  0
 41 42  2  0
 29 43  1  0
 15  2  1  0
 14  5  1  0
 13  9  1  0
 23 18  1  0
 42 27  1  0
 41 30  1  0
 40 32  1  0
 40 35  1  0
M  END
$$$$
