
     RDKit          3D

 43 50  0  0  0  0  0  0  0  0999 V2000
   -1.3239    4.9190   11.9194 C   0  0  0  0  0  0  0  0  0  0  0  0
   -0.3862    3.7427   12.0221 C   0  0  0  0  0  0  0  0  0  0  0  0
   -0.7311    2.8543   13.1644 C   0  0  0  0  0  0  0  0  0  0  0  0
   -1.7189    2.0833   13.2872 O   0  0  0  0  0  0  0  0  0  0  0  0
    0.3279    3.0729   14.1117 N   0  0  0  0  0  0  0  0  0  0  0  0
    0.7849    2.2984   15.2605 C   0  0  0  0  0  0  0  0  0  0  0  0
    2.2447    2.4934   15.5023 C   0  0  0  0  0  0  0  0  0  0  0  0
    2.9413    1.5985   16.0213 O   0  0  0  0  0  0  0  0  0  0  0  0
    2.8264    3.7106   15.1329 N   0  0  0  0  0  0  0  0  0  0  0  0
    4.1245    4.3221   15.4703 C   0  0  0  0  0  0  0  0  0  0  0  0
    4.5267    4.9254   14.1661 C   0  0  0  0  0  0  0  0  0  0  0  0
    3.3019    4.9336   13.2697 C   0  0  0  0  0  0  0  0  0  0  0  0
    2.2005    4.6755   14.2748 C   0  0  0  0  0  0  0  0  0  0  0  0
    0.9070    4.3026   13.6782 C   0  0  0  0  0  0  0  0  0  0  0  0
    0.9431    4.1292   12.2829 O   0  0  0  0  0  0  0  0  0  0  0  0
   -0.0190    5.3342   13.8890 O   0  0  0  0  0  0  0  0  0  0  0  0
    0.0653    2.7002   16.5007 C   0  0  0  0  0  0  0  0  0  0  0  0
    0.2114    1.8600   17.6665 C   0  0  0  0  0  0  0  0  0  0  0  0
    0.9581    0.7060   17.6219 C   0  0  0  0  0  0  0  0  0  0  0  0
    1.0937   -0.1015   18.7644 C   0  0  0  0  0  0  0  0  0  0  0  0
    0.4724    0.2653   19.9432 C   0  0  0  0  0  0  0  0  0  0  0  0
   -0.2758    1.4188   19.9930 C   0  0  0  0  0  0  0  0  0  0  0  0
   -0.3853    2.1805   18.8597 C   0  0  0  0  0  0  0  0  0  0  0  0
   -0.5009    2.9796   10.8216 N   0  0  0  0  0  0  0  0  0  0  0  0
   -0.1578    1.6041   10.7127 C   0  0  0  0  0  0  0  0  0  0  0  0
    0.0598    0.9745   11.7742 O   0  0  0  0  0  0  0  0  0  0  0  0
   -0.0453    0.8859    9.4294 C   0  0  0  0  0  0  0  0  0  0  0  0
   -0.9630    1.4986    8.4307 C   0  0  0  0  0  0  0  0  0  0  0  0
   -1.4988    0.5836    7.4472 N   0  0  0  0  0  0  0  0  0  0  0  0
   -0.5442   -0.5102    7.2488 C   0  0  0  0  0  0  0  0  0  0  0  0
   -0.7745   -1.2659    6.0051 C   0  0  0  0  0  0  0  0  0  0  0  0
   -1.0018   -2.7135    6.1891 C   0  0  0  0  0  0  0  0  0  0  0  0
   -1.2620   -3.7064    5.2720 C   0  0  0  0  0  0  0  0  0  0  0  0
   -1.3960   -4.8925    5.9406 N   0  0  0  0  0  0  0  0  0  0  0  0
   -1.2270   -4.6715    7.2527 C   0  0  0  0  0  0  0  0  0  0  0  0
   -1.2332   -5.4063    8.4284 C   0  0  0  0  0  0  0  0  0  0  0  0
   -1.0062   -4.7904    9.6472 C   0  0  0  0  0  0  0  0  0  0  0  0
   -0.7617   -3.4164    9.7619 C   0  0  0  0  0  0  0  0  0  0  0  0
   -0.7607   -2.7106    8.5837 C   0  0  0  0  0  0  0  0  0  0  0  0
   -0.9889   -3.3433    7.3832 C   0  0  0  0  0  0  0  0  0  0  0  0
   -0.5215   -1.2609    8.5099 C   0  0  0  0  0  0  0  0  0  0  0  0
   -0.2766   -0.5959    9.6184 C   0  0  0  0  0  0  0  0  0  0  0  0
   -1.7169    1.3294    6.2240 C   0  0  0  0  0  0  0  0  0  0  0  0
  1  2  1  0
  2  3  1  0
  3  4  2  0
  3  5  1  0
  5  6  1  0
  6  7  1  0
  7  8  2  0
  7  9  1  0
  9 10  1  0
 10 11  1  0
 11 12  1  0
 12 13  1  0
 13 14  1  0
 14 15  1  0
 14 16  1  0
  6 17  1  0
 17 18  1  0
 18 19  2  0
 19 20  1  0
 20 21  2  0
 21 22  1  0
 22 23  2  0
  2 24  1  0
 24 25  1  0
 25 26  2  0
 25 27  1  0
 27 28  1  0
 28 29  1  0
 29 30  1  0
 30 31  1  0
 31 32  1  0
 32 33  2  0
 33 34  1  0
 34 35  1  0
 35 36  2  0
 36 37  1  0
 37 38  2  0
 38 39  1  0
 39 40  2  0
 39 41  1  0
 41 42  2  0
 29 43  1  0
 15  2  1  0
 14  5  1  0
 13  9  1  0
 23 18  1  0
 42 27  1  0
 41 30  1  0
 40 32  1  0
 40 35  1  0
M  END
$$$$
