
     RDKit          3D

 43 50  0  0  0  0  0  0  0  0999 V2000
    1.7459    4.8323   12.3746 C   0  0  0  0  0  0  0  0  0  0  0  0
    1.3316    3.4016   12.6091 C   0  0  0  0  0  0  0  0  0  0  0  0
    0.1511    3.3046   13.5090 C   0  0  0  0  0  0  0  0  0  0  0  0
   -1.0451    3.6162   13.2691 O   0  0  0  0  0  0  0  0  0  0  0  0
    0.6842    2.7681   14.7315 N   0  0  0  0  0  0  0  0  0  0  0  0
    0.0469    2.1210   15.8732 C   0  0  0  0  0  0  0  0  0  0  0  0
    0.9679    1.1484   16.5314 C   0  0  0  0  0  0  0  0  0  0  0  0
    0.5316    0.1425   17.1260 O   0  0  0  0  0  0  0  0  0  0  0  0
    2.3449    1.3857   16.4702 N   0  0  0  0  0  0  0  0  0  0  0  0
    3.4760    0.8086   17.2189 C   0  0  0  0  0  0  0  0  0  0  0  0
    4.5069    0.6611   16.1502 C   0  0  0  0  0  0  0  0  0  0  0  0
    4.0442    1.4728   14.9541 C   0  0  0  0  0  0  0  0  0  0  0  0
    2.9620    2.3262   15.5792 C   0  0  0  0  0  0  0  0  0  0  0  0
    2.0859    3.0049   14.6097 C   0  0  0  0  0  0  0  0  0  0  0  0
    2.3236    2.6504   13.2695 O   0  0  0  0  0  0  0  0  0  0  0  0
    2.3142    4.3874   14.6623 O   0  0  0  0  0  0  0  0  0  0  0  0
   -0.3611    3.1203   16.8990 C   0  0  0  0  0  0  0  0  0  0  0  0
   -1.6722    2.9826   17.4895 C   0  0  0  0  0  0  0  0  0  0  0  0
   -2.3649    4.0795   17.9457 C   0  0  0  0  0  0  0  0  0  0  0  0
   -3.6410    3.9316   18.5164 C   0  0  0  0  0  0  0  0  0  0  0  0
   -4.2058    2.6746   18.6210 C   0  0  0  0  0  0  0  0  0  0  0  0
   -3.5168    1.5741   18.1662 C   0  0  0  0  0  0  0  0  0  0  0  0
   -2.2757    1.7570   17.6159 C   0  0  0  0  0  0  0  0  0  0  0  0
    0.9727    2.8332   11.3503 N   0  0  0  0  0  0  0  0  0  0  0  0
    0.7667    1.4437   11.1300 C   0  0  0  0  0  0  0  0  0  0  0  0
    0.7029    0.6998   12.1365 O   0  0  0  0  0  0  0  0  0  0  0  0
    0.6254    0.8373    9.7930 C   0  0  0  0  0  0  0  0  0  0  0  0
   -0.4331    1.5516    9.0285 C   0  0  0  0  0  0  0  0  0  0  0  0
   -1.1656    0.7356    8.0855 N   0  0  0  0  0  0  0  0  0  0  0  0
   -0.2993   -0.3550    7.6305 C   0  0  0  0  0  0  0  0  0  0  0  0
   -0.7720   -0.9957    6.3907 C   0  0  0  0  0  0  0  0  0  0  0  0
   -1.0127   -2.4491    6.4935 C   0  0  0  0  0  0  0  0  0  0  0  0
   -1.4650   -3.3537    5.5599 C   0  0  0  0  0  0  0  0  0  0  0  0
   -1.5192   -4.5905    6.1424 N   0  0  0  0  0  0  0  0  0  0  0  0
   -1.1131   -4.4871    7.4166 C   0  0  0  0  0  0  0  0  0  0  0  0
   -0.9363   -5.3208    8.5102 C   0  0  0  0  0  0  0  0  0  0  0  0
   -0.4760   -4.8172    9.7148 C   0  0  0  0  0  0  0  0  0  0  0  0
   -0.1681   -3.4631    9.8957 C   0  0  0  0  0  0  0  0  0  0  0  0
   -0.3514   -2.6581    8.7981 C   0  0  0  0  0  0  0  0  0  0  0  0
   -0.8102   -3.1801    7.6103 C   0  0  0  0  0  0  0  0  0  0  0  0
   -0.0795   -1.2123    8.8014 C   0  0  0  0  0  0  0  0  0  0  0  0
    0.3805   -0.6506    9.8986 C   0  0  0  0  0  0  0  0  0  0  0  0
   -1.5711    1.5885    6.9865 C   0  0  0  0  0  0  0  0  0  0  0  0
  1  2  1  0
  2  3  1  0
  3  4  2  0
  3  5  1  0
  5  6  1  0
  6  7  1  0
  7  8  2  0
  7  9  1  0
  9 10  1  0
 10 11  1  0
 11 12  1  0
 12 13  1  0
 13 14  1  0
 14 15  1  0
 14 16  1  0
  6 17  1  0
 17 18  1  0
 18 19  2  0
 19 20  1  0
 20 21  2  0
 21 22  1  0
 22 23  2  0
  2 24  1  0
 24 25  1  0
 25 26  2  0
 25 27  1  0
 27 28  1  0
 28 29  1  0
 29 30  1  0
 30 31  1  0
 31 32  1  0
 32 33  2  0
 33 34  1  0
 34 35  1  0
 35 36  2  0
 36 37  1  0
 37 38  2  0
 38 39  1  0
 39 40  2  0
 39 41  1  0
 41 42  2  0
 29 43  1  0
 15  2  1  0
 14  5  1  0
 13  9  1  0
 23 18  1  0
 42 27  1  0
 41 30  1  0
 40 32  1  0
 40 35  1  0
M  END
$$$$
