
     RDKit          3D

 43 50  0  0  0  0  0  0  0  0999 V2000
    2.7164    5.2210   11.6393 C   0  0  0  0  0  0  0  0  0  0  0  0
    1.5911    4.2285   11.7882 C   0  0  0  0  0  0  0  0  0  0  0  0
    0.2697    4.9002   11.9128 C   0  0  0  0  0  0  0  0  0  0  0  0
   -0.3835    5.5150   11.0292 O   0  0  0  0  0  0  0  0  0  0  0  0
   -0.1035    4.6897   13.2851 N   0  0  0  0  0  0  0  0  0  0  0  0
   -1.3872    4.7798   13.9723 C   0  0  0  0  0  0  0  0  0  0  0  0
   -1.4471    3.8495   15.1378 C   0  0  0  0  0  0  0  0  0  0  0  0
   -2.5280    3.3602   15.5221 O   0  0  0  0  0  0  0  0  0  0  0  0
   -0.2571    3.5310   15.8003 N   0  0  0  0  0  0  0  0  0  0  0  0
    0.0018    2.8967   17.1054 C   0  0  0  0  0  0  0  0  0  0  0  0
    1.1583    2.0082   16.7897 C   0  0  0  0  0  0  0  0  0  0  0  0
    1.7110    2.4390   15.4434 C   0  0  0  0  0  0  0  0  0  0  0  0
    1.0526    3.7910   15.2745 C   0  0  0  0  0  0  0  0  0  0  0  0
    1.1303    4.3399   13.9104 C   0  0  0  0  0  0  0  0  0  0  0  0
    1.6946    3.4632   12.9664 O   0  0  0  0  0  0  0  0  0  0  0  0
    1.9703    5.4627   13.9062 O   0  0  0  0  0  0  0  0  0  0  0  0
   -1.6284    6.1577   14.4828 C   0  0  0  0  0  0  0  0  0  0  0  0
   -2.9930    6.5467   14.7532 C   0  0  0  0  0  0  0  0  0  0  0  0
   -3.8785    5.6724   15.3387 C   0  0  0  0  0  0  0  0  0  0  0  0
   -5.2032    6.0646   15.5982 C   0  0  0  0  0  0  0  0  0  0  0  0
   -5.6212    7.3386   15.2629 C   0  0  0  0  0  0  0  0  0  0  0  0
   -4.7392    8.2168   14.6769 C   0  0  0  0  0  0  0  0  0  0  0  0
   -3.4563    7.7994   14.4394 C   0  0  0  0  0  0  0  0  0  0  0  0
    1.5616    3.4144   10.6165 N   0  0  0  0  0  0  0  0  0  0  0  0
    0.9489    2.1332   10.5484 C   0  0  0  0  0  0  0  0  0  0  0  0
    0.3886    1.7021   11.5832 O   0  0  0  0  0  0  0  0  0  0  0  0
    0.9379    1.2926    9.3366 C   0  0  0  0  0  0  0  0  0  0  0  0
    0.0862    1.9278    8.2944 C   0  0  0  0  0  0  0  0  0  0  0  0
   -0.5864    1.0059    7.4059 N   0  0  0  0  0  0  0  0  0  0  0  0
    0.2123   -0.2179    7.3006 C   0  0  0  0  0  0  0  0  0  0  0  0
   -0.1425   -1.0466    6.1351 C   0  0  0  0  0  0  0  0  0  0  0  0
   -0.5529   -2.4286    6.4555 C   0  0  0  0  0  0  0  0  0  0  0  0
   -0.9611   -3.4577    5.6376 C   0  0  0  0  0  0  0  0  0  0  0  0
   -1.2341   -4.5499    6.4150 N   0  0  0  0  0  0  0  0  0  0  0  0
   -1.0085   -4.2346    7.6991 C   0  0  0  0  0  0  0  0  0  0  0  0
   -1.0845   -4.8521    8.9381 C   0  0  0  0  0  0  0  0  0  0  0  0
   -0.7518   -4.1633   10.0919 C   0  0  0  0  0  0  0  0  0  0  0  0
   -0.3273   -2.8289   10.0756 C   0  0  0  0  0  0  0  0  0  0  0  0
   -0.2602   -2.2397    8.8369 C   0  0  0  0  0  0  0  0  0  0  0  0
   -0.5959   -2.9433    7.7028 C   0  0  0  0  0  0  0  0  0  0  0  0
    0.1647   -0.8471    8.6259 C   0  0  0  0  0  0  0  0  0  0  0  0
    0.5191   -0.1222    9.6651 C   0  0  0  0  0  0  0  0  0  0  0  0
   -0.7323    1.6596    6.1209 C   0  0  0  0  0  0  0  0  0  0  0  0
  1  2  1  0
  2  3  1  0
  3  4  2  0
  3  5  1  0
  5  6  1  0
  6  7  1  0
  7  8  2  0
  7  9  1  0
  9 10  1  0
 10 11  1  0
 11 12  1  0
 12 13  1  0
 13 14  1  0
 14 15  1  0
 14 16  1  0
  6 17  1  0
 17 18  1  0
 18 19  2  0
 19 20  1  0
 20 21  2  0
 21 22  1  0
 22 23  2  0
  2 24  1  0
 24 25  1  0
 25 26  2  0
 25 27  1  0
 27 28  1  0
 28 29  1  0
 29 30  1  0
 30 31  1  0
 31 32  1  0
 32 33  2  0
 33 34  1  0
 34 35  1  0
 35 36  2  0
 36 37  1  0
 37 38  2  0
 38 39  1  0
 39 40  2  0
 39 41  1  0
 41 42  2  0
 29 43  1  0
 15  2  1  0
 14  5  1  0
 13  9  1  0
 23 18  1  0
 42 27  1  0
 41 30  1  0
 40 32  1  0
 40 35  1  0
M  END
$$$$
