
     RDKit          3D

 43 50  0  0  0  0  0  0  0  0999 V2000
   -2.9427    4.5668   12.8637 C   0  0  0  0  0  0  0  0  0  0  0  0
   -1.5583    3.9694   12.8521 C   0  0  0  0  0  0  0  0  0  0  0  0
   -0.9009    4.0631   14.1832 C   0  0  0  0  0  0  0  0  0  0  0  0
   -1.1706    3.4289   15.2370 O   0  0  0  0  0  0  0  0  0  0  0  0
    0.1262    5.0520   13.9991 N   0  0  0  0  0  0  0  0  0  0  0  0
    1.3231    5.3712   14.7696 C   0  0  0  0  0  0  0  0  0  0  0  0
    2.3981    5.9304   13.8984 C   0  0  0  0  0  0  0  0  0  0  0  0
    3.6041    5.7751   14.1759 O   0  0  0  0  0  0  0  0  0  0  0  0
    2.0272    6.6402   12.7517 N   0  0  0  0  0  0  0  0  0  0  0  0
    2.7888    7.5312   11.8579 C   0  0  0  0  0  0  0  0  0  0  0  0
    2.2698    7.1351   10.5161 C   0  0  0  0  0  0  0  0  0  0  0  0
    1.0136    6.3123   10.7371 C   0  0  0  0  0  0  0  0  0  0  0  0
    0.7085    6.6253   12.1859 C   0  0  0  0  0  0  0  0  0  0  0  0
   -0.2777    5.7263   12.8083 C   0  0  0  0  0  0  0  0  0  0  0  0
   -0.6787    4.6543   11.9909 O   0  0  0  0  0  0  0  0  0  0  0  0
   -1.4565    6.4380   13.0728 O   0  0  0  0  0  0  0  0  0  0  0  0
    1.0298    6.3788   15.8262 C   0  0  0  0  0  0  0  0  0  0  0  0
    2.0769    6.6875   16.7720 C   0  0  0  0  0  0  0  0  0  0  0  0
    1.8179    6.7594   18.1207 C   0  0  0  0  0  0  0  0  0  0  0  0
    2.8468    7.0587   19.0305 C   0  0  0  0  0  0  0  0  0  0  0  0
    4.1297    7.2830   18.5681 C   0  0  0  0  0  0  0  0  0  0  0  0
    4.3939    7.2123   17.2198 C   0  0  0  0  0  0  0  0  0  0  0  0
    3.3662    6.9181   16.3633 C   0  0  0  0  0  0  0  0  0  0  0  0
   -1.6758    2.5874   12.5162 N   0  0  0  0  0  0  0  0  0  0  0  0
   -1.2028    2.0166   11.3030 C   0  0  0  0  0  0  0  0  0  0  0  0
   -0.6213    2.7753   10.4925 O   0  0  0  0  0  0  0  0  0  0  0  0
   -1.3585    0.5928   10.9509 C   0  0  0  0  0  0  0  0  0  0  0  0
   -0.5068   -0.2397   11.8436 C   0  0  0  0  0  0  0  0  0  0  0  0
    0.0045   -1.4538   11.2467 N   0  0  0  0  0  0  0  0  0  0  0  0
   -0.9294   -1.9013   10.2101 C   0  0  0  0  0  0  0  0  0  0  0  0
   -0.7400   -3.3107    9.8246 C   0  0  0  0  0  0  0  0  0  0  0  0
   -0.4660   -3.5325    8.3905 C   0  0  0  0  0  0  0  0  0  0  0  0
   -0.2246   -4.6927    7.6902 C   0  0  0  0  0  0  0  0  0  0  0  0
   -0.0271   -4.3741    6.3744 N   0  0  0  0  0  0  0  0  0  0  0  0
   -0.1379   -3.0453    6.2293 C   0  0  0  0  0  0  0  0  0  0  0  0
   -0.0552   -2.1122    5.2072 C   0  0  0  0  0  0  0  0  0  0  0  0
   -0.2389   -0.7645    5.4649 C   0  0  0  0  0  0  0  0  0  0  0  0
   -0.5136   -0.2744    6.7477 C   0  0  0  0  0  0  0  0  0  0  0  0
   -0.5905   -1.2180    7.7426 C   0  0  0  0  0  0  0  0  0  0  0  0
   -0.4043   -2.5526    7.4638 C   0  0  0  0  0  0  0  0  0  0  0  0
   -0.8710   -0.8891    9.1488 C   0  0  0  0  0  0  0  0  0  0  0  0
   -1.0793    0.3664    9.4827 C   0  0  0  0  0  0  0  0  0  0  0  0
    0.1432   -2.4385   12.3006 C   0  0  0  0  0  0  0  0  0  0  0  0
  1  2  1  0
  2  3  1  0
  3  4  2  0
  3  5  1  0
  5  6  1  0
  6  7  1  0
  7  8  2  0
  7  9  1  0
  9 10  1  0
 10 11  1  0
 11 12  1  0
 12 13  1  0
 13 14  1  0
 14 15  1  0
 14 16  1  0
  6 17  1  0
 17 18  1  0
 18 19  2  0
 19 20  1  0
 20 21  2  0
 21 22  1  0
 22 23  2  0
  2 24  1  0
 24 25  1  0
 25 26  2  0
 25 27  1  0
 27 28  1  0
 28 29  1  0
 29 30  1  0
 30 31  1  0
 31 32  1  0
 32 33  2  0
 33 34  1  0
 34 35  1  0
 35 36  2  0
 36 37  1  0
 37 38  2  0
 38 39  1  0
 39 40  2  0
 39 41  1  0
 41 42  2  0
 29 43  1  0
 15  2  1  0
 14  5  1  0
 13  9  1  0
 23 18  1  0
 42 27  1  0
 41 30  1  0
 40 32  1  0
 40 35  1  0
M  END
$$$$
