
     RDKit          3D

 43 50  0  0  0  0  0  0  0  0999 V2000
   -0.5070    5.0782   11.4300 C   0  0  0  0  0  0  0  0  0  0  0  0
    0.2390    3.8203   11.7972 C   0  0  0  0  0  0  0  0  0  0  0  0
   -0.5103    2.9972   12.7841 C   0  0  0  0  0  0  0  0  0  0  0  0
   -1.5620    2.3275   12.6086 O   0  0  0  0  0  0  0  0  0  0  0  0
    0.2422    3.1363   14.0011 N   0  0  0  0  0  0  0  0  0  0  0  0
    0.2653    2.3499   15.2297 C   0  0  0  0  0  0  0  0  0  0  0  0
    1.6027    2.4099   15.8893 C   0  0  0  0  0  0  0  0  0  0  0  0
    2.0256    1.4653   16.5853 O   0  0  0  0  0  0  0  0  0  0  0  0
    2.3841    3.5565   15.7123 N   0  0  0  0  0  0  0  0  0  0  0  0
    3.5809    4.0489   16.4180 C   0  0  0  0  0  0  0  0  0  0  0  0
    4.4037    4.5790   15.2917 C   0  0  0  0  0  0  0  0  0  0  0  0
    3.5010    4.6826   14.0759 C   0  0  0  0  0  0  0  0  0  0  0  0
    2.1343    4.5557   14.7131 C   0  0  0  0  0  0  0  0  0  0  0  0
    1.0411    4.2940   13.7621 C   0  0  0  0  0  0  0  0  0  0  0  0
    1.4656    4.0840   12.4378 O   0  0  0  0  0  0  0  0  0  0  0  0
    0.2004    5.4144   13.6974 O   0  0  0  0  0  0  0  0  0  0  0  0
   -0.7417    2.8488   16.2066 C   0  0  0  0  0  0  0  0  0  0  0  0
   -1.9620    2.0918   16.3622 C   0  0  0  0  0  0  0  0  0  0  0  0
   -1.9719    0.8885   17.0280 C   0  0  0  0  0  0  0  0  0  0  0  0
   -3.1670    0.1630   17.1740 C   0  0  0  0  0  0  0  0  0  0  0  0
   -4.3427    0.6610   16.6449 C   0  0  0  0  0  0  0  0  0  0  0  0
   -4.3379    1.8642   15.9779 C   0  0  0  0  0  0  0  0  0  0  0  0
   -3.1545    2.5431   15.8554 C   0  0  0  0  0  0  0  0  0  0  0  0
    0.4050    3.0427   10.6122 N   0  0  0  0  0  0  0  0  0  0  0  0
    0.0463    1.6716   10.4988 C   0  0  0  0  0  0  0  0  0  0  0  0
   -0.3933    1.1001   11.5239 O   0  0  0  0  0  0  0  0  0  0  0  0
    0.1628    0.8937    9.2512 C   0  0  0  0  0  0  0  0  0  0  0  0
   -0.6707    1.5215    8.1900 C   0  0  0  0  0  0  0  0  0  0  0  0
   -1.2257    0.6021    7.2213 N   0  0  0  0  0  0  0  0  0  0  0  0
   -0.3387   -0.5587    7.1082 C   0  0  0  0  0  0  0  0  0  0  0  0
   -0.5680   -1.3501    5.8867 C   0  0  0  0  0  0  0  0  0  0  0  0
   -0.8983   -2.7707    6.1181 C   0  0  0  0  0  0  0  0  0  0  0  0
   -1.1864   -3.7829    5.2308 C   0  0  0  0  0  0  0  0  0  0  0  0
   -1.4261   -4.9283    5.9396 N   0  0  0  0  0  0  0  0  0  0  0  0
   -1.2963   -4.6630    7.2480 C   0  0  0  0  0  0  0  0  0  0  0  0
   -1.3992   -5.3453    8.4505 C   0  0  0  0  0  0  0  0  0  0  0  0
   -1.1815   -4.6941    9.6526 C   0  0  0  0  0  0  0  0  0  0  0  0
   -0.8511   -3.3351    9.7230 C   0  0  0  0  0  0  0  0  0  0  0  0
   -0.7552   -2.6817    8.5189 C   0  0  0  0  0  0  0  0  0  0  0  0
   -0.9759   -3.3488    7.3357 C   0  0  0  0  0  0  0  0  0  0  0  0
   -0.4173   -1.2550    8.3979 C   0  0  0  0  0  0  0  0  0  0  0  0
   -0.1740   -0.5607    9.4887 C   0  0  0  0  0  0  0  0  0  0  0  0
   -1.3438    1.3077    5.9612 C   0  0  0  0  0  0  0  0  0  0  0  0
  1  2  1  0
  2  3  1  0
  3  4  2  0
  3  5  1  0
  5  6  1  0
  6  7  1  0
  7  8  2  0
  7  9  1  0
  9 10  1  0
 10 11  1  0
 11 12  1  0
 12 13  1  0
 13 14  1  0
 14 15  1  0
 14 16  1  0
  6 17  1  0
 17 18  1  0
 18 19  2  0
 19 20  1  0
 20 21  2  0
 21 22  1  0
 22 23  2  0
  2 24  1  0
 24 25  1  0
 25 26  2  0
 25 27  1  0
 27 28  1  0
 28 29  1  0
 29 30  1  0
 30 31  1  0
 31 32  1  0
 32 33  2  0
 33 34  1  0
 34 35  1  0
 35 36  2  0
 36 37  1  0
 37 38  2  0
 38 39  1  0
 39 40  2  0
 39 41  1  0
 41 42  2  0
 29 43  1  0
 15  2  1  0
 14  5  1  0
 13  9  1  0
 23 18  1  0
 42 27  1  0
 41 30  1  0
 40 32  1  0
 40 35  1  0
M  END
$$$$
