
     RDKit          3D

 19 20  0  0  0  0  0  0  0  0999 V2000
   -1.5320    1.1060   11.7899 C   0  0  0  0  0  0  0  0  0  0  0  0
   -1.0344   -0.3139   11.6244 C   0  0  0  0  0  0  0  0  0  0  0  0
   -0.7975   -0.8895   12.9846 C   0  0  0  0  0  0  0  0  0  0  0  0
    0.0995   -0.4036   10.7515 N   0  0  0  0  0  0  0  0  0  0  0  0
   -0.3578   -0.2331    9.3966 C   0  0  0  0  0  0  0  0  0  0  0  0
    0.7986   -0.4288    8.4012 C   0  0  0  0  0  0  0  0  0  0  0  0
    1.3236   -1.8146    8.6847 C   0  0  0  0  0  0  0  0  0  0  0  0
    2.3657   -2.2334    7.9065 O   0  0  0  0  0  0  0  0  0  0  0  0
    3.5916   -2.7492    8.1839 C   0  0  0  0  0  0  0  0  0  0  0  0
    4.2618   -2.6258    9.3728 C   0  0  0  0  0  0  0  0  0  0  0  0
    5.5105   -3.1960    9.5452 C   0  0  0  0  0  0  0  0  0  0  0  0
    6.1073   -3.8986    8.5308 C   0  0  0  0  0  0  0  0  0  0  0  0
    5.4523   -4.0383    7.3216 C   0  0  0  0  0  0  0  0  0  0  0  0
    6.0487   -4.7494    6.2858 C   0  0  0  0  0  0  0  0  0  0  0  0
    5.4242   -4.9067    5.0715 C   0  0  0  0  0  0  0  0  0  0  0  0
    4.1804   -4.3339    4.9114 C   0  0  0  0  0  0  0  0  0  0  0  0
    3.5907   -3.6286    5.9411 C   0  0  0  0  0  0  0  0  0  0  0  0
    4.2249   -3.4718    7.1668 C   0  0  0  0  0  0  0  0  0  0  0  0
    0.1765   -0.5092    7.1321 O   0  0  0  0  0  0  0  0  0  0  0  0
  1  2  1  0
  2  3  1  0
  2  4  1  0
  4  5  1  0
  5  6  1  0
  6  7  1  0
  7  8  1  0
  8  9  1  0
  9 10  2  0
 10 11  1  0
 11 12  2  0
 12 13  1  0
 13 14  2  0
 14 15  1  0
 15 16  2  0
 16 17  1  0
 17 18  2  0
  6 19  1  0
 18  9  1  0
 18 13  1  0
M  END
$$$$
