
     RDKit          3D

 19 20  0  0  0  0  0  0  0  0999 V2000
   -0.9442    0.7751   11.8688 C   0  0  0  0  0  0  0  0  0  0  0  0
    0.1241   -0.2710   11.6331 C   0  0  0  0  0  0  0  0  0  0  0  0
    0.8236   -0.5277   12.9302 C   0  0  0  0  0  0  0  0  0  0  0  0
    1.0065    0.0735   10.5569 N   0  0  0  0  0  0  0  0  0  0  0  0
    1.2888   -1.1208    9.8032 C   0  0  0  0  0  0  0  0  0  0  0  0
    0.5119   -1.1250    8.4754 C   0  0  0  0  0  0  0  0  0  0  0  0
    1.5531   -1.3986    7.4183 C   0  0  0  0  0  0  0  0  0  0  0  0
    2.5638   -2.2461    7.7751 O   0  0  0  0  0  0  0  0  0  0  0  0
    3.3787   -3.0770    7.0743 C   0  0  0  0  0  0  0  0  0  0  0  0
    3.2369   -3.4105    5.7527 C   0  0  0  0  0  0  0  0  0  0  0  0
    4.1310   -4.2690    5.1383 C   0  0  0  0  0  0  0  0  0  0  0  0
    5.1809   -4.8065    5.8368 C   0  0  0  0  0  0  0  0  0  0  0  0
    5.3469   -4.4858    7.1711 C   0  0  0  0  0  0  0  0  0  0  0  0
    6.4088   -5.0253    7.8890 C   0  0  0  0  0  0  0  0  0  0  0  0
    6.6019   -4.7266    9.2167 C   0  0  0  0  0  0  0  0  0  0  0  0
    5.7045   -3.8702    9.8182 C   0  0  0  0  0  0  0  0  0  0  0  0
    4.6513   -3.3361    9.1033 C   0  0  0  0  0  0  0  0  0  0  0  0
    4.4594   -3.6403    7.7617 C   0  0  0  0  0  0  0  0  0  0  0  0
   -0.2925   -2.2887    8.5282 O   0  0  0  0  0  0  0  0  0  0  0  0
  1  2  1  0
  2  3  1  0
  2  4  1  0
  4  5  1  0
  5  6  1  0
  6  7  1  0
  7  8  1  0
  8  9  1  0
  9 10  2  0
 10 11  1  0
 11 12  2  0
 12 13  1  0
 13 14  2  0
 14 15  1  0
 15 16  2  0
 16 17  1  0
 17 18  2  0
  6 19  1  0
 18  9  1  0
 18 13  1  0
M  END
$$$$
