
     RDKit          3D

 19 20  0  0  0  0  0  0  0  0999 V2000
   -2.3844   -1.7756   10.5628 C   0  0  0  0  0  0  0  0  0  0  0  0
   -0.9986   -2.1566   11.0378 C   0  0  0  0  0  0  0  0  0  0  0  0
   -1.0389   -2.3125   12.5250 C   0  0  0  0  0  0  0  0  0  0  0  0
    0.0119   -1.2499   10.5771 N   0  0  0  0  0  0  0  0  0  0  0  0
    0.2507   -1.5099    9.1809 C   0  0  0  0  0  0  0  0  0  0  0  0
    1.3147   -0.5503    8.6209 C   0  0  0  0  0  0  0  0  0  0  0  0
    2.6287   -1.0885    9.1308 C   0  0  0  0  0  0  0  0  0  0  0  0
    3.2448   -2.0177    8.3409 O   0  0  0  0  0  0  0  0  0  0  0  0
    4.3491   -2.7935    8.4973 C   0  0  0  0  0  0  0  0  0  0  0  0
    5.2022   -2.7652    9.5694 C   0  0  0  0  0  0  0  0  0  0  0  0
    6.3002   -3.6052    9.6240 C   0  0  0  0  0  0  0  0  0  0  0  0
    6.5609   -4.4865    8.6071 C   0  0  0  0  0  0  0  0  0  0  0  0
    5.7156   -4.5354    7.5144 C   0  0  0  0  0  0  0  0  0  0  0  0
    5.9708   -5.4261    6.4772 C   0  0  0  0  0  0  0  0  0  0  0  0
    5.1501   -5.4996    5.3771 C   0  0  0  0  0  0  0  0  0  0  0  0
    4.0593   -4.6576    5.3337 C   0  0  0  0  0  0  0  0  0  0  0  0
    3.8084   -3.7745    6.3645 C   0  0  0  0  0  0  0  0  0  0  0  0
    4.6400   -3.7031    7.4746 C   0  0  0  0  0  0  0  0  0  0  0  0
    1.3211   -0.7885    7.2255 O   0  0  0  0  0  0  0  0  0  0  0  0
  1  2  1  0
  2  3  1  0
  2  4  1  0
  4  5  1  0
  5  6  1  0
  6  7  1  0
  7  8  1  0
  8  9  1  0
  9 10  2  0
 10 11  1  0
 11 12  2  0
 12 13  1  0
 13 14  2  0
 14 15  1  0
 15 16  2  0
 16 17  1  0
 17 18  2  0
  6 19  1  0
 18  9  1  0
 18 13  1  0
M  END
$$$$
