
     RDKit          3D

 19 20  0  0  0  0  0  0  0  0999 V2000
   -1.6172   -0.6620   11.9329 C   0  0  0  0  0  0  0  0  0  0  0  0
   -1.0513   -1.5758   10.8671 C   0  0  0  0  0  0  0  0  0  0  0  0
   -1.1081   -2.9814   11.3757 C   0  0  0  0  0  0  0  0  0  0  0  0
    0.2518   -1.1707   10.4273 N   0  0  0  0  0  0  0  0  0  0  0  0
    0.3836   -1.5065    9.0331 C   0  0  0  0  0  0  0  0  0  0  0  0
    1.3907   -0.5732    8.3394 C   0  0  0  0  0  0  0  0  0  0  0  0
    2.7425   -1.0263    8.8331 C   0  0  0  0  0  0  0  0  0  0  0  0
    3.3899   -1.9443    8.0552 O   0  0  0  0  0  0  0  0  0  0  0  0
    4.4526   -2.7643    8.2647 C   0  0  0  0  0  0  0  0  0  0  0  0
    5.2342   -2.7902    9.3901 C   0  0  0  0  0  0  0  0  0  0  0  0
    6.2950   -3.6721    9.4963 C   0  0  0  0  0  0  0  0  0  0  0  0
    6.5895   -4.5415    8.4784 C   0  0  0  0  0  0  0  0  0  0  0  0
    5.8163   -4.5360    7.3325 C   0  0  0  0  0  0  0  0  0  0  0  0
    6.1063   -5.4142    6.2938 C   0  0  0  0  0  0  0  0  0  0  0  0
    5.3572   -5.4340    5.1415 C   0  0  0  0  0  0  0  0  0  0  0  0
    4.3030   -4.5507    5.0470 C   0  0  0  0  0  0  0  0  0  0  0  0
    4.0173   -3.6801    6.0795 C   0  0  0  0  0  0  0  0  0  0  0  0
    4.7766   -3.6630    7.2424 C   0  0  0  0  0  0  0  0  0  0  0  0
    1.3426   -0.9378    6.9723 O   0  0  0  0  0  0  0  0  0  0  0  0
  1  2  1  0
  2  3  1  0
  2  4  1  0
  4  5  1  0
  5  6  1  0
  6  7  1  0
  7  8  1  0
  8  9  1  0
  9 10  2  0
 10 11  1  0
 11 12  2  0
 12 13  1  0
 13 14  2  0
 14 15  1  0
 15 16  2  0
 16 17  1  0
 17 18  2  0
  6 19  1  0
 18  9  1  0
 18 13  1  0
M  END
$$$$
