
     RDKit          3D

 19 20  0  0  0  0  0  0  0  0999 V2000
   -0.9163    0.9939   11.4192 C   0  0  0  0  0  0  0  0  0  0  0  0
   -0.9156   -0.5084   11.2344 C   0  0  0  0  0  0  0  0  0  0  0  0
   -0.8401   -1.1472   12.5849 C   0  0  0  0  0  0  0  0  0  0  0  0
    0.1003   -0.9526   10.3254 N   0  0  0  0  0  0  0  0  0  0  0  0
   -0.2810   -0.5598    8.9934 C   0  0  0  0  0  0  0  0  0  0  0  0
    0.8525   -0.8469    7.9938 C   0  0  0  0  0  0  0  0  0  0  0  0
    1.4704   -2.1386    8.4692 C   0  0  0  0  0  0  0  0  0  0  0  0
    2.6649   -2.4789    7.8995 O   0  0  0  0  0  0  0  0  0  0  0  0
    3.8106   -3.0244    8.3848 C   0  0  0  0  0  0  0  0  0  0  0  0
    4.2486   -2.9455    9.6809 C   0  0  0  0  0  0  0  0  0  0  0  0
    5.4356   -3.5430   10.0656 C   0  0  0  0  0  0  0  0  0  0  0  0
    6.2021   -4.2289    9.1596 C   0  0  0  0  0  0  0  0  0  0  0  0
    5.7826   -4.3239    7.8459 C   0  0  0  0  0  0  0  0  0  0  0  0
    6.5525   -5.0177    6.9185 C   0  0  0  0  0  0  0  0  0  0  0  0
    6.1636   -5.1307    5.6050 C   0  0  0  0  0  0  0  0  0  0  0  0
    4.9792   -4.5311    5.2333 C   0  0  0  0  0  0  0  0  0  0  0  0
    4.2169   -3.8430    6.1558 C   0  0  0  0  0  0  0  0  0  0  0  0
    4.6132   -3.7310    7.4823 C   0  0  0  0  0  0  0  0  0  0  0  0
    0.1959   -1.1626    6.7800 O   0  0  0  0  0  0  0  0  0  0  0  0
  1  2  1  0
  2  3  1  0
  2  4  1  0
  4  5  1  0
  5  6  1  0
  6  7  1  0
  7  8  1  0
  8  9  1  0
  9 10  2  0
 10 11  1  0
 11 12  2  0
 12 13  1  0
 13 14  2  0
 14 15  1  0
 15 16  2  0
 16 17  1  0
 17 18  2  0
  6 19  1  0
 18  9  1  0
 18 13  1  0
M  END
$$$$
