
     RDKit          3D

 19 20  0  0  0  0  0  0  0  0999 V2000
    4.8516   -3.8378   13.7141 C   0  0  0  0  0  0  0  0  0  0  0  0
    5.2474   -3.1659   12.4168 C   0  0  0  0  0  0  0  0  0  0  0  0
    6.7179   -3.3566   12.2194 C   0  0  0  0  0  0  0  0  0  0  0  0
    4.8267   -1.7968   12.3531 N   0  0  0  0  0  0  0  0  0  0  0  0
    4.6417   -1.4441   10.9692 C   0  0  0  0  0  0  0  0  0  0  0  0
    3.2514   -0.8250   10.7445 C   0  0  0  0  0  0  0  0  0  0  0  0
    3.1315   -0.6747    9.2480 C   0  0  0  0  0  0  0  0  0  0  0  0
    3.6984   -1.6655    8.4970 O   0  0  0  0  0  0  0  0  0  0  0  0
    3.4103   -2.1981    7.2808 C   0  0  0  0  0  0  0  0  0  0  0  0
    2.3592   -1.8391    6.4782 C   0  0  0  0  0  0  0  0  0  0  0  0
    2.1619   -2.4503    5.2528 C   0  0  0  0  0  0  0  0  0  0  0  0
    3.0136   -3.4295    4.8117 C   0  0  0  0  0  0  0  0  0  0  0  0
    4.0821   -3.8098    5.6019 C   0  0  0  0  0  0  0  0  0  0  0  0
    4.9526   -4.8020    5.1638 C   0  0  0  0  0  0  0  0  0  0  0  0
    6.0243   -5.2030    5.9253 C   0  0  0  0  0  0  0  0  0  0  0  0
    6.2106   -4.5871    7.1445 C   0  0  0  0  0  0  0  0  0  0  0  0
    5.3452   -3.6025    7.5770 C   0  0  0  0  0  0  0  0  0  0  0  0
    4.2632   -3.1999    6.8047 C   0  0  0  0  0  0  0  0  0  0  0  0
    2.3370   -1.8457   11.0994 O   0  0  0  0  0  0  0  0  0  0  0  0
  1  2  1  0
  2  3  1  0
  2  4  1  0
  4  5  1  0
  5  6  1  0
  6  7  1  0
  7  8  1  0
  8  9  1  0
  9 10  2  0
 10 11  1  0
 11 12  2  0
 12 13  1  0
 13 14  2  0
 14 15  1  0
 15 16  2  0
 16 17  1  0
 17 18  2  0
  6 19  1  0
 18  9  1  0
 18 13  1  0
M  END
$$$$
