
     RDKit          3D

 19 20  0  0  0  0  0  0  0  0999 V2000
   -0.0699    0.9379   11.7052 C   0  0  0  0  0  0  0  0  0  0  0  0
    1.0067   -0.0756   12.0294 C   0  0  0  0  0  0  0  0  0  0  0  0
    1.6619    0.3299   13.3116 C   0  0  0  0  0  0  0  0  0  0  0  0
    1.9249   -0.2717   10.9460 N   0  0  0  0  0  0  0  0  0  0  0  0
    1.5680   -1.4895   10.2651 C   0  0  0  0  0  0  0  0  0  0  0  0
    0.6398   -1.1972    9.0737 C   0  0  0  0  0  0  0  0  0  0  0  0
    1.4353   -1.5968    7.8555 C   0  0  0  0  0  0  0  0  0  0  0  0
    2.5154   -2.4028    8.0808 O   0  0  0  0  0  0  0  0  0  0  0  0
    3.3547   -3.0917    7.2642 C   0  0  0  0  0  0  0  0  0  0  0  0
    3.2004   -3.2563    5.9125 C   0  0  0  0  0  0  0  0  0  0  0  0
    4.1219   -3.9798    5.1768 C   0  0  0  0  0  0  0  0  0  0  0  0
    5.2120   -4.5491    5.7821 C   0  0  0  0  0  0  0  0  0  0  0  0
    5.3913   -4.3976    7.1444 C   0  0  0  0  0  0  0  0  0  0  0  0
    6.4939   -4.9709    7.7686 C   0  0  0  0  0  0  0  0  0  0  0  0
    6.7013   -4.8390    9.1210 C   0  0  0  0  0  0  0  0  0  0  0  0
    5.7762   -4.1161    9.8437 C   0  0  0  0  0  0  0  0  0  0  0  0
    4.6827   -3.5481    9.2217 C   0  0  0  0  0  0  0  0  0  0  0  0
    4.4765   -3.6836    7.8548 C   0  0  0  0  0  0  0  0  0  0  0  0
   -0.4000   -2.1519    9.1798 O   0  0  0  0  0  0  0  0  0  0  0  0
  1  2  1  0
  2  3  1  0
  2  4  1  0
  4  5  1  0
  5  6  1  0
  6  7  1  0
  7  8  1  0
  8  9  1  0
  9 10  2  0
 10 11  1  0
 11 12  2  0
 12 13  1  0
 13 14  2  0
 14 15  1  0
 15 16  2  0
 16 17  1  0
 17 18  2  0
  6 19  1  0
 18  9  1  0
 18 13  1  0
M  END
$$$$
