
     RDKit          3D

 19 20  0  0  0  0  0  0  0  0999 V2000
   -1.3460    0.3214   12.9603 C   0  0  0  0  0  0  0  0  0  0  0  0
   -0.0002    0.2140   12.2757 C   0  0  0  0  0  0  0  0  0  0  0  0
    0.9131    1.2369   12.8733 C   0  0  0  0  0  0  0  0  0  0  0  0
   -0.0996    0.2894   10.8474 N   0  0  0  0  0  0  0  0  0  0  0  0
   -0.1227   -1.0520   10.3239 C   0  0  0  0  0  0  0  0  0  0  0  0
    0.8163   -1.1817    9.1123 C   0  0  0  0  0  0  0  0  0  0  0  0
    1.9441   -2.0635    9.5887 C   0  0  0  0  0  0  0  0  0  0  0  0
    2.8999   -2.3703    8.6617 O   0  0  0  0  0  0  0  0  0  0  0  0
    4.0516   -3.0895    8.7089 C   0  0  0  0  0  0  0  0  0  0  0  0
    4.8240   -3.2919    9.8226 C   0  0  0  0  0  0  0  0  0  0  0  0
    5.9817   -4.0464    9.7547 C   0  0  0  0  0  0  0  0  0  0  0  0
    6.3837   -4.6102    8.5718 C   0  0  0  0  0  0  0  0  0  0  0  0
    5.6221   -4.4217    7.4337 C   0  0  0  0  0  0  0  0  0  0  0  0
    6.0208   -4.9894    6.2283 C   0  0  0  0  0  0  0  0  0  0  0  0
    5.2862   -4.8211    5.0788 C   0  0  0  0  0  0  0  0  0  0  0  0
    4.1347   -4.0672    5.1586 C   0  0  0  0  0  0  0  0  0  0  0  0
    3.7413   -3.5047    6.3563 C   0  0  0  0  0  0  0  0  0  0  0  0
    4.4863   -3.6771    7.5158 C   0  0  0  0  0  0  0  0  0  0  0  0
    0.0949   -1.9590    8.1745 O   0  0  0  0  0  0  0  0  0  0  0  0
  1  2  1  0
  2  3  1  0
  2  4  1  0
  4  5  1  0
  5  6  1  0
  6  7  1  0
  7  8  1  0
  8  9  1  0
  9 10  2  0
 10 11  1  0
 11 12  2  0
 12 13  1  0
 13 14  2  0
 14 15  1  0
 15 16  2  0
 16 17  1  0
 17 18  2  0
  6 19  1  0
 18  9  1  0
 18 13  1  0
M  END
$$$$
