
     RDKit          3D

 19 20  0  0  0  0  0  0  0  0999 V2000
   -1.0425   -3.2309   11.4386 C   0  0  0  0  0  0  0  0  0  0  0  0
   -0.5620   -1.8167   11.6843 C   0  0  0  0  0  0  0  0  0  0  0  0
   -1.6053   -1.0982   12.4798 C   0  0  0  0  0  0  0  0  0  0  0  0
   -0.1883   -1.1425   10.4754 N   0  0  0  0  0  0  0  0  0  0  0  0
    1.1829   -1.4690   10.1804 C   0  0  0  0  0  0  0  0  0  0  0  0
    1.7387   -0.5492    9.0796 C   0  0  0  0  0  0  0  0  0  0  0  0
    2.0856   -1.4749    7.9398 C   0  0  0  0  0  0  0  0  0  0  0  0
    3.0955   -2.3649    8.1743 O   0  0  0  0  0  0  0  0  0  0  0  0
    3.6968   -3.3181    7.4156 C   0  0  0  0  0  0  0  0  0  0  0  0
    3.2930   -3.7226    6.1701 C   0  0  0  0  0  0  0  0  0  0  0  0
    3.9849   -4.7055    5.4851 C   0  0  0  0  0  0  0  0  0  0  0  0
    5.0915   -5.2981    6.0356 C   0  0  0  0  0  0  0  0  0  0  0  0
    5.5201   -4.9079    7.2905 C   0  0  0  0  0  0  0  0  0  0  0  0
    6.6419   -5.5025    7.8582 C   0  0  0  0  0  0  0  0  0  0  0  0
    7.0940   -5.1373    9.1038 C   0  0  0  0  0  0  0  0  0  0  0  0
    6.3963   -4.1571    9.7769 C   0  0  0  0  0  0  0  0  0  0  0  0
    5.2832   -3.5686    9.2112 C   0  0  0  0  0  0  0  0  0  0  0  0
    4.8294   -3.9402    7.9522 C   0  0  0  0  0  0  0  0  0  0  0  0
    0.6236    0.2012    8.6352 O   0  0  0  0  0  0  0  0  0  0  0  0
  1  2  1  0
  2  3  1  0
  2  4  1  0
  4  5  1  0
  5  6  1  0
  6  7  1  0
  7  8  1  0
  8  9  1  0
  9 10  2  0
 10 11  1  0
 11 12  2  0
 12 13  1  0
 13 14  2  0
 14 15  1  0
 15 16  2  0
 16 17  1  0
 17 18  2  0
  6 19  1  0
 18  9  1  0
 18 13  1  0
M  END
$$$$
