
     RDKit          3D

 19 20  0  0  0  0  0  0  0  0999 V2000
   -1.8647   -0.2335   10.7969 C   0  0  0  0  0  0  0  0  0  0  0  0
   -0.3843    0.0741   10.8675 C   0  0  0  0  0  0  0  0  0  0  0  0
   -0.2205    1.5462   11.0769 C   0  0  0  0  0  0  0  0  0  0  0  0
    0.3400   -0.4352    9.7399 N   0  0  0  0  0  0  0  0  0  0  0  0
    1.5543   -1.0433   10.2191 C   0  0  0  0  0  0  0  0  0  0  0  0
    1.3836   -2.5655   10.3612 C   0  0  0  0  0  0  0  0  0  0  0  0
    2.7898   -3.1098   10.4145 C   0  0  0  0  0  0  0  0  0  0  0  0
    3.4144   -3.2802    9.2113 O   0  0  0  0  0  0  0  0  0  0  0  0
    4.6321   -3.7622    8.8497 C   0  0  0  0  0  0  0  0  0  0  0  0
    5.6978   -3.9562    9.6892 C   0  0  0  0  0  0  0  0  0  0  0  0
    6.8956   -4.4561    9.2102 C   0  0  0  0  0  0  0  0  0  0  0  0
    7.0452   -4.7699    7.8843 C   0  0  0  0  0  0  0  0  0  0  0  0
    5.9854   -4.5841    7.0165 C   0  0  0  0  0  0  0  0  0  0  0  0
    6.1262   -4.8995    5.6694 C   0  0  0  0  0  0  0  0  0  0  0  0
    5.0921   -4.7266    4.7806 C   0  0  0  0  0  0  0  0  0  0  0  0
    3.9036   -4.2276    5.2693 C   0  0  0  0  0  0  0  0  0  0  0  0
    3.7664   -3.9153    6.6068 C   0  0  0  0  0  0  0  0  0  0  0  0
    4.8137   -4.0914    7.5020 C   0  0  0  0  0  0  0  0  0  0  0  0
    0.8532   -2.7524   11.6603 O   0  0  0  0  0  0  0  0  0  0  0  0
  1  2  1  0
  2  3  1  0
  2  4  1  0
  4  5  1  0
  5  6  1  0
  6  7  1  0
  7  8  1  0
  8  9  1  0
  9 10  2  0
 10 11  1  0
 11 12  2  0
 12 13  1  0
 13 14  2  0
 14 15  1  0
 15 16  2  0
 16 17  1  0
 17 18  2  0
  6 19  1  0
 18  9  1  0
 18 13  1  0
M  END
$$$$
