
     RDKit          3D

 19 20  0  0  0  0  0  0  0  0999 V2000
   -1.0839    0.9973   11.2204 C   0  0  0  0  0  0  0  0  0  0  0  0
   -0.6816   -0.3985   11.6459 C   0  0  0  0  0  0  0  0  0  0  0  0
   -1.7435   -0.9373   12.5513 C   0  0  0  0  0  0  0  0  0  0  0  0
    0.6371   -0.4466   12.2062 N   0  0  0  0  0  0  0  0  0  0  0  0
    1.5820   -0.1256   11.1678 C   0  0  0  0  0  0  0  0  0  0  0  0
    2.5079   -1.3208   10.8834 C   0  0  0  0  0  0  0  0  0  0  0  0
    2.2141   -1.7071    9.4549 C   0  0  0  0  0  0  0  0  0  0  0  0
    3.2570   -2.2374    8.7490 O   0  0  0  0  0  0  0  0  0  0  0  0
    3.3676   -2.7753    7.5063 C   0  0  0  0  0  0  0  0  0  0  0  0
    2.4785   -2.6041    6.4778 C   0  0  0  0  0  0  0  0  0  0  0  0
    2.6934   -3.2009    5.2482 C   0  0  0  0  0  0  0  0  0  0  0  0
    3.8013   -3.9776    5.0291 C   0  0  0  0  0  0  0  0  0  0  0  0
    4.7141   -4.1659    6.0500 C   0  0  0  0  0  0  0  0  0  0  0  0
    5.8418   -4.9518    5.8383 C   0  0  0  0  0  0  0  0  0  0  0  0
    6.7683   -5.1588    6.8322 C   0  0  0  0  0  0  0  0  0  0  0  0
    6.5434   -4.5593    8.0532 C   0  0  0  0  0  0  0  0  0  0  0  0
    5.4233   -3.7797    8.2606 C   0  0  0  0  0  0  0  0  0  0  0  0
    4.4892   -3.5728    7.2537 C   0  0  0  0  0  0  0  0  0  0  0  0
    3.8137   -0.7742   10.8696 O   0  0  0  0  0  0  0  0  0  0  0  0
  1  2  1  0
  2  3  1  0
  2  4  1  0
  4  5  1  0
  5  6  1  0
  6  7  1  0
  7  8  1  0
  8  9  1  0
  9 10  2  0
 10 11  1  0
 11 12  2  0
 12 13  1  0
 13 14  2  0
 14 15  1  0
 15 16  2  0
 16 17  1  0
 17 18  2  0
  6 19  1  0
 18  9  1  0
 18 13  1  0
M  END
$$$$
