
     RDKit          3D

 19 20  0  0  0  0  0  0  0  0999 V2000
   -1.5469   -2.2316   12.3309 C   0  0  0  0  0  0  0  0  0  0  0  0
   -0.7546   -1.0258   11.8733 C   0  0  0  0  0  0  0  0  0  0  0  0
   -1.6430   -0.1769   11.0203 C   0  0  0  0  0  0  0  0  0  0  0  0
    0.4829   -1.3843   11.2443 N   0  0  0  0  0  0  0  0  0  0  0  0
    1.3583   -0.2415   11.2836 C   0  0  0  0  0  0  0  0  0  0  0  0
    2.7058   -0.5624   10.6144 C   0  0  0  0  0  0  0  0  0  0  0  0
    2.3441   -1.0849    9.2460 C   0  0  0  0  0  0  0  0  0  0  0  0
    3.2594   -1.9106    8.6566 O   0  0  0  0  0  0  0  0  0  0  0  0
    3.3152   -2.5362    7.4519 C   0  0  0  0  0  0  0  0  0  0  0  0
    2.4338   -2.3613    6.4173 C   0  0  0  0  0  0  0  0  0  0  0  0
    2.5889   -3.0531    5.2293 C   0  0  0  0  0  0  0  0  0  0  0  0
    3.6285   -3.9299    5.0582 C   0  0  0  0  0  0  0  0  0  0  0  0
    4.5320   -4.1243    6.0862 C   0  0  0  0  0  0  0  0  0  0  0  0
    5.5906   -5.0114    5.9231 C   0  0  0  0  0  0  0  0  0  0  0  0
    6.5060   -5.2272    6.9254 C   0  0  0  0  0  0  0  0  0  0  0  0
    6.3411   -4.5325    8.1047 C   0  0  0  0  0  0  0  0  0  0  0  0
    5.2896   -3.6526    8.2640 C   0  0  0  0  0  0  0  0  0  0  0  0
    4.3664   -3.4371    7.2488 C   0  0  0  0  0  0  0  0  0  0  0  0
    3.3114    0.6979   10.3933 O   0  0  0  0  0  0  0  0  0  0  0  0
  1  2  1  0
  2  3  1  0
  2  4  1  0
  4  5  1  0
  5  6  1  0
  6  7  1  0
  7  8  1  0
  8  9  1  0
  9 10  2  0
 10 11  1  0
 11 12  2  0
 12 13  1  0
 13 14  2  0
 14 15  1  0
 15 16  2  0
 16 17  1  0
 17 18  2  0
  6 19  1  0
 18  9  1  0
 18 13  1  0
M  END
$$$$
