
     RDKit          3D

 19 20  0  0  0  0  0  0  0  0999 V2000
   -1.1905   -0.6917   11.4800 C   0  0  0  0  0  0  0  0  0  0  0  0
   -0.5602   -1.7233   10.5691 C   0  0  0  0  0  0  0  0  0  0  0  0
    0.7157   -2.1869   11.1974 C   0  0  0  0  0  0  0  0  0  0  0  0
   -0.4061   -1.2518    9.2239 N   0  0  0  0  0  0  0  0  0  0  0  0
    0.7733   -1.8594    8.6637 C   0  0  0  0  0  0  0  0  0  0  0  0
    1.2970   -1.0390    7.4724 C   0  0  0  0  0  0  0  0  0  0  0  0
    2.1008   -2.0171    6.6518 C   0  0  0  0  0  0  0  0  0  0  0  0
    3.2025   -2.5493    7.2601 O   0  0  0  0  0  0  0  0  0  0  0  0
    4.1440   -3.4476    6.8697 C   0  0  0  0  0  0  0  0  0  0  0  0
    4.2250   -4.0370    5.6352 C   0  0  0  0  0  0  0  0  0  0  0  0
    5.2316   -4.9409    5.3459 C   0  0  0  0  0  0  0  0  0  0  0  0
    6.1728   -5.2683    6.2871 C   0  0  0  0  0  0  0  0  0  0  0  0
    6.1140   -4.6874    7.5401 C   0  0  0  0  0  0  0  0  0  0  0  0
    7.0640   -5.0123    8.5024 C   0  0  0  0  0  0  0  0  0  0  0  0
    7.0338   -4.4527    9.7574 C   0  0  0  0  0  0  0  0  0  0  0  0
    6.0260   -3.5536   10.0342 C   0  0  0  0  0  0  0  0  0  0  0  0
    5.0843   -3.2329    9.0773 C   0  0  0  0  0  0  0  0  0  0  0  0
    5.1181   -3.8005    7.8101 C   0  0  0  0  0  0  0  0  0  0  0  0
    0.1480   -0.7465    6.6989 O   0  0  0  0  0  0  0  0  0  0  0  0
  1  2  1  0
  2  3  1  0
  2  4  1  0
  4  5  1  0
  5  6  1  0
  6  7  1  0
  7  8  1  0
  8  9  1  0
  9 10  2  0
 10 11  1  0
 11 12  2  0
 12 13  1  0
 13 14  2  0
 14 15  1  0
 15 16  2  0
 16 17  1  0
 17 18  2  0
  6 19  1  0
 18  9  1  0
 18 13  1  0
M  END
$$$$
