
     RDKit          3D

 19 20  0  0  0  0  0  0  0  0999 V2000
   -1.5197   -0.8667   11.6911 C   0  0  0  0  0  0  0  0  0  0  0  0
   -0.0447   -0.9692   11.3669 C   0  0  0  0  0  0  0  0  0  0  0  0
    0.7293   -0.4268   12.5264 C   0  0  0  0  0  0  0  0  0  0  0  0
    0.2886   -0.3611   10.1121 N   0  0  0  0  0  0  0  0  0  0  0  0
    0.7513   -1.3914    9.2186 C   0  0  0  0  0  0  0  0  0  0  0  0
    1.2003   -0.7891    7.8762 C   0  0  0  0  0  0  0  0  0  0  0  0
    1.8039   -1.9440    7.1158 C   0  0  0  0  0  0  0  0  0  0  0  0
    3.0409   -2.3535    7.5271 O   0  0  0  0  0  0  0  0  0  0  0  0
    3.9426   -3.2432    7.0359 C   0  0  0  0  0  0  0  0  0  0  0  0
    3.9036   -3.8192    5.7931 C   0  0  0  0  0  0  0  0  0  0  0  0
    4.8802   -4.7152    5.3961 C   0  0  0  0  0  0  0  0  0  0  0  0
    5.9107   -5.0480    6.2364 C   0  0  0  0  0  0  0  0  0  0  0  0
    5.9736   -4.4807    7.4953 C   0  0  0  0  0  0  0  0  0  0  0  0
    7.0151   -4.8112    8.3558 C   0  0  0  0  0  0  0  0  0  0  0  0
    7.1067   -4.2649    9.6137 C   0  0  0  0  0  0  0  0  0  0  0  0
    6.1278   -3.3736    9.9983 C   0  0  0  0  0  0  0  0  0  0  0  0
    5.0951   -3.0472    9.1424 C   0  0  0  0  0  0  0  0  0  0  0  0
    5.0060   -3.6014    7.8718 C   0  0  0  0  0  0  0  0  0  0  0  0
   -0.0020   -0.4736    7.1987 O   0  0  0  0  0  0  0  0  0  0  0  0
  1  2  1  0
  2  3  1  0
  2  4  1  0
  4  5  1  0
  5  6  1  0
  6  7  1  0
  7  8  1  0
  8  9  1  0
  9 10  2  0
 10 11  1  0
 11 12  2  0
 12 13  1  0
 13 14  2  0
 14 15  1  0
 15 16  2  0
 16 17  1  0
 17 18  2  0
  6 19  1  0
 18  9  1  0
 18 13  1  0
M  END
$$$$
