
     RDKit          3D

 19 20  0  0  0  0  0  0  0  0999 V2000
    1.0626    0.9373   12.3868 C   0  0  0  0  0  0  0  0  0  0  0  0
    1.7648   -0.1860   11.6545 C   0  0  0  0  0  0  0  0  0  0  0  0
    3.1943   -0.2112   12.0941 C   0  0  0  0  0  0  0  0  0  0  0  0
    1.5968   -0.1085   10.2328 N   0  0  0  0  0  0  0  0  0  0  0  0
    0.8635   -1.2698    9.7996 C   0  0  0  0  0  0  0  0  0  0  0  0
    0.6890   -1.2669    8.2712 C   0  0  0  0  0  0  0  0  0  0  0  0
    2.0936   -1.2948    7.7209 C   0  0  0  0  0  0  0  0  0  0  0  0
    2.7796   -2.4653    7.8832 O   0  0  0  0  0  0  0  0  0  0  0  0
    3.6752   -3.1386    7.1149 C   0  0  0  0  0  0  0  0  0  0  0  0
    3.5920   -3.3171    5.7587 C   0  0  0  0  0  0  0  0  0  0  0  0
    4.5667   -4.0222    5.0754 C   0  0  0  0  0  0  0  0  0  0  0  0
    5.6396   -4.5590    5.7386 C   0  0  0  0  0  0  0  0  0  0  0  0
    5.7475   -4.3928    7.1066 C   0  0  0  0  0  0  0  0  0  0  0  0
    6.8321   -4.9330    7.7893 C   0  0  0  0  0  0  0  0  0  0  0  0
    6.9690   -4.7858    9.1490 C   0  0  0  0  0  0  0  0  0  0  0  0
    5.9915   -4.0814    9.8191 C   0  0  0  0  0  0  0  0  0  0  0  0
    4.9160   -3.5463    9.1392 C   0  0  0  0  0  0  0  0  0  0  0  0
    4.7811   -3.6972    7.7650 C   0  0  0  0  0  0  0  0  0  0  0  0
    0.1349   -2.5333    7.9659 O   0  0  0  0  0  0  0  0  0  0  0  0
  1  2  1  0
  2  3  1  0
  2  4  1  0
  4  5  1  0
  5  6  1  0
  6  7  1  0
  7  8  1  0
  8  9  1  0
  9 10  2  0
 10 11  1  0
 11 12  2  0
 12 13  1  0
 13 14  2  0
 14 15  1  0
 15 16  2  0
 16 17  1  0
 17 18  2  0
  6 19  1  0
 18  9  1  0
 18 13  1  0
M  END
$$$$
