
     RDKit          3D

 19 20  0  0  0  0  0  0  0  0999 V2000
    0.0269    1.7998   10.6201 C   0  0  0  0  0  0  0  0  0  0  0  0
   -0.0924    0.6402    9.6546 C   0  0  0  0  0  0  0  0  0  0  0  0
   -1.1080    0.9971    8.6160 C   0  0  0  0  0  0  0  0  0  0  0  0
   -0.3526   -0.6048   10.3162 N   0  0  0  0  0  0  0  0  0  0  0  0
    0.9078   -1.1831   10.7047 C   0  0  0  0  0  0  0  0  0  0  0  0
    0.8492   -2.7186   10.6341 C   0  0  0  0  0  0  0  0  0  0  0  0
    1.3253   -3.0611    9.2440 C   0  0  0  0  0  0  0  0  0  0  0  0
    2.6474   -3.3845    9.1241 O   0  0  0  0  0  0  0  0  0  0  0  0
    3.4253   -3.7676    8.0782 C   0  0  0  0  0  0  0  0  0  0  0  0
    3.0092   -3.9077    6.7801 C   0  0  0  0  0  0  0  0  0  0  0  0
    3.8922   -4.3041    5.7915 C   0  0  0  0  0  0  0  0  0  0  0  0
    5.2049   -4.5657    6.0867 C   0  0  0  0  0  0  0  0  0  0  0  0
    5.6504   -4.4314    7.3883 C   0  0  0  0  0  0  0  0  0  0  0  0
    6.9804   -4.6940    7.6987 C   0  0  0  0  0  0  0  0  0  0  0  0
    7.4550   -4.5699    8.9827 C   0  0  0  0  0  0  0  0  0  0  0  0
    6.5659   -4.1746    9.9593 C   0  0  0  0  0  0  0  0  0  0  0  0
    5.2463   -3.9145    9.6486 C   0  0  0  0  0  0  0  0  0  0  0  0
    4.7704   -4.0410    8.3498 C   0  0  0  0  0  0  0  0  0  0  0  0
    1.8714   -3.1623   11.5072 O   0  0  0  0  0  0  0  0  0  0  0  0
  1  2  1  0
  2  3  1  0
  2  4  1  0
  4  5  1  0
  5  6  1  0
  6  7  1  0
  7  8  1  0
  8  9  1  0
  9 10  2  0
 10 11  1  0
 11 12  2  0
 12 13  1  0
 13 14  2  0
 14 15  1  0
 15 16  2  0
 16 17  1  0
 17 18  2  0
  6 19  1  0
 18  9  1  0
 18 13  1  0
M  END
$$$$
