
     RDKit          3D

 19 20  0  0  0  0  0  0  0  0999 V2000
   -0.2157    0.3053   10.9604 C   0  0  0  0  0  0  0  0  0  0  0  0
    0.8942   -0.4866   10.3030 C   0  0  0  0  0  0  0  0  0  0  0  0
    0.4881   -0.7830    8.8941 C   0  0  0  0  0  0  0  0  0  0  0  0
    1.2644   -1.6489   11.0563 N   0  0  0  0  0  0  0  0  0  0  0  0
    2.7016   -1.6995   11.1334 C   0  0  0  0  0  0  0  0  0  0  0  0
    3.1715   -3.0567   11.6843 C   0  0  0  0  0  0  0  0  0  0  0  0
    4.3528   -3.4355   10.8255 C   0  0  0  0  0  0  0  0  0  0  0  0
    4.1100   -3.5492    9.4857 O   0  0  0  0  0  0  0  0  0  0  0  0
    4.8535   -3.9813    8.4340 C   0  0  0  0  0  0  0  0  0  0  0  0
    6.1368   -4.4573    8.5026 C   0  0  0  0  0  0  0  0  0  0  0  0
    6.8004   -4.8734    7.3622 C   0  0  0  0  0  0  0  0  0  0  0  0
    6.1900   -4.8201    6.1360 C   0  0  0  0  0  0  0  0  0  0  0  0
    4.8957   -4.3446    6.0394 C   0  0  0  0  0  0  0  0  0  0  0  0
    4.2669   -4.2865    4.8003 C   0  0  0  0  0  0  0  0  0  0  0  0
    2.9809   -3.8191    4.6701 C   0  0  0  0  0  0  0  0  0  0  0  0
    2.3298   -3.4070    5.8133 C   0  0  0  0  0  0  0  0  0  0  0  0
    2.9562   -3.4657    7.0419 C   0  0  0  0  0  0  0  0  0  0  0  0
    4.2559   -3.9387    7.1696 C   0  0  0  0  0  0  0  0  0  0  0  0
    3.7071   -2.7650   12.9619 O   0  0  0  0  0  0  0  0  0  0  0  0
  1  2  1  0
  2  3  1  0
  2  4  1  0
  4  5  1  0
  5  6  1  0
  6  7  1  0
  7  8  1  0
  8  9  1  0
  9 10  2  0
 10 11  1  0
 11 12  2  0
 12 13  1  0
 13 14  2  0
 14 15  1  0
 15 16  2  0
 16 17  1  0
 17 18  2  0
  6 19  1  0
 18  9  1  0
 18 13  1  0
M  END
$$$$
