
     RDKit          3D

 19 20  0  0  0  0  0  0  0  0999 V2000
    4.5545   -5.3893    6.2397 C   0  0  0  0  0  0  0  0  0  0  0  0
    3.9405   -4.2294    5.4855 C   0  0  0  0  0  0  0  0  0  0  0  0
    4.7772   -3.9616    4.2747 C   0  0  0  0  0  0  0  0  0  0  0  0
    3.7356   -3.0779    6.3148 N   0  0  0  0  0  0  0  0  0  0  0  0
    2.5401   -3.2858    7.0904 C   0  0  0  0  0  0  0  0  0  0  0  0
    1.8583   -1.9451    7.4130 C   0  0  0  0  0  0  0  0  0  0  0  0
    2.0131   -1.7807    8.9048 C   0  0  0  0  0  0  0  0  0  0  0  0
    3.2953   -1.7457    9.3758 O   0  0  0  0  0  0  0  0  0  0  0  0
    3.8335   -1.5618   10.6096 C   0  0  0  0  0  0  0  0  0  0  0  0
    3.3253   -0.7533   11.5924 C   0  0  0  0  0  0  0  0  0  0  0  0
    3.9588   -0.6426   12.8173 C   0  0  0  0  0  0  0  0  0  0  0  0
    5.1100   -1.3395   13.0776 C   0  0  0  0  0  0  0  0  0  0  0  0
    5.6433   -2.1625   12.1034 C   0  0  0  0  0  0  0  0  0  0  0  0
    6.8108   -2.8744   12.3571 C   0  0  0  0  0  0  0  0  0  0  0  0
    7.3667   -3.7010   11.4101 C   0  0  0  0  0  0  0  0  0  0  0  0
    6.7267   -3.8031   10.1933 C   0  0  0  0  0  0  0  0  0  0  0  0
    5.5680   -3.0955    9.9440 C   0  0  0  0  0  0  0  0  0  0  0  0
    5.0093   -2.2611   10.9036 C   0  0  0  0  0  0  0  0  0  0  0  0
    2.6955   -0.9622    6.8324 O   0  0  0  0  0  0  0  0  0  0  0  0
  1  2  1  0
  2  3  1  0
  2  4  1  0
  4  5  1  0
  5  6  1  0
  6  7  1  0
  7  8  1  0
  8  9  1  0
  9 10  2  0
 10 11  1  0
 11 12  2  0
 12 13  1  0
 13 14  2  0
 14 15  1  0
 15 16  2  0
 16 17  1  0
 17 18  2  0
  6 19  1  0
 18  9  1  0
 18 13  1  0
M  END
$$$$
