
     RDKit          3D

 19 20  0  0  0  0  0  0  0  0999 V2000
    0.9720    0.6365   13.8309 C   0  0  0  0  0  0  0  0  0  0  0  0
    0.5756    0.8397   12.3843 C   0  0  0  0  0  0  0  0  0  0  0  0
   -0.5376    1.8378   12.3387 C   0  0  0  0  0  0  0  0  0  0  0  0
    0.2771   -0.3926   11.7151 N   0  0  0  0  0  0  0  0  0  0  0  0
    1.0201   -0.4294   10.4819 C   0  0  0  0  0  0  0  0  0  0  0  0
    0.6173   -1.6509    9.6380 C   0  0  0  0  0  0  0  0  0  0  0  0
    1.4549   -1.5507    8.3871 C   0  0  0  0  0  0  0  0  0  0  0  0
    2.6111   -2.2789    8.3780 O   0  0  0  0  0  0  0  0  0  0  0  0
    3.2624   -2.9876    7.4191 C   0  0  0  0  0  0  0  0  0  0  0  0
    2.8545   -3.1390    6.1197 C   0  0  0  0  0  0  0  0  0  0  0  0
    3.6006   -3.8854    5.2249 C   0  0  0  0  0  0  0  0  0  0  0  0
    4.7661   -4.4911    5.6167 C   0  0  0  0  0  0  0  0  0  0  0  0
    5.2000   -4.3536    6.9220 C   0  0  0  0  0  0  0  0  0  0  0  0
    6.3813   -4.9637    7.3299 C   0  0  0  0  0  0  0  0  0  0  0  0
    6.8403   -4.8465    8.6202 C   0  0  0  0  0  0  0  0  0  0  0  0
    6.0885   -4.1006    9.5028 C   0  0  0  0  0  0  0  0  0  0  0  0
    4.9163   -3.4961    9.0953 C   0  0  0  0  0  0  0  0  0  0  0  0
    4.4557   -3.6168    7.7905 C   0  0  0  0  0  0  0  0  0  0  0  0
    1.1238   -2.7663   10.3474 O   0  0  0  0  0  0  0  0  0  0  0  0
  1  2  1  0
  2  3  1  0
  2  4  1  0
  4  5  1  0
  5  6  1  0
  6  7  1  0
  7  8  1  0
  8  9  1  0
  9 10  2  0
 10 11  1  0
 11 12  2  0
 12 13  1  0
 13 14  2  0
 14 15  1  0
 15 16  2  0
 16 17  1  0
 17 18  2  0
  6 19  1  0
 18  9  1  0
 18 13  1  0
M  END
$$$$
