
     RDKit          3D

 19 20  0  0  0  0  0  0  0  0999 V2000
   -1.4298   -2.6647   10.1834 C   0  0  0  0  0  0  0  0  0  0  0  0
   -0.8565   -1.6499   11.1491 C   0  0  0  0  0  0  0  0  0  0  0  0
   -1.9918   -0.8983   11.7686 C   0  0  0  0  0  0  0  0  0  0  0  0
    0.1335   -0.8085   10.5430 N   0  0  0  0  0  0  0  0  0  0  0  0
    1.3850   -1.5210   10.5274 C   0  0  0  0  0  0  0  0  0  0  0  0
    2.4743   -0.6961    9.8208 C   0  0  0  0  0  0  0  0  0  0  0  0
    3.7390   -1.5022    9.9859 C   0  0  0  0  0  0  0  0  0  0  0  0
    4.0844   -2.3011    8.9326 O   0  0  0  0  0  0  0  0  0  0  0  0
    5.0823   -3.2002    8.7288 C   0  0  0  0  0  0  0  0  0  0  0  0
    6.0708   -3.5158    9.6239 C   0  0  0  0  0  0  0  0  0  0  0  0
    7.0396   -4.4520    9.3092 C   0  0  0  0  0  0  0  0  0  0  0  0
    7.0339   -5.0868    8.0944 C   0  0  0  0  0  0  0  0  0  0  0  0
    6.0474   -4.7869    7.1736 C   0  0  0  0  0  0  0  0  0  0  0  0
    6.0321   -5.4254    5.9382 C   0  0  0  0  0  0  0  0  0  0  0  0
    5.0653   -5.1500    5.0007 C   0  0  0  0  0  0  0  0  0  0  0  0
    4.1053   -4.2153    5.3255 C   0  0  0  0  0  0  0  0  0  0  0  0
    4.1229   -3.5831    6.5524 C   0  0  0  0  0  0  0  0  0  0  0  0
    5.1015   -3.8640    7.4972 C   0  0  0  0  0  0  0  0  0  0  0  0
    2.1519   -0.7707    8.4444 O   0  0  0  0  0  0  0  0  0  0  0  0
  1  2  1  0
  2  3  1  0
  2  4  1  0
  4  5  1  0
  5  6  1  0
  6  7  1  0
  7  8  1  0
  8  9  1  0
  9 10  2  0
 10 11  1  0
 11 12  2  0
 12 13  1  0
 13 14  2  0
 14 15  1  0
 15 16  2  0
 16 17  1  0
 17 18  2  0
  6 19  1  0
 18  9  1  0
 18 13  1  0
M  END
$$$$
