
     RDKit          3D

 19 20  0  0  0  0  0  0  0  0999 V2000
    4.6215   -5.2822    7.6343 C   0  0  0  0  0  0  0  0  0  0  0  0
    4.4430   -4.2086    6.5822 C   0  0  0  0  0  0  0  0  0  0  0  0
    5.3195   -4.5433    5.4171 C   0  0  0  0  0  0  0  0  0  0  0  0
    4.6474   -2.8878    7.1008 N   0  0  0  0  0  0  0  0  0  0  0  0
    3.3810   -2.2020    7.1046 C   0  0  0  0  0  0  0  0  0  0  0  0
    2.3463   -2.9705    7.9443 C   0  0  0  0  0  0  0  0  0  0  0  0
    1.4897   -1.9015    8.5768 C   0  0  0  0  0  0  0  0  0  0  0  0
    1.9059   -1.4393    9.7934 O   0  0  0  0  0  0  0  0  0  0  0  0
    1.3966   -0.5416   10.6768 C   0  0  0  0  0  0  0  0  0  0  0  0
    0.1956    0.1072   10.5563 C   0  0  0  0  0  0  0  0  0  0  0  0
   -0.2255    1.0042   11.5218 C   0  0  0  0  0  0  0  0  0  0  0  0
    0.5484    1.2652   12.6227 C   0  0  0  0  0  0  0  0  0  0  0  0
    1.7641    0.6236   12.7684 C   0  0  0  0  0  0  0  0  0  0  0  0
    2.5571    0.8809   13.8816 C   0  0  0  0  0  0  0  0  0  0  0  0
    3.7707    0.2598   14.0564 C   0  0  0  0  0  0  0  0  0  0  0  0
    4.1799   -0.6317   13.0877 C   0  0  0  0  0  0  0  0  0  0  0  0
    3.3910   -0.8853   11.9838 C   0  0  0  0  0  0  0  0  0  0  0  0
    2.1651   -0.2557   11.8106 C   0  0  0  0  0  0  0  0  0  0  0  0
    1.5146   -3.6143    6.9968 O   0  0  0  0  0  0  0  0  0  0  0  0
  1  2  1  0
  2  3  1  0
  2  4  1  0
  4  5  1  0
  5  6  1  0
  6  7  1  0
  7  8  1  0
  8  9  1  0
  9 10  2  0
 10 11  1  0
 11 12  2  0
 12 13  1  0
 13 14  2  0
 14 15  1  0
 15 16  2  0
 16 17  1  0
 17 18  2  0
  6 19  1  0
 18  9  1  0
 18 13  1  0
M  END
$$$$
