
     RDKit          3D

 19 20  0  0  0  0  0  0  0  0999 V2000
   -2.1405   -0.2507   11.8262 C   0  0  0  0  0  0  0  0  0  0  0  0
   -1.4546   -1.3267   11.0120 C   0  0  0  0  0  0  0  0  0  0  0  0
   -1.8071   -2.6563   11.6000 C   0  0  0  0  0  0  0  0  0  0  0  0
   -0.0440   -1.1060   10.8819 N   0  0  0  0  0  0  0  0  0  0  0  0
    0.3686   -1.5696    9.5823 C   0  0  0  0  0  0  0  0  0  0  0  0
    1.5257   -0.7137    9.0391 C   0  0  0  0  0  0  0  0  0  0  0  0
    2.7764   -1.4680    9.4174 C   0  0  0  0  0  0  0  0  0  0  0  0
    3.1671   -2.4544    8.5564 O   0  0  0  0  0  0  0  0  0  0  0  0
    4.1580   -3.3834    8.5862 C   0  0  0  0  0  0  0  0  0  0  0  0
    4.9995   -3.6227    9.6410 C   0  0  0  0  0  0  0  0  0  0  0  0
    5.9764   -4.5991    9.5610 C   0  0  0  0  0  0  0  0  0  0  0  0
    6.1257   -5.3512    8.4248 C   0  0  0  0  0  0  0  0  0  0  0  0
    5.2893   -5.1301    7.3467 C   0  0  0  0  0  0  0  0  0  0  0  0
    5.4320   -5.8877    6.1891 C   0  0  0  0  0  0  0  0  0  0  0  0
    4.6168   -5.6929    5.0997 C   0  0  0  0  0  0  0  0  0  0  0  0
    3.6472   -4.7171    5.1910 C   0  0  0  0  0  0  0  0  0  0  0  0
    3.5077   -3.9666    6.3411 C   0  0  0  0  0  0  0  0  0  0  0  0
    4.3335   -4.1663    7.4399 C   0  0  0  0  0  0  0  0  0  0  0  0
    1.4275   -0.8206    7.6309 O   0  0  0  0  0  0  0  0  0  0  0  0
  1  2  1  0
  2  3  1  0
  2  4  1  0
  4  5  1  0
  5  6  1  0
  6  7  1  0
  7  8  1  0
  8  9  1  0
  9 10  2  0
 10 11  1  0
 11 12  2  0
 12 13  1  0
 13 14  2  0
 14 15  1  0
 15 16  2  0
 16 17  1  0
 17 18  2  0
  6 19  1  0
 18  9  1  0
 18 13  1  0
M  END
$$$$
