
     RDKit          3D

 19 20  0  0  0  0  0  0  0  0999 V2000
   -0.9835    1.2986   11.7889 C   0  0  0  0  0  0  0  0  0  0  0  0
   -0.7685   -0.1919   11.9422 C   0  0  0  0  0  0  0  0  0  0  0  0
   -0.6630   -0.5030   13.4015 C   0  0  0  0  0  0  0  0  0  0  0  0
    0.3363   -0.6732   11.1655 N   0  0  0  0  0  0  0  0  0  0  0  0
   -0.1344   -0.9522    9.8334 C   0  0  0  0  0  0  0  0  0  0  0  0
    1.0320   -0.9498    8.8303 C   0  0  0  0  0  0  0  0  0  0  0  0
    1.9700   -2.0234    9.3242 C   0  0  0  0  0  0  0  0  0  0  0  0
    2.9045   -2.4631    8.4297 O   0  0  0  0  0  0  0  0  0  0  0  0
    4.0785   -3.1348    8.5579 C   0  0  0  0  0  0  0  0  0  0  0  0
    4.8189   -3.2408    9.7062 C   0  0  0  0  0  0  0  0  0  0  0  0
    6.0040   -3.9545    9.7221 C   0  0  0  0  0  0  0  0  0  0  0  0
    6.4660   -4.5733    8.5896 C   0  0  0  0  0  0  0  0  0  0  0  0
    5.7377   -4.4823    7.4183 C   0  0  0  0  0  0  0  0  0  0  0  0
    6.1971   -5.1066    6.2635 C   0  0  0  0  0  0  0  0  0  0  0  0
    5.4970   -5.0353    5.0829 C   0  0  0  0  0  0  0  0  0  0  0  0
    4.3177   -4.3213    5.0791 C   0  0  0  0  0  0  0  0  0  0  0  0
    3.8639   -3.7026    6.2266 C   0  0  0  0  0  0  0  0  0  0  0  0
    4.5743   -3.7768    7.4178 C   0  0  0  0  0  0  0  0  0  0  0  0
    0.4786   -1.4510    7.6276 O   0  0  0  0  0  0  0  0  0  0  0  0
  1  2  1  0
  2  3  1  0
  2  4  1  0
  4  5  1  0
  5  6  1  0
  6  7  1  0
  7  8  1  0
  8  9  1  0
  9 10  2  0
 10 11  1  0
 11 12  2  0
 12 13  1  0
 13 14  2  0
 14 15  1  0
 15 16  2  0
 16 17  1  0
 17 18  2  0
  6 19  1  0
 18  9  1  0
 18 13  1  0
M  END
$$$$
