
     RDKit          3D

 21 23  0  0  0  0  0  0  0  0999 V2000
    2.8575    0.1665    6.4995 C   0  0  0  0  0  0  0  0  0  0  0  0
    3.2129   -0.1874    7.7867 C   0  0  0  0  0  0  0  0  0  0  0  0
    3.3079    0.7899    8.7263 C   0  0  0  0  0  0  0  0  0  0  0  0
    3.0686    2.1510    8.4829 C   0  0  0  0  0  0  0  0  0  0  0  0
    2.7181    2.4668    7.1950 C   0  0  0  0  0  0  0  0  0  0  0  0
    2.6100    1.5060    6.2105 C   0  0  0  0  0  0  0  0  0  0  0  0
    3.2139    3.0414    9.5873 C   0  0  0  0  0  0  0  0  0  0  0  0
    2.4969    4.1758    9.8165 C   0  0  0  0  0  0  0  0  0  0  0  0
    2.6898    4.9707   10.8891 N   0  0  0  0  0  0  0  0  0  0  0  0
    3.6122    4.6602   11.7789 N   0  0  0  0  0  0  0  0  0  0  0  0
    4.3528    3.5503   11.6056 C   0  0  0  0  0  0  0  0  0  0  0  0
    4.1584    2.7648   10.5407 N   0  0  0  0  0  0  0  0  0  0  0  0
    5.3257    3.2538   12.5764 N   0  0  0  0  0  0  0  0  0  0  0  0
    1.4947    4.5359    8.8692 C   0  0  0  0  0  0  0  0  0  0  0  0
    0.5381    3.6446    8.4409 C   0  0  0  0  0  0  0  0  0  0  0  0
   -0.4339    4.0368    7.5086 C   0  0  0  0  0  0  0  0  0  0  0  0
   -0.4150    5.3240    7.0307 C   0  0  0  0  0  0  0  0  0  0  0  0
    0.5424    6.2155    7.4596 C   0  0  0  0  0  0  0  0  0  0  0  0
    1.4794    5.8045    8.3708 C   0  0  0  0  0  0  0  0  0  0  0  0
   -1.3678    5.7710    6.0928 O   0  0  0  0  0  0  0  0  0  0  0  0
   -1.6562    2.9103    6.9564 Cl  0  0  0  0  0  0  0  0  0  0  0  0
  1  2  2  0
  2  3  1  0
  3  4  2  0
  4  5  1  0
  5  6  2  0
  4  7  1  0
  7  8  1  0
  8  9  2  0
  9 10  1  0
 10 11  2  0
 11 12  1  0
 11 13  1  0
  8 14  1  0
 14 15  2  0
 15 16  1  0
 16 17  2  0
 17 18  1  0
 18 19  2  0
 17 20  1  0
 16 21  1  0
  6  1  1  0
 12  7  2  0
 19 14  1  0
M  END
$$$$
