
     RDKit          3D

 21 23  0  0  0  0  0  0  0  0999 V2000
    2.9147   -0.7721    6.7555 C   0  0  0  0  0  0  0  0  0  0  0  0
    3.0069    0.5267    6.2938 C   0  0  0  0  0  0  0  0  0  0  0  0
    3.0466    1.5374    7.2016 C   0  0  0  0  0  0  0  0  0  0  0  0
    3.0003    1.3574    8.5924 C   0  0  0  0  0  0  0  0  0  0  0  0
    2.9090    0.0560    9.0157 C   0  0  0  0  0  0  0  0  0  0  0  0
    2.8659   -0.9999    8.1283 C   0  0  0  0  0  0  0  0  0  0  0  0
    3.0535    2.5321    9.3992 C   0  0  0  0  0  0  0  0  0  0  0  0
    2.2926    3.6518    9.2556 C   0  0  0  0  0  0  0  0  0  0  0  0
    2.3978    4.7282   10.0619 N   0  0  0  0  0  0  0  0  0  0  0  0
    3.2727    4.7262   11.0485 N   0  0  0  0  0  0  0  0  0  0  0  0
    4.0530    3.6468   11.2398 C   0  0  0  0  0  0  0  0  0  0  0  0
    3.9456    2.5818   10.4381 N   0  0  0  0  0  0  0  0  0  0  0  0
    4.9730    3.6838   12.3024 N   0  0  0  0  0  0  0  0  0  0  0  0
    1.3402    3.6814    8.1956 C   0  0  0  0  0  0  0  0  0  0  0  0
    1.3399    4.6702    7.2390 C   0  0  0  0  0  0  0  0  0  0  0  0
    0.3873    4.6644    6.2093 C   0  0  0  0  0  0  0  0  0  0  0  0
   -0.5444    3.6563    6.1718 C   0  0  0  0  0  0  0  0  0  0  0  0
   -0.5437    2.6672    7.1292 C   0  0  0  0  0  0  0  0  0  0  0  0
    0.3987    2.6984    8.1233 C   0  0  0  0  0  0  0  0  0  0  0  0
   -1.5241    3.6020    5.1597 O   0  0  0  0  0  0  0  0  0  0  0  0
    0.3778    5.9183    4.9863 Cl  0  0  0  0  0  0  0  0  0  0  0  0
  1  2  2  0
  2  3  1  0
  3  4  2  0
  4  5  1  0
  5  6  2  0
  4  7  1  0
  7  8  1  0
  8  9  2  0
  9 10  1  0
 10 11  2  0
 11 12  1  0
 11 13  1  0
  8 14  1  0
 14 15  2  0
 15 16  1  0
 16 17  2  0
 17 18  1  0
 18 19  2  0
 17 20  1  0
 16 21  1  0
  6  1  1  0
 12  7  2  0
 19 14  1  0
M  END
$$$$
