
     RDKit          3D

 21 23  0  0  0  0  0  0  0  0999 V2000
    3.0377   -0.7013    6.5504 C   0  0  0  0  0  0  0  0  0  0  0  0
    4.1887   -0.3204    7.2128 C   0  0  0  0  0  0  0  0  0  0  0  0
    4.1187    0.7093    8.0971 C   0  0  0  0  0  0  0  0  0  0  0  0
    2.9478    1.4243    8.3917 C   0  0  0  0  0  0  0  0  0  0  0  0
    1.8245    1.0198    7.7165 C   0  0  0  0  0  0  0  0  0  0  0  0
    1.8513   -0.0205    6.8105 C   0  0  0  0  0  0  0  0  0  0  0  0
    3.0554    2.4769    9.3478 C   0  0  0  0  0  0  0  0  0  0  0  0
    2.3940    3.6666    9.3247 C   0  0  0  0  0  0  0  0  0  0  0  0
    2.5456    4.6176   10.2693 N   0  0  0  0  0  0  0  0  0  0  0  0
    3.3690    4.4144   11.2791 N   0  0  0  0  0  0  0  0  0  0  0  0
    4.0507    3.2569   11.3554 C   0  0  0  0  0  0  0  0  0  0  0  0
    3.8975    2.3166   10.4168 N   0  0  0  0  0  0  0  0  0  0  0  0
    4.9183    3.0785   12.4473 N   0  0  0  0  0  0  0  0  0  0  0  0
    1.4992    3.9130    8.2430 C   0  0  0  0  0  0  0  0  0  0  0  0
    0.1788    4.2424    8.4458 C   0  0  0  0  0  0  0  0  0  0  0  0
   -0.6713    4.4799    7.3554 C   0  0  0  0  0  0  0  0  0  0  0  0
   -0.1644    4.3784    6.0833 C   0  0  0  0  0  0  0  0  0  0  0  0
    1.1569    4.0487    5.8810 C   0  0  0  0  0  0  0  0  0  0  0  0
    1.9638    3.8222    6.9648 C   0  0  0  0  0  0  0  0  0  0  0  0
   -0.9739    4.6065    4.9521 O   0  0  0  0  0  0  0  0  0  0  0  0
   -2.3537    4.8999    7.6020 Cl  0  0  0  0  0  0  0  0  0  0  0  0
  1  2  2  0
  2  3  1  0
  3  4  2  0
  4  5  1  0
  5  6  2  0
  4  7  1  0
  7  8  1  0
  8  9  2  0
  9 10  1  0
 10 11  2  0
 11 12  1  0
 11 13  1  0
  8 14  1  0
 14 15  2  0
 15 16  1  0
 16 17  2  0
 17 18  1  0
 18 19  2  0
 17 20  1  0
 16 21  1  0
  6  1  1  0
 12  7  2  0
 19 14  1  0
M  END
$$$$
