
     RDKit          3D

 21 23  0  0  0  0  0  0  0  0999 V2000
    2.8191   -0.2616    6.7264 C   0  0  0  0  0  0  0  0  0  0  0  0
    1.7426    0.5491    7.0306 C   0  0  0  0  0  0  0  0  0  0  0  0
    1.8992    1.5069    7.9819 C   0  0  0  0  0  0  0  0  0  0  0  0
    3.0897    1.7371    8.6882 C   0  0  0  0  0  0  0  0  0  0  0  0
    4.1375    0.9146    8.3611 C   0  0  0  0  0  0  0  0  0  0  0  0
    4.0216   -0.0703    7.4017 C   0  0  0  0  0  0  0  0  0  0  0  0
    3.0772    2.7868    9.6534 C   0  0  0  0  0  0  0  0  0  0  0  0
    2.3751    3.9507    9.5791 C   0  0  0  0  0  0  0  0  0  0  0  0
    2.4111    4.9007   10.5362 N   0  0  0  0  0  0  0  0  0  0  0  0
    3.1548    4.7223   11.6104 N   0  0  0  0  0  0  0  0  0  0  0  0
    3.8715    3.5908   11.7395 C   0  0  0  0  0  0  0  0  0  0  0  0
    3.8330    2.6515   10.7883 N   0  0  0  0  0  0  0  0  0  0  0  0
    4.6516    3.4384   12.8993 N   0  0  0  0  0  0  0  0  0  0  0  0
    1.5645    4.1702    8.4274 C   0  0  0  0  0  0  0  0  0  0  0  0
    0.2226    4.4589    8.5209 C   0  0  0  0  0  0  0  0  0  0  0  0
   -0.5424    4.6707    7.3643 C   0  0  0  0  0  0  0  0  0  0  0  0
    0.0697    4.5853    6.1380 C   0  0  0  0  0  0  0  0  0  0  0  0
    1.4125    4.2964    6.0450 C   0  0  0  0  0  0  0  0  0  0  0  0
    2.1347    4.0942    7.1917 C   0  0  0  0  0  0  0  0  0  0  0  0
   -0.6513    4.7890    4.9439 O   0  0  0  0  0  0  0  0  0  0  0  0
   -2.2514    5.0388    7.4716 Cl  0  0  0  0  0  0  0  0  0  0  0  0
  1  2  2  0
  2  3  1  0
  3  4  2  0
  4  5  1  0
  5  6  2  0
  4  7  1  0
  7  8  1  0
  8  9  2  0
  9 10  1  0
 10 11  2  0
 11 12  1  0
 11 13  1  0
  8 14  1  0
 14 15  2  0
 15 16  1  0
 16 17  2  0
 17 18  1  0
 18 19  2  0
 17 20  1  0
 16 21  1  0
  6  1  1  0
 12  7  2  0
 19 14  1  0
M  END
$$$$
