
     RDKit          3D

 21 23  0  0  0  0  0  0  0  0999 V2000
    2.4782   -0.2557    6.2507 C   0  0  0  0  0  0  0  0  0  0  0  0
    2.9755    1.0148    6.0336 C   0  0  0  0  0  0  0  0  0  0  0  0
    3.0888    1.8579    7.0935 C   0  0  0  0  0  0  0  0  0  0  0  0
    2.7332    1.5293    8.4106 C   0  0  0  0  0  0  0  0  0  0  0  0
    2.2435    0.2608    8.5900 C   0  0  0  0  0  0  0  0  0  0  0  0
    2.1120   -0.6269    7.5418 C   0  0  0  0  0  0  0  0  0  0  0  0
    2.9191    2.5375    9.4019 C   0  0  0  0  0  0  0  0  0  0  0  0
    2.3220    3.7604    9.4394 C   0  0  0  0  0  0  0  0  0  0  0  0
    2.5461    4.6653   10.4144 N   0  0  0  0  0  0  0  0  0  0  0  0
    3.3806    4.3807   11.3949 N   0  0  0  0  0  0  0  0  0  0  0  0
    4.0010    3.1868   11.4113 C   0  0  0  0  0  0  0  0  0  0  0  0
    3.7761    2.2924   10.4427 N   0  0  0  0  0  0  0  0  0  0  0  0
    4.8830    2.9215   12.4735 N   0  0  0  0  0  0  0  0  0  0  0  0
    1.4167    4.0946    8.3905 C   0  0  0  0  0  0  0  0  0  0  0  0
    1.8396    4.3071    7.0986 C   0  0  0  0  0  0  0  0  0  0  0  0
    0.9180    4.6325    6.0922 C   0  0  0  0  0  0  0  0  0  0  0  0
   -0.4122    4.7355    6.4174 C   0  0  0  0  0  0  0  0  0  0  0  0
   -0.8347    4.5228    7.7103 C   0  0  0  0  0  0  0  0  0  0  0  0
    0.0879    4.2064    8.6726 C   0  0  0  0  0  0  0  0  0  0  0  0
   -1.3806    5.0597    5.4458 O   0  0  0  0  0  0  0  0  0  0  0  0
    1.4453    4.9050    4.4443 Cl  0  0  0  0  0  0  0  0  0  0  0  0
  1  2  2  0
  2  3  1  0
  3  4  2  0
  4  5  1  0
  5  6  2  0
  4  7  1  0
  7  8  1  0
  8  9  2  0
  9 10  1  0
 10 11  2  0
 11 12  1  0
 11 13  1  0
  8 14  1  0
 14 15  2  0
 15 16  1  0
 16 17  2  0
 17 18  1  0
 18 19  2  0
 17 20  1  0
 16 21  1  0
  6  1  1  0
 12  7  2  0
 19 14  1  0
M  END
$$$$
