
     RDKit          3D

 21 23  0  0  0  0  0  0  0  0999 V2000
    3.8720   -0.3909    6.9243 C   0  0  0  0  0  0  0  0  0  0  0  0
    3.7426   -0.5015    8.2953 C   0  0  0  0  0  0  0  0  0  0  0  0
    3.5325    0.6281    9.0211 C   0  0  0  0  0  0  0  0  0  0  0  0
    3.4358    1.9167    8.4740 C   0  0  0  0  0  0  0  0  0  0  0  0
    3.5689    1.9898    7.1108 C   0  0  0  0  0  0  0  0  0  0  0  0
    3.7832    0.8681    6.3362 C   0  0  0  0  0  0  0  0  0  0  0  0
    3.2123    2.9913    9.3844 C   0  0  0  0  0  0  0  0  0  0  0  0
    2.3445    4.0274    9.2213 C   0  0  0  0  0  0  0  0  0  0  0  0
    2.1846    5.0109   10.1307 N   0  0  0  0  0  0  0  0  0  0  0  0
    2.8904    4.9960   11.2445 N   0  0  0  0  0  0  0  0  0  0  0  0
    3.7648    3.9965   11.4613 C   0  0  0  0  0  0  0  0  0  0  0  0
    3.9203    3.0234   10.5572 N   0  0  0  0  0  0  0  0  0  0  0  0
    4.4981    4.0165   12.6608 N   0  0  0  0  0  0  0  0  0  0  0  0
    1.5704    4.0691    8.0252 C   0  0  0  0  0  0  0  0  0  0  0  0
    0.8607    2.9801    7.5742 C   0  0  0  0  0  0  0  0  0  0  0  0
    0.1083    3.0601    6.3930 C   0  0  0  0  0  0  0  0  0  0  0  0
    0.0917    4.2424    5.6946 C   0  0  0  0  0  0  0  0  0  0  0  0
    0.8020    5.3317    6.1463 C   0  0  0  0  0  0  0  0  0  0  0  0
    1.5281    5.2245    7.3032 C   0  0  0  0  0  0  0  0  0  0  0  0
   -0.6474    4.3779    4.5019 O   0  0  0  0  0  0  0  0  0  0  0  0
   -0.7989    1.6800    5.8097 Cl  0  0  0  0  0  0  0  0  0  0  0  0
  1  2  2  0
  2  3  1  0
  3  4  2  0
  4  5  1  0
  5  6  2  0
  4  7  1  0
  7  8  1  0
  8  9  2  0
  9 10  1  0
 10 11  2  0
 11 12  1  0
 11 13  1  0
  8 14  1  0
 14 15  2  0
 15 16  1  0
 16 17  2  0
 17 18  1  0
 18 19  2  0
 17 20  1  0
 16 21  1  0
  6  1  1  0
 12  7  2  0
 19 14  1  0
M  END
$$$$
