
     RDKit          3D

 21 23  0  0  0  0  0  0  0  0999 V2000
    2.6416   -0.3207    6.4502 C   0  0  0  0  0  0  0  0  0  0  0  0
    1.5626    0.0407    7.2337 C   0  0  0  0  0  0  0  0  0  0  0  0
    1.7332    1.0173    8.1633 C   0  0  0  0  0  0  0  0  0  0  0  0
    2.9406    1.6955    8.3898 C   0  0  0  0  0  0  0  0  0  0  0  0
    3.9903    1.3118    7.5947 C   0  0  0  0  0  0  0  0  0  0  0  0
    3.8607    0.3250    6.6390 C   0  0  0  0  0  0  0  0  0  0  0  0
    2.9406    2.6949    9.4071 C   0  0  0  0  0  0  0  0  0  0  0  0
    2.2300    3.8561    9.4057 C   0  0  0  0  0  0  0  0  0  0  0  0
    2.2790    4.7566   10.4089 N   0  0  0  0  0  0  0  0  0  0  0  0
    3.0450    4.5293   11.4579 N   0  0  0  0  0  0  0  0  0  0  0  0
    3.7711    3.3980   11.5155 C   0  0  0  0  0  0  0  0  0  0  0  0
    3.7196    2.5078   10.5187 N   0  0  0  0  0  0  0  0  0  0  0  0
    4.5750    3.1927   12.6506 N   0  0  0  0  0  0  0  0  0  0  0  0
    1.3954    4.1276    8.2826 C   0  0  0  0  0  0  0  0  0  0  0  0
    1.8632    4.0634    6.9904 C   0  0  0  0  0  0  0  0  0  0  0  0
    1.0106    4.3356    5.9102 C   0  0  0  0  0  0  0  0  0  0  0  0
   -0.2977    4.6670    6.1635 C   0  0  0  0  0  0  0  0  0  0  0  0
   -0.7653    4.7311    7.4567 C   0  0  0  0  0  0  0  0  0  0  0  0
    0.0902    4.4603    8.4921 C   0  0  0  0  0  0  0  0  0  0  0  0
   -1.1974    4.9501    5.1158 O   0  0  0  0  0  0  0  0  0  0  0  0
    1.5956    4.2568    4.2611 Cl  0  0  0  0  0  0  0  0  0  0  0  0
  1  2  2  0
  2  3  1  0
  3  4  2  0
  4  5  1  0
  5  6  2  0
  4  7  1  0
  7  8  1  0
  8  9  2  0
  9 10  1  0
 10 11  2  0
 11 12  1  0
 11 13  1  0
  8 14  1  0
 14 15  2  0
 15 16  1  0
 16 17  2  0
 17 18  1  0
 18 19  2  0
 17 20  1  0
 16 21  1  0
  6  1  1  0
 12  7  2  0
 19 14  1  0
M  END
$$$$
