
     RDKit          3D

 21 23  0  0  0  0  0  0  0  0999 V2000
    2.9234    0.1088    6.8729 C   0  0  0  0  0  0  0  0  0  0  0  0
    2.5721    1.4340    6.7024 C   0  0  0  0  0  0  0  0  0  0  0  0
    2.6658    2.2729    7.7676 C   0  0  0  0  0  0  0  0  0  0  0  0
    3.0989    1.8879    9.0455 C   0  0  0  0  0  0  0  0  0  0  0  0
    3.4396    0.5660    9.1791 C   0  0  0  0  0  0  0  0  0  0  0  0
    3.3593   -0.3196    8.1240 C   0  0  0  0  0  0  0  0  0  0  0  0
    3.1366    2.9008   10.0487 C   0  0  0  0  0  0  0  0  0  0  0  0
    2.2856    3.9564   10.1701 C   0  0  0  0  0  0  0  0  0  0  0  0
    2.3821    4.8775   11.1509 N   0  0  0  0  0  0  0  0  0  0  0  0
    3.3388    4.7781   12.0530 N   0  0  0  0  0  0  0  0  0  0  0  0
    4.2104    3.7553   11.9842 C   0  0  0  0  0  0  0  0  0  0  0  0
    4.1112    2.8442   11.0102 N   0  0  0  0  0  0  0  0  0  0  0  0
    5.2157    3.6845   12.9646 N   0  0  0  0  0  0  0  0  0  0  0  0
    1.2433    4.0890    9.2070 C   0  0  0  0  0  0  0  0  0  0  0  0
    0.3405    3.0802    8.9617 C   0  0  0  0  0  0  0  0  0  0  0  0
   -0.6734    3.2487    8.0070 C   0  0  0  0  0  0  0  0  0  0  0  0
   -0.7500    4.4362    7.3217 C   0  0  0  0  0  0  0  0  0  0  0  0
    0.1536    5.4453    7.5675 C   0  0  0  0  0  0  0  0  0  0  0  0
    1.1335    5.2526    8.5056 C   0  0  0  0  0  0  0  0  0  0  0  0
   -1.7485    4.6589    6.3519 O   0  0  0  0  0  0  0  0  0  0  0  0
   -1.8280    1.9712    7.6867 Cl  0  0  0  0  0  0  0  0  0  0  0  0
  1  2  2  0
  2  3  1  0
  3  4  2  0
  4  5  1  0
  5  6  2  0
  4  7  1  0
  7  8  1  0
  8  9  2  0
  9 10  1  0
 10 11  2  0
 11 12  1  0
 11 13  1  0
  8 14  1  0
 14 15  2  0
 15 16  1  0
 16 17  2  0
 17 18  1  0
 18 19  2  0
 17 20  1  0
 16 21  1  0
  6  1  1  0
 12  7  2  0
 19 14  1  0
M  END
$$$$
