
     RDKit          3D

 21 23  0  0  0  0  0  0  0  0999 V2000
    2.6961   -0.1344    6.9843 C   0  0  0  0  0  0  0  0  0  0  0  0
    3.4525   -0.3865    8.1125 C   0  0  0  0  0  0  0  0  0  0  0  0
    3.5928    0.6019    9.0347 C   0  0  0  0  0  0  0  0  0  0  0  0
    3.0185    1.8775    8.9246 C   0  0  0  0  0  0  0  0  0  0  0  0
    2.2744    2.0933    7.7928 C   0  0  0  0  0  0  0  0  0  0  0  0
    2.1063    1.1176    6.8316 C   0  0  0  0  0  0  0  0  0  0  0  0
    3.2688    2.7940    9.9881 C   0  0  0  0  0  0  0  0  0  0  0  0
    2.5649    3.9249   10.2690 C   0  0  0  0  0  0  0  0  0  0  0  0
    2.8603    4.7458   11.2979 N   0  0  0  0  0  0  0  0  0  0  0  0
    3.8767    4.4658   12.0899 N   0  0  0  0  0  0  0  0  0  0  0  0
    4.6097    3.3608   11.8616 C   0  0  0  0  0  0  0  0  0  0  0  0
    4.3135    2.5495   10.8405 N   0  0  0  0  0  0  0  0  0  0  0  0
    5.6848    3.0973   12.7286 N   0  0  0  0  0  0  0  0  0  0  0  0
    1.4623    4.2523    9.4272 C   0  0  0  0  0  0  0  0  0  0  0  0
    0.3577    3.4393    9.3184 C   0  0  0  0  0  0  0  0  0  0  0  0
   -0.7094    3.7965    8.4807 C   0  0  0  0  0  0  0  0  0  0  0  0
   -0.6335    4.9699    7.7716 C   0  0  0  0  0  0  0  0  0  0  0  0
    0.4721    5.7830    7.8809 C   0  0  0  0  0  0  0  0  0  0  0  0
    1.4993    5.4088    8.7067 C   0  0  0  0  0  0  0  0  0  0  0  0
   -1.6767    5.3770    6.9154 O   0  0  0  0  0  0  0  0  0  0  0  0
   -2.1204    2.7690    8.3345 Cl  0  0  0  0  0  0  0  0  0  0  0  0
  1  2  2  0
  2  3  1  0
  3  4  2  0
  4  5  1  0
  5  6  2  0
  4  7  1  0
  7  8  1  0
  8  9  2  0
  9 10  1  0
 10 11  2  0
 11 12  1  0
 11 13  1  0
  8 14  1  0
 14 15  2  0
 15 16  1  0
 16 17  2  0
 17 18  1  0
 18 19  2  0
 17 20  1  0
 16 21  1  0
  6  1  1  0
 12  7  2  0
 19 14  1  0
M  END
$$$$
