
     RDKit          3D

 21 23  0  0  0  0  0  0  0  0999 V2000
    2.9536   -0.1892    6.5156 C   0  0  0  0  0  0  0  0  0  0  0  0
    3.8020   -0.2201    7.6056 C   0  0  0  0  0  0  0  0  0  0  0  0
    3.7419    0.7974    8.5045 C   0  0  0  0  0  0  0  0  0  0  0  0
    2.8699    1.8925    8.4067 C   0  0  0  0  0  0  0  0  0  0  0  0
    2.0422    1.8911    7.3130 C   0  0  0  0  0  0  0  0  0  0  0  0
    2.0704    0.8782    6.3764 C   0  0  0  0  0  0  0  0  0  0  0  0
    2.9406    2.8707    9.4419 C   0  0  0  0  0  0  0  0  0  0  0  0
    2.1863    3.9991    9.5467 C   0  0  0  0  0  0  0  0  0  0  0  0
    2.3083    4.8810   10.5602 N   0  0  0  0  0  0  0  0  0  0  0  0
    3.1943    4.6673   11.5132 N   0  0  0  0  0  0  0  0  0  0  0  0
    3.9689    3.5682   11.4632 C   0  0  0  0  0  0  0  0  0  0  0  0
    3.8448    2.6964   10.4567 N   0  0  0  0  0  0  0  0  0  0  0  0
    4.9011    3.3763   12.4981 N   0  0  0  0  0  0  0  0  0  0  0  0
    1.2221    4.2556    8.5288 C   0  0  0  0  0  0  0  0  0  0  0  0
    1.5773    4.4285    7.2109 C   0  0  0  0  0  0  0  0  0  0  0  0
    0.5991    4.6773    6.2367 C   0  0  0  0  0  0  0  0  0  0  0  0
   -0.7178    4.7454    6.6196 C   0  0  0  0  0  0  0  0  0  0  0  0
   -1.0727    4.5723    7.9385 C   0  0  0  0  0  0  0  0  0  0  0  0
   -0.0958    4.3307    8.8684 C   0  0  0  0  0  0  0  0  0  0  0  0
   -1.7411    4.9928    5.6822 O   0  0  0  0  0  0  0  0  0  0  0  0
    1.0401    4.8990    4.5561 Cl  0  0  0  0  0  0  0  0  0  0  0  0
  1  2  2  0
  2  3  1  0
  3  4  2  0
  4  5  1  0
  5  6  2  0
  4  7  1  0
  7  8  1  0
  8  9  2  0
  9 10  1  0
 10 11  2  0
 11 12  1  0
 11 13  1  0
  8 14  1  0
 14 15  2  0
 15 16  1  0
 16 17  2  0
 17 18  1  0
 18 19  2  0
 17 20  1  0
 16 21  1  0
  6  1  1  0
 12  7  2  0
 19 14  1  0
M  END
$$$$
