
     RDKit          3D

 21 23  0  0  0  0  0  0  0  0999 V2000
    2.7987   -0.2095    6.5774 C   0  0  0  0  0  0  0  0  0  0  0  0
    2.6773    1.1475    6.3481 C   0  0  0  0  0  0  0  0  0  0  0  0
    2.6979    1.9906    7.4138 C   0  0  0  0  0  0  0  0  0  0  0  0
    2.8353    1.5798    8.7485 C   0  0  0  0  0  0  0  0  0  0  0  0
    2.9533    0.2267    8.9396 C   0  0  0  0  0  0  0  0  0  0  0  0
    2.9373   -0.6643    7.8861 C   0  0  0  0  0  0  0  0  0  0  0  0
    2.8374    2.6016    9.7433 C   0  0  0  0  0  0  0  0  0  0  0  0
    2.0327    3.6989    9.7830 C   0  0  0  0  0  0  0  0  0  0  0  0
    2.0908    4.6259   10.7613 N   0  0  0  0  0  0  0  0  0  0  0  0
    2.9607    4.4905   11.7430 N   0  0  0  0  0  0  0  0  0  0  0  0
    3.7831    3.4256   11.7573 C   0  0  0  0  0  0  0  0  0  0  0  0
    3.7223    2.5088   10.7855 N   0  0  0  0  0  0  0  0  0  0  0  0
    4.6961    3.3174   12.8210 N   0  0  0  0  0  0  0  0  0  0  0  0
    1.0845    3.8708    8.7328 C   0  0  0  0  0  0  0  0  0  0  0  0
    0.7698    5.1108    8.2265 C   0  0  0  0  0  0  0  0  0  0  0  0
   -0.1675    5.2399    7.1907 C   0  0  0  0  0  0  0  0  0  0  0  0
   -0.7652    4.1092    6.6908 C   0  0  0  0  0  0  0  0  0  0  0  0
   -0.4500    2.8688    7.1978 C   0  0  0  0  0  0  0  0  0  0  0  0
    0.4691    2.7730    8.2095 C   0  0  0  0  0  0  0  0  0  0  0  0
   -1.7137    4.1814    5.6505 O   0  0  0  0  0  0  0  0  0  0  0  0
   -0.5756    6.8135    6.5387 Cl  0  0  0  0  0  0  0  0  0  0  0  0
  1  2  2  0
  2  3  1  0
  3  4  2  0
  4  5  1  0
  5  6  2  0
  4  7  1  0
  7  8  1  0
  8  9  2  0
  9 10  1  0
 10 11  2  0
 11 12  1  0
 11 13  1  0
  8 14  1  0
 14 15  2  0
 15 16  1  0
 16 17  2  0
 17 18  1  0
 18 19  2  0
 17 20  1  0
 16 21  1  0
  6  1  1  0
 12  7  2  0
 19 14  1  0
M  END
$$$$
