
     RDKit          3D

 21 23  0  0  0  0  0  0  0  0999 V2000
    2.6410   -0.3794    6.4419 C   0  0  0  0  0  0  0  0  0  0  0  0
    1.5222    0.2580    6.9426 C   0  0  0  0  0  0  0  0  0  0  0  0
    1.6869    1.1849    7.9228 C   0  0  0  0  0  0  0  0  0  0  0  0
    2.9262    1.5480    8.4719 C   0  0  0  0  0  0  0  0  0  0  0  0
    4.0151    0.8960    7.9518 C   0  0  0  0  0  0  0  0  0  0  0  0
    3.8928   -0.0517    6.9563 C   0  0  0  0  0  0  0  0  0  0  0  0
    2.9148    2.5414    9.4949 C   0  0  0  0  0  0  0  0  0  0  0  0
    2.1974    3.6984    9.4962 C   0  0  0  0  0  0  0  0  0  0  0  0
    2.2356    4.5934   10.5048 N   0  0  0  0  0  0  0  0  0  0  0  0
    2.9971    4.3646   11.5568 N   0  0  0  0  0  0  0  0  0  0  0  0
    3.7295    3.2372   11.6119 C   0  0  0  0  0  0  0  0  0  0  0  0
    3.6887    2.3524   10.6098 N   0  0  0  0  0  0  0  0  0  0  0  0
    4.5283    3.0299   12.7502 N   0  0  0  0  0  0  0  0  0  0  0  0
    1.3674    3.9716    8.3701 C   0  0  0  0  0  0  0  0  0  0  0  0
    1.7379    3.6344    7.0887 C   0  0  0  0  0  0  0  0  0  0  0  0
    0.8928    3.9178    6.0054 C   0  0  0  0  0  0  0  0  0  0  0  0
   -0.3093    4.5369    6.2447 C   0  0  0  0  0  0  0  0  0  0  0  0
   -0.6795    4.8741    7.5271 C   0  0  0  0  0  0  0  0  0  0  0  0
    0.1660    4.5851    8.5658 C   0  0  0  0  0  0  0  0  0  0  0  0
   -1.1964    4.8449    5.1934 O   0  0  0  0  0  0  0  0  0  0  0  0
    1.3544    3.4930    4.3701 Cl  0  0  0  0  0  0  0  0  0  0  0  0
  1  2  2  0
  2  3  1  0
  3  4  2  0
  4  5  1  0
  5  6  2  0
  4  7  1  0
  7  8  1  0
  8  9  2  0
  9 10  1  0
 10 11  2  0
 11 12  1  0
 11 13  1  0
  8 14  1  0
 14 15  2  0
 15 16  1  0
 16 17  2  0
 17 18  1  0
 18 19  2  0
 17 20  1  0
 16 21  1  0
  6  1  1  0
 12  7  2  0
 19 14  1  0
M  END
$$$$
