
     RDKit          3D

 21 23  0  0  0  0  0  0  0  0999 V2000
    2.9695   -0.3942    6.7064 C   0  0  0  0  0  0  0  0  0  0  0  0
    3.7767   -0.4645    7.8254 C   0  0  0  0  0  0  0  0  0  0  0  0
    3.7586    0.5710    8.7054 C   0  0  0  0  0  0  0  0  0  0  0  0
    2.9699    1.7225    8.5601 C   0  0  0  0  0  0  0  0  0  0  0  0
    2.1812    1.7591    7.4385 C   0  0  0  0  0  0  0  0  0  0  0  0
    2.1691    0.7298    6.5196 C   0  0  0  0  0  0  0  0  0  0  0  0
    3.0749    2.7121    9.5815 C   0  0  0  0  0  0  0  0  0  0  0  0
    2.3490    3.8597    9.6790 C   0  0  0  0  0  0  0  0  0  0  0  0
    2.5027    4.7515   10.6793 N   0  0  0  0  0  0  0  0  0  0  0  0
    3.3932    4.5288   11.6261 N   0  0  0  0  0  0  0  0  0  0  0  0
    4.1407    3.4109   11.5828 C   0  0  0  0  0  0  0  0  0  0  0  0
    3.9852    2.5292   10.5893 N   0  0  0  0  0  0  0  0  0  0  0  0
    5.0787    3.2100   12.6107 N   0  0  0  0  0  0  0  0  0  0  0  0
    1.3807    4.1261    8.6675 C   0  0  0  0  0  0  0  0  0  0  0  0
    0.0298    4.1219    8.9282 C   0  0  0  0  0  0  0  0  0  0  0  0
   -0.8932    4.3910    7.9066 C   0  0  0  0  0  0  0  0  0  0  0  0
   -0.4267    4.6584    6.6431 C   0  0  0  0  0  0  0  0  0  0  0  0
    0.9252    4.6624    6.3829 C   0  0  0  0  0  0  0  0  0  0  0  0
    1.8035    4.3960    7.4001 C   0  0  0  0  0  0  0  0  0  0  0  0
   -1.3097    4.9352    5.5798 O   0  0  0  0  0  0  0  0  0  0  0  0
   -2.6152    4.3883    8.2272 Cl  0  0  0  0  0  0  0  0  0  0  0  0
  1  2  2  0
  2  3  1  0
  3  4  2  0
  4  5  1  0
  5  6  2  0
  4  7  1  0
  7  8  1  0
  8  9  2  0
  9 10  1  0
 10 11  2  0
 11 12  1  0
 11 13  1  0
  8 14  1  0
 14 15  2  0
 15 16  1  0
 16 17  2  0
 17 18  1  0
 18 19  2  0
 17 20  1  0
 16 21  1  0
  6  1  1  0
 12  7  2  0
 19 14  1  0
M  END
$$$$
