
     RDKit          3D

 21 23  0  0  0  0  0  0  0  0999 V2000
    3.4999   -0.2064    6.6861 C   0  0  0  0  0  0  0  0  0  0  0  0
    3.1911    1.0896    6.3206 C   0  0  0  0  0  0  0  0  0  0  0  0
    3.1035    2.0353    7.2928 C   0  0  0  0  0  0  0  0  0  0  0  0
    3.3062    1.7898    8.6595 C   0  0  0  0  0  0  0  0  0  0  0  0
    3.6109    0.4932    8.9867 C   0  0  0  0  0  0  0  0  0  0  0  0
    3.7097   -0.4977    8.0314 C   0  0  0  0  0  0  0  0  0  0  0  0
    3.1752    2.9014    9.5432 C   0  0  0  0  0  0  0  0  0  0  0  0
    2.3325    3.9606    9.3974 C   0  0  0  0  0  0  0  0  0  0  0  0
    2.2620    4.9789   10.2794 N   0  0  0  0  0  0  0  0  0  0  0  0
    3.0359    4.9771   11.3471 N   0  0  0  0  0  0  0  0  0  0  0  0
    3.8898    3.9562   11.5448 C   0  0  0  0  0  0  0  0  0  0  0  0
    3.9565    2.9486   10.6679 N   0  0  0  0  0  0  0  0  0  0  0  0
    4.6976    3.9912   12.6950 N   0  0  0  0  0  0  0  0  0  0  0  0
    1.4862    3.9886    8.2509 C   0  0  0  0  0  0  0  0  0  0  0  0
    0.6880    2.9231    7.9040 C   0  0  0  0  0  0  0  0  0  0  0  0
   -0.1336    2.9888    6.7689 C   0  0  0  0  0  0  0  0  0  0  0  0
   -0.1282    4.1333    6.0101 C   0  0  0  0  0  0  0  0  0  0  0  0
    0.6708    5.1992    6.3576 C   0  0  0  0  0  0  0  0  0  0  0  0
    1.4631    5.1067    7.4716 C   0  0  0  0  0  0  0  0  0  0  0  0
   -0.9340    4.2531    4.8597 O   0  0  0  0  0  0  0  0  0  0  0  0
   -1.1538    1.6383    6.3180 Cl  0  0  0  0  0  0  0  0  0  0  0  0
  1  2  2  0
  2  3  1  0
  3  4  2  0
  4  5  1  0
  5  6  2  0
  4  7  1  0
  7  8  1  0
  8  9  2  0
  9 10  1  0
 10 11  2  0
 11 12  1  0
 11 13  1  0
  8 14  1  0
 14 15  2  0
 15 16  1  0
 16 17  2  0
 17 18  1  0
 18 19  2  0
 17 20  1  0
 16 21  1  0
  6  1  1  0
 12  7  2  0
 19 14  1  0
M  END
$$$$
