
     RDKit          3D

 21 23  0  0  0  0  0  0  0  0999 V2000
    2.8747   -0.4710    6.8149 C   0  0  0  0  0  0  0  0  0  0  0  0
    3.3173   -0.5742    8.1195 C   0  0  0  0  0  0  0  0  0  0  0  0
    3.3136    0.5407    8.8967 C   0  0  0  0  0  0  0  0  0  0  0  0
    2.8876    1.8067    8.4666 C   0  0  0  0  0  0  0  0  0  0  0  0
    2.4548    1.8729    7.1668 C   0  0  0  0  0  0  0  0  0  0  0  0
    2.4420    0.7656    6.3434 C   0  0  0  0  0  0  0  0  0  0  0  0
    2.9507    2.8682    9.4168 C   0  0  0  0  0  0  0  0  0  0  0  0
    2.1077    3.9337    9.5022 C   0  0  0  0  0  0  0  0  0  0  0  0
    2.2288    4.9021   10.4335 N   0  0  0  0  0  0  0  0  0  0  0  0
    3.2030    4.8420   11.3202 N   0  0  0  0  0  0  0  0  0  0  0  0
    4.0678    3.8118   11.2853 C   0  0  0  0  0  0  0  0  0  0  0  0
    3.9443    2.8537   10.3604 N   0  0  0  0  0  0  0  0  0  0  0  0
    5.0924    3.7838   12.2478 N   0  0  0  0  0  0  0  0  0  0  0  0
    1.0469    4.0245    8.5546 C   0  0  0  0  0  0  0  0  0  0  0  0
    0.9892    5.0271    7.6142 C   0  0  0  0  0  0  0  0  0  0  0  0
   -0.0701    5.0821    6.6962 C   0  0  0  0  0  0  0  0  0  0  0  0
   -1.0479    4.1195    6.7516 C   0  0  0  0  0  0  0  0  0  0  0  0
   -0.9897    3.1165    7.6928 C   0  0  0  0  0  0  0  0  0  0  0  0
    0.0568    3.0880    8.5768 C   0  0  0  0  0  0  0  0  0  0  0  0
   -2.1345    4.1270    5.8537 O   0  0  0  0  0  0  0  0  0  0  0  0
   -0.1536    6.3539    5.4949 Cl  0  0  0  0  0  0  0  0  0  0  0  0
  1  2  2  0
  2  3  1  0
  3  4  2  0
  4  5  1  0
  5  6  2  0
  4  7  1  0
  7  8  1  0
  8  9  2  0
  9 10  1  0
 10 11  2  0
 11 12  1  0
 11 13  1  0
  8 14  1  0
 14 15  2  0
 15 16  1  0
 16 17  2  0
 17 18  1  0
 18 19  2  0
 17 20  1  0
 16 21  1  0
  6  1  1  0
 12  7  2  0
 19 14  1  0
M  END
$$$$
