
     RDKit          3D

 21 23  0  0  0  0  0  0  0  0999 V2000
    3.4140   -0.0925    6.5924 C   0  0  0  0  0  0  0  0  0  0  0  0
    3.4233    1.2522    6.2756 C   0  0  0  0  0  0  0  0  0  0  0  0
    3.3343    2.1579    7.2850 C   0  0  0  0  0  0  0  0  0  0  0  0
    3.2323    1.8242    8.6442 C   0  0  0  0  0  0  0  0  0  0  0  0
    3.2259    0.4812    8.9226 C   0  0  0  0  0  0  0  0  0  0  0  0
    3.3142   -0.4717    7.9285 C   0  0  0  0  0  0  0  0  0  0  0  0
    3.1484    2.9045    9.5714 C   0  0  0  0  0  0  0  0  0  0  0  0
    2.3603    4.0092    9.4630 C   0  0  0  0  0  0  0  0  0  0  0  0
    2.3323    4.9934   10.3852 N   0  0  0  0  0  0  0  0  0  0  0  0
    3.0957    4.9103   11.4572 N   0  0  0  0  0  0  0  0  0  0  0  0
    3.8964    3.8411   11.6190 C   0  0  0  0  0  0  0  0  0  0  0  0
    3.9212    2.8675   10.7024 N   0  0  0  0  0  0  0  0  0  0  0  0
    4.6948    3.7897   12.7752 N   0  0  0  0  0  0  0  0  0  0  0  0
    1.5265    4.1253    8.3128 C   0  0  0  0  0  0  0  0  0  0  0  0
    0.7364    3.0881    7.8738 C   0  0  0  0  0  0  0  0  0  0  0  0
   -0.0729    3.2409    6.7382 C   0  0  0  0  0  0  0  0  0  0  0  0
   -0.0637    4.4419    6.0724 C   0  0  0  0  0  0  0  0  0  0  0  0
    0.7272    5.4794    6.5122 C   0  0  0  0  0  0  0  0  0  0  0  0
    1.5075    5.3015    7.6243 C   0  0  0  0  0  0  0  0  0  0  0  0
   -0.8573    4.6499    4.9261 O   0  0  0  0  0  0  0  0  0  0  0  0
   -1.0827    1.9272    6.1704 Cl  0  0  0  0  0  0  0  0  0  0  0  0
  1  2  2  0
  2  3  1  0
  3  4  2  0
  4  5  1  0
  5  6  2  0
  4  7  1  0
  7  8  1  0
  8  9  2  0
  9 10  1  0
 10 11  2  0
 11 12  1  0
 11 13  1  0
  8 14  1  0
 14 15  2  0
 15 16  1  0
 16 17  2  0
 17 18  1  0
 18 19  2  0
 17 20  1  0
 16 21  1  0
  6  1  1  0
 12  7  2  0
 19 14  1  0
M  END
$$$$
