
     RDKit          3D

 21 23  0  0  0  0  0  0  0  0999 V2000
    2.6409   -0.5207    6.7029 C   0  0  0  0  0  0  0  0  0  0  0  0
    2.5057    0.8141    6.3734 C   0  0  0  0  0  0  0  0  0  0  0  0
    2.6459    1.7430    7.3556 C   0  0  0  0  0  0  0  0  0  0  0  0
    2.9218    1.4430    8.6983 C   0  0  0  0  0  0  0  0  0  0  0  0
    3.0497    0.1089    8.9900 C   0  0  0  0  0  0  0  0  0  0  0  0
    2.9150   -0.8668    8.0235 C   0  0  0  0  0  0  0  0  0  0  0  0
    3.0374    2.5441    9.5970 C   0  0  0  0  0  0  0  0  0  0  0  0
    2.2607    3.6620    9.6168 C   0  0  0  0  0  0  0  0  0  0  0  0
    2.4286    4.6660   10.5021 N   0  0  0  0  0  0  0  0  0  0  0  0
    3.3851    4.5902   11.4067 N   0  0  0  0  0  0  0  0  0  0  0  0
    4.1850    3.5087   11.4361 C   0  0  0  0  0  0  0  0  0  0  0  0
    4.0152    2.5156   10.5566 N   0  0  0  0  0  0  0  0  0  0  0  0
    5.1927    3.4657   12.4157 N   0  0  0  0  0  0  0  0  0  0  0  0
    1.2206    3.7705    8.6484 C   0  0  0  0  0  0  0  0  0  0  0  0
    1.2535    4.7065    7.6405 C   0  0  0  0  0  0  0  0  0  0  0  0
    0.2115    4.7814    6.7042 C   0  0  0  0  0  0  0  0  0  0  0  0
   -0.8410    3.9059    6.8099 C   0  0  0  0  0  0  0  0  0  0  0  0
   -0.8734    2.9695    7.8186 C   0  0  0  0  0  0  0  0  0  0  0  0
    0.1581    2.9196    8.7190 C   0  0  0  0  0  0  0  0  0  0  0  0
   -1.9141    3.9371    5.8964 O   0  0  0  0  0  0  0  0  0  0  0  0
    0.2432    5.9690    5.4172 Cl  0  0  0  0  0  0  0  0  0  0  0  0
  1  2  2  0
  2  3  1  0
  3  4  2  0
  4  5  1  0
  5  6  2  0
  4  7  1  0
  7  8  1  0
  8  9  2  0
  9 10  1  0
 10 11  2  0
 11 12  1  0
 11 13  1  0
  8 14  1  0
 14 15  2  0
 15 16  1  0
 16 17  2  0
 17 18  1  0
 18 19  2  0
 17 20  1  0
 16 21  1  0
  6  1  1  0
 12  7  2  0
 19 14  1  0
M  END
$$$$
