
     RDKit          3D

 21 23  0  0  0  0  0  0  0  0999 V2000
    2.6300   -0.3286    6.5007 C   0  0  0  0  0  0  0  0  0  0  0  0
    2.1862    0.9718    6.3571 C   0  0  0  0  0  0  0  0  0  0  0  0
    2.3797    1.8413    7.3836 C   0  0  0  0  0  0  0  0  0  0  0  0
    3.0055    1.5118    8.5956 C   0  0  0  0  0  0  0  0  0  0  0  0
    3.4335    0.2133    8.7041 C   0  0  0  0  0  0  0  0  0  0  0  0
    3.2572   -0.7018    7.6865 C   0  0  0  0  0  0  0  0  0  0  0  0
    3.1255    2.5505    9.5653 C   0  0  0  0  0  0  0  0  0  0  0  0
    2.3558    3.6696    9.6571 C   0  0  0  0  0  0  0  0  0  0  0  0
    2.5275    4.6118   10.6071 N   0  0  0  0  0  0  0  0  0  0  0  0
    3.4809    4.4703   11.5071 N   0  0  0  0  0  0  0  0  0  0  0  0
    4.2740    3.3841   11.4668 C   0  0  0  0  0  0  0  0  0  0  0  0
    4.1004    2.4523   10.5233 N   0  0  0  0  0  0  0  0  0  0  0  0
    5.2786    3.2700   12.4438 N   0  0  0  0  0  0  0  0  0  0  0  0
    1.3191    3.8485    8.6954 C   0  0  0  0  0  0  0  0  0  0  0  0
    1.2246    4.9835    7.9234 C   0  0  0  0  0  0  0  0  0  0  0  0
    0.1908    5.1225    6.9855 C   0  0  0  0  0  0  0  0  0  0  0  0
   -0.7248    4.1080    6.8506 C   0  0  0  0  0  0  0  0  0  0  0  0
   -0.6298    2.9727    7.6233 C   0  0  0  0  0  0  0  0  0  0  0  0
    0.3904    2.8643    8.5313 C   0  0  0  0  0  0  0  0  0  0  0  0
   -1.7834    4.1955    5.9238 O   0  0  0  0  0  0  0  0  0  0  0  0
    0.0610    6.5630    5.9975 Cl  0  0  0  0  0  0  0  0  0  0  0  0
  1  2  2  0
  2  3  1  0
  3  4  2  0
  4  5  1  0
  5  6  2  0
  4  7  1  0
  7  8  1  0
  8  9  2  0
  9 10  1  0
 10 11  2  0
 11 12  1  0
 11 13  1  0
  8 14  1  0
 14 15  2  0
 15 16  1  0
 16 17  2  0
 17 18  1  0
 18 19  2  0
 17 20  1  0
 16 21  1  0
  6  1  1  0
 12  7  2  0
 19 14  1  0
M  END
$$$$
