
     RDKit          3D

 21 23  0  0  0  0  0  0  0  0999 V2000
    3.9932   -0.9249    7.6728 C   0  0  0  0  0  0  0  0  0  0  0  0
    3.7301   -0.8756    9.0281 C   0  0  0  0  0  0  0  0  0  0  0  0
    3.4340    0.3264    9.5890 C   0  0  0  0  0  0  0  0  0  0  0  0
    3.3747    1.5382    8.8840 C   0  0  0  0  0  0  0  0  0  0  0  0
    3.6411    1.4526    7.5413 C   0  0  0  0  0  0  0  0  0  0  0  0
    3.9461    0.2529    6.9316 C   0  0  0  0  0  0  0  0  0  0  0  0
    3.0477    2.7072    9.6325 C   0  0  0  0  0  0  0  0  0  0  0  0
    2.1263    3.6530    9.3012 C   0  0  0  0  0  0  0  0  0  0  0  0
    1.8684    4.7358   10.0632 N   0  0  0  0  0  0  0  0  0  0  0  0
    2.5256    4.9155   11.1922 N   0  0  0  0  0  0  0  0  0  0  0  0
    3.4489    4.0135   11.5720 C   0  0  0  0  0  0  0  0  0  0  0  0
    3.7017    2.9413   10.8136 N   0  0  0  0  0  0  0  0  0  0  0  0
    4.1277    4.2409   12.7821 N   0  0  0  0  0  0  0  0  0  0  0  0
    1.4029    3.4844    8.0847 C   0  0  0  0  0  0  0  0  0  0  0  0
    1.0649    4.5483    7.2805 C   0  0  0  0  0  0  0  0  0  0  0  0
    0.3539    4.3424    6.0889 C   0  0  0  0  0  0  0  0  0  0  0  0
    0.0011    3.0624    5.7384 C   0  0  0  0  0  0  0  0  0  0  0  0
    0.3396    1.9982    6.5434 C   0  0  0  0  0  0  0  0  0  0  0  0
    1.0342    2.2293    7.7016 C   0  0  0  0  0  0  0  0  0  0  0  0
   -0.7135    2.7986    4.5523 O   0  0  0  0  0  0  0  0  0  0  0  0
   -0.0817    5.6895    5.0577 Cl  0  0  0  0  0  0  0  0  0  0  0  0
  1  2  2  0
  2  3  1  0
  3  4  2  0
  4  5  1  0
  5  6  2  0
  4  7  1  0
  7  8  1  0
  8  9  2  0
  9 10  1  0
 10 11  2  0
 11 12  1  0
 11 13  1  0
  8 14  1  0
 14 15  2  0
 15 16  1  0
 16 17  2  0
 17 18  1  0
 18 19  2  0
 17 20  1  0
 16 21  1  0
  6  1  1  0
 12  7  2  0
 19 14  1  0
M  END
$$$$
