
     RDKit          3D

 21 23  0  0  0  0  0  0  0  0999 V2000
    2.8579   -0.6876    6.5923 C   0  0  0  0  0  0  0  0  0  0  0  0
    4.0202   -0.2846    7.2210 C   0  0  0  0  0  0  0  0  0  0  0  0
    3.9531    0.7320    8.1205 C   0  0  0  0  0  0  0  0  0  0  0  0
    2.7746    1.4122    8.4632 C   0  0  0  0  0  0  0  0  0  0  0  0
    1.6402    0.9865    7.8205 C   0  0  0  0  0  0  0  0  0  0  0  0
    1.6635   -0.0416    6.9005 C   0  0  0  0  0  0  0  0  0  0  0  0
    2.8869    2.4555    9.4289 C   0  0  0  0  0  0  0  0  0  0  0  0
    2.2398    3.6532    9.4104 C   0  0  0  0  0  0  0  0  0  0  0  0
    2.3949    4.5945   10.3641 N   0  0  0  0  0  0  0  0  0  0  0  0
    3.2076    4.3732   11.3787 N   0  0  0  0  0  0  0  0  0  0  0  0
    3.8749    3.2070   11.4509 C   0  0  0  0  0  0  0  0  0  0  0  0
    3.7183    2.2764   10.5033 N   0  0  0  0  0  0  0  0  0  0  0  0
    4.7315    3.0093   12.5481 N   0  0  0  0  0  0  0  0  0  0  0  0
    1.3568    3.9192    8.3236 C   0  0  0  0  0  0  0  0  0  0  0  0
    0.0599    4.3346    8.5190 C   0  0  0  0  0  0  0  0  0  0  0  0
   -0.7791    4.5887    7.4238 C   0  0  0  0  0  0  0  0  0  0  0  0
   -0.2849    4.4161    6.1542 C   0  0  0  0  0  0  0  0  0  0  0  0
    1.0129    4.0003    5.9593 C   0  0  0  0  0  0  0  0  0  0  0  0
    1.8094    3.7596    7.0478 C   0  0  0  0  0  0  0  0  0  0  0  0
   -1.0842    4.6570    5.0183 O   0  0  0  0  0  0  0  0  0  0  0  0
   -2.4318    5.1180    7.6610 Cl  0  0  0  0  0  0  0  0  0  0  0  0
  1  2  2  0
  2  3  1  0
  3  4  2  0
  4  5  1  0
  5  6  2  0
  4  7  1  0
  7  8  1  0
  8  9  2  0
  9 10  1  0
 10 11  2  0
 11 12  1  0
 11 13  1  0
  8 14  1  0
 14 15  2  0
 15 16  1  0
 16 17  2  0
 17 18  1  0
 18 19  2  0
 17 20  1  0
 16 21  1  0
  6  1  1  0
 12  7  2  0
 19 14  1  0
M  END
$$$$
