
     RDKit          3D

 21 23  0  0  0  0  0  0  0  0999 V2000
    2.9727   -0.3076    6.4564 C   0  0  0  0  0  0  0  0  0  0  0  0
    4.1166    0.0690    7.1333 C   0  0  0  0  0  0  0  0  0  0  0  0
    4.0254    1.0544    8.0648 C   0  0  0  0  0  0  0  0  0  0  0  0
    2.8391    1.7272    8.3950 C   0  0  0  0  0  0  0  0  0  0  0  0
    1.7234    1.3283    7.7042 C   0  0  0  0  0  0  0  0  0  0  0  0
    1.7715    0.3322    6.7505 C   0  0  0  0  0  0  0  0  0  0  0  0
    2.9252    2.7364    9.3989 C   0  0  0  0  0  0  0  0  0  0  0  0
    2.2557    3.9216    9.4194 C   0  0  0  0  0  0  0  0  0  0  0  0
    2.3867    4.8301   10.4079 N   0  0  0  0  0  0  0  0  0  0  0  0
    3.1967    4.5871   11.4197 N   0  0  0  0  0  0  0  0  0  0  0  0
    3.8855    3.4317   11.4541 C   0  0  0  0  0  0  0  0  0  0  0  0
    3.7529    2.5336   10.4720 N   0  0  0  0  0  0  0  0  0  0  0  0
    4.7385    3.2101   12.5496 N   0  0  0  0  0  0  0  0  0  0  0  0
    1.3750    4.2106    8.3367 C   0  0  0  0  0  0  0  0  0  0  0  0
    1.7976    4.2037    7.0274 C   0  0  0  0  0  0  0  0  0  0  0  0
    0.9003    4.4913    5.9881 C   0  0  0  0  0  0  0  0  0  0  0  0
   -0.4058    4.7798    6.2987 C   0  0  0  0  0  0  0  0  0  0  0  0
   -0.8281    4.7866    7.6090 C   0  0  0  0  0  0  0  0  0  0  0  0
    0.0704    4.5019    8.6034 C   0  0  0  0  0  0  0  0  0  0  0  0
   -1.3492    5.0759    5.2940 O   0  0  0  0  0  0  0  0  0  0  0  0
    1.4275    4.4853    4.3178 Cl  0  0  0  0  0  0  0  0  0  0  0  0
  1  2  2  0
  2  3  1  0
  3  4  2  0
  4  5  1  0
  5  6  2  0
  4  7  1  0
  7  8  1  0
  8  9  2  0
  9 10  1  0
 10 11  2  0
 11 12  1  0
 11 13  1  0
  8 14  1  0
 14 15  2  0
 15 16  1  0
 16 17  2  0
 17 18  1  0
 18 19  2  0
 17 20  1  0
 16 21  1  0
  6  1  1  0
 12  7  2  0
 19 14  1  0
M  END
$$$$
