
     RDKit          3D

 21 23  0  0  0  0  0  0  0  0999 V2000
    2.2194   -0.3410    6.5772 C   0  0  0  0  0  0  0  0  0  0  0  0
    1.1543    0.0828    7.3483 C   0  0  0  0  0  0  0  0  0  0  0  0
    1.3714    1.0453    8.2829 C   0  0  0  0  0  0  0  0  0  0  0  0
    2.6144    1.6492    8.5265 C   0  0  0  0  0  0  0  0  0  0  0  0
    3.6491    1.2050    7.7435 C   0  0  0  0  0  0  0  0  0  0  0  0
    3.4726    0.2299    6.7832 C   0  0  0  0  0  0  0  0  0  0  0  0
    2.6616    2.6445    9.5467 C   0  0  0  0  0  0  0  0  0  0  0  0
    1.9624    3.8122    9.5759 C   0  0  0  0  0  0  0  0  0  0  0  0
    2.0572    4.7082   10.5799 N   0  0  0  0  0  0  0  0  0  0  0  0
    2.8592    4.4696   11.5991 N   0  0  0  0  0  0  0  0  0  0  0  0
    3.5761    3.3313   11.6255 C   0  0  0  0  0  0  0  0  0  0  0  0
    3.4793    2.4456   10.6281 N   0  0  0  0  0  0  0  0  0  0  0  0
    4.4194    3.1138   12.7294 N   0  0  0  0  0  0  0  0  0  0  0  0
    1.0895    4.0962    8.4855 C   0  0  0  0  0  0  0  0  0  0  0  0
    1.5228    4.0881    7.1797 C   0  0  0  0  0  0  0  0  0  0  0  0
    0.6331    4.3707    6.1326 C   0  0  0  0  0  0  0  0  0  0  0  0
   -0.6765    4.6553    6.4321 C   0  0  0  0  0  0  0  0  0  0  0  0
   -1.1095    4.6633    7.7389 C   0  0  0  0  0  0  0  0  0  0  0  0
   -0.2181    4.3836    8.7411 C   0  0  0  0  0  0  0  0  0  0  0  0
   -1.6127    4.9463    5.4192 O   0  0  0  0  0  0  0  0  0  0  0  0
    1.1738    4.3632    4.4667 Cl  0  0  0  0  0  0  0  0  0  0  0  0
  1  2  2  0
  2  3  1  0
  3  4  2  0
  4  5  1  0
  5  6  2  0
  4  7  1  0
  7  8  1  0
  8  9  2  0
  9 10  1  0
 10 11  2  0
 11 12  1  0
 11 13  1  0
  8 14  1  0
 14 15  2  0
 15 16  1  0
 16 17  2  0
 17 18  1  0
 18 19  2  0
 17 20  1  0
 16 21  1  0
  6  1  1  0
 12  7  2  0
 19 14  1  0
M  END
$$$$
