
     RDKit          3D

 21 23  0  0  0  0  0  0  0  0999 V2000
    2.6549   -0.2162    6.5205 C   0  0  0  0  0  0  0  0  0  0  0  0
    1.6179    0.6465    6.8187 C   0  0  0  0  0  0  0  0  0  0  0  0
    1.7804    1.5292    7.8393 C   0  0  0  0  0  0  0  0  0  0  0  0
    2.9395    1.6309    8.6237 C   0  0  0  0  0  0  0  0  0  0  0  0
    3.9484    0.7600    8.3003 C   0  0  0  0  0  0  0  0  0  0  0  0
    3.8252   -0.1520    7.2721 C   0  0  0  0  0  0  0  0  0  0  0  0
    2.9387    2.6159    9.6550 C   0  0  0  0  0  0  0  0  0  0  0  0
    2.2225    3.7735    9.6727 C   0  0  0  0  0  0  0  0  0  0  0  0
    2.2711    4.6601   10.6882 N   0  0  0  0  0  0  0  0  0  0  0  0
    3.0423    4.4219   11.7310 N   0  0  0  0  0  0  0  0  0  0  0  0
    3.7741    3.2934   11.7698 C   0  0  0  0  0  0  0  0  0  0  0  0
    3.7230    2.4170   10.7609 N   0  0  0  0  0  0  0  0  0  0  0  0
    4.5834    3.0761   12.8988 N   0  0  0  0  0  0  0  0  0  0  0  0
    1.3822    4.0567    8.5568 C   0  0  0  0  0  0  0  0  0  0  0  0
    0.0515    4.3736    8.7042 C   0  0  0  0  0  0  0  0  0  0  0  0
   -0.7436    4.6484    7.5816 C   0  0  0  0  0  0  0  0  0  0  0  0
   -0.1724    4.5960    6.3340 C   0  0  0  0  0  0  0  0  0  0  0  0
    1.1591    4.2788    6.1870 C   0  0  0  0  0  0  0  0  0  0  0  0
    1.9114    4.0151    7.3013 C   0  0  0  0  0  0  0  0  0  0  0  0
   -0.9250    4.8630    5.1723 O   0  0  0  0  0  0  0  0  0  0  0  0
   -2.4387    5.0529    7.7578 Cl  0  0  0  0  0  0  0  0  0  0  0  0
  1  2  2  0
  2  3  1  0
  3  4  2  0
  4  5  1  0
  5  6  2  0
  4  7  1  0
  7  8  1  0
  8  9  2  0
  9 10  1  0
 10 11  2  0
 11 12  1  0
 11 13  1  0
  8 14  1  0
 14 15  2  0
 15 16  1  0
 16 17  2  0
 17 18  1  0
 18 19  2  0
 17 20  1  0
 16 21  1  0
  6  1  1  0
 12  7  2  0
 19 14  1  0
M  END
$$$$
