
     RDKit          3D

 21 23  0  0  0  0  0  0  0  0999 V2000
    2.2841   -0.1446    6.1923 C   0  0  0  0  0  0  0  0  0  0  0  0
    1.7443    1.1269    6.1692 C   0  0  0  0  0  0  0  0  0  0  0  0
    2.0685    1.9885    7.1689 C   0  0  0  0  0  0  0  0  0  0  0  0
    2.9229    1.6784    8.2381 C   0  0  0  0  0  0  0  0  0  0  0  0
    3.4407    0.4084    8.2296 C   0  0  0  0  0  0  0  0  0  0  0  0
    3.1377   -0.4979    7.2341 C   0  0  0  0  0  0  0  0  0  0  0  0
    3.1545    2.7051    9.2003 C   0  0  0  0  0  0  0  0  0  0  0  0
    2.5780    3.9381    9.2280 C   0  0  0  0  0  0  0  0  0  0  0  0
    2.8456    4.8606   10.1751 N   0  0  0  0  0  0  0  0  0  0  0  0
    3.7050    4.5842   11.1364 N   0  0  0  0  0  0  0  0  0  0  0  0
    4.3068    3.3810   11.1611 C   0  0  0  0  0  0  0  0  0  0  0  0
    4.0387    2.4692   10.2202 N   0  0  0  0  0  0  0  0  0  0  0  0
    5.2164    3.1249   12.2022 N   0  0  0  0  0  0  0  0  0  0  0  0
    1.6467    4.2638    8.1993 C   0  0  0  0  0  0  0  0  0  0  0  0
    0.2869    4.1670    8.3854 C   0  0  0  0  0  0  0  0  0  0  0  0
   -0.5988    4.4986    7.3494 C   0  0  0  0  0  0  0  0  0  0  0  0
   -0.0869    4.9210    6.1473 C   0  0  0  0  0  0  0  0  0  0  0  0
    1.2738    5.0177    5.9616 C   0  0  0  0  0  0  0  0  0  0  0  0
    2.1150    4.6871    6.9913 C   0  0  0  0  0  0  0  0  0  0  0  0
   -0.9313    5.2667    5.0727 O   0  0  0  0  0  0  0  0  0  0  0  0
   -2.3316    4.3790    7.5754 Cl  0  0  0  0  0  0  0  0  0  0  0  0
  1  2  2  0
  2  3  1  0
  3  4  2  0
  4  5  1  0
  5  6  2  0
  4  7  1  0
  7  8  1  0
  8  9  2  0
  9 10  1  0
 10 11  2  0
 11 12  1  0
 11 13  1  0
  8 14  1  0
 14 15  2  0
 15 16  1  0
 16 17  2  0
 17 18  1  0
 18 19  2  0
 17 20  1  0
 16 21  1  0
  6  1  1  0
 12  7  2  0
 19 14  1  0
M  END
$$$$
