
     RDKit          3D

 21 23  0  0  0  0  0  0  0  0999 V2000
    3.1394   -0.4333    6.4371 C   0  0  0  0  0  0  0  0  0  0  0  0
    4.2796   -0.0030    7.0878 C   0  0  0  0  0  0  0  0  0  0  0  0
    4.1646    0.9833    8.0158 C   0  0  0  0  0  0  0  0  0  0  0  0
    2.9571    1.6058    8.3671 C   0  0  0  0  0  0  0  0  0  0  0  0
    1.8458    1.1543    7.7020 C   0  0  0  0  0  0  0  0  0  0  0  0
    1.9177    0.1553    6.7528 C   0  0  0  0  0  0  0  0  0  0  0  0
    3.0198    2.6240    9.3636 C   0  0  0  0  0  0  0  0  0  0  0  0
    2.3093    3.7851    9.3850 C   0  0  0  0  0  0  0  0  0  0  0  0
    2.4202    4.7042   10.3662 N   0  0  0  0  0  0  0  0  0  0  0  0
    3.2503    4.4964   11.3694 N   0  0  0  0  0  0  0  0  0  0  0  0
    3.9797    3.3662   11.4026 C   0  0  0  0  0  0  0  0  0  0  0  0
    3.8669    2.4575   10.4278 N   0  0  0  0  0  0  0  0  0  0  0  0
    4.8530    3.1818   12.4889 N   0  0  0  0  0  0  0  0  0  0  0  0
    1.4060    4.0359    8.3114 C   0  0  0  0  0  0  0  0  0  0  0  0
    1.8110    4.0262    6.9965 C   0  0  0  0  0  0  0  0  0  0  0  0
    0.8918    4.2756    5.9666 C   0  0  0  0  0  0  0  0  0  0  0  0
   -0.4179    4.5295    6.2920 C   0  0  0  0  0  0  0  0  0  0  0  0
   -0.8226    4.5391    7.6078 C   0  0  0  0  0  0  0  0  0  0  0  0
    0.0972    4.2921    8.5928 C   0  0  0  0  0  0  0  0  0  0  0  0
   -1.3830    4.7865    5.2972 O   0  0  0  0  0  0  0  0  0  0  0  0
    1.3964    4.2657    4.2894 Cl  0  0  0  0  0  0  0  0  0  0  0  0
  1  2  2  0
  2  3  1  0
  3  4  2  0
  4  5  1  0
  5  6  2  0
  4  7  1  0
  7  8  1  0
  8  9  2  0
  9 10  1  0
 10 11  2  0
 11 12  1  0
 11 13  1  0
  8 14  1  0
 14 15  2  0
 15 16  1  0
 16 17  2  0
 17 18  1  0
 18 19  2  0
 17 20  1  0
 16 21  1  0
  6  1  1  0
 12  7  2  0
 19 14  1  0
M  END
$$$$
