
     RDKit          3D

 21 23  0  0  0  0  0  0  0  0999 V2000
    3.5480   -0.3382    6.8166 C   0  0  0  0  0  0  0  0  0  0  0  0
    2.5300    0.5931    6.7452 C   0  0  0  0  0  0  0  0  0  0  0  0
    2.4880    1.5820    7.6765 C   0  0  0  0  0  0  0  0  0  0  0  0
    3.4146    1.7296    8.7199 C   0  0  0  0  0  0  0  0  0  0  0  0
    4.4113    0.7883    8.7608 C   0  0  0  0  0  0  0  0  0  0  0  0
    4.4912   -0.2321    7.8353 C   0  0  0  0  0  0  0  0  0  0  0  0
    3.2192    2.8277    9.6086 C   0  0  0  0  0  0  0  0  0  0  0  0
    2.3797    3.8834    9.4238 C   0  0  0  0  0  0  0  0  0  0  0  0
    2.2455    4.8885   10.3133 N   0  0  0  0  0  0  0  0  0  0  0  0
    2.9495    4.8767   11.4283 N   0  0  0  0  0  0  0  0  0  0  0  0
    3.7964    3.8585   11.6662 C   0  0  0  0  0  0  0  0  0  0  0  0
    3.9266    2.8639   10.7816 N   0  0  0  0  0  0  0  0  0  0  0  0
    4.5288    3.8825   12.8661 N   0  0  0  0  0  0  0  0  0  0  0  0
    1.6083    3.9222    8.2259 C   0  0  0  0  0  0  0  0  0  0  0  0
    0.8487    2.8533    7.8094 C   0  0  0  0  0  0  0  0  0  0  0  0
    0.1007    2.9299    6.6251 C   0  0  0  0  0  0  0  0  0  0  0  0
    0.1389    4.0884    5.8889 C   0  0  0  0  0  0  0  0  0  0  0  0
    0.8990    5.1577    6.3061 C   0  0  0  0  0  0  0  0  0  0  0  0
    1.6195    5.0544    7.4669 C   0  0  0  0  0  0  0  0  0  0  0  0
   -0.5932    4.2195    4.6914 O   0  0  0  0  0  0  0  0  0  0  0  0
   -0.8696    1.5752    6.0854 Cl  0  0  0  0  0  0  0  0  0  0  0  0
  1  2  2  0
  2  3  1  0
  3  4  2  0
  4  5  1  0
  5  6  2  0
  4  7  1  0
  7  8  1  0
  8  9  2  0
  9 10  1  0
 10 11  2  0
 11 12  1  0
 11 13  1  0
  8 14  1  0
 14 15  2  0
 15 16  1  0
 16 17  2  0
 17 18  1  0
 18 19  2  0
 17 20  1  0
 16 21  1  0
  6  1  1  0
 12  7  2  0
 19 14  1  0
M  END
$$$$
