
     RDKit          3D

 21 23  0  0  0  0  0  0  0  0999 V2000
    3.6703   -0.5154    6.8682 C   0  0  0  0  0  0  0  0  0  0  0  0
    3.4746    0.7844    6.4429 C   0  0  0  0  0  0  0  0  0  0  0  0
    3.2975    1.7542    7.3784 C   0  0  0  0  0  0  0  0  0  0  0  0
    3.2987    1.5304    8.7637 C   0  0  0  0  0  0  0  0  0  0  0  0
    3.4956    0.2294    9.1505 C   0  0  0  0  0  0  0  0  0  0  0  0
    3.6794   -0.7857    8.2341 C   0  0  0  0  0  0  0  0  0  0  0  0
    3.0985    2.6659    9.6029 C   0  0  0  0  0  0  0  0  0  0  0  0
    2.2597    3.7121    9.3682 C   0  0  0  0  0  0  0  0  0  0  0  0
    2.1207    4.7549   10.2127 N   0  0  0  0  0  0  0  0  0  0  0  0
    2.8191    4.7917   11.3306 N   0  0  0  0  0  0  0  0  0  0  0  0
    3.6651    3.7853   11.6167 C   0  0  0  0  0  0  0  0  0  0  0  0
    3.8000    2.7534   10.7768 N   0  0  0  0  0  0  0  0  0  0  0  0
    4.3914    3.8617   12.8181 N   0  0  0  0  0  0  0  0  0  0  0  0
    1.4943    3.6986    8.1659 C   0  0  0  0  0  0  0  0  0  0  0  0
    0.7833    2.5917    7.7632 C   0  0  0  0  0  0  0  0  0  0  0  0
    0.0396    2.6171    6.5741 C   0  0  0  0  0  0  0  0  0  0  0  0
    0.0328    3.7640    5.8190 C   0  0  0  0  0  0  0  0  0  0  0  0
    0.7444    4.8713    6.2224 C   0  0  0  0  0  0  0  0  0  0  0  0
    1.4619    4.8177    7.3884 C   0  0  0  0  0  0  0  0  0  0  0  0
   -0.6973    3.8443    4.6158 O   0  0  0  0  0  0  0  0  0  0  0  0
   -0.8692    1.2137    6.0519 Cl  0  0  0  0  0  0  0  0  0  0  0  0
  1  2  2  0
  2  3  1  0
  3  4  2  0
  4  5  1  0
  5  6  2  0
  4  7  1  0
  7  8  1  0
  8  9  2  0
  9 10  1  0
 10 11  2  0
 11 12  1  0
 11 13  1  0
  8 14  1  0
 14 15  2  0
 15 16  1  0
 16 17  2  0
 17 18  1  0
 18 19  2  0
 17 20  1  0
 16 21  1  0
  6  1  1  0
 12  7  2  0
 19 14  1  0
M  END
$$$$
