
     RDKit          3D

 21 23  0  0  0  0  0  0  0  0999 V2000
    2.3132   -0.1620    6.4926 C   0  0  0  0  0  0  0  0  0  0  0  0
    2.4275    1.1831    6.1991 C   0  0  0  0  0  0  0  0  0  0  0  0
    2.6792    2.0504    7.2147 C   0  0  0  0  0  0  0  0  0  0  0  0
    2.8339    1.6761    8.5582 C   0  0  0  0  0  0  0  0  0  0  0  0
    2.7144    0.3338    8.8137 C   0  0  0  0  0  0  0  0  0  0  0  0
    2.4592   -0.5808    7.8125 C   0  0  0  0  0  0  0  0  0  0  0  0
    3.0954    2.7192    9.4948 C   0  0  0  0  0  0  0  0  0  0  0  0
    2.4935    3.9394    9.5413 C   0  0  0  0  0  0  0  0  0  0  0  0
    2.7924    4.8790   10.4619 N   0  0  0  0  0  0  0  0  0  0  0  0
    3.7099    4.6332   11.3766 N   0  0  0  0  0  0  0  0  0  0  0  0
    4.3392    3.4439   11.3808 C   0  0  0  0  0  0  0  0  0  0  0  0
    4.0399    2.5151   10.4663 N   0  0  0  0  0  0  0  0  0  0  0  0
    5.3108    3.2205   12.3723 N   0  0  0  0  0  0  0  0  0  0  0  0
    1.4994    4.2321    8.5627 C   0  0  0  0  0  0  0  0  0  0  0  0
    0.3067    3.5487    8.5037 C   0  0  0  0  0  0  0  0  0  0  0  0
   -0.6486    3.8669    7.5270 C   0  0  0  0  0  0  0  0  0  0  0  0
   -0.3741    4.8709    6.6314 C   0  0  0  0  0  0  0  0  0  0  0  0
    0.8194    5.5544    6.6909 C   0  0  0  0  0  0  0  0  0  0  0  0
    1.7338    5.2220    7.6555 C   0  0  0  0  0  0  0  0  0  0  0  0
   -1.2982    5.2316    5.6298 O   0  0  0  0  0  0  0  0  0  0  0  0
   -2.1702    3.0034    7.4428 Cl  0  0  0  0  0  0  0  0  0  0  0  0
  1  2  2  0
  2  3  1  0
  3  4  2  0
  4  5  1  0
  5  6  2  0
  4  7  1  0
  7  8  1  0
  8  9  2  0
  9 10  1  0
 10 11  2  0
 11 12  1  0
 11 13  1  0
  8 14  1  0
 14 15  2  0
 15 16  1  0
 16 17  2  0
 17 18  1  0
 18 19  2  0
 17 20  1  0
 16 21  1  0
  6  1  1  0
 12  7  2  0
 19 14  1  0
M  END
$$$$
