
     RDKit          3D

 21 23  0  0  0  0  0  0  0  0999 V2000
    2.4057   -0.3264    6.7019 C   0  0  0  0  0  0  0  0  0  0  0  0
    2.1755    1.0093    6.4348 C   0  0  0  0  0  0  0  0  0  0  0  0
    2.3377    1.9099    7.4396 C   0  0  0  0  0  0  0  0  0  0  0  0
    2.7270    1.5794    8.7466 C   0  0  0  0  0  0  0  0  0  0  0  0
    2.9471    0.2453    8.9766 C   0  0  0  0  0  0  0  0  0  0  0  0
    2.7941   -0.7022    7.9851 C   0  0  0  0  0  0  0  0  0  0  0  0
    2.8494    2.6535    9.6767 C   0  0  0  0  0  0  0  0  0  0  0  0
    2.0707    3.7685    9.7376 C   0  0  0  0  0  0  0  0  0  0  0  0
    2.2454    4.7459   10.6508 N   0  0  0  0  0  0  0  0  0  0  0  0
    3.2108    4.6452   11.5434 N   0  0  0  0  0  0  0  0  0  0  0  0
    4.0132    3.5651   11.5325 C   0  0  0  0  0  0  0  0  0  0  0  0
    3.8366    2.5984   10.6254 N   0  0  0  0  0  0  0  0  0  0  0  0
    5.0305    3.4952   12.5005 N   0  0  0  0  0  0  0  0  0  0  0  0
    1.0209    3.9036    8.7831 C   0  0  0  0  0  0  0  0  0  0  0  0
    1.0112    4.9079    7.8428 C   0  0  0  0  0  0  0  0  0  0  0  0
   -0.0389    5.0072    6.9179 C   0  0  0  0  0  0  0  0  0  0  0  0
   -1.0564    4.0863    6.9665 C   0  0  0  0  0  0  0  0  0  0  0  0
   -1.0462    3.0816    7.9076 C   0  0  0  0  0  0  0  0  0  0  0  0
   -0.0076    3.0092    8.7983 C   0  0  0  0  0  0  0  0  0  0  0  0
   -2.1358    4.1393    6.0614 O   0  0  0  0  0  0  0  0  0  0  0  0
   -0.0613    6.2817    5.7166 Cl  0  0  0  0  0  0  0  0  0  0  0  0
  1  2  2  0
  2  3  1  0
  3  4  2  0
  4  5  1  0
  5  6  2  0
  4  7  1  0
  7  8  1  0
  8  9  2  0
  9 10  1  0
 10 11  2  0
 11 12  1  0
 11 13  1  0
  8 14  1  0
 14 15  2  0
 15 16  1  0
 16 17  2  0
 17 18  1  0
 18 19  2  0
 17 20  1  0
 16 21  1  0
  6  1  1  0
 12  7  2  0
 19 14  1  0
M  END
$$$$
