
     RDKit          3D

 21 23  0  0  0  0  0  0  0  0999 V2000
    3.4484   -0.6450    6.5415 C   0  0  0  0  0  0  0  0  0  0  0  0
    4.5301   -0.2002    7.2769 C   0  0  0  0  0  0  0  0  0  0  0  0
    4.3420    0.8165    8.1589 C   0  0  0  0  0  0  0  0  0  0  0  0
    3.1136    1.4572    8.3815 C   0  0  0  0  0  0  0  0  0  0  0  0
    2.0617    0.9907    7.6351 C   0  0  0  0  0  0  0  0  0  0  0  0
    2.2087   -0.0392    6.7285 C   0  0  0  0  0  0  0  0  0  0  0  0
    3.0966    2.5070    9.3465 C   0  0  0  0  0  0  0  0  0  0  0  0
    2.4324    3.6912    9.2475 C   0  0  0  0  0  0  0  0  0  0  0  0
    2.4612    4.6399   10.2061 N   0  0  0  0  0  0  0  0  0  0  0  0
    3.1594    4.4398   11.3067 N   0  0  0  0  0  0  0  0  0  0  0  0
    3.8371    3.2877   11.4611 C   0  0  0  0  0  0  0  0  0  0  0  0
    3.8058    2.3497   10.5083 N   0  0  0  0  0  0  0  0  0  0  0  0
    4.5691    3.1125   12.6486 N   0  0  0  0  0  0  0  0  0  0  0  0
    1.6715    3.9343    8.0670 C   0  0  0  0  0  0  0  0  0  0  0  0
    0.3640    4.3598    8.1134 C   0  0  0  0  0  0  0  0  0  0  0  0
   -0.3522    4.5905    6.9294 C   0  0  0  0  0  0  0  0  0  0  0  0
    0.2728    4.3848    5.7241 C   0  0  0  0  0  0  0  0  0  0  0  0
    1.5812    3.9591    5.6782 C   0  0  0  0  0  0  0  0  0  0  0  0
    2.2559    3.7417    6.8507 C   0  0  0  0  0  0  0  0  0  0  0  0
   -0.3997    4.6013    4.5043 O   0  0  0  0  0  0  0  0  0  0  0  0
   -2.0171    5.1322    6.9769 Cl  0  0  0  0  0  0  0  0  0  0  0  0
  1  2  2  0
  2  3  1  0
  3  4  2  0
  4  5  1  0
  5  6  2  0
  4  7  1  0
  7  8  1  0
  8  9  2  0
  9 10  1  0
 10 11  2  0
 11 12  1  0
 11 13  1  0
  8 14  1  0
 14 15  2  0
 15 16  1  0
 16 17  2  0
 17 18  1  0
 18 19  2  0
 17 20  1  0
 16 21  1  0
  6  1  1  0
 12  7  2  0
 19 14  1  0
M  END
$$$$
