
     RDKit          3D

 21 23  0  0  0  0  0  0  0  0999 V2000
    2.9003   -0.5543    6.8865 C   0  0  0  0  0  0  0  0  0  0  0  0
    1.8193    0.2253    7.2504 C   0  0  0  0  0  0  0  0  0  0  0  0
    2.0217    1.2527    8.1168 C   0  0  0  0  0  0  0  0  0  0  0  0
    3.2645    1.5853    8.6771 C   0  0  0  0  0  0  0  0  0  0  0  0
    4.3152    0.7912    8.2943 C   0  0  0  0  0  0  0  0  0  0  0  0
    4.1539   -0.2619    7.4173 C   0  0  0  0  0  0  0  0  0  0  0  0
    3.2955    2.6975    9.5692 C   0  0  0  0  0  0  0  0  0  0  0  0
    2.6032    3.8625    9.4399 C   0  0  0  0  0  0  0  0  0  0  0  0
    2.6814    4.8740   10.3291 N   0  0  0  0  0  0  0  0  0  0  0  0
    3.4593    4.7587   11.3876 N   0  0  0  0  0  0  0  0  0  0  0  0
    4.1684    3.6296   11.5688 C   0  0  0  0  0  0  0  0  0  0  0  0
    4.0880    2.6291   10.6849 N   0  0  0  0  0  0  0  0  0  0  0  0
    4.9858    3.5455   12.7097 N   0  0  0  0  0  0  0  0  0  0  0  0
    1.7563    4.0143    8.3036 C   0  0  0  0  0  0  0  0  0  0  0  0
    0.4833    3.4937    8.2646 C   0  0  0  0  0  0  0  0  0  0  0  0
   -0.3216    3.6656    7.1286 C   0  0  0  0  0  0  0  0  0  0  0  0
    0.1814    4.3615    6.0570 C   0  0  0  0  0  0  0  0  0  0  0  0
    1.4552    4.8821    6.0965 C   0  0  0  0  0  0  0  0  0  0  0  0
    2.2188    4.6986    7.2193 C   0  0  0  0  0  0  0  0  0  0  0  0
   -0.5841    4.5637    4.8907 O   0  0  0  0  0  0  0  0  0  0  0  0
   -1.9436    3.0072    7.0682 Cl  0  0  0  0  0  0  0  0  0  0  0  0
  1  2  2  0
  2  3  1  0
  3  4  2  0
  4  5  1  0
  5  6  2  0
  4  7  1  0
  7  8  1  0
  8  9  2  0
  9 10  1  0
 10 11  2  0
 11 12  1  0
 11 13  1  0
  8 14  1  0
 14 15  2  0
 15 16  1  0
 16 17  2  0
 17 18  1  0
 18 19  2  0
 17 20  1  0
 16 21  1  0
  6  1  1  0
 12  7  2  0
 19 14  1  0
M  END
$$$$
