
     RDKit          3D

 21 23  0  0  0  0  0  0  0  0999 V2000
    2.9744   -0.4517    6.2978 C   0  0  0  0  0  0  0  0  0  0  0  0
    1.8646    0.2670    6.6985 C   0  0  0  0  0  0  0  0  0  0  0  0
    2.0132    1.2005    7.6750 C   0  0  0  0  0  0  0  0  0  0  0  0
    3.2271    1.4929    8.3155 C   0  0  0  0  0  0  0  0  0  0  0  0
    4.3076    0.7613    7.8932 C   0  0  0  0  0  0  0  0  0  0  0  0
    4.2010   -0.1960    6.9051 C   0  0  0  0  0  0  0  0  0  0  0  0
    3.2016    2.5051    9.3197 C   0  0  0  0  0  0  0  0  0  0  0  0
    2.5240    3.6848    9.2676 C   0  0  0  0  0  0  0  0  0  0  0  0
    2.5456    4.5967   10.2614 N   0  0  0  0  0  0  0  0  0  0  0  0
    3.2494    4.3627   11.3517 N   0  0  0  0  0  0  0  0  0  0  0  0
    3.9403    3.2133   11.4603 C   0  0  0  0  0  0  0  0  0  0  0  0
    3.9164    2.3118   10.4727 N   0  0  0  0  0  0  0  0  0  0  0  0
    4.6781    3.0013   12.6383 N   0  0  0  0  0  0  0  0  0  0  0  0
    1.7567    3.9639    8.0993 C   0  0  0  0  0  0  0  0  0  0  0  0
    0.4419    4.3636    8.1653 C   0  0  0  0  0  0  0  0  0  0  0  0
   -0.2805    4.6313    6.9930 C   0  0  0  0  0  0  0  0  0  0  0  0
    0.3457    4.4881    5.7793 C   0  0  0  0  0  0  0  0  0  0  0  0
    1.6613    4.0882    5.7139 C   0  0  0  0  0  0  0  0  0  0  0  0
    2.3421    3.8335    6.8753 C   0  0  0  0  0  0  0  0  0  0  0  0
   -0.3329    4.7439    4.5705 O   0  0  0  0  0  0  0  0  0  0  0  0
   -1.9548    5.1407    7.0653 Cl  0  0  0  0  0  0  0  0  0  0  0  0
  1  2  2  0
  2  3  1  0
  3  4  2  0
  4  5  1  0
  5  6  2  0
  4  7  1  0
  7  8  1  0
  8  9  2  0
  9 10  1  0
 10 11  2  0
 11 12  1  0
 11 13  1  0
  8 14  1  0
 14 15  2  0
 15 16  1  0
 16 17  2  0
 17 18  1  0
 18 19  2  0
 17 20  1  0
 16 21  1  0
  6  1  1  0
 12  7  2  0
 19 14  1  0
M  END
$$$$
