
     RDKit          3D

 21 23  0  0  0  0  0  0  0  0999 V2000
    2.8793   -0.2945    6.3201 C   0  0  0  0  0  0  0  0  0  0  0  0
    1.7466    0.3649    6.7567 C   0  0  0  0  0  0  0  0  0  0  0  0
    1.8759    1.3014    7.7331 C   0  0  0  0  0  0  0  0  0  0  0  0
    3.0916    1.6534    8.3393 C   0  0  0  0  0  0  0  0  0  0  0  0
    4.1952    0.9795    7.8820 C   0  0  0  0  0  0  0  0  0  0  0  0
    4.1086    0.0215    6.8926 C   0  0  0  0  0  0  0  0  0  0  0  0
    3.0440    2.6594    9.3489 C   0  0  0  0  0  0  0  0  0  0  0  0
    2.3429    3.8254    9.3020 C   0  0  0  0  0  0  0  0  0  0  0  0
    2.3444    4.7321   10.3007 N   0  0  0  0  0  0  0  0  0  0  0  0
    3.0508    4.5065   11.3911 N   0  0  0  0  0  0  0  0  0  0  0  0
    3.7645    3.3705   11.4948 C   0  0  0  0  0  0  0  0  0  0  0  0
    3.7604    2.4742   10.5023 N   0  0  0  0  0  0  0  0  0  0  0  0
    4.5043    3.1670   12.6729 N   0  0  0  0  0  0  0  0  0  0  0  0
    1.5723    4.0954    8.1338 C   0  0  0  0  0  0  0  0  0  0  0  0
    0.2613    4.5076    8.2007 C   0  0  0  0  0  0  0  0  0  0  0  0
   -0.4646    4.7658    7.0284 C   0  0  0  0  0  0  0  0  0  0  0  0
    0.1543    4.6006    5.8137 C   0  0  0  0  0  0  0  0  0  0  0  0
    1.4660    4.1881    5.7473 C   0  0  0  0  0  0  0  0  0  0  0  0
    2.1504    3.9432    6.9088 C   0  0  0  0  0  0  0  0  0  0  0  0
   -0.5281    4.8459    4.6049 O   0  0  0  0  0  0  0  0  0  0  0  0
   -2.1339    5.2909    7.1020 Cl  0  0  0  0  0  0  0  0  0  0  0  0
  1  2  2  0
  2  3  1  0
  3  4  2  0
  4  5  1  0
  5  6  2  0
  4  7  1  0
  7  8  1  0
  8  9  2  0
  9 10  1  0
 10 11  2  0
 11 12  1  0
 11 13  1  0
  8 14  1  0
 14 15  2  0
 15 16  1  0
 16 17  2  0
 17 18  1  0
 18 19  2  0
 17 20  1  0
 16 21  1  0
  6  1  1  0
 12  7  2  0
 19 14  1  0
M  END
$$$$
