
     RDKit          3D

 49 53  0  0  0  0  0  0  0  0999 V2000
    4.2932    0.0676    4.1505 C   0  0  0  0  0  0  0  0  0  0  0  0
    5.5886    0.3231    4.8502 C   0  0  0  0  0  0  0  0  0  0  0  0
    5.6721    0.6310    6.1895 C   0  0  0  0  0  0  0  0  0  0  0  0
    6.8989    0.8348    6.7689 C   0  0  0  0  0  0  0  0  0  0  0  0
    8.0282    0.7323    6.0112 C   0  0  0  0  0  0  0  0  0  0  0  0
    8.0033    0.4328    4.6880 C   0  0  0  0  0  0  0  0  0  0  0  0
    6.7608    0.2236    4.0951 C   0  0  0  0  0  0  0  0  0  0  0  0
    7.0465    1.1575    8.2161 C   0  0  0  0  0  0  0  0  0  0  0  0
    4.4600    0.7515    6.9428 N   0  0  0  0  0  0  0  0  0  0  0  0
    4.2053   -0.2330    7.9477 C   0  0  0  0  0  0  0  0  0  0  0  0
    5.1525   -0.7717    8.5870 O   0  0  0  0  0  0  0  0  0  0  0  0
    2.8107   -0.6494    8.2725 C   0  0  0  0  0  0  0  0  0  0  0  0
    2.0626    0.5290    8.7937 C   0  0  0  0  0  0  0  0  0  0  0  0
    0.7501    0.3064    9.1523 O   0  0  0  0  0  0  0  0  0  0  0  0
    0.0894    0.9829   10.2059 C   0  0  0  0  0  0  0  0  0  0  0  0
    0.7518    1.8763   10.9402 N   0  0  0  0  0  0  0  0  0  0  0  0
    0.2214    2.5796   11.9698 C   0  0  0  0  0  0  0  0  0  0  0  0
   -1.0643    2.3189   12.2300 N   0  0  0  0  0  0  0  0  0  0  0  0
   -1.8239    1.4295   11.5470 C   0  0  0  0  0  0  0  0  0  0  0  0
   -1.2409    0.7315   10.4919 C   0  0  0  0  0  0  0  0  0  0  0  0
   -1.9499   -0.1880    9.7269 O   0  0  0  0  0  0  0  0  0  0  0  0
   -2.3113   -0.0061    8.3894 C   0  0  0  0  0  0  0  0  0  0  0  0
   -1.3494    0.3259    7.4441 C   0  0  0  0  0  0  0  0  0  0  0  0
   -1.6726    0.5014    6.1311 C   0  0  0  0  0  0  0  0  0  0  0  0
   -2.9849    0.3505    5.7040 C   0  0  0  0  0  0  0  0  0  0  0  0
   -3.9365    0.0202    6.6523 C   0  0  0  0  0  0  0  0  0  0  0  0
   -3.6163   -0.1610    7.9969 C   0  0  0  0  0  0  0  0  0  0  0  0
   -4.6288   -0.4930    8.8966 O   0  0  0  0  0  0  0  0  0  0  0  0
   -5.5400   -1.5135    8.5766 C   0  0  0  0  0  0  0  0  0  0  0  0
   -3.1578    1.2017   11.9244 N   0  0  0  0  0  0  0  0  0  0  0  0
   -3.7456    0.7436   13.4410 S   0  0  0  0  0  6  0  0  0  0  0  0
   -2.5791    0.3830   14.3654 O   0  0  0  0  0  0  0  0  0  0  0  0
   -4.4279    1.9089   14.1438 O   0  0  0  0  0  0  0  0  0  0  0  0
   -4.8570   -0.5954   13.4265 C   0  0  0  0  0  0  0  0  0  0  0  0
   -4.8634   -1.6236   14.3271 C   0  0  0  0  0  0  0  0  0  0  0  0
   -5.7672   -2.6864   14.2284 C   0  0  0  0  0  0  0  0  0  0  0  0
   -6.6770   -2.7363   13.2250 C   0  0  0  0  0  0  0  0  0  0  0  0
   -6.6993   -1.7069   12.2917 C   0  0  0  0  0  0  0  0  0  0  0  0
   -5.8122   -0.6641   12.3910 C   0  0  0  0  0  0  0  0  0  0  0  0
   -7.6189   -3.8786   13.1469 C   0  0  0  0  0  0  0  0  0  0  0  0
   -6.8406   -5.1778   13.1759 C   0  0  0  0  0  0  0  0  0  0  0  0
   -8.3280   -3.8425   11.7979 C   0  0  0  0  0  0  0  0  0  0  0  0
   -8.5718   -3.8458   14.3012 C   0  0  0  0  0  0  0  0  0  0  0  0
    1.0417    3.5435   12.7070 C   0  0  0  0  0  0  0  0  0  0  0  0
    2.2974    3.8425   12.4572 N   0  0  0  0  0  0  0  0  0  0  0  0
    2.9591    4.7519   13.2215 C   0  0  0  0  0  0  0  0  0  0  0  0
    2.3573    5.4019   14.2843 C   0  0  0  0  0  0  0  0  0  0  0  0
    1.0245    5.0729   14.5340 C   0  0  0  0  0  0  0  0  0  0  0  0
    0.4334    4.1751   13.7511 N   0  0  0  0  0  0  0  0  0  0  0  0
  1  2  1  0
  2  3  2  0
  3  4  1  0
  4  5  2  0
  5  6  1  0
  6  7  2  0
  4  8  1  0
  3  9  1  0
  9 10  1  0
 10 11  2  0
 10 12  1  0
 12 13  1  0
 13 14  1  0
 14 15  1  0
 15 16  2  0
 16 17  1  0
 17 18  2  0
 18 19  1  0
 19 20  2  0
 20 21  1  0
 21 22  1  0
 22 23  2  0
 23 24  1  0
 24 25  2  0
 25 26  1  0
 26 27  2  0
 27 28  1  0
 28 29  1  0
 19 30  1  0
 30 31  1  0
 31 32  2  0
 31 33  2  0
 31 34  1  0
 34 35  2  0
 35 36  1  0
 36 37  2  0
 37 38  1  0
 38 39  2  0
 37 40  1  0
 40 41  1  0
 40 42  1  0
 40 43  1  0
 17 44  1  0
 44 45  2  0
 45 46  1  0
 46 47  2  0
 47 48  1  0
 48 49  2  0
  7  2  1  0
 20 15  1  0
 27 22  1  0
 39 34  1  0
 49 44  1  0
M  END
$$$$
