
     RDKit          3D

 49 53  0  0  0  0  0  0  0  0999 V2000
   -4.8995    3.4781   11.7305 C   0  0  0  0  0  0  0  0  0  0  0  0
   -5.9673    3.5128   12.7753 C   0  0  0  0  0  0  0  0  0  0  0  0
   -6.0067    2.6403   13.8396 C   0  0  0  0  0  0  0  0  0  0  0  0
   -7.0084    2.7436   14.7715 C   0  0  0  0  0  0  0  0  0  0  0  0
   -7.9600    3.7107   14.6345 C   0  0  0  0  0  0  0  0  0  0  0  0
   -7.9693    4.5952   13.6055 C   0  0  0  0  0  0  0  0  0  0  0  0
   -6.9542    4.4957   12.6575 C   0  0  0  0  0  0  0  0  0  0  0  0
   -7.0906    1.8338   15.9487 C   0  0  0  0  0  0  0  0  0  0  0  0
   -5.0009    1.6249   13.9323 N   0  0  0  0  0  0  0  0  0  0  0  0
   -5.3842    0.2837   13.6188 C   0  0  0  0  0  0  0  0  0  0  0  0
   -6.5971   -0.0229   13.4427 O   0  0  0  0  0  0  0  0  0  0  0  0
   -4.3601   -0.7922   13.4872 C   0  0  0  0  0  0  0  0  0  0  0  0
   -3.1894   -0.2569   12.7369 C   0  0  0  0  0  0  0  0  0  0  0  0
   -2.1994   -1.1645   12.4258 O   0  0  0  0  0  0  0  0  0  0  0  0
   -1.0053   -0.8333   11.7412 C   0  0  0  0  0  0  0  0  0  0  0  0
   -0.0391   -0.1688   12.3744 N   0  0  0  0  0  0  0  0  0  0  0  0
    1.1406    0.1997   11.8188 C   0  0  0  0  0  0  0  0  0  0  0  0
    1.2963   -0.1503   10.5375 N   0  0  0  0  0  0  0  0  0  0  0  0
    0.3764   -0.8225    9.8049 C   0  0  0  0  0  0  0  0  0  0  0  0
   -0.8208   -1.1872   10.4163 C   0  0  0  0  0  0  0  0  0  0  0  0
   -1.8137   -1.8922    9.7450 O   0  0  0  0  0  0  0  0  0  0  0  0
   -2.1157   -3.2409    9.9514 C   0  0  0  0  0  0  0  0  0  0  0  0
   -1.5002   -3.9463   10.9774 C   0  0  0  0  0  0  0  0  0  0  0  0
   -1.7820   -5.2606   11.2063 C   0  0  0  0  0  0  0  0  0  0  0  0
   -2.7007   -5.9315   10.4106 C   0  0  0  0  0  0  0  0  0  0  0  0
   -3.3087   -5.2213    9.3908 C   0  0  0  0  0  0  0  0  0  0  0  0
   -3.0272   -3.8777    9.1484 C   0  0  0  0  0  0  0  0  0  0  0  0
   -3.6789   -3.2262    8.1017 O   0  0  0  0  0  0  0  0  0  0  0  0
   -3.6484   -3.7774    6.8097 C   0  0  0  0  0  0  0  0  0  0  0  0
    0.6228   -1.1106    8.4522 N   0  0  0  0  0  0  0  0  0  0  0  0
    1.7623   -0.3978    7.4281 S   0  0  0  0  0  6  0  0  0  0  0  0
    3.1591   -0.9406    7.7436 O   0  0  0  0  0  0  0  0  0  0  0  0
    1.5287   -0.7984    5.9781 O   0  0  0  0  0  0  0  0  0  0  0  0
    1.8300    1.3398    7.4973 C   0  0  0  0  0  0  0  0  0  0  0  0
    0.9219    2.1868    6.9261 C   0  0  0  0  0  0  0  0  0  0  0  0
    1.0640    3.5766    6.9937 C   0  0  0  0  0  0  0  0  0  0  0  0
    2.1187    4.1388    7.6328 C   0  0  0  0  0  0  0  0  0  0  0  0
    3.0609    3.3072    8.2259 C   0  0  0  0  0  0  0  0  0  0  0  0
    2.9192    1.9436    8.1595 C   0  0  0  0  0  0  0  0  0  0  0  0
    2.2416    5.6155    7.6836 C   0  0  0  0  0  0  0  0  0  0  0  0
    3.4074    5.9947    8.5734 C   0  0  0  0  0  0  0  0  0  0  0  0
    0.9979    6.1920    8.3504 C   0  0  0  0  0  0  0  0  0  0  0  0
    2.4676    6.1653    6.3095 C   0  0  0  0  0  0  0  0  0  0  0  0
    2.1367    0.9243   12.6114 C   0  0  0  0  0  0  0  0  0  0  0  0
    3.3754    1.1797   12.2521 N   0  0  0  0  0  0  0  0  0  0  0  0
    4.2129    1.8565   13.0825 C   0  0  0  0  0  0  0  0  0  0  0  0
    3.8139    2.3068   14.3284 C   0  0  0  0  0  0  0  0  0  0  0  0
    2.4961    2.0277   14.6924 C   0  0  0  0  0  0  0  0  0  0  0  0
    1.7272    1.3610   13.8364 N   0  0  0  0  0  0  0  0  0  0  0  0
  1  2  1  0
  2  3  2  0
  3  4  1  0
  4  5  2  0
  5  6  1  0
  6  7  2  0
  4  8  1  0
  3  9  1  0
  9 10  1  0
 10 11  2  0
 10 12  1  0
 12 13  1  0
 13 14  1  0
 14 15  1  0
 15 16  2  0
 16 17  1  0
 17 18  2  0
 18 19  1  0
 19 20  2  0
 20 21  1  0
 21 22  1  0
 22 23  2  0
 23 24  1  0
 24 25  2  0
 25 26  1  0
 26 27  2  0
 27 28  1  0
 28 29  1  0
 19 30  1  0
 30 31  1  0
 31 32  2  0
 31 33  2  0
 31 34  1  0
 34 35  2  0
 35 36  1  0
 36 37  2  0
 37 38  1  0
 38 39  2  0
 37 40  1  0
 40 41  1  0
 40 42  1  0
 40 43  1  0
 17 44  1  0
 44 45  2  0
 45 46  1  0
 46 47  2  0
 47 48  1  0
 48 49  2  0
  7  2  1  0
 20 15  1  0
 27 22  1  0
 39 34  1  0
 49 44  1  0
M  END
$$$$
