
     RDKit          3D

 49 53  0  0  0  0  0  0  0  0999 V2000
    4.9132    1.8624    5.6071 C   0  0  0  0  0  0  0  0  0  0  0  0
    3.9562    0.7274    5.4373 C   0  0  0  0  0  0  0  0  0  0  0  0
    2.9155    0.4849    6.3054 C   0  0  0  0  0  0  0  0  0  0  0  0
    2.0644   -0.5664    6.0755 C   0  0  0  0  0  0  0  0  0  0  0  0
    2.2579   -1.3655    4.9876 C   0  0  0  0  0  0  0  0  0  0  0  0
    3.2672   -1.1725    4.1014 C   0  0  0  0  0  0  0  0  0  0  0  0
    4.1332   -0.1060    4.3291 C   0  0  0  0  0  0  0  0  0  0  0  0
    0.9152   -0.8653    6.9757 C   0  0  0  0  0  0  0  0  0  0  0  0
    2.7626    1.3348    7.4480 N   0  0  0  0  0  0  0  0  0  0  0  0
    2.8977    0.7369    8.7396 C   0  0  0  0  0  0  0  0  0  0  0  0
    3.2300   -0.4755    8.8648 O   0  0  0  0  0  0  0  0  0  0  0  0
    2.6529    1.5310    9.9779 C   0  0  0  0  0  0  0  0  0  0  0  0
    1.4071    2.3291    9.8028 C   0  0  0  0  0  0  0  0  0  0  0  0
    1.0789    3.1796   10.8370 O   0  0  0  0  0  0  0  0  0  0  0  0
    0.0880    2.9019   11.8093 C   0  0  0  0  0  0  0  0  0  0  0  0
    0.2986    3.2281   13.0842 N   0  0  0  0  0  0  0  0  0  0  0  0
   -0.5769    3.0092   14.0950 C   0  0  0  0  0  0  0  0  0  0  0  0
   -1.7203    2.4167   13.7347 N   0  0  0  0  0  0  0  0  0  0  0  0
   -2.0298    2.0435   12.4700 C   0  0  0  0  0  0  0  0  0  0  0  0
   -1.1037    2.2919   11.4596 C   0  0  0  0  0  0  0  0  0  0  0  0
   -1.3445    1.9571   10.1317 O   0  0  0  0  0  0  0  0  0  0  0  0
   -1.5433    0.6576    9.6578 C   0  0  0  0  0  0  0  0  0  0  0  0
   -1.0449   -0.4286   10.3654 C   0  0  0  0  0  0  0  0  0  0  0  0
   -1.2311   -1.7074    9.9304 C   0  0  0  0  0  0  0  0  0  0  0  0
   -1.9308   -1.9561    8.7575 C   0  0  0  0  0  0  0  0  0  0  0  0
   -2.4235   -0.8683    8.0590 C   0  0  0  0  0  0  0  0  0  0  0  0
   -2.2382    0.4428    8.4950 C   0  0  0  0  0  0  0  0  0  0  0  0
   -2.7633    1.4899    7.7384 O   0  0  0  0  0  0  0  0  0  0  0  0
   -2.5273    1.5377    6.3541 C   0  0  0  0  0  0  0  0  0  0  0  0
   -3.2456    1.3927   12.2020 N   0  0  0  0  0  0  0  0  0  0  0  0
   -4.1419    0.3981   13.2329 S   0  0  0  0  0  6  0  0  0  0  0  0
   -3.9035    0.8066   14.6894 O   0  0  0  0  0  0  0  0  0  0  0  0
   -5.6374    0.5995   13.0323 O   0  0  0  0  0  0  0  0  0  0  0  0
   -3.8087   -1.3038   13.0880 C   0  0  0  0  0  0  0  0  0  0  0  0
   -4.2991   -2.1220   12.1090 C   0  0  0  0  0  0  0  0  0  0  0  0
   -4.0153   -3.4913   12.0798 C   0  0  0  0  0  0  0  0  0  0  0  0
   -3.2375   -4.0620   13.0318 C   0  0  0  0  0  0  0  0  0  0  0  0
   -2.7211   -3.2594   14.0420 C   0  0  0  0  0  0  0  0  0  0  0  0
   -2.9999   -1.9157   14.0683 C   0  0  0  0  0  0  0  0  0  0  0  0
   -2.9584   -5.5169   12.9740 C   0  0  0  0  0  0  0  0  0  0  0  0
   -1.4916   -5.7615   13.2625 C   0  0  0  0  0  0  0  0  0  0  0  0
   -3.1954   -6.0090   11.5508 C   0  0  0  0  0  0  0  0  0  0  0  0
   -3.7903   -6.2458   13.9831 C   0  0  0  0  0  0  0  0  0  0  0  0
   -0.2438    3.4151   15.4624 C   0  0  0  0  0  0  0  0  0  0  0  0
   -1.0100    3.2713   16.5212 N   0  0  0  0  0  0  0  0  0  0  0  0
   -0.5923    3.6982   17.7428 C   0  0  0  0  0  0  0  0  0  0  0  0
    0.6408    4.2954   17.9353 C   0  0  0  0  0  0  0  0  0  0  0  0
    1.4407    4.4388   16.8010 C   0  0  0  0  0  0  0  0  0  0  0  0
    0.9748    4.0019   15.6346 N   0  0  0  0  0  0  0  0  0  0  0  0
  1  2  1  0
  2  3  2  0
  3  4  1  0
  4  5  2  0
  5  6  1  0
  6  7  2  0
  4  8  1  0
  3  9  1  0
  9 10  1  0
 10 11  2  0
 10 12  1  0
 12 13  1  0
 13 14  1  0
 14 15  1  0
 15 16  2  0
 16 17  1  0
 17 18  2  0
 18 19  1  0
 19 20  2  0
 20 21  1  0
 21 22  1  0
 22 23  2  0
 23 24  1  0
 24 25  2  0
 25 26  1  0
 26 27  2  0
 27 28  1  0
 28 29  1  0
 19 30  1  0
 30 31  1  0
 31 32  2  0
 31 33  2  0
 31 34  1  0
 34 35  2  0
 35 36  1  0
 36 37  2  0
 37 38  1  0
 38 39  2  0
 37 40  1  0
 40 41  1  0
 40 42  1  0
 40 43  1  0
 17 44  1  0
 44 45  2  0
 45 46  1  0
 46 47  2  0
 47 48  1  0
 48 49  2  0
  7  2  1  0
 20 15  1  0
 27 22  1  0
 39 34  1  0
 49 44  1  0
M  END
$$$$
