
     RDKit          3D

 49 53  0  0  0  0  0  0  0  0999 V2000
   -4.9390   -4.3097    7.9032 C   0  0  0  0  0  0  0  0  0  0  0  0
   -5.0864   -3.2647    6.8451 C   0  0  0  0  0  0  0  0  0  0  0  0
   -4.2858   -2.1469    6.7753 C   0  0  0  0  0  0  0  0  0  0  0  0
   -4.4673   -1.2382    5.7636 C   0  0  0  0  0  0  0  0  0  0  0  0
   -5.4429   -1.4491    4.8343 C   0  0  0  0  0  0  0  0  0  0  0  0
   -6.2601   -2.5321    4.8565 C   0  0  0  0  0  0  0  0  0  0  0  0
   -6.0793   -3.4584    5.8804 C   0  0  0  0  0  0  0  0  0  0  0  0
   -3.6205   -0.0190    5.6340 C   0  0  0  0  0  0  0  0  0  0  0  0
   -3.2888   -1.9527    7.7850 N   0  0  0  0  0  0  0  0  0  0  0  0
   -3.6589   -1.2019    8.9441 C   0  0  0  0  0  0  0  0  0  0  0  0
   -4.3721   -0.1637    8.8474 O   0  0  0  0  0  0  0  0  0  0  0  0
   -3.2153   -1.6270   10.3029 C   0  0  0  0  0  0  0  0  0  0  0  0
   -1.7267   -1.6838   10.3304 C   0  0  0  0  0  0  0  0  0  0  0  0
   -1.1356   -1.5500   11.5686 O   0  0  0  0  0  0  0  0  0  0  0  0
   -0.4838   -0.3750   12.0145 C   0  0  0  0  0  0  0  0  0  0  0  0
   -0.8134    0.1625   13.1886 N   0  0  0  0  0  0  0  0  0  0  0  0
   -0.2574    1.2820   13.7120 C   0  0  0  0  0  0  0  0  0  0  0  0
    0.6843    1.8535   12.9537 N   0  0  0  0  0  0  0  0  0  0  0  0
    1.0889    1.3895   11.7472 C   0  0  0  0  0  0  0  0  0  0  0  0
    0.4952    0.2324   11.2483 C   0  0  0  0  0  0  0  0  0  0  0  0
    0.8600   -0.3230   10.0269 O   0  0  0  0  0  0  0  0  0  0  0  0
    0.6231    0.2613    8.7798 C   0  0  0  0  0  0  0  0  0  0  0  0
   -0.4717    1.0959    8.5953 C   0  0  0  0  0  0  0  0  0  0  0  0
   -0.7223    1.6855    7.3917 C   0  0  0  0  0  0  0  0  0  0  0  0
    0.1203    1.4630    6.3109 C   0  0  0  0  0  0  0  0  0  0  0  0
    1.2080    0.6302    6.5036 C   0  0  0  0  0  0  0  0  0  0  0  0
    1.4726    0.0224    7.7299 C   0  0  0  0  0  0  0  0  0  0  0  0
    2.5883   -0.8056    7.8499 O   0  0  0  0  0  0  0  0  0  0  0  0
    2.8202   -1.4946    9.0523 C   0  0  0  0  0  0  0  0  0  0  0  0
    2.0622    2.0862   11.0116 N   0  0  0  0  0  0  0  0  0  0  0  0
    3.3656    2.9852   11.6018 S   0  0  0  0  0  6  0  0  0  0  0  0
    4.4668    2.0437   12.0977 O   0  0  0  0  0  0  0  0  0  0  0  0
    4.0338    3.7834   10.4911 O   0  0  0  0  0  0  0  0  0  0  0  0
    2.9765    4.0874   12.8911 C   0  0  0  0  0  0  0  0  0  0  0  0
    3.8143    5.0468   13.3870 C   0  0  0  0  0  0  0  0  0  0  0  0
    3.4424    5.8733   14.4523 C   0  0  0  0  0  0  0  0  0  0  0  0
    2.2265    5.7499   15.0382 C   0  0  0  0  0  0  0  0  0  0  0  0
    1.3488    4.7851   14.5587 C   0  0  0  0  0  0  0  0  0  0  0  0
    1.7151    3.9757   13.5124 C   0  0  0  0  0  0  0  0  0  0  0  0
    1.8643    6.6395   16.1677 C   0  0  0  0  0  0  0  0  0  0  0  0
    0.3791    6.5265   16.4432 C   0  0  0  0  0  0  0  0  0  0  0  0
    2.1070    8.0865   15.7541 C   0  0  0  0  0  0  0  0  0  0  0  0
    2.6272    6.2546   17.3971 C   0  0  0  0  0  0  0  0  0  0  0  0
   -0.6927    1.7825   15.0179 C   0  0  0  0  0  0  0  0  0  0  0  0
   -1.6629    1.2859   15.7534 N   0  0  0  0  0  0  0  0  0  0  0  0
   -1.9821    1.8461   16.9505 C   0  0  0  0  0  0  0  0  0  0  0  0
   -1.3142    2.9491   17.4521 C   0  0  0  0  0  0  0  0  0  0  0  0
   -0.2873    3.4620   16.6587 C   0  0  0  0  0  0  0  0  0  0  0  0
   -0.0242    2.8698   15.4974 N   0  0  0  0  0  0  0  0  0  0  0  0
  1  2  1  0
  2  3  2  0
  3  4  1  0
  4  5  2  0
  5  6  1  0
  6  7  2  0
  4  8  1  0
  3  9  1  0
  9 10  1  0
 10 11  2  0
 10 12  1  0
 12 13  1  0
 13 14  1  0
 14 15  1  0
 15 16  2  0
 16 17  1  0
 17 18  2  0
 18 19  1  0
 19 20  2  0
 20 21  1  0
 21 22  1  0
 22 23  2  0
 23 24  1  0
 24 25  2  0
 25 26  1  0
 26 27  2  0
 27 28  1  0
 28 29  1  0
 19 30  1  0
 30 31  1  0
 31 32  2  0
 31 33  2  0
 31 34  1  0
 34 35  2  0
 35 36  1  0
 36 37  2  0
 37 38  1  0
 38 39  2  0
 37 40  1  0
 40 41  1  0
 40 42  1  0
 40 43  1  0
 17 44  1  0
 44 45  2  0
 45 46  1  0
 46 47  2  0
 47 48  1  0
 48 49  2  0
  7  2  1  0
 20 15  1  0
 27 22  1  0
 39 34  1  0
 49 44  1  0
M  END
$$$$
