
     RDKit          3D

 49 53  0  0  0  0  0  0  0  0999 V2000
   -4.6942   -1.0558    8.5919 C   0  0  0  0  0  0  0  0  0  0  0  0
   -6.0819   -1.5087    8.9115 C   0  0  0  0  0  0  0  0  0  0  0  0
   -6.4718   -1.9070   10.1704 C   0  0  0  0  0  0  0  0  0  0  0  0
   -7.7693   -2.2929   10.3940 C   0  0  0  0  0  0  0  0  0  0  0  0
   -8.6637   -2.2807    9.3646 C   0  0  0  0  0  0  0  0  0  0  0  0
   -8.3328   -1.8987    8.1052 C   0  0  0  0  0  0  0  0  0  0  0  0
   -7.0175   -1.5047    7.8730 C   0  0  0  0  0  0  0  0  0  0  0  0
   -8.2469   -2.7203   11.7392 C   0  0  0  0  0  0  0  0  0  0  0  0
   -5.4947   -1.9269   11.2173 N   0  0  0  0  0  0  0  0  0  0  0  0
   -5.5131   -0.8517   12.1596 C   0  0  0  0  0  0  0  0  0  0  0  0
   -6.3906    0.0549   12.0965 O   0  0  0  0  0  0  0  0  0  0  0  0
   -4.4967   -0.7728   13.2479 C   0  0  0  0  0  0  0  0  0  0  0  0
   -3.1751   -0.4292   12.6519 C   0  0  0  0  0  0  0  0  0  0  0  0
   -2.1642   -0.1353   13.5420 O   0  0  0  0  0  0  0  0  0  0  0  0
   -0.8754    0.3101   13.1609 C   0  0  0  0  0  0  0  0  0  0  0  0
   -0.3225    1.3520   13.7811 N   0  0  0  0  0  0  0  0  0  0  0  0
    0.9007    1.8622   13.4989 C   0  0  0  0  0  0  0  0  0  0  0  0
    1.5597    1.2405   12.5152 N   0  0  0  0  0  0  0  0  0  0  0  0
    1.0862    0.1776   11.8219 C   0  0  0  0  0  0  0  0  0  0  0  0
   -0.1737   -0.3190   12.1478 C   0  0  0  0  0  0  0  0  0  0  0  0
   -0.7309   -1.4157   11.4996 O   0  0  0  0  0  0  0  0  0  0  0  0
   -0.5755   -1.7061   10.1415 C   0  0  0  0  0  0  0  0  0  0  0  0
    0.0901   -2.8587    9.7446 C   0  0  0  0  0  0  0  0  0  0  0  0
    0.2491   -3.1707    8.4268 C   0  0  0  0  0  0  0  0  0  0  0  0
   -0.2561   -2.3344    7.4405 C   0  0  0  0  0  0  0  0  0  0  0  0
   -0.9172   -1.1884    7.8449 C   0  0  0  0  0  0  0  0  0  0  0  0
   -1.0847   -0.8604    9.1894 C   0  0  0  0  0  0  0  0  0  0  0  0
   -1.7621    0.3122    9.5223 O   0  0  0  0  0  0  0  0  0  0  0  0
   -1.3609    1.5345    8.9573 C   0  0  0  0  0  0  0  0  0  0  0  0
    1.8440   -0.3814   10.7794 N   0  0  0  0  0  0  0  0  0  0  0  0
    3.1634    0.2993    9.9723 S   0  0  0  0  0  6  0  0  0  0  0  0
    3.7464    1.4474   10.8014 O   0  0  0  0  0  0  0  0  0  0  0  0
    4.3117   -0.6933    9.8561 O   0  0  0  0  0  0  0  0  0  0  0  0
    2.8187    0.9056    8.3779 C   0  0  0  0  0  0  0  0  0  0  0  0
    2.7155    2.2267    8.0428 C   0  0  0  0  0  0  0  0  0  0  0  0
    2.3987    2.6366    6.7436 C   0  0  0  0  0  0  0  0  0  0  0  0
    2.1787    1.7293    5.7610 C   0  0  0  0  0  0  0  0  0  0  0  0
    2.2762    0.3771    6.0663 C   0  0  0  0  0  0  0  0  0  0  0  0
    2.5883   -0.0231    7.3416 C   0  0  0  0  0  0  0  0  0  0  0  0
    1.8416    2.1968    4.3949 C   0  0  0  0  0  0  0  0  0  0  0  0
    2.8952    1.7114    3.4209 C   0  0  0  0  0  0  0  0  0  0  0  0
    1.9085    3.7194    4.3635 C   0  0  0  0  0  0  0  0  0  0  0  0
    0.5031    1.6689    3.9810 C   0  0  0  0  0  0  0  0  0  0  0  0
    1.4143    3.0100   14.2501 C   0  0  0  0  0  0  0  0  0  0  0  0
    0.7656    3.6833   15.1746 N   0  0  0  0  0  0  0  0  0  0  0  0
    1.3479    4.7418   15.7986 C   0  0  0  0  0  0  0  0  0  0  0  0
    2.6327    5.1601   15.5011 C   0  0  0  0  0  0  0  0  0  0  0  0
    3.3061    4.4334   14.5184 C   0  0  0  0  0  0  0  0  0  0  0  0
    2.6817    3.4091   13.9446 N   0  0  0  0  0  0  0  0  0  0  0  0
  1  2  1  0
  2  3  2  0
  3  4  1  0
  4  5  2  0
  5  6  1  0
  6  7  2  0
  4  8  1  0
  3  9  1  0
  9 10  1  0
 10 11  2  0
 10 12  1  0
 12 13  1  0
 13 14  1  0
 14 15  1  0
 15 16  2  0
 16 17  1  0
 17 18  2  0
 18 19  1  0
 19 20  2  0
 20 21  1  0
 21 22  1  0
 22 23  2  0
 23 24  1  0
 24 25  2  0
 25 26  1  0
 26 27  2  0
 27 28  1  0
 28 29  1  0
 19 30  1  0
 30 31  1  0
 31 32  2  0
 31 33  2  0
 31 34  1  0
 34 35  2  0
 35 36  1  0
 36 37  2  0
 37 38  1  0
 38 39  2  0
 37 40  1  0
 40 41  1  0
 40 42  1  0
 40 43  1  0
 17 44  1  0
 44 45  2  0
 45 46  1  0
 46 47  2  0
 47 48  1  0
 48 49  2  0
  7  2  1  0
 20 15  1  0
 27 22  1  0
 39 34  1  0
 49 44  1  0
M  END
$$$$
