
     RDKit          3D

 49 53  0  0  0  0  0  0  0  0999 V2000
   -0.1331    2.3310    2.9744 C   0  0  0  0  0  0  0  0  0  0  0  0
   -1.1163    1.2705    3.3506 C   0  0  0  0  0  0  0  0  0  0  0  0
   -1.2327    0.7721    4.6288 C   0  0  0  0  0  0  0  0  0  0  0  0
   -2.1720   -0.1890    4.9048 C   0  0  0  0  0  0  0  0  0  0  0  0
   -2.9833   -0.6453    3.9081 C   0  0  0  0  0  0  0  0  0  0  0  0
   -2.9106   -0.1899    2.6320 C   0  0  0  0  0  0  0  0  0  0  0  0
   -1.9599    0.7867    2.3465 C   0  0  0  0  0  0  0  0  0  0  0  0
   -2.3487   -0.7527    6.2728 C   0  0  0  0  0  0  0  0  0  0  0  0
   -0.3450    1.2625    5.6401 N   0  0  0  0  0  0  0  0  0  0  0  0
   -0.8454    2.2625    6.5309 C   0  0  0  0  0  0  0  0  0  0  0  0
   -2.0504    2.6382    6.4780 O   0  0  0  0  0  0  0  0  0  0  0  0
    0.0427    2.8887    7.5523 C   0  0  0  0  0  0  0  0  0  0  0  0
    0.4539    1.8500    8.5382 C   0  0  0  0  0  0  0  0  0  0  0  0
    0.8878    2.3114    9.7627 O   0  0  0  0  0  0  0  0  0  0  0  0
    0.3356    1.9106   11.0032 C   0  0  0  0  0  0  0  0  0  0  0  0
   -0.9411    2.1759   11.2786 N   0  0  0  0  0  0  0  0  0  0  0  0
   -1.5713    1.8408   12.4304 C   0  0  0  0  0  0  0  0  0  0  0  0
   -0.8113    1.2007   13.3255 N   0  0  0  0  0  0  0  0  0  0  0  0
    0.4938    0.8869   13.1445 C   0  0  0  0  0  0  0  0  0  0  0  0
    1.1018    1.2450   11.9436 C   0  0  0  0  0  0  0  0  0  0  0  0
    2.4318    0.9488   11.6665 O   0  0  0  0  0  0  0  0  0  0  0  0
    2.8636    0.0398   10.6970 C   0  0  0  0  0  0  0  0  0  0  0  0
    2.1582   -0.1035    9.5092 C   0  0  0  0  0  0  0  0  0  0  0  0
    2.5614   -0.9769    8.5428 C   0  0  0  0  0  0  0  0  0  0  0  0
    3.6988   -1.7516    8.7258 C   0  0  0  0  0  0  0  0  0  0  0  0
    4.3951   -1.6027    9.9119 C   0  0  0  0  0  0  0  0  0  0  0  0
    3.9909   -0.7130   10.9061 C   0  0  0  0  0  0  0  0  0  0  0  0
    4.7427   -0.6166   12.0767 O   0  0  0  0  0  0  0  0  0  0  0  0
    5.1996    0.6389   12.5115 C   0  0  0  0  0  0  0  0  0  0  0  0
    1.2148    0.2442   14.1647 N   0  0  0  0  0  0  0  0  0  0  0  0
    0.6108   -0.7056   15.4251 S   0  0  0  0  0  6  0  0  0  0  0  0
    1.7654   -1.3923   16.1603 O   0  0  0  0  0  0  0  0  0  0  0  0
   -0.0508    0.1521   16.4947 O   0  0  0  0  0  0  0  0  0  0  0  0
   -0.5277   -1.9306   14.9439 C   0  0  0  0  0  0  0  0  0  0  0  0
   -0.3254   -2.8472   13.9503 C   0  0  0  0  0  0  0  0  0  0  0  0
   -1.3052   -3.7803   13.5955 C   0  0  0  0  0  0  0  0  0  0  0  0
   -2.5029   -3.8080   14.2292 C   0  0  0  0  0  0  0  0  0  0  0  0
   -2.7423   -2.8907   15.2454 C   0  0  0  0  0  0  0  0  0  0  0  0
   -1.7791   -1.9766   15.5929 C   0  0  0  0  0  0  0  0  0  0  0  0
   -3.5212   -4.8076   13.8269 C   0  0  0  0  0  0  0  0  0  0  0  0
   -4.3949   -5.1455   15.0172 C   0  0  0  0  0  0  0  0  0  0  0  0
   -2.8162   -6.1028   13.4407 C   0  0  0  0  0  0  0  0  0  0  0  0
   -4.3751   -4.2638   12.7238 C   0  0  0  0  0  0  0  0  0  0  0  0
   -2.9834    2.1775   12.6255 C   0  0  0  0  0  0  0  0  0  0  0  0
   -3.7464    1.7720   13.6165 N   0  0  0  0  0  0  0  0  0  0  0  0
   -5.0519    2.1460   13.6845 C   0  0  0  0  0  0  0  0  0  0  0  0
   -5.6382    2.9607   12.7322 C   0  0  0  0  0  0  0  0  0  0  0  0
   -4.8133    3.3821   11.6886 C   0  0  0  0  0  0  0  0  0  0  0  0
   -3.5455    2.9810   11.6781 N   0  0  0  0  0  0  0  0  0  0  0  0
  1  2  1  0
  2  3  2  0
  3  4  1  0
  4  5  2  0
  5  6  1  0
  6  7  2  0
  4  8  1  0
  3  9  1  0
  9 10  1  0
 10 11  2  0
 10 12  1  0
 12 13  1  0
 13 14  1  0
 14 15  1  0
 15 16  2  0
 16 17  1  0
 17 18  2  0
 18 19  1  0
 19 20  2  0
 20 21  1  0
 21 22  1  0
 22 23  2  0
 23 24  1  0
 24 25  2  0
 25 26  1  0
 26 27  2  0
 27 28  1  0
 28 29  1  0
 19 30  1  0
 30 31  1  0
 31 32  2  0
 31 33  2  0
 31 34  1  0
 34 35  2  0
 35 36  1  0
 36 37  2  0
 37 38  1  0
 38 39  2  0
 37 40  1  0
 40 41  1  0
 40 42  1  0
 40 43  1  0
 17 44  1  0
 44 45  2  0
 45 46  1  0
 46 47  2  0
 47 48  1  0
 48 49  2  0
  7  2  1  0
 20 15  1  0
 27 22  1  0
 39 34  1  0
 49 44  1  0
M  END
$$$$
