
     RDKit          3D

 49 53  0  0  0  0  0  0  0  0999 V2000
    4.5962   -0.7643    6.0832 C   0  0  0  0  0  0  0  0  0  0  0  0
    3.6930    0.3058    5.5617 C   0  0  0  0  0  0  0  0  0  0  0  0
    2.3546    0.3795    5.8760 C   0  0  0  0  0  0  0  0  0  0  0  0
    1.5899    1.4023    5.3743 C   0  0  0  0  0  0  0  0  0  0  0  0
    2.1628    2.3386    4.5651 C   0  0  0  0  0  0  0  0  0  0  0  0
    3.4756    2.3131    4.2229 C   0  0  0  0  0  0  0  0  0  0  0  0
    4.2567    1.2780    4.7304 C   0  0  0  0  0  0  0  0  0  0  0  0
    0.1405    1.5363    5.6932 C   0  0  0  0  0  0  0  0  0  0  0  0
    1.7885   -0.6377    6.7103 N   0  0  0  0  0  0  0  0  0  0  0  0
    1.9504   -0.4994    8.1240 C   0  0  0  0  0  0  0  0  0  0  0  0
    2.6471    0.4349    8.6116 O   0  0  0  0  0  0  0  0  0  0  0  0
    1.2968   -1.4544    9.0645 C   0  0  0  0  0  0  0  0  0  0  0  0
    0.7183   -0.6906   10.2055 C   0  0  0  0  0  0  0  0  0  0  0  0
   -0.0264   -1.4180   11.1093 O   0  0  0  0  0  0  0  0  0  0  0  0
   -0.6288   -0.8681   12.2665 C   0  0  0  0  0  0  0  0  0  0  0  0
   -0.3492    0.3832   12.6300 N   0  0  0  0  0  0  0  0  0  0  0  0
   -0.8655    1.0087   13.7155 C   0  0  0  0  0  0  0  0  0  0  0  0
   -1.7103    0.2717   14.4446 N   0  0  0  0  0  0  0  0  0  0  0  0
   -2.0574   -1.0070   14.1634 C   0  0  0  0  0  0  0  0  0  0  0  0
   -1.5078   -1.6108   13.0349 C   0  0  0  0  0  0  0  0  0  0  0  0
   -1.8203   -2.9134   12.6620 O   0  0  0  0  0  0  0  0  0  0  0  0
   -2.4192   -3.2776   11.4531 C   0  0  0  0  0  0  0  0  0  0  0  0
   -3.2509   -2.3858   10.7882 C   0  0  0  0  0  0  0  0  0  0  0  0
   -3.8417   -2.7118    9.6034 C   0  0  0  0  0  0  0  0  0  0  0  0
   -3.6233   -3.9562    9.0279 C   0  0  0  0  0  0  0  0  0  0  0  0
   -2.7939   -4.8382    9.6972 C   0  0  0  0  0  0  0  0  0  0  0  0
   -2.1854   -4.5146   10.9090 C   0  0  0  0  0  0  0  0  0  0  0  0
   -1.3615   -5.4550   11.5269 O   0  0  0  0  0  0  0  0  0  0  0  0
   -1.9282   -6.4588   12.3303 C   0  0  0  0  0  0  0  0  0  0  0  0
   -2.9269   -1.7077   15.0159 N   0  0  0  0  0  0  0  0  0  0  0  0
   -4.3646   -1.1590   15.7139 S   0  0  0  0  0  6  0  0  0  0  0  0
   -5.2059   -2.3504   16.1806 O   0  0  0  0  0  0  0  0  0  0  0  0
   -4.0946   -0.3744   16.9902 O   0  0  0  0  0  0  0  0  0  0  0  0
   -5.3553   -0.1705   14.6795 C   0  0  0  0  0  0  0  0  0  0  0  0
   -6.3366   -0.6359   13.8495 C   0  0  0  0  0  0  0  0  0  0  0  0
   -7.0679    0.2190   13.0184 C   0  0  0  0  0  0  0  0  0  0  0  0
   -6.8261    1.5525   13.0048 C   0  0  0  0  0  0  0  0  0  0  0  0
   -5.8357    2.0603   13.8370 C   0  0  0  0  0  0  0  0  0  0  0  0
   -5.1199    1.2199   14.6527 C   0  0  0  0  0  0  0  0  0  0  0  0
   -7.6169    2.4309   12.1097 C   0  0  0  0  0  0  0  0  0  0  0  0
   -8.8566    1.6944   11.6459 C   0  0  0  0  0  0  0  0  0  0  0  0
   -6.8024    2.7174   10.8534 C   0  0  0  0  0  0  0  0  0  0  0  0
   -8.0224    3.6782   12.8319 C   0  0  0  0  0  0  0  0  0  0  0  0
   -0.4926    2.3925   14.0184 C   0  0  0  0  0  0  0  0  0  0  0  0
   -0.9696    3.1259   14.9998 N   0  0  0  0  0  0  0  0  0  0  0  0
   -0.5506    4.4075   15.1749 C   0  0  0  0  0  0  0  0  0  0  0  0
    0.3855    4.9991   14.3454 C   0  0  0  0  0  0  0  0  0  0  0  0
    0.8814    4.2057   13.3101 C   0  0  0  0  0  0  0  0  0  0  0  0
    0.4308    2.9602   13.1913 N   0  0  0  0  0  0  0  0  0  0  0  0
  1  2  1  0
  2  3  2  0
  3  4  1  0
  4  5  2  0
  5  6  1  0
  6  7  2  0
  4  8  1  0
  3  9  1  0
  9 10  1  0
 10 11  2  0
 10 12  1  0
 12 13  1  0
 13 14  1  0
 14 15  1  0
 15 16  2  0
 16 17  1  0
 17 18  2  0
 18 19  1  0
 19 20  2  0
 20 21  1  0
 21 22  1  0
 22 23  2  0
 23 24  1  0
 24 25  2  0
 25 26  1  0
 26 27  2  0
 27 28  1  0
 28 29  1  0
 19 30  1  0
 30 31  1  0
 31 32  2  0
 31 33  2  0
 31 34  1  0
 34 35  2  0
 35 36  1  0
 36 37  2  0
 37 38  1  0
 38 39  2  0
 37 40  1  0
 40 41  1  0
 40 42  1  0
 40 43  1  0
 17 44  1  0
 44 45  2  0
 45 46  1  0
 46 47  2  0
 47 48  1  0
 48 49  2  0
  7  2  1  0
 20 15  1  0
 27 22  1  0
 39 34  1  0
 49 44  1  0
M  END
$$$$
