
     RDKit          3D

 49 53  0  0  0  0  0  0  0  0999 V2000
   -5.4124   -3.7588    5.5550 C   0  0  0  0  0  0  0  0  0  0  0  0
   -4.6840   -2.9642    4.5201 C   0  0  0  0  0  0  0  0  0  0  0  0
   -3.4049   -2.4879    4.7002 C   0  0  0  0  0  0  0  0  0  0  0  0
   -2.7913   -1.7806    3.6974 C   0  0  0  0  0  0  0  0  0  0  0  0
   -3.4557   -1.5530    2.5285 C   0  0  0  0  0  0  0  0  0  0  0  0
   -4.7168   -1.9982    2.2987 C   0  0  0  0  0  0  0  0  0  0  0  0
   -5.3438   -2.7178    3.3127 C   0  0  0  0  0  0  0  0  0  0  0  0
   -1.4041   -1.2542    3.8352 C   0  0  0  0  0  0  0  0  0  0  0  0
   -2.7524   -2.7297    5.9520 N   0  0  0  0  0  0  0  0  0  0  0  0
   -3.1957   -1.9784    7.0848 C   0  0  0  0  0  0  0  0  0  0  0  0
   -4.3272   -2.1907    7.6050 O   0  0  0  0  0  0  0  0  0  0  0  0
   -2.3310   -0.9234    7.6872 C   0  0  0  0  0  0  0  0  0  0  0  0
   -1.4772   -1.5406    8.7408 C   0  0  0  0  0  0  0  0  0  0  0  0
   -1.7978   -1.2272   10.0445 O   0  0  0  0  0  0  0  0  0  0  0  0
   -0.9409   -0.5252   10.9261 C   0  0  0  0  0  0  0  0  0  0  0  0
    0.3211   -0.2829   10.5729 N   0  0  0  0  0  0  0  0  0  0  0  0
    1.2263    0.3769   11.3355 C   0  0  0  0  0  0  0  0  0  0  0  0
    0.7706    0.7922   12.5222 N   0  0  0  0  0  0  0  0  0  0  0  0
   -0.4903    0.5947   12.9757 C   0  0  0  0  0  0  0  0  0  0  0  0
   -1.3909   -0.0836   12.1577 C   0  0  0  0  0  0  0  0  0  0  0  0
   -2.7085   -0.3167   12.5358 O   0  0  0  0  0  0  0  0  0  0  0  0
   -3.6140   -1.1138   11.8305 C   0  0  0  0  0  0  0  0  0  0  0  0
   -4.2366   -0.6234   10.6900 C   0  0  0  0  0  0  0  0  0  0  0  0
   -5.1180   -1.3821    9.9782 C   0  0  0  0  0  0  0  0  0  0  0  0
   -5.4166   -2.6766   10.3813 C   0  0  0  0  0  0  0  0  0  0  0  0
   -4.7922   -3.1568   11.5185 C   0  0  0  0  0  0  0  0  0  0  0  0
   -3.8900   -2.3890   12.2533 C   0  0  0  0  0  0  0  0  0  0  0  0
   -3.2990   -2.9397   13.3901 O   0  0  0  0  0  0  0  0  0  0  0  0
   -1.9341   -3.2729   13.3754 C   0  0  0  0  0  0  0  0  0  0  0  0
   -0.8594    1.0399   14.2561 N   0  0  0  0  0  0  0  0  0  0  0  0
   -0.1022    2.2136   15.2071 S   0  0  0  0  0  6  0  0  0  0  0  0
   -1.1511    3.1520   15.8108 O   0  0  0  0  0  0  0  0  0  0  0  0
    0.5765    1.5894   16.4183 O   0  0  0  0  0  0  0  0  0  0  0  0
    1.0779    3.1860   14.3763 C   0  0  0  0  0  0  0  0  0  0  0  0
    2.4239    2.9487   14.3607 C   0  0  0  0  0  0  0  0  0  0  0  0
    3.3161    3.7986   13.6988 C   0  0  0  0  0  0  0  0  0  0  0  0
    2.8737    4.8997   13.0441 C   0  0  0  0  0  0  0  0  0  0  0  0
    1.5108    5.1711   13.0387 C   0  0  0  0  0  0  0  0  0  0  0  0
    0.6367    4.3353   13.6879 C   0  0  0  0  0  0  0  0  0  0  0  0
    3.8459    5.7819   12.3551 C   0  0  0  0  0  0  0  0  0  0  0  0
    3.1788    6.4331   11.1612 C   0  0  0  0  0  0  0  0  0  0  0  0
    4.9756    4.9271   11.7921 C   0  0  0  0  0  0  0  0  0  0  0  0
    4.3361    6.8442   13.2894 C   0  0  0  0  0  0  0  0  0  0  0  0
    2.5892    0.5931   10.8444 C   0  0  0  0  0  0  0  0  0  0  0  0
    3.0552    0.2317    9.6692 N   0  0  0  0  0  0  0  0  0  0  0  0
    4.3481    0.4805    9.3294 C   0  0  0  0  0  0  0  0  0  0  0  0
    5.2281    1.1178   10.1860 C   0  0  0  0  0  0  0  0  0  0  0  0
    4.7159    1.4950   11.4280 C   0  0  0  0  0  0  0  0  0  0  0  0
    3.4433    1.2223   11.7009 N   0  0  0  0  0  0  0  0  0  0  0  0
  1  2  1  0
  2  3  2  0
  3  4  1  0
  4  5  2  0
  5  6  1  0
  6  7  2  0
  4  8  1  0
  3  9  1  0
  9 10  1  0
 10 11  2  0
 10 12  1  0
 12 13  1  0
 13 14  1  0
 14 15  1  0
 15 16  2  0
 16 17  1  0
 17 18  2  0
 18 19  1  0
 19 20  2  0
 20 21  1  0
 21 22  1  0
 22 23  2  0
 23 24  1  0
 24 25  2  0
 25 26  1  0
 26 27  2  0
 27 28  1  0
 28 29  1  0
 19 30  1  0
 30 31  1  0
 31 32  2  0
 31 33  2  0
 31 34  1  0
 34 35  2  0
 35 36  1  0
 36 37  2  0
 37 38  1  0
 38 39  2  0
 37 40  1  0
 40 41  1  0
 40 42  1  0
 40 43  1  0
 17 44  1  0
 44 45  2  0
 45 46  1  0
 46 47  2  0
 47 48  1  0
 48 49  2  0
  7  2  1  0
 20 15  1  0
 27 22  1  0
 39 34  1  0
 49 44  1  0
M  END
$$$$
