
     RDKit          3D

 49 53  0  0  0  0  0  0  0  0999 V2000
    2.9498    3.5721   16.7909 C   0  0  0  0  0  0  0  0  0  0  0  0
    1.6738    3.9121   17.4903 C   0  0  0  0  0  0  0  0  0  0  0  0
    0.4923    3.2411   17.2678 C   0  0  0  0  0  0  0  0  0  0  0  0
   -0.6369    3.5969   17.9611 C   0  0  0  0  0  0  0  0  0  0  0  0
   -0.5800    4.6159   18.8657 C   0  0  0  0  0  0  0  0  0  0  0  0
    0.5568    5.3107   19.1228 C   0  0  0  0  0  0  0  0  0  0  0  0
    1.7062    4.9528   18.4229 C   0  0  0  0  0  0  0  0  0  0  0  0
   -1.9374    2.8958   17.7683 C   0  0  0  0  0  0  0  0  0  0  0  0
    0.4716    2.1928   16.2922 N   0  0  0  0  0  0  0  0  0  0  0  0
    0.8413    0.8807   16.7234 C   0  0  0  0  0  0  0  0  0  0  0  0
    1.2375    0.6706   17.9045 O   0  0  0  0  0  0  0  0  0  0  0  0
    0.7655   -0.2795   15.7897 C   0  0  0  0  0  0  0  0  0  0  0  0
    0.4667    0.2213   14.4186 C   0  0  0  0  0  0  0  0  0  0  0  0
    0.4469   -0.7249   13.4162 O   0  0  0  0  0  0  0  0  0  0  0  0
   -0.0522   -0.4899   12.1124 C   0  0  0  0  0  0  0  0  0  0  0  0
    0.7392    0.0489   11.1853 N   0  0  0  0  0  0  0  0  0  0  0  0
    0.3677    0.3175    9.9101 C   0  0  0  0  0  0  0  0  0  0  0  0
   -0.8972    0.0030    9.6112 N   0  0  0  0  0  0  0  0  0  0  0  0
   -1.7811   -0.5444   10.4794 C   0  0  0  0  0  0  0  0  0  0  0  0
   -1.3566   -0.8095   11.7793 C   0  0  0  0  0  0  0  0  0  0  0  0
   -2.1914   -1.3845   12.7312 O   0  0  0  0  0  0  0  0  0  0  0  0
   -2.5225   -2.7409   12.7900 C   0  0  0  0  0  0  0  0  0  0  0  0
   -1.9602   -3.6376   11.8907 C   0  0  0  0  0  0  0  0  0  0  0  0
   -2.2591   -4.9673   11.9304 C   0  0  0  0  0  0  0  0  0  0  0  0
   -3.1422   -5.4611   12.8811 C   0  0  0  0  0  0  0  0  0  0  0  0
   -3.6978   -4.5609   13.7726 C   0  0  0  0  0  0  0  0  0  0  0  0
   -3.3989   -3.1997   13.7400 C   0  0  0  0  0  0  0  0  0  0  0  0
   -3.9977   -2.3512   14.6708 O   0  0  0  0  0  0  0  0  0  0  0  0
   -3.2025   -1.6720   15.6091 C   0  0  0  0  0  0  0  0  0  0  0  0
   -3.1013   -0.8037   10.0753 N   0  0  0  0  0  0  0  0  0  0  0  0
   -3.7285   -0.7986    8.5062 S   0  0  0  0  0  6  0  0  0  0  0  0
   -4.4354   -2.1271    8.2226 O   0  0  0  0  0  0  0  0  0  0  0  0
   -4.8266    0.2446    8.3538 O   0  0  0  0  0  0  0  0  0  0  0  0
   -2.5586   -0.5298    7.2463 C   0  0  0  0  0  0  0  0  0  0  0  0
   -2.0418    0.6866    6.8977 C   0  0  0  0  0  0  0  0  0  0  0  0
   -1.1300    0.8281    5.8465 C   0  0  0  0  0  0  0  0  0  0  0  0
   -0.7237   -0.2465    5.1274 C   0  0  0  0  0  0  0  0  0  0  0  0
   -1.2285   -1.4991    5.4551 C   0  0  0  0  0  0  0  0  0  0  0  0
   -2.1222   -1.6360    6.4878 C   0  0  0  0  0  0  0  0  0  0  0  0
    0.2414   -0.0620    4.0171 C   0  0  0  0  0  0  0  0  0  0  0  0
    0.7169    1.3760    3.9951 C   0  0  0  0  0  0  0  0  0  0  0  0
   -0.4800   -0.2874    2.6932 C   0  0  0  0  0  0  0  0  0  0  0  0
    1.4180   -0.9705    4.1955 C   0  0  0  0  0  0  0  0  0  0  0  0
    1.3241    0.9069    8.9701 C   0  0  0  0  0  0  0  0  0  0  0  0
    2.5783    1.2060    9.2271 N   0  0  0  0  0  0  0  0  0  0  0  0
    3.3691    1.7608    8.2702 C   0  0  0  0  0  0  0  0  0  0  0  0
    2.9057    2.0348    6.9957 C   0  0  0  0  0  0  0  0  0  0  0  0
    1.5728    1.7100    6.7407 C   0  0  0  0  0  0  0  0  0  0  0  0
    0.8512    1.1706    7.7188 N   0  0  0  0  0  0  0  0  0  0  0  0
  1  2  1  0
  2  3  2  0
  3  4  1  0
  4  5  2  0
  5  6  1  0
  6  7  2  0
  4  8  1  0
  3  9  1  0
  9 10  1  0
 10 11  2  0
 10 12  1  0
 12 13  1  0
 13 14  1  0
 14 15  1  0
 15 16  2  0
 16 17  1  0
 17 18  2  0
 18 19  1  0
 19 20  2  0
 20 21  1  0
 21 22  1  0
 22 23  2  0
 23 24  1  0
 24 25  2  0
 25 26  1  0
 26 27  2  0
 27 28  1  0
 28 29  1  0
 19 30  1  0
 30 31  1  0
 31 32  2  0
 31 33  2  0
 31 34  1  0
 34 35  2  0
 35 36  1  0
 36 37  2  0
 37 38  1  0
 38 39  2  0
 37 40  1  0
 40 41  1  0
 40 42  1  0
 40 43  1  0
 17 44  1  0
 44 45  2  0
 45 46  1  0
 46 47  2  0
 47 48  1  0
 48 49  2  0
  7  2  1  0
 20 15  1  0
 27 22  1  0
 39 34  1  0
 49 44  1  0
M  END
$$$$
