
     RDKit          3D

 49 53  0  0  0  0  0  0  0  0999 V2000
    4.3244   -0.2106    7.8695 C   0  0  0  0  0  0  0  0  0  0  0  0
    3.8712    0.2638    6.5269 C   0  0  0  0  0  0  0  0  0  0  0  0
    2.5612    0.5782    6.2430 C   0  0  0  0  0  0  0  0  0  0  0  0
    2.2214    1.0259    4.9914 C   0  0  0  0  0  0  0  0  0  0  0  0
    3.1860    1.1542    4.0359 C   0  0  0  0  0  0  0  0  0  0  0  0
    4.4909    0.8577    4.2614 C   0  0  0  0  0  0  0  0  0  0  0  0
    4.8415    0.4042    5.5304 C   0  0  0  0  0  0  0  0  0  0  0  0
    0.8217    1.3920    4.6352 C   0  0  0  0  0  0  0  0  0  0  0  0
    1.5765    0.4066    7.2687 N   0  0  0  0  0  0  0  0  0  0  0  0
    1.5562    1.3618    8.3324 C   0  0  0  0  0  0  0  0  0  0  0  0
    2.4916    2.1990    8.4741 O   0  0  0  0  0  0  0  0  0  0  0  0
    0.4256    1.3986    9.3040 C   0  0  0  0  0  0  0  0  0  0  0  0
    0.1149    0.0076    9.7381 C   0  0  0  0  0  0  0  0  0  0  0  0
   -0.9941   -0.1452   10.5427 O   0  0  0  0  0  0  0  0  0  0  0  0
   -0.9877    0.0378   11.9466 C   0  0  0  0  0  0  0  0  0  0  0  0
   -0.2059    0.9695   12.4913 N   0  0  0  0  0  0  0  0  0  0  0  0
   -0.1196    1.2299   13.8183 C   0  0  0  0  0  0  0  0  0  0  0  0
   -0.8940    0.4659   14.5962 N   0  0  0  0  0  0  0  0  0  0  0  0
   -1.7196   -0.5076   14.1432 C   0  0  0  0  0  0  0  0  0  0  0  0
   -1.7822   -0.7390   12.7711 C   0  0  0  0  0  0  0  0  0  0  0  0
   -2.6134   -1.7066   12.2176 O   0  0  0  0  0  0  0  0  0  0  0  0
   -2.1881   -2.7453   11.3852 C   0  0  0  0  0  0  0  0  0  0  0  0
   -0.8427   -3.0844   11.3218 C   0  0  0  0  0  0  0  0  0  0  0  0
   -0.4011   -4.0985   10.5245 C   0  0  0  0  0  0  0  0  0  0  0  0
   -1.2957   -4.8236    9.7491 C   0  0  0  0  0  0  0  0  0  0  0  0
   -2.6338   -4.4787    9.8180 C   0  0  0  0  0  0  0  0  0  0  0  0
   -3.0952   -3.4436   10.6297 C   0  0  0  0  0  0  0  0  0  0  0  0
   -4.4588   -3.1521   10.6479 O   0  0  0  0  0  0  0  0  0  0  0  0
   -5.3346   -3.9564   11.3965 C   0  0  0  0  0  0  0  0  0  0  0  0
   -2.4656   -1.2804   15.0487 N   0  0  0  0  0  0  0  0  0  0  0  0
   -3.6575   -0.7575   16.1263 S   0  0  0  0  0  6  0  0  0  0  0  0
   -4.3751   -1.9648   16.7366 O   0  0  0  0  0  0  0  0  0  0  0  0
   -3.0448   -0.0466   17.3250 O   0  0  0  0  0  0  0  0  0  0  0  0
   -4.8608    0.2954   15.4394 C   0  0  0  0  0  0  0  0  0  0  0  0
   -6.0837   -0.1025   14.9763 C   0  0  0  0  0  0  0  0  0  0  0  0
   -6.9855    0.7996   14.4024 C   0  0  0  0  0  0  0  0  0  0  0  0
   -6.6752    2.1134   14.2820 C   0  0  0  0  0  0  0  0  0  0  0  0
   -5.4402    2.5530   14.7433 C   0  0  0  0  0  0  0  0  0  0  0  0
   -4.5570    1.6664   15.3072 C   0  0  0  0  0  0  0  0  0  0  0  0
   -7.6521    3.0431   13.6659 C   0  0  0  0  0  0  0  0  0  0  0  0
   -8.8485    2.2599   13.1663 C   0  0  0  0  0  0  0  0  0  0  0  0
   -7.0196    3.6780   12.4328 C   0  0  0  0  0  0  0  0  0  0  0  0
   -8.1073    4.0575   14.6686 C   0  0  0  0  0  0  0  0  0  0  0  0
    0.7710    2.2844   14.3084 C   0  0  0  0  0  0  0  0  0  0  0  0
    1.7464    2.8504   13.6324 N   0  0  0  0  0  0  0  0  0  0  0  0
    2.5147    3.8173   14.2013 C   0  0  0  0  0  0  0  0  0  0  0  0
    2.3146    4.2519   15.4995 C   0  0  0  0  0  0  0  0  0  0  0  0
    1.2748    3.6410   16.2014 C   0  0  0  0  0  0  0  0  0  0  0  0
    0.5603    2.7010   15.5895 N   0  0  0  0  0  0  0  0  0  0  0  0
  1  2  1  0
  2  3  2  0
  3  4  1  0
  4  5  2  0
  5  6  1  0
  6  7  2  0
  4  8  1  0
  3  9  1  0
  9 10  1  0
 10 11  2  0
 10 12  1  0
 12 13  1  0
 13 14  1  0
 14 15  1  0
 15 16  2  0
 16 17  1  0
 17 18  2  0
 18 19  1  0
 19 20  2  0
 20 21  1  0
 21 22  1  0
 22 23  2  0
 23 24  1  0
 24 25  2  0
 25 26  1  0
 26 27  2  0
 27 28  1  0
 28 29  1  0
 19 30  1  0
 30 31  1  0
 31 32  2  0
 31 33  2  0
 31 34  1  0
 34 35  2  0
 35 36  1  0
 36 37  2  0
 37 38  1  0
 38 39  2  0
 37 40  1  0
 40 41  1  0
 40 42  1  0
 40 43  1  0
 17 44  1  0
 44 45  2  0
 45 46  1  0
 46 47  2  0
 47 48  1  0
 48 49  2  0
  7  2  1  0
 20 15  1  0
 27 22  1  0
 39 34  1  0
 49 44  1  0
M  END
$$$$
