
     RDKit          3D

 49 53  0  0  0  0  0  0  0  0999 V2000
    2.2470    4.2779    6.1392 C   0  0  0  0  0  0  0  0  0  0  0  0
    2.1156    2.9656    5.4366 C   0  0  0  0  0  0  0  0  0  0  0  0
    1.8279    1.7882    6.0897 C   0  0  0  0  0  0  0  0  0  0  0  0
    1.7038    0.6232    5.3759 C   0  0  0  0  0  0  0  0  0  0  0  0
    1.8686    0.6406    4.0223 C   0  0  0  0  0  0  0  0  0  0  0  0
    2.1539    1.7716    3.3290 C   0  0  0  0  0  0  0  0  0  0  0  0
    2.2796    2.9573    4.0484 C   0  0  0  0  0  0  0  0  0  0  0  0
    1.3809   -0.6755    6.0312 C   0  0  0  0  0  0  0  0  0  0  0  0
    1.6858    1.8110    7.5147 N   0  0  0  0  0  0  0  0  0  0  0  0
    2.8714    1.9830    8.2949 C   0  0  0  0  0  0  0  0  0  0  0  0
    3.9059    2.5128    7.7998 O   0  0  0  0  0  0  0  0  0  0  0  0
    2.9186    1.5442    9.7193 C   0  0  0  0  0  0  0  0  0  0  0  0
    1.7709    2.1504   10.4508 C   0  0  0  0  0  0  0  0  0  0  0  0
    1.5612    1.6979   11.7361 O   0  0  0  0  0  0  0  0  0  0  0  0
    0.3282    1.1845   12.2057 C   0  0  0  0  0  0  0  0  0  0  0  0
   -0.7171    1.9980   12.3527 N   0  0  0  0  0  0  0  0  0  0  0  0
   -1.9402    1.6163   12.7939 C   0  0  0  0  0  0  0  0  0  0  0  0
   -2.0537    0.3178   13.0933 N   0  0  0  0  0  0  0  0  0  0  0  0
   -1.0539   -0.5891   12.9820 C   0  0  0  0  0  0  0  0  0  0  0  0
    0.1864   -0.1557   12.5194 C   0  0  0  0  0  0  0  0  0  0  0  0
    1.2636   -1.0203   12.3591 O   0  0  0  0  0  0  0  0  0  0  0  0
    1.6422   -1.6109   11.1505 C   0  0  0  0  0  0  0  0  0  0  0  0
    0.7619   -1.6318   10.0764 C   0  0  0  0  0  0  0  0  0  0  0  0
    1.1080   -2.1941    8.8834 C   0  0  0  0  0  0  0  0  0  0  0  0
    2.3619   -2.7651    8.7129 C   0  0  0  0  0  0  0  0  0  0  0  0
    3.2321   -2.7402    9.7881 C   0  0  0  0  0  0  0  0  0  0  0  0
    2.8877   -2.1680   11.0118 C   0  0  0  0  0  0  0  0  0  0  0  0
    3.8169   -2.1801   12.0517 O   0  0  0  0  0  0  0  0  0  0  0  0
    5.1334   -1.7493   11.8164 C   0  0  0  0  0  0  0  0  0  0  0  0
   -1.2663   -1.9258   13.3584 N   0  0  0  0  0  0  0  0  0  0  0  0
   -2.7195   -2.6605   13.8099 S   0  0  0  0  0  6  0  0  0  0  0  0
   -2.8027   -4.0659   13.2074 O   0  0  0  0  0  0  0  0  0  0  0  0
   -2.7745   -2.8984   15.3125 O   0  0  0  0  0  0  0  0  0  0  0  0
   -4.1568   -1.7917   13.3543 C   0  0  0  0  0  0  0  0  0  0  0  0
   -4.6636   -1.7169   12.0871 C   0  0  0  0  0  0  0  0  0  0  0  0
   -5.8064   -0.9666   11.7916 C   0  0  0  0  0  0  0  0  0  0  0  0
   -6.4577   -0.2784   12.7607 C   0  0  0  0  0  0  0  0  0  0  0  0
   -5.9704   -0.3328   14.0610 C   0  0  0  0  0  0  0  0  0  0  0  0
   -4.8494   -1.0706   14.3492 C   0  0  0  0  0  0  0  0  0  0  0  0
   -7.6644    0.5101   12.4138 C   0  0  0  0  0  0  0  0  0  0  0  0
   -8.3743   -0.1413   11.2449 C   0  0  0  0  0  0  0  0  0  0  0  0
   -7.2309    1.8885   11.9282 C   0  0  0  0  0  0  0  0  0  0  0  0
   -8.5954    0.5767   13.5844 C   0  0  0  0  0  0  0  0  0  0  0  0
   -3.0225    2.5961   12.9117 C   0  0  0  0  0  0  0  0  0  0  0  0
   -2.9451    3.8748   12.6156 N   0  0  0  0  0  0  0  0  0  0  0  0
   -4.0210    4.6905   12.7766 C   0  0  0  0  0  0  0  0  0  0  0  0
   -5.2353    4.2274   13.2513 C   0  0  0  0  0  0  0  0  0  0  0  0
   -5.2993    2.8679   13.5594 C   0  0  0  0  0  0  0  0  0  0  0  0
   -4.2122    2.1232   13.3810 N   0  0  0  0  0  0  0  0  0  0  0  0
  1  2  1  0
  2  3  2  0
  3  4  1  0
  4  5  2  0
  5  6  1  0
  6  7  2  0
  4  8  1  0
  3  9  1  0
  9 10  1  0
 10 11  2  0
 10 12  1  0
 12 13  1  0
 13 14  1  0
 14 15  1  0
 15 16  2  0
 16 17  1  0
 17 18  2  0
 18 19  1  0
 19 20  2  0
 20 21  1  0
 21 22  1  0
 22 23  2  0
 23 24  1  0
 24 25  2  0
 25 26  1  0
 26 27  2  0
 27 28  1  0
 28 29  1  0
 19 30  1  0
 30 31  1  0
 31 32  2  0
 31 33  2  0
 31 34  1  0
 34 35  2  0
 35 36  1  0
 36 37  2  0
 37 38  1  0
 38 39  2  0
 37 40  1  0
 40 41  1  0
 40 42  1  0
 40 43  1  0
 17 44  1  0
 44 45  2  0
 45 46  1  0
 46 47  2  0
 47 48  1  0
 48 49  2  0
  7  2  1  0
 20 15  1  0
 27 22  1  0
 39 34  1  0
 49 44  1  0
M  END
$$$$
