
     RDKit          3D

 49 53  0  0  0  0  0  0  0  0999 V2000
    0.3928    2.3714    7.6263 C   0  0  0  0  0  0  0  0  0  0  0  0
    1.5786    3.2614    7.4399 C   0  0  0  0  0  0  0  0  0  0  0  0
    2.6329    3.3048    8.3243 C   0  0  0  0  0  0  0  0  0  0  0  0
    3.6979    4.1340    8.0783 C   0  0  0  0  0  0  0  0  0  0  0  0
    3.7027    4.9117    6.9581 C   0  0  0  0  0  0  0  0  0  0  0  0
    2.6902    4.9089    6.0546 C   0  0  0  0  0  0  0  0  0  0  0  0
    1.6074    4.0681    6.2987 C   0  0  0  0  0  0  0  0  0  0  0  0
    4.8698    4.2098    8.9955 C   0  0  0  0  0  0  0  0  0  0  0  0
    2.5764    2.4888    9.5000 N   0  0  0  0  0  0  0  0  0  0  0  0
    2.7204    1.0763    9.3321 C   0  0  0  0  0  0  0  0  0  0  0  0
    2.8844    0.5697    8.1864 O   0  0  0  0  0  0  0  0  0  0  0  0
    2.6847    0.1600   10.5081 C   0  0  0  0  0  0  0  0  0  0  0  0
    1.4733    0.4627   11.3209 C   0  0  0  0  0  0  0  0  0  0  0  0
    0.7320   -0.6232   11.7357 O   0  0  0  0  0  0  0  0  0  0  0  0
   -0.4540   -0.5284   12.5030 C   0  0  0  0  0  0  0  0  0  0  0  0
   -0.6068    0.4735   13.3685 N   0  0  0  0  0  0  0  0  0  0  0  0
   -1.6961    0.6612   14.1524 C   0  0  0  0  0  0  0  0  0  0  0  0
   -2.6592   -0.2559   14.0115 N   0  0  0  0  0  0  0  0  0  0  0  0
   -2.6007   -1.3111   13.1644 C   0  0  0  0  0  0  0  0  0  0  0  0
   -1.4650   -1.4639   12.3725 C   0  0  0  0  0  0  0  0  0  0  0  0
   -1.3269   -2.5079   11.4645 O   0  0  0  0  0  0  0  0  0  0  0  0
   -1.6838   -2.4466   10.1148 C   0  0  0  0  0  0  0  0  0  0  0  0
   -1.9482   -1.2215    9.5163 C   0  0  0  0  0  0  0  0  0  0  0  0
   -2.2907   -1.1318    8.1996 C   0  0  0  0  0  0  0  0  0  0  0  0
   -2.3840   -2.2754    7.4180 C   0  0  0  0  0  0  0  0  0  0  0  0
   -2.1194   -3.4914    8.0224 C   0  0  0  0  0  0  0  0  0  0  0  0
   -1.7688   -3.5937    9.3677 C   0  0  0  0  0  0  0  0  0  0  0  0
   -1.5165   -4.8539    9.9090 O   0  0  0  0  0  0  0  0  0  0  0  0
   -0.7010   -5.7620    9.2130 C   0  0  0  0  0  0  0  0  0  0  0  0
   -3.6532   -2.2405   13.1185 N   0  0  0  0  0  0  0  0  0  0  0  0
   -5.2045   -2.0877   13.7709 S   0  0  0  0  0  6  0  0  0  0  0  0
   -6.0650   -3.2847   13.3564 O   0  0  0  0  0  0  0  0  0  0  0  0
   -5.1741   -2.1628   15.2911 O   0  0  0  0  0  0  0  0  0  0  0  0
   -6.0510   -0.6340   13.3253 C   0  0  0  0  0  0  0  0  0  0  0  0
   -5.9939   -0.0339   12.0986 C   0  0  0  0  0  0  0  0  0  0  0  0
   -6.6756    1.1567   11.8263 C   0  0  0  0  0  0  0  0  0  0  0  0
   -7.4232    1.7650   12.7792 C   0  0  0  0  0  0  0  0  0  0  0  0
   -7.5043    1.1818   14.0379 C   0  0  0  0  0  0  0  0  0  0  0  0
   -6.8355    0.0128   14.3029 C   0  0  0  0  0  0  0  0  0  0  0  0
   -8.1308    3.0280   12.4592 C   0  0  0  0  0  0  0  0  0  0  0  0
   -7.1286    4.1608   12.3749 C   0  0  0  0  0  0  0  0  0  0  0  0
   -9.0646    3.3767   13.6126 C   0  0  0  0  0  0  0  0  0  0  0  0
   -8.8495    2.9037   11.1516 C   0  0  0  0  0  0  0  0  0  0  0  0
   -1.7609    1.8038   15.0666 C   0  0  0  0  0  0  0  0  0  0  0  0
   -0.8568    2.7506   15.1881 N   0  0  0  0  0  0  0  0  0  0  0  0
   -1.0255    3.7600   16.0833 C   0  0  0  0  0  0  0  0  0  0  0  0
   -2.1391    3.8454   16.9000 C   0  0  0  0  0  0  0  0  0  0  0  0
   -3.0884    2.8328   16.7567 C   0  0  0  0  0  0  0  0  0  0  0  0
   -2.8647    1.8727   15.8642 N   0  0  0  0  0  0  0  0  0  0  0  0
  1  2  1  0
  2  3  2  0
  3  4  1  0
  4  5  2  0
  5  6  1  0
  6  7  2  0
  4  8  1  0
  3  9  1  0
  9 10  1  0
 10 11  2  0
 10 12  1  0
 12 13  1  0
 13 14  1  0
 14 15  1  0
 15 16  2  0
 16 17  1  0
 17 18  2  0
 18 19  1  0
 19 20  2  0
 20 21  1  0
 21 22  1  0
 22 23  2  0
 23 24  1  0
 24 25  2  0
 25 26  1  0
 26 27  2  0
 27 28  1  0
 28 29  1  0
 19 30  1  0
 30 31  1  0
 31 32  2  0
 31 33  2  0
 31 34  1  0
 34 35  2  0
 35 36  1  0
 36 37  2  0
 37 38  1  0
 38 39  2  0
 37 40  1  0
 40 41  1  0
 40 42  1  0
 40 43  1  0
 17 44  1  0
 44 45  2  0
 45 46  1  0
 46 47  2  0
 47 48  1  0
 48 49  2  0
  7  2  1  0
 20 15  1  0
 27 22  1  0
 39 34  1  0
 49 44  1  0
M  END
$$$$
