
     RDKit          3D

 49 53  0  0  0  0  0  0  0  0999 V2000
    1.0800    2.4636    4.1064 C   0  0  0  0  0  0  0  0  0  0  0  0
    2.4389    2.3037    4.7070 C   0  0  0  0  0  0  0  0  0  0  0  0
    2.6656    1.6293    5.8857 C   0  0  0  0  0  0  0  0  0  0  0  0
    3.9441    1.5064    6.3680 C   0  0  0  0  0  0  0  0  0  0  0  0
    4.9822    2.0562    5.6753 C   0  0  0  0  0  0  0  0  0  0  0  0
    4.8153    2.7316    4.5102 C   0  0  0  0  0  0  0  0  0  0  0  0
    3.5198    2.8582    4.0155 C   0  0  0  0  0  0  0  0  0  0  0  0
    4.2464    0.7760    7.6311 C   0  0  0  0  0  0  0  0  0  0  0  0
    1.5443    1.0874    6.5929 N   0  0  0  0  0  0  0  0  0  0  0  0
    0.8407    1.9573    7.4830 C   0  0  0  0  0  0  0  0  0  0  0  0
    1.2332    3.1415    7.6825 O   0  0  0  0  0  0  0  0  0  0  0  0
   -0.3811    1.4909    8.1996 C   0  0  0  0  0  0  0  0  0  0  0  0
   -0.0122    1.1199    9.5946 C   0  0  0  0  0  0  0  0  0  0  0  0
   -1.0601    0.8882   10.4600 O   0  0  0  0  0  0  0  0  0  0  0  0
   -0.9065    0.4010   11.7803 C   0  0  0  0  0  0  0  0  0  0  0  0
   -0.0495    0.9934   12.6114 N   0  0  0  0  0  0  0  0  0  0  0  0
    0.1777    0.6122   13.8917 C   0  0  0  0  0  0  0  0  0  0  0  0
   -0.5332   -0.4435   14.3023 N   0  0  0  0  0  0  0  0  0  0  0  0
   -1.4256   -1.1165   13.5371 C   0  0  0  0  0  0  0  0  0  0  0  0
   -1.6331   -0.6881   12.2281 C   0  0  0  0  0  0  0  0  0  0  0  0
   -2.5410   -1.3094   11.3777 O   0  0  0  0  0  0  0  0  0  0  0  0
   -2.3874   -2.5909   10.8420 C   0  0  0  0  0  0  0  0  0  0  0  0
   -3.5006   -3.3845   10.5969 C   0  0  0  0  0  0  0  0  0  0  0  0
   -3.3803   -4.6352   10.0675 C   0  0  0  0  0  0  0  0  0  0  0  0
   -2.1288   -5.1501    9.7577 C   0  0  0  0  0  0  0  0  0  0  0  0
   -1.0256   -4.3530   10.0055 C   0  0  0  0  0  0  0  0  0  0  0  0
   -1.1379   -3.0733   10.5467 C   0  0  0  0  0  0  0  0  0  0  0  0
    0.0190   -2.3271   10.7696 O   0  0  0  0  0  0  0  0  0  0  0  0
    1.2107   -2.6732   10.1108 C   0  0  0  0  0  0  0  0  0  0  0  0
   -2.0956   -2.2383   14.0531 N   0  0  0  0  0  0  0  0  0  0  0  0
   -3.2046   -2.2921   15.3269 S   0  0  0  0  0  6  0  0  0  0  0  0
   -3.6887   -3.7298   15.5367 O   0  0  0  0  0  0  0  0  0  0  0  0
   -2.5448   -1.9273   16.6494 O   0  0  0  0  0  0  0  0  0  0  0  0
   -4.6028   -1.2749   15.1297 C   0  0  0  0  0  0  0  0  0  0  0  0
   -4.8173   -0.0950   15.7855 C   0  0  0  0  0  0  0  0  0  0  0  0
   -5.9862    0.6507   15.6011 C   0  0  0  0  0  0  0  0  0  0  0  0
   -6.9586    0.2248   14.7586 C   0  0  0  0  0  0  0  0  0  0  0  0
   -6.7733   -0.9706   14.0745 C   0  0  0  0  0  0  0  0  0  0  0  0
   -5.6250   -1.7004   14.2559 C   0  0  0  0  0  0  0  0  0  0  0  0
   -8.1871    1.0371   14.5880 C   0  0  0  0  0  0  0  0  0  0  0  0
   -8.0594    2.3189   15.3849 C   0  0  0  0  0  0  0  0  0  0  0  0
   -9.3661    0.2819   15.1911 C   0  0  0  0  0  0  0  0  0  0  0  0
   -8.3930    1.3701   13.1429 C   0  0  0  0  0  0  0  0  0  0  0  0
    1.1406    1.3413   14.7204 C   0  0  0  0  0  0  0  0  0  0  0  0
    1.3454    1.1642   16.0070 N   0  0  0  0  0  0  0  0  0  0  0  0
    2.2654    1.9124   16.6723 C   0  0  0  0  0  0  0  0  0  0  0  0
    3.0240    2.8831   16.0426 C   0  0  0  0  0  0  0  0  0  0  0  0
    2.7939    3.0565   14.6773 C   0  0  0  0  0  0  0  0  0  0  0  0
    1.8798    2.2942   14.0842 N   0  0  0  0  0  0  0  0  0  0  0  0
  1  2  1  0
  2  3  2  0
  3  4  1  0
  4  5  2  0
  5  6  1  0
  6  7  2  0
  4  8  1  0
  3  9  1  0
  9 10  1  0
 10 11  2  0
 10 12  1  0
 12 13  1  0
 13 14  1  0
 14 15  1  0
 15 16  2  0
 16 17  1  0
 17 18  2  0
 18 19  1  0
 19 20  2  0
 20 21  1  0
 21 22  1  0
 22 23  2  0
 23 24  1  0
 24 25  2  0
 25 26  1  0
 26 27  2  0
 27 28  1  0
 28 29  1  0
 19 30  1  0
 30 31  1  0
 31 32  2  0
 31 33  2  0
 31 34  1  0
 34 35  2  0
 35 36  1  0
 36 37  2  0
 37 38  1  0
 38 39  2  0
 37 40  1  0
 40 41  1  0
 40 42  1  0
 40 43  1  0
 17 44  1  0
 44 45  2  0
 45 46  1  0
 46 47  2  0
 47 48  1  0
 48 49  2  0
  7  2  1  0
 20 15  1  0
 27 22  1  0
 39 34  1  0
 49 44  1  0
M  END
$$$$
