
     RDKit          3D

 49 53  0  0  0  0  0  0  0  0999 V2000
    2.5910   -1.4846    7.9546 C   0  0  0  0  0  0  0  0  0  0  0  0
    2.0747   -0.8878    6.6857 C   0  0  0  0  0  0  0  0  0  0  0  0
    1.2008    0.1757    6.6558 C   0  0  0  0  0  0  0  0  0  0  0  0
    0.7832    0.6837    5.4516 C   0  0  0  0  0  0  0  0  0  0  0  0
    1.2367    0.1285    4.2915 C   0  0  0  0  0  0  0  0  0  0  0  0
    2.0972   -0.9204    4.2634 C   0  0  0  0  0  0  0  0  0  0  0  0
    2.5253   -1.4390    5.4827 C   0  0  0  0  0  0  0  0  0  0  0  0
   -0.1510    1.8411    5.3625 C   0  0  0  0  0  0  0  0  0  0  0  0
    0.7314    0.7133    7.8974 N   0  0  0  0  0  0  0  0  0  0  0  0
    1.5556    1.6801    8.5533 C   0  0  0  0  0  0  0  0  0  0  0  0
    2.8142    1.5702    8.5536 O   0  0  0  0  0  0  0  0  0  0  0  0
    0.9511    2.8497    9.2536 C   0  0  0  0  0  0  0  0  0  0  0  0
    0.5338    2.4320   10.6215 C   0  0  0  0  0  0  0  0  0  0  0  0
   -0.4823    1.5028   10.6905 O   0  0  0  0  0  0  0  0  0  0  0  0
   -1.1106    1.1013   11.8939 C   0  0  0  0  0  0  0  0  0  0  0  0
   -0.7817    1.6901   13.0434 N   0  0  0  0  0  0  0  0  0  0  0  0
   -1.3165    1.3860   14.2508 C   0  0  0  0  0  0  0  0  0  0  0  0
   -2.2353    0.4144   14.2340 N   0  0  0  0  0  0  0  0  0  0  0  0
   -2.6370   -0.2473   13.1226 C   0  0  0  0  0  0  0  0  0  0  0  0
   -2.0658    0.1002   11.9007 C   0  0  0  0  0  0  0  0  0  0  0  0
   -2.4298   -0.5151   10.7081 O   0  0  0  0  0  0  0  0  0  0  0  0
   -1.9930   -1.7759   10.2927 C   0  0  0  0  0  0  0  0  0  0  0  0
   -1.5903   -2.7198   11.2286 C   0  0  0  0  0  0  0  0  0  0  0  0
   -1.1674   -3.9601   10.8518 C   0  0  0  0  0  0  0  0  0  0  0  0
   -1.1290   -4.3120    9.5094 C   0  0  0  0  0  0  0  0  0  0  0  0
   -1.5315   -3.3656    8.5841 C   0  0  0  0  0  0  0  0  0  0  0  0
   -1.9652   -2.0949    8.9591 C   0  0  0  0  0  0  0  0  0  0  0  0
   -2.3556   -1.1922    7.9704 O   0  0  0  0  0  0  0  0  0  0  0  0
   -2.0338    0.1692    8.1017 C   0  0  0  0  0  0  0  0  0  0  0  0
   -3.5846   -1.2801   13.2181 N   0  0  0  0  0  0  0  0  0  0  0  0
   -4.9907   -1.3178   14.1546 S   0  0  0  0  0  6  0  0  0  0  0  0
   -6.1836   -1.7319   13.2882 O   0  0  0  0  0  0  0  0  0  0  0  0
   -4.9147   -2.4011   15.2215 O   0  0  0  0  0  0  0  0  0  0  0  0
   -5.3906    0.1809   14.9435 C   0  0  0  0  0  0  0  0  0  0  0  0
   -5.5390    1.3862   14.3162 C   0  0  0  0  0  0  0  0  0  0  0  0
   -5.8260    2.5574   15.0249 C   0  0  0  0  0  0  0  0  0  0  0  0
   -5.9667    2.5393   16.3728 C   0  0  0  0  0  0  0  0  0  0  0  0
   -5.8232    1.3305   17.0432 C   0  0  0  0  0  0  0  0  0  0  0  0
   -5.5427    0.1820   16.3458 C   0  0  0  0  0  0  0  0  0  0  0  0
   -6.2675    3.7990   17.0945 C   0  0  0  0  0  0  0  0  0  0  0  0
   -7.4660    4.4718   16.4577 C   0  0  0  0  0  0  0  0  0  0  0  0
   -5.0994    4.7619   16.9153 C   0  0  0  0  0  0  0  0  0  0  0  0
   -6.5656    3.5143   18.5338 C   0  0  0  0  0  0  0  0  0  0  0  0
   -0.8843    2.1033   15.4525 C   0  0  0  0  0  0  0  0  0  0  0  0
    0.1466    2.9146   15.5414 N   0  0  0  0  0  0  0  0  0  0  0  0
    0.4547    3.5180   16.7203 C   0  0  0  0  0  0  0  0  0  0  0  0
   -0.2875    3.3159   17.8703 C   0  0  0  0  0  0  0  0  0  0  0  0
   -1.3781    2.4529   17.7571 C   0  0  0  0  0  0  0  0  0  0  0  0
   -1.6265    1.8929   16.5768 N   0  0  0  0  0  0  0  0  0  0  0  0
  1  2  1  0
  2  3  2  0
  3  4  1  0
  4  5  2  0
  5  6  1  0
  6  7  2  0
  4  8  1  0
  3  9  1  0
  9 10  1  0
 10 11  2  0
 10 12  1  0
 12 13  1  0
 13 14  1  0
 14 15  1  0
 15 16  2  0
 16 17  1  0
 17 18  2  0
 18 19  1  0
 19 20  2  0
 20 21  1  0
 21 22  1  0
 22 23  2  0
 23 24  1  0
 24 25  2  0
 25 26  1  0
 26 27  2  0
 27 28  1  0
 28 29  1  0
 19 30  1  0
 30 31  1  0
 31 32  2  0
 31 33  2  0
 31 34  1  0
 34 35  2  0
 35 36  1  0
 36 37  2  0
 37 38  1  0
 38 39  2  0
 37 40  1  0
 40 41  1  0
 40 42  1  0
 40 43  1  0
 17 44  1  0
 44 45  2  0
 45 46  1  0
 46 47  2  0
 47 48  1  0
 48 49  2  0
  7  2  1  0
 20 15  1  0
 27 22  1  0
 39 34  1  0
 49 44  1  0
M  END
$$$$
