
     RDKit          3D

 49 53  0  0  0  0  0  0  0  0999 V2000
    4.3853    1.6387    7.0533 C   0  0  0  0  0  0  0  0  0  0  0  0
    3.5062    1.2611    5.9054 C   0  0  0  0  0  0  0  0  0  0  0  0
    2.4098    0.4387    6.0365 C   0  0  0  0  0  0  0  0  0  0  0  0
    1.6369    0.1500    4.9403 C   0  0  0  0  0  0  0  0  0  0  0  0
    1.9628    0.6798    3.7267 C   0  0  0  0  0  0  0  0  0  0  0  0
    3.0319    1.4945    3.5412 C   0  0  0  0  0  0  0  0  0  0  0  0
    3.8191    1.7919    4.6507 C   0  0  0  0  0  0  0  0  0  0  0  0
    0.4329   -0.7234    5.0292 C   0  0  0  0  0  0  0  0  0  0  0  0
    2.1172   -0.1148    7.3246 N   0  0  0  0  0  0  0  0  0  0  0  0
    1.1437    0.5573    8.1275 C   0  0  0  0  0  0  0  0  0  0  0  0
    1.1236    1.8179    8.2080 O   0  0  0  0  0  0  0  0  0  0  0  0
    0.1202   -0.2130    8.8909 C   0  0  0  0  0  0  0  0  0  0  0  0
    0.8116   -1.1963    9.7712 C   0  0  0  0  0  0  0  0  0  0  0  0
    0.0099   -1.9003   10.6443 O   0  0  0  0  0  0  0  0  0  0  0  0
   -0.7982   -1.3000   11.6398 C   0  0  0  0  0  0  0  0  0  0  0  0
   -0.4676   -0.1071   12.1334 N   0  0  0  0  0  0  0  0  0  0  0  0
   -1.1652    0.5580   13.0859 C   0  0  0  0  0  0  0  0  0  0  0  0
   -2.2561   -0.0736   13.5327 N   0  0  0  0  0  0  0  0  0  0  0  0
   -2.6761   -1.2863   13.0998 C   0  0  0  0  0  0  0  0  0  0  0  0
   -1.9327   -1.9334   12.1155 C   0  0  0  0  0  0  0  0  0  0  0  0
   -2.2989   -3.1724   11.6015 O   0  0  0  0  0  0  0  0  0  0  0  0
   -2.4849   -3.4524   10.2451 C   0  0  0  0  0  0  0  0  0  0  0  0
   -1.3891   -3.5973    9.4043 C   0  0  0  0  0  0  0  0  0  0  0  0
   -1.5413   -3.8785    8.0788 C   0  0  0  0  0  0  0  0  0  0  0  0
   -2.8090   -4.0281    7.5330 C   0  0  0  0  0  0  0  0  0  0  0  0
   -3.8948   -3.8818    8.3777 C   0  0  0  0  0  0  0  0  0  0  0  0
   -3.7498   -3.5940    9.7340 C   0  0  0  0  0  0  0  0  0  0  0  0
   -4.8906   -3.4601   10.5248 O   0  0  0  0  0  0  0  0  0  0  0  0
   -5.8503   -2.4846   10.2061 C   0  0  0  0  0  0  0  0  0  0  0  0
   -3.8181   -1.8812   13.6615 N   0  0  0  0  0  0  0  0  0  0  0  0
   -5.0494   -1.1366   14.5475 S   0  0  0  0  0  6  0  0  0  0  0  0
   -6.3896   -1.8152   14.2503 O   0  0  0  0  0  0  0  0  0  0  0  0
   -4.8547   -1.3415   16.0434 O   0  0  0  0  0  0  0  0  0  0  0  0
   -5.2333    0.5702   14.2622 C   0  0  0  0  0  0  0  0  0  0  0  0
   -6.1846    1.1368   13.4608 C   0  0  0  0  0  0  0  0  0  0  0  0
   -6.2465    2.5184   13.2512 C   0  0  0  0  0  0  0  0  0  0  0  0
   -5.3553    3.3529   13.8398 C   0  0  0  0  0  0  0  0  0  0  0  0
   -4.3749    2.8108   14.6621 C   0  0  0  0  0  0  0  0  0  0  0  0
   -4.3165    1.4549   14.8674 C   0  0  0  0  0  0  0  0  0  0  0  0
   -5.4464    4.8123   13.5945 C   0  0  0  0  0  0  0  0  0  0  0  0
   -6.8791    5.2671   13.7809 C   0  0  0  0  0  0  0  0  0  0  0  0
   -5.1026    5.0901   12.1356 C   0  0  0  0  0  0  0  0  0  0  0  0
   -4.5625    5.5551   14.5476 C   0  0  0  0  0  0  0  0  0  0  0  0
   -0.7128    1.8707   13.5524 C   0  0  0  0  0  0  0  0  0  0  0  0
   -1.3602    2.6650   14.3763 N   0  0  0  0  0  0  0  0  0  0  0  0
   -0.8395    3.8702   14.7303 C   0  0  0  0  0  0  0  0  0  0  0  0
    0.3793    4.3180   14.2526 C   0  0  0  0  0  0  0  0  0  0  0  0
    1.0525    3.4617   13.3804 C   0  0  0  0  0  0  0  0  0  0  0  0
    0.4900    2.2969   13.0720 N   0  0  0  0  0  0  0  0  0  0  0  0
  1  2  1  0
  2  3  2  0
  3  4  1  0
  4  5  2  0
  5  6  1  0
  6  7  2  0
  4  8  1  0
  3  9  1  0
  9 10  1  0
 10 11  2  0
 10 12  1  0
 12 13  1  0
 13 14  1  0
 14 15  1  0
 15 16  2  0
 16 17  1  0
 17 18  2  0
 18 19  1  0
 19 20  2  0
 20 21  1  0
 21 22  1  0
 22 23  2  0
 23 24  1  0
 24 25  2  0
 25 26  1  0
 26 27  2  0
 27 28  1  0
 28 29  1  0
 19 30  1  0
 30 31  1  0
 31 32  2  0
 31 33  2  0
 31 34  1  0
 34 35  2  0
 35 36  1  0
 36 37  2  0
 37 38  1  0
 38 39  2  0
 37 40  1  0
 40 41  1  0
 40 42  1  0
 40 43  1  0
 17 44  1  0
 44 45  2  0
 45 46  1  0
 46 47  2  0
 47 48  1  0
 48 49  2  0
  7  2  1  0
 20 15  1  0
 27 22  1  0
 39 34  1  0
 49 44  1  0
M  END
$$$$
