
     RDKit          3D

 49 53  0  0  0  0  0  0  0  0999 V2000
    2.9154    2.0247    8.0539 C   0  0  0  0  0  0  0  0  0  0  0  0
    2.2796    0.7632    7.5667 C   0  0  0  0  0  0  0  0  0  0  0  0
    1.4555   -0.0144    8.3488 C   0  0  0  0  0  0  0  0  0  0  0  0
    0.8914   -1.1513    7.8276 C   0  0  0  0  0  0  0  0  0  0  0  0
    1.1539   -1.5037    6.5366 C   0  0  0  0  0  0  0  0  0  0  0  0
    1.9588   -0.7749    5.7227 C   0  0  0  0  0  0  0  0  0  0  0  0
    2.5328    0.3807    6.2463 C   0  0  0  0  0  0  0  0  0  0  0  0
   -0.0175   -2.0212    8.6260 C   0  0  0  0  0  0  0  0  0  0  0  0
    1.2252    0.3798    9.7063 N   0  0  0  0  0  0  0  0  0  0  0  0
    2.2763    0.1522   10.6484 C   0  0  0  0  0  0  0  0  0  0  0  0
    3.3361   -0.4464   10.3101 O   0  0  0  0  0  0  0  0  0  0  0  0
    2.1518    0.6196   12.0590 C   0  0  0  0  0  0  0  0  0  0  0  0
    0.7226    0.9321   12.3410 C   0  0  0  0  0  0  0  0  0  0  0  0
    0.4874    2.0047   13.1746 O   0  0  0  0  0  0  0  0  0  0  0  0
    0.0151    1.8883   14.5041 C   0  0  0  0  0  0  0  0  0  0  0  0
    0.7536    2.3476   15.5139 N   0  0  0  0  0  0  0  0  0  0  0  0
    0.4017    2.2884   16.8212 C   0  0  0  0  0  0  0  0  0  0  0  0
   -0.7818    1.7146   17.0629 N   0  0  0  0  0  0  0  0  0  0  0  0
   -1.6049    1.2146   16.1105 C   0  0  0  0  0  0  0  0  0  0  0  0
   -1.2073    1.3008   14.7783 C   0  0  0  0  0  0  0  0  0  0  0  0
   -1.9960    0.8284   13.7351 O   0  0  0  0  0  0  0  0  0  0  0  0
   -2.2422   -0.5206   13.4659 C   0  0  0  0  0  0  0  0  0  0  0  0
   -1.4649   -1.5056   14.0613 C   0  0  0  0  0  0  0  0  0  0  0  0
   -1.6882   -2.8294   13.8229 C   0  0  0  0  0  0  0  0  0  0  0  0
   -2.7088   -3.2277   12.9701 C   0  0  0  0  0  0  0  0  0  0  0  0
   -3.4777   -2.2399   12.3811 C   0  0  0  0  0  0  0  0  0  0  0  0
   -3.2573   -0.8840   12.6182 C   0  0  0  0  0  0  0  0  0  0  0  0
   -4.0727    0.0561   11.9887 O   0  0  0  0  0  0  0  0  0  0  0  0
   -5.3966    0.2346   12.4238 C   0  0  0  0  0  0  0  0  0  0  0  0
   -2.8135    0.5971   16.4732 N   0  0  0  0  0  0  0  0  0  0  0  0
   -3.3653    0.2238   18.0261 S   0  0  0  0  0  6  0  0  0  0  0  0
   -4.6306    1.0284   18.3376 O   0  0  0  0  0  0  0  0  0  0  0  0
   -3.8176   -1.2269   18.1176 O   0  0  0  0  0  0  0  0  0  0  0  0
   -2.2177    0.5064   19.3034 C   0  0  0  0  0  0  0  0  0  0  0  0
   -1.9377    1.7251   19.8554 C   0  0  0  0  0  0  0  0  0  0  0  0
   -0.9730    1.8785   20.8565 C   0  0  0  0  0  0  0  0  0  0  0  0
   -0.2730    0.8139   21.3184 C   0  0  0  0  0  0  0  0  0  0  0  0
   -0.5326   -0.4407   20.7801 C   0  0  0  0  0  0  0  0  0  0  0  0
   -1.4805   -0.5894   19.7985 C   0  0  0  0  0  0  0  0  0  0  0  0
    0.7451    1.0109   22.3781 C   0  0  0  0  0  0  0  0  0  0  0  0
    1.7934    1.9918   21.8949 C   0  0  0  0  0  0  0  0  0  0  0  0
    1.4764   -0.3061   22.6113 C   0  0  0  0  0  0  0  0  0  0  0  0
    0.1037    1.5435   23.6217 C   0  0  0  0  0  0  0  0  0  0  0  0
    1.2903    2.8313   17.8513 C   0  0  0  0  0  0  0  0  0  0  0  0
    2.5657    3.1144   17.7030 N   0  0  0  0  0  0  0  0  0  0  0  0
    3.2919    3.6078   18.7413 C   0  0  0  0  0  0  0  0  0  0  0  0
    2.7378    3.8365   19.9883 C   0  0  0  0  0  0  0  0  0  0  0  0
    1.3833    3.5314   20.1269 C   0  0  0  0  0  0  0  0  0  0  0  0
    0.7284    3.0506   19.0741 N   0  0  0  0  0  0  0  0  0  0  0  0
  1  2  1  0
  2  3  2  0
  3  4  1  0
  4  5  2  0
  5  6  1  0
  6  7  2  0
  4  8  1  0
  3  9  1  0
  9 10  1  0
 10 11  2  0
 10 12  1  0
 12 13  1  0
 13 14  1  0
 14 15  1  0
 15 16  2  0
 16 17  1  0
 17 18  2  0
 18 19  1  0
 19 20  2  0
 20 21  1  0
 21 22  1  0
 22 23  2  0
 23 24  1  0
 24 25  2  0
 25 26  1  0
 26 27  2  0
 27 28  1  0
 28 29  1  0
 19 30  1  0
 30 31  1  0
 31 32  2  0
 31 33  2  0
 31 34  1  0
 34 35  2  0
 35 36  1  0
 36 37  2  0
 37 38  1  0
 38 39  2  0
 37 40  1  0
 40 41  1  0
 40 42  1  0
 40 43  1  0
 17 44  1  0
 44 45  2  0
 45 46  1  0
 46 47  2  0
 47 48  1  0
 48 49  2  0
  7  2  1  0
 20 15  1  0
 27 22  1  0
 39 34  1  0
 49 44  1  0
M  END
$$$$
