
     RDKit          3D

 49 53  0  0  0  0  0  0  0  0999 V2000
    5.1194    1.8621    6.4726 C   0  0  0  0  0  0  0  0  0  0  0  0
    4.0426    1.3565    5.5682 C   0  0  0  0  0  0  0  0  0  0  0  0
    2.7621    1.0907    5.9986 C   0  0  0  0  0  0  0  0  0  0  0  0
    1.8196    0.6459    5.1064 C   0  0  0  0  0  0  0  0  0  0  0  0
    2.1601    0.4683    3.7978 C   0  0  0  0  0  0  0  0  0  0  0  0
    3.4064    0.7138    3.3207 C   0  0  0  0  0  0  0  0  0  0  0  0
    4.3667    1.1668    4.2217 C   0  0  0  0  0  0  0  0  0  0  0  0
    0.4167    0.3558    5.5165 C   0  0  0  0  0  0  0  0  0  0  0  0
    2.4536    1.2686    7.3858 N   0  0  0  0  0  0  0  0  0  0  0  0
    2.3988    0.0991    8.2063 C   0  0  0  0  0  0  0  0  0  0  0  0
    2.7533   -1.0279    7.7588 O   0  0  0  0  0  0  0  0  0  0  0  0
    1.9241    0.1781    9.6178 C   0  0  0  0  0  0  0  0  0  0  0  0
    0.9551   -0.9263    9.8651 C   0  0  0  0  0  0  0  0  0  0  0  0
    0.4567   -1.0228   11.1469 O   0  0  0  0  0  0  0  0  0  0  0  0
   -0.6661   -0.3009   11.6185 C   0  0  0  0  0  0  0  0  0  0  0  0
   -0.4896    0.7800   12.3779 N   0  0  0  0  0  0  0  0  0  0  0  0
   -1.4884    1.5437   12.8832 C   0  0  0  0  0  0  0  0  0  0  0  0
   -2.7239    1.1385   12.5704 N   0  0  0  0  0  0  0  0  0  0  0  0
   -3.0103    0.0548   11.8100 C   0  0  0  0  0  0  0  0  0  0  0  0
   -1.9536   -0.6997   11.3057 C   0  0  0  0  0  0  0  0  0  0  0  0
   -2.1547   -1.8176   10.5037 O   0  0  0  0  0  0  0  0  0  0  0  0
   -2.5632   -1.7806    9.1678 C   0  0  0  0  0  0  0  0  0  0  0  0
   -2.4637   -0.6028    8.4385 C   0  0  0  0  0  0  0  0  0  0  0  0
   -2.8473   -0.5404    7.1316 C   0  0  0  0  0  0  0  0  0  0  0  0
   -3.3517   -1.6650    6.4925 C   0  0  0  0  0  0  0  0  0  0  0  0
   -3.4476   -2.8337    7.2266 C   0  0  0  0  0  0  0  0  0  0  0  0
   -3.0585   -2.9077    8.5632 C   0  0  0  0  0  0  0  0  0  0  0  0
   -3.1843   -4.1203    9.2402 O   0  0  0  0  0  0  0  0  0  0  0  0
   -4.4238   -4.7816    9.2632 C   0  0  0  0  0  0  0  0  0  0  0  0
   -4.3461   -0.3077   11.5698 N   0  0  0  0  0  0  0  0  0  0  0  0
   -5.6233   -0.3632   12.6749 S   0  0  0  0  0  6  0  0  0  0  0  0
   -6.6639    0.7039   12.3235 O   0  0  0  0  0  0  0  0  0  0  0  0
   -6.3884   -1.6750   12.5693 O   0  0  0  0  0  0  0  0  0  0  0  0
   -5.1666   -0.1444   14.3399 C   0  0  0  0  0  0  0  0  0  0  0  0
   -4.9416   -1.1534   15.2341 C   0  0  0  0  0  0  0  0  0  0  0  0
   -4.6126   -0.8974   16.5692 C   0  0  0  0  0  0  0  0  0  0  0  0
   -4.5059    0.3730   17.0292 C   0  0  0  0  0  0  0  0  0  0  0  0
   -4.7273    1.4236   16.1469 C   0  0  0  0  0  0  0  0  0  0  0  0
   -5.0489    1.1704   14.8368 C   0  0  0  0  0  0  0  0  0  0  0  0
   -4.1588    0.6102   18.4510 C   0  0  0  0  0  0  0  0  0  0  0  0
   -5.3264    1.2737   19.1518 C   0  0  0  0  0  0  0  0  0  0  0  0
   -3.0063    1.6056   18.5185 C   0  0  0  0  0  0  0  0  0  0  0  0
   -3.8434   -0.6855   19.1317 C   0  0  0  0  0  0  0  0  0  0  0  0
   -1.1792    2.7173   13.7033 C   0  0  0  0  0  0  0  0  0  0  0  0
    0.0128    3.2403   13.8884 N   0  0  0  0  0  0  0  0  0  0  0  0
    0.1758    4.3310   14.6838 C   0  0  0  0  0  0  0  0  0  0  0  0
   -0.8854    4.9403   15.3295 C   0  0  0  0  0  0  0  0  0  0  0  0
   -2.1428    4.3724   15.1208 C   0  0  0  0  0  0  0  0  0  0  0  0
   -2.2362    3.3055   14.3325 N   0  0  0  0  0  0  0  0  0  0  0  0
  1  2  1  0
  2  3  2  0
  3  4  1  0
  4  5  2  0
  5  6  1  0
  6  7  2  0
  4  8  1  0
  3  9  1  0
  9 10  1  0
 10 11  2  0
 10 12  1  0
 12 13  1  0
 13 14  1  0
 14 15  1  0
 15 16  2  0
 16 17  1  0
 17 18  2  0
 18 19  1  0
 19 20  2  0
 20 21  1  0
 21 22  1  0
 22 23  2  0
 23 24  1  0
 24 25  2  0
 25 26  1  0
 26 27  2  0
 27 28  1  0
 28 29  1  0
 19 30  1  0
 30 31  1  0
 31 32  2  0
 31 33  2  0
 31 34  1  0
 34 35  2  0
 35 36  1  0
 36 37  2  0
 37 38  1  0
 38 39  2  0
 37 40  1  0
 40 41  1  0
 40 42  1  0
 40 43  1  0
 17 44  1  0
 44 45  2  0
 45 46  1  0
 46 47  2  0
 47 48  1  0
 48 49  2  0
  7  2  1  0
 20 15  1  0
 27 22  1  0
 39 34  1  0
 49 44  1  0
M  END
$$$$
