
     RDKit          3D

 49 53  0  0  0  0  0  0  0  0999 V2000
    5.6143    1.4492    7.8962 C   0  0  0  0  0  0  0  0  0  0  0  0
    4.5866    1.0316    6.8950 C   0  0  0  0  0  0  0  0  0  0  0  0
    3.4260    0.3750    7.2376 C   0  0  0  0  0  0  0  0  0  0  0  0
    2.5183    0.0387    6.2653 C   0  0  0  0  0  0  0  0  0  0  0  0
    2.7746    0.3567    4.9642 C   0  0  0  0  0  0  0  0  0  0  0  0
    3.9019    1.0018    4.5713 C   0  0  0  0  0  0  0  0  0  0  0  0
    4.8260    1.3467    5.5543 C   0  0  0  0  0  0  0  0  0  0  0  0
    1.2413   -0.6604    6.5829 C   0  0  0  0  0  0  0  0  0  0  0  0
    3.2076    0.0396    8.6127 N   0  0  0  0  0  0  0  0  0  0  0  0
    2.7593    1.0806    9.4842 C   0  0  0  0  0  0  0  0  0  0  0  0
    3.4556    2.1178    9.6721 O   0  0  0  0  0  0  0  0  0  0  0  0
    1.4524    0.9721   10.1941 C   0  0  0  0  0  0  0  0  0  0  0  0
    0.3609    1.3737    9.2629 C   0  0  0  0  0  0  0  0  0  0  0  0
   -0.9258    1.2370    9.7387 O   0  0  0  0  0  0  0  0  0  0  0  0
   -1.2466    0.7908   11.0434 C   0  0  0  0  0  0  0  0  0  0  0  0
   -0.6353    1.3288   12.0984 N   0  0  0  0  0  0  0  0  0  0  0  0
   -0.8628    0.9791   13.3876 C   0  0  0  0  0  0  0  0  0  0  0  0
   -1.7748    0.0163   13.5601 N   0  0  0  0  0  0  0  0  0  0  0  0
   -2.4487   -0.5956   12.5571 C   0  0  0  0  0  0  0  0  0  0  0  0
   -2.1886   -0.2022   11.2465 C   0  0  0  0  0  0  0  0  0  0  0  0
   -2.8450   -0.7646   10.1573 O   0  0  0  0  0  0  0  0  0  0  0  0
   -2.6184   -2.0525    9.6646 C   0  0  0  0  0  0  0  0  0  0  0  0
   -1.7145   -2.8949   10.2990 C   0  0  0  0  0  0  0  0  0  0  0  0
   -1.4800   -4.1589    9.8446 C   0  0  0  0  0  0  0  0  0  0  0  0
   -2.1465   -4.6384    8.7252 C   0  0  0  0  0  0  0  0  0  0  0  0
   -3.0446   -3.7925    8.0994 C   0  0  0  0  0  0  0  0  0  0  0  0
   -3.2912   -2.4986    8.5559 C   0  0  0  0  0  0  0  0  0  0  0  0
   -4.2105   -1.7022    7.8736 O   0  0  0  0  0  0  0  0  0  0  0  0
   -5.5293   -1.5971    8.3466 C   0  0  0  0  0  0  0  0  0  0  0  0
   -3.3621   -1.6239   12.8430 N   0  0  0  0  0  0  0  0  0  0  0  0
   -4.7814   -1.5301   13.7554 S   0  0  0  0  0  6  0  0  0  0  0  0
   -5.7065   -2.6984   13.4027 O   0  0  0  0  0  0  0  0  0  0  0  0
   -4.4975   -1.7178   15.2391 O   0  0  0  0  0  0  0  0  0  0  0  0
   -5.6816   -0.0527   13.5671 C   0  0  0  0  0  0  0  0  0  0  0  0
   -5.5581    1.0518   14.3628 C   0  0  0  0  0  0  0  0  0  0  0  0
   -6.3449    2.1922   14.1709 C   0  0  0  0  0  0  0  0  0  0  0  0
   -7.2687    2.2426   13.1805 C   0  0  0  0  0  0  0  0  0  0  0  0
   -7.4205    1.1374   12.3517 C   0  0  0  0  0  0  0  0  0  0  0  0
   -6.6465    0.0197   12.5409 C   0  0  0  0  0  0  0  0  0  0  0  0
   -8.0890    3.4652   13.0058 C   0  0  0  0  0  0  0  0  0  0  0  0
   -8.9905    3.3003   11.7997 C   0  0  0  0  0  0  0  0  0  0  0  0
   -7.1675    4.6366   12.6859 C   0  0  0  0  0  0  0  0  0  0  0  0
   -8.9278    3.7059   14.2224 C   0  0  0  0  0  0  0  0  0  0  0  0
   -0.1362    1.6425   14.4727 C   0  0  0  0  0  0  0  0  0  0  0  0
    0.9027    2.4368   14.3368 N   0  0  0  0  0  0  0  0  0  0  0  0
    1.5009    2.9889   15.4259 C   0  0  0  0  0  0  0  0  0  0  0  0
    1.0561    2.7503   16.7141 C   0  0  0  0  0  0  0  0  0  0  0  0
   -0.0478    1.9059   16.8392 C   0  0  0  0  0  0  0  0  0  0  0  0
   -0.5875    1.3966   15.7357 N   0  0  0  0  0  0  0  0  0  0  0  0
  1  2  1  0
  2  3  2  0
  3  4  1  0
  4  5  2  0
  5  6  1  0
  6  7  2  0
  4  8  1  0
  3  9  1  0
  9 10  1  0
 10 11  2  0
 10 12  1  0
 12 13  1  0
 13 14  1  0
 14 15  1  0
 15 16  2  0
 16 17  1  0
 17 18  2  0
 18 19  1  0
 19 20  2  0
 20 21  1  0
 21 22  1  0
 22 23  2  0
 23 24  1  0
 24 25  2  0
 25 26  1  0
 26 27  2  0
 27 28  1  0
 28 29  1  0
 19 30  1  0
 30 31  1  0
 31 32  2  0
 31 33  2  0
 31 34  1  0
 34 35  2  0
 35 36  1  0
 36 37  2  0
 37 38  1  0
 38 39  2  0
 37 40  1  0
 40 41  1  0
 40 42  1  0
 40 43  1  0
 17 44  1  0
 44 45  2  0
 45 46  1  0
 46 47  2  0
 47 48  1  0
 48 49  2  0
  7  2  1  0
 20 15  1  0
 27 22  1  0
 39 34  1  0
 49 44  1  0
M  END
$$$$
