
     RDKit          3D

 49 53  0  0  0  0  0  0  0  0999 V2000
   -6.8130   -0.0233   17.0242 C   0  0  0  0  0  0  0  0  0  0  0  0
   -6.7372    1.4256   16.6666 C   0  0  0  0  0  0  0  0  0  0  0  0
   -6.0615    1.8934   15.5620 C   0  0  0  0  0  0  0  0  0  0  0  0
   -6.0504    3.2372   15.2858 C   0  0  0  0  0  0  0  0  0  0  0  0
   -6.7087    4.1009   16.1107 C   0  0  0  0  0  0  0  0  0  0  0  0
   -7.3888    3.6943   17.2122 C   0  0  0  0  0  0  0  0  0  0  0  0
   -7.4045    2.3312   17.4965 C   0  0  0  0  0  0  0  0  0  0  0  0
   -5.3459    3.7947   14.0970 C   0  0  0  0  0  0  0  0  0  0  0  0
   -5.3642    0.9542   14.7356 N   0  0  0  0  0  0  0  0  0  0  0  0
   -4.0810    0.5071   15.1803 C   0  0  0  0  0  0  0  0  0  0  0  0
   -3.5634    0.9623   16.2390 O   0  0  0  0  0  0  0  0  0  0  0  0
   -3.3180   -0.5142   14.4067 C   0  0  0  0  0  0  0  0  0  0  0  0
   -2.9491    0.0584   13.0816 C   0  0  0  0  0  0  0  0  0  0  0  0
   -2.4458   -0.8289   12.1542 O   0  0  0  0  0  0  0  0  0  0  0  0
   -1.8286   -0.4432   10.9399 C   0  0  0  0  0  0  0  0  0  0  0  0
   -0.7123    0.2843   10.9640 N   0  0  0  0  0  0  0  0  0  0  0  0
   -0.0398    0.7086    9.8667 C   0  0  0  0  0  0  0  0  0  0  0  0
   -0.5792    0.3467    8.6977 N   0  0  0  0  0  0  0  0  0  0  0  0
   -1.7095   -0.3875    8.5648 C   0  0  0  0  0  0  0  0  0  0  0  0
   -2.3669   -0.8081    9.7185 C   0  0  0  0  0  0  0  0  0  0  0  0
   -3.5239   -1.5782    9.6761 O   0  0  0  0  0  0  0  0  0  0  0  0
   -3.5827   -2.9488    9.9420 C   0  0  0  0  0  0  0  0  0  0  0  0
   -2.6008   -3.7992    9.4504 C   0  0  0  0  0  0  0  0  0  0  0  0
   -2.6290   -5.1392    9.7012 C   0  0  0  0  0  0  0  0  0  0  0  0
   -3.6510   -5.6905   10.4621 C   0  0  0  0  0  0  0  0  0  0  0  0
   -4.6249   -4.8362   10.9474 C   0  0  0  0  0  0  0  0  0  0  0  0
   -4.6052   -3.4651   10.6963 C   0  0  0  0  0  0  0  0  0  0  0  0
   -5.6214   -2.6652   11.2181 O   0  0  0  0  0  0  0  0  0  0  0  0
   -5.9083   -2.7096   12.5928 C   0  0  0  0  0  0  0  0  0  0  0  0
   -2.2145   -0.6838    7.2877 N   0  0  0  0  0  0  0  0  0  0  0  0
   -1.4282   -0.5381    5.7991 S   0  0  0  0  0  6  0  0  0  0  0  0
   -1.2948   -1.9151    5.1426 O   0  0  0  0  0  0  0  0  0  0  0  0
   -2.2624    0.2640    4.8101 O   0  0  0  0  0  0  0  0  0  0  0  0
    0.1545    0.1822    5.8695 C   0  0  0  0  0  0  0  0  0  0  0  0
    0.4198    1.5159    5.7316 C   0  0  0  0  0  0  0  0  0  0  0  0
    1.7255    2.0165    5.7635 C   0  0  0  0  0  0  0  0  0  0  0  0
    2.7851    1.1884    5.9321 C   0  0  0  0  0  0  0  0  0  0  0  0
    2.5519   -0.1739    6.0766 C   0  0  0  0  0  0  0  0  0  0  0  0
    1.2698   -0.6631    6.0461 C   0  0  0  0  0  0  0  0  0  0  0  0
    4.1568    1.7506    5.9581 C   0  0  0  0  0  0  0  0  0  0  0  0
    4.8454    1.3425    7.2441 C   0  0  0  0  0  0  0  0  0  0  0  0
    4.0664    3.2719    5.9932 C   0  0  0  0  0  0  0  0  0  0  0  0
    4.9470    1.2458    4.7909 C   0  0  0  0  0  0  0  0  0  0  0  0
    1.1841    1.5003   10.0100 C   0  0  0  0  0  0  0  0  0  0  0  0
    1.9457    1.5619   11.0800 N   0  0  0  0  0  0  0  0  0  0  0  0
    3.0579    2.3440   11.0957 C   0  0  0  0  0  0  0  0  0  0  0  0
    3.4431    3.1033   10.0051 C   0  0  0  0  0  0  0  0  0  0  0  0
    2.6237    3.0248    8.8783 C   0  0  0  0  0  0  0  0  0  0  0  0
    1.5494    2.2426    8.9262 N   0  0  0  0  0  0  0  0  0  0  0  0
  1  2  1  0
  2  3  2  0
  3  4  1  0
  4  5  2  0
  5  6  1  0
  6  7  2  0
  4  8  1  0
  3  9  1  0
  9 10  1  0
 10 11  2  0
 10 12  1  0
 12 13  1  0
 13 14  1  0
 14 15  1  0
 15 16  2  0
 16 17  1  0
 17 18  2  0
 18 19  1  0
 19 20  2  0
 20 21  1  0
 21 22  1  0
 22 23  2  0
 23 24  1  0
 24 25  2  0
 25 26  1  0
 26 27  2  0
 27 28  1  0
 28 29  1  0
 19 30  1  0
 30 31  1  0
 31 32  2  0
 31 33  2  0
 31 34  1  0
 34 35  2  0
 35 36  1  0
 36 37  2  0
 37 38  1  0
 38 39  2  0
 37 40  1  0
 40 41  1  0
 40 42  1  0
 40 43  1  0
 17 44  1  0
 44 45  2  0
 45 46  1  0
 46 47  2  0
 47 48  1  0
 48 49  2  0
  7  2  1  0
 20 15  1  0
 27 22  1  0
 39 34  1  0
 49 44  1  0
M  END
$$$$
