
     RDKit          3D

 49 53  0  0  0  0  0  0  0  0999 V2000
    2.3404    0.7324    6.4737 C   0  0  0  0  0  0  0  0  0  0  0  0
    3.5640    0.1428    7.0968 C   0  0  0  0  0  0  0  0  0  0  0  0
    3.5659   -0.4427    8.3429 C   0  0  0  0  0  0  0  0  0  0  0  0
    4.7245   -0.9804    8.8437 C   0  0  0  0  0  0  0  0  0  0  0  0
    5.8679   -0.9287    8.1023 C   0  0  0  0  0  0  0  0  0  0  0  0
    5.9223   -0.3631    6.8701 C   0  0  0  0  0  0  0  0  0  0  0  0
    4.7489    0.1830    6.3563 C   0  0  0  0  0  0  0  0  0  0  0  0
    4.7788   -1.6369   10.1803 C   0  0  0  0  0  0  0  0  0  0  0  0
    2.3486   -0.4546    9.0973 N   0  0  0  0  0  0  0  0  0  0  0  0
    2.0526    0.6956    9.8933 C   0  0  0  0  0  0  0  0  0  0  0  0
    2.9649    1.3104   10.5143 O   0  0  0  0  0  0  0  0  0  0  0  0
    0.6558    1.2047   10.0096 C   0  0  0  0  0  0  0  0  0  0  0  0
   -0.2318    0.0887   10.4416 C   0  0  0  0  0  0  0  0  0  0  0  0
   -1.5872    0.3036   10.3105 O   0  0  0  0  0  0  0  0  0  0  0  0
   -2.4460    0.6362   11.3858 C   0  0  0  0  0  0  0  0  0  0  0  0
   -2.3026    1.8029   12.0138 N   0  0  0  0  0  0  0  0  0  0  0  0
   -3.0651    2.2230   13.0523 C   0  0  0  0  0  0  0  0  0  0  0  0
   -4.0156    1.3655   13.4393 N   0  0  0  0  0  0  0  0  0  0  0  0
   -4.2414    0.1570   12.8708 C   0  0  0  0  0  0  0  0  0  0  0  0
   -3.4381   -0.2338   11.8021 C   0  0  0  0  0  0  0  0  0  0  0  0
   -3.6094   -1.4494   11.1490 O   0  0  0  0  0  0  0  0  0  0  0  0
   -4.0213   -1.5929    9.8214 C   0  0  0  0  0  0  0  0  0  0  0  0
   -3.1135   -1.4189    8.7848 C   0  0  0  0  0  0  0  0  0  0  0  0
   -3.4862   -1.5609    7.4810 C   0  0  0  0  0  0  0  0  0  0  0  0
   -4.7961   -1.8862    7.1557 C   0  0  0  0  0  0  0  0  0  0  0  0
   -5.6937   -2.0572    8.1945 C   0  0  0  0  0  0  0  0  0  0  0  0
   -5.3226   -1.9141    9.5305 C   0  0  0  0  0  0  0  0  0  0  0  0
   -6.2823   -2.1014   10.5249 O   0  0  0  0  0  0  0  0  0  0  0  0
   -7.5865   -2.4872   10.1725 C   0  0  0  0  0  0  0  0  0  0  0  0
   -5.2440   -0.6867   13.3773 N   0  0  0  0  0  0  0  0  0  0  0  0
   -5.7778   -0.8248   14.9746 S   0  0  0  0  0  6  0  0  0  0  0  0
   -7.0796   -0.0398   15.1593 O   0  0  0  0  0  0  0  0  0  0  0  0
   -6.1612   -2.2602   15.3066 O   0  0  0  0  0  0  0  0  0  0  0  0
   -4.6449   -0.2829   16.1793 C   0  0  0  0  0  0  0  0  0  0  0  0
   -4.7879    0.8389   16.9470 C   0  0  0  0  0  0  0  0  0  0  0  0
   -3.8139    1.2304   17.8715 C   0  0  0  0  0  0  0  0  0  0  0  0
   -2.6814    0.5052   18.0394 C   0  0  0  0  0  0  0  0  0  0  0  0
   -2.5034   -0.6422   17.2758 C   0  0  0  0  0  0  0  0  0  0  0  0
   -3.4609   -1.0253   16.3700 C   0  0  0  0  0  0  0  0  0  0  0  0
   -1.6671    0.9493   19.0254 C   0  0  0  0  0  0  0  0  0  0  0  0
   -2.3161    1.0959   20.3863 C   0  0  0  0  0  0  0  0  0  0  0  0
   -1.1793    2.3410   18.6394 C   0  0  0  0  0  0  0  0  0  0  0  0
   -0.5547   -0.0491   19.1117 C   0  0  0  0  0  0  0  0  0  0  0  0
   -2.8231    3.5309   13.6656 C   0  0  0  0  0  0  0  0  0  0  0  0
   -3.4849    4.0455   14.6785 N   0  0  0  0  0  0  0  0  0  0  0  0
   -3.1721    5.2796   15.1562 C   0  0  0  0  0  0  0  0  0  0  0  0
   -2.1572    6.0472   14.6129 C   0  0  0  0  0  0  0  0  0  0  0  0
   -1.4653    5.4848   13.5395 C   0  0  0  0  0  0  0  0  0  0  0  0
   -1.8198    4.2743   13.1182 N   0  0  0  0  0  0  0  0  0  0  0  0
  1  2  1  0
  2  3  2  0
  3  4  1  0
  4  5  2  0
  5  6  1  0
  6  7  2  0
  4  8  1  0
  3  9  1  0
  9 10  1  0
 10 11  2  0
 10 12  1  0
 12 13  1  0
 13 14  1  0
 14 15  1  0
 15 16  2  0
 16 17  1  0
 17 18  2  0
 18 19  1  0
 19 20  2  0
 20 21  1  0
 21 22  1  0
 22 23  2  0
 23 24  1  0
 24 25  2  0
 25 26  1  0
 26 27  2  0
 27 28  1  0
 28 29  1  0
 19 30  1  0
 30 31  1  0
 31 32  2  0
 31 33  2  0
 31 34  1  0
 34 35  2  0
 35 36  1  0
 36 37  2  0
 37 38  1  0
 38 39  2  0
 37 40  1  0
 40 41  1  0
 40 42  1  0
 40 43  1  0
 17 44  1  0
 44 45  2  0
 45 46  1  0
 46 47  2  0
 47 48  1  0
 48 49  2  0
  7  2  1  0
 20 15  1  0
 27 22  1  0
 39 34  1  0
 49 44  1  0
M  END
$$$$
