
     RDKit          3D

 49 53  0  0  0  0  0  0  0  0999 V2000
    2.2335    1.2296    5.1688 C   0  0  0  0  0  0  0  0  0  0  0  0
    3.5367    0.4990    5.1975 C   0  0  0  0  0  0  0  0  0  0  0  0
    4.1099    0.0287    6.3576 C   0  0  0  0  0  0  0  0  0  0  0  0
    5.3008   -0.6505    6.3051 C   0  0  0  0  0  0  0  0  0  0  0  0
    5.9094   -0.8530    5.1016 C   0  0  0  0  0  0  0  0  0  0  0  0
    5.3895   -0.4105    3.9290 C   0  0  0  0  0  0  0  0  0  0  0  0
    4.1802    0.2783    3.9763 C   0  0  0  0  0  0  0  0  0  0  0  0
    5.9575   -1.1916    7.5283 C   0  0  0  0  0  0  0  0  0  0  0  0
    3.4486    0.2837    7.6021 N   0  0  0  0  0  0  0  0  0  0  0  0
    4.0319    1.2552    8.4740 C   0  0  0  0  0  0  0  0  0  0  0  0
    5.2603    1.2143    8.7662 O   0  0  0  0  0  0  0  0  0  0  0  0
    3.2049    2.3485    9.0610 C   0  0  0  0  0  0  0  0  0  0  0  0
    2.0190    1.7496    9.7355 C   0  0  0  0  0  0  0  0  0  0  0  0
    0.9375    2.5845    9.9191 O   0  0  0  0  0  0  0  0  0  0  0  0
   -0.0141    2.4345   10.9566 C   0  0  0  0  0  0  0  0  0  0  0  0
    0.3015    2.7847   12.2031 N   0  0  0  0  0  0  0  0  0  0  0  0
   -0.5277    2.6839   13.2701 C   0  0  0  0  0  0  0  0  0  0  0  0
   -1.7397    2.1876   12.9996 N   0  0  0  0  0  0  0  0  0  0  0  0
   -2.1573    1.8001   11.7708 C   0  0  0  0  0  0  0  0  0  0  0  0
   -1.2751    1.9257   10.7002 C   0  0  0  0  0  0  0  0  0  0  0  0
   -1.6248    1.5679    9.4028 O   0  0  0  0  0  0  0  0  0  0  0  0
   -1.5200    0.2792    8.8728 C   0  0  0  0  0  0  0  0  0  0  0  0
   -0.5487   -0.5943    9.3447 C   0  0  0  0  0  0  0  0  0  0  0  0
   -0.4292   -1.8597    8.8513 C   0  0  0  0  0  0  0  0  0  0  0  0
   -1.2850   -2.3094    7.8549 C   0  0  0  0  0  0  0  0  0  0  0  0
   -2.2492   -1.4327    7.3905 C   0  0  0  0  0  0  0  0  0  0  0  0
   -2.3793   -0.1371    7.8881 C   0  0  0  0  0  0  0  0  0  0  0  0
   -3.3750    0.6913    7.3713 O   0  0  0  0  0  0  0  0  0  0  0  0
   -4.6134    0.7877    8.0281 C   0  0  0  0  0  0  0  0  0  0  0  0
   -3.4410    1.2558   11.5990 N   0  0  0  0  0  0  0  0  0  0  0  0
   -4.3598    0.3856   12.7187 S   0  0  0  0  0  6  0  0  0  0  0  0
   -4.2385    1.0270   14.1040 O   0  0  0  0  0  0  0  0  0  0  0  0
   -5.8458    0.4720   12.3999 O   0  0  0  0  0  0  0  0  0  0  0  0
   -3.9424   -1.2976   12.8646 C   0  0  0  0  0  0  0  0  0  0  0  0
   -3.7816   -1.9699   14.0437 C   0  0  0  0  0  0  0  0  0  0  0  0
   -3.4086   -3.3175   14.0808 C   0  0  0  0  0  0  0  0  0  0  0  0
   -3.1892   -4.0113   12.9373 C   0  0  0  0  0  0  0  0  0  0  0  0
   -3.3445   -3.3591   11.7201 C   0  0  0  0  0  0  0  0  0  0  0  0
   -3.7117   -2.0369   11.6858 C   0  0  0  0  0  0  0  0  0  0  0  0
   -2.7917   -5.4377   13.0112 C   0  0  0  0  0  0  0  0  0  0  0  0
   -1.3076   -5.5340   13.2985 C   0  0  0  0  0  0  0  0  0  0  0  0
   -2.9986   -6.0794   11.6440 C   0  0  0  0  0  0  0  0  0  0  0  0
   -3.5529   -6.1333   14.0967 C   0  0  0  0  0  0  0  0  0  0  0  0
   -0.0775    3.1053   14.5987 C   0  0  0  0  0  0  0  0  0  0  0  0
   -0.7463    2.9686   15.7224 N   0  0  0  0  0  0  0  0  0  0  0  0
   -0.2248    3.4099   16.8980 C   0  0  0  0  0  0  0  0  0  0  0  0
    1.0170    4.0151   16.9750 C   0  0  0  0  0  0  0  0  0  0  0  0
    1.7128    4.1508   15.7731 C   0  0  0  0  0  0  0  0  0  0  0  0
    1.1482    3.6998   14.6567 N   0  0  0  0  0  0  0  0  0  0  0  0
  1  2  1  0
  2  3  2  0
  3  4  1  0
  4  5  2  0
  5  6  1  0
  6  7  2  0
  4  8  1  0
  3  9  1  0
  9 10  1  0
 10 11  2  0
 10 12  1  0
 12 13  1  0
 13 14  1  0
 14 15  1  0
 15 16  2  0
 16 17  1  0
 17 18  2  0
 18 19  1  0
 19 20  2  0
 20 21  1  0
 21 22  1  0
 22 23  2  0
 23 24  1  0
 24 25  2  0
 25 26  1  0
 26 27  2  0
 27 28  1  0
 28 29  1  0
 19 30  1  0
 30 31  1  0
 31 32  2  0
 31 33  2  0
 31 34  1  0
 34 35  2  0
 35 36  1  0
 36 37  2  0
 37 38  1  0
 38 39  2  0
 37 40  1  0
 40 41  1  0
 40 42  1  0
 40 43  1  0
 17 44  1  0
 44 45  2  0
 45 46  1  0
 46 47  2  0
 47 48  1  0
 48 49  2  0
  7  2  1  0
 20 15  1  0
 27 22  1  0
 39 34  1  0
 49 44  1  0
M  END
$$$$
