
     RDKit          3D

 49 53  0  0  0  0  0  0  0  0999 V2000
    6.3507   -0.6478    7.8089 C   0  0  0  0  0  0  0  0  0  0  0  0
    5.5259   -0.0495    6.7158 C   0  0  0  0  0  0  0  0  0  0  0  0
    4.1673    0.1473    6.8206 C   0  0  0  0  0  0  0  0  0  0  0  0
    3.4774    0.7198    5.7821 C   0  0  0  0  0  0  0  0  0  0  0  0
    4.1443    1.0884    4.6511 C   0  0  0  0  0  0  0  0  0  0  0  0
    5.4812    0.9166    4.4947 C   0  0  0  0  0  0  0  0  0  0  0  0
    6.1866    0.3371    5.5462 C   0  0  0  0  0  0  0  0  0  0  0  0
    2.0095    0.9671    5.8485 C   0  0  0  0  0  0  0  0  0  0  0  0
    3.5028   -0.2758    8.0167 N   0  0  0  0  0  0  0  0  0  0  0  0
    3.2079    0.7217    8.9976 C   0  0  0  0  0  0  0  0  0  0  0  0
    4.0719    1.5798    9.3343 O   0  0  0  0  0  0  0  0  0  0  0  0
    1.8678    0.7793    9.6491 C   0  0  0  0  0  0  0  0  0  0  0  0
    0.8737    1.2956    8.6666 C   0  0  0  0  0  0  0  0  0  0  0  0
   -0.4440    1.2851    9.0717 O   0  0  0  0  0  0  0  0  0  0  0  0
   -0.8689    0.9624   10.3831 C   0  0  0  0  0  0  0  0  0  0  0  0
   -0.7465    1.8598   11.3607 N   0  0  0  0  0  0  0  0  0  0  0  0
   -1.1180    1.6590   12.6482 C   0  0  0  0  0  0  0  0  0  0  0  0
   -1.6374    0.4538   12.9057 N   0  0  0  0  0  0  0  0  0  0  0  0
   -1.8017   -0.5270   11.9862 C   0  0  0  0  0  0  0  0  0  0  0  0
   -1.4115   -0.2771   10.6726 C   0  0  0  0  0  0  0  0  0  0  0  0
   -1.5584   -1.2200    9.6613 O   0  0  0  0  0  0  0  0  0  0  0  0
   -2.3597   -1.0591    8.5278 C   0  0  0  0  0  0  0  0  0  0  0  0
   -2.8433    0.1972    8.1860 C   0  0  0  0  0  0  0  0  0  0  0  0
   -3.6204    0.3843    7.0813 C   0  0  0  0  0  0  0  0  0  0  0  0
   -3.9498   -0.6882    6.2637 C   0  0  0  0  0  0  0  0  0  0  0  0
   -3.4640   -1.9359    6.6119 C   0  0  0  0  0  0  0  0  0  0  0  0
   -2.6692   -2.1377    7.7392 C   0  0  0  0  0  0  0  0  0  0  0  0
   -2.2157   -3.4244    8.0280 O   0  0  0  0  0  0  0  0  0  0  0  0
   -3.1290   -4.4114    8.4352 C   0  0  0  0  0  0  0  0  0  0  0  0
   -2.3245   -1.7739   12.3678 N   0  0  0  0  0  0  0  0  0  0  0  0
   -3.7539   -2.0876   13.2127 S   0  0  0  0  0  6  0  0  0  0  0  0
   -4.0456   -3.5909   13.2045 O   0  0  0  0  0  0  0  0  0  0  0  0
   -3.6087   -1.7470   14.6893 O   0  0  0  0  0  0  0  0  0  0  0  0
   -5.1620   -1.2610   12.6105 C   0  0  0  0  0  0  0  0  0  0  0  0
   -5.6878   -1.4111   11.3577 C   0  0  0  0  0  0  0  0  0  0  0  0
   -6.8037   -0.6826   10.9329 C   0  0  0  0  0  0  0  0  0  0  0  0
   -7.4085    0.2085   11.7558 C   0  0  0  0  0  0  0  0  0  0  0  0
   -6.9007    0.3857   13.0372 C   0  0  0  0  0  0  0  0  0  0  0  0
   -5.8063   -0.3309   13.4526 C   0  0  0  0  0  0  0  0  0  0  0  0
   -8.5875    0.9671   11.2736 C   0  0  0  0  0  0  0  0  0  0  0  0
   -8.9330    2.0519   12.2729 C   0  0  0  0  0  0  0  0  0  0  0  0
   -9.7921    0.0337   11.2320 C   0  0  0  0  0  0  0  0  0  0  0  0
   -8.2951    1.5920    9.9449 C   0  0  0  0  0  0  0  0  0  0  0  0
   -0.9430    2.7204   13.6424 C   0  0  0  0  0  0  0  0  0  0  0  0
   -0.1361    3.7533   13.5384 N   0  0  0  0  0  0  0  0  0  0  0  0
   -0.0536    4.6722   14.5372 C   0  0  0  0  0  0  0  0  0  0  0  0
   -0.8022    4.5732   15.6966 C   0  0  0  0  0  0  0  0  0  0  0  0
   -1.6535    3.4715   15.7890 C   0  0  0  0  0  0  0  0  0  0  0  0
   -1.6880    2.6075   14.7787 N   0  0  0  0  0  0  0  0  0  0  0  0
  1  2  1  0
  2  3  2  0
  3  4  1  0
  4  5  2  0
  5  6  1  0
  6  7  2  0
  4  8  1  0
  3  9  1  0
  9 10  1  0
 10 11  2  0
 10 12  1  0
 12 13  1  0
 13 14  1  0
 14 15  1  0
 15 16  2  0
 16 17  1  0
 17 18  2  0
 18 19  1  0
 19 20  2  0
 20 21  1  0
 21 22  1  0
 22 23  2  0
 23 24  1  0
 24 25  2  0
 25 26  1  0
 26 27  2  0
 27 28  1  0
 28 29  1  0
 19 30  1  0
 30 31  1  0
 31 32  2  0
 31 33  2  0
 31 34  1  0
 34 35  2  0
 35 36  1  0
 36 37  2  0
 37 38  1  0
 38 39  2  0
 37 40  1  0
 40 41  1  0
 40 42  1  0
 40 43  1  0
 17 44  1  0
 44 45  2  0
 45 46  1  0
 46 47  2  0
 47 48  1  0
 48 49  2  0
  7  2  1  0
 20 15  1  0
 27 22  1  0
 39 34  1  0
 49 44  1  0
M  END
$$$$
