
     RDKit          3D

 49 53  0  0  0  0  0  0  0  0999 V2000
   -2.1860    0.4999    5.9777 C   0  0  0  0  0  0  0  0  0  0  0  0
   -1.1871    0.7699    4.8995 C   0  0  0  0  0  0  0  0  0  0  0  0
    0.1637    0.5534    5.0544 C   0  0  0  0  0  0  0  0  0  0  0  0
    1.0204    0.8067    4.0131 C   0  0  0  0  0  0  0  0  0  0  0  0
    0.5260    1.2738    2.8311 C   0  0  0  0  0  0  0  0  0  0  0  0
   -0.7951    1.5055    2.6249 C   0  0  0  0  0  0  0  0  0  0  0  0
   -1.6692    1.2488    3.6780 C   0  0  0  0  0  0  0  0  0  0  0  0
    2.4886    0.5776    4.1230 C   0  0  0  0  0  0  0  0  0  0  0  0
    0.6429    0.0844    6.3199 N   0  0  0  0  0  0  0  0  0  0  0  0
    1.3671    1.0081    7.1363 C   0  0  0  0  0  0  0  0  0  0  0  0
    1.6232    2.1760    6.7287 O   0  0  0  0  0  0  0  0  0  0  0  0
    1.8380    0.6184    8.4966 C   0  0  0  0  0  0  0  0  0  0  0  0
    1.2722    1.5684    9.4952 C   0  0  0  0  0  0  0  0  0  0  0  0
    1.4003    1.2069   10.8194 O   0  0  0  0  0  0  0  0  0  0  0  0
    0.3156    0.8321   11.6486 C   0  0  0  0  0  0  0  0  0  0  0  0
   -0.8779    1.4000   11.4780 N   0  0  0  0  0  0  0  0  0  0  0  0
   -1.9818    1.1193   12.2119 C   0  0  0  0  0  0  0  0  0  0  0  0
   -1.8072    0.1999   13.1673 N   0  0  0  0  0  0  0  0  0  0  0  0
   -0.6373   -0.4327   13.4235 C   0  0  0  0  0  0  0  0  0  0  0  0
    0.4719   -0.1185   12.6418 C   0  0  0  0  0  0  0  0  0  0  0  0
    1.7073   -0.7301   12.8242 O   0  0  0  0  0  0  0  0  0  0  0  0
    2.8879   -0.3570   12.1764 C   0  0  0  0  0  0  0  0  0  0  0  0
    3.2335   -0.9380   10.9631 C   0  0  0  0  0  0  0  0  0  0  0  0
    4.3752   -0.5870   10.3055 C   0  0  0  0  0  0  0  0  0  0  0  0
    5.2280    0.3696   10.8392 C   0  0  0  0  0  0  0  0  0  0  0  0
    4.8763    0.9428   12.0482 C   0  0  0  0  0  0  0  0  0  0  0  0
    3.7115    0.5907   12.7284 C   0  0  0  0  0  0  0  0  0  0  0  0
    3.4218    1.2107   13.9435 O   0  0  0  0  0  0  0  0  0  0  0  0
    3.7471    0.5684   15.1500 C   0  0  0  0  0  0  0  0  0  0  0  0
   -0.5495   -1.3583   14.4768 N   0  0  0  0  0  0  0  0  0  0  0  0
   -1.8066   -1.9920   15.4115 S   0  0  0  0  0  6  0  0  0  0  0  0
   -1.4753   -3.4285   15.8261 O   0  0  0  0  0  0  0  0  0  0  0  0
   -1.9419   -1.2477   16.7325 O   0  0  0  0  0  0  0  0  0  0  0  0
   -3.3667   -1.9987   14.6405 C   0  0  0  0  0  0  0  0  0  0  0  0
   -4.3755   -1.1125   14.8962 C   0  0  0  0  0  0  0  0  0  0  0  0
   -5.6181   -1.2044   14.2608 C   0  0  0  0  0  0  0  0  0  0  0  0
   -5.8697   -2.1865   13.3612 C   0  0  0  0  0  0  0  0  0  0  0  0
   -4.8660   -3.1045   13.0764 C   0  0  0  0  0  0  0  0  0  0  0  0
   -3.6468   -3.0120   13.7002 C   0  0  0  0  0  0  0  0  0  0  0  0
   -7.1986   -2.2580   12.7077 C   0  0  0  0  0  0  0  0  0  0  0  0
   -8.2811   -2.2874   13.7669 C   0  0  0  0  0  0  0  0  0  0  0  0
   -7.3088   -3.5797   11.9561 C   0  0  0  0  0  0  0  0  0  0  0  0
   -7.4055   -1.0700   11.8203 C   0  0  0  0  0  0  0  0  0  0  0  0
   -3.2479    1.8012   11.9334 C   0  0  0  0  0  0  0  0  0  0  0  0
   -3.3829    3.0046   11.4212 N   0  0  0  0  0  0  0  0  0  0  0  0
   -4.6173    3.5368   11.2166 C   0  0  0  0  0  0  0  0  0  0  0  0
   -5.7784    2.8526   11.5293 C   0  0  0  0  0  0  0  0  0  0  0  0
   -5.6160    1.5769   12.0709 C   0  0  0  0  0  0  0  0  0  0  0  0
   -4.3823    1.1130   12.2475 N   0  0  0  0  0  0  0  0  0  0  0  0
  1  2  1  0
  2  3  2  0
  3  4  1  0
  4  5  2  0
  5  6  1  0
  6  7  2  0
  4  8  1  0
  3  9  1  0
  9 10  1  0
 10 11  2  0
 10 12  1  0
 12 13  1  0
 13 14  1  0
 14 15  1  0
 15 16  2  0
 16 17  1  0
 17 18  2  0
 18 19  1  0
 19 20  2  0
 20 21  1  0
 21 22  1  0
 22 23  2  0
 23 24  1  0
 24 25  2  0
 25 26  1  0
 26 27  2  0
 27 28  1  0
 28 29  1  0
 19 30  1  0
 30 31  1  0
 31 32  2  0
 31 33  2  0
 31 34  1  0
 34 35  2  0
 35 36  1  0
 36 37  2  0
 37 38  1  0
 38 39  2  0
 37 40  1  0
 40 41  1  0
 40 42  1  0
 40 43  1  0
 17 44  1  0
 44 45  2  0
 45 46  1  0
 46 47  2  0
 47 48  1  0
 48 49  2  0
  7  2  1  0
 20 15  1  0
 27 22  1  0
 39 34  1  0
 49 44  1  0
M  END
$$$$
