
     RDKit          3D

 49 53  0  0  0  0  0  0  0  0999 V2000
    1.6422   -1.6814    6.3002 C   0  0  0  0  0  0  0  0  0  0  0  0
    1.8613   -0.3406    5.6779 C   0  0  0  0  0  0  0  0  0  0  0  0
    2.0242    0.8121    6.4129 C   0  0  0  0  0  0  0  0  0  0  0  0
    2.2401    2.0062    5.7728 C   0  0  0  0  0  0  0  0  0  0  0  0
    2.2899    2.0420    4.4105 C   0  0  0  0  0  0  0  0  0  0  0  0
    2.1349    0.9372    3.6380 C   0  0  0  0  0  0  0  0  0  0  0  0
    1.9168   -0.2777    4.2826 C   0  0  0  0  0  0  0  0  0  0  0  0
    2.4356    3.2804    6.5202 C   0  0  0  0  0  0  0  0  0  0  0  0
    1.9414    0.7332    7.8406 N   0  0  0  0  0  0  0  0  0  0  0  0
    2.9859    1.3485    8.5986 C   0  0  0  0  0  0  0  0  0  0  0  0
    4.1962    1.0380    8.4118 O   0  0  0  0  0  0  0  0  0  0  0  0
    2.6750    2.3791    9.6306 C   0  0  0  0  0  0  0  0  0  0  0  0
    2.2353    1.6961   10.8796 C   0  0  0  0  0  0  0  0  0  0  0  0
    0.9754    1.1368   10.8560 O   0  0  0  0  0  0  0  0  0  0  0  0
    0.0125    1.3056   11.8800 C   0  0  0  0  0  0  0  0  0  0  0  0
    0.4070    1.5638   13.1266 N   0  0  0  0  0  0  0  0  0  0  0  0
   -0.4247    1.7422   14.1814 C   0  0  0  0  0  0  0  0  0  0  0  0
   -1.7276    1.6386   13.8983 N   0  0  0  0  0  0  0  0  0  0  0  0
   -2.2307    1.3768   12.6683 C   0  0  0  0  0  0  0  0  0  0  0  0
   -1.3409    1.2054   11.6104 C   0  0  0  0  0  0  0  0  0  0  0  0
   -1.7695    0.9496   10.3126 O   0  0  0  0  0  0  0  0  0  0  0  0
   -1.8443   -0.3184    9.7302 C   0  0  0  0  0  0  0  0  0  0  0  0
   -1.2920   -1.4177   10.3750 C   0  0  0  0  0  0  0  0  0  0  0  0
   -1.3576   -2.6674    9.8336 C   0  0  0  0  0  0  0  0  0  0  0  0
   -1.9846   -2.8723    8.6120 C   0  0  0  0  0  0  0  0  0  0  0  0
   -2.5315   -1.7718    7.9767 C   0  0  0  0  0  0  0  0  0  0  0  0
   -2.4695   -0.4902    8.5216 C   0  0  0  0  0  0  0  0  0  0  0  0
   -3.0431    0.5723    7.8237 O   0  0  0  0  0  0  0  0  0  0  0  0
   -3.2997    1.7848    8.4855 C   0  0  0  0  0  0  0  0  0  0  0  0
   -3.6176    1.2513   12.4834 N   0  0  0  0  0  0  0  0  0  0  0  0
   -4.7005    0.2919   13.3566 S   0  0  0  0  0  6  0  0  0  0  0  0
   -5.0153    0.9527   14.7017 O   0  0  0  0  0  0  0  0  0  0  0  0
   -6.0514    0.2097   12.6596 O   0  0  0  0  0  0  0  0  0  0  0  0
   -4.1602   -1.3331   13.6665 C   0  0  0  0  0  0  0  0  0  0  0  0
   -3.5421   -1.7528   14.8111 C   0  0  0  0  0  0  0  0  0  0  0  0
   -3.1026   -3.0708   14.9725 C   0  0  0  0  0  0  0  0  0  0  0  0
   -3.2738   -3.9876   13.9891 C   0  0  0  0  0  0  0  0  0  0  0  0
   -3.8995   -3.5955   12.8118 C   0  0  0  0  0  0  0  0  0  0  0  0
   -4.3312   -2.3019   12.6558 C   0  0  0  0  0  0  0  0  0  0  0  0
   -2.7934   -5.3757   14.1905 C   0  0  0  0  0  0  0  0  0  0  0  0
   -2.1395   -5.8733   12.9180 C   0  0  0  0  0  0  0  0  0  0  0  0
   -3.9941   -6.2840   14.4300 C   0  0  0  0  0  0  0  0  0  0  0  0
   -1.8003   -5.4243   15.3099 C   0  0  0  0  0  0  0  0  0  0  0  0
    0.1188    2.0281   15.5112 C   0  0  0  0  0  0  0  0  0  0  0  0
    1.3826    2.2462   15.8007 N   0  0  0  0  0  0  0  0  0  0  0  0
    1.7683    2.4930   17.0810 C   0  0  0  0  0  0  0  0  0  0  0  0
    0.8675    2.5290   18.1306 C   0  0  0  0  0  0  0  0  0  0  0  0
   -0.4692    2.2964   17.8046 C   0  0  0  0  0  0  0  0  0  0  0  0
   -0.7823    2.0598   16.5340 N   0  0  0  0  0  0  0  0  0  0  0  0
  1  2  1  0
  2  3  2  0
  3  4  1  0
  4  5  2  0
  5  6  1  0
  6  7  2  0
  4  8  1  0
  3  9  1  0
  9 10  1  0
 10 11  2  0
 10 12  1  0
 12 13  1  0
 13 14  1  0
 14 15  1  0
 15 16  2  0
 16 17  1  0
 17 18  2  0
 18 19  1  0
 19 20  2  0
 20 21  1  0
 21 22  1  0
 22 23  2  0
 23 24  1  0
 24 25  2  0
 25 26  1  0
 26 27  2  0
 27 28  1  0
 28 29  1  0
 19 30  1  0
 30 31  1  0
 31 32  2  0
 31 33  2  0
 31 34  1  0
 34 35  2  0
 35 36  1  0
 36 37  2  0
 37 38  1  0
 38 39  2  0
 37 40  1  0
 40 41  1  0
 40 42  1  0
 40 43  1  0
 17 44  1  0
 44 45  2  0
 45 46  1  0
 46 47  2  0
 47 48  1  0
 48 49  2  0
  7  2  1  0
 20 15  1  0
 27 22  1  0
 39 34  1  0
 49 44  1  0
M  END
$$$$
