
     RDKit          3D

 46 51  0  0  0  0  0  0  0  0999 V2000
    0.8250    0.1775    2.1091 C   0  0  0  0  0  0  0  0  0  0  0  0
    1.5392    0.1515    3.4488 C   0  0  0  0  0  0  0  0  0  0  0  0
    1.0644    0.8657    4.4764 N   0  0  0  0  0  0  0  0  0  0  0  0
    1.6780    0.8656    5.6720 C   0  0  0  0  0  0  0  0  0  0  0  0
    2.8026    0.1232    5.8398 C   0  0  0  0  0  0  0  0  0  0  0  0
    3.3521   -0.6504    4.7964 C   0  0  0  0  0  0  0  0  0  0  0  0
    2.6738   -0.6059    3.5931 C   0  0  0  0  0  0  0  0  0  0  0  0
    1.1373    1.6329    6.7656 N   0  0  0  0  0  0  0  0  0  0  0  0
   -0.2742    1.8302    6.8248 C   0  0  0  0  0  0  0  0  0  0  0  0
   -0.7972    3.0969    6.2463 C   0  0  0  0  0  0  0  0  0  0  0  0
   -0.5977    3.0148    4.7197 C   0  0  0  0  0  0  0  0  0  0  0  0
    0.0359    4.2832    6.6900 C   0  0  0  0  0  0  0  0  0  0  0  0
   -2.2644    3.3345    6.4458 C   0  0  0  0  0  0  0  0  0  0  0  0
    1.9819    2.1738    7.7729 C   0  0  0  0  0  0  0  0  0  0  0  0
    3.1909    2.3447    7.5209 O   0  0  0  0  0  0  0  0  0  0  0  0
    1.4667    2.5277    9.0912 C   0  0  0  0  0  0  0  0  0  0  0  0
    1.0379    1.6079   10.0298 C   0  0  0  0  0  0  0  0  0  0  0  0
    0.6712    2.0339   11.3007 C   0  0  0  0  0  0  0  0  0  0  0  0
    0.7120    3.3555   11.6760 C   0  0  0  0  0  0  0  0  0  0  0  0
    1.1382    4.2733   10.7308 C   0  0  0  0  0  0  0  0  0  0  0  0
    1.5017    3.8529    9.4779 C   0  0  0  0  0  0  0  0  0  0  0  0
    0.3361    3.7605   12.9676 O   0  0  0  0  0  0  0  0  0  0  0  0
   -0.6705    3.1157   13.6952 C   0  0  0  0  0  0  0  0  0  0  0  0
    0.8973    0.2619    9.6169 N   0  0  0  0  0  0  0  0  0  0  0  0
    1.7641   -0.7319   10.1960 C   0  0  0  0  0  0  0  0  0  0  0  0
    1.1063   -2.0214   10.5329 C   0  0  0  0  0  0  0  0  0  0  0  0
   -0.0193   -2.3727    9.5732 C   0  0  0  0  0  0  0  0  0  0  0  0
    0.1574   -1.5885    8.3031 C   0  0  0  0  0  0  0  0  0  0  0  0
   -0.1049   -0.1147    8.6722 C   0  0  0  0  0  0  0  0  0  0  0  0
   -0.0725   -3.8502    9.3541 C   0  0  0  0  0  0  0  0  0  0  0  0
    0.7249   -4.5219    8.4597 C   0  0  0  0  0  0  0  0  0  0  0  0
    0.3601   -5.8463    8.5703 C   0  0  0  0  0  0  0  0  0  0  0  0
   -0.6407   -5.9254    9.5247 C   0  0  0  0  0  0  0  0  0  0  0  0
   -0.8567   -4.6912    9.9587 O   0  0  0  0  0  0  0  0  0  0  0  0
   -1.1867   -7.1464    9.8292 C   0  0  0  0  0  0  0  0  0  0  0  0
   -0.7775   -8.3425    9.2124 C   0  0  0  0  0  0  0  0  0  0  0  0
    0.2093   -8.2160    8.2782 C   0  0  0  0  0  0  0  0  0  0  0  0
    0.7824   -6.9819    7.9515 C   0  0  0  0  0  0  0  0  0  0  0  0
   -1.4085   -9.5922    9.5764 C   0  0  0  0  0  0  0  0  0  0  0  0
   -0.8795  -10.1897   10.8709 C   0  0  0  0  0  0  0  0  0  0  0  0
   -1.4703  -11.4307   11.2983 C   0  0  0  0  0  0  0  0  0  0  0  0
   -2.6682  -11.5834   11.5491 O   0  0  0  0  0  0  0  0  0  0  0  0
   -0.6322  -12.5481   11.4421 O   0  0  0  0  0  0  0  0  0  0  0  0
   -1.6313  -10.5669    8.4996 C   0  0  0  0  0  0  0  0  0  0  0  0
   -2.5438  -11.6982    8.4492 C   0  0  0  0  0  0  0  0  0  0  0  0
   -2.7643  -10.4894    7.5345 C   0  0  0  0  0  0  0  0  0  0  0  0
  1  2  1  0
  2  3  2  0
  3  4  1  0
  4  5  2  0
  5  6  1  0
  6  7  2  0
  4  8  1  0
  8  9  1  0
  9 10  1  0
 10 11  1  0
 10 12  1  0
 10 13  1  0
  8 14  1  0
 14 15  2  0
 14 16  1  0
 16 17  1  0
 17 18  2  0
 18 19  1  0
 19 20  2  0
 20 21  1  0
 19 22  1  0
 22 23  1  0
 17 24  1  0
 24 25  1  0
 25 26  1  0
 26 27  1  0
 27 28  1  0
 28 29  1  0
 27 30  1  0
 30 31  2  0
 31 32  1  0
 32 33  2  0
 33 34  1  0
 33 35  1  0
 35 36  2  0
 36 37  1  0
 37 38  2  0
 36 39  1  0
 39 40  1  0
 40 41  1  0
 41 42  2  0
 41 43  1  0
 39 44  1  0
 44 45  1  0
 45 46  1  0
  7  2  1  0
 21 16  2  0
 29 24  1  0
 34 30  1  0
 38 32  1  0
 46 44  1  0
M  END
$$$$
