
     RDKit          3D

 46 51  0  0  0  0  0  0  0  0999 V2000
    7.4244   -5.7729   -0.9911 C   0  0  0  0  0  0  0  0  0  0  0  0
    7.0443   -6.1507   -2.4118 C   0  0  0  0  0  0  0  0  0  0  0  0
    7.0276   -7.4367   -2.7825 N   0  0  0  0  0  0  0  0  0  0  0  0
    6.6998   -7.8004   -4.0341 C   0  0  0  0  0  0  0  0  0  0  0  0
    6.3775   -6.8415   -4.9400 C   0  0  0  0  0  0  0  0  0  0  0  0
    6.3764   -5.4701   -4.6109 C   0  0  0  0  0  0  0  0  0  0  0  0
    6.7233   -5.1637   -3.3086 C   0  0  0  0  0  0  0  0  0  0  0  0
    6.6763   -9.1934   -4.4026 N   0  0  0  0  0  0  0  0  0  0  0  0
    7.9152   -9.8446   -4.6779 C   0  0  0  0  0  0  0  0  0  0  0  0
    8.5547  -10.5703   -3.5479 C   0  0  0  0  0  0  0  0  0  0  0  0
    9.5143   -9.5804   -2.8578 C   0  0  0  0  0  0  0  0  0  0  0  0
    9.4407  -11.6921   -4.0525 C   0  0  0  0  0  0  0  0  0  0  0  0
    7.6179  -11.0346   -2.4727 C   0  0  0  0  0  0  0  0  0  0  0  0
    5.4528   -9.9130   -4.4806 C   0  0  0  0  0  0  0  0  0  0  0  0
    5.4870  -11.1470   -4.6554 O   0  0  0  0  0  0  0  0  0  0  0  0
    4.1635   -9.2402   -4.3649 C   0  0  0  0  0  0  0  0  0  0  0  0
    3.2654   -9.0985   -5.4062 C   0  0  0  0  0  0  0  0  0  0  0  0
    2.0134   -8.5434   -5.1712 C   0  0  0  0  0  0  0  0  0  0  0  0
    1.6180   -8.1158   -3.9262 C   0  0  0  0  0  0  0  0  0  0  0  0
    2.5228   -8.2561   -2.8873 C   0  0  0  0  0  0  0  0  0  0  0  0
    3.7571   -8.8054   -3.1189 C   0  0  0  0  0  0  0  0  0  0  0  0
    0.3462   -7.5580   -3.7147 O   0  0  0  0  0  0  0  0  0  0  0  0
   -0.8358   -8.2718   -3.9422 C   0  0  0  0  0  0  0  0  0  0  0  0
    3.7047   -9.4426   -6.7065 N   0  0  0  0  0  0  0  0  0  0  0  0
    2.8765  -10.3051   -7.5093 C   0  0  0  0  0  0  0  0  0  0  0  0
    2.7760   -9.9253   -8.9426 C   0  0  0  0  0  0  0  0  0  0  0  0
    4.0515   -9.2883   -9.4704 C   0  0  0  0  0  0  0  0  0  0  0  0
    5.1923   -9.6511   -8.5614 C   0  0  0  0  0  0  0  0  0  0  0  0
    4.9258   -8.9201   -7.2303 C   0  0  0  0  0  0  0  0  0  0  0  0
    4.2794   -9.6845  -10.8934 C   0  0  0  0  0  0  0  0  0  0  0  0
    5.4415  -10.2540  -11.3541 C   0  0  0  0  0  0  0  0  0  0  0  0
    5.2370  -10.4590  -12.7015 C   0  0  0  0  0  0  0  0  0  0  0  0
    3.9628  -10.0075  -13.0037 C   0  0  0  0  0  0  0  0  0  0  0  0
    3.4378   -9.5528  -11.8743 O   0  0  0  0  0  0  0  0  0  0  0  0
    3.5043  -10.0970  -14.2936 C   0  0  0  0  0  0  0  0  0  0  0  0
    4.2733  -10.6314  -15.3433 C   0  0  0  0  0  0  0  0  0  0  0  0
    5.5217  -11.0619  -14.9991 C   0  0  0  0  0  0  0  0  0  0  0  0
    6.0110  -10.9821  -13.6904 C   0  0  0  0  0  0  0  0  0  0  0  0
    3.7270  -10.6820  -16.6817 C   0  0  0  0  0  0  0  0  0  0  0  0
    4.6082  -11.4248  -17.6738 C   0  0  0  0  0  0  0  0  0  0  0  0
    3.9453  -12.0323  -18.7978 C   0  0  0  0  0  0  0  0  0  0  0  0
    2.7391  -11.9312  -19.0346 O   0  0  0  0  0  0  0  0  0  0  0  0
    4.7177  -12.7936  -19.6897 O   0  0  0  0  0  0  0  0  0  0  0  0
    3.1239   -9.4482  -17.2044 C   0  0  0  0  0  0  0  0  0  0  0  0
    3.6129   -8.5414  -18.2308 C   0  0  0  0  0  0  0  0  0  0  0  0
    2.3543   -9.3786  -18.4787 C   0  0  0  0  0  0  0  0  0  0  0  0
  1  2  1  0
  2  3  2  0
  3  4  1  0
  4  5  2  0
  5  6  1  0
  6  7  2  0
  4  8  1  0
  8  9  1  0
  9 10  1  0
 10 11  1  0
 10 12  1  0
 10 13  1  0
  8 14  1  0
 14 15  2  0
 14 16  1  0
 16 17  1  0
 17 18  2  0
 18 19  1  0
 19 20  2  0
 20 21  1  0
 19 22  1  0
 22 23  1  0
 17 24  1  0
 24 25  1  0
 25 26  1  0
 26 27  1  0
 27 28  1  0
 28 29  1  0
 27 30  1  0
 30 31  2  0
 31 32  1  0
 32 33  2  0
 33 34  1  0
 33 35  1  0
 35 36  2  0
 36 37  1  0
 37 38  2  0
 36 39  1  0
 39 40  1  0
 40 41  1  0
 41 42  2  0
 41 43  1  0
 39 44  1  0
 44 45  1  0
 45 46  1  0
  7  2  1  0
 21 16  2  0
 29 24  1  0
 34 30  1  0
 38 32  1  0
 46 44  1  0
M  END
$$$$
