
     RDKit          3D

 46 51  0  0  0  0  0  0  0  0999 V2000
   -4.3090   -2.4777   12.2795 C   0  0  0  0  0  0  0  0  0  0  0  0
   -3.0705   -3.2904   12.6130 C   0  0  0  0  0  0  0  0  0  0  0  0
   -1.8532   -2.7746   12.4047 N   0  0  0  0  0  0  0  0  0  0  0  0
   -0.7395   -3.4722   12.6860 C   0  0  0  0  0  0  0  0  0  0  0  0
   -0.8537   -4.7265   13.1938 C   0  0  0  0  0  0  0  0  0  0  0  0
   -2.1075   -5.3254   13.4358 C   0  0  0  0  0  0  0  0  0  0  0  0
   -3.2121   -4.5553   13.1244 C   0  0  0  0  0  0  0  0  0  0  0  0
    0.5589   -2.8872   12.4650 N   0  0  0  0  0  0  0  0  0  0  0  0
    0.7595   -1.5219   12.8262 C   0  0  0  0  0  0  0  0  0  0  0  0
    0.9332   -1.2321   14.2748 C   0  0  0  0  0  0  0  0  0  0  0  0
   -0.4702   -1.2504   14.9127 C   0  0  0  0  0  0  0  0  0  0  0  0
    1.4466    0.1779   14.4906 C   0  0  0  0  0  0  0  0  0  0  0  0
    1.7332   -2.2445   15.0392 C   0  0  0  0  0  0  0  0  0  0  0  0
    1.6242   -3.6488   11.9120 C   0  0  0  0  0  0  0  0  0  0  0  0
    1.3563   -4.6600   11.2337 O   0  0  0  0  0  0  0  0  0  0  0  0
    3.0187   -3.2759   12.1243 C   0  0  0  0  0  0  0  0  0  0  0  0
    3.7081   -2.3699   11.3403 C   0  0  0  0  0  0  0  0  0  0  0  0
    4.9990   -1.9923   11.6895 C   0  0  0  0  0  0  0  0  0  0  0  0
    5.6384   -2.4904   12.7996 C   0  0  0  0  0  0  0  0  0  0  0  0
    4.9450   -3.4008   13.5792 C   0  0  0  0  0  0  0  0  0  0  0  0
    3.6710   -3.7718   13.2357 C   0  0  0  0  0  0  0  0  0  0  0  0
    6.9442   -2.0922   13.1311 O   0  0  0  0  0  0  0  0  0  0  0  0
    7.5676   -2.4753   14.3239 C   0  0  0  0  0  0  0  0  0  0  0  0
    3.0934   -1.9330   10.1431 N   0  0  0  0  0  0  0  0  0  0  0  0
    3.8820   -1.1918    9.1928 C   0  0  0  0  0  0  0  0  0  0  0  0
    3.6528   -1.5506    7.7688 C   0  0  0  0  0  0  0  0  0  0  0  0
    2.2175   -1.9702    7.4945 C   0  0  0  0  0  0  0  0  0  0  0  0
    1.3373   -1.4552    8.5986 C   0  0  0  0  0  0  0  0  0  0  0  0
    1.7296   -2.2481    9.8615 C   0  0  0  0  0  0  0  0  0  0  0  0
    1.7931   -1.5119    6.1366 C   0  0  0  0  0  0  0  0  0  0  0  0
    0.5206   -1.0943    5.8313 C   0  0  0  0  0  0  0  0  0  0  0  0
    0.5572   -0.7641    4.4938 C   0  0  0  0  0  0  0  0  0  0  0  0
    1.8465   -0.9934    4.0423 C   0  0  0  0  0  0  0  0  0  0  0  0
    2.5423   -1.4430    5.0775 O   0  0  0  0  0  0  0  0  0  0  0  0
    2.1555   -0.7424    2.7295 C   0  0  0  0  0  0  0  0  0  0  0  0
    1.2160   -0.2573    1.8018 C   0  0  0  0  0  0  0  0  0  0  0  0
   -0.0408   -0.0479    2.2909 C   0  0  0  0  0  0  0  0  0  0  0  0
   -0.3796   -0.2952    3.6259 C   0  0  0  0  0  0  0  0  0  0  0  0
    1.6122   -0.0278    0.4297 C   0  0  0  0  0  0  0  0  0  0  0  0
    2.9724   -0.6115    0.0805 C   0  0  0  0  0  0  0  0  0  0  0  0
    3.4904   -0.3051   -1.2270 C   0  0  0  0  0  0  0  0  0  0  0  0
    3.4992    0.8222   -1.7275 O   0  0  0  0  0  0  0  0  0  0  0  0
    4.0233   -1.3557   -1.9909 O   0  0  0  0  0  0  0  0  0  0  0  0
    1.3609    1.3100   -0.1237 C   0  0  0  0  0  0  0  0  0  0  0  0
    0.1491    1.8543   -0.7157 C   0  0  0  0  0  0  0  0  0  0  0  0
    0.6639    2.3964    0.6213 C   0  0  0  0  0  0  0  0  0  0  0  0
  1  2  1  0
  2  3  2  0
  3  4  1  0
  4  5  2  0
  5  6  1  0
  6  7  2  0
  4  8  1  0
  8  9  1  0
  9 10  1  0
 10 11  1  0
 10 12  1  0
 10 13  1  0
  8 14  1  0
 14 15  2  0
 14 16  1  0
 16 17  1  0
 17 18  2  0
 18 19  1  0
 19 20  2  0
 20 21  1  0
 19 22  1  0
 22 23  1  0
 17 24  1  0
 24 25  1  0
 25 26  1  0
 26 27  1  0
 27 28  1  0
 28 29  1  0
 27 30  1  0
 30 31  2  0
 31 32  1  0
 32 33  2  0
 33 34  1  0
 33 35  1  0
 35 36  2  0
 36 37  1  0
 37 38  2  0
 36 39  1  0
 39 40  1  0
 40 41  1  0
 41 42  2  0
 41 43  1  0
 39 44  1  0
 44 45  1  0
 45 46  1  0
  7  2  1  0
 21 16  2  0
 29 24  1  0
 34 30  1  0
 38 32  1  0
 46 44  1  0
M  END
$$$$
