
     RDKit          3D

 46 51  0  0  0  0  0  0  0  0999 V2000
    4.1027   -7.1461   -2.9251 C   0  0  0  0  0  0  0  0  0  0  0  0
    4.2103   -8.1711   -4.0402 C   0  0  0  0  0  0  0  0  0  0  0  0
    5.4063   -8.6605   -4.3887 N   0  0  0  0  0  0  0  0  0  0  0  0
    5.5325   -9.5649   -5.3746 C   0  0  0  0  0  0  0  0  0  0  0  0
    4.4217   -9.9914   -6.0290 C   0  0  0  0  0  0  0  0  0  0  0  0
    3.1339   -9.5139   -5.7086 C   0  0  0  0  0  0  0  0  0  0  0  0
    3.0736   -8.5856   -4.6865 C   0  0  0  0  0  0  0  0  0  0  0  0
    6.8311  -10.0858   -5.7201 N   0  0  0  0  0  0  0  0  0  0  0  0
    7.7993   -9.1910   -6.2647 C   0  0  0  0  0  0  0  0  0  0  0  0
    7.6935   -8.8957   -7.7188 C   0  0  0  0  0  0  0  0  0  0  0  0
    8.1961  -10.1430   -8.4729 C   0  0  0  0  0  0  0  0  0  0  0  0
    8.6425   -7.7834   -8.1192 C   0  0  0  0  0  0  0  0  0  0  0  0
    6.3020   -8.6563   -8.2242 C   0  0  0  0  0  0  0  0  0  0  0  0
    7.1526  -11.4553   -5.5149 C   0  0  0  0  0  0  0  0  0  0  0  0
    8.2544  -11.8838   -5.9111 O   0  0  0  0  0  0  0  0  0  0  0  0
    6.2226  -12.3668   -4.8570 C   0  0  0  0  0  0  0  0  0  0  0  0
    5.4166  -13.2695   -5.5251 C   0  0  0  0  0  0  0  0  0  0  0  0
    4.6471  -14.1761   -4.8062 C   0  0  0  0  0  0  0  0  0  0  0  0
    4.6465  -14.2167   -3.4324 C   0  0  0  0  0  0  0  0  0  0  0  0
    5.4524  -13.3076   -2.7678 C   0  0  0  0  0  0  0  0  0  0  0  0
    6.2128  -12.4146   -3.4770 C   0  0  0  0  0  0  0  0  0  0  0  0
    3.8594  -15.1436   -2.7288 O   0  0  0  0  0  0  0  0  0  0  0  0
    4.3221  -15.8125   -1.5901 C   0  0  0  0  0  0  0  0  0  0  0  0
    5.3364  -13.1640   -6.9338 N   0  0  0  0  0  0  0  0  0  0  0  0
    4.0480  -13.2962   -7.5638 C   0  0  0  0  0  0  0  0  0  0  0  0
    3.7911  -12.3455   -8.6769 C   0  0  0  0  0  0  0  0  0  0  0  0
    5.0518  -11.9970   -9.4518 C   0  0  0  0  0  0  0  0  0  0  0  0
    6.0915  -13.0517   -9.1954 C   0  0  0  0  0  0  0  0  0  0  0  0
    6.5001  -12.8968   -7.7168 C   0  0  0  0  0  0  0  0  0  0  0  0
    4.7367  -11.8165  -10.9017 C   0  0  0  0  0  0  0  0  0  0  0  0
    5.4516  -12.3987  -11.9200 C   0  0  0  0  0  0  0  0  0  0  0  0
    4.8377  -11.9807  -13.0809 C   0  0  0  0  0  0  0  0  0  0  0  0
    3.7777  -11.1644  -12.7219 C   0  0  0  0  0  0  0  0  0  0  0  0
    3.7697  -11.1044  -11.3974 O   0  0  0  0  0  0  0  0  0  0  0  0
    2.9928  -10.6094  -13.7006 C   0  0  0  0  0  0  0  0  0  0  0  0
    3.2120  -10.8286  -15.0727 C   0  0  0  0  0  0  0  0  0  0  0  0
    4.2676  -11.6375  -15.3788 C   0  0  0  0  0  0  0  0  0  0  0  0
    5.0815  -12.2159  -14.3984 C   0  0  0  0  0  0  0  0  0  0  0  0
    2.3496  -10.1992  -16.0485 C   0  0  0  0  0  0  0  0  0  0  0  0
    2.6576  -10.5972  -17.4835 C   0  0  0  0  0  0  0  0  0  0  0  0
    2.1272   -9.7478  -18.5176 C   0  0  0  0  0  0  0  0  0  0  0  0
    0.9285   -9.5013  -18.6715 O   0  0  0  0  0  0  0  0  0  0  0  0
    3.0295   -9.1561  -19.4160 O   0  0  0  0  0  0  0  0  0  0  0  0
    2.0569   -8.7716  -15.8597 C   0  0  0  0  0  0  0  0  0  0  0  0
    1.2714   -7.8702  -16.6876 C   0  0  0  0  0  0  0  0  0  0  0  0
    0.7800   -8.2569  -15.2891 C   0  0  0  0  0  0  0  0  0  0  0  0
  1  2  1  0
  2  3  2  0
  3  4  1  0
  4  5  2  0
  5  6  1  0
  6  7  2  0
  4  8  1  0
  8  9  1  0
  9 10  1  0
 10 11  1  0
 10 12  1  0
 10 13  1  0
  8 14  1  0
 14 15  2  0
 14 16  1  0
 16 17  1  0
 17 18  2  0
 18 19  1  0
 19 20  2  0
 20 21  1  0
 19 22  1  0
 22 23  1  0
 17 24  1  0
 24 25  1  0
 25 26  1  0
 26 27  1  0
 27 28  1  0
 28 29  1  0
 27 30  1  0
 30 31  2  0
 31 32  1  0
 32 33  2  0
 33 34  1  0
 33 35  1  0
 35 36  2  0
 36 37  1  0
 37 38  2  0
 36 39  1  0
 39 40  1  0
 40 41  1  0
 41 42  2  0
 41 43  1  0
 39 44  1  0
 44 45  1  0
 45 46  1  0
  7  2  1  0
 21 16  2  0
 29 24  1  0
 34 30  1  0
 38 32  1  0
 46 44  1  0
M  END
$$$$
