
     RDKit          3D

 46 51  0  0  0  0  0  0  0  0999 V2000
    4.7988  -15.9209   -4.0409 C   0  0  0  0  0  0  0  0  0  0  0  0
    4.3891  -14.7308   -4.8903 C   0  0  0  0  0  0  0  0  0  0  0  0
    4.8737  -13.5133   -4.6177 N   0  0  0  0  0  0  0  0  0  0  0  0
    4.5253  -12.4411   -5.3492 C   0  0  0  0  0  0  0  0  0  0  0  0
    3.6644  -12.5985   -6.3876 C   0  0  0  0  0  0  0  0  0  0  0  0
    3.1197  -13.8549   -6.7252 C   0  0  0  0  0  0  0  0  0  0  0  0
    3.5176  -14.9155   -5.9334 C   0  0  0  0  0  0  0  0  0  0  0  0
    5.0730  -11.1439   -5.0424 N   0  0  0  0  0  0  0  0  0  0  0  0
    4.3398  -10.2856   -4.1703 C   0  0  0  0  0  0  0  0  0  0  0  0
    3.2598   -9.4699   -4.7873 C   0  0  0  0  0  0  0  0  0  0  0  0
    2.5977   -8.6616   -3.6536 C   0  0  0  0  0  0  0  0  0  0  0  0
    2.1575  -10.3527   -5.3384 C   0  0  0  0  0  0  0  0  0  0  0  0
    3.7184   -8.4523   -5.7890 C   0  0  0  0  0  0  0  0  0  0  0  0
    6.3200  -10.7257   -5.5819 C   0  0  0  0  0  0  0  0  0  0  0  0
    6.9863  -11.5320   -6.2604 O   0  0  0  0  0  0  0  0  0  0  0  0
    6.8360   -9.3800   -5.3556 C   0  0  0  0  0  0  0  0  0  0  0  0
    6.8551   -8.3843   -6.3144 C   0  0  0  0  0  0  0  0  0  0  0  0
    7.2604   -7.1000   -5.9721 C   0  0  0  0  0  0  0  0  0  0  0  0
    7.6553   -6.7660   -4.6986 C   0  0  0  0  0  0  0  0  0  0  0  0
    7.6384   -7.7679   -3.7429 C   0  0  0  0  0  0  0  0  0  0  0  0
    7.2369   -9.0343   -4.0802 C   0  0  0  0  0  0  0  0  0  0  0  0
    8.0606   -5.4596   -4.3780 O   0  0  0  0  0  0  0  0  0  0  0  0
    9.0926   -5.1932   -3.4712 C   0  0  0  0  0  0  0  0  0  0  0  0
    6.5476   -8.7470   -7.6470 N   0  0  0  0  0  0  0  0  0  0  0  0
    5.8030   -9.9578   -7.8786 C   0  0  0  0  0  0  0  0  0  0  0  0
    4.7575   -9.8624   -8.9306 C   0  0  0  0  0  0  0  0  0  0  0  0
    5.1387   -8.9064  -10.0497 C   0  0  0  0  0  0  0  0  0  0  0  0
    6.6275   -8.7008  -10.0322 C   0  0  0  0  0  0  0  0  0  0  0  0
    6.9341   -7.9153   -8.7413 C   0  0  0  0  0  0  0  0  0  0  0  0
    4.6261   -9.4104  -11.3601 C   0  0  0  0  0  0  0  0  0  0  0  0
    4.0916  -10.6624  -11.5441 C   0  0  0  0  0  0  0  0  0  0  0  0
    3.7484  -10.7191  -12.8776 C   0  0  0  0  0  0  0  0  0  0  0  0
    4.0869   -9.5030  -13.4479 C   0  0  0  0  0  0  0  0  0  0  0  0
    4.6110   -8.7587  -12.4839 O   0  0  0  0  0  0  0  0  0  0  0  0
    3.8476   -9.2946  -14.7825 C   0  0  0  0  0  0  0  0  0  0  0  0
    3.2675  -10.2674  -15.6166 C   0  0  0  0  0  0  0  0  0  0  0  0
    2.9522  -11.4496  -15.0121 C   0  0  0  0  0  0  0  0  0  0  0  0
    3.1856  -11.6853  -13.6526 C   0  0  0  0  0  0  0  0  0  0  0  0
    3.0567   -9.9799  -17.0185 C   0  0  0  0  0  0  0  0  0  0  0  0
    1.9069  -10.7603  -17.6363 C   0  0  0  0  0  0  0  0  0  0  0  0
    2.2518  -11.7317  -18.6410 C   0  0  0  0  0  0  0  0  0  0  0  0
    3.2614  -11.6766  -19.3474 O   0  0  0  0  0  0  0  0  0  0  0  0
    1.3846  -12.8187  -18.8362 O   0  0  0  0  0  0  0  0  0  0  0  0
    4.2520   -9.8783  -17.8670 C   0  0  0  0  0  0  0  0  0  0  0  0
    4.9397   -8.6954  -18.3599 C   0  0  0  0  0  0  0  0  0  0  0  0
    5.6209   -9.6136  -17.3403 C   0  0  0  0  0  0  0  0  0  0  0  0
  1  2  1  0
  2  3  2  0
  3  4  1  0
  4  5  2  0
  5  6  1  0
  6  7  2  0
  4  8  1  0
  8  9  1  0
  9 10  1  0
 10 11  1  0
 10 12  1  0
 10 13  1  0
  8 14  1  0
 14 15  2  0
 14 16  1  0
 16 17  1  0
 17 18  2  0
 18 19  1  0
 19 20  2  0
 20 21  1  0
 19 22  1  0
 22 23  1  0
 17 24  1  0
 24 25  1  0
 25 26  1  0
 26 27  1  0
 27 28  1  0
 28 29  1  0
 27 30  1  0
 30 31  2  0
 31 32  1  0
 32 33  2  0
 33 34  1  0
 33 35  1  0
 35 36  2  0
 36 37  1  0
 37 38  2  0
 36 39  1  0
 39 40  1  0
 40 41  1  0
 41 42  2  0
 41 43  1  0
 39 44  1  0
 44 45  1  0
 45 46  1  0
  7  2  1  0
 21 16  2  0
 29 24  1  0
 34 30  1  0
 38 32  1  0
 46 44  1  0
M  END
$$$$
