
     RDKit          3D

 46 51  0  0  0  0  0  0  0  0999 V2000
    1.5709  -11.3557   -8.0152 C   0  0  0  0  0  0  0  0  0  0  0  0
    2.1864  -11.3872   -6.6275 C   0  0  0  0  0  0  0  0  0  0  0  0
    3.5072  -11.5484   -6.4827 N   0  0  0  0  0  0  0  0  0  0  0  0
    4.0790  -11.5848   -5.2671 C   0  0  0  0  0  0  0  0  0  0  0  0
    3.2988  -11.4534   -4.1634 C   0  0  0  0  0  0  0  0  0  0  0  0
    1.9017  -11.2808   -4.2499 C   0  0  0  0  0  0  0  0  0  0  0  0
    1.3770  -11.2530   -5.5282 C   0  0  0  0  0  0  0  0  0  0  0  0
    5.5056  -11.7455   -5.1404 N   0  0  0  0  0  0  0  0  0  0  0  0
    6.0367  -13.0674   -5.0676 C   0  0  0  0  0  0  0  0  0  0  0  0
    5.9651  -13.8859   -6.3075 C   0  0  0  0  0  0  0  0  0  0  0  0
    6.5993  -13.0523   -7.4388 C   0  0  0  0  0  0  0  0  0  0  0  0
    4.5269  -14.1023   -6.7352 C   0  0  0  0  0  0  0  0  0  0  0  0
    6.7403  -15.1693   -6.2735 C   0  0  0  0  0  0  0  0  0  0  0  0
    6.3720  -10.6192   -5.1006 C   0  0  0  0  0  0  0  0  0  0  0  0
    7.5152  -10.7180   -5.5882 O   0  0  0  0  0  0  0  0  0  0  0  0
    5.9547   -9.3567   -4.5000 C   0  0  0  0  0  0  0  0  0  0  0  0
    5.4842   -8.2733   -5.2181 C   0  0  0  0  0  0  0  0  0  0  0  0
    5.0023   -7.1546   -4.5492 C   0  0  0  0  0  0  0  0  0  0  0  0
    4.9740   -7.0708   -3.1776 C   0  0  0  0  0  0  0  0  0  0  0  0
    5.4503   -8.1571   -2.4629 C   0  0  0  0  0  0  0  0  0  0  0  0
    5.9238   -9.2612   -3.1228 C   0  0  0  0  0  0  0  0  0  0  0  0
    4.4815   -5.9283   -2.5251 O   0  0  0  0  0  0  0  0  0  0  0  0
    5.1836   -5.2866   -1.4988 C   0  0  0  0  0  0  0  0  0  0  0  0
    5.6057   -8.3139   -6.6272 N   0  0  0  0  0  0  0  0  0  0  0  0
    6.2898   -9.4292   -7.2292 C   0  0  0  0  0  0  0  0  0  0  0  0
    5.6606   -9.9599   -8.4668 C   0  0  0  0  0  0  0  0  0  0  0  0
    4.9762   -8.8774   -9.2861 C   0  0  0  0  0  0  0  0  0  0  0  0
    5.5251   -7.5375   -8.8829 C   0  0  0  0  0  0  0  0  0  0  0  0
    5.0331   -7.2912   -7.4426 C   0  0  0  0  0  0  0  0  0  0  0  0
    5.1215   -9.1616  -10.7463 C   0  0  0  0  0  0  0  0  0  0  0  0
    6.1820   -8.7358  -11.5085 C   0  0  0  0  0  0  0  0  0  0  0  0
    5.9284   -9.2050  -12.7792 C   0  0  0  0  0  0  0  0  0  0  0  0
    4.7281   -9.8951  -12.7376 C   0  0  0  0  0  0  0  0  0  0  0  0
    4.2918   -9.8328  -11.4870 O   0  0  0  0  0  0  0  0  0  0  0  0
    4.2405  -10.4692  -13.8841 C   0  0  0  0  0  0  0  0  0  0  0  0
    4.9061  -10.3919  -15.1209 C   0  0  0  0  0  0  0  0  0  0  0  0
    6.0832   -9.7013  -15.1144 C   0  0  0  0  0  0  0  0  0  0  0  0
    6.6013   -9.1083  -13.9576 C   0  0  0  0  0  0  0  0  0  0  0  0
    4.3242  -11.0121  -16.2910 C   0  0  0  0  0  0  0  0  0  0  0  0
    5.1913  -12.1034  -16.8993 C   0  0  0  0  0  0  0  0  0  0  0  0
    4.5034  -13.2290  -17.4754 C   0  0  0  0  0  0  0  0  0  0  0  0
    3.2769  -13.3555  -17.5071 O   0  0  0  0  0  0  0  0  0  0  0  0
    5.2742  -14.2570  -18.0415 O   0  0  0  0  0  0  0  0  0  0  0  0
    3.6843  -10.1229  -17.2703 C   0  0  0  0  0  0  0  0  0  0  0  0
    2.3423   -9.5625  -17.2737 C   0  0  0  0  0  0  0  0  0  0  0  0
    3.5582   -8.6488  -17.0913 C   0  0  0  0  0  0  0  0  0  0  0  0
  1  2  1  0
  2  3  2  0
  3  4  1  0
  4  5  2  0
  5  6  1  0
  6  7  2  0
  4  8  1  0
  8  9  1  0
  9 10  1  0
 10 11  1  0
 10 12  1  0
 10 13  1  0
  8 14  1  0
 14 15  2  0
 14 16  1  0
 16 17  1  0
 17 18  2  0
 18 19  1  0
 19 20  2  0
 20 21  1  0
 19 22  1  0
 22 23  1  0
 17 24  1  0
 24 25  1  0
 25 26  1  0
 26 27  1  0
 27 28  1  0
 28 29  1  0
 27 30  1  0
 30 31  2  0
 31 32  1  0
 32 33  2  0
 33 34  1  0
 33 35  1  0
 35 36  2  0
 36 37  1  0
 37 38  2  0
 36 39  1  0
 39 40  1  0
 40 41  1  0
 41 42  2  0
 41 43  1  0
 39 44  1  0
 44 45  1  0
 45 46  1  0
  7  2  1  0
 21 16  2  0
 29 24  1  0
 34 30  1  0
 38 32  1  0
 46 44  1  0
M  END
$$$$
