
     RDKit          3D

 46 51  0  0  0  0  0  0  0  0999 V2000
    4.1963   -5.9736   -5.6697 C   0  0  0  0  0  0  0  0  0  0  0  0
    4.5403   -7.1587   -4.7850 C   0  0  0  0  0  0  0  0  0  0  0  0
    4.4006   -8.4061   -5.2500 N   0  0  0  0  0  0  0  0  0  0  0  0
    4.6928   -9.4740   -4.4883 C   0  0  0  0  0  0  0  0  0  0  0  0
    5.1407   -9.2817   -3.2209 C   0  0  0  0  0  0  0  0  0  0  0  0
    5.3090   -7.9928   -2.6734 C   0  0  0  0  0  0  0  0  0  0  0  0
    4.9902   -6.9384   -3.5081 C   0  0  0  0  0  0  0  0  0  0  0  0
    4.5466  -10.8060   -5.0189 N   0  0  0  0  0  0  0  0  0  0  0  0
    3.2582  -11.2202   -5.4699 C   0  0  0  0  0  0  0  0  0  0  0  0
    3.2166  -12.0498   -6.7038 C   0  0  0  0  0  0  0  0  0  0  0  0
    3.7941  -11.1918   -7.8472 C   0  0  0  0  0  0  0  0  0  0  0  0
    1.7872  -12.3441   -7.1144 C   0  0  0  0  0  0  0  0  0  0  0  0
    4.0583  -13.2905   -6.6703 C   0  0  0  0  0  0  0  0  0  0  0  0
    5.6572  -11.6890   -5.1062 C   0  0  0  0  0  0  0  0  0  0  0  0
    5.4494  -12.9146   -5.2020 O   0  0  0  0  0  0  0  0  0  0  0  0
    7.0292  -11.1935   -5.0818 C   0  0  0  0  0  0  0  0  0  0  0  0
    7.6064  -10.4553   -6.0981 C   0  0  0  0  0  0  0  0  0  0  0  0
    8.8823   -9.9297   -5.9346 C   0  0  0  0  0  0  0  0  0  0  0  0
    9.6152  -10.1158   -4.7869 C   0  0  0  0  0  0  0  0  0  0  0  0
    9.0343  -10.8595   -3.7735 C   0  0  0  0  0  0  0  0  0  0  0  0
    7.7750  -11.3764   -3.9341 C   0  0  0  0  0  0  0  0  0  0  0  0
   10.9035   -9.5734   -4.6463 O   0  0  0  0  0  0  0  0  0  0  0  0
   12.0248  -10.1244   -5.2766 C   0  0  0  0  0  0  0  0  0  0  0  0
    6.8980  -10.3475   -7.3181 N   0  0  0  0  0  0  0  0  0  0  0  0
    6.9276   -9.0931   -8.0251 C   0  0  0  0  0  0  0  0  0  0  0  0
    7.0674   -9.2052   -9.5005 C   0  0  0  0  0  0  0  0  0  0  0  0
    6.3916  -10.4469  -10.0598 C   0  0  0  0  0  0  0  0  0  0  0  0
    5.3836  -10.9468   -9.0632 C   0  0  0  0  0  0  0  0  0  0  0  0
    6.1956  -11.4664   -7.8598 C   0  0  0  0  0  0  0  0  0  0  0  0
    5.8027  -10.1571  -11.4027 C   0  0  0  0  0  0  0  0  0  0  0  0
    6.3282   -9.2506  -12.2909 C   0  0  0  0  0  0  0  0  0  0  0  0
    5.4943   -9.2901  -13.3874 C   0  0  0  0  0  0  0  0  0  0  0  0
    4.4992  -10.2164  -13.1218 C   0  0  0  0  0  0  0  0  0  0  0  0
    4.7397  -10.7031  -11.9121 O   0  0  0  0  0  0  0  0  0  0  0  0
    3.5278  -10.4503  -14.0618 C   0  0  0  0  0  0  0  0  0  0  0  0
    3.4879   -9.7872  -15.3017 C   0  0  0  0  0  0  0  0  0  0  0  0
    4.4867   -8.8829  -15.5187 C   0  0  0  0  0  0  0  0  0  0  0  0
    5.4889   -8.6281  -14.5759 C   0  0  0  0  0  0  0  0  0  0  0  0
    2.4247  -10.0772  -16.2387 C   0  0  0  0  0  0  0  0  0  0  0  0
    2.7660  -11.1805  -17.2280 C   0  0  0  0  0  0  0  0  0  0  0  0
    1.6711  -11.7351  -17.9801 C   0  0  0  0  0  0  0  0  0  0  0  0
    0.4931  -11.3923  -17.8534 O   0  0  0  0  0  0  0  0  0  0  0  0
    1.9555  -12.7351  -18.9239 O   0  0  0  0  0  0  0  0  0  0  0  0
    1.7176   -8.9294  -16.8232 C   0  0  0  0  0  0  0  0  0  0  0  0
    0.4406   -8.3414  -16.4510 C   0  0  0  0  0  0  0  0  0  0  0  0
    1.7401   -7.5584  -16.2393 C   0  0  0  0  0  0  0  0  0  0  0  0
  1  2  1  0
  2  3  2  0
  3  4  1  0
  4  5  2  0
  5  6  1  0
  6  7  2  0
  4  8  1  0
  8  9  1  0
  9 10  1  0
 10 11  1  0
 10 12  1  0
 10 13  1  0
  8 14  1  0
 14 15  2  0
 14 16  1  0
 16 17  1  0
 17 18  2  0
 18 19  1  0
 19 20  2  0
 20 21  1  0
 19 22  1  0
 22 23  1  0
 17 24  1  0
 24 25  1  0
 25 26  1  0
 26 27  1  0
 27 28  1  0
 28 29  1  0
 27 30  1  0
 30 31  2  0
 31 32  1  0
 32 33  2  0
 33 34  1  0
 33 35  1  0
 35 36  2  0
 36 37  1  0
 37 38  2  0
 36 39  1  0
 39 40  1  0
 40 41  1  0
 41 42  2  0
 41 43  1  0
 39 44  1  0
 44 45  1  0
 45 46  1  0
  7  2  1  0
 21 16  2  0
 29 24  1  0
 34 30  1  0
 38 32  1  0
 46 44  1  0
M  END
$$$$
