
     RDKit          3D

 46 51  0  0  0  0  0  0  0  0999 V2000
    6.2229  -12.3000  -13.1244 C   0  0  0  0  0  0  0  0  0  0  0  0
    6.8004  -13.3113  -12.1501 C   0  0  0  0  0  0  0  0  0  0  0  0
    6.4857  -13.2469  -10.8508 N   0  0  0  0  0  0  0  0  0  0  0  0
    6.9852  -14.1254   -9.9650 C   0  0  0  0  0  0  0  0  0  0  0  0
    7.8259  -15.0995  -10.3994 C   0  0  0  0  0  0  0  0  0  0  0  0
    8.1955  -15.2201  -11.7552 C   0  0  0  0  0  0  0  0  0  0  0  0
    7.6478  -14.2855  -12.6135 C   0  0  0  0  0  0  0  0  0  0  0  0
    6.6186  -14.0416   -8.5737 N   0  0  0  0  0  0  0  0  0  0  0  0
    5.3591  -14.5755   -8.1695 C   0  0  0  0  0  0  0  0  0  0  0  0
    4.1518  -13.7824   -8.5246 C   0  0  0  0  0  0  0  0  0  0  0  0
    4.3026  -12.4019   -7.8551 C   0  0  0  0  0  0  0  0  0  0  0  0
    2.9039  -14.3850   -7.9099 C   0  0  0  0  0  0  0  0  0  0  0  0
    3.9778  -13.5007   -9.9873 C   0  0  0  0  0  0  0  0  0  0  0  0
    7.4907  -13.4536   -7.6175 C   0  0  0  0  0  0  0  0  0  0  0  0
    7.1042  -13.3365   -6.4379 O   0  0  0  0  0  0  0  0  0  0  0  0
    8.8213  -12.9826   -7.9867 C   0  0  0  0  0  0  0  0  0  0  0  0
    9.1078  -11.6847   -8.3665 C   0  0  0  0  0  0  0  0  0  0  0  0
   10.4251  -11.3023   -8.5892 C   0  0  0  0  0  0  0  0  0  0  0  0
   11.4794  -12.1731   -8.4502 C   0  0  0  0  0  0  0  0  0  0  0  0
   11.1867  -13.4731   -8.0737 C   0  0  0  0  0  0  0  0  0  0  0  0
    9.8876  -13.8497   -7.8522 C   0  0  0  0  0  0  0  0  0  0  0  0
   12.8026  -11.7615   -8.6811 O   0  0  0  0  0  0  0  0  0  0  0  0
   13.1267  -10.4612   -9.0842 C   0  0  0  0  0  0  0  0  0  0  0  0
    8.0194  -10.8139   -8.6094 N   0  0  0  0  0  0  0  0  0  0  0  0
    8.1867   -9.7498   -9.5654 C   0  0  0  0  0  0  0  0  0  0  0  0
    7.0210   -9.5160  -10.4573 C   0  0  0  0  0  0  0  0  0  0  0  0
    5.6939   -9.8044   -9.7740 C   0  0  0  0  0  0  0  0  0  0  0  0
    5.8940   -9.7772   -8.2845 C   0  0  0  0  0  0  0  0  0  0  0  0
    6.7675  -11.0028   -7.9494 C   0  0  0  0  0  0  0  0  0  0  0  0
    4.6473   -8.8485  -10.2481 C   0  0  0  0  0  0  0  0  0  0  0  0
    4.9081   -7.7568  -11.0400 C   0  0  0  0  0  0  0  0  0  0  0  0
    3.6856   -7.1539  -11.2427 C   0  0  0  0  0  0  0  0  0  0  0  0
    2.7345   -7.9016  -10.5682 C   0  0  0  0  0  0  0  0  0  0  0  0
    3.3756   -8.9075   -9.9892 O   0  0  0  0  0  0  0  0  0  0  0  0
    1.4194   -7.5131  -10.6079 C   0  0  0  0  0  0  0  0  0  0  0  0
    0.9786   -6.3759  -11.3086 C   0  0  0  0  0  0  0  0  0  0  0  0
    1.9503   -5.6697  -11.9564 C   0  0  0  0  0  0  0  0  0  0  0  0
    3.2977   -6.0467  -11.9315 C   0  0  0  0  0  0  0  0  0  0  0  0
   -0.4236   -6.0212  -11.2950 C   0  0  0  0  0  0  0  0  0  0  0  0
   -0.7492   -4.7838  -12.1169 C   0  0  0  0  0  0  0  0  0  0  0  0
   -1.7042   -3.8665  -11.5527 C   0  0  0  0  0  0  0  0  0  0  0  0
   -2.8595   -4.1658  -11.2414 O   0  0  0  0  0  0  0  0  0  0  0  0
   -1.3007   -2.5386  -11.3395 O   0  0  0  0  0  0  0  0  0  0  0  0
   -1.1197   -6.0973  -10.0031 C   0  0  0  0  0  0  0  0  0  0  0  0
   -0.9202   -7.0201   -8.8969 C   0  0  0  0  0  0  0  0  0  0  0  0
   -0.5741   -5.5367   -8.7346 C   0  0  0  0  0  0  0  0  0  0  0  0
  1  2  1  0
  2  3  2  0
  3  4  1  0
  4  5  2  0
  5  6  1  0
  6  7  2  0
  4  8  1  0
  8  9  1  0
  9 10  1  0
 10 11  1  0
 10 12  1  0
 10 13  1  0
  8 14  1  0
 14 15  2  0
 14 16  1  0
 16 17  1  0
 17 18  2  0
 18 19  1  0
 19 20  2  0
 20 21  1  0
 19 22  1  0
 22 23  1  0
 17 24  1  0
 24 25  1  0
 25 26  1  0
 26 27  1  0
 27 28  1  0
 28 29  1  0
 27 30  1  0
 30 31  2  0
 31 32  1  0
 32 33  2  0
 33 34  1  0
 33 35  1  0
 35 36  2  0
 36 37  1  0
 37 38  2  0
 36 39  1  0
 39 40  1  0
 40 41  1  0
 41 42  2  0
 41 43  1  0
 39 44  1  0
 44 45  1  0
 45 46  1  0
  7  2  1  0
 21 16  2  0
 29 24  1  0
 34 30  1  0
 38 32  1  0
 46 44  1  0
M  END
$$$$
