
     RDKit          3D

 46 51  0  0  0  0  0  0  0  0999 V2000
    1.4414   -9.5423   -2.5797 C   0  0  0  0  0  0  0  0  0  0  0  0
    1.9130   -9.7399   -4.0094 C   0  0  0  0  0  0  0  0  0  0  0  0
    3.0643  -10.3771   -4.2543 N   0  0  0  0  0  0  0  0  0  0  0  0
    3.5090  -10.5625   -5.5089 C   0  0  0  0  0  0  0  0  0  0  0  0
    2.7724  -10.0940   -6.5491 C   0  0  0  0  0  0  0  0  0  0  0  0
    1.5514   -9.4149   -6.3566 C   0  0  0  0  0  0  0  0  0  0  0  0
    1.1515   -9.2570   -5.0431 C   0  0  0  0  0  0  0  0  0  0  0  0
    4.7454  -11.2644   -5.7446 N   0  0  0  0  0  0  0  0  0  0  0  0
    4.6855  -12.6406   -6.1154 C   0  0  0  0  0  0  0  0  0  0  0  0
    4.5752  -13.6273   -5.0077 C   0  0  0  0  0  0  0  0  0  0  0  0
    6.0056  -13.9065   -4.5047 C   0  0  0  0  0  0  0  0  0  0  0  0
    4.0679  -14.9624   -5.5159 C   0  0  0  0  0  0  0  0  0  0  0  0
    3.8128  -13.1574   -3.8048 C   0  0  0  0  0  0  0  0  0  0  0  0
    5.9994  -10.6058   -5.6250 C   0  0  0  0  0  0  0  0  0  0  0  0
    7.0352  -11.2110   -5.9645 O   0  0  0  0  0  0  0  0  0  0  0  0
    6.0997   -9.2439   -5.1115 C   0  0  0  0  0  0  0  0  0  0  0  0
    5.9788   -8.1091   -5.8915 C   0  0  0  0  0  0  0  0  0  0  0  0
    5.9744   -6.8545   -5.2941 C   0  0  0  0  0  0  0  0  0  0  0  0
    6.0908   -6.6842   -3.9352 C   0  0  0  0  0  0  0  0  0  0  0  0
    6.2159   -7.8239   -3.1587 C   0  0  0  0  0  0  0  0  0  0  0  0
    6.2183   -9.0614   -3.7478 C   0  0  0  0  0  0  0  0  0  0  0  0
    6.0834   -5.4045   -3.3556 O   0  0  0  0  0  0  0  0  0  0  0  0
    6.8499   -4.3468   -3.8575 C   0  0  0  0  0  0  0  0  0  0  0  0
    5.9614   -8.2743   -7.2966 N   0  0  0  0  0  0  0  0  0  0  0  0
    6.2183   -9.5827   -7.8411 C   0  0  0  0  0  0  0  0  0  0  0  0
    5.3539   -9.9683   -8.9870 C   0  0  0  0  0  0  0  0  0  0  0  0
    4.9654   -8.7807   -9.8530 C   0  0  0  0  0  0  0  0  0  0  0  0
    5.9295   -7.6553   -9.6017 C   0  0  0  0  0  0  0  0  0  0  0  0
    5.6610   -7.1778   -8.1604 C   0  0  0  0  0  0  0  0  0  0  0  0
    4.8919   -9.1875  -11.2893 C   0  0  0  0  0  0  0  0  0  0  0  0
    5.9075   -9.8260  -11.9584 C   0  0  0  0  0  0  0  0  0  0  0  0
    5.4364  -10.0157  -13.2395 C   0  0  0  0  0  0  0  0  0  0  0  0
    4.1575   -9.4867  -13.2966 C   0  0  0  0  0  0  0  0  0  0  0  0
    3.8873   -9.0029  -12.0921 O   0  0  0  0  0  0  0  0  0  0  0  0
    3.4556   -9.5458  -14.4738 C   0  0  0  0  0  0  0  0  0  0  0  0
    3.9754  -10.1242  -15.6460 C   0  0  0  0  0  0  0  0  0  0  0  0
    5.2384  -10.6306  -15.5430 C   0  0  0  0  0  0  0  0  0  0  0  0
    5.9735  -10.5832  -14.3532 C   0  0  0  0  0  0  0  0  0  0  0  0
    3.1805  -10.1389  -16.8544 C   0  0  0  0  0  0  0  0  0  0  0  0
    3.7117  -11.0805  -17.9239 C   0  0  0  0  0  0  0  0  0  0  0  0
    3.5670  -12.4905  -17.6729 C   0  0  0  0  0  0  0  0  0  0  0  0
    2.8836  -12.9712  -16.7656 O   0  0  0  0  0  0  0  0  0  0  0  0
    4.2473  -13.3859  -18.5138 O   0  0  0  0  0  0  0  0  0  0  0  0
    2.7101   -8.8422  -17.3607 C   0  0  0  0  0  0  0  0  0  0  0  0
    1.3918   -8.2351  -17.2679 C   0  0  0  0  0  0  0  0  0  0  0  0
    2.5768   -7.6223  -16.5149 C   0  0  0  0  0  0  0  0  0  0  0  0
  1  2  1  0
  2  3  2  0
  3  4  1  0
  4  5  2  0
  5  6  1  0
  6  7  2  0
  4  8  1  0
  8  9  1  0
  9 10  1  0
 10 11  1  0
 10 12  1  0
 10 13  1  0
  8 14  1  0
 14 15  2  0
 14 16  1  0
 16 17  1  0
 17 18  2  0
 18 19  1  0
 19 20  2  0
 20 21  1  0
 19 22  1  0
 22 23  1  0
 17 24  1  0
 24 25  1  0
 25 26  1  0
 26 27  1  0
 27 28  1  0
 28 29  1  0
 27 30  1  0
 30 31  2  0
 31 32  1  0
 32 33  2  0
 33 34  1  0
 33 35  1  0
 35 36  2  0
 36 37  1  0
 37 38  2  0
 36 39  1  0
 39 40  1  0
 40 41  1  0
 41 42  2  0
 41 43  1  0
 39 44  1  0
 44 45  1  0
 45 46  1  0
  7  2  1  0
 21 16  2  0
 29 24  1  0
 34 30  1  0
 38 32  1  0
 46 44  1  0
M  END
$$$$
