
     RDKit          3D

 46 51  0  0  0  0  0  0  0  0999 V2000
    4.2118   -7.8338   -1.3048 C   0  0  0  0  0  0  0  0  0  0  0  0
    3.9138   -8.2533   -2.7334 C   0  0  0  0  0  0  0  0  0  0  0  0
    4.9170   -8.4653   -3.5937 N   0  0  0  0  0  0  0  0  0  0  0  0
    4.6832   -8.8327   -4.8651 C   0  0  0  0  0  0  0  0  0  0  0  0
    3.4013   -8.9932   -5.2837 C   0  0  0  0  0  0  0  0  0  0  0  0
    2.3015   -8.7849   -4.4256 C   0  0  0  0  0  0  0  0  0  0  0  0
    2.6105   -8.4082   -3.1323 C   0  0  0  0  0  0  0  0  0  0  0  0
    5.7827   -9.0681   -5.7666 N   0  0  0  0  0  0  0  0  0  0  0  0
    6.2651   -7.9776   -6.5494 C   0  0  0  0  0  0  0  0  0  0  0  0
    6.1305   -8.1031   -8.0255 C   0  0  0  0  0  0  0  0  0  0  0  0
    4.9951   -9.1111   -8.2935 C   0  0  0  0  0  0  0  0  0  0  0  0
    7.3684   -8.7319   -8.6339 C   0  0  0  0  0  0  0  0  0  0  0  0
    5.7283   -6.8480   -8.7410 C   0  0  0  0  0  0  0  0  0  0  0  0
    6.3866  -10.3508   -5.8708 C   0  0  0  0  0  0  0  0  0  0  0  0
    7.5388  -10.4405   -6.3386 O   0  0  0  0  0  0  0  0  0  0  0  0
    5.6879  -11.5595   -5.4475 C   0  0  0  0  0  0  0  0  0  0  0  0
    5.2942  -12.5695   -6.3053 C   0  0  0  0  0  0  0  0  0  0  0  0
    4.7366  -13.7352   -5.7942 C   0  0  0  0  0  0  0  0  0  0  0  0
    4.5504  -13.9346   -4.4471 C   0  0  0  0  0  0  0  0  0  0  0  0
    4.9425  -12.9182   -3.5923 C   0  0  0  0  0  0  0  0  0  0  0  0
    5.4943  -11.7692   -4.0965 C   0  0  0  0  0  0  0  0  0  0  0  0
    3.9844  -15.1227   -3.9554 O   0  0  0  0  0  0  0  0  0  0  0  0
    4.4313  -15.7395   -2.7815 C   0  0  0  0  0  0  0  0  0  0  0  0
    5.3897  -12.3272   -7.6961 N   0  0  0  0  0  0  0  0  0  0  0  0
    4.3176  -12.7709   -8.5494 C   0  0  0  0  0  0  0  0  0  0  0  0
    3.9337  -11.8190   -9.6243 C   0  0  0  0  0  0  0  0  0  0  0  0
    5.1143  -11.0127  -10.1414 C   0  0  0  0  0  0  0  0  0  0  0  0
    6.3886  -11.7221   -9.7778 C   0  0  0  0  0  0  0  0  0  0  0  0
    6.5068  -11.6265   -8.2435 C   0  0  0  0  0  0  0  0  0  0  0  0
    4.9719  -10.7664  -11.6087 C   0  0  0  0  0  0  0  0  0  0  0  0
    5.9818  -10.2878  -12.4074 C   0  0  0  0  0  0  0  0  0  0  0  0
    5.4393  -10.2088  -13.6718 C   0  0  0  0  0  0  0  0  0  0  0  0
    4.1260  -10.6416  -13.5904 C   0  0  0  0  0  0  0  0  0  0  0  0
    3.9047  -10.9627  -12.3231 O   0  0  0  0  0  0  0  0  0  0  0  0
    3.3516  -10.6621  -14.7225 C   0  0  0  0  0  0  0  0  0  0  0  0
    3.8287  -10.2591  -15.9829 C   0  0  0  0  0  0  0  0  0  0  0  0
    5.1269   -9.8393  -16.0148 C   0  0  0  0  0  0  0  0  0  0  0  0
    5.9367   -9.8106  -14.8738 C   0  0  0  0  0  0  0  0  0  0  0  0
    2.9492  -10.2965  -17.1307 C   0  0  0  0  0  0  0  0  0  0  0  0
    2.4870   -8.9229  -17.5915 C   0  0  0  0  0  0  0  0  0  0  0  0
    1.8557   -8.8536  -18.8832 C   0  0  0  0  0  0  0  0  0  0  0  0
    1.0175   -9.6596  -19.2944 O   0  0  0  0  0  0  0  0  0  0  0  0
    2.2134   -7.7996  -19.7392 O   0  0  0  0  0  0  0  0  0  0  0  0
    1.9024  -11.3276  -17.1371 C   0  0  0  0  0  0  0  0  0  0  0  0
    1.0716  -11.7966  -18.2348 C   0  0  0  0  0  0  0  0  0  0  0  0
    2.1189  -12.7240  -17.6107 C   0  0  0  0  0  0  0  0  0  0  0  0
  1  2  1  0
  2  3  2  0
  3  4  1  0
  4  5  2  0
  5  6  1  0
  6  7  2  0
  4  8  1  0
  8  9  1  0
  9 10  1  0
 10 11  1  0
 10 12  1  0
 10 13  1  0
  8 14  1  0
 14 15  2  0
 14 16  1  0
 16 17  1  0
 17 18  2  0
 18 19  1  0
 19 20  2  0
 20 21  1  0
 19 22  1  0
 22 23  1  0
 17 24  1  0
 24 25  1  0
 25 26  1  0
 26 27  1  0
 27 28  1  0
 28 29  1  0
 27 30  1  0
 30 31  2  0
 31 32  1  0
 32 33  2  0
 33 34  1  0
 33 35  1  0
 35 36  2  0
 36 37  1  0
 37 38  2  0
 36 39  1  0
 39 40  1  0
 40 41  1  0
 41 42  2  0
 41 43  1  0
 39 44  1  0
 44 45  1  0
 45 46  1  0
  7  2  1  0
 21 16  2  0
 29 24  1  0
 34 30  1  0
 38 32  1  0
 46 44  1  0
M  END
$$$$
