
     RDKit          3D

 46 51  0  0  0  0  0  0  0  0999 V2000
    9.8527  -10.6246   -9.5674 C   0  0  0  0  0  0  0  0  0  0  0  0
    8.9641   -9.7973   -8.6555 C   0  0  0  0  0  0  0  0  0  0  0  0
    7.7515  -10.2475   -8.3113 N   0  0  0  0  0  0  0  0  0  0  0  0
    6.9416   -9.5350   -7.5097 C   0  0  0  0  0  0  0  0  0  0  0  0
    7.3648   -8.3337   -7.0387 C   0  0  0  0  0  0  0  0  0  0  0  0
    8.6310   -7.8050   -7.3650 C   0  0  0  0  0  0  0  0  0  0  0  0
    9.4140   -8.5866   -8.1933 C   0  0  0  0  0  0  0  0  0  0  0  0
    5.6464  -10.0500   -7.1435 N   0  0  0  0  0  0  0  0  0  0  0  0
    5.5708  -11.3539   -6.5701 C   0  0  0  0  0  0  0  0  0  0  0  0
    5.5234  -11.4298   -5.0853 C   0  0  0  0  0  0  0  0  0  0  0  0
    5.5690  -12.9233   -4.7056 C   0  0  0  0  0  0  0  0  0  0  0  0
    4.1940  -10.9284   -4.5564 C   0  0  0  0  0  0  0  0  0  0  0  0
    6.6843  -10.8006   -4.3743 C   0  0  0  0  0  0  0  0  0  0  0  0
    4.4676   -9.2787   -7.3340 C   0  0  0  0  0  0  0  0  0  0  0  0
    3.4277   -9.6037   -6.7277 O   0  0  0  0  0  0  0  0  0  0  0  0
    4.4480   -8.1225   -8.2235 C   0  0  0  0  0  0  0  0  0  0  0  0
    4.2465   -8.1967   -9.5891 C   0  0  0  0  0  0  0  0  0  0  0  0
    4.1301   -7.0314  -10.3371 C   0  0  0  0  0  0  0  0  0  0  0  0
    4.2111   -5.7811   -9.7720 C   0  0  0  0  0  0  0  0  0  0  0  0
    4.4172   -5.7122   -8.4044 C   0  0  0  0  0  0  0  0  0  0  0  0
    4.5302   -6.8617   -7.6664 C   0  0  0  0  0  0  0  0  0  0  0  0
    4.0899   -4.6179  -10.5504 O   0  0  0  0  0  0  0  0  0  0  0  0
    4.0040   -4.6526  -11.9467 C   0  0  0  0  0  0  0  0  0  0  0  0
    4.2644   -9.4781  -10.1890 N   0  0  0  0  0  0  0  0  0  0  0  0
    4.5031   -9.5737  -11.6061 C   0  0  0  0  0  0  0  0  0  0  0  0
    5.3983  -10.6854  -12.0200 C   0  0  0  0  0  0  0  0  0  0  0  0
    5.2658  -11.9078  -11.1256 C   0  0  0  0  0  0  0  0  0  0  0  0
    3.9570  -11.8366  -10.3900 C   0  0  0  0  0  0  0  0  0  0  0  0
    4.0854  -10.6577   -9.4047 C   0  0  0  0  0  0  0  0  0  0  0  0
    5.4264  -13.1583  -11.9284 C   0  0  0  0  0  0  0  0  0  0  0  0
    4.4644  -14.1336  -12.0292 C   0  0  0  0  0  0  0  0  0  0  0  0
    5.0079  -15.0973  -12.8509 C   0  0  0  0  0  0  0  0  0  0  0  0
    6.2740  -14.6695  -13.2152 C   0  0  0  0  0  0  0  0  0  0  0  0
    6.4676  -13.4966  -12.6278 O   0  0  0  0  0  0  0  0  0  0  0  0
    7.0392  -15.4543  -14.0401 C   0  0  0  0  0  0  0  0  0  0  0  0
    6.5988  -16.6918  -14.5432 C   0  0  0  0  0  0  0  0  0  0  0  0
    5.3467  -17.0730  -14.1566 C   0  0  0  0  0  0  0  0  0  0  0  0
    4.5471  -16.2892  -13.3173 C   0  0  0  0  0  0  0  0  0  0  0  0
    7.4670  -17.4707  -15.3987 C   0  0  0  0  0  0  0  0  0  0  0  0
    7.1409  -17.3437  -16.8786 C   0  0  0  0  0  0  0  0  0  0  0  0
    8.2000  -17.6550  -17.8024 C   0  0  0  0  0  0  0  0  0  0  0  0
    8.5030  -18.7966  -18.1577 O   0  0  0  0  0  0  0  0  0  0  0  0
    8.9434  -16.5920  -18.3399 O   0  0  0  0  0  0  0  0  0  0  0  0
    7.7898  -18.8351  -14.9589 C   0  0  0  0  0  0  0  0  0  0  0  0
    7.2898  -19.5819  -13.8155 C   0  0  0  0  0  0  0  0  0  0  0  0
    6.9305  -20.0201  -15.2387 C   0  0  0  0  0  0  0  0  0  0  0  0
  1  2  1  0
  2  3  2  0
  3  4  1  0
  4  5  2  0
  5  6  1  0
  6  7  2  0
  4  8  1  0
  8  9  1  0
  9 10  1  0
 10 11  1  0
 10 12  1  0
 10 13  1  0
  8 14  1  0
 14 15  2  0
 14 16  1  0
 16 17  1  0
 17 18  2  0
 18 19  1  0
 19 20  2  0
 20 21  1  0
 19 22  1  0
 22 23  1  0
 17 24  1  0
 24 25  1  0
 25 26  1  0
 26 27  1  0
 27 28  1  0
 28 29  1  0
 27 30  1  0
 30 31  2  0
 31 32  1  0
 32 33  2  0
 33 34  1  0
 33 35  1  0
 35 36  2  0
 36 37  1  0
 37 38  2  0
 36 39  1  0
 39 40  1  0
 40 41  1  0
 41 42  2  0
 41 43  1  0
 39 44  1  0
 44 45  1  0
 45 46  1  0
  7  2  1  0
 21 16  2  0
 29 24  1  0
 34 30  1  0
 38 32  1  0
 46 44  1  0
M  END
$$$$
