
     RDKit          3D

 46 51  0  0  0  0  0  0  0  0999 V2000
    4.5157   -6.6195   -6.7301 C   0  0  0  0  0  0  0  0  0  0  0  0
    5.0859   -7.5110   -5.6412 C   0  0  0  0  0  0  0  0  0  0  0  0
    5.7751   -8.6112   -5.9671 N   0  0  0  0  0  0  0  0  0  0  0  0
    6.2873   -9.4213   -5.0251 C   0  0  0  0  0  0  0  0  0  0  0  0
    6.1020   -9.1147   -3.7152 C   0  0  0  0  0  0  0  0  0  0  0  0
    5.3855   -7.9702   -3.3078 C   0  0  0  0  0  0  0  0  0  0  0  0
    4.8848   -7.1802   -4.3252 C   0  0  0  0  0  0  0  0  0  0  0  0
    7.0372  -10.5921   -5.4040 N   0  0  0  0  0  0  0  0  0  0  0  0
    8.1352  -10.4350   -6.3009 C   0  0  0  0  0  0  0  0  0  0  0  0
    9.4670  -10.1800   -5.6893 C   0  0  0  0  0  0  0  0  0  0  0  0
    9.8643  -11.4553   -4.9193 C   0  0  0  0  0  0  0  0  0  0  0  0
    9.3837   -9.0928   -4.6361 C   0  0  0  0  0  0  0  0  0  0  0  0
   10.5823   -9.9361   -6.6617 C   0  0  0  0  0  0  0  0  0  0  0  0
    6.7055  -11.8758   -4.8912 C   0  0  0  0  0  0  0  0  0  0  0  0
    7.5379  -12.7991   -4.9874 O   0  0  0  0  0  0  0  0  0  0  0  0
    5.4155  -12.1355   -4.2613 C   0  0  0  0  0  0  0  0  0  0  0  0
    4.2161  -12.1996   -4.9456 C   0  0  0  0  0  0  0  0  0  0  0  0
    3.0547  -12.5660   -4.2763 C   0  0  0  0  0  0  0  0  0  0  0  0
    3.0408  -12.8709   -2.9361 C   0  0  0  0  0  0  0  0  0  0  0  0
    4.2440  -12.8011   -2.2543 C   0  0  0  0  0  0  0  0  0  0  0  0
    5.3898  -12.4415   -2.9150 C   0  0  0  0  0  0  0  0  0  0  0  0
    1.8529  -13.2388   -2.2826 O   0  0  0  0  0  0  0  0  0  0  0  0
    1.8394  -14.0752   -1.1608 C   0  0  0  0  0  0  0  0  0  0  0  0
    4.2074  -11.7887   -6.2995 N   0  0  0  0  0  0  0  0  0  0  0  0
    5.3310  -12.1321   -7.1325 C   0  0  0  0  0  0  0  0  0  0  0  0
    4.9832  -12.5682   -8.5101 C   0  0  0  0  0  0  0  0  0  0  0  0
    3.7441  -11.8716   -9.0494 C   0  0  0  0  0  0  0  0  0  0  0  0
    3.5033  -10.6176   -8.2567 C   0  0  0  0  0  0  0  0  0  0  0  0
    3.0944  -11.0787   -6.8434 C   0  0  0  0  0  0  0  0  0  0  0  0
    3.8839  -11.6264  -10.5172 C   0  0  0  0  0  0  0  0  0  0  0  0
    4.9096  -12.1242  -11.2835 C   0  0  0  0  0  0  0  0  0  0  0  0
    4.6633  -11.6693  -12.5609 C   0  0  0  0  0  0  0  0  0  0  0  0
    3.5014  -10.9164  -12.5191 C   0  0  0  0  0  0  0  0  0  0  0  0
    3.0806  -10.9279  -11.2617 O   0  0  0  0  0  0  0  0  0  0  0  0
    3.0290  -10.3415  -13.6715 C   0  0  0  0  0  0  0  0  0  0  0  0
    3.6737  -10.4779  -14.9143 C   0  0  0  0  0  0  0  0  0  0  0  0
    4.8147  -11.2265  -14.9070 C   0  0  0  0  0  0  0  0  0  0  0  0
    5.3155  -11.8237  -13.7447 C   0  0  0  0  0  0  0  0  0  0  0  0
    3.1227   -9.8319  -16.0853 C   0  0  0  0  0  0  0  0  0  0  0  0
    3.5477  -10.4760  -17.3957 C   0  0  0  0  0  0  0  0  0  0  0  0
    2.5031  -10.7610  -18.3441 C   0  0  0  0  0  0  0  0  0  0  0  0
    1.8699  -11.8187  -18.3879 O   0  0  0  0  0  0  0  0  0  0  0  0
    2.1770   -9.7729  -19.2868 O   0  0  0  0  0  0  0  0  0  0  0  0
    3.1204   -8.3625  -16.0991 C   0  0  0  0  0  0  0  0  0  0  0  0
    2.0334   -7.4358  -15.8257 C   0  0  0  0  0  0  0  0  0  0  0  0
    3.2294   -7.5230  -14.8726 C   0  0  0  0  0  0  0  0  0  0  0  0
  1  2  1  0
  2  3  2  0
  3  4  1  0
  4  5  2  0
  5  6  1  0
  6  7  2  0
  4  8  1  0
  8  9  1  0
  9 10  1  0
 10 11  1  0
 10 12  1  0
 10 13  1  0
  8 14  1  0
 14 15  2  0
 14 16  1  0
 16 17  1  0
 17 18  2  0
 18 19  1  0
 19 20  2  0
 20 21  1  0
 19 22  1  0
 22 23  1  0
 17 24  1  0
 24 25  1  0
 25 26  1  0
 26 27  1  0
 27 28  1  0
 28 29  1  0
 27 30  1  0
 30 31  2  0
 31 32  1  0
 32 33  2  0
 33 34  1  0
 33 35  1  0
 35 36  2  0
 36 37  1  0
 37 38  2  0
 36 39  1  0
 39 40  1  0
 40 41  1  0
 41 42  2  0
 41 43  1  0
 39 44  1  0
 44 45  1  0
 45 46  1  0
  7  2  1  0
 21 16  2  0
 29 24  1  0
 34 30  1  0
 38 32  1  0
 46 44  1  0
M  END
$$$$
