
     RDKit          3D

 46 51  0  0  0  0  0  0  0  0999 V2000
   10.8437   -6.5814   -8.2304 C   0  0  0  0  0  0  0  0  0  0  0  0
    9.4567   -7.1847   -8.0972 C   0  0  0  0  0  0  0  0  0  0  0  0
    9.1567   -7.9511   -7.0417 N   0  0  0  0  0  0  0  0  0  0  0  0
    7.9391   -8.5019   -6.8998 C   0  0  0  0  0  0  0  0  0  0  0  0
    6.9938   -8.2737   -7.8476 C   0  0  0  0  0  0  0  0  0  0  0  0
    7.2481   -7.4755   -8.9823 C   0  0  0  0  0  0  0  0  0  0  0  0
    8.5192   -6.9398   -9.0683 C   0  0  0  0  0  0  0  0  0  0  0  0
    7.6387   -9.3118   -5.7462 N   0  0  0  0  0  0  0  0  0  0  0  0
    8.5420   -9.2841   -4.6425 C   0  0  0  0  0  0  0  0  0  0  0  0
    9.3444  -10.5138   -4.4043 C   0  0  0  0  0  0  0  0  0  0  0  0
   10.2934  -10.2152   -3.2265 C   0  0  0  0  0  0  0  0  0  0  0  0
   10.2550  -10.8065   -5.5805 C   0  0  0  0  0  0  0  0  0  0  0  0
    8.5582  -11.7212   -3.9884 C   0  0  0  0  0  0  0  0  0  0  0  0
    6.4655  -10.1129   -5.6953 C   0  0  0  0  0  0  0  0  0  0  0  0
    6.4530  -11.2058   -6.2953 O   0  0  0  0  0  0  0  0  0  0  0  0
    5.2795   -9.6830   -4.9625 C   0  0  0  0  0  0  0  0  0  0  0  0
    4.0400   -9.4820   -5.5406 C   0  0  0  0  0  0  0  0  0  0  0  0
    2.9427   -9.1836   -4.7419 C   0  0  0  0  0  0  0  0  0  0  0  0
    3.0338   -9.0729   -3.3749 C   0  0  0  0  0  0  0  0  0  0  0  0
    4.2784   -9.2711   -2.8011 C   0  0  0  0  0  0  0  0  0  0  0  0
    5.3603   -9.5672   -3.5888 C   0  0  0  0  0  0  0  0  0  0  0  0
    1.9089   -8.7704   -2.5895 O   0  0  0  0  0  0  0  0  0  0  0  0
    2.0102   -8.1680   -1.3305 C   0  0  0  0  0  0  0  0  0  0  0  0
    3.9622   -9.4942   -6.9533 N   0  0  0  0  0  0  0  0  0  0  0  0
    5.1810   -9.3845   -7.7128 C   0  0  0  0  0  0  0  0  0  0  0  0
    5.2613  -10.2683   -8.9050 C   0  0  0  0  0  0  0  0  0  0  0  0
    3.9066  -10.4983   -9.5556 C   0  0  0  0  0  0  0  0  0  0  0  0
    2.9633   -9.4123   -9.1196 C   0  0  0  0  0  0  0  0  0  0  0  0
    2.7076   -9.6476   -7.6174 C   0  0  0  0  0  0  0  0  0  0  0  0
    4.0531  -10.5944  -11.0400 C   0  0  0  0  0  0  0  0  0  0  0  0
    5.2528  -10.7852  -11.6812 C   0  0  0  0  0  0  0  0  0  0  0  0
    4.9466  -10.8147  -13.0246 C   0  0  0  0  0  0  0  0  0  0  0  0
    3.5775  -10.6416  -13.1446 C   0  0  0  0  0  0  0  0  0  0  0  0
    3.0968  -10.5141  -11.9155 O   0  0  0  0  0  0  0  0  0  0  0  0
    3.0063  -10.6311  -14.3918 C   0  0  0  0  0  0  0  0  0  0  0  0
    3.7502  -10.7887  -15.5752 C   0  0  0  0  0  0  0  0  0  0  0  0
    5.0945  -10.9546  -15.4083 C   0  0  0  0  0  0  0  0  0  0  0  0
    5.6999  -10.9700  -14.1468 C   0  0  0  0  0  0  0  0  0  0  0  0
    3.0797  -10.7543  -16.8564 C   0  0  0  0  0  0  0  0  0  0  0  0
    3.6414  -11.7422  -17.8669 C   0  0  0  0  0  0  0  0  0  0  0  0
    2.6870  -12.4354  -18.6919 C   0  0  0  0  0  0  0  0  0  0  0  0
    2.9527  -12.9593  -19.7765 O   0  0  0  0  0  0  0  0  0  0  0  0
    1.3614  -12.5253  -18.2379 O   0  0  0  0  0  0  0  0  0  0  0  0
    2.7604   -9.4304  -17.4083 C   0  0  0  0  0  0  0  0  0  0  0  0
    1.4999   -8.9229  -17.9266 C   0  0  0  0  0  0  0  0  0  0  0  0
    2.0870   -8.3507  -16.6325 C   0  0  0  0  0  0  0  0  0  0  0  0
  1  2  1  0
  2  3  2  0
  3  4  1  0
  4  5  2  0
  5  6  1  0
  6  7  2  0
  4  8  1  0
  8  9  1  0
  9 10  1  0
 10 11  1  0
 10 12  1  0
 10 13  1  0
  8 14  1  0
 14 15  2  0
 14 16  1  0
 16 17  1  0
 17 18  2  0
 18 19  1  0
 19 20  2  0
 20 21  1  0
 19 22  1  0
 22 23  1  0
 17 24  1  0
 24 25  1  0
 25 26  1  0
 26 27  1  0
 27 28  1  0
 28 29  1  0
 27 30  1  0
 30 31  2  0
 31 32  1  0
 32 33  2  0
 33 34  1  0
 33 35  1  0
 35 36  2  0
 36 37  1  0
 37 38  2  0
 36 39  1  0
 39 40  1  0
 40 41  1  0
 41 42  2  0
 41 43  1  0
 39 44  1  0
 44 45  1  0
 45 46  1  0
  7  2  1  0
 21 16  2  0
 29 24  1  0
 34 30  1  0
 38 32  1  0
 46 44  1  0
M  END
$$$$
