
     RDKit          3D

 46 51  0  0  0  0  0  0  0  0999 V2000
   -3.2332   -5.2298   13.6531 C   0  0  0  0  0  0  0  0  0  0  0  0
   -2.4442   -4.4386   12.6250 C   0  0  0  0  0  0  0  0  0  0  0  0
   -1.1592   -4.1394   12.8502 N   0  0  0  0  0  0  0  0  0  0  0  0
   -0.4376   -3.4367   11.9606 C   0  0  0  0  0  0  0  0  0  0  0  0
   -1.0258   -3.0235   10.8085 C   0  0  0  0  0  0  0  0  0  0  0  0
   -2.3755   -3.3070   10.5130 C   0  0  0  0  0  0  0  0  0  0  0  0
   -3.0611   -4.0321   11.4691 C   0  0  0  0  0  0  0  0  0  0  0  0
    0.9483   -3.1404   12.2222 N   0  0  0  0  0  0  0  0  0  0  0  0
    1.9085   -4.1827   12.0597 C   0  0  0  0  0  0  0  0  0  0  0  0
    2.0107   -5.1755   13.1627 C   0  0  0  0  0  0  0  0  0  0  0  0
    3.1785   -6.1205   12.8158 C   0  0  0  0  0  0  0  0  0  0  0  0
    0.7840   -6.0650   13.2105 C   0  0  0  0  0  0  0  0  0  0  0  0
    2.3440   -4.6052   14.5090 C   0  0  0  0  0  0  0  0  0  0  0  0
    1.3597   -1.8395   12.6212 C   0  0  0  0  0  0  0  0  0  0  0  0
    2.5733   -1.6177   12.8017 O   0  0  0  0  0  0  0  0  0  0  0  0
    0.3954   -0.7642   12.8272 C   0  0  0  0  0  0  0  0  0  0  0  0
   -0.0694    0.0647   11.8233 C   0  0  0  0  0  0  0  0  0  0  0  0
   -1.0736    0.9861   12.0945 C   0  0  0  0  0  0  0  0  0  0  0  0
   -1.6366    1.1179   13.3415 C   0  0  0  0  0  0  0  0  0  0  0  0
   -1.1646    0.2881   14.3446 C   0  0  0  0  0  0  0  0  0  0  0  0
   -0.1753   -0.6220   14.0765 C   0  0  0  0  0  0  0  0  0  0  0  0
   -2.6510    2.0575   13.5898 O   0  0  0  0  0  0  0  0  0  0  0  0
   -3.1001    2.9554   12.6150 C   0  0  0  0  0  0  0  0  0  0  0  0
    0.5767    0.0031   10.5661 N   0  0  0  0  0  0  0  0  0  0  0  0
    1.6148   -0.9759   10.3707 C   0  0  0  0  0  0  0  0  0  0  0  0
    1.5954   -1.6590    9.0508 C   0  0  0  0  0  0  0  0  0  0  0  0
    1.0956   -0.7581    7.9327 C   0  0  0  0  0  0  0  0  0  0  0  0
    1.2178    0.6755    8.3674 C   0  0  0  0  0  0  0  0  0  0  0  0
    0.1875    0.8673    9.4983 C   0  0  0  0  0  0  0  0  0  0  0  0
    1.8239   -1.0555    6.6618 C   0  0  0  0  0  0  0  0  0  0  0  0
    2.6242   -2.1563    6.4762 C   0  0  0  0  0  0  0  0  0  0  0  0
    3.0955   -2.0501    5.1855 C   0  0  0  0  0  0  0  0  0  0  0  0
    2.5638   -0.8929    4.6409 C   0  0  0  0  0  0  0  0  0  0  0  0
    1.8076   -0.3386    5.5785 O   0  0  0  0  0  0  0  0  0  0  0  0
    2.8788   -0.5485    3.3509 C   0  0  0  0  0  0  0  0  0  0  0  0
    3.7284   -1.3213    2.5387 C   0  0  0  0  0  0  0  0  0  0  0  0
    4.2296   -2.4510    3.1176 C   0  0  0  0  0  0  0  0  0  0  0  0
    3.9219   -2.8236    4.4308 C   0  0  0  0  0  0  0  0  0  0  0  0
    4.0251   -0.8881    1.1909 C   0  0  0  0  0  0  0  0  0  0  0  0
    4.4522   -2.0171    0.2660 C   0  0  0  0  0  0  0  0  0  0  0  0
    5.7473   -1.8928   -0.3497 C   0  0  0  0  0  0  0  0  0  0  0  0
    6.5010   -0.9279   -0.2008 O   0  0  0  0  0  0  0  0  0  0  0  0
    6.1896   -2.9369   -1.1779 O   0  0  0  0  0  0  0  0  0  0  0  0
    4.8020    0.3503    1.0428 C   0  0  0  0  0  0  0  0  0  0  0  0
    4.6778    1.4084    0.0527 C   0  0  0  0  0  0  0  0  0  0  0  0
    4.3350    1.6826    1.5204 C   0  0  0  0  0  0  0  0  0  0  0  0
  1  2  1  0
  2  3  2  0
  3  4  1  0
  4  5  2  0
  5  6  1  0
  6  7  2  0
  4  8  1  0
  8  9  1  0
  9 10  1  0
 10 11  1  0
 10 12  1  0
 10 13  1  0
  8 14  1  0
 14 15  2  0
 14 16  1  0
 16 17  1  0
 17 18  2  0
 18 19  1  0
 19 20  2  0
 20 21  1  0
 19 22  1  0
 22 23  1  0
 17 24  1  0
 24 25  1  0
 25 26  1  0
 26 27  1  0
 27 28  1  0
 28 29  1  0
 27 30  1  0
 30 31  2  0
 31 32  1  0
 32 33  2  0
 33 34  1  0
 33 35  1  0
 35 36  2  0
 36 37  1  0
 37 38  2  0
 36 39  1  0
 39 40  1  0
 40 41  1  0
 41 42  2  0
 41 43  1  0
 39 44  1  0
 44 45  1  0
 45 46  1  0
  7  2  1  0
 21 16  2  0
 29 24  1  0
 34 30  1  0
 38 32  1  0
 46 44  1  0
M  END
$$$$
