
     RDKit          3D

 46 51  0  0  0  0  0  0  0  0999 V2000
    5.8569  -14.0082   -4.2991 C   0  0  0  0  0  0  0  0  0  0  0  0
    6.5897  -13.2448   -5.3881 C   0  0  0  0  0  0  0  0  0  0  0  0
    7.1274  -12.0481   -5.1231 N   0  0  0  0  0  0  0  0  0  0  0  0
    7.7775  -11.3478   -6.0680 C   0  0  0  0  0  0  0  0  0  0  0  0
    7.8917  -11.8676   -7.3174 C   0  0  0  0  0  0  0  0  0  0  0  0
    7.3472  -13.1230   -7.6590 C   0  0  0  0  0  0  0  0  0  0  0  0
    6.6911  -13.7909   -6.6424 C   0  0  0  0  0  0  0  0  0  0  0  0
    8.3591  -10.0677   -5.7517 N   0  0  0  0  0  0  0  0  0  0  0  0
    9.7428  -10.0160   -5.4090 C   0  0  0  0  0  0  0  0  0  0  0  0
   10.6947   -9.7227   -6.5137 C   0  0  0  0  0  0  0  0  0  0  0  0
   10.7196  -10.9609   -7.4320 C   0  0  0  0  0  0  0  0  0  0  0  0
   12.1117   -9.5903   -5.9912 C   0  0  0  0  0  0  0  0  0  0  0  0
   10.3132   -8.5749   -7.4003 C   0  0  0  0  0  0  0  0  0  0  0  0
    7.5827   -8.8776   -5.7897 C   0  0  0  0  0  0  0  0  0  0  0  0
    8.0602   -7.8610   -6.3311 O   0  0  0  0  0  0  0  0  0  0  0  0
    6.2463   -8.8197   -5.2073 C   0  0  0  0  0  0  0  0  0  0  0  0
    5.1008   -9.2545   -5.8474 C   0  0  0  0  0  0  0  0  0  0  0  0
    3.8887   -9.2652   -5.1681 C   0  0  0  0  0  0  0  0  0  0  0  0
    3.7711   -8.8517   -3.8626 C   0  0  0  0  0  0  0  0  0  0  0  0
    4.9207   -8.4132   -3.2272 C   0  0  0  0  0  0  0  0  0  0  0  0
    6.1166   -8.4044   -3.8968 C   0  0  0  0  0  0  0  0  0  0  0  0
    2.5336   -8.8725   -3.1979 O   0  0  0  0  0  0  0  0  0  0  0  0
    1.3163   -8.9911   -3.8778 C   0  0  0  0  0  0  0  0  0  0  0  0
    5.1980   -9.5841   -7.2200 N   0  0  0  0  0  0  0  0  0  0  0  0
    4.1378  -10.3504   -7.8226 C   0  0  0  0  0  0  0  0  0  0  0  0
    3.7414   -9.9122   -9.1864 C   0  0  0  0  0  0  0  0  0  0  0  0
    4.9094   -9.3569   -9.9856 C   0  0  0  0  0  0  0  0  0  0  0  0
    6.1947   -9.8394   -9.3738 C   0  0  0  0  0  0  0  0  0  0  0  0
    6.3045   -9.1387   -8.0047 C   0  0  0  0  0  0  0  0  0  0  0  0
    4.7689   -9.7177  -11.4292 C   0  0  0  0  0  0  0  0  0  0  0  0
    5.7178  -10.4085  -12.1428 C   0  0  0  0  0  0  0  0  0  0  0  0
    5.2007  -10.5287  -13.4146 C   0  0  0  0  0  0  0  0  0  0  0  0
    3.9623   -9.9082  -13.4220 C   0  0  0  0  0  0  0  0  0  0  0  0
    3.7595   -9.4397  -12.1983 O   0  0  0  0  0  0  0  0  0  0  0  0
    3.2272   -9.8845  -14.5800 C   0  0  0  0  0  0  0  0  0  0  0  0
    3.6728  -10.4660  -15.7808 C   0  0  0  0  0  0  0  0  0  0  0  0
    4.8983  -11.0641  -15.7265 C   0  0  0  0  0  0  0  0  0  0  0  0
    5.6659  -11.1022  -14.5571 C   0  0  0  0  0  0  0  0  0  0  0  0
    2.8475  -10.3906  -16.9663 C   0  0  0  0  0  0  0  0  0  0  0  0
    2.9180   -9.0473  -17.6757 C   0  0  0  0  0  0  0  0  0  0  0  0
    2.0944   -8.8907  -18.8458 C   0  0  0  0  0  0  0  0  0  0  0  0
    2.1051   -9.6549  -19.8139 O   0  0  0  0  0  0  0  0  0  0  0  0
    1.2167   -7.7959  -18.8960 O   0  0  0  0  0  0  0  0  0  0  0  0
    1.4980  -10.9655  -16.8788 C   0  0  0  0  0  0  0  0  0  0  0  0
    1.0647  -12.3421  -17.0584 C   0  0  0  0  0  0  0  0  0  0  0  0
    0.9795  -11.6814  -15.6790 C   0  0  0  0  0  0  0  0  0  0  0  0
  1  2  1  0
  2  3  2  0
  3  4  1  0
  4  5  2  0
  5  6  1  0
  6  7  2  0
  4  8  1  0
  8  9  1  0
  9 10  1  0
 10 11  1  0
 10 12  1  0
 10 13  1  0
  8 14  1  0
 14 15  2  0
 14 16  1  0
 16 17  1  0
 17 18  2  0
 18 19  1  0
 19 20  2  0
 20 21  1  0
 19 22  1  0
 22 23  1  0
 17 24  1  0
 24 25  1  0
 25 26  1  0
 26 27  1  0
 27 28  1  0
 28 29  1  0
 27 30  1  0
 30 31  2  0
 31 32  1  0
 32 33  2  0
 33 34  1  0
 33 35  1  0
 35 36  2  0
 36 37  1  0
 37 38  2  0
 36 39  1  0
 39 40  1  0
 40 41  1  0
 41 42  2  0
 41 43  1  0
 39 44  1  0
 44 45  1  0
 45 46  1  0
  7  2  1  0
 21 16  2  0
 29 24  1  0
 34 30  1  0
 38 32  1  0
 46 44  1  0
M  END
$$$$
