
     RDKit          3D

 46 51  0  0  0  0  0  0  0  0999 V2000
    7.0245  -13.8328   -1.2608 C   0  0  0  0  0  0  0  0  0  0  0  0
    6.4611  -13.1864   -2.5139 C   0  0  0  0  0  0  0  0  0  0  0  0
    6.2078  -11.8723   -2.5354 N   0  0  0  0  0  0  0  0  0  0  0  0
    5.7049  -11.2739   -3.6286 C   0  0  0  0  0  0  0  0  0  0  0  0
    5.4502  -12.0197   -4.7345 C   0  0  0  0  0  0  0  0  0  0  0  0
    5.6955  -13.4080   -4.7746 C   0  0  0  0  0  0  0  0  0  0  0  0
    6.2119  -13.9613   -3.6181 C   0  0  0  0  0  0  0  0  0  0  0  0
    5.4547   -9.8547   -3.6290 N   0  0  0  0  0  0  0  0  0  0  0  0
    4.4971   -9.3331   -2.7094 C   0  0  0  0  0  0  0  0  0  0  0  0
    3.0670   -9.4277   -3.1078 C   0  0  0  0  0  0  0  0  0  0  0  0
    2.7611  -10.9193   -3.3498 C   0  0  0  0  0  0  0  0  0  0  0  0
    2.8282   -8.7538   -4.4446 C   0  0  0  0  0  0  0  0  0  0  0  0
    2.0818   -8.9807   -2.0692 C   0  0  0  0  0  0  0  0  0  0  0  0
    6.1503   -8.9855   -4.5131 C   0  0  0  0  0  0  0  0  0  0  0  0
    6.9810   -9.4690   -5.3072 O   0  0  0  0  0  0  0  0  0  0  0  0
    5.9164   -7.5455   -4.5078 C   0  0  0  0  0  0  0  0  0  0  0  0
    5.2369   -6.8655   -5.5012 C   0  0  0  0  0  0  0  0  0  0  0  0
    4.9640   -5.5111   -5.3522 C   0  0  0  0  0  0  0  0  0  0  0  0
    5.3492   -4.7990   -4.2415 C   0  0  0  0  0  0  0  0  0  0  0  0
    6.0332   -5.4837   -3.2512 C   0  0  0  0  0  0  0  0  0  0  0  0
    6.3007   -6.8201   -3.3974 C   0  0  0  0  0  0  0  0  0  0  0  0
    5.0608   -3.4299   -4.1148 O   0  0  0  0  0  0  0  0  0  0  0  0
    6.0575   -2.4649   -3.9312 C   0  0  0  0  0  0  0  0  0  0  0  0
    4.9287   -7.5697   -6.6891 N   0  0  0  0  0  0  0  0  0  0  0  0
    4.4356   -6.8297   -7.8221 C   0  0  0  0  0  0  0  0  0  0  0  0
    4.9859   -7.2510   -9.1368 C   0  0  0  0  0  0  0  0  0  0  0  0
    5.2848   -8.7405   -9.1963 C   0  0  0  0  0  0  0  0  0  0  0  0
    4.5106   -9.4388   -8.1136 C   0  0  0  0  0  0  0  0  0  0  0  0
    5.1339   -8.9797   -6.7801 C   0  0  0  0  0  0  0  0  0  0  0  0
    5.0014   -9.2726  -10.5639 C   0  0  0  0  0  0  0  0  0  0  0  0
    4.3054  -10.4318  -10.8066 C   0  0  0  0  0  0  0  0  0  0  0  0
    4.2702  -10.5545  -12.1788 C   0  0  0  0  0  0  0  0  0  0  0  0
    4.9437   -9.4681  -12.7125 C   0  0  0  0  0  0  0  0  0  0  0  0
    5.3604   -8.7338  -11.6902 O   0  0  0  0  0  0  0  0  0  0  0  0
    5.0561   -9.3474  -14.0744 C   0  0  0  0  0  0  0  0  0  0  0  0
    4.5149  -10.2850  -14.9726 C   0  0  0  0  0  0  0  0  0  0  0  0
    3.8620  -11.3388  -14.4018 C   0  0  0  0  0  0  0  0  0  0  0  0
    3.7333  -11.4829  -13.0159 C   0  0  0  0  0  0  0  0  0  0  0  0
    4.6841  -10.0976  -16.3968 C   0  0  0  0  0  0  0  0  0  0  0  0
    3.9938  -11.1589  -17.2393 C   0  0  0  0  0  0  0  0  0  0  0  0
    2.8952  -10.7193  -18.0589 C   0  0  0  0  0  0  0  0  0  0  0  0
    1.7752  -10.4324  -17.6293 O   0  0  0  0  0  0  0  0  0  0  0  0
    3.1051  -10.6070  -19.4427 O   0  0  0  0  0  0  0  0  0  0  0  0
    6.0244   -9.7207  -16.8667 C   0  0  0  0  0  0  0  0  0  0  0  0
    7.2222   -9.4152  -16.1005 C   0  0  0  0  0  0  0  0  0  0  0  0
    7.1643  -10.6753  -16.9696 C   0  0  0  0  0  0  0  0  0  0  0  0
  1  2  1  0
  2  3  2  0
  3  4  1  0
  4  5  2  0
  5  6  1  0
  6  7  2  0
  4  8  1  0
  8  9  1  0
  9 10  1  0
 10 11  1  0
 10 12  1  0
 10 13  1  0
  8 14  1  0
 14 15  2  0
 14 16  1  0
 16 17  1  0
 17 18  2  0
 18 19  1  0
 19 20  2  0
 20 21  1  0
 19 22  1  0
 22 23  1  0
 17 24  1  0
 24 25  1  0
 25 26  1  0
 26 27  1  0
 27 28  1  0
 28 29  1  0
 27 30  1  0
 30 31  2  0
 31 32  1  0
 32 33  2  0
 33 34  1  0
 33 35  1  0
 35 36  2  0
 36 37  1  0
 37 38  2  0
 36 39  1  0
 39 40  1  0
 40 41  1  0
 41 42  2  0
 41 43  1  0
 39 44  1  0
 44 45  1  0
 45 46  1  0
  7  2  1  0
 21 16  2  0
 29 24  1  0
 34 30  1  0
 38 32  1  0
 46 44  1  0
M  END
$$$$
