
     RDKit          3D

 46 51  0  0  0  0  0  0  0  0999 V2000
    0.9914   -9.7744   -9.2572 C   0  0  0  0  0  0  0  0  0  0  0  0
    2.1448  -10.7279   -9.5141 C   0  0  0  0  0  0  0  0  0  0  0  0
    3.3834  -10.2514   -9.6882 N   0  0  0  0  0  0  0  0  0  0  0  0
    4.4225  -11.0710   -9.9218 C   0  0  0  0  0  0  0  0  0  0  0  0
    4.2097  -12.4109   -9.9805 C   0  0  0  0  0  0  0  0  0  0  0  0
    2.9287  -12.9743   -9.8054 C   0  0  0  0  0  0  0  0  0  0  0  0
    1.9041  -12.0772   -9.5695 C   0  0  0  0  0  0  0  0  0  0  0  0
    5.7483  -10.5320  -10.0917 N   0  0  0  0  0  0  0  0  0  0  0  0
    5.9605   -9.5588  -11.1128 C   0  0  0  0  0  0  0  0  0  0  0  0
    6.1136  -10.0693  -12.5015 C   0  0  0  0  0  0  0  0  0  0  0  0
    4.7964  -10.7800  -12.8715 C   0  0  0  0  0  0  0  0  0  0  0  0
    7.1770  -11.1475  -12.5715 C   0  0  0  0  0  0  0  0  0  0  0  0
    6.3097   -9.0177  -13.5526 C   0  0  0  0  0  0  0  0  0  0  0  0
    6.8227  -10.9455   -9.2578 C   0  0  0  0  0  0  0  0  0  0  0  0
    7.9625  -10.4858   -9.4674 O   0  0  0  0  0  0  0  0  0  0  0  0
    6.6213  -11.8957   -8.1691 C   0  0  0  0  0  0  0  0  0  0  0  0
    5.8462  -11.6441   -7.0524 C   0  0  0  0  0  0  0  0  0  0  0  0
    5.6208  -12.6527   -6.1235 C   0  0  0  0  0  0  0  0  0  0  0  0
    6.1462  -13.9151   -6.2634 C   0  0  0  0  0  0  0  0  0  0  0  0
    6.9253  -14.1607   -7.3815 C   0  0  0  0  0  0  0  0  0  0  0  0
    7.1460  -13.1663   -8.2986 C   0  0  0  0  0  0  0  0  0  0  0  0
    5.9032  -14.9177   -5.3098 O   0  0  0  0  0  0  0  0  0  0  0  0
    4.8316  -14.8581   -4.4118 C   0  0  0  0  0  0  0  0  0  0  0  0
    5.3885  -10.3203   -6.8528 N   0  0  0  0  0  0  0  0  0  0  0  0
    4.3643  -10.0851   -5.8679 C   0  0  0  0  0  0  0  0  0  0  0  0
    4.5575   -8.8679   -5.0372 C   0  0  0  0  0  0  0  0  0  0  0  0
    5.2384   -7.7417   -5.7984 C   0  0  0  0  0  0  0  0  0  0  0  0
    5.0924   -7.9895   -7.2737 C   0  0  0  0  0  0  0  0  0  0  0  0
    5.9518   -9.2313   -7.5844 C   0  0  0  0  0  0  0  0  0  0  0  0
    4.6953   -6.4187   -5.3638 C   0  0  0  0  0  0  0  0  0  0  0  0
    4.7338   -5.2831   -6.1356 C   0  0  0  0  0  0  0  0  0  0  0  0
    4.1366   -4.3036   -5.3718 C   0  0  0  0  0  0  0  0  0  0  0  0
    3.7603   -4.8823   -4.1708 C   0  0  0  0  0  0  0  0  0  0  0  0
    4.1242   -6.1561   -4.2269 O   0  0  0  0  0  0  0  0  0  0  0  0
    3.1370   -4.1155   -3.2193 C   0  0  0  0  0  0  0  0  0  0  0  0
    2.8560   -2.7493   -3.4016 C   0  0  0  0  0  0  0  0  0  0  0  0
    3.2459   -2.2223   -4.5986 C   0  0  0  0  0  0  0  0  0  0  0  0
    3.8819   -2.9844   -5.5849 C   0  0  0  0  0  0  0  0  0  0  0  0
    2.2065   -2.0015   -2.3475 C   0  0  0  0  0  0  0  0  0  0  0  0
    1.2867   -0.9021   -2.8553 C   0  0  0  0  0  0  0  0  0  0  0  0
    1.0487    0.2036   -1.9650 C   0  0  0  0  0  0  0  0  0  0  0  0
    0.5277    0.1032   -0.8515 O   0  0  0  0  0  0  0  0  0  0  0  0
    1.4329    1.4869   -2.3856 O   0  0  0  0  0  0  0  0  0  0  0  0
    3.0305   -1.6233   -1.1911 C   0  0  0  0  0  0  0  0  0  0  0  0
    3.8088   -2.4633   -0.2946 C   0  0  0  0  0  0  0  0  0  0  0  0
    4.5137   -1.4865   -1.2410 C   0  0  0  0  0  0  0  0  0  0  0  0
  1  2  1  0
  2  3  2  0
  3  4  1  0
  4  5  2  0
  5  6  1  0
  6  7  2  0
  4  8  1  0
  8  9  1  0
  9 10  1  0
 10 11  1  0
 10 12  1  0
 10 13  1  0
  8 14  1  0
 14 15  2  0
 14 16  1  0
 16 17  1  0
 17 18  2  0
 18 19  1  0
 19 20  2  0
 20 21  1  0
 19 22  1  0
 22 23  1  0
 17 24  1  0
 24 25  1  0
 25 26  1  0
 26 27  1  0
 27 28  1  0
 28 29  1  0
 27 30  1  0
 30 31  2  0
 31 32  1  0
 32 33  2  0
 33 34  1  0
 33 35  1  0
 35 36  2  0
 36 37  1  0
 37 38  2  0
 36 39  1  0
 39 40  1  0
 40 41  1  0
 41 42  2  0
 41 43  1  0
 39 44  1  0
 44 45  1  0
 45 46  1  0
  7  2  1  0
 21 16  2  0
 29 24  1  0
 34 30  1  0
 38 32  1  0
 46 44  1  0
M  END
$$$$
