
     RDKit          3D

 46 51  0  0  0  0  0  0  0  0999 V2000
   10.8666  -10.0294   -2.9366 C   0  0  0  0  0  0  0  0  0  0  0  0
    9.7773   -9.9350   -3.9903 C   0  0  0  0  0  0  0  0  0  0  0  0
    8.8009  -10.8497   -4.0299 N   0  0  0  0  0  0  0  0  0  0  0  0
    7.8265  -10.7942   -4.9537 C   0  0  0  0  0  0  0  0  0  0  0  0
    7.8334   -9.7871   -5.8647 C   0  0  0  0  0  0  0  0  0  0  0  0
    8.8342   -8.7933   -5.8751 C   0  0  0  0  0  0  0  0  0  0  0  0
    9.8066   -8.9086   -4.8998 C   0  0  0  0  0  0  0  0  0  0  0  0
    6.7794  -11.7844   -4.9649 N   0  0  0  0  0  0  0  0  0  0  0  0
    7.1165  -13.1260   -5.3130 C   0  0  0  0  0  0  0  0  0  0  0  0
    7.8024  -13.9352   -4.2702 C   0  0  0  0  0  0  0  0  0  0  0  0
    6.8001  -14.1301   -3.1150 C   0  0  0  0  0  0  0  0  0  0  0  0
    8.9616  -13.1705   -3.6622 C   0  0  0  0  0  0  0  0  0  0  0  0
    8.2009  -15.3181   -4.6917 C   0  0  0  0  0  0  0  0  0  0  0  0
    5.4415  -11.4438   -4.6263 C   0  0  0  0  0  0  0  0  0  0  0  0
    4.5988  -12.3541   -4.5013 O   0  0  0  0  0  0  0  0  0  0  0  0
    5.0346  -10.0570   -4.4269 C   0  0  0  0  0  0  0  0  0  0  0  0
    4.4584   -9.2685   -5.4053 C   0  0  0  0  0  0  0  0  0  0  0  0
    3.9991   -7.9958   -5.0887 C   0  0  0  0  0  0  0  0  0  0  0  0
    4.0958   -7.4707   -3.8222 C   0  0  0  0  0  0  0  0  0  0  0  0
    4.6776   -8.2628   -2.8467 C   0  0  0  0  0  0  0  0  0  0  0  0
    5.1289   -9.5189   -3.1587 C   0  0  0  0  0  0  0  0  0  0  0  0
    3.6235   -6.1808   -3.5278 O   0  0  0  0  0  0  0  0  0  0  0  0
    4.2513   -5.3434   -2.5989 C   0  0  0  0  0  0  0  0  0  0  0  0
    4.4492   -9.7645   -6.7304 N   0  0  0  0  0  0  0  0  0  0  0  0
    3.2448   -9.6319   -7.5089 C   0  0  0  0  0  0  0  0  0  0  0  0
    3.4527   -9.2464   -8.9292 C   0  0  0  0  0  0  0  0  0  0  0  0
    4.7445   -9.8049   -9.5043 C   0  0  0  0  0  0  0  0  0  0  0  0
    5.1994  -10.9592   -8.6559 C   0  0  0  0  0  0  0  0  0  0  0  0
    5.6180  -10.3535   -7.3012 C   0  0  0  0  0  0  0  0  0  0  0  0
    4.5593  -10.1647  -10.9432 C   0  0  0  0  0  0  0  0  0  0  0  0
    4.7456  -11.4287  -11.4476 C   0  0  0  0  0  0  0  0  0  0  0  0
    4.4750  -11.3263  -12.7951 C   0  0  0  0  0  0  0  0  0  0  0  0
    4.1358  -10.0084  -13.0537 C   0  0  0  0  0  0  0  0  0  0  0  0
    4.2055   -9.3596  -11.8995 O   0  0  0  0  0  0  0  0  0  0  0  0
    3.8174   -9.6333  -14.3342 C   0  0  0  0  0  0  0  0  0  0  0  0
    3.8180  -10.5313  -15.4169 C   0  0  0  0  0  0  0  0  0  0  0  0
    4.1598  -11.8176  -15.1151 C   0  0  0  0  0  0  0  0  0  0  0  0
    4.4872  -12.2244  -13.8168 C   0  0  0  0  0  0  0  0  0  0  0  0
    3.4830  -10.0600  -16.7427 C   0  0  0  0  0  0  0  0  0  0  0  0
    2.0490  -10.3569  -17.1528 C   0  0  0  0  0  0  0  0  0  0  0  0
    1.6097   -9.8085  -18.4090 C   0  0  0  0  0  0  0  0  0  0  0  0
    1.7518   -8.6299  -18.7437 O   0  0  0  0  0  0  0  0  0  0  0  0
    0.9750  -10.6673  -19.3206 O   0  0  0  0  0  0  0  0  0  0  0  0
    4.4789  -10.2782  -17.8010 C   0  0  0  0  0  0  0  0  0  0  0  0
    4.4464   -9.8794  -19.1992 C   0  0  0  0  0  0  0  0  0  0  0  0
    5.4592   -9.2453  -18.2407 C   0  0  0  0  0  0  0  0  0  0  0  0
  1  2  1  0
  2  3  2  0
  3  4  1  0
  4  5  2  0
  5  6  1  0
  6  7  2  0
  4  8  1  0
  8  9  1  0
  9 10  1  0
 10 11  1  0
 10 12  1  0
 10 13  1  0
  8 14  1  0
 14 15  2  0
 14 16  1  0
 16 17  1  0
 17 18  2  0
 18 19  1  0
 19 20  2  0
 20 21  1  0
 19 22  1  0
 22 23  1  0
 17 24  1  0
 24 25  1  0
 25 26  1  0
 26 27  1  0
 27 28  1  0
 28 29  1  0
 27 30  1  0
 30 31  2  0
 31 32  1  0
 32 33  2  0
 33 34  1  0
 33 35  1  0
 35 36  2  0
 36 37  1  0
 37 38  2  0
 36 39  1  0
 39 40  1  0
 40 41  1  0
 41 42  2  0
 41 43  1  0
 39 44  1  0
 44 45  1  0
 45 46  1  0
  7  2  1  0
 21 16  2  0
 29 24  1  0
 34 30  1  0
 38 32  1  0
 46 44  1  0
M  END
$$$$
