
     RDKit          3D

 46 51  0  0  0  0  0  0  0  0999 V2000
    2.8938  -14.3030   -5.5311 C   0  0  0  0  0  0  0  0  0  0  0  0
    4.1547  -13.6991   -4.9388 C   0  0  0  0  0  0  0  0  0  0  0  0
    4.8655  -12.8079   -5.6404 N   0  0  0  0  0  0  0  0  0  0  0  0
    5.9878  -12.2604   -5.1437 C   0  0  0  0  0  0  0  0  0  0  0  0
    6.4073  -12.6189   -3.9029 C   0  0  0  0  0  0  0  0  0  0  0  0
    5.7025  -13.5521   -3.1144 C   0  0  0  0  0  0  0  0  0  0  0  0
    4.5580  -14.0778   -3.6836 C   0  0  0  0  0  0  0  0  0  0  0  0
    6.7263  -11.2927   -5.9151 N   0  0  0  0  0  0  0  0  0  0  0  0
    7.4474  -11.7438   -7.0602 C   0  0  0  0  0  0  0  0  0  0  0  0
    8.6472  -12.5856   -6.8060 C   0  0  0  0  0  0  0  0  0  0  0  0
    9.3028  -12.8657   -8.1730 C   0  0  0  0  0  0  0  0  0  0  0  0
    8.2532  -13.9480   -6.2705 C   0  0  0  0  0  0  0  0  0  0  0  0
    9.7163  -11.9425   -5.9739 C   0  0  0  0  0  0  0  0  0  0  0  0
    6.7318   -9.9168   -5.5579 C   0  0  0  0  0  0  0  0  0  0  0  0
    7.6542   -9.1878   -5.9728 O   0  0  0  0  0  0  0  0  0  0  0  0
    5.6874   -9.3432   -4.7160 C   0  0  0  0  0  0  0  0  0  0  0  0
    4.4451   -8.9512   -5.1786 C   0  0  0  0  0  0  0  0  0  0  0  0
    3.4748   -8.5223   -4.2811 C   0  0  0  0  0  0  0  0  0  0  0  0
    3.6975   -8.4646   -2.9260 C   0  0  0  0  0  0  0  0  0  0  0  0
    4.9449   -8.8543   -2.4681 C   0  0  0  0  0  0  0  0  0  0  0  0
    5.9013   -9.2792   -3.3533 C   0  0  0  0  0  0  0  0  0  0  0  0
    2.6995   -8.0272   -2.0392 O   0  0  0  0  0  0  0  0  0  0  0  0
    2.9812   -7.2342   -0.9212 C   0  0  0  0  0  0  0  0  0  0  0  0
    4.2458   -8.9122   -6.5788 N   0  0  0  0  0  0  0  0  0  0  0  0
    5.3148   -8.4304   -7.4151 C   0  0  0  0  0  0  0  0  0  0  0  0
    5.5238   -9.1951   -8.6723 C   0  0  0  0  0  0  0  0  0  0  0  0
    4.2294   -9.7576   -9.2374 C   0  0  0  0  0  0  0  0  0  0  0  0
    3.0701   -8.9992   -8.6543 C   0  0  0  0  0  0  0  0  0  0  0  0
    3.0252   -9.3727   -7.1591 C   0  0  0  0  0  0  0  0  0  0  0  0
    4.2613   -9.7332  -10.7316 C   0  0  0  0  0  0  0  0  0  0  0  0
    5.3546   -9.3487  -11.4690 C   0  0  0  0  0  0  0  0  0  0  0  0
    4.9667   -9.4711  -12.7857 C   0  0  0  0  0  0  0  0  0  0  0  0
    3.6577   -9.9241  -12.7949 C   0  0  0  0  0  0  0  0  0  0  0  0
    3.2895  -10.0620  -11.5286 O   0  0  0  0  0  0  0  0  0  0  0  0
    3.0249  -10.1321  -13.9941 C   0  0  0  0  0  0  0  0  0  0  0  0
    3.6454   -9.9050  -15.2359 C   0  0  0  0  0  0  0  0  0  0  0  0
    4.9336   -9.4580  -15.1778 C   0  0  0  0  0  0  0  0  0  0  0  0
    5.6004   -9.2397  -13.9671 C   0  0  0  0  0  0  0  0  0  0  0  0
    2.9103  -10.1349  -16.4602 C   0  0  0  0  0  0  0  0  0  0  0  0
    3.7216  -10.8375  -17.5376 C   0  0  0  0  0  0  0  0  0  0  0  0
    3.0770  -11.0284  -18.8103 C   0  0  0  0  0  0  0  0  0  0  0  0
    2.6516  -10.1146  -19.5211 O   0  0  0  0  0  0  0  0  0  0  0  0
    2.9177  -12.3415  -19.2814 O   0  0  0  0  0  0  0  0  0  0  0  0
    2.0667   -9.0358  -16.9496 C   0  0  0  0  0  0  0  0  0  0  0  0
    0.9918   -8.3236  -16.2770 C   0  0  0  0  0  0  0  0  0  0  0  0
    2.2997   -7.6020  -16.6165 C   0  0  0  0  0  0  0  0  0  0  0  0
  1  2  1  0
  2  3  2  0
  3  4  1  0
  4  5  2  0
  5  6  1  0
  6  7  2  0
  4  8  1  0
  8  9  1  0
  9 10  1  0
 10 11  1  0
 10 12  1  0
 10 13  1  0
  8 14  1  0
 14 15  2  0
 14 16  1  0
 16 17  1  0
 17 18  2  0
 18 19  1  0
 19 20  2  0
 20 21  1  0
 19 22  1  0
 22 23  1  0
 17 24  1  0
 24 25  1  0
 25 26  1  0
 26 27  1  0
 27 28  1  0
 28 29  1  0
 27 30  1  0
 30 31  2  0
 31 32  1  0
 32 33  2  0
 33 34  1  0
 33 35  1  0
 35 36  2  0
 36 37  1  0
 37 38  2  0
 36 39  1  0
 39 40  1  0
 40 41  1  0
 41 42  2  0
 41 43  1  0
 39 44  1  0
 44 45  1  0
 45 46  1  0
  7  2  1  0
 21 16  2  0
 29 24  1  0
 34 30  1  0
 38 32  1  0
 46 44  1  0
M  END
$$$$
