
     RDKit          3D

 46 51  0  0  0  0  0  0  0  0999 V2000
    5.7546  -16.0219  -12.4573 C   0  0  0  0  0  0  0  0  0  0  0  0
    5.3901  -14.8037  -11.6275 C   0  0  0  0  0  0  0  0  0  0  0  0
    6.3201  -13.8852  -11.3395 N   0  0  0  0  0  0  0  0  0  0  0  0
    6.0276  -12.7995  -10.6034 C   0  0  0  0  0  0  0  0  0  0  0  0
    4.7607  -12.6317  -10.1441 C   0  0  0  0  0  0  0  0  0  0  0  0
    3.7367  -13.5634  -10.4135 C   0  0  0  0  0  0  0  0  0  0  0  0
    4.1036  -14.6571  -11.1747 C   0  0  0  0  0  0  0  0  0  0  0  0
    7.0450  -11.8190  -10.3199 N   0  0  0  0  0  0  0  0  0  0  0  0
    7.8918  -12.0252   -9.1906 C   0  0  0  0  0  0  0  0  0  0  0  0
    7.3404  -11.6437   -7.8629 C   0  0  0  0  0  0  0  0  0  0  0  0
    6.0902  -12.5137   -7.6238 C   0  0  0  0  0  0  0  0  0  0  0  0
    6.8314  -10.2158   -7.8742 C   0  0  0  0  0  0  0  0  0  0  0  0
    8.2421  -11.9095   -6.6944 C   0  0  0  0  0  0  0  0  0  0  0  0
    7.2162  -10.6762  -11.1479 C   0  0  0  0  0  0  0  0  0  0  0  0
    8.1455   -9.8830  -10.8995 O   0  0  0  0  0  0  0  0  0  0  0  0
    6.3283  -10.4110  -12.2748 C   0  0  0  0  0  0  0  0  0  0  0  0
    5.2185   -9.5892  -12.2123 C   0  0  0  0  0  0  0  0  0  0  0  0
    4.4993   -9.3065  -13.3672 C   0  0  0  0  0  0  0  0  0  0  0  0
    4.8442   -9.8191  -14.5950 C   0  0  0  0  0  0  0  0  0  0  0  0
    5.9542  -10.6451  -14.6515 C   0  0  0  0  0  0  0  0  0  0  0  0
    6.6647  -10.9224  -13.5126 C   0  0  0  0  0  0  0  0  0  0  0  0
    4.1004   -9.5178  -15.7480 O   0  0  0  0  0  0  0  0  0  0  0  0
    2.7013   -9.4953  -15.7563 C   0  0  0  0  0  0  0  0  0  0  0  0
    4.8007   -9.1424  -10.9365 N   0  0  0  0  0  0  0  0  0  0  0  0
    5.7469   -8.4433  -10.1058 C   0  0  0  0  0  0  0  0  0  0  0  0
    5.1966   -7.2740   -9.3718 C   0  0  0  0  0  0  0  0  0  0  0  0
    3.7405   -7.4628   -8.9773 C   0  0  0  0  0  0  0  0  0  0  0  0
    3.4113   -8.9290   -9.0073 C   0  0  0  0  0  0  0  0  0  0  0  0
    3.4596   -9.3465  -10.4908 C   0  0  0  0  0  0  0  0  0  0  0  0
    3.4744   -6.8233   -7.6528 C   0  0  0  0  0  0  0  0  0  0  0  0
    3.3000   -7.5241   -6.4843 C   0  0  0  0  0  0  0  0  0  0  0  0
    3.0823   -6.5681   -5.5158 C   0  0  0  0  0  0  0  0  0  0  0  0
    3.1335   -5.3292   -6.1332 C   0  0  0  0  0  0  0  0  0  0  0  0
    3.3720   -5.5496   -7.4187 O   0  0  0  0  0  0  0  0  0  0  0  0
    2.9462   -4.1949   -5.3847 C   0  0  0  0  0  0  0  0  0  0  0  0
    2.6999   -4.2242   -4.0001 C   0  0  0  0  0  0  0  0  0  0  0  0
    2.6567   -5.4659   -3.4355 C   0  0  0  0  0  0  0  0  0  0  0  0
    2.8458   -6.6370   -4.1778 C   0  0  0  0  0  0  0  0  0  0  0  0
    2.4998   -2.9865   -3.2787 C   0  0  0  0  0  0  0  0  0  0  0  0
    3.5248   -1.9132   -3.6103 C   0  0  0  0  0  0  0  0  0  0  0  0
    3.8424   -0.9778   -2.5633 C   0  0  0  0  0  0  0  0  0  0  0  0
    4.2407   -1.2964   -1.4403 O   0  0  0  0  0  0  0  0  0  0  0  0
    3.6910    0.3922   -2.8310 O   0  0  0  0  0  0  0  0  0  0  0  0
    2.1645   -3.0914   -1.8519 C   0  0  0  0  0  0  0  0  0  0  0  0
    2.7571   -2.4141   -0.7094 C   0  0  0  0  0  0  0  0  0  0  0  0
    1.3161   -2.1041   -1.1263 C   0  0  0  0  0  0  0  0  0  0  0  0
  1  2  1  0
  2  3  2  0
  3  4  1  0
  4  5  2  0
  5  6  1  0
  6  7  2  0
  4  8  1  0
  8  9  1  0
  9 10  1  0
 10 11  1  0
 10 12  1  0
 10 13  1  0
  8 14  1  0
 14 15  2  0
 14 16  1  0
 16 17  1  0
 17 18  2  0
 18 19  1  0
 19 20  2  0
 20 21  1  0
 19 22  1  0
 22 23  1  0
 17 24  1  0
 24 25  1  0
 25 26  1  0
 26 27  1  0
 27 28  1  0
 28 29  1  0
 27 30  1  0
 30 31  2  0
 31 32  1  0
 32 33  2  0
 33 34  1  0
 33 35  1  0
 35 36  2  0
 36 37  1  0
 37 38  2  0
 36 39  1  0
 39 40  1  0
 40 41  1  0
 41 42  2  0
 41 43  1  0
 39 44  1  0
 44 45  1  0
 45 46  1  0
  7  2  1  0
 21 16  2  0
 29 24  1  0
 34 30  1  0
 38 32  1  0
 46 44  1  0
M  END
$$$$
