
     RDKit          3D

 46 51  0  0  0  0  0  0  0  0999 V2000
    3.1546   -6.0583   -2.6881 C   0  0  0  0  0  0  0  0  0  0  0  0
    4.1965   -6.6934   -3.5917 C   0  0  0  0  0  0  0  0  0  0  0  0
    4.2120   -8.0200   -3.7692 N   0  0  0  0  0  0  0  0  0  0  0  0
    5.1250   -8.6101   -4.5592 C   0  0  0  0  0  0  0  0  0  0  0  0
    6.0498   -7.8425   -5.1914 C   0  0  0  0  0  0  0  0  0  0  0  0
    6.0858   -6.4402   -5.0451 C   0  0  0  0  0  0  0  0  0  0  0  0
    5.1204   -5.8966   -4.2188 C   0  0  0  0  0  0  0  0  0  0  0  0
    5.1101  -10.0394   -4.7436 N   0  0  0  0  0  0  0  0  0  0  0  0
    3.9994  -10.7782   -4.2385 C   0  0  0  0  0  0  0  0  0  0  0  0
    2.8758  -11.0247   -5.1816 C   0  0  0  0  0  0  0  0  0  0  0  0
    2.2076   -9.6629   -5.4572 C   0  0  0  0  0  0  0  0  0  0  0  0
    1.7967  -11.8701   -4.5343 C   0  0  0  0  0  0  0  0  0  0  0  0
    3.2733  -11.5547   -6.5270 C   0  0  0  0  0  0  0  0  0  0  0  0
    6.1672  -10.7044   -5.4227 C   0  0  0  0  0  0  0  0  0  0  0  0
    6.0036  -11.8855   -5.7868 O   0  0  0  0  0  0  0  0  0  0  0  0
    7.4356  -10.0379   -5.6975 C   0  0  0  0  0  0  0  0  0  0  0  0
    7.7068   -9.3315   -6.8544 C   0  0  0  0  0  0  0  0  0  0  0  0
    8.9026   -8.6342   -6.9767 C   0  0  0  0  0  0  0  0  0  0  0  0
    9.8508   -8.6160   -5.9818 C   0  0  0  0  0  0  0  0  0  0  0  0
    9.5761   -9.3285   -4.8267 C   0  0  0  0  0  0  0  0  0  0  0  0
    8.3958  -10.0148   -4.7055 C   0  0  0  0  0  0  0  0  0  0  0  0
   11.0521   -7.9028   -6.1300 O   0  0  0  0  0  0  0  0  0  0  0  0
   12.2842   -8.5367   -6.3259 C   0  0  0  0  0  0  0  0  0  0  0  0
    6.7806   -9.4307   -7.9194 N   0  0  0  0  0  0  0  0  0  0  0  0
    6.7418   -8.3776   -8.9010 C   0  0  0  0  0  0  0  0  0  0  0  0
    6.5837   -8.8330  -10.3069 C   0  0  0  0  0  0  0  0  0  0  0  0
    5.7426  -10.0943  -10.4225 C   0  0  0  0  0  0  0  0  0  0  0  0
    4.9227  -10.2524   -9.1727 C   0  0  0  0  0  0  0  0  0  0  0  0
    5.9240  -10.5663   -8.0430 C   0  0  0  0  0  0  0  0  0  0  0  0
    4.9196  -10.0569  -11.6696 C   0  0  0  0  0  0  0  0  0  0  0  0
    3.5558  -10.2188  -11.6934 C   0  0  0  0  0  0  0  0  0  0  0  0
    3.2002  -10.1160  -13.0209 C   0  0  0  0  0  0  0  0  0  0  0  0
    4.3587   -9.8961  -13.7475 C   0  0  0  0  0  0  0  0  0  0  0  0
    5.3594   -9.8713  -12.8779 O   0  0  0  0  0  0  0  0  0  0  0  0
    4.2834   -9.7558  -15.1100 C   0  0  0  0  0  0  0  0  0  0  0  0
    3.0712   -9.8256  -15.8202 C   0  0  0  0  0  0  0  0  0  0  0  0
    1.9569  -10.0451  -15.0635 C   0  0  0  0  0  0  0  0  0  0  0  0
    2.0084  -10.1901  -13.6727 C   0  0  0  0  0  0  0  0  0  0  0  0
    3.0712   -9.6805  -17.2594 C   0  0  0  0  0  0  0  0  0  0  0  0
    1.9007  -10.3697  -17.9432 C   0  0  0  0  0  0  0  0  0  0  0  0
    1.7932  -10.1983  -19.3683 C   0  0  0  0  0  0  0  0  0  0  0  0
    2.5228   -9.4649  -20.0400 O   0  0  0  0  0  0  0  0  0  0  0  0
    0.7918  -10.9110  -20.0472 O   0  0  0  0  0  0  0  0  0  0  0  0
    4.3601   -9.8388  -17.9470 C   0  0  0  0  0  0  0  0  0  0  0  0
    5.0221   -8.9503  -18.8891 C   0  0  0  0  0  0  0  0  0  0  0  0
    5.6227   -9.1854  -17.4996 C   0  0  0  0  0  0  0  0  0  0  0  0
  1  2  1  0
  2  3  2  0
  3  4  1  0
  4  5  2  0
  5  6  1  0
  6  7  2  0
  4  8  1  0
  8  9  1  0
  9 10  1  0
 10 11  1  0
 10 12  1  0
 10 13  1  0
  8 14  1  0
 14 15  2  0
 14 16  1  0
 16 17  1  0
 17 18  2  0
 18 19  1  0
 19 20  2  0
 20 21  1  0
 19 22  1  0
 22 23  1  0
 17 24  1  0
 24 25  1  0
 25 26  1  0
 26 27  1  0
 27 28  1  0
 28 29  1  0
 27 30  1  0
 30 31  2  0
 31 32  1  0
 32 33  2  0
 33 34  1  0
 33 35  1  0
 35 36  2  0
 36 37  1  0
 37 38  2  0
 36 39  1  0
 39 40  1  0
 40 41  1  0
 41 42  2  0
 41 43  1  0
 39 44  1  0
 44 45  1  0
 45 46  1  0
  7  2  1  0
 21 16  2  0
 29 24  1  0
 34 30  1  0
 38 32  1  0
 46 44  1  0
M  END
$$$$
