
     RDKit          3D

 46 51  0  0  0  0  0  0  0  0999 V2000
    8.1910   -4.9938   -5.4229 C   0  0  0  0  0  0  0  0  0  0  0  0
    7.3429   -5.8257   -6.3685 C   0  0  0  0  0  0  0  0  0  0  0  0
    7.5622   -7.1409   -6.4857 N   0  0  0  0  0  0  0  0  0  0  0  0
    6.8306   -7.9013   -7.3179 C   0  0  0  0  0  0  0  0  0  0  0  0
    5.8474   -7.3216   -8.0536 C   0  0  0  0  0  0  0  0  0  0  0  0
    5.5674   -5.9415   -7.9747 C   0  0  0  0  0  0  0  0  0  0  0  0
    6.3561   -5.2167   -7.1013 C   0  0  0  0  0  0  0  0  0  0  0  0
    7.0788   -9.3177   -7.4142 N   0  0  0  0  0  0  0  0  0  0  0  0
    7.7145   -9.8179   -8.5891 C   0  0  0  0  0  0  0  0  0  0  0  0
    9.1707   -9.5481   -8.7278 C   0  0  0  0  0  0  0  0  0  0  0  0
    9.7688  -10.7016   -9.5577 C   0  0  0  0  0  0  0  0  0  0  0  0
    9.8693   -9.6247   -7.3846 C   0  0  0  0  0  0  0  0  0  0  0  0
    9.5219   -8.2951   -9.4732 C   0  0  0  0  0  0  0  0  0  0  0  0
    6.7133  -10.2016   -6.3625 C   0  0  0  0  0  0  0  0  0  0  0  0
    7.2513  -11.3247   -6.3020 O   0  0  0  0  0  0  0  0  0  0  0  0
    5.7232   -9.8252   -5.3593 C   0  0  0  0  0  0  0  0  0  0  0  0
    4.3755  -10.1192   -5.4499 C   0  0  0  0  0  0  0  0  0  0  0  0
    3.5279   -9.8202   -4.3901 C   0  0  0  0  0  0  0  0  0  0  0  0
    3.9749   -9.2299   -3.2321 C   0  0  0  0  0  0  0  0  0  0  0  0
    5.3249   -8.9336   -3.1479 C   0  0  0  0  0  0  0  0  0  0  0  0
    6.1612   -9.2303   -4.1926 C   0  0  0  0  0  0  0  0  0  0  0  0
    3.0973   -8.9380   -2.1746 O   0  0  0  0  0  0  0  0  0  0  0  0
    2.9877   -7.6582   -1.6194 C   0  0  0  0  0  0  0  0  0  0  0  0
    3.8943  -10.6324   -6.6775 N   0  0  0  0  0  0  0  0  0  0  0  0
    3.4208   -9.7071   -7.6744 C   0  0  0  0  0  0  0  0  0  0  0  0
    3.8161  -10.0293   -9.0705 C   0  0  0  0  0  0  0  0  0  0  0  0
    3.9149  -11.5257   -9.3204 C   0  0  0  0  0  0  0  0  0  0  0  0
    3.1368  -12.2518   -8.2591 C   0  0  0  0  0  0  0  0  0  0  0  0
    3.9084  -12.0355   -6.9418 C   0  0  0  0  0  0  0  0  0  0  0  0
    3.4675  -11.8507  -10.7090 C   0  0  0  0  0  0  0  0  0  0  0  0
    2.8328  -13.0183  -11.0566 C   0  0  0  0  0  0  0  0  0  0  0  0
    2.5982  -12.9157  -12.4107 C   0  0  0  0  0  0  0  0  0  0  0  0
    3.0978  -11.6936  -12.8296 C   0  0  0  0  0  0  0  0  0  0  0  0
    3.6085  -11.0998  -11.7597 O   0  0  0  0  0  0  0  0  0  0  0  0
    2.9916  -11.3389  -14.1505 C   0  0  0  0  0  0  0  0  0  0  0  0
    2.3927  -12.1653  -15.1185 C   0  0  0  0  0  0  0  0  0  0  0  0
    1.9165  -13.3594  -14.6606 C   0  0  0  0  0  0  0  0  0  0  0  0
    2.0121  -13.7427  -13.3181 C   0  0  0  0  0  0  0  0  0  0  0  0
    2.3279  -11.7292  -16.4961 C   0  0  0  0  0  0  0  0  0  0  0  0
    2.8871  -12.7407  -17.4845 C   0  0  0  0  0  0  0  0  0  0  0  0
    2.4597  -12.6111  -18.8528 C   0  0  0  0  0  0  0  0  0  0  0  0
    2.7710  -11.6769  -19.5956 O   0  0  0  0  0  0  0  0  0  0  0  0
    1.6317  -13.6122  -19.3855 O   0  0  0  0  0  0  0  0  0  0  0  0
    2.6982  -10.3345  -16.7737 C   0  0  0  0  0  0  0  0  0  0  0  0
    1.8944   -9.2555  -17.3257 C   0  0  0  0  0  0  0  0  0  0  0  0
    2.3695   -9.1954  -15.8706 C   0  0  0  0  0  0  0  0  0  0  0  0
  1  2  1  0
  2  3  2  0
  3  4  1  0
  4  5  2  0
  5  6  1  0
  6  7  2  0
  4  8  1  0
  8  9  1  0
  9 10  1  0
 10 11  1  0
 10 12  1  0
 10 13  1  0
  8 14  1  0
 14 15  2  0
 14 16  1  0
 16 17  1  0
 17 18  2  0
 18 19  1  0
 19 20  2  0
 20 21  1  0
 19 22  1  0
 22 23  1  0
 17 24  1  0
 24 25  1  0
 25 26  1  0
 26 27  1  0
 27 28  1  0
 28 29  1  0
 27 30  1  0
 30 31  2  0
 31 32  1  0
 32 33  2  0
 33 34  1  0
 33 35  1  0
 35 36  2  0
 36 37  1  0
 37 38  2  0
 36 39  1  0
 39 40  1  0
 40 41  1  0
 41 42  2  0
 41 43  1  0
 39 44  1  0
 44 45  1  0
 45 46  1  0
  7  2  1  0
 21 16  2  0
 29 24  1  0
 34 30  1  0
 38 32  1  0
 46 44  1  0
M  END
$$$$
