
     RDKit          3D

 46 51  0  0  0  0  0  0  0  0999 V2000
    2.4466   -7.8354   -2.1683 C   0  0  0  0  0  0  0  0  0  0  0  0
    2.6479   -8.4278   -3.5518 C   0  0  0  0  0  0  0  0  0  0  0  0
    3.6215   -9.3215   -3.7640 N   0  0  0  0  0  0  0  0  0  0  0  0
    3.8260   -9.8590   -4.9786 C   0  0  0  0  0  0  0  0  0  0  0  0
    3.0260   -9.4876   -6.0110 C   0  0  0  0  0  0  0  0  0  0  0  0
    1.9834   -8.5511   -5.8516 C   0  0  0  0  0  0  0  0  0  0  0  0
    1.8270   -8.0361   -4.5786 C   0  0  0  0  0  0  0  0  0  0  0  0
    4.8728  -10.8297   -5.1760 N   0  0  0  0  0  0  0  0  0  0  0  0
    4.5534  -12.2124   -5.0320 C   0  0  0  0  0  0  0  0  0  0  0  0
    4.0295  -12.9068   -6.2387 C   0  0  0  0  0  0  0  0  0  0  0  0
    5.1660  -12.9262   -7.2802 C   0  0  0  0  0  0  0  0  0  0  0  0
    2.9148  -12.1086   -6.8856 C   0  0  0  0  0  0  0  0  0  0  0  0
    3.6478  -14.3429   -6.0363 C   0  0  0  0  0  0  0  0  0  0  0  0
    6.1928  -10.4284   -5.5185 C   0  0  0  0  0  0  0  0  0  0  0  0
    6.9350  -11.2348   -6.1130 O   0  0  0  0  0  0  0  0  0  0  0  0
    6.6966   -9.1000   -5.1866 C   0  0  0  0  0  0  0  0  0  0  0  0
    6.7253   -8.0374   -6.0703 C   0  0  0  0  0  0  0  0  0  0  0  0
    7.1167   -6.7792   -5.6291 C   0  0  0  0  0  0  0  0  0  0  0  0
    7.4882   -6.5364   -4.3282 C   0  0  0  0  0  0  0  0  0  0  0  0
    7.4617   -7.6050   -3.4480 C   0  0  0  0  0  0  0  0  0  0  0  0
    7.0738   -8.8456   -3.8829 C   0  0  0  0  0  0  0  0  0  0  0  0
    7.8798   -5.2547   -3.9070 O   0  0  0  0  0  0  0  0  0  0  0  0
    8.6713   -4.4125   -4.6961 C   0  0  0  0  0  0  0  0  0  0  0  0
    6.4423   -8.3041   -7.4307 N   0  0  0  0  0  0  0  0  0  0  0  0
    6.8947   -9.5478   -7.9990 C   0  0  0  0  0  0  0  0  0  0  0  0
    5.9258  -10.2135   -8.9084 C   0  0  0  0  0  0  0  0  0  0  0  0
    5.0704   -9.2214   -9.6801 C   0  0  0  0  0  0  0  0  0  0  0  0
    5.7507   -7.8812   -9.6758 C   0  0  0  0  0  0  0  0  0  0  0  0
    5.6935   -7.3788   -8.2192 C   0  0  0  0  0  0  0  0  0  0  0  0
    4.7885   -9.7378  -11.0542 C   0  0  0  0  0  0  0  0  0  0  0  0
    5.0087  -11.0359  -11.4456 C   0  0  0  0  0  0  0  0  0  0  0  0
    4.6213  -11.0881  -12.7671 C   0  0  0  0  0  0  0  0  0  0  0  0
    4.1825   -9.8236  -13.1238 C   0  0  0  0  0  0  0  0  0  0  0  0
    4.3084   -9.0558  -12.0502 O   0  0  0  0  0  0  0  0  0  0  0  0
    3.7367   -9.6005  -14.4018 C   0  0  0  0  0  0  0  0  0  0  0  0
    3.7019  -10.6049  -15.3860 C   0  0  0  0  0  0  0  0  0  0  0  0
    4.1450  -11.8334  -14.9900 C   0  0  0  0  0  0  0  0  0  0  0  0
    4.6032  -12.0856  -13.6920 C   0  0  0  0  0  0  0  0  0  0  0  0
    3.2300  -10.2918  -16.7170 C   0  0  0  0  0  0  0  0  0  0  0  0
    1.9646   -9.4486  -16.7342 C   0  0  0  0  0  0  0  0  0  0  0  0
    1.3533   -9.2272  -18.0185 C   0  0  0  0  0  0  0  0  0  0  0  0
    1.7306   -9.7495  -19.0702 O   0  0  0  0  0  0  0  0  0  0  0  0
    0.2522   -8.3586  -18.0867 O   0  0  0  0  0  0  0  0  0  0  0  0
    3.2548  -11.3770  -17.7073 C   0  0  0  0  0  0  0  0  0  0  0  0
    4.2226  -11.6496  -18.7581 C   0  0  0  0  0  0  0  0  0  0  0  0
    4.0873  -12.6054  -17.5686 C   0  0  0  0  0  0  0  0  0  0  0  0
  1  2  1  0
  2  3  2  0
  3  4  1  0
  4  5  2  0
  5  6  1  0
  6  7  2  0
  4  8  1  0
  8  9  1  0
  9 10  1  0
 10 11  1  0
 10 12  1  0
 10 13  1  0
  8 14  1  0
 14 15  2  0
 14 16  1  0
 16 17  1  0
 17 18  2  0
 18 19  1  0
 19 20  2  0
 20 21  1  0
 19 22  1  0
 22 23  1  0
 17 24  1  0
 24 25  1  0
 25 26  1  0
 26 27  1  0
 27 28  1  0
 28 29  1  0
 27 30  1  0
 30 31  2  0
 31 32  1  0
 32 33  2  0
 33 34  1  0
 33 35  1  0
 35 36  2  0
 36 37  1  0
 37 38  2  0
 36 39  1  0
 39 40  1  0
 40 41  1  0
 41 42  2  0
 41 43  1  0
 39 44  1  0
 44 45  1  0
 45 46  1  0
  7  2  1  0
 21 16  2  0
 29 24  1  0
 34 30  1  0
 38 32  1  0
 46 44  1  0
M  END
$$$$
