
     RDKit          3D

 46 51  0  0  0  0  0  0  0  0999 V2000
   -3.1641   -1.8142    7.6004 C   0  0  0  0  0  0  0  0  0  0  0  0
   -3.1803   -0.6590    6.6151 C   0  0  0  0  0  0  0  0  0  0  0  0
   -2.5918    0.5009    6.9311 N   0  0  0  0  0  0  0  0  0  0  0  0
   -2.5943    1.5418    6.0811 C   0  0  0  0  0  0  0  0  0  0  0  0
   -3.2061    1.4117    4.8757 C   0  0  0  0  0  0  0  0  0  0  0  0
   -3.8433    0.2159    4.4842 C   0  0  0  0  0  0  0  0  0  0  0  0
   -3.8053   -0.8150    5.4040 C   0  0  0  0  0  0  0  0  0  0  0  0
   -1.9409    2.7748    6.4412 N   0  0  0  0  0  0  0  0  0  0  0  0
   -2.3064    3.4044    7.6679 C   0  0  0  0  0  0  0  0  0  0  0  0
   -3.4684    4.3320    7.6231 C   0  0  0  0  0  0  0  0  0  0  0  0
   -3.4909    5.0961    8.9619 C   0  0  0  0  0  0  0  0  0  0  0  0
   -4.7759    3.5657    7.5838 C   0  0  0  0  0  0  0  0  0  0  0  0
   -3.4042    5.3884    6.5606 C   0  0  0  0  0  0  0  0  0  0  0  0
   -0.9454    3.3509    5.6058 C   0  0  0  0  0  0  0  0  0  0  0  0
   -0.2399    4.2756    6.0550 O   0  0  0  0  0  0  0  0  0  0  0  0
   -0.7356    2.8876    4.2384 C   0  0  0  0  0  0  0  0  0  0  0  0
    0.0486    1.8012    3.8983 C   0  0  0  0  0  0  0  0  0  0  0  0
    0.0960    1.3661    2.5794 C   0  0  0  0  0  0  0  0  0  0  0  0
   -0.6124    1.9802    1.5743 C   0  0  0  0  0  0  0  0  0  0  0  0
   -1.3931    3.0705    1.9194 C   0  0  0  0  0  0  0  0  0  0  0  0
   -1.4413    3.4984    3.2207 C   0  0  0  0  0  0  0  0  0  0  0  0
   -0.5475    1.5206    0.2484 O   0  0  0  0  0  0  0  0  0  0  0  0
   -0.5327    2.3888   -0.8490 C   0  0  0  0  0  0  0  0  0  0  0  0
    0.8573    1.2302    4.9093 N   0  0  0  0  0  0  0  0  0  0  0  0
    0.5521    1.5245    6.2857 C   0  0  0  0  0  0  0  0  0  0  0  0
    0.6633    0.3704    7.2156 C   0  0  0  0  0  0  0  0  0  0  0  0
    1.7536   -0.6074    6.8075 C   0  0  0  0  0  0  0  0  0  0  0  0
    2.7132    0.0874    5.8825 C   0  0  0  0  0  0  0  0  0  0  0  0
    1.9330    0.3515    4.5790 C   0  0  0  0  0  0  0  0  0  0  0  0
    2.4122   -1.1856    8.0182 C   0  0  0  0  0  0  0  0  0  0  0  0
    3.7681   -1.3690    8.1396 C   0  0  0  0  0  0  0  0  0  0  0  0
    3.9505   -1.9177    9.3906 C   0  0  0  0  0  0  0  0  0  0  0  0
    2.7019   -2.0447    9.9768 C   0  0  0  0  0  0  0  0  0  0  0  0
    1.8175   -1.5875    9.1011 O   0  0  0  0  0  0  0  0  0  0  0  0
    2.6005   -2.5710   11.2396 C   0  0  0  0  0  0  0  0  0  0  0  0
    3.7165   -2.9966   11.9826 C   0  0  0  0  0  0  0  0  0  0  0  0
    4.9249   -2.8540   11.3647 C   0  0  0  0  0  0  0  0  0  0  0  0
    5.0537   -2.3189   10.0781 C   0  0  0  0  0  0  0  0  0  0  0  0
    3.5307   -3.5535   13.3046 C   0  0  0  0  0  0  0  0  0  0  0  0
    2.9854   -2.5576   14.3163 C   0  0  0  0  0  0  0  0  0  0  0  0
    2.9226   -2.9967   15.6857 C   0  0  0  0  0  0  0  0  0  0  0  0
    3.0672   -4.1660   16.0508 O   0  0  0  0  0  0  0  0  0  0  0  0
    2.6802   -2.0345   16.6791 O   0  0  0  0  0  0  0  0  0  0  0  0
    4.5961   -4.4253   13.8184 C   0  0  0  0  0  0  0  0  0  0  0  0
    5.9594   -4.5999   13.3429 C   0  0  0  0  0  0  0  0  0  0  0  0
    5.6960   -3.9530   14.7062 C   0  0  0  0  0  0  0  0  0  0  0  0
  1  2  1  0
  2  3  2  0
  3  4  1  0
  4  5  2  0
  5  6  1  0
  6  7  2  0
  4  8  1  0
  8  9  1  0
  9 10  1  0
 10 11  1  0
 10 12  1  0
 10 13  1  0
  8 14  1  0
 14 15  2  0
 14 16  1  0
 16 17  1  0
 17 18  2  0
 18 19  1  0
 19 20  2  0
 20 21  1  0
 19 22  1  0
 22 23  1  0
 17 24  1  0
 24 25  1  0
 25 26  1  0
 26 27  1  0
 27 28  1  0
 28 29  1  0
 27 30  1  0
 30 31  2  0
 31 32  1  0
 32 33  2  0
 33 34  1  0
 33 35  1  0
 35 36  2  0
 36 37  1  0
 37 38  2  0
 36 39  1  0
 39 40  1  0
 40 41  1  0
 41 42  2  0
 41 43  1  0
 39 44  1  0
 44 45  1  0
 45 46  1  0
  7  2  1  0
 21 16  2  0
 29 24  1  0
 34 30  1  0
 38 32  1  0
 46 44  1  0
M  END
$$$$
