
     RDKit          3D

 46 51  0  0  0  0  0  0  0  0999 V2000
    8.6830  -11.5734   -2.6021 C   0  0  0  0  0  0  0  0  0  0  0  0
    8.1249  -10.7732   -3.7656 C   0  0  0  0  0  0  0  0  0  0  0  0
    6.8698  -10.3102   -3.7209 N   0  0  0  0  0  0  0  0  0  0  0  0
    6.3477   -9.6032   -4.7375 C   0  0  0  0  0  0  0  0  0  0  0  0
    7.1117   -9.3528   -5.8319 C   0  0  0  0  0  0  0  0  0  0  0  0
    8.4406   -9.8130   -5.9391 C   0  0  0  0  0  0  0  0  0  0  0  0
    8.9163  -10.5340   -4.8602 C   0  0  0  0  0  0  0  0  0  0  0  0
    4.9979   -9.1046   -4.6573 N   0  0  0  0  0  0  0  0  0  0  0  0
    4.7997   -7.7283   -4.3393 C   0  0  0  0  0  0  0  0  0  0  0  0
    4.3173   -7.4220   -2.9660 C   0  0  0  0  0  0  0  0  0  0  0  0
    2.9055   -8.0275   -2.8354 C   0  0  0  0  0  0  0  0  0  0  0  0
    4.1261   -5.9302   -2.7757 C   0  0  0  0  0  0  0  0  0  0  0  0
    5.1186   -8.0320   -1.8547 C   0  0  0  0  0  0  0  0  0  0  0  0
    3.8844   -9.9543   -4.8998 C   0  0  0  0  0  0  0  0  0  0  0  0
    2.7739   -9.4417   -5.1417 O   0  0  0  0  0  0  0  0  0  0  0  0
    4.0124  -11.4073   -4.8677 C   0  0  0  0  0  0  0  0  0  0  0  0
    4.4179  -12.1750   -5.9433 C   0  0  0  0  0  0  0  0  0  0  0  0
    4.6202  -13.5405   -5.7834 C   0  0  0  0  0  0  0  0  0  0  0  0
    4.4287  -14.1786   -4.5812 C   0  0  0  0  0  0  0  0  0  0  0  0
    4.0184  -13.4059   -3.5079 C   0  0  0  0  0  0  0  0  0  0  0  0
    3.8207  -12.0587   -3.6653 C   0  0  0  0  0  0  0  0  0  0  0  0
    4.6403  -15.5608   -4.4456 O   0  0  0  0  0  0  0  0  0  0  0  0
    3.6834  -16.5092   -4.8237 C   0  0  0  0  0  0  0  0  0  0  0  0
    4.5175  -11.5415   -7.2046 N   0  0  0  0  0  0  0  0  0  0  0  0
    5.2883  -12.1812   -8.2395 C   0  0  0  0  0  0  0  0  0  0  0  0
    4.6875  -12.1248   -9.5977 C   0  0  0  0  0  0  0  0  0  0  0  0
    3.8941  -10.8496   -9.8344 C   0  0  0  0  0  0  0  0  0  0  0  0
    4.3275   -9.8112   -8.8379 C   0  0  0  0  0  0  0  0  0  0  0  0
    3.8410  -10.3109   -7.4627 C   0  0  0  0  0  0  0  0  0  0  0  0
    4.0384  -10.4044  -11.2539 C   0  0  0  0  0  0  0  0  0  0  0  0
    5.1384   -9.7416  -11.7415 C   0  0  0  0  0  0  0  0  0  0  0  0
    4.8685   -9.5205  -13.0748 C   0  0  0  0  0  0  0  0  0  0  0  0
    3.6196  -10.0566  -13.3423 C   0  0  0  0  0  0  0  0  0  0  0  0
    3.1715  -10.5735  -12.2065 O   0  0  0  0  0  0  0  0  0  0  0  0
    3.1068   -9.9700  -14.6118 C   0  0  0  0  0  0  0  0  0  0  0  0
    3.7937   -9.3543  -15.6737 C   0  0  0  0  0  0  0  0  0  0  0  0
    5.0188   -8.8393  -15.3632 C   0  0  0  0  0  0  0  0  0  0  0  0
    5.5632   -8.9165  -14.0764 C   0  0  0  0  0  0  0  0  0  0  0  0
    3.1838   -9.2899  -16.9837 C   0  0  0  0  0  0  0  0  0  0  0  0
    4.1841   -9.3516  -18.1274 C   0  0  0  0  0  0  0  0  0  0  0  0
    4.4838  -10.6574  -18.6538 C   0  0  0  0  0  0  0  0  0  0  0  0
    3.7729  -11.6530  -18.4967 O   0  0  0  0  0  0  0  0  0  0  0  0
    5.6640  -10.8165  -19.3976 O   0  0  0  0  0  0  0  0  0  0  0  0
    2.1021   -8.3129  -17.1700 C   0  0  0  0  0  0  0  0  0  0  0  0
    0.8866   -8.4172  -17.9617 C   0  0  0  0  0  0  0  0  0  0  0  0
    0.8076   -8.3607  -16.4329 C   0  0  0  0  0  0  0  0  0  0  0  0
  1  2  1  0
  2  3  2  0
  3  4  1  0
  4  5  2  0
  5  6  1  0
  6  7  2  0
  4  8  1  0
  8  9  1  0
  9 10  1  0
 10 11  1  0
 10 12  1  0
 10 13  1  0
  8 14  1  0
 14 15  2  0
 14 16  1  0
 16 17  1  0
 17 18  2  0
 18 19  1  0
 19 20  2  0
 20 21  1  0
 19 22  1  0
 22 23  1  0
 17 24  1  0
 24 25  1  0
 25 26  1  0
 26 27  1  0
 27 28  1  0
 28 29  1  0
 27 30  1  0
 30 31  2  0
 31 32  1  0
 32 33  2  0
 33 34  1  0
 33 35  1  0
 35 36  2  0
 36 37  1  0
 37 38  2  0
 36 39  1  0
 39 40  1  0
 40 41  1  0
 41 42  2  0
 41 43  1  0
 39 44  1  0
 44 45  1  0
 45 46  1  0
  7  2  1  0
 21 16  2  0
 29 24  1  0
 34 30  1  0
 38 32  1  0
 46 44  1  0
M  END
$$$$
