
     RDKit          3D

 46 51  0  0  0  0  0  0  0  0999 V2000
    1.0356   -8.0298   -5.5824 C   0  0  0  0  0  0  0  0  0  0  0  0
    1.9676   -8.2975   -4.4140 C   0  0  0  0  0  0  0  0  0  0  0  0
    3.2887   -8.3767   -4.6139 N   0  0  0  0  0  0  0  0  0  0  0  0
    4.1371   -8.6171   -3.5998 C   0  0  0  0  0  0  0  0  0  0  0  0
    3.6419   -8.7815   -2.3461 C   0  0  0  0  0  0  0  0  0  0  0  0
    2.2605   -8.7095   -2.0709 C   0  0  0  0  0  0  0  0  0  0  0  0
    1.4429   -8.4605   -3.1571 C   0  0  0  0  0  0  0  0  0  0  0  0
    5.5564   -8.6834   -3.8409 N   0  0  0  0  0  0  0  0  0  0  0  0
    6.3189   -7.4817   -3.7447 C   0  0  0  0  0  0  0  0  0  0  0  0
    5.5593   -6.2033   -3.7787 C   0  0  0  0  0  0  0  0  0  0  0  0
    4.7000   -6.1518   -2.4996 C   0  0  0  0  0  0  0  0  0  0  0  0
    4.5649   -6.1908   -4.9230 C   0  0  0  0  0  0  0  0  0  0  0  0
    6.3966   -4.9595   -3.7484 C   0  0  0  0  0  0  0  0  0  0  0  0
    6.1922   -9.9153   -4.1556 C   0  0  0  0  0  0  0  0  0  0  0  0
    7.3823   -9.9041   -4.5271 O   0  0  0  0  0  0  0  0  0  0  0  0
    5.4831  -11.1865   -4.0575 C   0  0  0  0  0  0  0  0  0  0  0  0
    5.0824  -11.9381   -5.1463 C   0  0  0  0  0  0  0  0  0  0  0  0
    4.5146  -13.1915   -4.9523 C   0  0  0  0  0  0  0  0  0  0  0  0
    4.3250  -13.7298   -3.7019 C   0  0  0  0  0  0  0  0  0  0  0  0
    4.7242  -12.9712   -2.6144 C   0  0  0  0  0  0  0  0  0  0  0  0
    5.2859  -11.7357   -2.8060 C   0  0  0  0  0  0  0  0  0  0  0  0
    3.7487  -14.9998   -3.5326 O   0  0  0  0  0  0  0  0  0  0  0  0
    3.8767  -15.7321   -2.3470 C   0  0  0  0  0  0  0  0  0  0  0  0
    5.1818  -11.3465   -6.4277 N   0  0  0  0  0  0  0  0  0  0  0  0
    5.6777  -12.1439   -7.5197 C   0  0  0  0  0  0  0  0  0  0  0  0
    4.9611  -11.9610   -8.8089 C   0  0  0  0  0  0  0  0  0  0  0  0
    4.4452  -10.5432   -8.9959 C   0  0  0  0  0  0  0  0  0  0  0  0
    5.2001   -9.6225   -8.0785 C   0  0  0  0  0  0  0  0  0  0  0  0
    4.7671   -9.9979   -6.6471 C   0  0  0  0  0  0  0  0  0  0  0  0
    4.5297  -10.1455  -10.4342 C   0  0  0  0  0  0  0  0  0  0  0  0
    5.6221   -9.5318  -10.9972 C   0  0  0  0  0  0  0  0  0  0  0  0
    5.2909   -9.3428  -12.3216 C   0  0  0  0  0  0  0  0  0  0  0  0
    4.0149   -9.8481  -12.5090 C   0  0  0  0  0  0  0  0  0  0  0  0
    3.6106  -10.3166  -11.3363 O   0  0  0  0  0  0  0  0  0  0  0  0
    3.4406   -9.7842  -13.7532 C   0  0  0  0  0  0  0  0  0  0  0  0
    4.0899   -9.2221  -14.8672 C   0  0  0  0  0  0  0  0  0  0  0  0
    5.3437   -8.7359  -14.6350 C   0  0  0  0  0  0  0  0  0  0  0  0
    5.9508   -8.7909  -13.3754 C   0  0  0  0  0  0  0  0  0  0  0  0
    3.4159   -9.1785  -16.1464 C   0  0  0  0  0  0  0  0  0  0  0  0
    4.3506   -9.3370  -17.3354 C   0  0  0  0  0  0  0  0  0  0  0  0
    4.3206  -10.6049  -18.0162 C   0  0  0  0  0  0  0  0  0  0  0  0
    3.5585  -11.5319  -17.7314 O   0  0  0  0  0  0  0  0  0  0  0  0
    5.2170  -10.8078  -19.0778 O   0  0  0  0  0  0  0  0  0  0  0  0
    2.3754   -8.1554  -16.3190 C   0  0  0  0  0  0  0  0  0  0  0  0
    0.9656   -8.3136  -16.6392 C   0  0  0  0  0  0  0  0  0  0  0  0
    1.3890   -7.7916  -15.2627 C   0  0  0  0  0  0  0  0  0  0  0  0
  1  2  1  0
  2  3  2  0
  3  4  1  0
  4  5  2  0
  5  6  1  0
  6  7  2  0
  4  8  1  0
  8  9  1  0
  9 10  1  0
 10 11  1  0
 10 12  1  0
 10 13  1  0
  8 14  1  0
 14 15  2  0
 14 16  1  0
 16 17  1  0
 17 18  2  0
 18 19  1  0
 19 20  2  0
 20 21  1  0
 19 22  1  0
 22 23  1  0
 17 24  1  0
 24 25  1  0
 25 26  1  0
 26 27  1  0
 27 28  1  0
 28 29  1  0
 27 30  1  0
 30 31  2  0
 31 32  1  0
 32 33  2  0
 33 34  1  0
 33 35  1  0
 35 36  2  0
 36 37  1  0
 37 38  2  0
 36 39  1  0
 39 40  1  0
 40 41  1  0
 41 42  2  0
 41 43  1  0
 39 44  1  0
 44 45  1  0
 45 46  1  0
  7  2  1  0
 21 16  2  0
 29 24  1  0
 34 30  1  0
 38 32  1  0
 46 44  1  0
M  END
$$$$
