
     RDKit          3D

 24 27  0  0  0  0  0  0  0  0999 V2000
   55.7646   44.1472  101.6674 C   0  0  0  0  0  0  0  0  0  0  0  0
   56.8823   45.1352  101.6814 C   0  0  0  0  0  0  0  0  0  0  0  0
   56.9662   45.8018  100.4134 N   0  0  0  0  0  0  0  0  0  0  0  0
   56.0793   46.7580   99.9466 C   0  0  0  0  0  0  0  0  0  0  0  0
   55.2984   47.2888  100.8383 O   0  0  0  0  0  0  0  0  0  0  0  0
   55.8750   47.2815   98.6011 C   0  0  1  0  0  0  0  0  0  0  0  0
   55.1698   46.3999   97.6424 C   0  0  0  0  0  0  0  0  0  0  0  0
   55.1938   46.9912   96.3069 N   0  0  0  0  0  4  0  0  0  0  0  0
   56.5499   47.0465   95.8696 C   0  0  0  0  0  0  0  0  0  0  0  0
   54.4926   48.2449   96.2609 C   0  0  1  0  0  0  0  0  0  0  0  0
   54.5424   48.9775   97.5484 C   0  0  0  0  0  0  0  0  0  0  0  0
   55.1465   48.5953   98.6324 C   0  0  0  0  0  0  0  0  0  0  0  0
   53.8170   50.2551   97.5832 C   0  0  0  0  0  0  0  0  0  0  0  0
   53.3121   50.7991   98.7475 C   0  0  0  0  0  0  0  0  0  0  0  0
   52.6298   51.9889   98.6192 C   0  0  0  0  0  0  0  0  0  0  0  0
   52.4442   52.6325   97.3886 C   0  0  0  0  0  0  0  0  0  0  0  0
   52.9630   52.0676   96.2216 C   0  0  0  0  0  0  0  0  0  0  0  0
   53.6376   50.8837   96.3793 C   0  0  0  0  0  0  0  0  0  0  0  0
   54.1231   50.3997   95.1903 C   0  0  0  0  0  0  0  0  0  0  0  0
   54.9074   49.1394   95.1473 C   0  0  0  0  0  0  0  0  0  0  0  0
   53.7059   51.3598   94.2662 C   0  0  0  0  0  0  0  0  0  0  0  0
   53.0121   52.3481   94.9157 N   0  0  0  0  0  0  0  0  0  0  0  0
   58.1078   45.4052   99.5728 C   0  0  0  0  0  0  0  0  0  0  0  0
   59.4050   45.9069  100.1850 C   0  0  0  0  0  0  0  0  0  0  0  0
  1  2  1  0
  2  3  1  0
  3  4  1  0
  4  5  2  0
  6  4  1  1
  6  7  1  0
  7  8  1  0
  8  9  1  0
  8 10  1  0
 10 11  1  0
 11 12  2  0
 11 13  1  0
 13 14  2  0
 14 15  1  0
 15 16  2  0
 16 17  1  0
 17 18  2  0
 18 19  1  0
 19 20  1  0
 19 21  2  0
 21 22  1  0
  3 23  1  0
 23 24  1  0
 12  6  1  0
 18 13  1  0
 10 20  1  6
 22 17  1  0
M  CHG  1   8   1
M  END
$$$$
