
     RDKit          3D

 24 27  0  0  0  0  0  0  0  0999 V2000
   56.3189   44.5732  101.8277 C   0  0  0  0  0  0  0  0  0  0  0  0
   57.1826   45.7841  101.7119 C   0  0  0  0  0  0  0  0  0  0  0  0
   57.1179   46.3092  100.3780 N   0  0  0  0  0  0  0  0  0  0  0  0
   56.0020   46.8846   99.7928 C   0  0  0  0  0  0  0  0  0  0  0  0
   54.9459   46.9633  100.5446 O   0  0  0  0  0  0  0  0  0  0  0  0
   55.8117   47.4306   98.4542 C   0  0  1  0  0  0  0  0  0  0  0  0
   55.1173   46.5651   97.4733 C   0  0  0  0  0  0  0  0  0  0  0  0
   55.1552   47.1788   96.1483 N   0  0  0  0  0  4  0  0  0  0  0  0
   56.5159   47.2421   95.7265 C   0  0  0  0  0  0  0  0  0  0  0  0
   54.4538   48.4329   96.1160 C   0  0  1  0  0  0  0  0  0  0  0  0
   54.4893   49.1436   97.4161 C   0  0  0  0  0  0  0  0  0  0  0  0
   55.0821   48.7434   98.4999 C   0  0  0  0  0  0  0  0  0  0  0  0
   53.7628   50.4201   97.4647 C   0  0  0  0  0  0  0  0  0  0  0  0
   53.2452   50.9442   98.6326 C   0  0  0  0  0  0  0  0  0  0  0  0
   52.5636   52.1357   98.5172 C   0  0  0  0  0  0  0  0  0  0  0  0
   52.3908   52.7999   97.2956 C   0  0  0  0  0  0  0  0  0  0  0  0
   52.9224   52.2550   96.1248 C   0  0  0  0  0  0  0  0  0  0  0  0
   53.5960   51.0689   96.2697 C   0  0  0  0  0  0  0  0  0  0  0  0
   54.0944   50.6052   95.0780 C   0  0  0  0  0  0  0  0  0  0  0  0
   54.8799   49.3461   95.0222 C   0  0  0  0  0  0  0  0  0  0  0  0
   53.6865   51.5806   94.1659 C   0  0  0  0  0  0  0  0  0  0  0  0
   52.9852   52.5576   94.8245 N   0  0  0  0  0  0  0  0  0  0  0  0
   58.3665   46.2077   99.6047 C   0  0  0  0  0  0  0  0  0  0  0  0
   58.5428   44.7914   99.0830 C   0  0  0  0  0  0  0  0  0  0  0  0
  1  2  1  0
  2  3  1  0
  3  4  1  0
  4  5  2  0
  6  4  1  1
  6  7  1  0
  7  8  1  0
  8  9  1  0
  8 10  1  0
 10 11  1  0
 11 12  2  0
 11 13  1  0
 13 14  2  0
 14 15  1  0
 15 16  2  0
 16 17  1  0
 17 18  2  0
 18 19  1  0
 19 20  1  0
 19 21  2  0
 21 22  1  0
  3 23  1  0
 23 24  1  0
 12  6  1  0
 18 13  1  0
 10 20  1  6
 22 17  1  0
M  CHG  1   8   1
M  END
$$$$
