
     RDKit          3D

 24 27  0  0  0  0  0  0  0  0999 V2000
   57.5552   43.9240  100.1909 C   0  0  0  0  0  0  0  0  0  0  0  0
   57.7242   44.4957   98.8233 C   0  0  0  0  0  0  0  0  0  0  0  0
   58.3475   45.7858   98.9026 N   0  0  0  0  0  0  0  0  0  0  0  0
   57.7130   47.0001   98.6983 C   0  0  0  0  0  0  0  0  0  0  0  0
   58.4929   48.0224   98.5158 O   0  0  0  0  0  0  0  0  0  0  0  0
   56.2932   47.3284   98.6476 C   0  0  1  0  0  0  0  0  0  0  0  0
   55.5931   47.4635   99.9458 C   0  0  0  0  0  0  0  0  0  0  0  0
   54.1579   47.6238   99.7268 N   0  0  0  0  0  4  0  0  0  0  0  0
   53.6623   46.4258   99.1329 C   0  0  0  0  0  0  0  0  0  0  0  0
   53.8553   48.8273   99.0018 C   0  0  1  0  0  0  0  0  0  0  0  0
   54.9371   49.2222   98.0689 C   0  0  0  0  0  0  0  0  0  0  0  0
   56.0532   48.5900   97.8674 C   0  0  0  0  0  0  0  0  0  0  0  0
   54.7087   50.4642   97.3172 C   0  0  0  0  0  0  0  0  0  0  0  0
   55.7375   51.2489   96.8354 C   0  0  0  0  0  0  0  0  0  0  0  0
   55.3689   52.3998   96.1742 C   0  0  0  0  0  0  0  0  0  0  0  0
   54.0324   52.7766   95.9868 C   0  0  0  0  0  0  0  0  0  0  0  0
   53.0051   51.9696   96.4804 C   0  0  0  0  0  0  0  0  0  0  0  0
   53.4014   50.8304   97.1338 C   0  0  0  0  0  0  0  0  0  0  0  0
   52.3356   50.0892   97.5791 C   0  0  0  0  0  0  0  0  0  0  0  0
   52.5497   48.8030   98.2899 C   0  0  0  0  0  0  0  0  0  0  0  0
   51.2346   50.8410   97.1642 C   0  0  0  0  0  0  0  0  0  0  0  0
   51.6688   51.9637   96.5077 N   0  0  0  0  0  0  0  0  0  0  0  0
   59.7819   45.7680   99.2332 C   0  0  0  0  0  0  0  0  0  0  0  0
   60.6089   45.6816   97.9613 C   0  0  0  0  0  0  0  0  0  0  0  0
  1  2  1  0
  2  3  1  0
  3  4  1  0
  4  5  2  0
  6  4  1  1
  6  7  1  0
  7  8  1  0
  8  9  1  0
  8 10  1  0
 10 11  1  0
 11 12  2  0
 11 13  1  0
 13 14  2  0
 14 15  1  0
 15 16  2  0
 16 17  1  0
 17 18  2  0
 18 19  1  0
 19 20  1  0
 19 21  2  0
 21 22  1  0
  3 23  1  0
 23 24  1  0
 12  6  1  0
 18 13  1  0
 10 20  1  6
 22 17  1  0
M  CHG  1   8   1
M  END
$$$$
