
     RDKit          3D

 24 27  0  0  0  0  0  0  0  0999 V2000
   57.2830   45.6751  103.0071 C   0  0  0  0  0  0  0  0  0  0  0  0
   56.4269   45.1257  101.9158 C   0  0  0  0  0  0  0  0  0  0  0  0
   56.6492   45.8561  100.7007 N   0  0  0  0  0  0  0  0  0  0  0  0
   55.7812   46.7840  100.1492 C   0  0  0  0  0  0  0  0  0  0  0  0
   54.9314   47.3221  100.9707 O   0  0  0  0  0  0  0  0  0  0  0  0
   55.6623   47.2703   98.7796 C   0  0  1  0  0  0  0  0  0  0  0  0
   54.9822   46.3788   97.8120 C   0  0  0  0  0  0  0  0  0  0  0  0
   55.0927   46.9269   96.4625 N   0  0  0  0  0  4  0  0  0  0  0  0
   56.4707   46.9309   96.0958 C   0  0  0  0  0  0  0  0  0  0  0  0
   54.4318   48.1975   96.3420 C   0  0  1  0  0  0  0  0  0  0  0  0
   54.4362   48.9685   97.6078 C   0  0  0  0  0  0  0  0  0  0  0  0
   54.9718   48.6041   98.7331 C   0  0  0  0  0  0  0  0  0  0  0  0
   53.7476   50.2662   97.5660 C   0  0  0  0  0  0  0  0  0  0  0  0
   53.1992   50.8603   98.6852 C   0  0  0  0  0  0  0  0  0  0  0  0
   52.5596   52.0639   98.4856 C   0  0  0  0  0  0  0  0  0  0  0  0
   52.4569   52.6733   97.2282 C   0  0  0  0  0  0  0  0  0  0  0  0
   53.0188   52.0578   96.1075 C   0  0  0  0  0  0  0  0  0  0  0  0
   53.6494   50.8613   96.3360 C   0  0  0  0  0  0  0  0  0  0  0  0
   54.1815   50.3268   95.1893 C   0  0  0  0  0  0  0  0  0  0  0  0
   54.9297   49.0446   95.2255 C   0  0  0  0  0  0  0  0  0  0  0  0
   53.8409   51.2685   94.2162 C   0  0  0  0  0  0  0  0  0  0  0  0
   53.1436   52.2957   94.7982 N   0  0  0  0  0  0  0  0  0  0  0  0
   57.9206   45.5630  100.0186 C   0  0  0  0  0  0  0  0  0  0  0  0
   57.9343   44.1213   99.5387 C   0  0  0  0  0  0  0  0  0  0  0  0
  1  2  1  0
  2  3  1  0
  3  4  1  0
  4  5  2  0
  6  4  1  1
  6  7  1  0
  7  8  1  0
  8  9  1  0
  8 10  1  0
 10 11  1  0
 11 12  2  0
 11 13  1  0
 13 14  2  0
 14 15  1  0
 15 16  2  0
 16 17  1  0
 17 18  2  0
 18 19  1  0
 19 20  1  0
 19 21  2  0
 21 22  1  0
  3 23  1  0
 23 24  1  0
 12  6  1  0
 18 13  1  0
 10 20  1  6
 22 17  1  0
M  CHG  1   8   1
M  END
$$$$
