
     RDKit          3D

 24 27  0  0  0  0  0  0  0  0999 V2000
   56.3072   44.0105  101.6241 C   0  0  0  0  0  0  0  0  0  0  0  0
   57.3552   45.0720  101.5965 C   0  0  0  0  0  0  0  0  0  0  0  0
   57.3511   45.7347  100.3237 N   0  0  0  0  0  0  0  0  0  0  0  0
   56.3567   46.5801   99.8596 C   0  0  0  0  0  0  0  0  0  0  0  0
   55.5049   46.9933  100.7486 O   0  0  0  0  0  0  0  0  0  0  0  0
   56.1041   47.0968   98.5197 C   0  0  1  0  0  0  0  0  0  0  0  0
   55.4316   46.1826   97.5681 C   0  0  0  0  0  0  0  0  0  0  0  0
   55.4035   46.7791   96.2351 N   0  0  0  0  0  4  0  0  0  0  0  0
   56.7478   46.9076   95.7771 C   0  0  0  0  0  0  0  0  0  0  0  0
   54.6364   47.9941   96.2053 C   0  0  1  0  0  0  0  0  0  0  0  0
   54.6674   48.7236   97.4951 C   0  0  0  0  0  0  0  0  0  0  0  0
   55.3077   48.3701   98.5680 C   0  0  0  0  0  0  0  0  0  0  0  0
   53.8761   49.9609   97.5466 C   0  0  0  0  0  0  0  0  0  0  0  0
   53.3614   50.4733   98.7210 C   0  0  0  0  0  0  0  0  0  0  0  0
   52.6153   51.6258   98.6084 C   0  0  0  0  0  0  0  0  0  0  0  0
   52.3768   52.2631   97.3837 C   0  0  0  0  0  0  0  0  0  0  0  0
   52.9065   51.7306   96.2063 C   0  0  0  0  0  0  0  0  0  0  0  0
   53.6451   50.5835   96.3484 C   0  0  0  0  0  0  0  0  0  0  0  0
   54.1369   50.1301   95.1500 C   0  0  0  0  0  0  0  0  0  0  0  0
   54.9859   48.9132   95.0894 C   0  0  0  0  0  0  0  0  0  0  0  0
   53.6551   51.0700   94.2366 C   0  0  0  0  0  0  0  0  0  0  0  0
   52.9203   52.0180   94.9011 N   0  0  0  0  0  0  0  0  0  0  0  0
   58.5232   45.4652   99.4746 C   0  0  0  0  0  0  0  0  0  0  0  0
   59.7854   45.4426  100.3204 C   0  0  0  0  0  0  0  0  0  0  0  0
  1  2  1  0
  2  3  1  0
  3  4  1  0
  4  5  2  0
  6  4  1  1
  6  7  1  0
  7  8  1  0
  8  9  1  0
  8 10  1  0
 10 11  1  0
 11 12  2  0
 11 13  1  0
 13 14  2  0
 14 15  1  0
 15 16  2  0
 16 17  1  0
 17 18  2  0
 18 19  1  0
 19 20  1  0
 19 21  2  0
 21 22  1  0
  3 23  1  0
 23 24  1  0
 12  6  1  0
 18 13  1  0
 10 20  1  6
 22 17  1  0
M  CHG  1   8   1
M  END
$$$$
