
     RDKit          3D

 24 27  0  0  0  0  0  0  0  0999 V2000
   58.6400   44.3884   99.4635 C   0  0  0  0  0  0  0  0  0  0  0  0
   58.3960   45.8320   99.7502 C   0  0  0  0  0  0  0  0  0  0  0  0
   57.1030   46.0034  100.3486 N   0  0  0  0  0  0  0  0  0  0  0  0
   56.0642   46.7518   99.8199 C   0  0  0  0  0  0  0  0  0  0  0  0
   55.0691   46.9842  100.6214 O   0  0  0  0  0  0  0  0  0  0  0  0
   55.8993   47.3367   98.4944 C   0  0  1  0  0  0  0  0  0  0  0  0
   55.2075   46.5075   97.4808 C   0  0  0  0  0  0  0  0  0  0  0  0
   55.2714   47.1568   96.1739 N   0  0  0  0  0  4  0  0  0  0  0  0
   56.6385   47.2137   95.7722 C   0  0  0  0  0  0  0  0  0  0  0  0
   54.5866   48.4204   96.1667 C   0  0  1  0  0  0  0  0  0  0  0  0
   54.6134   49.0947   97.4863 C   0  0  0  0  0  0  0  0  0  0  0  0
   55.1860   48.6572   98.5665 C   0  0  0  0  0  0  0  0  0  0  0  0
   53.9026   50.3789   97.5603 C   0  0  0  0  0  0  0  0  0  0  0  0
   53.3758   50.8775   98.7352 C   0  0  0  0  0  0  0  0  0  0  0  0
   52.7111   52.0806   98.6435 C   0  0  0  0  0  0  0  0  0  0  0  0
   52.5635   52.7802   97.4386 C   0  0  0  0  0  0  0  0  0  0  0  0
   53.1042   52.2607   96.2604 C   0  0  0  0  0  0  0  0  0  0  0  0
   53.7605   51.0623   96.3816 C   0  0  0  0  0  0  0  0  0  0  0  0
   54.2693   50.6249   95.1843 C   0  0  0  0  0  0  0  0  0  0  0  0
   55.0393   49.3576   95.1043 C   0  0  0  0  0  0  0  0  0  0  0  0
   53.8864   51.6301   94.2940 C   0  0  0  0  0  0  0  0  0  0  0  0
   53.1887   52.5979   94.9699 N   0  0  0  0  0  0  0  0  0  0  0  0
   56.9097   45.3055  101.6304 C   0  0  0  0  0  0  0  0  0  0  0  0
   57.1133   46.2714  102.7857 C   0  0  0  0  0  0  0  0  0  0  0  0
  1  2  1  0
  2  3  1  0
  3  4  1  0
  4  5  2  0
  6  4  1  1
  6  7  1  0
  7  8  1  0
  8  9  1  0
  8 10  1  0
 10 11  1  0
 11 12  2  0
 11 13  1  0
 13 14  2  0
 14 15  1  0
 15 16  2  0
 16 17  1  0
 17 18  2  0
 18 19  1  0
 19 20  1  0
 19 21  2  0
 21 22  1  0
  3 23  1  0
 23 24  1  0
 12  6  1  0
 18 13  1  0
 10 20  1  6
 22 17  1  0
M  CHG  1   8   1
M  END
$$$$
