
     RDKit          3D

 24 27  0  0  0  0  0  0  0  0999 V2000
   59.5230   46.4332  100.0904 C   0  0  0  0  0  0  0  0  0  0  0  0
   58.3701   45.7472   99.4376 C   0  0  0  0  0  0  0  0  0  0  0  0
   57.1554   46.0509  100.1386 N   0  0  0  0  0  0  0  0  0  0  0  0
   56.1768   46.9320   99.7087 C   0  0  0  0  0  0  0  0  0  0  0  0
   55.3448   47.3411  100.6181 O   0  0  0  0  0  0  0  0  0  0  0  0
   55.9223   47.4907   98.3861 C   0  0  1  0  0  0  0  0  0  0  0  0
   55.1769   46.6363   97.4333 C   0  0  0  0  0  0  0  0  0  0  0  0
   55.1512   47.2619   96.1136 N   0  0  0  0  0  4  0  0  0  0  0  0
   56.4895   47.3245   95.6252 C   0  0  0  0  0  0  0  0  0  0  0  0
   54.4538   48.5185   96.1272 C   0  0  1  0  0  0  0  0  0  0  0  0
   54.5565   49.2173   97.4303 C   0  0  0  0  0  0  0  0  0  0  0  0
   55.2008   48.8054   98.4797 C   0  0  0  0  0  0  0  0  0  0  0  0
   53.8381   50.4958   97.5262 C   0  0  0  0  0  0  0  0  0  0  0  0
   53.3811   51.0109   98.7229 C   0  0  0  0  0  0  0  0  0  0  0  0
   52.6991   52.2057   98.6521 C   0  0  0  0  0  0  0  0  0  0  0  0
   52.4683   52.8815   97.4466 C   0  0  0  0  0  0  0  0  0  0  0  0
   52.9391   52.3455   96.2460 C   0  0  0  0  0  0  0  0  0  0  0  0
   53.6146   51.1559   96.3468 C   0  0  0  0  0  0  0  0  0  0  0  0
   54.0515   50.7013   95.1277 C   0  0  0  0  0  0  0  0  0  0  0  0
   54.8285   49.4402   95.0217 C   0  0  0  0  0  0  0  0  0  0  0  0
   53.6024   51.6863   94.2456 C   0  0  0  0  0  0  0  0  0  0  0  0
   52.9384   52.6596   94.9469 N   0  0  0  0  0  0  0  0  0  0  0  0
   56.9767   45.3415  101.4161 C   0  0  0  0  0  0  0  0  0  0  0  0
   56.0413   44.1586  101.2290 C   0  0  0  0  0  0  0  0  0  0  0  0
  1  2  1  0
  2  3  1  0
  3  4  1  0
  4  5  2  0
  6  4  1  1
  6  7  1  0
  7  8  1  0
  8  9  1  0
  8 10  1  0
 10 11  1  0
 11 12  2  0
 11 13  1  0
 13 14  2  0
 14 15  1  0
 15 16  2  0
 16 17  1  0
 17 18  2  0
 18 19  1  0
 19 20  1  0
 19 21  2  0
 21 22  1  0
  3 23  1  0
 23 24  1  0
 12  6  1  0
 18 13  1  0
 10 20  1  6
 22 17  1  0
M  CHG  1   8   1
M  END
$$$$
