
     RDKit          3D

 24 27  0  0  0  0  0  0  0  0999 V2000
   55.9537   44.4267  101.7117 C   0  0  0  0  0  0  0  0  0  0  0  0
   57.2412   45.1804  101.7014 C   0  0  0  0  0  0  0  0  0  0  0  0
   57.3476   45.9566  100.4991 N   0  0  0  0  0  0  0  0  0  0  0  0
   56.3643   46.7876   99.9879 C   0  0  0  0  0  0  0  0  0  0  0  0
   55.4824   47.2124  100.8414 O   0  0  0  0  0  0  0  0  0  0  0  0
   56.1522   47.2781   98.6312 C   0  0  1  0  0  0  0  0  0  0  0  0
   55.4398   46.3742   97.6990 C   0  0  0  0  0  0  0  0  0  0  0  0
   55.4560   46.9324   96.3493 N   0  0  0  0  0  4  0  0  0  0  0  0
   56.8094   46.9749   95.9021 C   0  0  0  0  0  0  0  0  0  0  0  0
   54.7562   48.1856   96.2768 C   0  0  1  0  0  0  0  0  0  0  0  0
   54.8151   48.9495   97.5455 C   0  0  0  0  0  0  0  0  0  0  0  0
   55.4255   48.5933   98.6348 C   0  0  0  0  0  0  0  0  0  0  0  0
   54.0915   50.2287   97.5534 C   0  0  0  0  0  0  0  0  0  0  0  0
   53.5948   50.8019   98.7071 C   0  0  0  0  0  0  0  0  0  0  0  0
   52.9132   51.9892   98.5539 C   0  0  0  0  0  0  0  0  0  0  0  0
   52.7206   52.6026   97.3090 C   0  0  0  0  0  0  0  0  0  0  0  0
   53.2313   52.0084   96.1530 C   0  0  0  0  0  0  0  0  0  0  0  0
   53.9054   50.8277   96.3355 C   0  0  0  0  0  0  0  0  0  0  0  0
   54.3827   50.3139   95.1558 C   0  0  0  0  0  0  0  0  0  0  0  0
   55.1650   49.0517   95.1389 C   0  0  0  0  0  0  0  0  0  0  0  0
   53.9607   51.2515   94.2110 C   0  0  0  0  0  0  0  0  0  0  0  0
   53.2724   52.2566   94.8403 N   0  0  0  0  0  0  0  0  0  0  0  0
   58.6278   45.8286   99.7835 C   0  0  0  0  0  0  0  0  0  0  0  0
   58.8961   44.3700   99.4522 C   0  0  0  0  0  0  0  0  0  0  0  0
  1  2  1  0
  2  3  1  0
  3  4  1  0
  4  5  2  0
  6  4  1  1
  6  7  1  0
  7  8  1  0
  8  9  1  0
  8 10  1  0
 10 11  1  0
 11 12  2  0
 11 13  1  0
 13 14  2  0
 14 15  1  0
 15 16  2  0
 16 17  1  0
 17 18  2  0
 18 19  1  0
 19 20  1  0
 19 21  2  0
 21 22  1  0
  3 23  1  0
 23 24  1  0
 12  6  1  0
 18 13  1  0
 10 20  1  6
 22 17  1  0
M  CHG  1   8   1
M  END
$$$$
