
     RDKit          3D

 24 27  0  0  0  0  0  0  0  0999 V2000
   59.7940   46.0845   99.8980 C   0  0  0  0  0  0  0  0  0  0  0  0
   58.6045   45.5445   99.1774 C   0  0  0  0  0  0  0  0  0  0  0  0
   57.4104   45.8173   99.9250 N   0  0  0  0  0  0  0  0  0  0  0  0
   56.4119   46.7022   99.5522 C   0  0  0  0  0  0  0  0  0  0  0  0
   55.5981   47.0674  100.4962 O   0  0  0  0  0  0  0  0  0  0  0  0
   56.1190   47.3068   98.2580 C   0  0  1  0  0  0  0  0  0  0  0  0
   55.3852   46.4693   97.2815 C   0  0  0  0  0  0  0  0  0  0  0  0
   55.3189   47.1478   95.9896 N   0  0  0  0  0  4  0  0  0  0  0  0
   56.6466   47.2730   95.4845 C   0  0  0  0  0  0  0  0  0  0  0  0
   54.5831   48.3800   96.0661 C   0  0  1  0  0  0  0  0  0  0  0  0
   54.6850   49.0272   97.3956 C   0  0  0  0  0  0  0  0  0  0  0  0
   55.3586   48.5930   98.4172 C   0  0  0  0  0  0  0  0  0  0  0  0
   53.9288   50.2772   97.5555 C   0  0  0  0  0  0  0  0  0  0  0  0
   53.4753   50.7277   98.7794 C   0  0  0  0  0  0  0  0  0  0  0  0
   52.7554   51.9021   98.7686 C   0  0  0  0  0  0  0  0  0  0  0  0
   52.4844   52.6195   97.5960 C   0  0  0  0  0  0  0  0  0  0  0  0
   52.9522   52.1488   96.3673 C   0  0  0  0  0  0  0  0  0  0  0  0
   53.6659   50.9781   96.4082 C   0  0  0  0  0  0  0  0  0  0  0  0
   54.0971   50.5884   95.1648 C   0  0  0  0  0  0  0  0  0  0  0  0
   54.9111   49.3581   94.9947 C   0  0  0  0  0  0  0  0  0  0  0  0
   53.6035   51.5942   94.3314 C   0  0  0  0  0  0  0  0  0  0  0  0
   52.9209   52.5162   95.0826 N   0  0  0  0  0  0  0  0  0  0  0  0
   57.2776   45.0696  101.1862 C   0  0  0  0  0  0  0  0  0  0  0  0
   56.2430   43.9673  101.0321 C   0  0  0  0  0  0  0  0  0  0  0  0
  1  2  1  0
  2  3  1  0
  3  4  1  0
  4  5  2  0
  6  4  1  1
  6  7  1  0
  7  8  1  0
  8  9  1  0
  8 10  1  0
 10 11  1  0
 11 12  2  0
 11 13  1  0
 13 14  2  0
 14 15  1  0
 15 16  2  0
 16 17  1  0
 17 18  2  0
 18 19  1  0
 19 20  1  0
 19 21  2  0
 21 22  1  0
  3 23  1  0
 23 24  1  0
 12  6  1  0
 18 13  1  0
 10 20  1  6
 22 17  1  0
M  CHG  1   8   1
M  END
$$$$
