
     RDKit          3D

 24 27  0  0  0  0  0  0  0  0999 V2000
   56.3106   44.1077  101.1929 C   0  0  0  0  0  0  0  0  0  0  0  0
   57.2668   45.2470  101.3092 C   0  0  0  0  0  0  0  0  0  0  0  0
   57.2572   46.0229  100.1021 N   0  0  0  0  0  0  0  0  0  0  0  0
   56.2316   46.8580   99.6903 C   0  0  0  0  0  0  0  0  0  0  0  0
   55.3752   47.1965  100.6061 O   0  0  0  0  0  0  0  0  0  0  0  0
   55.9499   47.4348   98.3810 C   0  0  1  0  0  0  0  0  0  0  0  0
   55.2588   46.5633   97.4030 C   0  0  0  0  0  0  0  0  0  0  0  0
   55.2015   47.2200   96.0995 N   0  0  0  0  0  4  0  0  0  0  0  0
   56.5357   47.3727   95.6197 C   0  0  0  0  0  0  0  0  0  0  0  0
   54.4322   48.4332   96.1415 C   0  0  1  0  0  0  0  0  0  0  0  0
   54.4894   49.1031   97.4624 C   0  0  0  0  0  0  0  0  0  0  0  0
   55.1528   48.7026   98.5043 C   0  0  0  0  0  0  0  0  0  0  0  0
   53.6975   50.3349   97.5871 C   0  0  0  0  0  0  0  0  0  0  0  0
   53.2070   50.7917   98.7942 C   0  0  0  0  0  0  0  0  0  0  0  0
   52.4569   51.9463   98.7503 C   0  0  0  0  0  0  0  0  0  0  0  0
   52.1915   52.6383   97.5612 C   0  0  0  0  0  0  0  0  0  0  0  0
   52.6970   52.1615   96.3499 C   0  0  0  0  0  0  0  0  0  0  0  0
   53.4402   51.0109   96.4238 C   0  0  0  0  0  0  0  0  0  0  0  0
   53.9072   50.6139   95.1957 C   0  0  0  0  0  0  0  0  0  0  0  0
   54.7566   49.4032   95.0617 C   0  0  0  0  0  0  0  0  0  0  0  0
   53.4047   51.5934   94.3367 C   0  0  0  0  0  0  0  0  0  0  0  0
   52.6827   52.5082   95.0591 N   0  0  0  0  0  0  0  0  0  0  0  0
   58.4599   45.8897   99.2636 C   0  0  0  0  0  0  0  0  0  0  0  0
   59.6408   46.5718   99.9341 C   0  0  0  0  0  0  0  0  0  0  0  0
  1  2  1  0
  2  3  1  0
  3  4  1  0
  4  5  2  0
  6  4  1  1
  6  7  1  0
  7  8  1  0
  8  9  1  0
  8 10  1  0
 10 11  1  0
 11 12  2  0
 11 13  1  0
 13 14  2  0
 14 15  1  0
 15 16  2  0
 16 17  1  0
 17 18  2  0
 18 19  1  0
 19 20  1  0
 19 21  2  0
 21 22  1  0
  3 23  1  0
 23 24  1  0
 12  6  1  0
 18 13  1  0
 10 20  1  6
 22 17  1  0
M  CHG  1   8   1
M  END
$$$$
