
     RDKit          3D

 24 27  0  0  0  0  0  0  0  0999 V2000
   59.6979   46.2316  100.2911 C   0  0  0  0  0  0  0  0  0  0  0  0
   58.5546   45.8624   99.4066 C   0  0  0  0  0  0  0  0  0  0  0  0
   57.3127   46.0709  100.0946 N   0  0  0  0  0  0  0  0  0  0  0  0
   56.2796   46.8857   99.6616 C   0  0  0  0  0  0  0  0  0  0  0  0
   55.3873   47.1909  100.5546 O   0  0  0  0  0  0  0  0  0  0  0  0
   56.0237   47.4725   98.3515 C   0  0  1  0  0  0  0  0  0  0  0  0
   55.2765   46.6389   97.3818 C   0  0  0  0  0  0  0  0  0  0  0  0
   55.2494   47.2924   96.0757 N   0  0  0  0  0  4  0  0  0  0  0  0
   56.5871   47.3647   95.5870 C   0  0  0  0  0  0  0  0  0  0  0  0
   54.5526   48.5487   96.1169 C   0  0  1  0  0  0  0  0  0  0  0  0
   54.6574   49.2196   97.4344 C   0  0  0  0  0  0  0  0  0  0  0  0
   55.3029   48.7852   98.4740 C   0  0  0  0  0  0  0  0  0  0  0  0
   53.9397   50.4961   97.5584 C   0  0  0  0  0  0  0  0  0  0  0  0
   53.4845   50.9859   98.7664 C   0  0  0  0  0  0  0  0  0  0  0  0
   52.8029   52.1822   98.7219 C   0  0  0  0  0  0  0  0  0  0  0  0
   52.5708   52.8836   97.5314 C   0  0  0  0  0  0  0  0  0  0  0  0
   53.0398   52.3729   96.3191 C   0  0  0  0  0  0  0  0  0  0  0  0
   53.7149   51.1811   96.3936 C   0  0  0  0  0  0  0  0  0  0  0  0
   54.1500   50.7524   95.1645 C   0  0  0  0  0  0  0  0  0  0  0  0
   54.9262   49.4935   95.0308 C   0  0  0  0  0  0  0  0  0  0  0  0
   53.7002   51.7561   94.3042 C   0  0  0  0  0  0  0  0  0  0  0  0
   53.0375   52.7146   95.0269 N   0  0  0  0  0  0  0  0  0  0  0  0
   57.1686   45.3350  101.3616 C   0  0  0  0  0  0  0  0  0  0  0  0
   56.2145   44.1663  101.1799 C   0  0  0  0  0  0  0  0  0  0  0  0
  1  2  1  0
  2  3  1  0
  3  4  1  0
  4  5  2  0
  6  4  1  1
  6  7  1  0
  7  8  1  0
  8  9  1  0
  8 10  1  0
 10 11  1  0
 11 12  2  0
 11 13  1  0
 13 14  2  0
 14 15  1  0
 15 16  2  0
 16 17  1  0
 17 18  2  0
 18 19  1  0
 19 20  1  0
 19 21  2  0
 21 22  1  0
  3 23  1  0
 23 24  1  0
 12  6  1  0
 18 13  1  0
 10 20  1  6
 22 17  1  0
M  CHG  1   8   1
M  END
$$$$
