
     RDKit          3D

 24 27  0  0  0  0  0  0  0  0999 V2000
   59.4484   45.5102   99.6733 C   0  0  0  0  0  0  0  0  0  0  0  0
   58.1161   44.9189   99.3553 C   0  0  0  0  0  0  0  0  0  0  0  0
   57.0990   45.5378  100.1563 N   0  0  0  0  0  0  0  0  0  0  0  0
   56.3067   46.6054   99.7672 C   0  0  0  0  0  0  0  0  0  0  0  0
   55.6751   47.2189  100.7218 O   0  0  0  0  0  0  0  0  0  0  0  0
   56.0623   47.1689   98.4447 C   0  0  1  0  0  0  0  0  0  0  0  0
   55.3342   46.3136   97.4794 C   0  0  0  0  0  0  0  0  0  0  0  0
   55.3180   46.9459   96.1627 N   0  0  0  0  0  4  0  0  0  0  0  0
   56.6610   47.0215   95.6894 C   0  0  0  0  0  0  0  0  0  0  0  0
   54.6105   48.1968   96.1750 C   0  0  1  0  0  0  0  0  0  0  0  0
   54.6933   48.8896   97.4827 C   0  0  0  0  0  0  0  0  0  0  0  0
   55.3293   48.4774   98.5370 C   0  0  0  0  0  0  0  0  0  0  0  0
   53.9637   50.1618   97.5772 C   0  0  0  0  0  0  0  0  0  0  0  0
   53.4895   50.6671   98.7715 C   0  0  0  0  0  0  0  0  0  0  0  0
   52.7988   51.8568   98.6992 C   0  0  0  0  0  0  0  0  0  0  0  0
   52.5759   52.5370   97.4948 C   0  0  0  0  0  0  0  0  0  0  0  0
   53.0641   52.0110   96.2967 C   0  0  0  0  0  0  0  0  0  0  0  0
   53.7479   50.8262   96.3988 C   0  0  0  0  0  0  0  0  0  0  0  0
   54.2018   50.3815   95.1823 C   0  0  0  0  0  0  0  0  0  0  0  0
   54.9899   49.1271   95.0785 C   0  0  0  0  0  0  0  0  0  0  0  0
   53.7545   51.3674   94.3004 C   0  0  0  0  0  0  0  0  0  0  0  0
   53.0751   52.3318   94.9993 N   0  0  0  0  0  0  0  0  0  0  0  0
   56.9166   44.9547  101.4957 C   0  0  0  0  0  0  0  0  0  0  0  0
   55.8530   43.8703  101.4517 C   0  0  0  0  0  0  0  0  0  0  0  0
  1  2  1  0
  2  3  1  0
  3  4  1  0
  4  5  2  0
  6  4  1  1
  6  7  1  0
  7  8  1  0
  8  9  1  0
  8 10  1  0
 10 11  1  0
 11 12  2  0
 11 13  1  0
 13 14  2  0
 14 15  1  0
 15 16  2  0
 16 17  1  0
 17 18  2  0
 18 19  1  0
 19 20  1  0
 19 21  2  0
 21 22  1  0
  3 23  1  0
 23 24  1  0
 12  6  1  0
 18 13  1  0
 10 20  1  6
 22 17  1  0
M  CHG  1   8   1
M  END
$$$$
