
     RDKit          3D

 24 27  0  0  0  0  0  0  0  0999 V2000
   59.0555   45.2102   99.5051 C   0  0  0  0  0  0  0  0  0  0  0  0
   58.4515   46.5486   99.7688 C   0  0  0  0  0  0  0  0  0  0  0  0
   57.1235   46.3953  100.2904 N   0  0  0  0  0  0  0  0  0  0  0  0
   55.9665   46.8769   99.7004 C   0  0  0  0  0  0  0  0  0  0  0  0
   54.8956   46.8299  100.4336 O   0  0  0  0  0  0  0  0  0  0  0  0
   55.7458   47.4418   98.3744 C   0  0  1  0  0  0  0  0  0  0  0  0
   55.0511   46.5808   97.3898 C   0  0  0  0  0  0  0  0  0  0  0  0
   55.0575   47.2173   96.0750 N   0  0  0  0  0  4  0  0  0  0  0  0
   56.4101   47.3114   95.6333 C   0  0  0  0  0  0  0  0  0  0  0  0
   54.3342   48.4592   96.0748 C   0  0  1  0  0  0  0  0  0  0  0  0
   54.3779   49.1485   97.3862 C   0  0  0  0  0  0  0  0  0  0  0  0
   54.9944   48.7407   98.4537 C   0  0  0  0  0  0  0  0  0  0  0  0
   53.6303   50.4112   97.4677 C   0  0  0  0  0  0  0  0  0  0  0  0
   53.1222   50.9064   98.6522 C   0  0  0  0  0  0  0  0  0  0  0  0
   52.4184   52.0876   98.5676 C   0  0  0  0  0  0  0  0  0  0  0  0
   52.2149   52.7691   97.3604 C   0  0  0  0  0  0  0  0  0  0  0  0
   52.7374   52.2533   96.1724 C   0  0  0  0  0  0  0  0  0  0  0  0
   53.4335   51.0768   96.2867 C   0  0  0  0  0  0  0  0  0  0  0  0
   53.9211   50.6420   95.0797 C   0  0  0  0  0  0  0  0  0  0  0  0
   54.7272   49.3980   94.9903 C   0  0  0  0  0  0  0  0  0  0  0  0
   53.4820   51.6252   94.1907 C   0  0  0  0  0  0  0  0  0  0  0  0
   52.7745   52.5786   94.8766 N   0  0  0  0  0  0  0  0  0  0  0  0
   57.0319   45.6559  101.5602 C   0  0  0  0  0  0  0  0  0  0  0  0
   56.1165   44.4538  101.3984 C   0  0  0  0  0  0  0  0  0  0  0  0
  1  2  1  0
  2  3  1  0
  3  4  1  0
  4  5  2  0
  6  4  1  1
  6  7  1  0
  7  8  1  0
  8  9  1  0
  8 10  1  0
 10 11  1  0
 11 12  2  0
 11 13  1  0
 13 14  2  0
 14 15  1  0
 15 16  2  0
 16 17  1  0
 17 18  2  0
 18 19  1  0
 19 20  1  0
 19 21  2  0
 21 22  1  0
  3 23  1  0
 23 24  1  0
 12  6  1  0
 18 13  1  0
 10 20  1  6
 22 17  1  0
M  CHG  1   8   1
M  END
$$$$
