
     RDKit          3D

 24 27  0  0  0  0  0  0  0  0999 V2000
   59.7434   46.6939  100.0959 C   0  0  0  0  0  0  0  0  0  0  0  0
   58.7954   45.8672   99.2938 C   0  0  0  0  0  0  0  0  0  0  0  0
   57.4972   45.8741   99.9053 N   0  0  0  0  0  0  0  0  0  0  0  0
   56.4342   46.6782   99.5282 C   0  0  0  0  0  0  0  0  0  0  0  0
   55.5438   46.9061  100.4457 O   0  0  0  0  0  0  0  0  0  0  0  0
   56.1444   47.3268   98.2548 C   0  0  1  0  0  0  0  0  0  0  0  0
   55.3557   46.5470   97.2733 C   0  0  0  0  0  0  0  0  0  0  0  0
   55.2955   47.2594   95.9995 N   0  0  0  0  0  4  0  0  0  0  0  0
   56.6177   47.3380   95.4713 C   0  0  0  0  0  0  0  0  0  0  0  0
   54.6171   48.5207   96.1199 C   0  0  1  0  0  0  0  0  0  0  0  0
   54.7728   49.1298   97.4620 C   0  0  0  0  0  0  0  0  0  0  0  0
   55.4454   48.6411   98.4595 C   0  0  0  0  0  0  0  0  0  0  0  0
   54.0764   50.4077   97.6666 C   0  0  0  0  0  0  0  0  0  0  0  0
   53.6666   50.8476   98.9096 C   0  0  0  0  0  0  0  0  0  0  0  0
   52.9999   52.0526   98.9411 C   0  0  0  0  0  0  0  0  0  0  0  0
   52.7393   52.8100   97.7915 C   0  0  0  0  0  0  0  0  0  0  0  0
   53.1625   52.3494   96.5428 C   0  0  0  0  0  0  0  0  0  0  0  0
   53.8237   51.1476   96.5417 C   0  0  0  0  0  0  0  0  0  0  0  0
   54.2136   50.7700   95.2811 C   0  0  0  0  0  0  0  0  0  0  0  0
   54.9684   49.5093   95.0657 C   0  0  0  0  0  0  0  0  0  0  0  0
   53.7499   51.8168   94.4819 C   0  0  0  0  0  0  0  0  0  0  0  0
   53.1235   52.7493   95.2681 N   0  0  0  0  0  0  0  0  0  0  0  0
   57.3269   44.9298  101.0218 C   0  0  0  0  0  0  0  0  0  0  0  0
   56.1472   45.3486  101.8833 C   0  0  0  0  0  0  0  0  0  0  0  0
  1  2  1  0
  2  3  1  0
  3  4  1  0
  4  5  2  0
  6  4  1  1
  6  7  1  0
  7  8  1  0
  8  9  1  0
  8 10  1  0
 10 11  1  0
 11 12  2  0
 11 13  1  0
 13 14  2  0
 14 15  1  0
 15 16  2  0
 16 17  1  0
 17 18  2  0
 18 19  1  0
 19 20  1  0
 19 21  2  0
 21 22  1  0
  3 23  1  0
 23 24  1  0
 12  6  1  0
 18 13  1  0
 10 20  1  6
 22 17  1  0
M  CHG  1   8   1
M  END
$$$$
