
     RDKit          3D

 24 27  0  0  0  0  0  0  0  0999 V2000
   55.7684   44.3824  101.9118 C   0  0  0  0  0  0  0  0  0  0  0  0
   56.8982   45.3404  101.7343 C   0  0  0  0  0  0  0  0  0  0  0  0
   56.8832   45.8781  100.4039 N   0  0  0  0  0  0  0  0  0  0  0  0
   56.0340   46.8726   99.9472 C   0  0  0  0  0  0  0  0  0  0  0  0
   55.3123   47.4604  100.8529 O   0  0  0  0  0  0  0  0  0  0  0  0
   55.8140   47.3826   98.5990 C   0  0  1  0  0  0  0  0  0  0  0  0
   55.1447   46.4715   97.6422 C   0  0  0  0  0  0  0  0  0  0  0  0
   55.1503   47.0580   96.3043 N   0  0  0  0  0  4  0  0  0  0  0  0
   56.5046   47.1620   95.8702 C   0  0  0  0  0  0  0  0  0  0  0  0
   54.4030   48.2845   96.2513 C   0  0  1  0  0  0  0  0  0  0  0  0
   54.4219   49.0235   97.5360 C   0  0  0  0  0  0  0  0  0  0  0  0
   55.0369   48.6685   98.6231 C   0  0  0  0  0  0  0  0  0  0  0  0
   53.6493   50.2733   97.5636 C   0  0  0  0  0  0  0  0  0  0  0  0
   53.1213   50.8028   98.7244 C   0  0  0  0  0  0  0  0  0  0  0  0
   52.3955   51.9658   98.5895 C   0  0  0  0  0  0  0  0  0  0  0  0
   52.1894   52.5971   97.3558 C   0  0  0  0  0  0  0  0  0  0  0  0
   52.7321   52.0473   96.1924 C   0  0  0  0  0  0  0  0  0  0  0  0
   53.4499   50.8900   96.3567 C   0  0  0  0  0  0  0  0  0  0  0  0
   53.9563   50.4196   95.1709 C   0  0  0  0  0  0  0  0  0  0  0  0
   54.7872   49.1893   95.1352 C   0  0  0  0  0  0  0  0  0  0  0  0
   53.5061   51.3598   94.2419 C   0  0  0  0  0  0  0  0  0  0  0  0
   52.7742   52.3242   94.8855 N   0  0  0  0  0  0  0  0  0  0  0  0
   57.8721   45.2945   99.4824 C   0  0  0  0  0  0  0  0  0  0  0  0
   59.2787   45.6502   99.9340 C   0  0  0  0  0  0  0  0  0  0  0  0
  1  2  1  0
  2  3  1  0
  3  4  1  0
  4  5  2  0
  6  4  1  1
  6  7  1  0
  7  8  1  0
  8  9  1  0
  8 10  1  0
 10 11  1  0
 11 12  2  0
 11 13  1  0
 13 14  2  0
 14 15  1  0
 15 16  2  0
 16 17  1  0
 17 18  2  0
 18 19  1  0
 19 20  1  0
 19 21  2  0
 21 22  1  0
  3 23  1  0
 23 24  1  0
 12  6  1  0
 18 13  1  0
 10 20  1  6
 22 17  1  0
M  CHG  1   8   1
M  END
$$$$
