
     RDKit          3D

 24 27  0  0  0  0  0  0  0  0999 V2000
   57.1394   45.8939  102.7598 C   0  0  0  0  0  0  0  0  0  0  0  0
   56.3204   45.1785  101.7385 C   0  0  0  0  0  0  0  0  0  0  0  0
   56.5648   45.7307  100.4367 N   0  0  0  0  0  0  0  0  0  0  0  0
   55.9899   46.8852   99.9313 C   0  0  0  0  0  0  0  0  0  0  0  0
   55.5178   47.7147  100.8121 O   0  0  0  0  0  0  0  0  0  0  0  0
   55.8274   47.3359   98.5541 C   0  0  1  0  0  0  0  0  0  0  0  0
   55.1528   46.4032   97.6223 C   0  0  0  0  0  0  0  0  0  0  0  0
   55.2181   46.9227   96.2586 N   0  0  0  0  0  4  0  0  0  0  0  0
   56.5872   46.9575   95.8613 C   0  0  0  0  0  0  0  0  0  0  0  0
   54.5182   48.1707   96.1241 C   0  0  1  0  0  0  0  0  0  0  0  0
   54.5275   48.9708   97.3718 C   0  0  0  0  0  0  0  0  0  0  0  0
   55.0977   48.6480   98.4928 C   0  0  0  0  0  0  0  0  0  0  0  0
   53.8008   50.2469   97.3159 C   0  0  0  0  0  0  0  0  0  0  0  0
   53.2597   50.8510   98.4334 C   0  0  0  0  0  0  0  0  0  0  0  0
   52.5812   52.0309   98.2209 C   0  0  0  0  0  0  0  0  0  0  0  0
   52.4338   52.6078   96.9526 C   0  0  0  0  0  0  0  0  0  0  0  0
   52.9890   51.9827   95.8339 C   0  0  0  0  0  0  0  0  0  0  0  0
   53.6588   50.8103   96.0753 C   0  0  0  0  0  0  0  0  0  0  0  0
   54.1814   50.2647   94.9294 C   0  0  0  0  0  0  0  0  0  0  0  0
   54.9671   49.0055   94.9780 C   0  0  0  0  0  0  0  0  0  0  0  0
   53.7927   51.1734   93.9430 C   0  0  0  0  0  0  0  0  0  0  0  0
   53.0786   52.1935   94.5171 N   0  0  0  0  0  0  0  0  0  0  0  0
   57.5144   44.9737   99.6045 C   0  0  0  0  0  0  0  0  0  0  0  0
   56.9783   43.5762   99.3421 C   0  0  0  0  0  0  0  0  0  0  0  0
  1  2  1  0
  2  3  1  0
  3  4  1  0
  4  5  2  0
  6  4  1  1
  6  7  1  0
  7  8  1  0
  8  9  1  0
  8 10  1  0
 10 11  1  0
 11 12  2  0
 11 13  1  0
 13 14  2  0
 14 15  1  0
 15 16  2  0
 16 17  1  0
 17 18  2  0
 18 19  1  0
 19 20  1  0
 19 21  2  0
 21 22  1  0
  3 23  1  0
 23 24  1  0
 12  6  1  0
 18 13  1  0
 10 20  1  6
 22 17  1  0
M  CHG  1   8   1
M  END
$$$$
