
     RDKit          3D

 24 27  0  0  0  0  0  0  0  0999 V2000
   56.1993   43.9684  101.6125 C   0  0  0  0  0  0  0  0  0  0  0  0
   57.1259   45.1376  101.6277 C   0  0  0  0  0  0  0  0  0  0  0  0
   57.1346   45.7756  100.3424 N   0  0  0  0  0  0  0  0  0  0  0  0
   56.1344   46.5935   99.8430 C   0  0  0  0  0  0  0  0  0  0  0  0
   55.2282   46.9645  100.6962 O   0  0  0  0  0  0  0  0  0  0  0  0
   55.9270   47.1211   98.4996 C   0  0  1  0  0  0  0  0  0  0  0  0
   55.2563   46.2268   97.5281 C   0  0  0  0  0  0  0  0  0  0  0  0
   55.2749   46.8287   96.1973 N   0  0  0  0  0  4  0  0  0  0  0  0
   56.6328   46.9266   95.7727 C   0  0  0  0  0  0  0  0  0  0  0  0
   54.5381   48.0619   96.1540 C   0  0  1  0  0  0  0  0  0  0  0  0
   54.5551   48.7857   97.4473 C   0  0  0  0  0  0  0  0  0  0  0  0
   55.1603   48.4130   98.5340 C   0  0  0  0  0  0  0  0  0  0  0  0
   53.7926   50.0415   97.4849 C   0  0  0  0  0  0  0  0  0  0  0  0
   53.2618   50.5618   98.6485 C   0  0  0  0  0  0  0  0  0  0  0  0
   52.5464   51.7323   98.5228 C   0  0  0  0  0  0  0  0  0  0  0  0
   52.3532   52.3796   97.2953 C   0  0  0  0  0  0  0  0  0  0  0  0
   52.8986   51.8389   96.1289 C   0  0  0  0  0  0  0  0  0  0  0  0
   53.6059   50.6738   96.2840 C   0  0  0  0  0  0  0  0  0  0  0  0
   54.1158   50.2132   95.0960 C   0  0  0  0  0  0  0  0  0  0  0  0
   54.9367   48.9765   95.0509 C   0  0  0  0  0  0  0  0  0  0  0  0
   53.6791   51.1678   94.1753 C   0  0  0  0  0  0  0  0  0  0  0  0
   52.9511   52.1307   94.8256 N   0  0  0  0  0  0  0  0  0  0  0  0
   58.3276   45.5114   99.5212 C   0  0  0  0  0  0  0  0  0  0  0  0
   59.5176   46.2826  100.0673 C   0  0  0  0  0  0  0  0  0  0  0  0
  1  2  1  0
  2  3  1  0
  3  4  1  0
  4  5  2  0
  6  4  1  1
  6  7  1  0
  7  8  1  0
  8  9  1  0
  8 10  1  0
 10 11  1  0
 11 12  2  0
 11 13  1  0
 13 14  2  0
 14 15  1  0
 15 16  2  0
 16 17  1  0
 17 18  2  0
 18 19  1  0
 19 20  1  0
 19 21  2  0
 21 22  1  0
  3 23  1  0
 23 24  1  0
 12  6  1  0
 18 13  1  0
 10 20  1  6
 22 17  1  0
M  CHG  1   8   1
M  END
$$$$
