
     RDKit          3D

 24 27  0  0  0  0  0  0  0  0999 V2000
   59.8075   46.3755  100.0958 C   0  0  0  0  0  0  0  0  0  0  0  0
   58.7019   45.7649   99.3017 C   0  0  0  0  0  0  0  0  0  0  0  0
   57.4515   45.9388   99.9840 N   0  0  0  0  0  0  0  0  0  0  0  0
   56.4229   46.7734   99.5790 C   0  0  0  0  0  0  0  0  0  0  0  0
   55.5591   47.0924  100.4949 O   0  0  0  0  0  0  0  0  0  0  0  0
   56.1448   47.3683   98.2770 C   0  0  1  0  0  0  0  0  0  0  0  0
   55.4075   46.5295   97.3043 C   0  0  0  0  0  0  0  0  0  0  0  0
   55.3568   47.1958   96.0054 N   0  0  0  0  0  4  0  0  0  0  0  0
   56.6889   47.3007   95.5073 C   0  0  0  0  0  0  0  0  0  0  0  0
   54.6346   48.4370   96.0650 C   0  0  1  0  0  0  0  0  0  0  0  0
   54.7358   49.0963   97.3886 C   0  0  0  0  0  0  0  0  0  0  0  0
   55.3982   48.6646   98.4187 C   0  0  0  0  0  0  0  0  0  0  0  0
   53.9930   50.3563   97.5314 C   0  0  0  0  0  0  0  0  0  0  0  0
   53.5373   50.8241   98.7479 C   0  0  0  0  0  0  0  0  0  0  0  0
   52.8310   52.0065   98.7210 C   0  0  0  0  0  0  0  0  0  0  0  0
   52.5753   52.7152   97.5397 C   0  0  0  0  0  0  0  0  0  0  0  0
   53.0452   52.2269   96.3186 C   0  0  0  0  0  0  0  0  0  0  0  0
   53.7452   51.0486   96.3756 C   0  0  0  0  0  0  0  0  0  0  0  0
   54.1795   50.6416   95.1388 C   0  0  0  0  0  0  0  0  0  0  0  0
   54.9803   49.4005   94.9860 C   0  0  0  0  0  0  0  0  0  0  0  0
   53.7024   51.6446   94.2925 C   0  0  0  0  0  0  0  0  0  0  0  0
   53.0259   52.5817   95.0301 N   0  0  0  0  0  0  0  0  0  0  0  0
   57.2929   45.1416  101.2115 C   0  0  0  0  0  0  0  0  0  0  0  0
   56.3171   44.0019  100.9703 C   0  0  0  0  0  0  0  0  0  0  0  0
  1  2  1  0
  2  3  1  0
  3  4  1  0
  4  5  2  0
  6  4  1  1
  6  7  1  0
  7  8  1  0
  8  9  1  0
  8 10  1  0
 10 11  1  0
 11 12  2  0
 11 13  1  0
 13 14  2  0
 14 15  1  0
 15 16  2  0
 16 17  1  0
 17 18  2  0
 18 19  1  0
 19 20  1  0
 19 21  2  0
 21 22  1  0
  3 23  1  0
 23 24  1  0
 12  6  1  0
 18 13  1  0
 10 20  1  6
 22 17  1  0
M  CHG  1   8   1
M  END
$$$$
