
     RDKit          3D

 24 27  0  0  0  0  0  0  0  0999 V2000
   56.6434   46.2039  102.8019 C   0  0  0  0  0  0  0  0  0  0  0  0
   56.6067   45.1915  101.7068 C   0  0  0  0  0  0  0  0  0  0  0  0
   56.7518   45.8377  100.4338 N   0  0  0  0  0  0  0  0  0  0  0  0
   55.8887   46.7857   99.9094 C   0  0  0  0  0  0  0  0  0  0  0  0
   55.0440   47.3068  100.7470 O   0  0  0  0  0  0  0  0  0  0  0  0
   55.7702   47.3096   98.5537 C   0  0  1  0  0  0  0  0  0  0  0  0
   55.0743   46.4531   97.5661 C   0  0  0  0  0  0  0  0  0  0  0  0
   55.1861   47.0352   96.2311 N   0  0  0  0  0  4  0  0  0  0  0  0
   56.5624   47.0310   95.8581 C   0  0  0  0  0  0  0  0  0  0  0  0
   54.5415   48.3171   96.1473 C   0  0  1  0  0  0  0  0  0  0  0  0
   54.5615   49.0541   97.4330 C   0  0  0  0  0  0  0  0  0  0  0  0
   55.0972   48.6531   98.5458 C   0  0  0  0  0  0  0  0  0  0  0  0
   53.8899   50.3613   97.4288 C   0  0  0  0  0  0  0  0  0  0  0  0
   53.3543   50.9327   98.5659 C   0  0  0  0  0  0  0  0  0  0  0  0
   52.7297   52.1494   98.4012 C   0  0  0  0  0  0  0  0  0  0  0  0
   52.6296   52.7932   97.1608 C   0  0  0  0  0  0  0  0  0  0  0  0
   53.1784   52.2004   96.0217 C   0  0  0  0  0  0  0  0  0  0  0  0
   53.7942   50.9901   96.2154 C   0  0  0  0  0  0  0  0  0  0  0  0
   54.3142   50.4793   95.0525 C   0  0  0  0  0  0  0  0  0  0  0  0
   55.0457   49.1869   95.0513 C   0  0  0  0  0  0  0  0  0  0  0  0
   53.9818   51.4508   94.1062 C   0  0  0  0  0  0  0  0  0  0  0  0
   53.3007   52.4712   94.7185 N   0  0  0  0  0  0  0  0  0  0  0  0
   57.9328   45.4284   99.6557 C   0  0  0  0  0  0  0  0  0  0  0  0
   58.1308   43.9255   99.7606 C   0  0  0  0  0  0  0  0  0  0  0  0
  1  2  1  0
  2  3  1  0
  3  4  1  0
  4  5  2  0
  6  4  1  1
  6  7  1  0
  7  8  1  0
  8  9  1  0
  8 10  1  0
 10 11  1  0
 11 12  2  0
 11 13  1  0
 13 14  2  0
 14 15  1  0
 15 16  2  0
 16 17  1  0
 17 18  2  0
 18 19  1  0
 19 20  1  0
 19 21  2  0
 21 22  1  0
  3 23  1  0
 23 24  1  0
 12  6  1  0
 18 13  1  0
 10 20  1  6
 22 17  1  0
M  CHG  1   8   1
M  END
$$$$
