
     RDKit          3D

 24 27  0  0  0  0  0  0  0  0999 V2000
   58.2716   44.2564   99.5687 C   0  0  0  0  0  0  0  0  0  0  0  0
   56.8126   44.3808   99.8543 C   0  0  0  0  0  0  0  0  0  0  0  0
   56.5551   45.5896  100.5836 N   0  0  0  0  0  0  0  0  0  0  0  0
   55.9360   46.7198  100.0755 C   0  0  0  0  0  0  0  0  0  0  0  0
   55.3764   47.5000  100.9501 O   0  0  0  0  0  0  0  0  0  0  0  0
   55.8091   47.1915   98.7016 C   0  0  1  0  0  0  0  0  0  0  0  0
   55.1042   46.2994   97.7526 C   0  0  0  0  0  0  0  0  0  0  0  0
   55.2077   46.8296   96.3954 N   0  0  0  0  0  4  0  0  0  0  0  0
   56.5814   46.8075   96.0132 C   0  0  0  0  0  0  0  0  0  0  0  0
   54.5655   48.1089   96.2670 C   0  0  1  0  0  0  0  0  0  0  0  0
   54.5963   48.8947   97.5233 C   0  0  0  0  0  0  0  0  0  0  0  0
   55.1391   48.5354   98.6468 C   0  0  0  0  0  0  0  0  0  0  0  0
   53.9277   50.2025   97.4735 C   0  0  0  0  0  0  0  0  0  0  0  0
   53.4014   50.8185   98.5916 C   0  0  0  0  0  0  0  0  0  0  0  0
   52.7785   52.0295   98.3846 C   0  0  0  0  0  0  0  0  0  0  0  0
   52.6710   52.6255   97.1211 C   0  0  0  0  0  0  0  0  0  0  0  0
   53.2103   51.9880   96.0018 C   0  0  0  0  0  0  0  0  0  0  0  0
   53.8247   50.7844   96.2376 C   0  0  0  0  0  0  0  0  0  0  0  0
   54.3353   50.2280   95.0915 C   0  0  0  0  0  0  0  0  0  0  0  0
   55.0638   48.9347   95.1348 C   0  0  0  0  0  0  0  0  0  0  0  0
   53.9984   51.1633   94.1109 C   0  0  0  0  0  0  0  0  0  0  0  0
   53.3239   52.2082   94.6883 N   0  0  0  0  0  0  0  0  0  0  0  0
   57.0022   45.5809  101.9863 C   0  0  0  0  0  0  0  0  0  0  0  0
   55.9017   45.0351  102.8808 C   0  0  0  0  0  0  0  0  0  0  0  0
  1  2  1  0
  2  3  1  0
  3  4  1  0
  4  5  2  0
  6  4  1  1
  6  7  1  0
  7  8  1  0
  8  9  1  0
  8 10  1  0
 10 11  1  0
 11 12  2  0
 11 13  1  0
 13 14  2  0
 14 15  1  0
 15 16  2  0
 16 17  1  0
 17 18  2  0
 18 19  1  0
 19 20  1  0
 19 21  2  0
 21 22  1  0
  3 23  1  0
 23 24  1  0
 12  6  1  0
 18 13  1  0
 10 20  1  6
 22 17  1  0
M  CHG  1   8   1
M  END
$$$$
