
     RDKit          3D

 24 27  0  0  0  0  0  0  0  0999 V2000
   55.8034   45.1593  102.0145 C   0  0  0  0  0  0  0  0  0  0  0  0
   57.1495   45.2181  101.3740 C   0  0  0  0  0  0  0  0  0  0  0  0
   57.1811   46.2616  100.3894 N   0  0  0  0  0  0  0  0  0  0  0  0
   56.0722   46.8884   99.8451 C   0  0  0  0  0  0  0  0  0  0  0  0
   55.0475   47.0108  100.6336 O   0  0  0  0  0  0  0  0  0  0  0  0
   55.8599   47.4478   98.5154 C   0  0  1  0  0  0  0  0  0  0  0  0
   55.2032   46.5700   97.5195 C   0  0  0  0  0  0  0  0  0  0  0  0
   55.2160   47.2065   96.2049 N   0  0  0  0  0  4  0  0  0  0  0  0
   56.5730   47.3339   95.7858 C   0  0  0  0  0  0  0  0  0  0  0  0
   54.4624   48.4302   96.1921 C   0  0  1  0  0  0  0  0  0  0  0  0
   54.4672   49.1203   97.5038 C   0  0  0  0  0  0  0  0  0  0  0  0
   55.0756   48.7278   98.5817 C   0  0  0  0  0  0  0  0  0  0  0  0
   53.6875   50.3642   97.5724 C   0  0  0  0  0  0  0  0  0  0  0  0
   53.1476   50.8467   98.7480 C   0  0  0  0  0  0  0  0  0  0  0  0
   52.4165   52.0102   98.6512 C   0  0  0  0  0  0  0  0  0  0  0  0
   52.2166   52.6866   97.4406 C   0  0  0  0  0  0  0  0  0  0  0  0
   52.7714   52.1839   96.2617 C   0  0  0  0  0  0  0  0  0  0  0  0
   53.4942   51.0249   96.3880 C   0  0  0  0  0  0  0  0  0  0  0  0
   54.0125   50.6023   95.1894 C   0  0  0  0  0  0  0  0  0  0  0  0
   54.8503   49.3785   95.1140 C   0  0  0  0  0  0  0  0  0  0  0  0
   53.5643   51.5744   94.2929 C   0  0  0  0  0  0  0  0  0  0  0  0
   52.8221   52.5101   94.9665 N   0  0  0  0  0  0  0  0  0  0  0  0
   58.5268   46.6684   99.9524 C   0  0  0  0  0  0  0  0  0  0  0  0
   59.2344   45.4997   99.2872 C   0  0  0  0  0  0  0  0  0  0  0  0
  1  2  1  0
  2  3  1  0
  3  4  1  0
  4  5  2  0
  6  4  1  1
  6  7  1  0
  7  8  1  0
  8  9  1  0
  8 10  1  0
 10 11  1  0
 11 12  2  0
 11 13  1  0
 13 14  2  0
 14 15  1  0
 15 16  2  0
 16 17  1  0
 17 18  2  0
 18 19  1  0
 19 20  1  0
 19 21  2  0
 21 22  1  0
  3 23  1  0
 23 24  1  0
 12  6  1  0
 18 13  1  0
 10 20  1  6
 22 17  1  0
M  CHG  1   8   1
M  END
$$$$
