
     RDKit          3D

 24 27  0  0  0  0  0  0  0  0999 V2000
   55.6521   43.4036  101.4057 C   0  0  0  0  0  0  0  0  0  0  0  0
   56.5305   43.6650  100.2285 C   0  0  0  0  0  0  0  0  0  0  0  0
   56.7730   45.0734  100.0983 N   0  0  0  0  0  0  0  0  0  0  0  0
   55.9571   45.9723   99.4313 C   0  0  0  0  0  0  0  0  0  0  0  0
   54.7177   45.6123   99.2871 O   0  0  0  0  0  0  0  0  0  0  0  0
   56.2594   47.2789   98.8587 C   0  0  1  0  0  0  0  0  0  0  0  0
   57.0013   47.2898   97.5769 C   0  0  0  0  0  0  0  0  0  0  0  0
   57.3719   48.6580   97.2241 N   0  0  0  0  0  4  0  0  0  0  0  0
   58.2807   49.1409   98.2113 C   0  0  0  0  0  0  0  0  0  0  0  0
   56.2194   49.4885   97.0062 C   0  0  1  0  0  0  0  0  0  0  0  0
   55.0525   49.0755   97.8215 C   0  0  0  0  0  0  0  0  0  0  0  0
   55.0106   48.0927   98.6691 C   0  0  0  0  0  0  0  0  0  0  0  0
   53.8269   49.8622   97.6245 C   0  0  0  0  0  0  0  0  0  0  0  0
   52.5643   49.3538   97.8565 C   0  0  0  0  0  0  0  0  0  0  0  0
   51.5089   50.2010   97.5999 C   0  0  0  0  0  0  0  0  0  0  0  0
   51.6787   51.5099   97.1295 C   0  0  0  0  0  0  0  0  0  0  0  0
   52.9637   52.0072   96.9016 C   0  0  0  0  0  0  0  0  0  0  0  0
   53.9950   51.1421   97.1659 C   0  0  0  0  0  0  0  0  0  0  0  0
   55.2223   51.7077   96.9260 C   0  0  0  0  0  0  0  0  0  0  0  0
   56.4716   50.9445   97.1751 C   0  0  0  0  0  0  0  0  0  0  0  0
   54.8960   52.9927   96.4878 C   0  0  0  0  0  0  0  0  0  0  0  0
   53.5330   53.1420   96.4840 N   0  0  0  0  0  0  0  0  0  0  0  0
   58.0031   45.5585  100.7456 C   0  0  0  0  0  0  0  0  0  0  0  0
   59.2174   44.8857  100.1276 C   0  0  0  0  0  0  0  0  0  0  0  0
  1  2  1  0
  2  3  1  0
  3  4  1  0
  4  5  2  0
  6  4  1  6
  6  7  1  0
  7  8  1  0
  8  9  1  0
  8 10  1  0
 10 11  1  0
 11 12  2  0
 11 13  1  0
 13 14  2  0
 14 15  1  0
 15 16  2  0
 16 17  1  0
 17 18  2  0
 18 19  1  0
 19 20  1  0
 19 21  2  0
 21 22  1  0
  3 23  1  0
 23 24  1  0
 12  6  1  0
 18 13  1  0
 10 20  1  1
 22 17  1  0
M  CHG  1   8   1
M  END
$$$$
