
     RDKit          3D

 24 27  0  0  0  0  0  0  0  0999 V2000
   59.0749   44.6708  100.5494 C   0  0  0  0  0  0  0  0  0  0  0  0
   58.5042   45.9551  100.0488 C   0  0  0  0  0  0  0  0  0  0  0  0
   57.2271   46.1965  100.6570 N   0  0  0  0  0  0  0  0  0  0  0  0
   56.2071   46.9588  100.1117 C   0  0  0  0  0  0  0  0  0  0  0  0
   55.2609   47.3068  100.9305 O   0  0  0  0  0  0  0  0  0  0  0  0
   56.0163   47.4489   98.7517 C   0  0  1  0  0  0  0  0  0  0  0  0
   55.4058   46.5090   97.7836 C   0  0  0  0  0  0  0  0  0  0  0  0
   55.4378   47.0822   96.4404 N   0  0  0  0  0  4  0  0  0  0  0  0
   56.8019   47.2224   96.0492 C   0  0  0  0  0  0  0  0  0  0  0  0
   54.6568   48.2854   96.3501 C   0  0  1  0  0  0  0  0  0  0  0  0
   54.6120   49.0371   97.6266 C   0  0  0  0  0  0  0  0  0  0  0  0
   55.2013   48.7112   98.7368 C   0  0  0  0  0  0  0  0  0  0  0  0
   53.8023   50.2636   97.6159 C   0  0  0  0  0  0  0  0  0  0  0  0
   53.2214   50.7884   98.7532 C   0  0  0  0  0  0  0  0  0  0  0  0
   52.4664   51.9279   98.5824 C   0  0  0  0  0  0  0  0  0  0  0  0
   52.2822   52.5407   97.3360 C   0  0  0  0  0  0  0  0  0  0  0  0
   52.8786   51.9960   96.1967 C   0  0  0  0  0  0  0  0  0  0  0  0
   53.6244   50.8622   96.3966 C   0  0  0  0  0  0  0  0  0  0  0  0
   54.1830   50.3956   95.2329 C   0  0  0  0  0  0  0  0  0  0  0  0
   55.0504   49.1903   95.2373 C   0  0  0  0  0  0  0  0  0  0  0  0
   53.7358   51.3128   94.2797 C   0  0  0  0  0  0  0  0  0  0  0  0
   52.9551   52.2612   94.8889 N   0  0  0  0  0  0  0  0  0  0  0  0
   57.0288   45.5589  101.9691 C   0  0  0  0  0  0  0  0  0  0  0  0
   56.0826   44.3772  101.8366 C   0  0  0  0  0  0  0  0  0  0  0  0
  1  2  1  0
  2  3  1  0
  3  4  1  0
  4  5  2  0
  6  4  1  1
  6  7  1  0
  7  8  1  0
  8  9  1  0
  8 10  1  0
 10 11  1  0
 11 12  2  0
 11 13  1  0
 13 14  2  0
 14 15  1  0
 15 16  2  0
 16 17  1  0
 17 18  2  0
 18 19  1  0
 19 20  1  0
 19 21  2  0
 21 22  1  0
  3 23  1  0
 23 24  1  0
 12  6  1  0
 18 13  1  0
 10 20  1  6
 22 17  1  0
M  CHG  1   8   1
M  END
$$$$
