
     RDKit          3D

 24 27  0  0  0  0  0  0  0  0999 V2000
   59.5031   45.8870  100.6528 C   0  0  0  0  0  0  0  0  0  0  0  0
   58.3882   45.9443   99.6631 C   0  0  0  0  0  0  0  0  0  0  0  0
   57.1478   46.2107  100.3336 N   0  0  0  0  0  0  0  0  0  0  0  0
   56.1402   47.0370   99.8639 C   0  0  0  0  0  0  0  0  0  0  0  0
   55.2637   47.4169  100.7437 O   0  0  0  0  0  0  0  0  0  0  0  0
   55.8967   47.5649   98.5266 C   0  0  1  0  0  0  0  0  0  0  0  0
   55.1935   46.6737   97.5755 C   0  0  0  0  0  0  0  0  0  0  0  0
   55.1767   47.2748   96.2443 N   0  0  0  0  0  4  0  0  0  0  0  0
   56.5221   47.3655   95.7806 C   0  0  0  0  0  0  0  0  0  0  0  0
   54.4453   48.5118   96.2217 C   0  0  1  0  0  0  0  0  0  0  0  0
   54.5035   49.2362   97.5135 C   0  0  0  0  0  0  0  0  0  0  0  0
   55.1381   48.8608   98.5824 C   0  0  0  0  0  0  0  0  0  0  0  0
   53.7490   50.4959   97.5723 C   0  0  0  0  0  0  0  0  0  0  0  0
   53.2548   51.0195   98.7505 C   0  0  0  0  0  0  0  0  0  0  0  0
   52.5421   52.1936   98.6448 C   0  0  0  0  0  0  0  0  0  0  0  0
   52.3168   52.8414   97.4230 C   0  0  0  0  0  0  0  0  0  0  0  0
   52.8254   52.2973   96.2416 C   0  0  0  0  0  0  0  0  0  0  0  0
   53.5308   51.1286   96.3770 C   0  0  0  0  0  0  0  0  0  0  0  0
   54.0037   50.6647   95.1749 C   0  0  0  0  0  0  0  0  0  0  0  0
   54.8165   49.4237   95.1069 C   0  0  0  0  0  0  0  0  0  0  0  0
   53.5454   51.6211   94.2666 C   0  0  0  0  0  0  0  0  0  0  0  0
   52.8416   52.5881   94.9372 N   0  0  0  0  0  0  0  0  0  0  0  0
   56.9753   45.5251  101.6250 C   0  0  0  0  0  0  0  0  0  0  0  0
   55.9892   44.3782  101.4784 C   0  0  0  0  0  0  0  0  0  0  0  0
  1  2  1  0
  2  3  1  0
  3  4  1  0
  4  5  2  0
  6  4  1  1
  6  7  1  0
  7  8  1  0
  8  9  1  0
  8 10  1  0
 10 11  1  0
 11 12  2  0
 11 13  1  0
 13 14  2  0
 14 15  1  0
 15 16  2  0
 16 17  1  0
 17 18  2  0
 18 19  1  0
 19 20  1  0
 19 21  2  0
 21 22  1  0
  3 23  1  0
 23 24  1  0
 12  6  1  0
 18 13  1  0
 10 20  1  6
 22 17  1  0
M  CHG  1   8   1
M  END
$$$$
