
     RDKit          3D

 24 27  0  0  0  0  0  0  0  0999 V2000
   58.4785   42.8183   97.7218 C   0  0  0  0  0  0  0  0  0  0  0  0
   58.5271   44.1968   97.1535 C   0  0  0  0  0  0  0  0  0  0  0  0
   57.6307   45.0572   97.8715 N   0  0  0  0  0  0  0  0  0  0  0  0
   57.0791   46.2310   97.3849 C   0  0  0  0  0  0  0  0  0  0  0  0
   57.3149   46.4912   96.1346 O   0  0  0  0  0  0  0  0  0  0  0  0
   56.2604   47.2378   98.0499 C   0  0  1  0  0  0  0  0  0  0  0  0
   56.9634   48.1811   98.9496 C   0  0  0  0  0  0  0  0  0  0  0  0
   55.9945   49.0093   99.6631 N   0  0  0  0  0  4  0  0  0  0  0  0
   55.2202   48.1601  100.5074 C   0  0  0  0  0  0  0  0  0  0  0  0
   55.2283   49.8328   98.7684 C   0  0  1  0  0  0  0  0  0  0  0  0
   55.0427   49.2125   97.4352 C   0  0  0  0  0  0  0  0  0  0  0  0
   55.4825   48.0516   97.0546 C   0  0  0  0  0  0  0  0  0  0  0  0
   54.2949   50.0153   96.4573 C   0  0  0  0  0  0  0  0  0  0  0  0
   54.4596   49.8795   95.0932 C   0  0  0  0  0  0  0  0  0  0  0  0
   53.7102   50.7215   94.3014 C   0  0  0  0  0  0  0  0  0  0  0  0
   52.8231   51.6714   94.8247 C   0  0  0  0  0  0  0  0  0  0  0  0
   52.6690   51.7936   96.2073 C   0  0  0  0  0  0  0  0  0  0  0  0
   53.4270   50.9426   96.9708 C   0  0  0  0  0  0  0  0  0  0  0  0
   53.2119   51.1188   98.3148 C   0  0  0  0  0  0  0  0  0  0  0  0
   53.9173   50.2759   99.3134 C   0  0  0  0  0  0  0  0  0  0  0  0
   52.2652   52.1446   98.3498 C   0  0  0  0  0  0  0  0  0  0  0  0
   51.9596   52.5285   97.0694 N   0  0  0  0  0  0  0  0  0  0  0  0
   57.2962   44.6139   99.2349 C   0  0  0  0  0  0  0  0  0  0  0  0
   55.9325   43.9437   99.2453 C   0  0  0  0  0  0  0  0  0  0  0  0
  1  2  1  0
  2  3  1  0
  3  4  1  0
  4  5  2  0
  6  4  1  6
  6  7  1  0
  7  8  1  0
  8  9  1  0
  8 10  1  0
 10 11  1  0
 11 12  2  0
 11 13  1  0
 13 14  2  0
 14 15  1  0
 15 16  2  0
 16 17  1  0
 17 18  2  0
 18 19  1  0
 19 20  1  0
 19 21  2  0
 21 22  1  0
  3 23  1  0
 23 24  1  0
 12  6  1  0
 18 13  1  0
 10 20  1  1
 22 17  1  0
M  CHG  1   8   1
M  END
$$$$
