
     RDKit          3D

 24 27  0  0  0  0  0  0  0  0999 V2000
   56.3892   44.3142  101.2920 C   0  0  0  0  0  0  0  0  0  0  0  0
   57.4384   45.3567  101.4874 C   0  0  0  0  0  0  0  0  0  0  0  0
   57.5331   46.1849  100.3193 N   0  0  0  0  0  0  0  0  0  0  0  0
   56.5486   47.0443   99.8601 C   0  0  0  0  0  0  0  0  0  0  0  0
   55.7233   47.4908  100.7581 O   0  0  0  0  0  0  0  0  0  0  0  0
   56.2814   47.5445   98.5167 C   0  0  1  0  0  0  0  0  0  0  0  0
   55.6105   46.6142   97.5798 C   0  0  0  0  0  0  0  0  0  0  0  0
   55.5671   47.1963   96.2408 N   0  0  0  0  0  4  0  0  0  0  0  0
   56.9068   47.3323   95.7716 C   0  0  0  0  0  0  0  0  0  0  0  0
   54.7886   48.4039   96.2040 C   0  0  1  0  0  0  0  0  0  0  0  0
   54.8223   49.1472   97.4858 C   0  0  0  0  0  0  0  0  0  0  0  0
   55.4737   48.8109   98.5576 C   0  0  0  0  0  0  0  0  0  0  0  0
   54.0200   50.3777   97.5302 C   0  0  0  0  0  0  0  0  0  0  0  0
   53.5092   50.8977   98.7029 C   0  0  0  0  0  0  0  0  0  0  0  0
   52.7516   52.0421   98.5838 C   0  0  0  0  0  0  0  0  0  0  0  0
   52.4983   52.6642   97.3542 C   0  0  0  0  0  0  0  0  0  0  0  0
   53.0243   52.1242   96.1786 C   0  0  0  0  0  0  0  0  0  0  0  0
   53.7745   50.9854   96.3273 C   0  0  0  0  0  0  0  0  0  0  0  0
   54.2617   50.5239   95.1301 C   0  0  0  0  0  0  0  0  0  0  0  0
   55.1215   49.3143   95.0760 C   0  0  0  0  0  0  0  0  0  0  0  0
   53.7646   51.4497   94.2105 C   0  0  0  0  0  0  0  0  0  0  0  0
   53.0259   52.3979   94.8703 N   0  0  0  0  0  0  0  0  0  0  0  0
   58.8017   46.0802   99.5798 C   0  0  0  0  0  0  0  0  0  0  0  0
   59.8946   46.8437  100.3090 C   0  0  0  0  0  0  0  0  0  0  0  0
  1  2  1  0
  2  3  1  0
  3  4  1  0
  4  5  2  0
  6  4  1  1
  6  7  1  0
  7  8  1  0
  8  9  1  0
  8 10  1  0
 10 11  1  0
 11 12  2  0
 11 13  1  0
 13 14  2  0
 14 15  1  0
 15 16  2  0
 16 17  1  0
 17 18  2  0
 18 19  1  0
 19 20  1  0
 19 21  2  0
 21 22  1  0
  3 23  1  0
 23 24  1  0
 12  6  1  0
 18 13  1  0
 10 20  1  6
 22 17  1  0
M  CHG  1   8   1
M  END
$$$$
