
     RDKit          3D

 24 27  0  0  0  0  0  0  0  0999 V2000
   55.9978   44.4578  102.0722 C   0  0  0  0  0  0  0  0  0  0  0  0
   57.1489   45.3615  101.7822 C   0  0  0  0  0  0  0  0  0  0  0  0
   57.1043   45.7918  100.4139 N   0  0  0  0  0  0  0  0  0  0  0  0
   56.1431   46.6229   99.8624 C   0  0  0  0  0  0  0  0  0  0  0  0
   55.2355   47.0602  100.6821 O   0  0  0  0  0  0  0  0  0  0  0  0
   55.9788   47.1014   98.4949 C   0  0  1  0  0  0  0  0  0  0  0  0
   55.3029   46.1878   97.5452 C   0  0  0  0  0  0  0  0  0  0  0  0
   55.3664   46.7348   96.1923 N   0  0  0  0  0  4  0  0  0  0  0  0
   56.7350   46.7775   95.7939 C   0  0  0  0  0  0  0  0  0  0  0  0
   54.6665   47.9854   96.0840 C   0  0  1  0  0  0  0  0  0  0  0  0
   54.6775   48.7600   97.3476 C   0  0  0  0  0  0  0  0  0  0  0  0
   55.2491   48.4146   98.4612 C   0  0  0  0  0  0  0  0  0  0  0  0
   53.9508   50.0371   97.3186 C   0  0  0  0  0  0  0  0  0  0  0  0
   53.4112   50.6184   98.4488 C   0  0  0  0  0  0  0  0  0  0  0  0
   52.7326   51.8024   98.2611 C   0  0  0  0  0  0  0  0  0  0  0  0
   52.5835   52.4049   97.0050 C   0  0  0  0  0  0  0  0  0  0  0  0
   53.1372   51.8026   95.8732 C   0  0  0  0  0  0  0  0  0  0  0  0
   53.8072   50.6254   96.0898 C   0  0  0  0  0  0  0  0  0  0  0  0
   54.3282   50.1031   94.9324 C   0  0  0  0  0  0  0  0  0  0  0  0
   55.1139   48.8432   94.9544 C   0  0  0  0  0  0  0  0  0  0  0  0
   53.9383   51.0317   93.9652 C   0  0  0  0  0  0  0  0  0  0  0  0
   53.2250   52.0400   94.5608 N   0  0  0  0  0  0  0  0  0  0  0  0
   58.1929   45.2838   99.5629 C   0  0  0  0  0  0  0  0  0  0  0  0
   57.9285   43.8352   99.1879 C   0  0  0  0  0  0  0  0  0  0  0  0
  1  2  1  0
  2  3  1  0
  3  4  1  0
  4  5  2  0
  6  4  1  1
  6  7  1  0
  7  8  1  0
  8  9  1  0
  8 10  1  0
 10 11  1  0
 11 12  2  0
 11 13  1  0
 13 14  2  0
 14 15  1  0
 15 16  2  0
 16 17  1  0
 17 18  2  0
 18 19  1  0
 19 20  1  0
 19 21  2  0
 21 22  1  0
  3 23  1  0
 23 24  1  0
 12  6  1  0
 18 13  1  0
 10 20  1  6
 22 17  1  0
M  CHG  1   8   1
M  END
$$$$
