
     RDKit          3D

 24 27  0  0  0  0  0  0  0  0999 V2000
   59.4403   44.9444   95.5658 C   0  0  0  0  0  0  0  0  0  0  0  0
   59.2459   44.9518   97.0450 C   0  0  0  0  0  0  0  0  0  0  0  0
   59.7173   46.1896   97.5972 N   0  0  0  0  0  0  0  0  0  0  0  0
   58.9180   47.2432   98.0094 C   0  0  0  0  0  0  0  0  0  0  0  0
   59.5098   48.3943   98.1163 O   0  0  0  0  0  0  0  0  0  0  0  0
   57.4992   47.2791   98.3442 C   0  0  1  0  0  0  0  0  0  0  0  0
   57.1490   47.1575   99.7780 C   0  0  0  0  0  0  0  0  0  0  0  0
   55.7011   47.0408   99.9320 N   0  0  0  0  0  4  0  0  0  0  0  0
   55.2856   45.8223   99.3186 C   0  0  0  0  0  0  0  0  0  0  0  0
   55.0143   48.2152   99.4687 C   0  0  1  0  0  0  0  0  0  0  0  0
   55.7294   48.9001   98.3658 C   0  0  0  0  0  0  0  0  0  0  0  0
   56.8473   48.5275   97.8204 C   0  0  0  0  0  0  0  0  0  0  0  0
   55.0993   50.1293   97.8642 C   0  0  0  0  0  0  0  0  0  0  0  0
   55.8133   51.1451   97.2601 C   0  0  0  0  0  0  0  0  0  0  0  0
   55.0896   52.2492   96.8668 C   0  0  0  0  0  0  0  0  0  0  0  0
   53.7059   52.3611   97.0566 C   0  0  0  0  0  0  0  0  0  0  0  0
   53.0003   51.3229   97.6686 C   0  0  0  0  0  0  0  0  0  0  0  0
   53.7462   50.2364   98.0494 C   0  0  0  0  0  0  0  0  0  0  0  0
   52.9800   49.2586   98.6330 C   0  0  0  0  0  0  0  0  0  0  0  0
   53.5935   47.9868   99.0929 C   0  0  0  0  0  0  0  0  0  0  0  0
   51.6949   49.8036   98.5981 C   0  0  0  0  0  0  0  0  0  0  0  0
   51.7397   51.0431   98.0135 N   0  0  0  0  0  0  0  0  0  0  0  0
   61.1801   46.3034   97.7184 C   0  0  0  0  0  0  0  0  0  0  0  0
   61.6218   47.7195   97.3884 C   0  0  0  0  0  0  0  0  0  0  0  0
  1  2  1  0
  2  3  1  0
  3  4  1  0
  4  5  2  0
  6  4  1  1
  6  7  1  0
  7  8  1  0
  8  9  1  0
  8 10  1  0
 10 11  1  0
 11 12  2  0
 11 13  1  0
 13 14  2  0
 14 15  1  0
 15 16  2  0
 16 17  1  0
 17 18  2  0
 18 19  1  0
 19 20  1  0
 19 21  2  0
 21 22  1  0
  3 23  1  0
 23 24  1  0
 12  6  1  0
 18 13  1  0
 10 20  1  6
 22 17  1  0
M  CHG  1   8   1
M  END
$$$$
