
     RDKit          3D

 24 27  0  0  0  0  0  0  0  0999 V2000
   56.1281   44.1093  101.1276 C   0  0  0  0  0  0  0  0  0  0  0  0
   56.8665   44.5205   99.8982 C   0  0  0  0  0  0  0  0  0  0  0  0
   57.1104   45.9344   99.9202 N   0  0  0  0  0  0  0  0  0  0  0  0
   56.1947   46.9146   99.5744 C   0  0  0  0  0  0  0  0  0  0  0  0
   55.5132   47.4238  100.5557 O   0  0  0  0  0  0  0  0  0  0  0  0
   55.8653   47.4840   98.2731 C   0  0  1  0  0  0  0  0  0  0  0  0
   55.1027   46.6216   97.3414 C   0  0  0  0  0  0  0  0  0  0  0  0
   54.9999   47.2646   96.0338 N   0  0  0  0  0  4  0  0  0  0  0  0
   56.3126   47.3731   95.4875 C   0  0  0  0  0  0  0  0  0  0  0  0
   54.2681   48.4998   96.0976 C   0  0  1  0  0  0  0  0  0  0  0  0
   54.4091   49.1831   97.4053 C   0  0  0  0  0  0  0  0  0  0  0  0
   55.1113   48.7756   98.4187 C   0  0  0  0  0  0  0  0  0  0  0  0
   53.6593   50.4385   97.5526 C   0  0  0  0  0  0  0  0  0  0  0  0
   53.2419   50.9232   98.7762 C   0  0  0  0  0  0  0  0  0  0  0  0
   52.5234   52.0984   98.7540 C   0  0  0  0  0  0  0  0  0  0  0  0
   52.2195   52.7839   97.5704 C   0  0  0  0  0  0  0  0  0  0  0  0
   52.6512   52.2787   96.3421 C   0  0  0  0  0  0  0  0  0  0  0  0
   53.3643   51.1081   96.3945 C   0  0  0  0  0  0  0  0  0  0  0  0
   53.7590   50.6837   95.1504 C   0  0  0  0  0  0  0  0  0  0  0  0
   54.5662   49.4475   94.9908 C   0  0  0  0  0  0  0  0  0  0  0  0
   53.2427   51.6672   94.3043 C   0  0  0  0  0  0  0  0  0  0  0  0
   52.5832   52.6108   95.0492 N   0  0  0  0  0  0  0  0  0  0  0  0
   58.4603   46.3294  100.3551 C   0  0  0  0  0  0  0  0  0  0  0  0
   58.4552   46.6550  101.8394 C   0  0  0  0  0  0  0  0  0  0  0  0
  1  2  1  0
  2  3  1  0
  3  4  1  0
  4  5  2  0
  6  4  1  1
  6  7  1  0
  7  8  1  0
  8  9  1  0
  8 10  1  0
 10 11  1  0
 11 12  2  0
 11 13  1  0
 13 14  2  0
 14 15  1  0
 15 16  2  0
 16 17  1  0
 17 18  2  0
 18 19  1  0
 19 20  1  0
 19 21  2  0
 21 22  1  0
  3 23  1  0
 23 24  1  0
 12  6  1  0
 18 13  1  0
 10 20  1  6
 22 17  1  0
M  CHG  1   8   1
M  END
$$$$
