
     RDKit          3D

 24 27  0  0  0  0  0  0  0  0999 V2000
   58.2895   44.3016   99.6466 C   0  0  0  0  0  0  0  0  0  0  0  0
   56.8059   44.4317   99.5583 C   0  0  0  0  0  0  0  0  0  0  0  0
   56.3595   45.5328  100.3629 N   0  0  0  0  0  0  0  0  0  0  0  0
   55.9576   46.7688   99.8839 C   0  0  0  0  0  0  0  0  0  0  0  0
   55.6333   47.6466  100.7845 O   0  0  0  0  0  0  0  0  0  0  0  0
   55.8404   47.2603   98.5161 C   0  0  1  0  0  0  0  0  0  0  0  0
   55.1450   46.3805   97.5486 C   0  0  0  0  0  0  0  0  0  0  0  0
   55.2579   46.9307   96.2002 N   0  0  0  0  0  4  0  0  0  0  0  0
   56.6346   46.9171   95.8284 C   0  0  0  0  0  0  0  0  0  0  0  0
   54.6137   48.2103   96.0853 C   0  0  1  0  0  0  0  0  0  0  0  0
   54.6330   48.9778   97.3531 C   0  0  0  0  0  0  0  0  0  0  0  0
   55.1677   48.6033   98.4755 C   0  0  0  0  0  0  0  0  0  0  0  0
   53.9617   50.2847   97.3171 C   0  0  0  0  0  0  0  0  0  0  0  0
   53.4254   50.8832   98.4399 C   0  0  0  0  0  0  0  0  0  0  0  0
   52.8012   52.0958   98.2457 C   0  0  0  0  0  0  0  0  0  0  0  0
   52.7023   52.7099   96.9902 C   0  0  0  0  0  0  0  0  0  0  0  0
   53.2518   52.0899   95.8660 C   0  0  0  0  0  0  0  0  0  0  0  0
   53.8671   50.8843   96.0890 C   0  0  0  0  0  0  0  0  0  0  0  0
   54.3879   50.3458   94.9390 C   0  0  0  0  0  0  0  0  0  0  0  0
   55.1190   49.0536   94.9692 C   0  0  0  0  0  0  0  0  0  0  0  0
   54.0565   51.2946   93.9696 C   0  0  0  0  0  0  0  0  0  0  0  0
   53.3751   52.3294   94.5568 N   0  0  0  0  0  0  0  0  0  0  0  0
   56.3421   45.2808  101.8133 C   0  0  0  0  0  0  0  0  0  0  0  0
   57.4152   46.1098  102.4992 C   0  0  0  0  0  0  0  0  0  0  0  0
  1  2  1  0
  2  3  1  0
  3  4  1  0
  4  5  2  0
  6  4  1  1
  6  7  1  0
  7  8  1  0
  8  9  1  0
  8 10  1  0
 10 11  1  0
 11 12  2  0
 11 13  1  0
 13 14  2  0
 14 15  1  0
 15 16  2  0
 16 17  1  0
 17 18  2  0
 18 19  1  0
 19 20  1  0
 19 21  2  0
 21 22  1  0
  3 23  1  0
 23 24  1  0
 12  6  1  0
 18 13  1  0
 10 20  1  6
 22 17  1  0
M  CHG  1   8   1
M  END
$$$$
