
     RDKit          3D

 24 27  0  0  0  0  0  0  0  0999 V2000
   58.5013   44.2899   99.6671 C   0  0  0  0  0  0  0  0  0  0  0  0
   58.5117   45.7726   99.8320 C   0  0  0  0  0  0  0  0  0  0  0  0
   57.3179   46.2017  100.5028 N   0  0  0  0  0  0  0  0  0  0  0  0
   56.3262   46.9964   99.9515 C   0  0  0  0  0  0  0  0  0  0  0  0
   55.3929   47.3839  100.7672 O   0  0  0  0  0  0  0  0  0  0  0  0
   56.1537   47.4833   98.5879 C   0  0  1  0  0  0  0  0  0  0  0  0
   55.4713   46.5758   97.6370 C   0  0  0  0  0  0  0  0  0  0  0  0
   55.5267   47.1310   96.2870 N   0  0  0  0  0  4  0  0  0  0  0  0
   56.8928   47.1753   95.8804 C   0  0  0  0  0  0  0  0  0  0  0  0
   54.8269   48.3826   96.1907 C   0  0  1  0  0  0  0  0  0  0  0  0
   54.8463   49.1496   97.4589 C   0  0  0  0  0  0  0  0  0  0  0  0
   55.4247   48.7971   98.5667 C   0  0  0  0  0  0  0  0  0  0  0  0
   54.1204   50.4272   97.4422 C   0  0  0  0  0  0  0  0  0  0  0  0
   53.5882   51.0021   98.5792 C   0  0  0  0  0  0  0  0  0  0  0  0
   52.9092   52.1876   98.4030 C   0  0  0  0  0  0  0  0  0  0  0  0
   52.7527   52.7978   97.1514 C   0  0  0  0  0  0  0  0  0  0  0  0
   53.2988   52.2020   96.0126 C   0  0  0  0  0  0  0  0  0  0  0  0
   53.9695   51.0231   96.2179 C   0  0  0  0  0  0  0  0  0  0  0  0
   54.4828   50.5076   95.0541 C   0  0  0  0  0  0  0  0  0  0  0  0
   55.2678   49.2470   95.0636 C   0  0  0  0  0  0  0  0  0  0  0  0
   54.0875   51.4422   94.0950 C   0  0  0  0  0  0  0  0  0  0  0  0
   53.3786   52.4473   94.7011 N   0  0  0  0  0  0  0  0  0  0  0  0
   57.1775   45.7323  101.8911 C   0  0  0  0  0  0  0  0  0  0  0  0
   57.0269   44.2204  101.9173 C   0  0  0  0  0  0  0  0  0  0  0  0
  1  2  1  0
  2  3  1  0
  3  4  1  0
  4  5  2  0
  6  4  1  1
  6  7  1  0
  7  8  1  0
  8  9  1  0
  8 10  1  0
 10 11  1  0
 11 12  2  0
 11 13  1  0
 13 14  2  0
 14 15  1  0
 15 16  2  0
 16 17  1  0
 17 18  2  0
 18 19  1  0
 19 20  1  0
 19 21  2  0
 21 22  1  0
  3 23  1  0
 23 24  1  0
 12  6  1  0
 18 13  1  0
 10 20  1  6
 22 17  1  0
M  CHG  1   8   1
M  END
$$$$
