
     RDKit          3D

 24 27  0  0  0  0  0  0  0  0999 V2000
   59.1173   44.5764   99.6548 C   0  0  0  0  0  0  0  0  0  0  0  0
   58.5320   45.9334   99.4507 C   0  0  0  0  0  0  0  0  0  0  0  0
   57.2629   46.0270  100.1139 N   0  0  0  0  0  0  0  0  0  0  0  0
   56.1558   46.7117   99.6402 C   0  0  0  0  0  0  0  0  0  0  0  0
   55.2018   46.9082  100.4993 O   0  0  0  0  0  0  0  0  0  0  0  0
   55.8788   47.2627   98.3189 C   0  0  1  0  0  0  0  0  0  0  0  0
   55.1786   46.3771   97.3604 C   0  0  0  0  0  0  0  0  0  0  0  0
   55.1268   47.0060   96.0430 N   0  0  0  0  0  4  0  0  0  0  0  0
   56.4620   47.1353   95.5593 C   0  0  0  0  0  0  0  0  0  0  0  0
   54.3692   48.2272   96.0591 C   0  0  1  0  0  0  0  0  0  0  0  0
   54.4338   48.9249   97.3652 C   0  0  0  0  0  0  0  0  0  0  0  0
   55.0940   48.5406   98.4151 C   0  0  0  0  0  0  0  0  0  0  0  0
   53.6540   50.1667   97.4636 C   0  0  0  0  0  0  0  0  0  0  0  0
   53.1687   50.6543   98.6608 C   0  0  0  0  0  0  0  0  0  0  0  0
   52.4298   51.8148   98.5923 C   0  0  0  0  0  0  0  0  0  0  0  0
   52.1704   52.4835   97.3887 C   0  0  0  0  0  0  0  0  0  0  0  0
   52.6704   51.9758   96.1876 C   0  0  0  0  0  0  0  0  0  0  0  0
   53.4024   50.8199   96.2860 C   0  0  0  0  0  0  0  0  0  0  0  0
   53.8647   50.3920   95.0667 C   0  0  0  0  0  0  0  0  0  0  0  0
   54.7023   49.1704   94.9584 C   0  0  0  0  0  0  0  0  0  0  0  0
   53.3712   51.3575   94.1869 C   0  0  0  0  0  0  0  0  0  0  0  0
   52.6585   52.2946   94.8897 N   0  0  0  0  0  0  0  0  0  0  0  0
   57.1765   45.3188  101.4016 C   0  0  0  0  0  0  0  0  0  0  0  0
   56.2233   44.1410  101.2858 C   0  0  0  0  0  0  0  0  0  0  0  0
  1  2  1  0
  2  3  1  0
  3  4  1  0
  4  5  2  0
  6  4  1  1
  6  7  1  0
  7  8  1  0
  8  9  1  0
  8 10  1  0
 10 11  1  0
 11 12  2  0
 11 13  1  0
 13 14  2  0
 14 15  1  0
 15 16  2  0
 16 17  1  0
 17 18  2  0
 18 19  1  0
 19 20  1  0
 19 21  2  0
 21 22  1  0
  3 23  1  0
 23 24  1  0
 12  6  1  0
 18 13  1  0
 10 20  1  6
 22 17  1  0
M  CHG  1   8   1
M  END
$$$$
