
     RDKit          3D

 24 27  0  0  0  0  0  0  0  0999 V2000
   58.2598   44.1434   99.6348 C   0  0  0  0  0  0  0  0  0  0  0  0
   58.2230   45.6072   99.9202 C   0  0  0  0  0  0  0  0  0  0  0  0
   56.9657   45.9616  100.5141 N   0  0  0  0  0  0  0  0  0  0  0  0
   56.0014   46.7700   99.9351 C   0  0  0  0  0  0  0  0  0  0  0  0
   55.0348   47.1465  100.7166 O   0  0  0  0  0  0  0  0  0  0  0  0
   55.8896   47.2823   98.5744 C   0  0  1  0  0  0  0  0  0  0  0  0
   55.2245   46.4048   97.5839 C   0  0  0  0  0  0  0  0  0  0  0  0
   55.3414   46.9803   96.2464 N   0  0  0  0  0  4  0  0  0  0  0  0
   56.7222   47.0023   95.8911 C   0  0  0  0  0  0  0  0  0  0  0  0
   54.6714   48.2477   96.1455 C   0  0  1  0  0  0  0  0  0  0  0  0
   54.6594   48.9936   97.4262 C   0  0  0  0  0  0  0  0  0  0  0  0
   55.1889   48.6113   98.5485 C   0  0  0  0  0  0  0  0  0  0  0  0
   53.9609   50.2865   97.4043 C   0  0  0  0  0  0  0  0  0  0  0  0
   53.3988   50.8541   98.5305 C   0  0  0  0  0  0  0  0  0  0  0  0
   52.7512   52.0563   98.3493 C   0  0  0  0  0  0  0  0  0  0  0  0
   52.6538   52.6897   97.1033 C   0  0  0  0  0  0  0  0  0  0  0  0
   53.2296   52.1008   95.9754 C   0  0  0  0  0  0  0  0  0  0  0  0
   53.8678   50.9049   96.1855 C   0  0  0  0  0  0  0  0  0  0  0  0
   54.4134   50.3974   95.0329 C   0  0  0  0  0  0  0  0  0  0  0  0
   55.1715   49.1206   95.0500 C   0  0  0  0  0  0  0  0  0  0  0  0
   54.0732   51.3554   94.0757 C   0  0  0  0  0  0  0  0  0  0  0  0
   53.3630   52.3654   94.6721 N   0  0  0  0  0  0  0  0  0  0  0  0
   56.7232   45.3936  101.8505 C   0  0  0  0  0  0  0  0  0  0  0  0
   56.9129   46.4628  102.9135 C   0  0  0  0  0  0  0  0  0  0  0  0
  1  2  1  0
  2  3  1  0
  3  4  1  0
  4  5  2  0
  6  4  1  1
  6  7  1  0
  7  8  1  0
  8  9  1  0
  8 10  1  0
 10 11  1  0
 11 12  2  0
 11 13  1  0
 13 14  2  0
 14 15  1  0
 15 16  2  0
 16 17  1  0
 17 18  2  0
 18 19  1  0
 19 20  1  0
 19 21  2  0
 21 22  1  0
  3 23  1  0
 23 24  1  0
 12  6  1  0
 18 13  1  0
 10 20  1  6
 22 17  1  0
M  CHG  1   8   1
M  END
$$$$
