
     RDKit          3D

 24 27  0  0  0  0  0  0  0  0999 V2000
   58.6090   43.8353   99.9826 C   0  0  0  0  0  0  0  0  0  0  0  0
   58.2642   45.2464   99.6424 C   0  0  0  0  0  0  0  0  0  0  0  0
   57.0337   45.6198  100.2793 N   0  0  0  0  0  0  0  0  0  0  0  0
   56.1594   46.5963   99.8312 C   0  0  0  0  0  0  0  0  0  0  0  0
   55.3326   47.0649  100.7163 O   0  0  0  0  0  0  0  0  0  0  0  0
   56.0121   47.2005   98.5123 C   0  0  1  0  0  0  0  0  0  0  0  0
   55.3988   46.3599   97.4584 C   0  0  0  0  0  0  0  0  0  0  0  0
   55.4759   47.0393   96.1675 N   0  0  0  0  0  4  0  0  0  0  0  0
   56.8517   47.1722   95.8167 C   0  0  0  0  0  0  0  0  0  0  0  0
   54.7293   48.2673   96.1603 C   0  0  1  0  0  0  0  0  0  0  0  0
   54.6758   48.9138   97.4929 C   0  0  0  0  0  0  0  0  0  0  0  0
   55.2313   48.4823   98.5844 C   0  0  0  0  0  0  0  0  0  0  0  0
   53.8993   50.1594   97.5663 C   0  0  0  0  0  0  0  0  0  0  0  0
   53.3072   50.6062   98.7308 C   0  0  0  0  0  0  0  0  0  0  0  0
   52.5866   51.7767   98.6387 C   0  0  0  0  0  0  0  0  0  0  0  0
   52.4466   52.4937   97.4431 C   0  0  0  0  0  0  0  0  0  0  0  0
   53.0537   52.0267   96.2753 C   0  0  0  0  0  0  0  0  0  0  0  0
   53.7646   50.8599   96.3967 C   0  0  0  0  0  0  0  0  0  0  0  0
   54.3365   50.4738   95.2103 C   0  0  0  0  0  0  0  0  0  0  0  0
   55.1714   49.2481   95.1334 C   0  0  0  0  0  0  0  0  0  0  0  0
   53.9352   51.4777   94.3265 C   0  0  0  0  0  0  0  0  0  0  0  0
   53.1665   52.3951   94.9955 N   0  0  0  0  0  0  0  0  0  0  0  0
   56.7142   44.8743  101.5079 C   0  0  0  0  0  0  0  0  0  0  0  0
   57.1096   45.6879  102.7290 C   0  0  0  0  0  0  0  0  0  0  0  0
  1  2  1  0
  2  3  1  0
  3  4  1  0
  4  5  2  0
  6  4  1  1
  6  7  1  0
  7  8  1  0
  8  9  1  0
  8 10  1  0
 10 11  1  0
 11 12  2  0
 11 13  1  0
 13 14  2  0
 14 15  1  0
 15 16  2  0
 16 17  1  0
 17 18  2  0
 18 19  1  0
 19 20  1  0
 19 21  2  0
 21 22  1  0
  3 23  1  0
 23 24  1  0
 12  6  1  0
 18 13  1  0
 10 20  1  6
 22 17  1  0
M  CHG  1   8   1
M  END
$$$$
