
     RDKit          3D

 24 27  0  0  0  0  0  0  0  0999 V2000
   56.1063   44.1619  101.1742 C   0  0  0  0  0  0  0  0  0  0  0  0
   57.2494   45.0969  101.3860 C   0  0  0  0  0  0  0  0  0  0  0  0
   57.3282   46.0319  100.3003 N   0  0  0  0  0  0  0  0  0  0  0  0
   56.2884   46.8256   99.8445 C   0  0  0  0  0  0  0  0  0  0  0  0
   55.3990   47.1570  100.7309 O   0  0  0  0  0  0  0  0  0  0  0  0
   56.0227   47.3648   98.5160 C   0  0  1  0  0  0  0  0  0  0  0  0
   55.3200   46.4748   97.5633 C   0  0  0  0  0  0  0  0  0  0  0  0
   55.2801   47.0901   96.2391 N   0  0  0  0  0  4  0  0  0  0  0  0
   56.6188   47.2033   95.7609 C   0  0  0  0  0  0  0  0  0  0  0  0
   54.5326   48.3177   96.2384 C   0  0  1  0  0  0  0  0  0  0  0  0
   54.5965   49.0287   97.5373 C   0  0  0  0  0  0  0  0  0  0  0  0
   55.2481   48.6500   98.5947 C   0  0  0  0  0  0  0  0  0  0  0  0
   53.8265   50.2778   97.6186 C   0  0  0  0  0  0  0  0  0  0  0  0
   53.3393   50.7821   98.8081 C   0  0  0  0  0  0  0  0  0  0  0  0
   52.6104   51.9479   98.7235 C   0  0  0  0  0  0  0  0  0  0  0  0
   52.3626   52.6059   97.5116 C   0  0  0  0  0  0  0  0  0  0  0  0
   52.8644   52.0813   96.3185 C   0  0  0  0  0  0  0  0  0  0  0  0
   53.5863   50.9205   96.4329 C   0  0  0  0  0  0  0  0  0  0  0  0
   54.0512   50.4759   95.2205 C   0  0  0  0  0  0  0  0  0  0  0  0
   54.8791   49.2464   95.1295 C   0  0  0  0  0  0  0  0  0  0  0  0
   53.5702   51.4360   94.3281 C   0  0  0  0  0  0  0  0  0  0  0  0
   52.8618   52.3865   95.0173 N   0  0  0  0  0  0  0  0  0  0  0  0
   58.6446   46.1224   99.6474 C   0  0  0  0  0  0  0  0  0  0  0  0
   59.4927   44.9163  100.0149 C   0  0  0  0  0  0  0  0  0  0  0  0
  1  2  1  0
  2  3  1  0
  3  4  1  0
  4  5  2  0
  6  4  1  1
  6  7  1  0
  7  8  1  0
  8  9  1  0
  8 10  1  0
 10 11  1  0
 11 12  2  0
 11 13  1  0
 13 14  2  0
 14 15  1  0
 15 16  2  0
 16 17  1  0
 17 18  2  0
 18 19  1  0
 19 20  1  0
 19 21  2  0
 21 22  1  0
  3 23  1  0
 23 24  1  0
 12  6  1  0
 18 13  1  0
 10 20  1  6
 22 17  1  0
M  CHG  1   8   1
M  END
$$$$
