
     RDKit          3D

 24 27  0  0  0  0  0  0  0  0999 V2000
   59.5101   46.4759   99.5925 C   0  0  0  0  0  0  0  0  0  0  0  0
   58.5136   45.3679   99.6643 C   0  0  0  0  0  0  0  0  0  0  0  0
   57.3308   45.8128  100.3441 N   0  0  0  0  0  0  0  0  0  0  0  0
   56.5028   46.8425   99.9283 C   0  0  0  0  0  0  0  0  0  0  0  0
   55.8563   47.4634  100.8682 O   0  0  0  0  0  0  0  0  0  0  0  0
   56.2341   47.3587   98.5913 C   0  0  1  0  0  0  0  0  0  0  0  0
   55.5263   46.4537   97.6567 C   0  0  0  0  0  0  0  0  0  0  0  0
   55.4837   47.0455   96.3219 N   0  0  0  0  0  4  0  0  0  0  0  0
   56.8212   47.1467   95.8377 C   0  0  0  0  0  0  0  0  0  0  0  0
   54.7393   48.2747   96.3017 C   0  0  1  0  0  0  0  0  0  0  0  0
   54.8089   49.0085   97.5876 C   0  0  0  0  0  0  0  0  0  0  0  0
   55.4630   48.6470   98.6495 C   0  0  0  0  0  0  0  0  0  0  0  0
   54.0423   50.2608   97.6490 C   0  0  0  0  0  0  0  0  0  0  0  0
   53.5600   50.7873   98.8308 C   0  0  0  0  0  0  0  0  0  0  0  0
   52.8338   51.9533   98.7278 C   0  0  0  0  0  0  0  0  0  0  0  0
   52.5837   52.5902   97.5051 C   0  0  0  0  0  0  0  0  0  0  0  0
   53.0805   52.0433   96.3201 C   0  0  0  0  0  0  0  0  0  0  0  0
   53.7999   50.8829   96.4528 C   0  0  0  0  0  0  0  0  0  0  0  0
   54.2599   50.4156   95.2471 C   0  0  0  0  0  0  0  0  0  0  0  0
   55.0845   49.1826   95.1754 C   0  0  0  0  0  0  0  0  0  0  0  0
   53.7784   51.3610   94.3392 C   0  0  0  0  0  0  0  0  0  0  0  0
   53.0746   52.3253   95.0136 N   0  0  0  0  0  0  0  0  0  0  0  0
   57.0089   45.0831  101.5815 C   0  0  0  0  0  0  0  0  0  0  0  0
   56.0150   43.9718  101.2877 C   0  0  0  0  0  0  0  0  0  0  0  0
  1  2  1  0
  2  3  1  0
  3  4  1  0
  4  5  2  0
  6  4  1  1
  6  7  1  0
  7  8  1  0
  8  9  1  0
  8 10  1  0
 10 11  1  0
 11 12  2  0
 11 13  1  0
 13 14  2  0
 14 15  1  0
 15 16  2  0
 16 17  1  0
 17 18  2  0
 18 19  1  0
 19 20  1  0
 19 21  2  0
 21 22  1  0
  3 23  1  0
 23 24  1  0
 12  6  1  0
 18 13  1  0
 10 20  1  6
 22 17  1  0
M  CHG  1   8   1
M  END
$$$$
