
     RDKit          3D

 22 24  0  0  0  0  0  0  0  0999 V2000
    5.3444   -6.7763    0.6794 N   0  0  0  0  0  0  0  0  0  0  0  0
    5.0326   -5.7725    1.2074 C   0  0  0  0  0  0  0  0  0  0  0  0
    4.6537   -4.5426    1.8352 C   0  0  0  0  0  0  0  0  0  0  0  0
    4.9364   -4.3413    3.1648 C   0  0  0  0  0  0  0  0  0  0  0  0
    4.5789   -3.1623    3.7870 C   0  0  0  0  0  0  0  0  0  0  0  0
    4.9531   -2.9260    5.4986 Cl  0  0  0  0  0  0  0  0  0  0  0  0
    3.9390   -2.1596    3.1207 C   0  0  0  0  0  0  0  0  0  0  0  0
    3.6464   -2.3519    1.7701 C   0  0  0  0  0  0  0  0  0  0  0  0
    4.0072   -3.5278    1.1650 C   0  0  0  0  0  0  0  0  0  0  0  0
    2.9649   -1.2954    1.0427 C   0  0  0  0  0  0  0  0  0  0  0  0
    3.2524   -1.1102   -0.2620 N   0  0  0  0  0  0  0  0  0  0  0  0
    2.6662   -0.1549   -1.0066 C   0  0  0  0  0  0  0  0  0  0  0  0
    1.7574    0.6419   -0.4128 N   0  0  0  0  0  0  0  0  0  0  0  0
    1.4051    0.5360    0.8770 C   0  0  0  0  0  0  0  0  0  0  0  0
    2.0317   -0.4645    1.6199 C   0  0  0  0  0  0  0  0  0  0  0  0
    0.4212    1.4040    1.5056 C   0  0  0  0  0  0  0  0  0  0  0  0
   -0.3232    2.2442    0.7137 C   0  0  0  0  0  0  0  0  0  0  0  0
   -1.2794    3.1029    1.2200 C   0  0  0  0  0  0  0  0  0  0  0  0
   -1.4977    3.1187    2.5801 C   0  0  0  0  0  0  0  0  0  0  0  0
   -0.7431    2.2703    3.3604 C   0  0  0  0  0  0  0  0  0  0  0  0
    0.1946    1.4336    2.8268 N   0  0  0  0  0  0  0  0  0  0  0  0
   -2.4322    3.9516    3.1185 F   0  0  0  0  0  0  0  0  0  0  0  0
  1  2  3  0
  2  3  1  0
  3  4  2  0
  4  5  1  0
  5  6  1  0
  5  7  2  0
  7  8  1  0
  8  9  2  0
  8 10  1  0
 10 11  2  0
 11 12  1  0
 12 13  2  0
 13 14  1  0
 14 15  2  0
 14 16  1  0
 16 17  2  0
 17 18  1  0
 18 19  2  0
 19 20  1  0
 20 21  2  0
 19 22  1  0
  9  3  1  0
 15 10  1  0
 21 16  1  0
M  END
$$$$
