
     RDKit          3D

 22 24  0  0  0  0  0  0  0  0999 V2000
   -0.1266   -7.7515   -2.0222 N   0  0  0  0  0  0  0  0  0  0  0  0
    0.5140   -6.8181   -1.7026 C   0  0  0  0  0  0  0  0  0  0  0  0
    1.3078   -5.6914   -1.3144 C   0  0  0  0  0  0  0  0  0  0  0  0
    1.8331   -4.8641   -2.2777 C   0  0  0  0  0  0  0  0  0  0  0  0
    2.6007   -3.7734   -1.9226 C   0  0  0  0  0  0  0  0  0  0  0  0
    3.2659   -2.7232   -3.1796 Cl  0  0  0  0  0  0  0  0  0  0  0  0
    2.8682   -3.4722   -0.6200 C   0  0  0  0  0  0  0  0  0  0  0  0
    2.3405   -4.3047    0.3674 C   0  0  0  0  0  0  0  0  0  0  0  0
    1.5799   -5.3844    0.0004 C   0  0  0  0  0  0  0  0  0  0  0  0
    2.6143   -4.0006    1.7611 C   0  0  0  0  0  0  0  0  0  0  0  0
    1.6814   -4.2958    2.6895 N   0  0  0  0  0  0  0  0  0  0  0  0
    1.8567   -4.0466    4.0002 C   0  0  0  0  0  0  0  0  0  0  0  0
    3.0150   -3.4791    4.3874 N   0  0  0  0  0  0  0  0  0  0  0  0
    4.0013   -3.1494    3.5404 C   0  0  0  0  0  0  0  0  0  0  0  0
    3.7870   -3.4213    2.1892 C   0  0  0  0  0  0  0  0  0  0  0  0
    5.2479   -2.5366    3.9729 C   0  0  0  0  0  0  0  0  0  0  0  0
    5.4857   -2.3971    5.3186 C   0  0  0  0  0  0  0  0  0  0  0  0
    6.6391   -1.8283    5.8230 C   0  0  0  0  0  0  0  0  0  0  0  0
    7.5950   -1.3804    4.9379 C   0  0  0  0  0  0  0  0  0  0  0  0
    7.3415   -1.5276    3.5917 C   0  0  0  0  0  0  0  0  0  0  0  0
    6.1898   -2.0948    3.1270 N   0  0  0  0  0  0  0  0  0  0  0  0
    8.7465   -0.8134    5.3957 F   0  0  0  0  0  0  0  0  0  0  0  0
  1  2  3  0
  2  3  1  0
  3  4  2  0
  4  5  1  0
  5  6  1  0
  5  7  2  0
  7  8  1  0
  8  9  2  0
  8 10  1  0
 10 11  2  0
 11 12  1  0
 12 13  2  0
 13 14  1  0
 14 15  2  0
 14 16  1  0
 16 17  2  0
 17 18  1  0
 18 19  2  0
 19 20  1  0
 20 21  2  0
 19 22  1  0
  9  3  1  0
 15 10  1  0
 21 16  1  0
M  END
$$$$
