
     RDKit          3D

 22 24  0  0  0  0  0  0  0  0999 V2000
    3.8769   -6.3852    8.6940 N   0  0  0  0  0  0  0  0  0  0  0  0
    3.2492   -5.8629    7.8472 C   0  0  0  0  0  0  0  0  0  0  0  0
    2.4912   -5.2120    6.8216 C   0  0  0  0  0  0  0  0  0  0  0  0
    1.1358   -5.4227    6.7389 C   0  0  0  0  0  0  0  0  0  0  0  0
    0.3887   -4.8040    5.7570 C   0  0  0  0  0  0  0  0  0  0  0  0
   -1.3537   -5.0904    5.6704 Cl  0  0  0  0  0  0  0  0  0  0  0  0
    0.9531   -3.9687    4.8390 C   0  0  0  0  0  0  0  0  0  0  0  0
    2.3285   -3.7467    4.9126 C   0  0  0  0  0  0  0  0  0  0  0  0
    3.0582   -4.3677    5.8928 C   0  0  0  0  0  0  0  0  0  0  0  0
    2.9486   -2.8600    3.9435 C   0  0  0  0  0  0  0  0  0  0  0  0
    4.2940   -2.8299    3.8528 N   0  0  0  0  0  0  0  0  0  0  0  0
    4.9459   -2.0375    2.9824 C   0  0  0  0  0  0  0  0  0  0  0  0
    4.2135   -1.2472    2.1747 N   0  0  0  0  0  0  0  0  0  0  0  0
    2.8729   -1.2066    2.1899 C   0  0  0  0  0  0  0  0  0  0  0  0
    2.2290   -2.0404    3.1040 C   0  0  0  0  0  0  0  0  0  0  0  0
    2.0942   -0.3476    1.3111 C   0  0  0  0  0  0  0  0  0  0  0  0
    2.7164    0.2384    0.2357 C   0  0  0  0  0  0  0  0  0  0  0  0
    2.0595    1.0679   -0.6523 C   0  0  0  0  0  0  0  0  0  0  0  0
    0.7200    1.3199   -0.4518 C   0  0  0  0  0  0  0  0  0  0  0  0
    0.1108    0.7247    0.6310 C   0  0  0  0  0  0  0  0  0  0  0  0
    0.7904   -0.0907    1.4898 N   0  0  0  0  0  0  0  0  0  0  0  0
    0.0364    2.1327   -1.3055 F   0  0  0  0  0  0  0  0  0  0  0  0
  1  2  3  0
  2  3  1  0
  3  4  2  0
  4  5  1  0
  5  6  1  0
  5  7  2  0
  7  8  1  0
  8  9  2  0
  8 10  1  0
 10 11  2  0
 11 12  1  0
 12 13  2  0
 13 14  1  0
 14 15  2  0
 14 16  1  0
 16 17  2  0
 17 18  1  0
 18 19  2  0
 19 20  1  0
 20 21  2  0
 19 22  1  0
  9  3  1  0
 15 10  1  0
 21 16  1  0
M  END
$$$$
