
     RDKit          3D

 22 24  0  0  0  0  0  0  0  0999 V2000
    2.8202   -0.4462   -4.0338 N   0  0  0  0  0  0  0  0  0  0  0  0
    2.5526   -0.3708   -2.8908 C   0  0  0  0  0  0  0  0  0  0  0  0
    2.2172   -0.2931   -1.5010 C   0  0  0  0  0  0  0  0  0  0  0  0
    1.1541    0.4793   -1.0991 C   0  0  0  0  0  0  0  0  0  0  0  0
    0.8159    0.5664    0.2362 C   0  0  0  0  0  0  0  0  0  0  0  0
   -0.5559    1.5666    0.7295 Cl  0  0  0  0  0  0  0  0  0  0  0  0
    1.5107   -0.0997    1.2019 C   0  0  0  0  0  0  0  0  0  0  0  0
    2.5922   -0.8874    0.8064 C   0  0  0  0  0  0  0  0  0  0  0  0
    2.9169   -0.9648   -0.5231 C   0  0  0  0  0  0  0  0  0  0  0  0
    3.3451   -1.6050    1.8204 C   0  0  0  0  0  0  0  0  0  0  0  0
    4.6643   -1.8118    1.6302 N   0  0  0  0  0  0  0  0  0  0  0  0
    5.4326   -2.4666    2.5199 C   0  0  0  0  0  0  0  0  0  0  0  0
    4.8484   -2.9291    3.6416 N   0  0  0  0  0  0  0  0  0  0  0  0
    3.5457   -2.7733    3.9202 C   0  0  0  0  0  0  0  0  0  0  0  0
    2.7782   -2.0901    2.9769 C   0  0  0  0  0  0  0  0  0  0  0  0
    2.9276   -3.2783    5.1366 C   0  0  0  0  0  0  0  0  0  0  0  0
    3.6451   -4.1313    5.9394 C   0  0  0  0  0  0  0  0  0  0  0  0
    3.1422   -4.6610    7.1119 C   0  0  0  0  0  0  0  0  0  0  0  0
    1.8637   -4.3194    7.4948 C   0  0  0  0  0  0  0  0  0  0  0  0
    1.1574   -3.4630    6.6788 C   0  0  0  0  0  0  0  0  0  0  0  0
    1.6852   -2.9574    5.5256 N   0  0  0  0  0  0  0  0  0  0  0  0
    1.3314   -4.8208    8.6447 F   0  0  0  0  0  0  0  0  0  0  0  0
  1  2  3  0
  2  3  1  0
  3  4  2  0
  4  5  1  0
  5  6  1  0
  5  7  2  0
  7  8  1  0
  8  9  2  0
  8 10  1  0
 10 11  2  0
 11 12  1  0
 12 13  2  0
 13 14  1  0
 14 15  2  0
 14 16  1  0
 16 17  2  0
 17 18  1  0
 18 19  2  0
 19 20  1  0
 20 21  2  0
 19 22  1  0
  9  3  1  0
 15 10  1  0
 21 16  1  0
M  END
$$$$
