
     RDKit          3D

 22 24  0  0  0  0  0  0  0  0999 V2000
    2.4161    0.5262   -4.8870 N   0  0  0  0  0  0  0  0  0  0  0  0
    2.2563    0.4348   -3.7251 C   0  0  0  0  0  0  0  0  0  0  0  0
    2.0459    0.3181   -2.3137 C   0  0  0  0  0  0  0  0  0  0  0  0
    1.0658    1.0662   -1.7070 C   0  0  0  0  0  0  0  0  0  0  0  0
    0.8485    0.9670   -0.3476 C   0  0  0  0  0  0  0  0  0  0  0  0
   -0.4183    1.9395    0.4107 Cl  0  0  0  0  0  0  0  0  0  0  0  0
    1.5851    0.1351    0.4425 C   0  0  0  0  0  0  0  0  0  0  0  0
    2.5833   -0.6298   -0.1618 C   0  0  0  0  0  0  0  0  0  0  0  0
    2.7882   -0.5213   -1.5128 C   0  0  0  0  0  0  0  0  0  0  0  0
    3.3790   -1.5222    0.6631 C   0  0  0  0  0  0  0  0  0  0  0  0
    4.5102   -2.0496    0.1515 N   0  0  0  0  0  0  0  0  0  0  0  0
    5.3028   -2.8838    0.8489 C   0  0  0  0  0  0  0  0  0  0  0  0
    4.9406   -3.1968    2.1076 N   0  0  0  0  0  0  0  0  0  0  0  0
    3.8358   -2.7239    2.7031 C   0  0  0  0  0  0  0  0  0  0  0  0
    3.0367   -1.8619    1.9521 C   0  0  0  0  0  0  0  0  0  0  0  0
    3.4566   -3.0706    4.0642 C   0  0  0  0  0  0  0  0  0  0  0  0
    4.1757   -4.0354    4.7269 C   0  0  0  0  0  0  0  0  0  0  0  0
    3.8902   -4.4303    6.0194 C   0  0  0  0  0  0  0  0  0  0  0  0
    2.8373   -3.8307    6.6749 C   0  0  0  0  0  0  0  0  0  0  0  0
    2.1262   -2.8652    5.9966 C   0  0  0  0  0  0  0  0  0  0  0  0
    2.4356   -2.4984    4.7183 N   0  0  0  0  0  0  0  0  0  0  0  0
    2.5237   -4.1925    7.9507 F   0  0  0  0  0  0  0  0  0  0  0  0
  1  2  3  0
  2  3  1  0
  3  4  2  0
  4  5  1  0
  5  6  1  0
  5  7  2  0
  7  8  1  0
  8  9  2  0
  8 10  1  0
 10 11  2  0
 11 12  1  0
 12 13  2  0
 13 14  1  0
 14 15  2  0
 14 16  1  0
 16 17  2  0
 17 18  1  0
 18 19  2  0
 19 20  1  0
 20 21  2  0
 19 22  1  0
  9  3  1  0
 15 10  1  0
 21 16  1  0
M  END
$$$$
