
     RDKit          3D

 22 24  0  0  0  0  0  0  0  0999 V2000
   -1.4851    3.0691    4.6838 N   0  0  0  0  0  0  0  0  0  0  0  0
   -0.7999    2.4496    3.9555 C   0  0  0  0  0  0  0  0  0  0  0  0
    0.0234    1.6985    3.0563 C   0  0  0  0  0  0  0  0  0  0  0  0
    0.3581    2.2302    1.8342 C   0  0  0  0  0  0  0  0  0  0  0  0
    1.1506    1.5211    0.9544 C   0  0  0  0  0  0  0  0  0  0  0  0
    1.5681    2.2257   -0.6123 Cl  0  0  0  0  0  0  0  0  0  0  0  0
    1.6297    0.2802    1.2535 C   0  0  0  0  0  0  0  0  0  0  0  0
    1.2967   -0.2705    2.4914 C   0  0  0  0  0  0  0  0  0  0  0  0
    0.5089    0.4448    3.3555 C   0  0  0  0  0  0  0  0  0  0  0  0
    1.7974   -1.5917    2.8288 C   0  0  0  0  0  0  0  0  0  0  0  0
    1.6195   -2.0572    4.0822 N   0  0  0  0  0  0  0  0  0  0  0  0
    2.0526   -3.2690    4.4753 C   0  0  0  0  0  0  0  0  0  0  0  0
    2.6879   -4.0384    3.5709 N   0  0  0  0  0  0  0  0  0  0  0  0
    2.9122   -3.6641    2.3026 C   0  0  0  0  0  0  0  0  0  0  0  0
    2.4504   -2.4023    1.9283 C   0  0  0  0  0  0  0  0  0  0  0  0
    3.6001   -4.5059    1.3358 C   0  0  0  0  0  0  0  0  0  0  0  0
    3.8498   -5.8176    1.6586 C   0  0  0  0  0  0  0  0  0  0  0  0
    4.4960   -6.6914    0.8059 C   0  0  0  0  0  0  0  0  0  0  0  0
    4.9093   -6.2282   -0.4239 C   0  0  0  0  0  0  0  0  0  0  0  0
    4.6515   -4.9105   -0.7324 C   0  0  0  0  0  0  0  0  0  0  0  0
    4.0099   -4.0733    0.1346 N   0  0  0  0  0  0  0  0  0  0  0  0
    5.5502   -7.0589   -1.2934 F   0  0  0  0  0  0  0  0  0  0  0  0
  1  2  3  0
  2  3  1  0
  3  4  2  0
  4  5  1  0
  5  6  1  0
  5  7  2  0
  7  8  1  0
  8  9  2  0
  8 10  1  0
 10 11  2  0
 11 12  1  0
 12 13  2  0
 13 14  1  0
 14 15  2  0
 14 16  1  0
 16 17  2  0
 17 18  1  0
 18 19  2  0
 19 20  1  0
 20 21  2  0
 19 22  1  0
  9  3  1  0
 15 10  1  0
 21 16  1  0
M  END
$$$$
