
     RDKit          3D

 22 24  0  0  0  0  0  0  0  0999 V2000
   -1.5129    2.3543    1.5829 N   0  0  0  0  0  0  0  0  0  0  0  0
   -0.7088    1.7541    0.9689 C   0  0  0  0  0  0  0  0  0  0  0  0
    0.2614    1.0091    0.2247 C   0  0  0  0  0  0  0  0  0  0  0  0
    0.3648    1.1916   -1.1333 C   0  0  0  0  0  0  0  0  0  0  0  0
    1.2940    0.4824   -1.8673 C   0  0  0  0  0  0  0  0  0  0  0  0
    1.4086    0.7340   -3.6135 Cl  0  0  0  0  0  0  0  0  0  0  0  0
    2.1381   -0.4173   -1.2870 C   0  0  0  0  0  0  0  0  0  0  0  0
    2.0429   -0.6115    0.0913 C   0  0  0  0  0  0  0  0  0  0  0  0
    1.1155    0.0995    0.8079 C   0  0  0  0  0  0  0  0  0  0  0  0
    2.9335   -1.5659    0.7283 C   0  0  0  0  0  0  0  0  0  0  0  0
    3.9461   -2.0941    0.0107 N   0  0  0  0  0  0  0  0  0  0  0  0
    4.8146   -2.9837    0.5256 C   0  0  0  0  0  0  0  0  0  0  0  0
    4.6551   -3.3532    1.8107 N   0  0  0  0  0  0  0  0  0  0  0  0
    3.6805   -2.8844    2.6040 C   0  0  0  0  0  0  0  0  0  0  0  0
    2.7978   -1.9641    2.0388 C   0  0  0  0  0  0  0  0  0  0  0  0
    3.5201   -3.2925    3.9912 C   0  0  0  0  0  0  0  0  0  0  0  0
    2.3734   -2.9360    4.6583 C   0  0  0  0  0  0  0  0  0  0  0  0
    2.1330   -3.2777    5.9750 C   0  0  0  0  0  0  0  0  0  0  0  0
    3.0849   -4.0090    6.6509 C   0  0  0  0  0  0  0  0  0  0  0  0
    4.2291   -4.3586    5.9678 C   0  0  0  0  0  0  0  0  0  0  0  0
    4.4349   -4.0041    4.6655 N   0  0  0  0  0  0  0  0  0  0  0  0
    2.8851   -4.3659    7.9508 F   0  0  0  0  0  0  0  0  0  0  0  0
  1  2  3  0
  2  3  1  0
  3  4  2  0
  4  5  1  0
  5  6  1  0
  5  7  2  0
  7  8  1  0
  8  9  2  0
  8 10  1  0
 10 11  2  0
 11 12  1  0
 12 13  2  0
 13 14  1  0
 14 15  2  0
 14 16  1  0
 16 17  2  0
 17 18  1  0
 18 19  2  0
 19 20  1  0
 20 21  2  0
 19 22  1  0
  9  3  1  0
 15 10  1  0
 21 16  1  0
M  END
$$$$
