
     RDKit          3D

 22 24  0  0  0  0  0  0  0  0999 V2000
   -2.0383   -5.2177    5.0561 N   0  0  0  0  0  0  0  0  0  0  0  0
   -0.8933   -5.0098    5.2279 C   0  0  0  0  0  0  0  0  0  0  0  0
    0.5008   -4.7691    5.4486 C   0  0  0  0  0  0  0  0  0  0  0  0
    1.0853   -5.1800    6.6224 C   0  0  0  0  0  0  0  0  0  0  0  0
    2.4278   -4.9567    6.8529 C   0  0  0  0  0  0  0  0  0  0  0  0
    3.1577   -5.4943    8.3707 Cl  0  0  0  0  0  0  0  0  0  0  0  0
    3.2222   -4.3281    5.9404 C   0  0  0  0  0  0  0  0  0  0  0  0
    2.6404   -3.9062    4.7446 C   0  0  0  0  0  0  0  0  0  0  0  0
    1.3061   -4.1345    4.5289 C   0  0  0  0  0  0  0  0  0  0  0  0
    3.4702   -3.2346    3.7595 C   0  0  0  0  0  0  0  0  0  0  0  0
    4.8087   -3.2319    3.9257 N   0  0  0  0  0  0  0  0  0  0  0  0
    5.6470   -2.6331    3.0600 C   0  0  0  0  0  0  0  0  0  0  0  0
    5.1149   -2.0149    1.9884 N   0  0  0  0  0  0  0  0  0  0  0  0
    3.7985   -1.9633    1.7370 C   0  0  0  0  0  0  0  0  0  0  0  0
    2.9580   -2.5940    2.6542 C   0  0  0  0  0  0  0  0  0  0  0  0
    3.2374   -1.2917    0.5748 C   0  0  0  0  0  0  0  0  0  0  0  0
    4.0772   -0.9274   -0.4494 C   0  0  0  0  0  0  0  0  0  0  0  0
    3.6362   -0.2865   -1.5909 C   0  0  0  0  0  0  0  0  0  0  0  0
    2.2942    0.0009   -1.7091 C   0  0  0  0  0  0  0  0  0  0  0  0
    1.4653   -0.3710   -0.6734 C   0  0  0  0  0  0  0  0  0  0  0  0
    1.9347   -1.0036    0.4418 N   0  0  0  0  0  0  0  0  0  0  0  0
    1.8197    0.6321   -2.8197 F   0  0  0  0  0  0  0  0  0  0  0  0
  1  2  3  0
  2  3  1  0
  3  4  2  0
  4  5  1  0
  5  6  1  0
  5  7  2  0
  7  8  1  0
  8  9  2  0
  8 10  1  0
 10 11  2  0
 11 12  1  0
 12 13  2  0
 13 14  1  0
 14 15  2  0
 14 16  1  0
 16 17  2  0
 17 18  1  0
 18 19  2  0
 19 20  1  0
 20 21  2  0
 19 22  1  0
  9  3  1  0
 15 10  1  0
 21 16  1  0
M  END
$$$$
