
     RDKit          3D

 22 24  0  0  0  0  0  0  0  0999 V2000
    3.5883    0.8216   -3.7204 N   0  0  0  0  0  0  0  0  0  0  0  0
    2.8548    0.8578   -2.8014 C   0  0  0  0  0  0  0  0  0  0  0  0
    1.9682    0.8870   -1.6775 C   0  0  0  0  0  0  0  0  0  0  0  0
    0.8105    1.6244   -1.7424 C   0  0  0  0  0  0  0  0  0  0  0  0
   -0.0563    1.6646   -0.6690 C   0  0  0  0  0  0  0  0  0  0  0  0
   -1.5397    2.6203   -0.7757 Cl  0  0  0  0  0  0  0  0  0  0  0  0
    0.1933    0.9849    0.4863 C   0  0  0  0  0  0  0  0  0  0  0  0
    1.3656    0.2325    0.5645 C   0  0  0  0  0  0  0  0  0  0  0  0
    2.2173    0.2016   -0.5091 C   0  0  0  0  0  0  0  0  0  0  0  0
    1.6494   -0.4987    1.7870 C   0  0  0  0  0  0  0  0  0  0  0  0
    0.6649   -0.6614    2.6944 N   0  0  0  0  0  0  0  0  0  0  0  0
    0.8452   -1.3251    3.8509 C   0  0  0  0  0  0  0  0  0  0  0  0
    2.0630   -1.8432    4.1002 N   0  0  0  0  0  0  0  0  0  0  0  0
    3.1037   -1.7342    3.2612 C   0  0  0  0  0  0  0  0  0  0  0  0
    2.8824   -1.0401    2.0717 C   0  0  0  0  0  0  0  0  0  0  0  0
    4.4143   -2.2992    3.5435 C   0  0  0  0  0  0  0  0  0  0  0  0
    4.5665   -3.0991    4.6498 C   0  0  0  0  0  0  0  0  0  0  0  0
    5.7710   -3.6790    4.9979 C   0  0  0  0  0  0  0  0  0  0  0  0
    6.8700   -3.4456    4.2007 C   0  0  0  0  0  0  0  0  0  0  0  0
    6.7008   -2.6413    3.0950 C   0  0  0  0  0  0  0  0  0  0  0  0
    5.4951   -2.0836    2.7798 N   0  0  0  0  0  0  0  0  0  0  0  0
    8.0760   -3.9995    4.5101 F   0  0  0  0  0  0  0  0  0  0  0  0
  1  2  3  0
  2  3  1  0
  3  4  2  0
  4  5  1  0
  5  6  1  0
  5  7  2  0
  7  8  1  0
  8  9  2  0
  8 10  1  0
 10 11  2  0
 11 12  1  0
 12 13  2  0
 13 14  1  0
 14 15  2  0
 14 16  1  0
 16 17  2  0
 17 18  1  0
 18 19  2  0
 19 20  1  0
 20 21  2  0
 19 22  1  0
  9  3  1  0
 15 10  1  0
 21 16  1  0
M  END
$$$$
