
     RDKit          3D

 22 24  0  0  0  0  0  0  0  0999 V2000
    8.0877   -1.1860    5.5630 N   0  0  0  0  0  0  0  0  0  0  0  0
    7.1292   -1.8154    5.3007 C   0  0  0  0  0  0  0  0  0  0  0  0
    5.9532   -2.5674    4.9818 C   0  0  0  0  0  0  0  0  0  0  0  0
    5.6764   -3.7235    5.6711 C   0  0  0  0  0  0  0  0  0  0  0  0
    4.5476   -4.4615    5.3777 C   0  0  0  0  0  0  0  0  0  0  0  0
    4.2123   -5.9457    6.2779 Cl  0  0  0  0  0  0  0  0  0  0  0  0
    3.6697   -4.0826    4.4057 C   0  0  0  0  0  0  0  0  0  0  0  0
    3.9397   -2.9105    3.6988 C   0  0  0  0  0  0  0  0  0  0  0  0
    5.0644   -2.1873    4.0006 C   0  0  0  0  0  0  0  0  0  0  0  0
    3.0164   -2.4899    2.6593 C   0  0  0  0  0  0  0  0  0  0  0  0
    2.2394   -3.4165    2.0618 N   0  0  0  0  0  0  0  0  0  0  0  0
    1.3592   -3.1100    1.0913 C   0  0  0  0  0  0  0  0  0  0  0  0
    1.2599   -1.8222    0.7104 N   0  0  0  0  0  0  0  0  0  0  0  0
    1.9884   -0.8304    1.2438 C   0  0  0  0  0  0  0  0  0  0  0  0
    2.8909   -1.1827    2.2472 C   0  0  0  0  0  0  0  0  0  0  0  0
    1.8706    0.5571    0.8224 C   0  0  0  0  0  0  0  0  0  0  0  0
    0.8322    0.9127   -0.0036 C   0  0  0  0  0  0  0  0  0  0  0  0
    0.6394    2.2039   -0.4550 C   0  0  0  0  0  0  0  0  0  0  0  0
    1.5275    3.1802   -0.0600 C   0  0  0  0  0  0  0  0  0  0  0  0
    2.5633    2.8073    0.7684 C   0  0  0  0  0  0  0  0  0  0  0  0
    2.7246    1.5208    1.1962 N   0  0  0  0  0  0  0  0  0  0  0  0
    1.3717    4.4659   -0.4837 F   0  0  0  0  0  0  0  0  0  0  0  0
  1  2  3  0
  2  3  1  0
  3  4  2  0
  4  5  1  0
  5  6  1  0
  5  7  2  0
  7  8  1  0
  8  9  2  0
  8 10  1  0
 10 11  2  0
 11 12  1  0
 12 13  2  0
 13 14  1  0
 14 15  2  0
 14 16  1  0
 16 17  2  0
 17 18  1  0
 18 19  2  0
 19 20  1  0
 20 21  2  0
 19 22  1  0
  9  3  1  0
 15 10  1  0
 21 16  1  0
M  END
$$$$
