
     RDKit          3D

 22 24  0  0  0  0  0  0  0  0999 V2000
    2.0969   -5.2246    7.4750 N   0  0  0  0  0  0  0  0  0  0  0  0
    2.5059   -4.5582    6.5962 C   0  0  0  0  0  0  0  0  0  0  0  0
    3.0187   -3.7552    5.5274 C   0  0  0  0  0  0  0  0  0  0  0  0
    4.3319   -3.8885    5.1450 C   0  0  0  0  0  0  0  0  0  0  0  0
    4.8439   -3.1230    4.1169 C   0  0  0  0  0  0  0  0  0  0  0  0
    6.5364   -3.3119    3.6425 Cl  0  0  0  0  0  0  0  0  0  0  0  0
    4.0816   -2.2142    3.4447 C   0  0  0  0  0  0  0  0  0  0  0  0
    2.7466   -2.0696    3.8237 C   0  0  0  0  0  0  0  0  0  0  0  0
    2.2514   -2.8363    4.8464 C   0  0  0  0  0  0  0  0  0  0  0  0
    1.9180   -1.1065    3.1197 C   0  0  0  0  0  0  0  0  0  0  0  0
    0.9555   -0.4516    3.8008 N   0  0  0  0  0  0  0  0  0  0  0  0
    0.1460    0.4551    3.2236 C   0  0  0  0  0  0  0  0  0  0  0  0
    0.3143    0.7099    1.9120 N   0  0  0  0  0  0  0  0  0  0  0  0
    1.2422    0.1110    1.1510 C   0  0  0  0  0  0  0  0  0  0  0  0
    2.0644   -0.8234    1.7807 C   0  0  0  0  0  0  0  0  0  0  0  0
    1.4129    0.3962   -0.2653 C   0  0  0  0  0  0  0  0  0  0  0  0
    0.4099    1.0547   -0.9341 C   0  0  0  0  0  0  0  0  0  0  0  0
    0.4824    1.3684   -2.2775 C   0  0  0  0  0  0  0  0  0  0  0  0
    1.6106    1.0053   -2.9795 C   0  0  0  0  0  0  0  0  0  0  0  0
    2.6073    0.3456   -2.2944 C   0  0  0  0  0  0  0  0  0  0  0  0
    2.5032    0.0508   -0.9653 N   0  0  0  0  0  0  0  0  0  0  0  0
    1.7204    1.2966   -4.3062 F   0  0  0  0  0  0  0  0  0  0  0  0
  1  2  3  0
  2  3  1  0
  3  4  2  0
  4  5  1  0
  5  6  1  0
  5  7  2  0
  7  8  1  0
  8  9  2  0
  8 10  1  0
 10 11  2  0
 11 12  1  0
 12 13  2  0
 13 14  1  0
 14 15  2  0
 14 16  1  0
 16 17  2  0
 17 18  1  0
 18 19  2  0
 19 20  1  0
 20 21  2  0
 19 22  1  0
  9  3  1  0
 15 10  1  0
 21 16  1  0
M  END
$$$$
