
     RDKit          3D

 22 24  0  0  0  0  0  0  0  0999 V2000
    3.7252   -5.8219    7.4963 N   0  0  0  0  0  0  0  0  0  0  0  0
    3.9121   -5.0696    6.6115 C   0  0  0  0  0  0  0  0  0  0  0  0
    4.1239   -4.1569    5.5287 C   0  0  0  0  0  0  0  0  0  0  0  0
    5.3621   -4.0763    4.9384 C   0  0  0  0  0  0  0  0  0  0  0  0
    5.5852   -3.2025    3.8935 C   0  0  0  0  0  0  0  0  0  0  0  0
    7.1866   -3.1163    3.1497 Cl  0  0  0  0  0  0  0  0  0  0  0  0
    4.6021   -2.3924    3.4074 C   0  0  0  0  0  0  0  0  0  0  0  0
    3.3404   -2.4650    3.9986 C   0  0  0  0  0  0  0  0  0  0  0  0
    3.1330   -3.3373    5.0354 C   0  0  0  0  0  0  0  0  0  0  0  0
    2.2797   -1.6099    3.4950 C   0  0  0  0  0  0  0  0  0  0  0  0
    1.1753   -1.4270    4.2475 N   0  0  0  0  0  0  0  0  0  0  0  0
    0.1485   -0.6514    3.8542 C   0  0  0  0  0  0  0  0  0  0  0  0
    0.2398   -0.0386    2.6585 N   0  0  0  0  0  0  0  0  0  0  0  0
    1.2955   -0.1585    1.8399 C   0  0  0  0  0  0  0  0  0  0  0  0
    2.3421   -0.9697    2.2782 C   0  0  0  0  0  0  0  0  0  0  0  0
    1.3807    0.5097    0.5504 C   0  0  0  0  0  0  0  0  0  0  0  0
    0.2668    1.1460    0.0591 C   0  0  0  0  0  0  0  0  0  0  0  0
    0.2524    1.8062   -1.1542 C   0  0  0  0  0  0  0  0  0  0  0  0
    1.4062    1.8286   -1.9066 C   0  0  0  0  0  0  0  0  0  0  0  0
    2.5145    1.1859   -1.3999 C   0  0  0  0  0  0  0  0  0  0  0  0
    2.4941    0.5422   -0.1959 N   0  0  0  0  0  0  0  0  0  0  0  0
    1.4327    2.4693   -3.1090 F   0  0  0  0  0  0  0  0  0  0  0  0
  1  2  3  0
  2  3  1  0
  3  4  2  0
  4  5  1  0
  5  6  1  0
  5  7  2  0
  7  8  1  0
  8  9  2  0
  8 10  1  0
 10 11  2  0
 11 12  1  0
 12 13  2  0
 13 14  1  0
 14 15  2  0
 14 16  1  0
 16 17  2  0
 17 18  1  0
 18 19  2  0
 19 20  1  0
 20 21  2  0
 19 22  1  0
  9  3  1  0
 15 10  1  0
 21 16  1  0
M  END
$$$$
