
     RDKit          3D

 22 24  0  0  0  0  0  0  0  0999 V2000
    4.5052   -8.7678    4.4017 N   0  0  0  0  0  0  0  0  0  0  0  0
    4.3708   -7.7909    3.7603 C   0  0  0  0  0  0  0  0  0  0  0  0
    4.2241   -6.6009    2.9777 C   0  0  0  0  0  0  0  0  0  0  0  0
    4.7549   -6.5489    1.7113 C   0  0  0  0  0  0  0  0  0  0  0  0
    4.6235   -5.4104    0.9422 C   0  0  0  0  0  0  0  0  0  0  0  0
    5.3148   -5.3669   -0.6844 Cl  0  0  0  0  0  0  0  0  0  0  0  0
    3.9711   -4.3030    1.3972 C   0  0  0  0  0  0  0  0  0  0  0  0
    3.4277   -4.3434    2.6816 C   0  0  0  0  0  0  0  0  0  0  0  0
    3.5657   -5.4806    3.4344 C   0  0  0  0  0  0  0  0  0  0  0  0
    2.7288   -3.1736    3.1846 C   0  0  0  0  0  0  0  0  0  0  0  0
    2.3989   -3.1216    4.4914 N   0  0  0  0  0  0  0  0  0  0  0  0
    1.7517   -2.0751    5.0361 C   0  0  0  0  0  0  0  0  0  0  0  0
    1.4261   -1.0444    4.2329 N   0  0  0  0  0  0  0  0  0  0  0  0
    1.7106   -1.0036    2.9229 C   0  0  0  0  0  0  0  0  0  0  0  0
    2.3818   -2.1043    2.3906 C   0  0  0  0  0  0  0  0  0  0  0  0
    1.3526    0.1169    2.0668 C   0  0  0  0  0  0  0  0  0  0  0  0
    0.3162    0.9352    2.4453 C   0  0  0  0  0  0  0  0  0  0  0  0
   -0.0949    2.0218    1.6980 C   0  0  0  0  0  0  0  0  0  0  0  0
    0.5631    2.2988    0.5198 C   0  0  0  0  0  0  0  0  0  0  0  0
    1.6002    1.4688    0.1543 C   0  0  0  0  0  0  0  0  0  0  0  0
    1.9809    0.4023    0.9171 N   0  0  0  0  0  0  0  0  0  0  0  0
    0.1877    3.3617   -0.2458 F   0  0  0  0  0  0  0  0  0  0  0  0
  1  2  3  0
  2  3  1  0
  3  4  2  0
  4  5  1  0
  5  6  1  0
  5  7  2  0
  7  8  1  0
  8  9  2  0
  8 10  1  0
 10 11  2  0
 11 12  1  0
 12 13  2  0
 13 14  1  0
 14 15  2  0
 14 16  1  0
 16 17  2  0
 17 18  1  0
 18 19  2  0
 19 20  1  0
 20 21  2  0
 19 22  1  0
  9  3  1  0
 15 10  1  0
 21 16  1  0
M  END
$$$$
