
     RDKit          3D

 22 24  0  0  0  0  0  0  0  0999 V2000
   -2.2366    2.9682    5.4343 N   0  0  0  0  0  0  0  0  0  0  0  0
   -1.5057    2.4675    4.6604 C   0  0  0  0  0  0  0  0  0  0  0  0
   -0.6257    1.8441    3.7185 C   0  0  0  0  0  0  0  0  0  0  0  0
   -0.3910    2.4448    2.5051 C   0  0  0  0  0  0  0  0  0  0  0  0
    0.4541    1.8588    1.5844 C   0  0  0  0  0  0  0  0  0  0  0  0
    0.7409    2.6502    0.0299 Cl  0  0  0  0  0  0  0  0  0  0  0  0
    1.0843    0.6757    1.8336 C   0  0  0  0  0  0  0  0  0  0  0  0
    0.8540    0.0559    3.0622 C   0  0  0  0  0  0  0  0  0  0  0  0
    0.0124    0.6491    3.9671 C   0  0  0  0  0  0  0  0  0  0  0  0
    1.5162   -1.2053    3.3466 C   0  0  0  0  0  0  0  0  0  0  0  0
    1.1883   -1.8765    4.4696 N   0  0  0  0  0  0  0  0  0  0  0  0
    1.7543   -3.0500    4.8059 C   0  0  0  0  0  0  0  0  0  0  0  0
    2.6844   -3.5643    3.9789 N   0  0  0  0  0  0  0  0  0  0  0  0
    3.0768   -2.9726    2.8411 C   0  0  0  0  0  0  0  0  0  0  0  0
    2.4702   -1.7576    2.5225 C   0  0  0  0  0  0  0  0  0  0  0  0
    4.0831   -3.5399    1.9567 C   0  0  0  0  0  0  0  0  0  0  0  0
    4.5052   -4.8289    2.1741 C   0  0  0  0  0  0  0  0  0  0  0  0
    5.4552   -5.4513    1.3877 C   0  0  0  0  0  0  0  0  0  0  0  0
    6.0052   -4.7490    0.3379 C   0  0  0  0  0  0  0  0  0  0  0  0
    5.5713   -3.4576    0.1333 C   0  0  0  0  0  0  0  0  0  0  0  0
    4.6297   -2.8724    0.9303 N   0  0  0  0  0  0  0  0  0  0  0  0
    6.9453   -5.3276   -0.4610 F   0  0  0  0  0  0  0  0  0  0  0  0
  1  2  3  0
  2  3  1  0
  3  4  2  0
  4  5  1  0
  5  6  1  0
  5  7  2  0
  7  8  1  0
  8  9  2  0
  8 10  1  0
 10 11  2  0
 11 12  1  0
 12 13  2  0
 13 14  1  0
 14 15  2  0
 14 16  1  0
 16 17  2  0
 17 18  1  0
 18 19  2  0
 19 20  1  0
 20 21  2  0
 19 22  1  0
  9  3  1  0
 15 10  1  0
 21 16  1  0
M  END
$$$$
