
     RDKit          3D

 22 24  0  0  0  0  0  0  0  0999 V2000
    3.5731   -5.6615    9.3684 N   0  0  0  0  0  0  0  0  0  0  0  0
    3.0675   -5.2813    8.3767 C   0  0  0  0  0  0  0  0  0  0  0  0
    2.4672   -4.8179    7.1621 C   0  0  0  0  0  0  0  0  0  0  0  0
    1.1221   -5.0052    6.9525 C   0  0  0  0  0  0  0  0  0  0  0  0
    0.5260   -4.5653    5.7879 C   0  0  0  0  0  0  0  0  0  0  0  0
   -1.2062   -4.8175    5.5406 Cl  0  0  0  0  0  0  0  0  0  0  0  0
    1.2340   -3.9349    4.8080 C   0  0  0  0  0  0  0  0  0  0  0  0
    2.6006   -3.7387    5.0091 C   0  0  0  0  0  0  0  0  0  0  0  0
    3.1796   -4.1807    6.1703 C   0  0  0  0  0  0  0  0  0  0  0  0
    3.3724   -3.0690    3.9767 C   0  0  0  0  0  0  0  0  0  0  0  0
    4.6967   -3.3101    3.8912 N   0  0  0  0  0  0  0  0  0  0  0  0
    5.4822   -2.7310    2.9648 C   0  0  0  0  0  0  0  0  0  0  0  0
    4.9104   -1.8781    2.0936 N   0  0  0  0  0  0  0  0  0  0  0  0
    3.6040   -1.5747    2.0985 C   0  0  0  0  0  0  0  0  0  0  0  0
    2.8186   -2.1924    3.0717 C   0  0  0  0  0  0  0  0  0  0  0  0
    2.9994   -0.6511    1.1508 C   0  0  0  0  0  0  0  0  0  0  0  0
    3.7526   -0.1976    0.0952 C   0  0  0  0  0  0  0  0  0  0  0  0
    3.2649    0.6797   -0.8538 C   0  0  0  0  0  0  0  0  0  0  0  0
    1.9650    1.1208   -0.7380 C   0  0  0  0  0  0  0  0  0  0  0  0
    1.2230    0.6567    0.3260 C   0  0  0  0  0  0  0  0  0  0  0  0
    1.7366   -0.2109    1.2468 N   0  0  0  0  0  0  0  0  0  0  0  0
    1.4468    1.9866   -1.6538 F   0  0  0  0  0  0  0  0  0  0  0  0
  1  2  3  0
  2  3  1  0
  3  4  2  0
  4  5  1  0
  5  6  1  0
  5  7  2  0
  7  8  1  0
  8  9  2  0
  8 10  1  0
 10 11  2  0
 11 12  1  0
 12 13  2  0
 13 14  1  0
 14 15  2  0
 14 16  1  0
 16 17  2  0
 17 18  1  0
 18 19  2  0
 19 20  1  0
 20 21  2  0
 19 22  1  0
  9  3  1  0
 15 10  1  0
 21 16  1  0
M  END
$$$$
