
     RDKit          3D

 22 24  0  0  0  0  0  0  0  0999 V2000
   -1.8753    2.6751    5.0577 N   0  0  0  0  0  0  0  0  0  0  0  0
   -1.1461    2.2242    4.2522 C   0  0  0  0  0  0  0  0  0  0  0  0
   -0.2667    1.6839    3.2598 C   0  0  0  0  0  0  0  0  0  0  0  0
   -0.2264    2.2465    2.0067 C   0  0  0  0  0  0  0  0  0  0  0  0
    0.6149    1.7393    1.0372 C   0  0  0  0  0  0  0  0  0  0  0  0
    0.6496    2.4798   -0.5678 Cl  0  0  0  0  0  0  0  0  0  0  0  0
    1.4313    0.6736    1.2753 C   0  0  0  0  0  0  0  0  0  0  0  0
    1.3995    0.0936    2.5438 C   0  0  0  0  0  0  0  0  0  0  0  0
    0.5592    0.6075    3.4971 C   0  0  0  0  0  0  0  0  0  0  0  0
    2.2618   -1.0429    2.8172 C   0  0  0  0  0  0  0  0  0  0  0  0
    2.6108   -1.3060    4.0932 N   0  0  0  0  0  0  0  0  0  0  0  0
    3.4051   -2.3383    4.4310 C   0  0  0  0  0  0  0  0  0  0  0  0
    3.8634   -3.1333    3.4454 N   0  0  0  0  0  0  0  0  0  0  0  0
    3.5724   -2.9533    2.1486 C   0  0  0  0  0  0  0  0  0  0  0  0
    2.7468   -1.8742    1.8333 C   0  0  0  0  0  0  0  0  0  0  0  0
    4.0747   -3.8205    1.0940 C   0  0  0  0  0  0  0  0  0  0  0  0
    4.7519   -4.9637    1.4426 C   0  0  0  0  0  0  0  0  0  0  0  0
    5.2646   -5.8467    0.5122 C   0  0  0  0  0  0  0  0  0  0  0  0
    5.0898   -5.5700   -0.8259 C   0  0  0  0  0  0  0  0  0  0  0  0
    4.4086   -4.4197   -1.1590 C   0  0  0  0  0  0  0  0  0  0  0  0
    3.9145   -3.5680   -0.2131 N   0  0  0  0  0  0  0  0  0  0  0  0
    5.5806   -6.4162   -1.7746 F   0  0  0  0  0  0  0  0  0  0  0  0
  1  2  3  0
  2  3  1  0
  3  4  2  0
  4  5  1  0
  5  6  1  0
  5  7  2  0
  7  8  1  0
  8  9  2  0
  8 10  1  0
 10 11  2  0
 11 12  1  0
 12 13  2  0
 13 14  1  0
 14 15  2  0
 14 16  1  0
 16 17  2  0
 17 18  1  0
 18 19  2  0
 19 20  1  0
 20 21  2  0
 19 22  1  0
  9  3  1  0
 15 10  1  0
 21 16  1  0
M  END
$$$$
