
     RDKit          3D

 22 24  0  0  0  0  0  0  0  0999 V2000
    2.7605   -4.0112    7.9422 N   0  0  0  0  0  0  0  0  0  0  0  0
    2.9860   -3.5871    6.8684 C   0  0  0  0  0  0  0  0  0  0  0  0
    3.2731   -3.0822    5.5596 C   0  0  0  0  0  0  0  0  0  0  0  0
    4.4281   -3.4642    4.9205 C   0  0  0  0  0  0  0  0  0  0  0  0
    4.7217   -2.9879    3.6588 C   0  0  0  0  0  0  0  0  0  0  0  0
    6.2137   -3.4934    2.8563 Cl  0  0  0  0  0  0  0  0  0  0  0  0
    3.8918   -2.1301    2.9997 C   0  0  0  0  0  0  0  0  0  0  0  0
    2.7159   -1.7348    3.6382 C   0  0  0  0  0  0  0  0  0  0  0  0
    2.4369   -2.2156    4.8912 C   0  0  0  0  0  0  0  0  0  0  0  0
    1.8186   -0.8213    2.9525 C   0  0  0  0  0  0  0  0  0  0  0  0
    0.7703   -0.3061    3.6270 N   0  0  0  0  0  0  0  0  0  0  0  0
   -0.1068    0.5462    3.0657 C   0  0  0  0  0  0  0  0  0  0  0  0
    0.0811    0.8906    1.7775 N   0  0  0  0  0  0  0  0  0  0  0  0
    1.0921    0.4320    1.0248 C   0  0  0  0  0  0  0  0  0  0  0  0
    1.9827   -0.4494    1.6376 C   0  0  0  0  0  0  0  0  0  0  0  0
    1.2830    0.8128   -0.3663 C   0  0  0  0  0  0  0  0  0  0  0  0
    0.2810    1.4981   -1.0091 C   0  0  0  0  0  0  0  0  0  0  0  0
    0.3719    1.9010   -2.3273 C   0  0  0  0  0  0  0  0  0  0  0  0
    1.5185    1.6029   -3.0303 C   0  0  0  0  0  0  0  0  0  0  0  0
    2.5140    0.9152   -2.3715 C   0  0  0  0  0  0  0  0  0  0  0  0
    2.3912    0.5317   -1.0668 N   0  0  0  0  0  0  0  0  0  0  0  0
    1.6468    1.9830   -4.3326 F   0  0  0  0  0  0  0  0  0  0  0  0
  1  2  3  0
  2  3  1  0
  3  4  2  0
  4  5  1  0
  5  6  1  0
  5  7  2  0
  7  8  1  0
  8  9  2  0
  8 10  1  0
 10 11  2  0
 11 12  1  0
 12 13  2  0
 13 14  1  0
 14 15  2  0
 14 16  1  0
 16 17  2  0
 17 18  1  0
 18 19  2  0
 19 20  1  0
 20 21  2  0
 19 22  1  0
  9  3  1  0
 15 10  1  0
 21 16  1  0
M  END
$$$$
