
     RDKit          3D

 22 24  0  0  0  0  0  0  0  0999 V2000
   -0.2723   -2.6937   10.8155 N   0  0  0  0  0  0  0  0  0  0  0  0
   -0.0688   -3.1923    9.7697 C   0  0  0  0  0  0  0  0  0  0  0  0
    0.1631   -3.7951    8.4918 C   0  0  0  0  0  0  0  0  0  0  0  0
   -0.5766   -4.8886    8.1103 C   0  0  0  0  0  0  0  0  0  0  0  0
   -0.3672   -5.4830    6.8824 C   0  0  0  0  0  0  0  0  0  0  0  0
   -1.3311   -6.8888    6.4134 Cl  0  0  0  0  0  0  0  0  0  0  0  0
    0.5687   -5.0193    6.0060 C   0  0  0  0  0  0  0  0  0  0  0  0
    1.3263   -3.9096    6.3819 C   0  0  0  0  0  0  0  0  0  0  0  0
    1.1077   -3.3292    7.6043 C   0  0  0  0  0  0  0  0  0  0  0  0
    2.3285   -3.4004    5.4620 C   0  0  0  0  0  0  0  0  0  0  0  0
    3.1921   -2.4583    5.8930 N   0  0  0  0  0  0  0  0  0  0  0  0
    4.1491   -1.9350    5.1050 C   0  0  0  0  0  0  0  0  0  0  0  0
    4.2374   -2.3787    3.8366 N   0  0  0  0  0  0  0  0  0  0  0  0
    3.4258   -3.3114    3.3167 C   0  0  0  0  0  0  0  0  0  0  0  0
    2.4451   -3.8327    4.1605 C   0  0  0  0  0  0  0  0  0  0  0  0
    3.5327   -3.7816    1.9441 C   0  0  0  0  0  0  0  0  0  0  0  0
    4.5154   -3.2586    1.1392 C   0  0  0  0  0  0  0  0  0  0  0  0
    4.6938   -3.6431   -0.1755 C   0  0  0  0  0  0  0  0  0  0  0  0
    3.8490   -4.5937   -0.7049 C   0  0  0  0  0  0  0  0  0  0  0  0
    2.8688   -5.1084    0.1151 C   0  0  0  0  0  0  0  0  0  0  0  0
    2.7203   -4.7056    1.4112 N   0  0  0  0  0  0  0  0  0  0  0  0
    3.9923   -4.9998   -1.9978 F   0  0  0  0  0  0  0  0  0  0  0  0
  1  2  3  0
  2  3  1  0
  3  4  2  0
  4  5  1  0
  5  6  1  0
  5  7  2  0
  7  8  1  0
  8  9  2  0
  8 10  1  0
 10 11  2  0
 11 12  1  0
 12 13  2  0
 13 14  1  0
 14 15  2  0
 14 16  1  0
 16 17  2  0
 17 18  1  0
 18 19  2  0
 19 20  1  0
 20 21  2  0
 19 22  1  0
  9  3  1  0
 15 10  1  0
 21 16  1  0
M  END
$$$$
