
     RDKit          3D

 22 24  0  0  0  0  0  0  0  0999 V2000
    2.6308   -2.8894   -4.7362 N   0  0  0  0  0  0  0  0  0  0  0  0
    2.6891   -3.3852   -3.6711 C   0  0  0  0  0  0  0  0  0  0  0  0
    2.7641   -3.9737   -2.3679 C   0  0  0  0  0  0  0  0  0  0  0  0
    2.6344   -5.3343   -2.2266 C   0  0  0  0  0  0  0  0  0  0  0  0
    2.7039   -5.9194   -0.9784 C   0  0  0  0  0  0  0  0  0  0  0  0
    2.5342   -7.6721   -0.8214 Cl  0  0  0  0  0  0  0  0  0  0  0  0
    2.9014   -5.1850    0.1532 C   0  0  0  0  0  0  0  0  0  0  0  0
    3.0346   -3.8023    0.0228 C   0  0  0  0  0  0  0  0  0  0  0  0
    2.9635   -3.2346   -1.2229 C   0  0  0  0  0  0  0  0  0  0  0  0
    3.2455   -3.0024    1.2167 C   0  0  0  0  0  0  0  0  0  0  0  0
    3.6145   -1.7120    1.0816 N   0  0  0  0  0  0  0  0  0  0  0  0
    3.8297   -0.9039    2.1358 C   0  0  0  0  0  0  0  0  0  0  0  0
    3.6666   -1.4166    3.3703 N   0  0  0  0  0  0  0  0  0  0  0  0
    3.3023   -2.6856    3.6064 C   0  0  0  0  0  0  0  0  0  0  0  0
    3.0874   -3.4960    2.4917 C   0  0  0  0  0  0  0  0  0  0  0  0
    3.1298   -3.2263    4.9460 C   0  0  0  0  0  0  0  0  0  0  0  0
    3.4640   -2.4439    6.0245 C   0  0  0  0  0  0  0  0  0  0  0  0
    3.3347   -2.8711    7.3317 C   0  0  0  0  0  0  0  0  0  0  0  0
    2.8487   -4.1386    7.5663 C   0  0  0  0  0  0  0  0  0  0  0  0
    2.5181   -4.9106    6.4742 C   0  0  0  0  0  0  0  0  0  0  0  0
    2.6585   -4.4569    5.1941 N   0  0  0  0  0  0  0  0  0  0  0  0
    2.7062   -4.5970    8.8416 F   0  0  0  0  0  0  0  0  0  0  0  0
  1  2  3  0
  2  3  1  0
  3  4  2  0
  4  5  1  0
  5  6  1  0
  5  7  2  0
  7  8  1  0
  8  9  2  0
  8 10  1  0
 10 11  2  0
 11 12  1  0
 12 13  2  0
 13 14  1  0
 14 15  2  0
 14 16  1  0
 16 17  2  0
 17 18  1  0
 18 19  2  0
 19 20  1  0
 20 21  2  0
 19 22  1  0
  9  3  1  0
 15 10  1  0
 21 16  1  0
M  END
$$$$
