
     RDKit          3D

 22 24  0  0  0  0  0  0  0  0999 V2000
    6.7489   -5.1018    1.8889 N   0  0  0  0  0  0  0  0  0  0  0  0
    5.8699   -4.5450    2.4376 C   0  0  0  0  0  0  0  0  0  0  0  0
    4.7888   -3.8765    3.0967 C   0  0  0  0  0  0  0  0  0  0  0  0
    4.0656   -2.9224    2.4222 C   0  0  0  0  0  0  0  0  0  0  0  0
    3.0201   -2.2675    3.0411 C   0  0  0  0  0  0  0  0  0  0  0  0
    2.1040   -1.0436    2.1531 Cl  0  0  0  0  0  0  0  0  0  0  0  0
    2.6631   -2.5336    4.3298 C   0  0  0  0  0  0  0  0  0  0  0  0
    3.3898   -3.5004    5.0253 C   0  0  0  0  0  0  0  0  0  0  0  0
    4.4257   -4.1430    4.3983 C   0  0  0  0  0  0  0  0  0  0  0  0
    3.0250   -3.7982    6.3994 C   0  0  0  0  0  0  0  0  0  0  0  0
    3.5121   -4.9155    6.9770 N   0  0  0  0  0  0  0  0  0  0  0  0
    3.2229   -5.2633    8.2443 C   0  0  0  0  0  0  0  0  0  0  0  0
    2.4132   -4.4543    8.9538 N   0  0  0  0  0  0  0  0  0  0  0  0
    1.8803   -3.3234    8.4679 C   0  0  0  0  0  0  0  0  0  0  0  0
    2.2004   -2.9926    7.1512 C   0  0  0  0  0  0  0  0  0  0  0  0
    1.0068   -2.4585    9.2460 C   0  0  0  0  0  0  0  0  0  0  0  0
    0.4346   -1.3705    8.6331 C   0  0  0  0  0  0  0  0  0  0  0  0
   -0.4071   -0.4941    9.2902 C   0  0  0  0  0  0  0  0  0  0  0  0
   -0.6862   -0.7200   10.6202 C   0  0  0  0  0  0  0  0  0  0  0  0
   -0.1046   -1.8153   11.2203 C   0  0  0  0  0  0  0  0  0  0  0  0
    0.7234   -2.6620   10.5407 N   0  0  0  0  0  0  0  0  0  0  0  0
   -1.5118    0.1215   11.3037 F   0  0  0  0  0  0  0  0  0  0  0  0
  1  2  3  0
  2  3  1  0
  3  4  2  0
  4  5  1  0
  5  6  1  0
  5  7  2  0
  7  8  1  0
  8  9  2  0
  8 10  1  0
 10 11  2  0
 11 12  1  0
 12 13  2  0
 13 14  1  0
 14 15  2  0
 14 16  1  0
 16 17  2  0
 17 18  1  0
 18 19  2  0
 19 20  1  0
 20 21  2  0
 19 22  1  0
  9  3  1  0
 15 10  1  0
 21 16  1  0
M  END
$$$$
