
     RDKit          3D

 22 24  0  0  0  0  0  0  0  0999 V2000
    3.7836   -6.9725    6.4575 N   0  0  0  0  0  0  0  0  0  0  0  0
    3.9504   -6.0404    5.7596 C   0  0  0  0  0  0  0  0  0  0  0  0
    4.1609   -4.9158    4.8986 C   0  0  0  0  0  0  0  0  0  0  0  0
    5.3483   -4.7919    4.2182 C   0  0  0  0  0  0  0  0  0  0  0  0
    5.5691   -3.7147    3.3838 C   0  0  0  0  0  0  0  0  0  0  0  0
    7.1047   -3.5766    2.5188 Cl  0  0  0  0  0  0  0  0  0  0  0  0
    4.6335   -2.7402    3.2000 C   0  0  0  0  0  0  0  0  0  0  0  0
    3.4237   -2.8548    3.8854 C   0  0  0  0  0  0  0  0  0  0  0  0
    3.2178   -3.9297    4.7107 C   0  0  0  0  0  0  0  0  0  0  0  0
    2.4141   -1.8266    3.7028 C   0  0  0  0  0  0  0  0  0  0  0  0
    1.5306   -1.5951    4.6954 N   0  0  0  0  0  0  0  0  0  0  0  0
    0.5656   -0.6617    4.6059 C   0  0  0  0  0  0  0  0  0  0  0  0
    0.4898    0.0640    3.4741 N   0  0  0  0  0  0  0  0  0  0  0  0
    1.3213   -0.0920    2.4333 C   0  0  0  0  0  0  0  0  0  0  0  0
    2.3098   -1.0680    2.5592 C   0  0  0  0  0  0  0  0  0  0  0  0
    1.2278    0.6994    1.2162 C   0  0  0  0  0  0  0  0  0  0  0  0
    0.0693    1.3935    0.9646 C   0  0  0  0  0  0  0  0  0  0  0  0
   -0.1113    2.1705   -0.1631 C   0  0  0  0  0  0  0  0  0  0  0  0
    0.9156    2.2544   -1.0776 C   0  0  0  0  0  0  0  0  0  0  0  0
    2.0706    1.5525   -0.8107 C   0  0  0  0  0  0  0  0  0  0  0  0
    2.2160    0.7932    0.3148 N   0  0  0  0  0  0  0  0  0  0  0  0
    0.7765    3.0105   -2.2027 F   0  0  0  0  0  0  0  0  0  0  0  0
  1  2  3  0
  2  3  1  0
  3  4  2  0
  4  5  1  0
  5  6  1  0
  5  7  2  0
  7  8  1  0
  8  9  2  0
  8 10  1  0
 10 11  2  0
 11 12  1  0
 12 13  2  0
 13 14  1  0
 14 15  2  0
 14 16  1  0
 16 17  2  0
 17 18  1  0
 18 19  2  0
 19 20  1  0
 20 21  2  0
 19 22  1  0
  9  3  1  0
 15 10  1  0
 21 16  1  0
M  END
$$$$
