
     RDKit          3D

 22 24  0  0  0  0  0  0  0  0999 V2000
    2.1041   -4.9046    7.4484 N   0  0  0  0  0  0  0  0  0  0  0  0
    2.5439   -4.2708    6.5604 C   0  0  0  0  0  0  0  0  0  0  0  0
    3.0635   -3.4956    5.4745 C   0  0  0  0  0  0  0  0  0  0  0  0
    4.3788   -3.6391    5.1034 C   0  0  0  0  0  0  0  0  0  0  0  0
    4.8974   -2.9003    4.0592 C   0  0  0  0  0  0  0  0  0  0  0  0
    6.5926   -3.1020    3.5998 Cl  0  0  0  0  0  0  0  0  0  0  0  0
    4.1396   -2.0086    3.3595 C   0  0  0  0  0  0  0  0  0  0  0  0
    2.8025   -1.8539    3.7267 C   0  0  0  0  0  0  0  0  0  0  0  0
    2.3008   -2.5940    4.7657 C   0  0  0  0  0  0  0  0  0  0  0  0
    1.9787   -0.9087    2.9934 C   0  0  0  0  0  0  0  0  0  0  0  0
    0.9949   -0.2562    3.6459 N   0  0  0  0  0  0  0  0  0  0  0  0
    0.1881    0.6344    3.0405 C   0  0  0  0  0  0  0  0  0  0  0  0
    0.3813    0.8749    1.7296 N   0  0  0  0  0  0  0  0  0  0  0  0
    1.3316    0.2770    0.9959 C   0  0  0  0  0  0  0  0  0  0  0  0
    2.1503   -0.6405    1.6544 C   0  0  0  0  0  0  0  0  0  0  0  0
    1.5292    0.5466   -0.4200 C   0  0  0  0  0  0  0  0  0  0  0  0
    0.5620    1.2430   -1.1031 C   0  0  0  0  0  0  0  0  0  0  0  0
    0.6619    1.5457   -2.4472 C   0  0  0  0  0  0  0  0  0  0  0  0
    1.7812    1.1314   -3.1350 C   0  0  0  0  0  0  0  0  0  0  0  0
    2.7419    0.4342   -2.4357 C   0  0  0  0  0  0  0  0  0  0  0  0
    2.6113    0.1517   -1.1063 N   0  0  0  0  0  0  0  0  0  0  0  0
    1.9173    1.4103   -4.4619 F   0  0  0  0  0  0  0  0  0  0  0  0
  1  2  3  0
  2  3  1  0
  3  4  2  0
  4  5  1  0
  5  6  1  0
  5  7  2  0
  7  8  1  0
  8  9  2  0
  8 10  1  0
 10 11  2  0
 11 12  1  0
 12 13  2  0
 13 14  1  0
 14 15  2  0
 14 16  1  0
 16 17  2  0
 17 18  1  0
 18 19  2  0
 19 20  1  0
 20 21  2  0
 19 22  1  0
  9  3  1  0
 15 10  1  0
 21 16  1  0
M  END
$$$$
