
     RDKit          3D

 22 24  0  0  0  0  0  0  0  0999 V2000
    2.6929   -4.7842    7.5901 N   0  0  0  0  0  0  0  0  0  0  0  0
    2.9890   -4.2174    6.6028 C   0  0  0  0  0  0  0  0  0  0  0  0
    3.3644   -3.5359    5.4008 C   0  0  0  0  0  0  0  0  0  0  0  0
    4.6008   -3.7640    4.8462 C   0  0  0  0  0  0  0  0  0  0  0  0
    4.9801   -3.1162    3.6880 C   0  0  0  0  0  0  0  0  0  0  0  0
    6.5758   -3.4258    2.9930 Cl  0  0  0  0  0  0  0  0  0  0  0  0
    4.1577   -2.2343    3.0516 C   0  0  0  0  0  0  0  0  0  0  0  0
    2.8997   -1.9942    3.6049 C   0  0  0  0  0  0  0  0  0  0  0  0
    2.5361   -2.6444    4.7555 C   0  0  0  0  0  0  0  0  0  0  0  0
    2.0090   -1.0578    2.9418 C   0  0  0  0  0  0  0  0  0  0  0  0
    1.0360   -0.4611    3.6605 N   0  0  0  0  0  0  0  0  0  0  0  0
    0.1704    0.4175    3.1225 C   0  0  0  0  0  0  0  0  0  0  0  0
    0.2914    0.7039    1.8122 N   0  0  0  0  0  0  0  0  0  0  0  0
    1.2251    0.1629    1.0157 C   0  0  0  0  0  0  0  0  0  0  0  0
    2.1060   -0.7436    1.6053 C   0  0  0  0  0  0  0  0  0  0  0  0
    1.3442    0.4818   -0.3987 C   0  0  0  0  0  0  0  0  0  0  0  0
    0.3116    1.1428   -1.0182 C   0  0  0  0  0  0  0  0  0  0  0  0
    0.3348    1.4873   -2.3557 C   0  0  0  0  0  0  0  0  0  0  0  0
    1.4426    1.1538   -3.1035 C   0  0  0  0  0  0  0  0  0  0  0  0
    2.4695    0.4911   -2.4676 C   0  0  0  0  0  0  0  0  0  0  0  0
    2.4140    0.1656   -1.1428 N   0  0  0  0  0  0  0  0  0  0  0  0
    1.5039    1.4760   -4.4261 F   0  0  0  0  0  0  0  0  0  0  0  0
  1  2  3  0
  2  3  1  0
  3  4  2  0
  4  5  1  0
  5  6  1  0
  5  7  2  0
  7  8  1  0
  8  9  2  0
  8 10  1  0
 10 11  2  0
 11 12  1  0
 12 13  2  0
 13 14  1  0
 14 15  2  0
 14 16  1  0
 16 17  2  0
 17 18  1  0
 18 19  2  0
 19 20  1  0
 20 21  2  0
 19 22  1  0
  9  3  1  0
 15 10  1  0
 21 16  1  0
M  END
$$$$
