
     RDKit          3D

 22 24  0  0  0  0  0  0  0  0999 V2000
    7.8610   -4.8918    4.8362 N   0  0  0  0  0  0  0  0  0  0  0  0
    6.8398   -4.3783    4.5580 C   0  0  0  0  0  0  0  0  0  0  0  0
    5.5941   -3.7502    4.2358 C   0  0  0  0  0  0  0  0  0  0  0  0
    4.6022   -3.6786    5.1840 C   0  0  0  0  0  0  0  0  0  0  0  0
    3.3949   -3.0769    4.8917 C   0  0  0  0  0  0  0  0  0  0  0  0
    2.1336   -2.9967    6.1279 Cl  0  0  0  0  0  0  0  0  0  0  0  0
    3.1360   -2.5348    3.6678 C   0  0  0  0  0  0  0  0  0  0  0  0
    4.1353   -2.6012    2.6965 C   0  0  0  0  0  0  0  0  0  0  0  0
    5.3295   -3.2016    3.0004 C   0  0  0  0  0  0  0  0  0  0  0  0
    3.8788   -2.0293    1.3861 C   0  0  0  0  0  0  0  0  0  0  0  0
    4.6951   -2.3512    0.3617 N   0  0  0  0  0  0  0  0  0  0  0  0
    4.5266   -1.8653   -0.8817 C   0  0  0  0  0  0  0  0  0  0  0  0
    3.4974   -1.0245   -1.0988 N   0  0  0  0  0  0  0  0  0  0  0  0
    2.6328   -0.6455   -0.1460 C   0  0  0  0  0  0  0  0  0  0  0  0
    2.8362   -1.1676    1.1314 C   0  0  0  0  0  0  0  0  0  0  0  0
    1.5248    0.2639   -0.3948 C   0  0  0  0  0  0  0  0  0  0  0  0
    1.2727    0.6637   -1.6847 C   0  0  0  0  0  0  0  0  0  0  0  0
    0.2442    1.5237   -2.0174 C   0  0  0  0  0  0  0  0  0  0  0  0
   -0.5661    2.0030   -1.0117 C   0  0  0  0  0  0  0  0  0  0  0  0
   -0.3001    1.5926    0.2763 C   0  0  0  0  0  0  0  0  0  0  0  0
    0.7256    0.7408    0.5704 N   0  0  0  0  0  0  0  0  0  0  0  0
   -1.5914    2.8534   -1.2990 F   0  0  0  0  0  0  0  0  0  0  0  0
  1  2  3  0
  2  3  1  0
  3  4  2  0
  4  5  1  0
  5  6  1  0
  5  7  2  0
  7  8  1  0
  8  9  2  0
  8 10  1  0
 10 11  2  0
 11 12  1  0
 12 13  2  0
 13 14  1  0
 14 15  2  0
 14 16  1  0
 16 17  2  0
 17 18  1  0
 18 19  2  0
 19 20  1  0
 20 21  2  0
 19 22  1  0
  9  3  1  0
 15 10  1  0
 21 16  1  0
M  END
$$$$
