
     RDKit          3D

 22 24  0  0  0  0  0  0  0  0999 V2000
    5.8870   -6.9936    5.4759 N   0  0  0  0  0  0  0  0  0  0  0  0
    5.0357   -6.2433    5.1658 C   0  0  0  0  0  0  0  0  0  0  0  0
    3.9949   -5.3407    4.7759 C   0  0  0  0  0  0  0  0  0  0  0  0
    2.6911   -5.6206    5.1073 C   0  0  0  0  0  0  0  0  0  0  0  0
    1.6745   -4.7623    4.7401 C   0  0  0  0  0  0  0  0  0  0  0  0
    0.0046   -5.1435    5.1777 Cl  0  0  0  0  0  0  0  0  0  0  0  0
    1.9144   -3.6156    4.0426 C   0  0  0  0  0  0  0  0  0  0  0  0
    3.2342   -3.3203    3.7001 C   0  0  0  0  0  0  0  0  0  0  0  0
    4.2339   -4.1816    4.0713 C   0  0  0  0  0  0  0  0  0  0  0  0
    3.5104   -2.1032    2.9570 C   0  0  0  0  0  0  0  0  0  0  0  0
    4.7716   -1.6256    2.9311 N   0  0  0  0  0  0  0  0  0  0  0  0
    5.1108   -0.5056    2.2668 C   0  0  0  0  0  0  0  0  0  0  0  0
    4.1422    0.1558    1.6050 N   0  0  0  0  0  0  0  0  0  0  0  0
    2.8610   -0.2394    1.5717 C   0  0  0  0  0  0  0  0  0  0  0  0
    2.5438   -1.4040    2.2706 C   0  0  0  0  0  0  0  0  0  0  0  0
    1.8247    0.4852    0.8523 C   0  0  0  0  0  0  0  0  0  0  0  0
    2.1926    1.5099    0.0145 C   0  0  0  0  0  0  0  0  0  0  0  0
    1.2805    2.2534   -0.7089 C   0  0  0  0  0  0  0  0  0  0  0  0
   -0.0588    1.9553   -0.5859 C   0  0  0  0  0  0  0  0  0  0  0  0
   -0.4114    0.9250    0.2581 C   0  0  0  0  0  0  0  0  0  0  0  0
    0.5168    0.2098    0.9590 N   0  0  0  0  0  0  0  0  0  0  0  0
   -0.9898    2.6656   -1.2827 F   0  0  0  0  0  0  0  0  0  0  0  0
  1  2  3  0
  2  3  1  0
  3  4  2  0
  4  5  1  0
  5  6  1  0
  5  7  2  0
  7  8  1  0
  8  9  2  0
  8 10  1  0
 10 11  2  0
 11 12  1  0
 12 13  2  0
 13 14  1  0
 14 15  2  0
 14 16  1  0
 16 17  2  0
 17 18  1  0
 18 19  2  0
 19 20  1  0
 20 21  2  0
 19 22  1  0
  9  3  1  0
 15 10  1  0
 21 16  1  0
M  END
$$$$
