
     RDKit          3D

 22 24  0  0  0  0  0  0  0  0999 V2000
    0.3256   -4.4535   11.0074 N   0  0  0  0  0  0  0  0  0  0  0  0
    0.9585   -4.1487   10.0638 C   0  0  0  0  0  0  0  0  0  0  0  0
    1.7184   -3.7647    8.9126 C   0  0  0  0  0  0  0  0  0  0  0  0
    2.6389   -2.7492    9.0119 C   0  0  0  0  0  0  0  0  0  0  0  0
    3.3805   -2.3652    7.9130 C   0  0  0  0  0  0  0  0  0  0  0  0
    4.5589   -1.0561    8.0649 Cl  0  0  0  0  0  0  0  0  0  0  0  0
    3.2355   -2.9668    6.6981 C   0  0  0  0  0  0  0  0  0  0  0  0
    2.3039   -3.9993    6.5845 C   0  0  0  0  0  0  0  0  0  0  0  0
    1.5743   -4.3703    7.6840 C   0  0  0  0  0  0  0  0  0  0  0  0
    2.1346   -4.6528    5.2984 C   0  0  0  0  0  0  0  0  0  0  0  0
    1.3153   -5.7207    5.2111 N   0  0  0  0  0  0  0  0  0  0  0  0
    1.1039   -6.3819    4.0584 C   0  0  0  0  0  0  0  0  0  0  0  0
    1.7425   -5.9497    2.9544 N   0  0  0  0  0  0  0  0  0  0  0  0
    2.5757   -4.8987    2.9406 C   0  0  0  0  0  0  0  0  0  0  0  0
    2.7724   -4.2361    4.1521 C   0  0  0  0  0  0  0  0  0  0  0  0
    3.2591   -4.4426    1.7399 C   0  0  0  0  0  0  0  0  0  0  0  0
    3.0016   -5.0776    0.5493 C   0  0  0  0  0  0  0  0  0  0  0  0
    3.6018   -4.7151   -0.6409 C   0  0  0  0  0  0  0  0  0  0  0  0
    4.4994   -3.6701   -0.6354 C   0  0  0  0  0  0  0  0  0  0  0  0
    4.7467   -3.0438    0.5666 C   0  0  0  0  0  0  0  0  0  0  0  0
    4.1354   -3.4279    1.7255 N   0  0  0  0  0  0  0  0  0  0  0  0
    5.1126   -3.2821   -1.7888 F   0  0  0  0  0  0  0  0  0  0  0  0
  1  2  3  0
  2  3  1  0
  3  4  2  0
  4  5  1  0
  5  6  1  0
  5  7  2  0
  7  8  1  0
  8  9  2  0
  8 10  1  0
 10 11  2  0
 11 12  1  0
 12 13  2  0
 13 14  1  0
 14 15  2  0
 14 16  1  0
 16 17  2  0
 17 18  1  0
 18 19  2  0
 19 20  1  0
 20 21  2  0
 19 22  1  0
  9  3  1  0
 15 10  1  0
 21 16  1  0
M  END
$$$$
