
     RDKit          3D

 22 24  0  0  0  0  0  0  0  0999 V2000
   -0.0436    3.0329   -4.7541 N   0  0  0  0  0  0  0  0  0  0  0  0
    0.5377    2.2372   -4.1116 C   0  0  0  0  0  0  0  0  0  0  0  0
    1.2389    1.2757   -3.3154 C   0  0  0  0  0  0  0  0  0  0  0  0
    2.0724    0.3671   -3.9220 C   0  0  0  0  0  0  0  0  0  0  0  0
    2.7566   -0.5671   -3.1709 C   0  0  0  0  0  0  0  0  0  0  0  0
    3.8234   -1.7260   -3.9736 Cl  0  0  0  0  0  0  0  0  0  0  0  0
    2.6381   -0.6296   -1.8141 C   0  0  0  0  0  0  0  0  0  0  0  0
    1.7947    0.2876   -1.1864 C   0  0  0  0  0  0  0  0  0  0  0  0
    1.1214    1.2099   -1.9447 C   0  0  0  0  0  0  0  0  0  0  0  0
    1.6550    0.2371    0.2585 C   0  0  0  0  0  0  0  0  0  0  0  0
    0.8448    1.1268    0.8679 N   0  0  0  0  0  0  0  0  0  0  0  0
    0.6604    1.1474    2.2006 C   0  0  0  0  0  0  0  0  0  0  0  0
    1.3175    0.2375    2.9447 N   0  0  0  0  0  0  0  0  0  0  0  0
    2.1436   -0.6862    2.4318 C   0  0  0  0  0  0  0  0  0  0  0  0
    2.3121   -0.6797    1.0472 C   0  0  0  0  0  0  0  0  0  0  0  0
    2.8472   -1.6637    3.2480 C   0  0  0  0  0  0  0  0  0  0  0  0
    2.4606   -1.8368    4.5547 C   0  0  0  0  0  0  0  0  0  0  0  0
    3.0686   -2.7401    5.4049 C   0  0  0  0  0  0  0  0  0  0  0  0
    4.1095   -3.5024    4.9221 C   0  0  0  0  0  0  0  0  0  0  0  0
    4.4851   -3.3168    3.6096 C   0  0  0  0  0  0  0  0  0  0  0  0
    3.8620   -2.4145    2.7961 N   0  0  0  0  0  0  0  0  0  0  0  0
    4.7352   -4.4046    5.7292 F   0  0  0  0  0  0  0  0  0  0  0  0
  1  2  3  0
  2  3  1  0
  3  4  2  0
  4  5  1  0
  5  6  1  0
  5  7  2  0
  7  8  1  0
  8  9  2  0
  8 10  1  0
 10 11  2  0
 11 12  1  0
 12 13  2  0
 13 14  1  0
 14 15  2  0
 14 16  1  0
 16 17  2  0
 17 18  1  0
 18 19  2  0
 19 20  1  0
 20 21  2  0
 19 22  1  0
  9  3  1  0
 15 10  1  0
 21 16  1  0
M  END
$$$$
