
     RDKit          3D

 33 36  0  0  0  0  0  0  0  0999 V2000
   13.3970   11.6428   -6.9534 C   0  0  0  0  0  0  0  0  0  0  0  0
   12.2778   11.6452   -5.9836 C   0  0  0  0  0  0  0  0  0  0  0  0
   12.3672   10.3769   -5.1507 C   0  0  0  0  0  0  0  0  0  0  0  0
   12.0885   12.8587   -5.1547 C   0  0  0  0  0  0  0  0  0  0  0  0
   11.8612   12.4799   -3.7175 C   0  0  0  0  0  0  0  0  0  0  0  0
   13.1531   11.7445   -3.3601 C   0  0  0  0  0  0  0  0  0  0  0  0
   14.2074   12.5114   -4.0844 C   0  0  0  0  0  0  0  0  0  0  0  0
   13.5194   13.5118   -4.9588 C   0  0  0  0  0  0  0  0  0  0  0  0
   15.0557   13.1581   -3.0903 N   0  0  0  0  0  4  0  0  0  0  0  0
   14.2771   13.9463   -2.1646 C   0  0  0  0  0  0  0  0  0  0  0  0
   13.9392   13.1558   -0.8951 C   0  0  0  0  0  0  0  0  0  0  0  0
   13.7404   14.2185    0.1919 C   0  0  0  0  0  0  0  0  0  0  0  0
   13.2338   15.3967   -0.3309 O   0  0  0  0  0  0  0  0  0  0  0  0
   14.2191   16.1336   -1.0204 C   0  0  0  0  0  0  0  0  0  0  0  0
   15.1112   15.1248   -1.7095 C   0  0  0  0  0  0  0  0  0  0  0  0
   15.8214   15.6436   -2.7611 O   0  0  0  0  0  0  0  0  0  0  0  0
   16.2056   16.9548   -2.6104 C   0  0  0  0  0  0  0  0  0  0  0  0
   11.1786   13.8881   -5.6021 C   0  0  0  0  0  0  0  0  0  0  0  0
   10.3172   14.2342   -4.6535 O   0  0  0  0  0  0  0  0  0  0  0  0
   10.9906   14.5924   -6.7697 N   0  0  0  0  0  0  0  0  0  0  0  0
   11.9974   14.4416   -7.8490 C   0  0  0  0  0  0  0  0  0  0  0  0
   12.5627   15.8545   -8.0734 C   0  0  0  0  0  0  0  0  0  0  0  0
   11.4374   16.6292   -8.6456 C   0  0  0  0  0  0  0  0  0  0  0  0
   10.1768   16.4475   -8.1745 C   0  0  0  0  0  0  0  0  0  0  0  0
    9.9215   15.4736   -7.0603 C   0  0  0  0  0  0  0  0  0  0  0  0
    9.0924   17.1574   -8.6995 C   0  0  0  0  0  0  0  0  0  0  0  0
    9.3046   18.0597   -9.7145 C   0  0  0  0  0  0  0  0  0  0  0  0
   10.5930   18.2273  -10.1761 C   0  0  0  0  0  0  0  0  0  0  0  0
   11.6099   17.5221   -9.6416 N   0  0  0  0  0  0  0  0  0  0  0  0
    8.1933   18.8477  -10.3174 C   0  0  0  0  0  0  0  0  0  0  0  0
    7.0636   18.0478  -10.3212 F   0  0  0  0  0  0  0  0  0  0  0  0
    8.5111   19.1869  -11.6076 F   0  0  0  0  0  0  0  0  0  0  0  0
    7.9914   19.9935   -9.5499 F   0  0  0  0  0  0  0  0  0  0  0  0
  1  2  1  0
  2  3  1  0
  2  4  1  0
  4  5  1  0
  5  6  1  0
  6  7  1  0
  7  8  1  0
  7  9  1  0
  9 10  1  0
 10 11  1  0
 11 12  1  0
 12 13  1  0
 13 14  1  0
 14 15  1  0
 15 16  1  0
 16 17  1  0
  4 18  1  0
 18 19  2  0
 18 20  1  0
 20 21  1  0
 21 22  1  0
 22 23  1  0
 23 24  2  0
 24 25  1  0
 24 26  1  0
 26 27  2  0
 27 28  1  0
 28 29  2  0
 27 30  1  0
 30 31  1  0
 30 32  1  0
 30 33  1  0
  8  4  1  0
 15 10  1  0
 25 20  1  0
 29 23  1  0
M  CHG  1   9   1
M  END
$$$$
