
     RDKit          3D

 33 36  0  0  0  0  0  0  0  0999 V2000
    3.1488    4.5693   18.3842 C   0  0  0  0  0  0  0  0  0  0  0  0
    3.5872    3.3125   19.0336 C   0  0  0  0  0  0  0  0  0  0  0  0
    2.6013    2.9805   20.1418 C   0  0  0  0  0  0  0  0  0  0  0  0
    3.8743    2.1507   18.1600 C   0  0  0  0  0  0  0  0  0  0  0  0
    5.3463    2.0707   17.8635 C   0  0  0  0  0  0  0  0  0  0  0  0
    5.9558    1.8988   19.2551 C   0  0  0  0  0  0  0  0  0  0  0  0
    4.9824    1.0157   19.9599 C   0  0  0  0  0  0  0  0  0  0  0  0
    3.7897    0.8561   19.0707 C   0  0  0  0  0  0  0  0  0  0  0  0
    5.6379   -0.2614   20.2161 N   0  0  0  0  0  4  0  0  0  0  0  0
    7.0726   -0.1143   20.2822 C   0  0  0  0  0  0  0  0  0  0  0  0
    7.5235    0.4157   21.6484 C   0  0  0  0  0  0  0  0  0  0  0  0
    8.9608   -0.0910   21.8150 C   0  0  0  0  0  0  0  0  0  0  0  0
    9.6122   -0.1920   20.5969 O   0  0  0  0  0  0  0  0  0  0  0  0
    9.1868   -1.3193   19.8640 C   0  0  0  0  0  0  0  0  0  0  0  0
    7.7077   -1.4808   20.1374 C   0  0  0  0  0  0  0  0  0  0  0  0
    7.0482   -2.2175   19.1880 O   0  0  0  0  0  0  0  0  0  0  0  0
    7.8618   -2.9030   18.3176 C   0  0  0  0  0  0  0  0  0  0  0  0
    3.0642    1.9304   16.9840 C   0  0  0  0  0  0  0  0  0  0  0  0
    3.8062    1.7094   15.9059 O   0  0  0  0  0  0  0  0  0  0  0  0
    1.7150    1.8954   16.7138 N   0  0  0  0  0  0  0  0  0  0  0  0
    1.2745    1.3239   15.4174 C   0  0  0  0  0  0  0  0  0  0  0  0
    0.5352    2.4679   14.7027 C   0  0  0  0  0  0  0  0  0  0  0  0
   -0.6881    2.6926   15.5070 C   0  0  0  0  0  0  0  0  0  0  0  0
   -0.6314    2.6364   16.8626 C   0  0  0  0  0  0  0  0  0  0  0  0
    0.6746    2.3635   17.5517 C   0  0  0  0  0  0  0  0  0  0  0  0
   -1.7702    2.8358   17.6493 C   0  0  0  0  0  0  0  0  0  0  0  0
   -2.9745    3.0947   17.0395 C   0  0  0  0  0  0  0  0  0  0  0  0
   -3.0074    3.1472   15.6620 C   0  0  0  0  0  0  0  0  0  0  0  0
   -1.8855    2.9489   14.9416 N   0  0  0  0  0  0  0  0  0  0  0  0
   -4.2245    3.3164   17.8193 C   0  0  0  0  0  0  0  0  0  0  0  0
   -4.5243    2.1367   18.4784 F   0  0  0  0  0  0  0  0  0  0  0  0
   -5.2526    3.6327   16.9687 F   0  0  0  0  0  0  0  0  0  0  0  0
   -4.0072    4.3532   18.7251 F   0  0  0  0  0  0  0  0  0  0  0  0
  1  2  1  0
  2  3  1  0
  2  4  1  0
  4  5  1  0
  5  6  1  0
  6  7  1  0
  7  8  1  0
  7  9  1  0
  9 10  1  0
 10 11  1  0
 11 12  1  0
 12 13  1  0
 13 14  1  0
 14 15  1  0
 15 16  1  0
 16 17  1  0
  4 18  1  0
 18 19  2  0
 18 20  1  0
 20 21  1  0
 21 22  1  0
 22 23  1  0
 23 24  2  0
 24 25  1  0
 24 26  1  0
 26 27  2  0
 27 28  1  0
 28 29  2  0
 27 30  1  0
 30 31  1  0
 30 32  1  0
 30 33  1  0
  8  4  1  0
 15 10  1  0
 25 20  1  0
 29 23  1  0
M  CHG  1   9   1
M  END
$$$$
