
     RDKit          3D

 33 36  0  0  0  0  0  0  0  0999 V2000
    9.7219   15.8669  -10.7844 C   0  0  0  0  0  0  0  0  0  0  0  0
   10.1212   15.5419   -9.3959 C   0  0  0  0  0  0  0  0  0  0  0  0
    8.8644   15.4680   -8.5442 C   0  0  0  0  0  0  0  0  0  0  0  0
   11.0166   14.3791   -9.1919 C   0  0  0  0  0  0  0  0  0  0  0  0
   12.2481   14.5117  -10.0442 C   0  0  0  0  0  0  0  0  0  0  0  0
   12.8728   15.8069   -9.5250 C   0  0  0  0  0  0  0  0  0  0  0  0
   12.6191   15.7568   -8.0562 C   0  0  0  0  0  0  0  0  0  0  0  0
   11.7281   14.5845   -7.7904 C   0  0  0  0  0  0  0  0  0  0  0  0
   13.9049   15.6197   -7.3823 N   0  0  0  0  0  4  0  0  0  0  0  0
   14.4406   16.9050   -7.0012 C   0  0  0  0  0  0  0  0  0  0  0  0
   13.7939   17.4268   -5.7126 C   0  0  0  0  0  0  0  0  0  0  0  0
   14.8396   18.3628   -5.0957 C   0  0  0  0  0  0  0  0  0  0  0  0
   15.6069   18.9840   -6.0671 O   0  0  0  0  0  0  0  0  0  0  0  0
   16.5631   18.1086   -6.6225 C   0  0  0  0  0  0  0  0  0  0  0  0
   15.9134   16.7441   -6.6902 C   0  0  0  0  0  0  0  0  0  0  0  0
   16.5034   15.8960   -7.5912 O   0  0  0  0  0  0  0  0  0  0  0  0
   15.7719   15.6610   -8.7311 C   0  0  0  0  0  0  0  0  0  0  0  0
   10.4646   13.0442   -9.2277 C   0  0  0  0  0  0  0  0  0  0  0  0
   10.8382   12.3255   -8.1762 O   0  0  0  0  0  0  0  0  0  0  0  0
    9.6494   12.3417  -10.0859 N   0  0  0  0  0  0  0  0  0  0  0  0
    9.6915   12.6828  -11.5292 C   0  0  0  0  0  0  0  0  0  0  0  0
    8.2624   13.1312  -11.8794 C   0  0  0  0  0  0  0  0  0  0  0  0
    7.4373   11.9074  -11.7547 C   0  0  0  0  0  0  0  0  0  0  0  0
    7.6667   11.0320  -10.7423 C   0  0  0  0  0  0  0  0  0  0  0  0
    8.7459   11.3098   -9.7357 C   0  0  0  0  0  0  0  0  0  0  0  0
    6.9107    9.8640  -10.6023 C   0  0  0  0  0  0  0  0  0  0  0  0
    5.9126    9.5939  -11.5080 C   0  0  0  0  0  0  0  0  0  0  0  0
    5.6981   10.4975  -12.5272 C   0  0  0  0  0  0  0  0  0  0  0  0
    6.4505   11.6116  -12.6252 N   0  0  0  0  0  0  0  0  0  0  0  0
    5.0712    8.3679  -11.4156 C   0  0  0  0  0  0  0  0  0  0  0  0
    3.7613    8.7700  -11.2201 F   0  0  0  0  0  0  0  0  0  0  0  0
    5.4746    7.6071  -10.3483 F   0  0  0  0  0  0  0  0  0  0  0  0
    5.2008    7.6476  -12.6018 F   0  0  0  0  0  0  0  0  0  0  0  0
  1  2  1  0
  2  3  1  0
  2  4  1  0
  4  5  1  0
  5  6  1  0
  6  7  1  0
  7  8  1  0
  7  9  1  0
  9 10  1  0
 10 11  1  0
 11 12  1  0
 12 13  1  0
 13 14  1  0
 14 15  1  0
 15 16  1  0
 16 17  1  0
  4 18  1  0
 18 19  2  0
 18 20  1  0
 20 21  1  0
 21 22  1  0
 22 23  1  0
 23 24  2  0
 24 25  1  0
 24 26  1  0
 26 27  2  0
 27 28  1  0
 28 29  2  0
 27 30  1  0
 30 31  1  0
 30 32  1  0
 30 33  1  0
  8  4  1  0
 15 10  1  0
 25 20  1  0
 29 23  1  0
M  CHG  1   9   1
M  END
$$$$
