
     RDKit          3D

 33 36  0  0  0  0  0  0  0  0999 V2000
    2.6623    3.7640   13.8477 C   0  0  0  0  0  0  0  0  0  0  0  0
    2.1985    2.6178   14.6627 C   0  0  0  0  0  0  0  0  0  0  0  0
    3.2656    2.3088   15.7001 C   0  0  0  0  0  0  0  0  0  0  0  0
    0.8399    2.6957   15.2489 C   0  0  0  0  0  0  0  0  0  0  0  0
   -0.1378    3.2213   14.2347 C   0  0  0  0  0  0  0  0  0  0  0  0
   -0.0583    2.1738   13.1238 C   0  0  0  0  0  0  0  0  0  0  0  0
    0.0905    0.8868   13.8625 C   0  0  0  0  0  0  0  0  0  0  0  0
    0.2779    1.2149   15.3103 C   0  0  0  0  0  0  0  0  0  0  0  0
   -1.1164    0.0991   13.6407 N   0  0  0  0  0  4  0  0  0  0  0  0
   -0.8990   -1.2958   13.9426 C   0  0  0  0  0  0  0  0  0  0  0  0
   -1.0623   -1.5816   15.4401 C   0  0  0  0  0  0  0  0  0  0  0  0
   -1.4624   -3.0593   15.5199 C   0  0  0  0  0  0  0  0  0  0  0  0
   -0.9043   -3.7970   14.4891 O   0  0  0  0  0  0  0  0  0  0  0  0
   -1.5659   -3.5743   13.2637 C   0  0  0  0  0  0  0  0  0  0  0  0
   -1.9643   -2.1150   13.2457 C   0  0  0  0  0  0  0  0  0  0  0  0
   -2.2007   -1.6230   11.9882 O   0  0  0  0  0  0  0  0  0  0  0  0
   -3.5272   -1.5446   11.6363 C   0  0  0  0  0  0  0  0  0  0  0  0
    0.6621    3.3014   16.5487 C   0  0  0  0  0  0  0  0  0  0  0  0
    0.6544    4.6269   16.4805 O   0  0  0  0  0  0  0  0  0  0  0  0
    0.5003    2.8370   17.8343 N   0  0  0  0  0  0  0  0  0  0  0  0
    0.0738    3.8003   18.8789 C   0  0  0  0  0  0  0  0  0  0  0  0
    1.2095    3.7991   19.9165 C   0  0  0  0  0  0  0  0  0  0  0  0
    1.1616    2.4532   20.5329 C   0  0  0  0  0  0  0  0  0  0  0  0
    0.9159    1.3609   19.7645 C   0  0  0  0  0  0  0  0  0  0  0  0
    0.7090    1.5113   18.2847 C   0  0  0  0  0  0  0  0  0  0  0  0
    0.8561    0.0781   20.3179 C   0  0  0  0  0  0  0  0  0  0  0  0
    1.0502   -0.0834   21.6690 C   0  0  0  0  0  0  0  0  0  0  0  0
    1.2985    1.0401   22.4287 C   0  0  0  0  0  0  0  0  0  0  0  0
    1.3475    2.2587   21.8545 N   0  0  0  0  0  0  0  0  0  0  0  0
    0.9996   -1.4221   22.3209 C   0  0  0  0  0  0  0  0  0  0  0  0
    2.0696   -2.1617   21.8475 F   0  0  0  0  0  0  0  0  0  0  0  0
   -0.1702   -2.0563   21.9892 F   0  0  0  0  0  0  0  0  0  0  0  0
    1.0837   -1.2494   23.7014 F   0  0  0  0  0  0  0  0  0  0  0  0
  1  2  1  0
  2  3  1  0
  2  4  1  0
  4  5  1  0
  5  6  1  0
  6  7  1  0
  7  8  1  0
  7  9  1  0
  9 10  1  0
 10 11  1  0
 11 12  1  0
 12 13  1  0
 13 14  1  0
 14 15  1  0
 15 16  1  0
 16 17  1  0
  4 18  1  0
 18 19  2  0
 18 20  1  0
 20 21  1  0
 21 22  1  0
 22 23  1  0
 23 24  2  0
 24 25  1  0
 24 26  1  0
 26 27  2  0
 27 28  1  0
 28 29  2  0
 27 30  1  0
 30 31  1  0
 30 32  1  0
 30 33  1  0
  8  4  1  0
 15 10  1  0
 25 20  1  0
 29 23  1  0
M  CHG  1   9   1
M  END
$$$$
