
     RDKit          3D

 33 36  0  0  0  0  0  0  0  0999 V2000
   -3.8317    2.4091   14.2538 C   0  0  0  0  0  0  0  0  0  0  0  0
   -2.7958    2.5399   15.3040 C   0  0  0  0  0  0  0  0  0  0  0  0
   -3.3558    3.4072   16.4195 C   0  0  0  0  0  0  0  0  0  0  0  0
   -2.1683    1.2966   15.8098 C   0  0  0  0  0  0  0  0  0  0  0  0
   -3.0580    0.1148   15.5404 C   0  0  0  0  0  0  0  0  0  0  0  0
   -3.1612    0.1185   14.0150 C   0  0  0  0  0  0  0  0  0  0  0  0
   -1.7960    0.5214   13.5701 C   0  0  0  0  0  0  0  0  0  0  0  0
   -1.0193    0.9107   14.7883 C   0  0  0  0  0  0  0  0  0  0  0  0
   -1.1918   -0.6164   12.8869 N   0  0  0  0  0  4  0  0  0  0  0  0
   -0.5048   -0.2063   11.6852 C   0  0  0  0  0  0  0  0  0  0  0  0
    0.9959   -0.0113   11.9312 C   0  0  0  0  0  0  0  0  0  0  0  0
    1.6542   -0.2416   10.5660 C   0  0  0  0  0  0  0  0  0  0  0  0
    0.8255    0.1464    9.5263 O   0  0  0  0  0  0  0  0  0  0  0  0
   -0.2101   -0.7845    9.3028 C   0  0  0  0  0  0  0  0  0  0  0  0
   -0.6163   -1.3147   10.6602 C   0  0  0  0  0  0  0  0  0  0  0  0
   -1.8715   -1.8653   10.6846 O   0  0  0  0  0  0  0  0  0  0  0  0
   -2.3997   -2.1592    9.4501 C   0  0  0  0  0  0  0  0  0  0  0  0
   -1.6138    1.2741   17.1440 C   0  0  0  0  0  0  0  0  0  0  0  0
   -2.4812    0.8058   18.0328 O   0  0  0  0  0  0  0  0  0  0  0  0
   -0.4090    1.6204   17.7123 N   0  0  0  0  0  0  0  0  0  0  0  0
    0.0473    0.8630   18.9037 C   0  0  0  0  0  0  0  0  0  0  0  0
    0.1732    1.9102   20.0234 C   0  0  0  0  0  0  0  0  0  0  0  0
    1.3019    2.7759   19.6109 C   0  0  0  0  0  0  0  0  0  0  0  0
    1.4506    3.1255   18.3072 C   0  0  0  0  0  0  0  0  0  0  0  0
    0.4617    2.6501   17.2818 C   0  0  0  0  0  0  0  0  0  0  0  0
    2.5102    3.9345   17.8850 C   0  0  0  0  0  0  0  0  0  0  0  0
    3.4225    4.3873   18.8080 C   0  0  0  0  0  0  0  0  0  0  0  0
    3.2508    4.0195   20.1258 C   0  0  0  0  0  0  0  0  0  0  0  0
    2.2148    3.2376   20.4898 N   0  0  0  0  0  0  0  0  0  0  0  0
    4.5735    5.2519   18.4241 C   0  0  0  0  0  0  0  0  0  0  0  0
    4.2230    5.9316   17.2704 F   0  0  0  0  0  0  0  0  0  0  0  0
    5.6751    4.4744   18.1737 F   0  0  0  0  0  0  0  0  0  0  0  0
    4.8323    6.1391   19.4674 F   0  0  0  0  0  0  0  0  0  0  0  0
  1  2  1  0
  2  3  1  0
  2  4  1  0
  4  5  1  0
  5  6  1  0
  6  7  1  0
  7  8  1  0
  7  9  1  0
  9 10  1  0
 10 11  1  0
 11 12  1  0
 12 13  1  0
 13 14  1  0
 14 15  1  0
 15 16  1  0
 16 17  1  0
  4 18  1  0
 18 19  2  0
 18 20  1  0
 20 21  1  0
 21 22  1  0
 22 23  1  0
 23 24  2  0
 24 25  1  0
 24 26  1  0
 26 27  2  0
 27 28  1  0
 28 29  2  0
 27 30  1  0
 30 31  1  0
 30 32  1  0
 30 33  1  0
  8  4  1  0
 15 10  1  0
 25 20  1  0
 29 23  1  0
M  CHG  1   9   1
M  END
$$$$
