
     RDKit          3D

 33 36  0  0  0  0  0  0  0  0999 V2000
   13.6277   12.5347   -7.8170 C   0  0  0  0  0  0  0  0  0  0  0  0
   13.4332   13.7687   -7.0217 C   0  0  0  0  0  0  0  0  0  0  0  0
   14.0199   14.9345   -7.8009 C   0  0  0  0  0  0  0  0  0  0  0  0
   12.0706   14.0518   -6.5133 C   0  0  0  0  0  0  0  0  0  0  0  0
   11.6571   13.0058   -5.5154 C   0  0  0  0  0  0  0  0  0  0  0  0
   12.7139   13.1559   -4.4207 C   0  0  0  0  0  0  0  0  0  0  0  0
   12.9479   14.6274   -4.3557 C   0  0  0  0  0  0  0  0  0  0  0  0
   12.2004   15.2551   -5.4897 C   0  0  0  0  0  0  0  0  0  0  0  0
   12.4657   15.1026   -3.0642 N   0  0  0  0  0  4  0  0  0  0  0  0
   13.5462   15.2448   -2.1174 C   0  0  0  0  0  0  0  0  0  0  0  0
   13.3010   16.4100   -1.1515 C   0  0  0  0  0  0  0  0  0  0  0  0
   14.0905   16.0497    0.1123 C   0  0  0  0  0  0  0  0  0  0  0  0
   15.2252   15.3136   -0.1858 O   0  0  0  0  0  0  0  0  0  0  0  0
   14.9161   13.9745   -0.5028 C   0  0  0  0  0  0  0  0  0  0  0  0
   13.6058   13.9998   -1.2583 C   0  0  0  0  0  0  0  0  0  0  0  0
   13.3862   12.8813   -2.0199 O   0  0  0  0  0  0  0  0  0  0  0  0
   12.1398   12.3191   -1.8785 C   0  0  0  0  0  0  0  0  0  0  0  0
   11.0155   14.3657   -7.4492 C   0  0  0  0  0  0  0  0  0  0  0  0
   10.5140   15.5771   -7.2420 O   0  0  0  0  0  0  0  0  0  0  0  0
   10.4077   13.7140   -8.4982 N   0  0  0  0  0  0  0  0  0  0  0  0
   10.4158   14.3691   -9.8294 C   0  0  0  0  0  0  0  0  0  0  0  0
    8.9337   14.5670  -10.1905 C   0  0  0  0  0  0  0  0  0  0  0  0
    8.4042   13.1985  -10.3923 C   0  0  0  0  0  0  0  0  0  0  0  0
    8.7948   12.1896   -9.5716 C   0  0  0  0  0  0  0  0  0  0  0  0
    9.7514   12.4609   -8.4461 C   0  0  0  0  0  0  0  0  0  0  0  0
    8.3195   10.8855   -9.7412 C   0  0  0  0  0  0  0  0  0  0  0  0
    7.4371   10.6164  -10.7602 C   0  0  0  0  0  0  0  0  0  0  0  0
    7.0547   11.6568  -11.5804 C   0  0  0  0  0  0  0  0  0  0  0  0
    7.5375   12.8995  -11.3815 N   0  0  0  0  0  0  0  0  0  0  0  0
    6.8932    9.2494  -10.9952 C   0  0  0  0  0  0  0  0  0  0  0  0
    5.7562    9.1094  -10.2184 F   0  0  0  0  0  0  0  0  0  0  0  0
    7.8179    8.3102  -10.6164 F   0  0  0  0  0  0  0  0  0  0  0  0
    6.5924    9.1159  -12.3496 F   0  0  0  0  0  0  0  0  0  0  0  0
  1  2  1  0
  2  3  1  0
  2  4  1  0
  4  5  1  0
  5  6  1  0
  6  7  1  0
  7  8  1  0
  7  9  1  0
  9 10  1  0
 10 11  1  0
 11 12  1  0
 12 13  1  0
 13 14  1  0
 14 15  1  0
 15 16  1  0
 16 17  1  0
  4 18  1  0
 18 19  2  0
 18 20  1  0
 20 21  1  0
 21 22  1  0
 22 23  1  0
 23 24  2  0
 24 25  1  0
 24 26  1  0
 26 27  2  0
 27 28  1  0
 28 29  2  0
 27 30  1  0
 30 31  1  0
 30 32  1  0
 30 33  1  0
  8  4  1  0
 15 10  1  0
 25 20  1  0
 29 23  1  0
M  CHG  1   9   1
M  END
$$$$
