
     RDKit          3D

 33 36  0  0  0  0  0  0  0  0999 V2000
   14.3771   16.0137   -4.8122 C   0  0  0  0  0  0  0  0  0  0  0  0
   13.2197   15.1923   -4.3894 C   0  0  0  0  0  0  0  0  0  0  0  0
   12.0034   15.6392   -5.1839 C   0  0  0  0  0  0  0  0  0  0  0  0
   13.3865   13.7201   -4.3835 C   0  0  0  0  0  0  0  0  0  0  0  0
   14.8130   13.3568   -4.0770 C   0  0  0  0  0  0  0  0  0  0  0  0
   15.0162   13.9565   -2.6854 C   0  0  0  0  0  0  0  0  0  0  0  0
   13.7093   13.7224   -2.0061 C   0  0  0  0  0  0  0  0  0  0  0  0
   12.7564   13.1894   -3.0293 C   0  0  0  0  0  0  0  0  0  0  0  0
   13.9289   12.7679   -0.9258 N   0  0  0  0  0  4  0  0  0  0  0  0
   14.9039   13.2567    0.0201 C   0  0  0  0  0  0  0  0  0  0  0  0
   14.9017   14.7881    0.0929 C   0  0  0  0  0  0  0  0  0  0  0  0
   15.4250   15.1187    1.4955 C   0  0  0  0  0  0  0  0  0  0  0  0
   16.3293   14.1690    1.9411 O   0  0  0  0  0  0  0  0  0  0  0  0
   15.6880   12.9797    2.3451 C   0  0  0  0  0  0  0  0  0  0  0  0
   14.5217   12.7753    1.4035 C   0  0  0  0  0  0  0  0  0  0  0  0
   14.0731   11.4809    1.3534 O   0  0  0  0  0  0  0  0  0  0  0  0
   15.0371   10.5245    1.5667 C   0  0  0  0  0  0  0  0  0  0  0  0
   12.8427   12.9404   -5.4717 C   0  0  0  0  0  0  0  0  0  0  0  0
   13.2117   11.6674   -5.4015 O   0  0  0  0  0  0  0  0  0  0  0  0
   12.0386   13.1989   -6.5585 N   0  0  0  0  0  0  0  0  0  0  0  0
   11.5742   14.5918   -6.7713 C   0  0  0  0  0  0  0  0  0  0  0  0
   10.0389   14.5186   -6.7116 C   0  0  0  0  0  0  0  0  0  0  0  0
    9.6466   13.7501   -7.9155 C   0  0  0  0  0  0  0  0  0  0  0  0
   10.3825   12.6789   -8.3090 C   0  0  0  0  0  0  0  0  0  0  0  0
   11.5865   12.2591   -7.5157 C   0  0  0  0  0  0  0  0  0  0  0  0
   10.0430   11.9383   -9.4455 C   0  0  0  0  0  0  0  0  0  0  0  0
    8.9403   12.3003  -10.1820 C   0  0  0  0  0  0  0  0  0  0  0  0
    8.2084   13.3911   -9.7628 C   0  0  0  0  0  0  0  0  0  0  0  0
    8.5712   14.0775   -8.6608 N   0  0  0  0  0  0  0  0  0  0  0  0
    8.5243   11.5539  -11.4024 C   0  0  0  0  0  0  0  0  0  0  0  0
    9.6688   11.2432  -12.1164 F   0  0  0  0  0  0  0  0  0  0  0  0
    7.7103   12.3426  -12.1743 F   0  0  0  0  0  0  0  0  0  0  0  0
    7.8510   10.3982  -11.0105 F   0  0  0  0  0  0  0  0  0  0  0  0
  1  2  1  0
  2  3  1  0
  2  4  1  0
  4  5  1  0
  5  6  1  0
  6  7  1  0
  7  8  1  0
  7  9  1  0
  9 10  1  0
 10 11  1  0
 11 12  1  0
 12 13  1  0
 13 14  1  0
 14 15  1  0
 15 16  1  0
 16 17  1  0
  4 18  1  0
 18 19  2  0
 18 20  1  0
 20 21  1  0
 21 22  1  0
 22 23  1  0
 23 24  2  0
 24 25  1  0
 24 26  1  0
 26 27  2  0
 27 28  1  0
 28 29  2  0
 27 30  1  0
 30 31  1  0
 30 32  1  0
 30 33  1  0
  8  4  1  0
 15 10  1  0
 25 20  1  0
 29 23  1  0
M  CHG  1   9   1
M  END
$$$$
