
     RDKit          3D

 33 36  0  0  0  0  0  0  0  0999 V2000
    4.6172    2.4262   14.8639 C   0  0  0  0  0  0  0  0  0  0  0  0
    5.0823    2.0524   16.2192 C   0  0  0  0  0  0  0  0  0  0  0  0
    5.4987    3.3207   16.9461 C   0  0  0  0  0  0  0  0  0  0  0  0
    4.1963    1.1918   17.0376 C   0  0  0  0  0  0  0  0  0  0  0  0
    4.5143   -0.2589   16.8029 C   0  0  0  0  0  0  0  0  0  0  0  0
    5.9724   -0.3556   17.2524 C   0  0  0  0  0  0  0  0  0  0  0  0
    6.0376    0.5502   18.4354 C   0  0  0  0  0  0  0  0  0  0  0  0
    4.7279    1.2676   18.5289 C   0  0  0  0  0  0  0  0  0  0  0  0
    6.2885   -0.2688   19.6154 N   0  0  0  0  0  4  0  0  0  0  0  0
    7.5658   -0.9365   19.5324 C   0  0  0  0  0  0  0  0  0  0  0  0
    8.6402   -0.2032   20.3441 C   0  0  0  0  0  0  0  0  0  0  0  0
    9.6642   -1.2831   20.7123 C   0  0  0  0  0  0  0  0  0  0  0  0
    9.7445   -2.2652   19.7390 O   0  0  0  0  0  0  0  0  0  0  0  0
    8.6425   -3.1442   19.7856 C   0  0  0  0  0  0  0  0  0  0  0  0
    7.4377   -2.3088   20.1586 C   0  0  0  0  0  0  0  0  0  0  0  0
    6.2409   -2.8822   19.8153 O   0  0  0  0  0  0  0  0  0  0  0  0
    5.7022   -3.7141   20.7679 C   0  0  0  0  0  0  0  0  0  0  0  0
    2.7742    1.4475   17.0506 C   0  0  0  0  0  0  0  0  0  0  0  0
    2.0729    0.3603   16.7540 O   0  0  0  0  0  0  0  0  0  0  0  0
    1.9757    2.5417   17.2946 N   0  0  0  0  0  0  0  0  0  0  0  0
    2.6076    3.7575   17.8637 C   0  0  0  0  0  0  0  0  0  0  0  0
    1.8962    3.9903   19.2075 C   0  0  0  0  0  0  0  0  0  0  0  0
    0.5087    4.3610   18.8454 C   0  0  0  0  0  0  0  0  0  0  0  0
   -0.1203    3.7272   17.8224 C   0  0  0  0  0  0  0  0  0  0  0  0
    0.5820    2.6367   17.0657 C   0  0  0  0  0  0  0  0  0  0  0  0
   -1.4268    4.0600   17.4510 C   0  0  0  0  0  0  0  0  0  0  0  0
   -2.0911    5.0499   18.1352 C   0  0  0  0  0  0  0  0  0  0  0  0
   -1.4322    5.6789   19.1703 C   0  0  0  0  0  0  0  0  0  0  0  0
   -0.1722    5.3270   19.4953 N   0  0  0  0  0  0  0  0  0  0  0  0
   -3.4834    5.4523   17.7901 C   0  0  0  0  0  0  0  0  0  0  0  0
   -3.5451    5.6207   16.4176 F   0  0  0  0  0  0  0  0  0  0  0  0
   -3.7899    6.6390   18.4053 F   0  0  0  0  0  0  0  0  0  0  0  0
   -4.3547    4.4486   18.2097 F   0  0  0  0  0  0  0  0  0  0  0  0
  1  2  1  0
  2  3  1  0
  2  4  1  0
  4  5  1  0
  5  6  1  0
  6  7  1  0
  7  8  1  0
  7  9  1  0
  9 10  1  0
 10 11  1  0
 11 12  1  0
 12 13  1  0
 13 14  1  0
 14 15  1  0
 15 16  1  0
 16 17  1  0
  4 18  1  0
 18 19  2  0
 18 20  1  0
 20 21  1  0
 21 22  1  0
 22 23  1  0
 23 24  2  0
 24 25  1  0
 24 26  1  0
 26 27  2  0
 27 28  1  0
 28 29  2  0
 27 30  1  0
 30 31  1  0
 30 32  1  0
 30 33  1  0
  8  4  1  0
 15 10  1  0
 25 20  1  0
 29 23  1  0
M  CHG  1   9   1
M  END
$$$$
