
     RDKit          3D

 33 36  0  0  0  0  0  0  0  0999 V2000
    4.9560    1.0584   15.6247 C   0  0  0  0  0  0  0  0  0  0  0  0
    4.1083    1.8285   16.5635 C   0  0  0  0  0  0  0  0  0  0  0  0
    2.8120    2.1826   15.8531 C   0  0  0  0  0  0  0  0  0  0  0  0
    3.8813    1.2577   17.9118 C   0  0  0  0  0  0  0  0  0  0  0  0
    4.3153   -0.1814   17.9502 C   0  0  0  0  0  0  0  0  0  0  0  0
    5.8046   -0.0875   17.6171 C   0  0  0  0  0  0  0  0  0  0  0  0
    6.2442    1.1554   18.3142 C   0  0  0  0  0  0  0  0  0  0  0  0
    5.0216    1.8290   18.8530 C   0  0  0  0  0  0  0  0  0  0  0  0
    7.1620    0.7720   19.3805 N   0  0  0  0  0  4  0  0  0  0  0  0
    7.6281   -0.5841   19.2133 C   0  0  0  0  0  0  0  0  0  0  0  0
    8.4249   -0.7512   17.9140 C   0  0  0  0  0  0  0  0  0  0  0  0
    9.3645   -1.9342   18.1751 C   0  0  0  0  0  0  0  0  0  0  0  0
    8.8002   -2.8539   19.0433 O   0  0  0  0  0  0  0  0  0  0  0  0
    8.8256   -2.4018   20.3790 C   0  0  0  0  0  0  0  0  0  0  0  0
    8.5917   -0.9079   20.3350 C   0  0  0  0  0  0  0  0  0  0  0  0
    8.1413   -0.3847   21.5194 O   0  0  0  0  0  0  0  0  0  0  0  0
    7.7893   -1.3155   22.4677 C   0  0  0  0  0  0  0  0  0  0  0  0
    2.6092    1.4655   18.5649 C   0  0  0  0  0  0  0  0  0  0  0  0
    2.6126    1.0106   19.8118 O   0  0  0  0  0  0  0  0  0  0  0  0
    1.4006    2.0182   18.2068 N   0  0  0  0  0  0  0  0  0  0  0  0
    0.6734    1.4278   17.0561 C   0  0  0  0  0  0  0  0  0  0  0  0
    0.5464    2.5680   16.0314 C   0  0  0  0  0  0  0  0  0  0  0  0
   -0.3722    3.5452   16.6599 C   0  0  0  0  0  0  0  0  0  0  0  0
   -0.2815    3.8072   17.9893 C   0  0  0  0  0  0  0  0  0  0  0  0
    0.7613    3.1204   18.8235 C   0  0  0  0  0  0  0  0  0  0  0  0
   -1.1395    4.7181   18.6136 C   0  0  0  0  0  0  0  0  0  0  0  0
   -2.0962    5.3639   17.8674 C   0  0  0  0  0  0  0  0  0  0  0  0
   -2.1690    5.0819   16.5196 C   0  0  0  0  0  0  0  0  0  0  0  0
   -1.3220    4.1964   15.9579 N   0  0  0  0  0  0  0  0  0  0  0  0
   -3.0408    6.3453   18.4709 C   0  0  0  0  0  0  0  0  0  0  0  0
   -3.6695    5.7241   19.5363 F   0  0  0  0  0  0  0  0  0  0  0  0
   -3.9816    6.7148   17.5441 F   0  0  0  0  0  0  0  0  0  0  0  0
   -2.3166    7.4570   18.8976 F   0  0  0  0  0  0  0  0  0  0  0  0
  1  2  1  0
  2  3  1  0
  2  4  1  0
  4  5  1  0
  5  6  1  0
  6  7  1  0
  7  8  1  0
  7  9  1  0
  9 10  1  0
 10 11  1  0
 11 12  1  0
 12 13  1  0
 13 14  1  0
 14 15  1  0
 15 16  1  0
 16 17  1  0
  4 18  1  0
 18 19  2  0
 18 20  1  0
 20 21  1  0
 21 22  1  0
 22 23  1  0
 23 24  2  0
 24 25  1  0
 24 26  1  0
 26 27  2  0
 27 28  1  0
 28 29  2  0
 27 30  1  0
 30 31  1  0
 30 32  1  0
 30 33  1  0
  8  4  1  0
 15 10  1  0
 25 20  1  0
 29 23  1  0
M  CHG  1   9   1
M  END
$$$$
