
     RDKit          3D

 33 36  0  0  0  0  0  0  0  0999 V2000
    2.0886    1.8494   13.8327 C   0  0  0  0  0  0  0  0  0  0  0  0
    1.2156    0.6631   13.9868 C   0  0  0  0  0  0  0  0  0  0  0  0
    1.8573   -0.2717   14.9990 C   0  0  0  0  0  0  0  0  0  0  0  0
   -0.2218    0.8976   14.2595 C   0  0  0  0  0  0  0  0  0  0  0  0
   -0.8939    1.4873   13.0507 C   0  0  0  0  0  0  0  0  0  0  0  0
   -0.6865    0.4022   11.9937 C   0  0  0  0  0  0  0  0  0  0  0  0
   -0.8397   -0.8690   12.7584 C   0  0  0  0  0  0  0  0  0  0  0  0
   -0.9379   -0.5156   14.2090 C   0  0  0  0  0  0  0  0  0  0  0  0
   -2.0461   -1.5364   12.2838 N   0  0  0  0  0  4  0  0  0  0  0  0
   -1.9036   -1.9739   10.9155 C   0  0  0  0  0  0  0  0  0  0  0  0
   -0.9726   -3.1871   10.8045 C   0  0  0  0  0  0  0  0  0  0  0  0
   -1.4180   -3.9128    9.5297 C   0  0  0  0  0  0  0  0  0  0  0  0
   -1.9089   -3.0292    8.5828 O   0  0  0  0  0  0  0  0  0  0  0  0
   -3.2053   -2.5776    8.9060 C   0  0  0  0  0  0  0  0  0  0  0  0
   -3.2530   -2.4395   10.4117 C   0  0  0  0  0  0  0  0  0  0  0  0
   -4.2450   -1.6053   10.8582 O   0  0  0  0  0  0  0  0  0  0  0  0
   -5.5068   -1.9114   10.4069 C   0  0  0  0  0  0  0  0  0  0  0  0
   -0.6127    1.5594   15.4831 C   0  0  0  0  0  0  0  0  0  0  0  0
   -1.7832    1.1220   15.9306 O   0  0  0  0  0  0  0  0  0  0  0  0
   -0.0665    2.5301   16.2919 N   0  0  0  0  0  0  0  0  0  0  0  0
    1.4078    2.5576   16.4559 C   0  0  0  0  0  0  0  0  0  0  0  0
    1.6499    2.3526   17.9611 C   0  0  0  0  0  0  0  0  0  0  0  0
    1.1268    3.5810   18.6024 C   0  0  0  0  0  0  0  0  0  0  0  0
   -0.0206    4.1493   18.1502 C   0  0  0  0  0  0  0  0  0  0  0  0
   -0.7724    3.5250   17.0099 C   0  0  0  0  0  0  0  0  0  0  0  0
   -0.5355    5.3135   18.7289 C   0  0  0  0  0  0  0  0  0  0  0  0
    0.1324    5.8972   19.7789 C   0  0  0  0  0  0  0  0  0  0  0  0
    1.2950    5.3020   20.2209 C   0  0  0  0  0  0  0  0  0  0  0  0
    1.7565    4.1796   19.6340 N   0  0  0  0  0  0  0  0  0  0  0  0
   -0.3624    7.1375   20.4396 C   0  0  0  0  0  0  0  0  0  0  0  0
    0.2331    8.2165   19.8094 F   0  0  0  0  0  0  0  0  0  0  0  0
   -0.0042    7.1331   21.7634 F   0  0  0  0  0  0  0  0  0  0  0  0
   -1.7494    7.1878   20.3120 F   0  0  0  0  0  0  0  0  0  0  0  0
  1  2  1  0
  2  3  1  0
  2  4  1  0
  4  5  1  0
  5  6  1  0
  6  7  1  0
  7  8  1  0
  7  9  1  0
  9 10  1  0
 10 11  1  0
 11 12  1  0
 12 13  1  0
 13 14  1  0
 14 15  1  0
 15 16  1  0
 16 17  1  0
  4 18  1  0
 18 19  2  0
 18 20  1  0
 20 21  1  0
 21 22  1  0
 22 23  1  0
 23 24  2  0
 24 25  1  0
 24 26  1  0
 26 27  2  0
 27 28  1  0
 28 29  2  0
 27 30  1  0
 30 31  1  0
 30 32  1  0
 30 33  1  0
  8  4  1  0
 15 10  1  0
 25 20  1  0
 29 23  1  0
M  CHG  1   9   1
M  END
$$$$
