
     RDKit          3D

 33 36  0  0  0  0  0  0  0  0999 V2000
    3.6177   10.1660  -13.4975 C   0  0  0  0  0  0  0  0  0  0  0  0
    3.2156   10.3071  -14.9157 C   0  0  0  0  0  0  0  0  0  0  0  0
    3.8192   11.5933  -15.4558 C   0  0  0  0  0  0  0  0  0  0  0  0
    3.4428    9.1505  -15.8135 C   0  0  0  0  0  0  0  0  0  0  0  0
    2.1328    8.5159  -16.1903 C   0  0  0  0  0  0  0  0  0  0  0  0
    1.4061    9.6552  -16.9055 C   0  0  0  0  0  0  0  0  0  0  0  0
    2.4899   10.3438  -17.6639 C   0  0  0  0  0  0  0  0  0  0  0  0
    3.7918    9.7378  -17.2438 C   0  0  0  0  0  0  0  0  0  0  0  0
    2.2382   10.1465  -19.0865 N   0  0  0  0  0  4  0  0  0  0  0  0
    1.2221   11.0495  -19.5728 C   0  0  0  0  0  0  0  0  0  0  0  0
    1.6723   12.5119  -19.4745 C   0  0  0  0  0  0  0  0  0  0  0  0
    0.8768   13.2450  -20.5608 C   0  0  0  0  0  0  0  0  0  0  0  0
   -0.3656   12.6673  -20.7630 O   0  0  0  0  0  0  0  0  0  0  0  0
   -0.2745   11.4638  -21.4926 C   0  0  0  0  0  0  0  0  0  0  0  0
    1.0002   10.7823  -21.0462 C   0  0  0  0  0  0  0  0  0  0  0  0
    1.0227    9.4348  -21.2974 O   0  0  0  0  0  0  0  0  0  0  0  0
    1.5827    9.0788  -22.5012 C   0  0  0  0  0  0  0  0  0  0  0  0
    4.4482    8.1718  -15.4685 C   0  0  0  0  0  0  0  0  0  0  0  0
    5.6654    8.5670  -15.8209 O   0  0  0  0  0  0  0  0  0  0  0  0
    4.4477    6.9342  -14.8661 N   0  0  0  0  0  0  0  0  0  0  0  0
    5.5627    6.6025  -13.9452 C   0  0  0  0  0  0  0  0  0  0  0  0
    6.2447    5.3708  -14.5650 C   0  0  0  0  0  0  0  0  0  0  0  0
    5.2500    4.2806  -14.4397 C   0  0  0  0  0  0  0  0  0  0  0  0
    3.9331    4.5326  -14.6550 C   0  0  0  0  0  0  0  0  0  0  0  0
    3.4826    5.9130  -15.0377 C   0  0  0  0  0  0  0  0  0  0  0  0
    2.9689    3.5268  -14.5363 C   0  0  0  0  0  0  0  0  0  0  0  0
    3.3602    2.2542  -14.1946 C   0  0  0  0  0  0  0  0  0  0  0  0
    4.7026    2.0223  -13.9813 C   0  0  0  0  0  0  0  0  0  0  0  0
    5.5990    3.0212  -14.1062 N   0  0  0  0  0  0  0  0  0  0  0  0
    2.3838    1.1380  -14.0519 C   0  0  0  0  0  0  0  0  0  0  0  0
    3.0959   -0.0067  -13.7381 F   0  0  0  0  0  0  0  0  0  0  0  0
    1.7203    0.9469  -15.2367 F   0  0  0  0  0  0  0  0  0  0  0  0
    1.4836    1.4599  -13.0377 F   0  0  0  0  0  0  0  0  0  0  0  0
  1  2  1  0
  2  3  1  0
  2  4  1  0
  4  5  1  0
  5  6  1  0
  6  7  1  0
  7  8  1  0
  7  9  1  0
  9 10  1  0
 10 11  1  0
 11 12  1  0
 12 13  1  0
 13 14  1  0
 14 15  1  0
 15 16  1  0
 16 17  1  0
  4 18  1  0
 18 19  2  0
 18 20  1  0
 20 21  1  0
 21 22  1  0
 22 23  1  0
 23 24  2  0
 24 25  1  0
 24 26  1  0
 26 27  2  0
 27 28  1  0
 28 29  2  0
 27 30  1  0
 30 31  1  0
 30 32  1  0
 30 33  1  0
  8  4  1  0
 15 10  1  0
 25 20  1  0
 29 23  1  0
M  CHG  1   9   1
M  END
$$$$
