
     RDKit          3D

 33 36  0  0  0  0  0  0  0  0999 V2000
    2.6486    5.2000   18.6722 C   0  0  0  0  0  0  0  0  0  0  0  0
    2.8310    4.0679   19.6093 C   0  0  0  0  0  0  0  0  0  0  0  0
    2.3892    4.5187   20.9920 C   0  0  0  0  0  0  0  0  0  0  0  0
    2.2543    2.7579   19.2261 C   0  0  0  0  0  0  0  0  0  0  0  0
    3.1749    2.0380   18.2800 C   0  0  0  0  0  0  0  0  0  0  0  0
    4.4464    1.8763   19.1134 C   0  0  0  0  0  0  0  0  0  0  0  0
    3.9352    1.5999   20.4868 C   0  0  0  0  0  0  0  0  0  0  0  0
    2.4509    1.7871   20.4636 C   0  0  0  0  0  0  0  0  0  0  0  0
    4.3001    0.2318   20.8353 N   0  0  0  0  0  4  0  0  0  0  0  0
    5.0926    0.1879   22.0412 C   0  0  0  0  0  0  0  0  0  0  0  0
    4.2483   -0.2104   23.2575 C   0  0  0  0  0  0  0  0  0  0  0  0
    5.2417   -0.8432   24.2390 C   0  0  0  0  0  0  0  0  0  0  0  0
    6.5013   -0.2784   24.1276 O   0  0  0  0  0  0  0  0  0  0  0  0
    7.1828   -0.7329   22.9795 C   0  0  0  0  0  0  0  0  0  0  0  0
    6.1421   -0.8929   21.8932 C   0  0  0  0  0  0  0  0  0  0  0  0
    6.6625   -0.8849   20.6250 O   0  0  0  0  0  0  0  0  0  0  0  0
    7.8257   -0.1670   20.4801 C   0  0  0  0  0  0  0  0  0  0  0  0
    0.8726    2.6860   18.8097 C   0  0  0  0  0  0  0  0  0  0  0  0
    0.0389    2.8318   19.8322 O   0  0  0  0  0  0  0  0  0  0  0  0
    0.2159    2.5028   17.6139 N   0  0  0  0  0  0  0  0  0  0  0  0
   -1.2549    2.6953   17.5854 C   0  0  0  0  0  0  0  0  0  0  0  0
   -1.8309    1.3378   17.1474 C   0  0  0  0  0  0  0  0  0  0  0  0
   -1.3952    1.1745   15.7412 C   0  0  0  0  0  0  0  0  0  0  0  0
   -0.1478    1.5582   15.3661 C   0  0  0  0  0  0  0  0  0  0  0  0
    0.8003    2.1334   16.3787 C   0  0  0  0  0  0  0  0  0  0  0  0
    0.2902    1.4247   14.0448 C   0  0  0  0  0  0  0  0  0  0  0  0
   -0.5587    0.8934   13.1032 C   0  0  0  0  0  0  0  0  0  0  0  0
   -1.8201    0.5107   13.5077 C   0  0  0  0  0  0  0  0  0  0  0  0
   -2.2019    0.6571   14.7922 N   0  0  0  0  0  0  0  0  0  0  0  0
   -0.1542    0.7242   11.6794 C   0  0  0  0  0  0  0  0  0  0  0  0
   -1.1792    1.2152   10.8893 F   0  0  0  0  0  0  0  0  0  0  0  0
    0.0309   -0.6065   11.4041 F   0  0  0  0  0  0  0  0  0  0  0  0
    1.0261    1.4333   11.4637 F   0  0  0  0  0  0  0  0  0  0  0  0
  1  2  1  0
  2  3  1  0
  2  4  1  0
  4  5  1  0
  5  6  1  0
  6  7  1  0
  7  8  1  0
  7  9  1  0
  9 10  1  0
 10 11  1  0
 11 12  1  0
 12 13  1  0
 13 14  1  0
 14 15  1  0
 15 16  1  0
 16 17  1  0
  4 18  1  0
 18 19  2  0
 18 20  1  0
 20 21  1  0
 21 22  1  0
 22 23  1  0
 23 24  2  0
 24 25  1  0
 24 26  1  0
 26 27  2  0
 27 28  1  0
 28 29  2  0
 27 30  1  0
 30 31  1  0
 30 32  1  0
 30 33  1  0
  8  4  1  0
 15 10  1  0
 25 20  1  0
 29 23  1  0
M  CHG  1   9   1
M  END
$$$$
