
     RDKit          3D

 33 36  0  0  0  0  0  0  0  0999 V2000
    9.5494   17.7593   -6.7183 C   0  0  0  0  0  0  0  0  0  0  0  0
   10.3887   17.9631   -5.5153 C   0  0  0  0  0  0  0  0  0  0  0  0
    9.4946   18.4556   -4.3892 C   0  0  0  0  0  0  0  0  0  0  0  0
   11.2716   16.8496   -5.0960 C   0  0  0  0  0  0  0  0  0  0  0  0
   12.6412   17.0145   -5.6942 C   0  0  0  0  0  0  0  0  0  0  0  0
   13.0986   18.3519   -5.1114 C   0  0  0  0  0  0  0  0  0  0  0  0
   12.5616   18.3326   -3.7203 C   0  0  0  0  0  0  0  0  0  0  0  0
   11.6831   17.1284   -3.5908 C   0  0  0  0  0  0  0  0  0  0  0  0
   13.6931   18.2750   -2.8024 N   0  0  0  0  0  4  0  0  0  0  0  0
   13.2808   17.8625   -1.4817 C   0  0  0  0  0  0  0  0  0  0  0  0
   12.9087   16.3756   -1.4451 C   0  0  0  0  0  0  0  0  0  0  0  0
   13.1444   15.9440    0.0070 C   0  0  0  0  0  0  0  0  0  0  0  0
   12.9107   16.9820    0.8937 O   0  0  0  0  0  0  0  0  0  0  0  0
   13.9608   17.9234    0.8912 C   0  0  0  0  0  0  0  0  0  0  0  0
   14.4524   18.0200   -0.5362 C   0  0  0  0  0  0  0  0  0  0  0  0
   15.1349   19.1775   -0.8077 O   0  0  0  0  0  0  0  0  0  0  0  0
   16.0777   19.5280    0.1293 C   0  0  0  0  0  0  0  0  0  0  0  0
   10.7913   15.4900   -5.1893 C   0  0  0  0  0  0  0  0  0  0  0  0
   10.8190   14.8733   -4.0144 O   0  0  0  0  0  0  0  0  0  0  0  0
   10.3151   14.6842   -6.1986 N   0  0  0  0  0  0  0  0  0  0  0  0
    9.9114   13.2980   -5.8570 C   0  0  0  0  0  0  0  0  0  0  0  0
   10.8220   12.3925   -6.7039 C   0  0  0  0  0  0  0  0  0  0  0  0
   10.3981   12.6272   -8.1036 C   0  0  0  0  0  0  0  0  0  0  0  0
   10.0793   13.8807   -8.5172 C   0  0  0  0  0  0  0  0  0  0  0  0
   10.1719   15.0360   -7.5622 C   0  0  0  0  0  0  0  0  0  0  0  0
    9.6677   14.1334   -9.8295 C   0  0  0  0  0  0  0  0  0  0  0  0
    9.5834   13.0918  -10.7224 C   0  0  0  0  0  0  0  0  0  0  0  0
    9.9124   11.8281  -10.2795 C   0  0  0  0  0  0  0  0  0  0  0  0
   10.3045   11.6287   -9.0054 N   0  0  0  0  0  0  0  0  0  0  0  0
    9.1520   13.2930  -12.1341 C   0  0  0  0  0  0  0  0  0  0  0  0
   10.2922   13.3982  -12.9118 F   0  0  0  0  0  0  0  0  0  0  0  0
    8.4261   14.4520  -12.2372 F   0  0  0  0  0  0  0  0  0  0  0  0
    8.3800   12.2003  -12.5247 F   0  0  0  0  0  0  0  0  0  0  0  0
  1  2  1  0
  2  3  1  0
  2  4  1  0
  4  5  1  0
  5  6  1  0
  6  7  1  0
  7  8  1  0
  7  9  1  0
  9 10  1  0
 10 11  1  0
 11 12  1  0
 12 13  1  0
 13 14  1  0
 14 15  1  0
 15 16  1  0
 16 17  1  0
  4 18  1  0
 18 19  2  0
 18 20  1  0
 20 21  1  0
 21 22  1  0
 22 23  1  0
 23 24  2  0
 24 25  1  0
 24 26  1  0
 26 27  2  0
 27 28  1  0
 28 29  2  0
 27 30  1  0
 30 31  1  0
 30 32  1  0
 30 33  1  0
  8  4  1  0
 15 10  1  0
 25 20  1  0
 29 23  1  0
M  CHG  1   9   1
M  END
$$$$
