
     RDKit          3D

 33 36  0  0  0  0  0  0  0  0999 V2000
   10.2014   14.9295   -9.6712 C   0  0  0  0  0  0  0  0  0  0  0  0
    9.4706   13.7713  -10.2348 C   0  0  0  0  0  0  0  0  0  0  0  0
   10.2872   13.2080  -11.3864 C   0  0  0  0  0  0  0  0  0  0  0  0
    9.0139   12.7220   -9.2937 C   0  0  0  0  0  0  0  0  0  0  0  0
   10.1694   11.8548   -8.8767 C   0  0  0  0  0  0  0  0  0  0  0  0
   11.1072   12.8549   -8.2000 C   0  0  0  0  0  0  0  0  0  0  0  0
   10.1807   13.7773   -7.4823 C   0  0  0  0  0  0  0  0  0  0  0  0
    8.7851   13.4265   -7.8923 C   0  0  0  0  0  0  0  0  0  0  0  0
   10.3836   13.5934   -6.0501 N   0  0  0  0  0  4  0  0  0  0  0  0
   11.6575   14.1235   -5.6252 C   0  0  0  0  0  0  0  0  0  0  0  0
   11.8710   15.5546   -6.1322 C   0  0  0  0  0  0  0  0  0  0  0  0
   12.8411   16.1895   -5.1291 C   0  0  0  0  0  0  0  0  0  0  0  0
   13.7119   15.2532   -4.5966 O   0  0  0  0  0  0  0  0  0  0  0  0
   13.0831   14.4369   -3.6336 C   0  0  0  0  0  0  0  0  0  0  0  0
   11.6662   14.2133   -4.1141 C   0  0  0  0  0  0  0  0  0  0  0  0
   11.0648   13.1105   -3.5651 O   0  0  0  0  0  0  0  0  0  0  0  0
   11.9279   12.1945   -3.0124 C   0  0  0  0  0  0  0  0  0  0  0  0
    7.8340   11.9504   -9.6102 C   0  0  0  0  0  0  0  0  0  0  0  0
    6.7362   12.4907   -9.0958 O   0  0  0  0  0  0  0  0  0  0  0  0
    7.5757   10.7951  -10.3126 N   0  0  0  0  0  0  0  0  0  0  0  0
    8.6999   10.1450  -11.0300 C   0  0  0  0  0  0  0  0  0  0  0  0
    8.2853   10.1423  -12.5113 C   0  0  0  0  0  0  0  0  0  0  0  0
    7.1370    9.2096  -12.5842 C   0  0  0  0  0  0  0  0  0  0  0  0
    6.2042    9.1998  -11.5974 C   0  0  0  0  0  0  0  0  0  0  0  0
    6.3240   10.1460  -10.4375 C   0  0  0  0  0  0  0  0  0  0  0  0
    5.1133    8.3256  -11.6332 C   0  0  0  0  0  0  0  0  0  0  0  0
    4.9800    7.4563  -12.6896 C   0  0  0  0  0  0  0  0  0  0  0  0
    5.9392    7.4848  -13.6797 C   0  0  0  0  0  0  0  0  0  0  0  0
    6.9753    8.3439  -13.6058 N   0  0  0  0  0  0  0  0  0  0  0  0
    3.8418    6.5000  -12.7882 C   0  0  0  0  0  0  0  0  0  0  0  0
    2.7899    7.1590  -13.4007 F   0  0  0  0  0  0  0  0  0  0  0  0
    3.4575    6.1044  -11.5326 F   0  0  0  0  0  0  0  0  0  0  0  0
    4.2479    5.3995  -13.5409 F   0  0  0  0  0  0  0  0  0  0  0  0
  1  2  1  0
  2  3  1  0
  2  4  1  0
  4  5  1  0
  5  6  1  0
  6  7  1  0
  7  8  1  0
  7  9  1  0
  9 10  1  0
 10 11  1  0
 11 12  1  0
 12 13  1  0
 13 14  1  0
 14 15  1  0
 15 16  1  0
 16 17  1  0
  4 18  1  0
 18 19  2  0
 18 20  1  0
 20 21  1  0
 21 22  1  0
 22 23  1  0
 23 24  2  0
 24 25  1  0
 24 26  1  0
 26 27  2  0
 27 28  1  0
 28 29  2  0
 27 30  1  0
 30 31  1  0
 30 32  1  0
 30 33  1  0
  8  4  1  0
 15 10  1  0
 25 20  1  0
 29 23  1  0
M  CHG  1   9   1
M  END
$$$$
