
     RDKit          3D

 33 36  0  0  0  0  0  0  0  0999 V2000
   -3.4355    3.5260   14.7718 C   0  0  0  0  0  0  0  0  0  0  0  0
   -2.0720    3.2726   15.2914 C   0  0  0  0  0  0  0  0  0  0  0  0
   -1.6540    4.4671   16.1333 C   0  0  0  0  0  0  0  0  0  0  0  0
   -1.8248    1.9807   15.9734 C   0  0  0  0  0  0  0  0  0  0  0  0
   -3.0176    1.0766   15.8289 C   0  0  0  0  0  0  0  0  0  0  0  0
   -3.1234    0.9070   14.3131 C   0  0  0  0  0  0  0  0  0  0  0  0
   -1.7023    0.8414   13.8655 C   0  0  0  0  0  0  0  0  0  0  0  0
   -0.8402    1.1513   15.0486 C   0  0  0  0  0  0  0  0  0  0  0  0
   -1.4534   -0.5015   13.3548 N   0  0  0  0  0  4  0  0  0  0  0  0
   -1.3663   -0.5103   11.9138 C   0  0  0  0  0  0  0  0  0  0  0  0
    0.0892   -0.4495   11.4357 C   0  0  0  0  0  0  0  0  0  0  0  0
    0.0795   -1.1102   10.0523 C   0  0  0  0  0  0  0  0  0  0  0  0
   -1.1229   -0.9057    9.3960 O   0  0  0  0  0  0  0  0  0  0  0  0
   -2.1498   -1.7237    9.9111 C   0  0  0  0  0  0  0  0  0  0  0  0
   -1.9161   -1.8247   11.4023 C   0  0  0  0  0  0  0  0  0  0  0  0
   -3.0316   -2.1862   12.1125 O   0  0  0  0  0  0  0  0  0  0  0  0
   -3.7430   -3.2350   11.5802 C   0  0  0  0  0  0  0  0  0  0  0  0
   -1.2932    1.9784   17.3169 C   0  0  0  0  0  0  0  0  0  0  0  0
   -2.2158    1.6533   18.2140 O   0  0  0  0  0  0  0  0  0  0  0  0
   -0.0665    2.2317   17.8877 N   0  0  0  0  0  0  0  0  0  0  0  0
    0.0464    2.1629   19.3655 C   0  0  0  0  0  0  0  0  0  0  0  0
    0.4910    3.5694   19.8019 C   0  0  0  0  0  0  0  0  0  0  0  0
    1.8679    3.7146   19.2756 C   0  0  0  0  0  0  0  0  0  0  0  0
    2.1806    3.2332   18.0449 C   0  0  0  0  0  0  0  0  0  0  0  0
    1.1278    2.5675   17.2061 C   0  0  0  0  0  0  0  0  0  0  0  0
    3.4731    3.3473   17.5236 C   0  0  0  0  0  0  0  0  0  0  0  0
    4.4503    3.9601   18.2713 C   0  0  0  0  0  0  0  0  0  0  0  0
    4.1091    4.4412   19.5176 C   0  0  0  0  0  0  0  0  0  0  0  0
    2.8505    4.3100   19.9820 N   0  0  0  0  0  0  0  0  0  0  0  0
    5.8464    4.1140   17.7745 C   0  0  0  0  0  0  0  0  0  0  0  0
    6.1192    3.0395   16.9457 F   0  0  0  0  0  0  0  0  0  0  0  0
    6.7196    4.1021   18.8319 F   0  0  0  0  0  0  0  0  0  0  0  0
    5.9422    5.3181   17.0792 F   0  0  0  0  0  0  0  0  0  0  0  0
  1  2  1  0
  2  3  1  0
  2  4  1  0
  4  5  1  0
  5  6  1  0
  6  7  1  0
  7  8  1  0
  7  9  1  0
  9 10  1  0
 10 11  1  0
 11 12  1  0
 12 13  1  0
 13 14  1  0
 14 15  1  0
 15 16  1  0
 16 17  1  0
  4 18  1  0
 18 19  2  0
 18 20  1  0
 20 21  1  0
 21 22  1  0
 22 23  1  0
 23 24  2  0
 24 25  1  0
 24 26  1  0
 26 27  2  0
 27 28  1  0
 28 29  2  0
 27 30  1  0
 30 31  1  0
 30 32  1  0
 30 33  1  0
  8  4  1  0
 15 10  1  0
 25 20  1  0
 29 23  1  0
M  CHG  1   9   1
M  END
$$$$
