
     RDKit          3D

 33 36  0  0  0  0  0  0  0  0999 V2000
    2.4607    4.5391   19.5128 C   0  0  0  0  0  0  0  0  0  0  0  0
    3.3483    3.5414   18.8726 C   0  0  0  0  0  0  0  0  0  0  0  0
    4.6985    3.5893   19.5691 C   0  0  0  0  0  0  0  0  0  0  0  0
    2.8342    2.1600   18.7213 C   0  0  0  0  0  0  0  0  0  0  0  0
    3.2688    1.5818   17.4032 C   0  0  0  0  0  0  0  0  0  0  0  0
    4.7934    1.6109   17.5149 C   0  0  0  0  0  0  0  0  0  0  0  0
    5.0491    1.2648   18.9428 C   0  0  0  0  0  0  0  0  0  0  0  0
    3.7278    1.2312   19.6441 C   0  0  0  0  0  0  0  0  0  0  0  0
    5.7111   -0.0340   18.9789 N   0  0  0  0  0  4  0  0  0  0  0  0
    6.0634   -0.4094   20.3276 C   0  0  0  0  0  0  0  0  0  0  0  0
    6.2546   -1.9248   20.4604 C   0  0  0  0  0  0  0  0  0  0  0  0
    7.2151   -2.1008   21.6422 C   0  0  0  0  0  0  0  0  0  0  0  0
    7.0555   -1.0988   22.5849 O   0  0  0  0  0  0  0  0  0  0  0  0
    7.6295    0.1182   22.1623 C   0  0  0  0  0  0  0  0  0  0  0  0
    7.4023    0.2089   20.6695 C   0  0  0  0  0  0  0  0  0  0  0  0
    7.4806    1.4854   20.1758 O   0  0  0  0  0  0  0  0  0  0  0  0
    8.4107    2.2889   20.7912 C   0  0  0  0  0  0  0  0  0  0  0  0
    1.4458    1.8844   19.0112 C   0  0  0  0  0  0  0  0  0  0  0  0
    1.2750    1.4587   20.2567 O   0  0  0  0  0  0  0  0  0  0  0  0
    0.2635    1.9560   18.3099 N   0  0  0  0  0  0  0  0  0  0  0  0
   -0.8855    1.1490   18.7892 C   0  0  0  0  0  0  0  0  0  0  0  0
   -1.2262    0.2018   17.6260 C   0  0  0  0  0  0  0  0  0  0  0  0
   -1.7426    1.0842   16.5543 C   0  0  0  0  0  0  0  0  0  0  0  0
   -1.1615    2.2901   16.3263 C   0  0  0  0  0  0  0  0  0  0  0  0
    0.0174    2.7262   17.1480 C   0  0  0  0  0  0  0  0  0  0  0  0
   -1.6311    3.1492   15.3278 C   0  0  0  0  0  0  0  0  0  0  0  0
   -2.7041    2.7667   14.5587 C   0  0  0  0  0  0  0  0  0  0  0  0
   -3.2774    1.5378   14.8084 C   0  0  0  0  0  0  0  0  0  0  0  0
   -2.7931    0.7404   15.7813 N   0  0  0  0  0  0  0  0  0  0  0  0
   -3.2530    3.6346   13.4793 C   0  0  0  0  0  0  0  0  0  0  0  0
   -3.5030    4.8809   14.0274 F   0  0  0  0  0  0  0  0  0  0  0  0
   -4.4268    3.1042   13.0086 F   0  0  0  0  0  0  0  0  0  0  0  0
   -2.3128    3.7196   12.4538 F   0  0  0  0  0  0  0  0  0  0  0  0
  1  2  1  0
  2  3  1  0
  2  4  1  0
  4  5  1  0
  5  6  1  0
  6  7  1  0
  7  8  1  0
  7  9  1  0
  9 10  1  0
 10 11  1  0
 11 12  1  0
 12 13  1  0
 13 14  1  0
 14 15  1  0
 15 16  1  0
 16 17  1  0
  4 18  1  0
 18 19  2  0
 18 20  1  0
 20 21  1  0
 21 22  1  0
 22 23  1  0
 23 24  2  0
 24 25  1  0
 24 26  1  0
 26 27  2  0
 27 28  1  0
 28 29  2  0
 27 30  1  0
 30 31  1  0
 30 32  1  0
 30 33  1  0
  8  4  1  0
 15 10  1  0
 25 20  1  0
 29 23  1  0
M  CHG  1   9   1
M  END
$$$$
