
     RDKit          3D

 33 36  0  0  0  0  0  0  0  0999 V2000
    2.0897    0.0646   17.5941 C   0  0  0  0  0  0  0  0  0  0  0  0
    3.1950    0.6339   18.3986 C   0  0  0  0  0  0  0  0  0  0  0  0
    4.2067    1.2518   17.4474 C   0  0  0  0  0  0  0  0  0  0  0  0
    2.8372    1.5389   19.5159 C   0  0  0  0  0  0  0  0  0  0  0  0
    2.5209    0.7436   20.7522 C   0  0  0  0  0  0  0  0  0  0  0  0
    3.8340    0.0065   21.0171 C   0  0  0  0  0  0  0  0  0  0  0  0
    4.8792    1.0078   20.6578 C   0  0  0  0  0  0  0  0  0  0  0  0
    4.1879    2.1821   20.0398 C   0  0  0  0  0  0  0  0  0  0  0  0
    5.5844    1.3793   21.8788 N   0  0  0  0  0  4  0  0  0  0  0  0
    6.8479    2.0135   21.5864 C   0  0  0  0  0  0  0  0  0  0  0  0
    6.9792    3.3655   22.2975 C   0  0  0  0  0  0  0  0  0  0  0  0
    8.4882    3.5840   22.4573 C   0  0  0  0  0  0  0  0  0  0  0  0
    9.2014    3.0075   21.4194 O   0  0  0  0  0  0  0  0  0  0  0  0
    9.2830    1.6057   21.5513 C   0  0  0  0  0  0  0  0  0  0  0  0
    7.9634    1.1479   22.1323 C   0  0  0  0  0  0  0  0  0  0  0  0
    7.6931   -0.1777   21.9110 O   0  0  0  0  0  0  0  0  0  0  0  0
    8.2088   -0.6874   20.7432 C   0  0  0  0  0  0  0  0  0  0  0  0
    1.8870    2.6036   19.2896 C   0  0  0  0  0  0  0  0  0  0  0  0
    1.6685    3.3144   20.3891 O   0  0  0  0  0  0  0  0  0  0  0  0
    1.1569    3.0556   18.2138 N   0  0  0  0  0  0  0  0  0  0  0  0
    0.3707    4.3035   18.3751 C   0  0  0  0  0  0  0  0  0  0  0  0
   -1.0910    3.8943   18.1255 C   0  0  0  0  0  0  0  0  0  0  0  0
   -1.1474    3.5377   16.6890 C   0  0  0  0  0  0  0  0  0  0  0  0
   -0.1229    2.8546   16.1165 C   0  0  0  0  0  0  0  0  0  0  0  0
    1.0627    2.4431   16.9412 C   0  0  0  0  0  0  0  0  0  0  0  0
   -0.1426    2.5106   14.7612 C   0  0  0  0  0  0  0  0  0  0  0  0
   -1.2217    2.8705   13.9896 C   0  0  0  0  0  0  0  0  0  0  0  0
   -2.2499    3.5633   14.5929 C   0  0  0  0  0  0  0  0  0  0  0  0
   -2.1903    3.8749   15.9031 N   0  0  0  0  0  0  0  0  0  0  0  0
   -1.3048    2.5350   12.5404 C   0  0  0  0  0  0  0  0  0  0  0  0
   -0.2379    3.1463   11.9048 F   0  0  0  0  0  0  0  0  0  0  0  0
   -2.4780    3.0168   12.0186 F   0  0  0  0  0  0  0  0  0  0  0  0
   -1.2432    1.1497   12.3991 F   0  0  0  0  0  0  0  0  0  0  0  0
  1  2  1  0
  2  3  1  0
  2  4  1  0
  4  5  1  0
  5  6  1  0
  6  7  1  0
  7  8  1  0
  7  9  1  0
  9 10  1  0
 10 11  1  0
 11 12  1  0
 12 13  1  0
 13 14  1  0
 14 15  1  0
 15 16  1  0
 16 17  1  0
  4 18  1  0
 18 19  2  0
 18 20  1  0
 20 21  1  0
 21 22  1  0
 22 23  1  0
 23 24  2  0
 24 25  1  0
 24 26  1  0
 26 27  2  0
 27 28  1  0
 28 29  2  0
 27 30  1  0
 30 31  1  0
 30 32  1  0
 30 33  1  0
  8  4  1  0
 15 10  1  0
 25 20  1  0
 29 23  1  0
M  CHG  1   9   1
M  END
$$$$
