
     RDKit          3D

 33 36  0  0  0  0  0  0  0  0999 V2000
   -3.1743    0.6170   17.3762 C   0  0  0  0  0  0  0  0  0  0  0  0
   -1.8801    1.1268   17.8845 C   0  0  0  0  0  0  0  0  0  0  0  0
   -1.2987    0.0893   18.8311 C   0  0  0  0  0  0  0  0  0  0  0  0
   -0.8922    1.6080   16.8906 C   0  0  0  0  0  0  0  0  0  0  0  0
   -1.3812    2.8703   16.2362 C   0  0  0  0  0  0  0  0  0  0  0  0
   -1.5086    3.8295   17.4200 C   0  0  0  0  0  0  0  0  0  0  0  0
   -0.3413    3.4837   18.2814 C   0  0  0  0  0  0  0  0  0  0  0  0
    0.3007    2.2615   17.7045 C   0  0  0  0  0  0  0  0  0  0  0  0
    0.5701    4.6219   18.2813 N   0  0  0  0  0  4  0  0  0  0  0  0
    1.7314    4.3680   19.1006 C   0  0  0  0  0  0  0  0  0  0  0  0
    1.4368    4.6046   20.5866 C   0  0  0  0  0  0  0  0  0  0  0  0
    2.4350    3.7135   21.3349 C   0  0  0  0  0  0  0  0  0  0  0  0
    3.6215    3.5737   20.6341 O   0  0  0  0  0  0  0  0  0  0  0  0
    3.4878    2.6898   19.5432 C   0  0  0  0  0  0  0  0  0  0  0  0
    2.1008    2.9050   18.9790 C   0  0  0  0  0  0  0  0  0  0  0  0
    1.9605    2.4817   17.6827 O   0  0  0  0  0  0  0  0  0  0  0  0
    2.5738    3.2764   16.7437 C   0  0  0  0  0  0  0  0  0  0  0  0
   -0.3331    0.6763   15.9381 C   0  0  0  0  0  0  0  0  0  0  0  0
    0.9409    0.4083   16.1968 O   0  0  0  0  0  0  0  0  0  0  0  0
   -0.8010    0.0037   14.8321 N   0  0  0  0  0  0  0  0  0  0  0  0
    0.1406   -0.8756   14.0963 C   0  0  0  0  0  0  0  0  0  0  0  0
    0.2076   -0.2940   12.6739 C   0  0  0  0  0  0  0  0  0  0  0  0
   -1.1366   -0.5340   12.0998 C   0  0  0  0  0  0  0  0  0  0  0  0
   -2.2439   -0.3732   12.8692 C   0  0  0  0  0  0  0  0  0  0  0  0
   -2.1110    0.0652   14.2993 C   0  0  0  0  0  0  0  0  0  0  0  0
   -3.5260   -0.6002   12.3590 C   0  0  0  0  0  0  0  0  0  0  0  0
   -3.6711   -0.9945   11.0503 C   0  0  0  0  0  0  0  0  0  0  0  0
   -2.5324   -1.1509   10.2886 C   0  0  0  0  0  0  0  0  0  0  0  0
   -1.3152   -0.9216   10.8204 N   0  0  0  0  0  0  0  0  0  0  0  0
   -5.0081   -1.2526   10.4456 C   0  0  0  0  0  0  0  0  0  0  0  0
   -4.8454   -2.2063    9.4556 F   0  0  0  0  0  0  0  0  0  0  0  0
   -5.4953   -0.0992    9.8862 F   0  0  0  0  0  0  0  0  0  0  0  0
   -5.8679   -1.7095   11.4428 F   0  0  0  0  0  0  0  0  0  0  0  0
  1  2  1  0
  2  3  1  0
  2  4  1  0
  4  5  1  0
  5  6  1  0
  6  7  1  0
  7  8  1  0
  7  9  1  0
  9 10  1  0
 10 11  1  0
 11 12  1  0
 12 13  1  0
 13 14  1  0
 14 15  1  0
 15 16  1  0
 16 17  1  0
  4 18  1  0
 18 19  2  0
 18 20  1  0
 20 21  1  0
 21 22  1  0
 22 23  1  0
 23 24  2  0
 24 25  1  0
 24 26  1  0
 26 27  2  0
 27 28  1  0
 28 29  2  0
 27 30  1  0
 30 31  1  0
 30 32  1  0
 30 33  1  0
  8  4  1  0
 15 10  1  0
 25 20  1  0
 29 23  1  0
M  CHG  1   9   1
M  END
$$$$
