
     RDKit          3D

 33 36  0  0  0  0  0  0  0  0999 V2000
    5.9096    2.2185   17.0764 C   0  0  0  0  0  0  0  0  0  0  0  0
    5.0183    2.9249   18.0249 C   0  0  0  0  0  0  0  0  0  0  0  0
    4.0539    3.7830   17.2224 C   0  0  0  0  0  0  0  0  0  0  0  0
    4.3339    2.1144   19.0593 C   0  0  0  0  0  0  0  0  0  0  0  0
    4.2243    0.6825   18.6139 C   0  0  0  0  0  0  0  0  0  0  0  0
    5.6883    0.2736   18.4492 C   0  0  0  0  0  0  0  0  0  0  0  0
    6.3772    0.9678   19.5751 C   0  0  0  0  0  0  0  0  0  0  0  0
    5.3806    1.8748   20.2254 C   0  0  0  0  0  0  0  0  0  0  0  0
    6.8635   -0.0493   20.5000 N   0  0  0  0  0  4  0  0  0  0  0  0
    7.8973   -0.8581   19.8989 C   0  0  0  0  0  0  0  0  0  0  0  0
    9.1385   -0.0255   19.5567 C   0  0  0  0  0  0  0  0  0  0  0  0
   10.3023   -1.0231   19.5761 C   0  0  0  0  0  0  0  0  0  0  0  0
    9.8974   -2.2894   19.1875 O   0  0  0  0  0  0  0  0  0  0  0  0
    9.1769   -2.9475   20.2057 C   0  0  0  0  0  0  0  0  0  0  0  0
    8.3552   -1.8893   20.9082 C   0  0  0  0  0  0  0  0  0  0  0  0
    7.2835   -2.3915   21.5998 O   0  0  0  0  0  0  0  0  0  0  0  0
    7.4465   -3.6724   22.0714 C   0  0  0  0  0  0  0  0  0  0  0  0
    3.1070    2.6028   19.6460 C   0  0  0  0  0  0  0  0  0  0  0  0
    3.2700    2.9513   20.9162 O   0  0  0  0  0  0  0  0  0  0  0  0
    1.8162    2.7919   19.2070 N   0  0  0  0  0  0  0  0  0  0  0  0
    0.9793    1.5932   18.9543 C   0  0  0  0  0  0  0  0  0  0  0  0
    0.6057    1.6690   17.4640 C   0  0  0  0  0  0  0  0  0  0  0  0
   -0.2890    2.8443   17.3544 C   0  0  0  0  0  0  0  0  0  0  0  0
   -0.0249    3.9698   18.0668 C   0  0  0  0  0  0  0  0  0  0  0  0
    1.1845    4.0333   18.9549 C   0  0  0  0  0  0  0  0  0  0  0  0
   -0.8548    5.0927   17.9912 C   0  0  0  0  0  0  0  0  0  0  0  0
   -1.9628    5.0590   17.1785 C   0  0  0  0  0  0  0  0  0  0  0  0
   -2.2104    3.9056   16.4647 C   0  0  0  0  0  0  0  0  0  0  0  0
   -1.3840    2.8455   16.5670 N   0  0  0  0  0  0  0  0  0  0  0  0
   -2.8872    6.2207   17.0530 C   0  0  0  0  0  0  0  0  0  0  0  0
   -2.3302    7.1059   16.1463 F   0  0  0  0  0  0  0  0  0  0  0  0
   -3.0198    6.8422   18.2683 F   0  0  0  0  0  0  0  0  0  0  0  0
   -4.1243    5.7600   16.6058 F   0  0  0  0  0  0  0  0  0  0  0  0
  1  2  1  0
  2  3  1  0
  2  4  1  0
  4  5  1  0
  5  6  1  0
  6  7  1  0
  7  8  1  0
  7  9  1  0
  9 10  1  0
 10 11  1  0
 11 12  1  0
 12 13  1  0
 13 14  1  0
 14 15  1  0
 15 16  1  0
 16 17  1  0
  4 18  1  0
 18 19  2  0
 18 20  1  0
 20 21  1  0
 21 22  1  0
 22 23  1  0
 23 24  2  0
 24 25  1  0
 24 26  1  0
 26 27  2  0
 27 28  1  0
 28 29  2  0
 27 30  1  0
 30 31  1  0
 30 32  1  0
 30 33  1  0
  8  4  1  0
 15 10  1  0
 25 20  1  0
 29 23  1  0
M  CHG  1   9   1
M  END
$$$$
