
     RDKit          3D

 33 36  0  0  0  0  0  0  0  0999 V2000
   12.1601   11.7085   -8.8249 C   0  0  0  0  0  0  0  0  0  0  0  0
   13.3915   12.4300   -8.4293 C   0  0  0  0  0  0  0  0  0  0  0  0
   14.2678   12.5867   -9.6613 C   0  0  0  0  0  0  0  0  0  0  0  0
   13.2348   13.6967   -7.6769 C   0  0  0  0  0  0  0  0  0  0  0  0
   12.0935   13.5893   -6.7040 C   0  0  0  0  0  0  0  0  0  0  0  0
   12.5380   12.4417   -5.7968 C   0  0  0  0  0  0  0  0  0  0  0  0
   14.0091   12.6473   -5.6631 C   0  0  0  0  0  0  0  0  0  0  0  0
   14.4003   13.7433   -6.6035 C   0  0  0  0  0  0  0  0  0  0  0  0
   14.2892   13.0016   -4.2767 N   0  0  0  0  0  4  0  0  0  0  0  0
   13.0910   12.9713   -3.4718 C   0  0  0  0  0  0  0  0  0  0  0  0
   12.6786   11.5355   -3.1268 C   0  0  0  0  0  0  0  0  0  0  0  0
   11.8852   11.6545   -1.8205 C   0  0  0  0  0  0  0  0  0  0  0  0
   11.2075   12.8598   -1.7413 O   0  0  0  0  0  0  0  0  0  0  0  0
   12.0726   13.9314   -1.4376 C   0  0  0  0  0  0  0  0  0  0  0  0
   13.3775   13.6496   -2.1492 C   0  0  0  0  0  0  0  0  0  0  0  0
   14.1537   14.7633   -2.3401 O   0  0  0  0  0  0  0  0  0  0  0  0
   14.4114   15.4921   -1.2035 C   0  0  0  0  0  0  0  0  0  0  0  0
   13.2295   14.9513   -8.3937 C   0  0  0  0  0  0  0  0  0  0  0  0
   14.3491   15.1324   -9.0832 O   0  0  0  0  0  0  0  0  0  0  0  0
   12.3476   15.9990   -8.5324 N   0  0  0  0  0  0  0  0  0  0  0  0
   12.4692   17.1456   -7.5987 C   0  0  0  0  0  0  0  0  0  0  0  0
   11.1220   17.2078   -6.8589 C   0  0  0  0  0  0  0  0  0  0  0  0
   10.1371   17.6024   -7.8924 C   0  0  0  0  0  0  0  0  0  0  0  0
   10.2228   17.0878   -9.1461 C   0  0  0  0  0  0  0  0  0  0  0  0
   11.3055   16.1038   -9.4847 C   0  0  0  0  0  0  0  0  0  0  0  0
    9.3134   17.4469  -10.1459 C   0  0  0  0  0  0  0  0  0  0  0  0
    8.3097   18.3400   -9.8557 C   0  0  0  0  0  0  0  0  0  0  0  0
    8.2427   18.8488   -8.5759 C   0  0  0  0  0  0  0  0  0  0  0  0
    9.1402   18.4757   -7.6420 N   0  0  0  0  0  0  0  0  0  0  0  0
    7.3091   18.7640  -10.8748 C   0  0  0  0  0  0  0  0  0  0  0  0
    6.0496   18.5151  -10.3573 F   0  0  0  0  0  0  0  0  0  0  0  0
    7.4781   18.0340  -12.0234 F   0  0  0  0  0  0  0  0  0  0  0  0
    7.4835   20.1225  -11.1329 F   0  0  0  0  0  0  0  0  0  0  0  0
  1  2  1  0
  2  3  1  0
  2  4  1  0
  4  5  1  0
  5  6  1  0
  6  7  1  0
  7  8  1  0
  7  9  1  0
  9 10  1  0
 10 11  1  0
 11 12  1  0
 12 13  1  0
 13 14  1  0
 14 15  1  0
 15 16  1  0
 16 17  1  0
  4 18  1  0
 18 19  2  0
 18 20  1  0
 20 21  1  0
 21 22  1  0
 22 23  1  0
 23 24  2  0
 24 25  1  0
 24 26  1  0
 26 27  2  0
 27 28  1  0
 28 29  2  0
 27 30  1  0
 30 31  1  0
 30 32  1  0
 30 33  1  0
  8  4  1  0
 15 10  1  0
 25 20  1  0
 29 23  1  0
M  CHG  1   9   1
M  END
$$$$
