
     RDKit          3D

 33 36  0  0  0  0  0  0  0  0999 V2000
    1.5829    4.7638  -13.7631 C   0  0  0  0  0  0  0  0  0  0  0  0
    2.9955    5.2083  -13.7725 C   0  0  0  0  0  0  0  0  0  0  0  0
    3.8826    3.9760  -13.7048 C   0  0  0  0  0  0  0  0  0  0  0  0
    3.4124    6.1525  -14.8355 C   0  0  0  0  0  0  0  0  0  0  0  0
    2.4877    7.3375  -14.8745 C   0  0  0  0  0  0  0  0  0  0  0  0
    2.6618    7.9399  -13.4801 C   0  0  0  0  0  0  0  0  0  0  0  0
    4.1143    7.7570  -13.1957 C   0  0  0  0  0  0  0  0  0  0  0  0
    4.6892    6.9211  -14.2955 C   0  0  0  0  0  0  0  0  0  0  0  0
    4.7318    9.0770  -13.1435 N   0  0  0  0  0  4  0  0  0  0  0  0
    5.5346    9.2373  -11.9543 C   0  0  0  0  0  0  0  0  0  0  0  0
    5.6607    7.9221  -11.1765 C   0  0  0  0  0  0  0  0  0  0  0  0
    6.9778    8.0449  -10.4017 C   0  0  0  0  0  0  0  0  0  0  0  0
    7.2468    9.3585  -10.0547 O   0  0  0  0  0  0  0  0  0  0  0  0
    7.7018   10.1117  -11.1569 C   0  0  0  0  0  0  0  0  0  0  0  0
    6.9423    9.6120  -12.3660 C   0  0  0  0  0  0  0  0  0  0  0  0
    6.9158   10.5025  -13.4079 O   0  0  0  0  0  0  0  0  0  0  0  0
    6.5830    9.9598  -14.6262 C   0  0  0  0  0  0  0  0  0  0  0  0
    3.7133    5.6467  -16.1551 C   0  0  0  0  0  0  0  0  0  0  0  0
    4.8233    6.1812  -16.6491 O   0  0  0  0  0  0  0  0  0  0  0  0
    3.1284    4.7492  -17.0194 N   0  0  0  0  0  0  0  0  0  0  0  0
    3.7985    4.4871  -18.3169 C   0  0  0  0  0  0  0  0  0  0  0  0
    2.7774    4.9032  -19.3894 C   0  0  0  0  0  0  0  0  0  0  0  0
    1.6774    3.9183  -19.2714 C   0  0  0  0  0  0  0  0  0  0  0  0
    1.2713    3.4950  -18.0467 C   0  0  0  0  0  0  0  0  0  0  0  0
    1.9239    4.0364  -16.8073 C   0  0  0  0  0  0  0  0  0  0  0  0
    0.2415    2.5600  -17.9024 C   0  0  0  0  0  0  0  0  0  0  0  0
   -0.3749    2.0572  -19.0233 C   0  0  0  0  0  0  0  0  0  0  0  0
    0.0543    2.5021  -20.2558 C   0  0  0  0  0  0  0  0  0  0  0  0
    1.0510    3.4047  -20.3497 N   0  0  0  0  0  0  0  0  0  0  0  0
   -1.4779    1.0591  -18.9390 C   0  0  0  0  0  0  0  0  0  0  0  0
   -1.8237    0.7035  -20.2313 F   0  0  0  0  0  0  0  0  0  0  0  0
   -2.5648    1.6194  -18.3183 F   0  0  0  0  0  0  0  0  0  0  0  0
   -1.0251   -0.0464  -18.2210 F   0  0  0  0  0  0  0  0  0  0  0  0
  1  2  1  0
  2  3  1  0
  2  4  1  0
  4  5  1  0
  5  6  1  0
  6  7  1  0
  7  8  1  0
  7  9  1  0
  9 10  1  0
 10 11  1  0
 11 12  1  0
 12 13  1  0
 13 14  1  0
 14 15  1  0
 15 16  1  0
 16 17  1  0
  4 18  1  0
 18 19  2  0
 18 20  1  0
 20 21  1  0
 21 22  1  0
 22 23  1  0
 23 24  2  0
 24 25  1  0
 24 26  1  0
 26 27  2  0
 27 28  1  0
 28 29  2  0
 27 30  1  0
 30 31  1  0
 30 32  1  0
 30 33  1  0
  8  4  1  0
 15 10  1  0
 25 20  1  0
 29 23  1  0
M  CHG  1   9   1
M  END
$$$$
