
     RDKit          3D

 33 36  0  0  0  0  0  0  0  0999 V2000
   -2.0977   -6.1584   13.0672 C   0  0  0  0  0  0  0  0  0  0  0  0
   -1.7743   -4.7336   12.8251 C   0  0  0  0  0  0  0  0  0  0  0  0
   -0.5758   -4.6695   11.8925 C   0  0  0  0  0  0  0  0  0  0  0  0
   -2.8770   -3.8410   12.3977 C   0  0  0  0  0  0  0  0  0  0  0  0
   -3.8656   -3.6589   13.5159 C   0  0  0  0  0  0  0  0  0  0  0  0
   -3.0120   -3.0213   14.6125 C   0  0  0  0  0  0  0  0  0  0  0  0
   -2.1010   -2.1080   13.8642 C   0  0  0  0  0  0  0  0  0  0  0  0
   -2.3035   -2.3633   12.4038 C   0  0  0  0  0  0  0  0  0  0  0  0
   -2.4440   -0.7371   14.2239 N   0  0  0  0  0  4  0  0  0  0  0  0
   -1.4318    0.1931   13.7832 C   0  0  0  0  0  0  0  0  0  0  0  0
   -1.9737    1.1554   12.7197 C   0  0  0  0  0  0  0  0  0  0  0  0
   -1.1004    2.4097   12.8387 C   0  0  0  0  0  0  0  0  0  0  0  0
    0.1883    2.0998   13.2404 O   0  0  0  0  0  0  0  0  0  0  0  0
    0.2524    1.7954   14.6160 C   0  0  0  0  0  0  0  0  0  0  0  0
   -1.0244    1.0587   14.9564 C   0  0  0  0  0  0  0  0  0  0  0  0
   -0.9398    0.3072   16.0997 O   0  0  0  0  0  0  0  0  0  0  0  0
    0.3015   -0.2266   16.3522 C   0  0  0  0  0  0  0  0  0  0  0  0
   -3.5225   -4.0705   11.1256 C   0  0  0  0  0  0  0  0  0  0  0  0
   -4.8411   -4.1599   11.2484 O   0  0  0  0  0  0  0  0  0  0  0  0
   -3.1014   -4.2189    9.8236 N   0  0  0  0  0  0  0  0  0  0  0  0
   -2.0571   -5.2328    9.5360 C   0  0  0  0  0  0  0  0  0  0  0  0
   -0.8788   -4.4412    8.9432 C   0  0  0  0  0  0  0  0  0  0  0  0
   -1.3688   -3.9510    7.6342 C   0  0  0  0  0  0  0  0  0  0  0  0
   -2.6447   -3.5036    7.5090 C   0  0  0  0  0  0  0  0  0  0  0  0
   -3.5583   -3.4878    8.7008 C   0  0  0  0  0  0  0  0  0  0  0  0
   -3.1395   -3.0424    6.2851 C   0  0  0  0  0  0  0  0  0  0  0  0
   -2.3180   -3.0407    5.1830 C   0  0  0  0  0  0  0  0  0  0  0  0
   -1.0265   -3.4994    5.3345 C   0  0  0  0  0  0  0  0  0  0  0  0
   -0.5901   -3.9355    6.5330 N   0  0  0  0  0  0  0  0  0  0  0  0
   -2.7829   -2.5628    3.8507 C   0  0  0  0  0  0  0  0  0  0  0  0
   -3.0737   -1.2143    3.9652 F   0  0  0  0  0  0  0  0  0  0  0  0
   -3.9175   -3.2402    3.4842 F   0  0  0  0  0  0  0  0  0  0  0  0
   -1.7674   -2.7775    2.9206 F   0  0  0  0  0  0  0  0  0  0  0  0
  1  2  1  0
  2  3  1  0
  2  4  1  0
  4  5  1  0
  5  6  1  0
  6  7  1  0
  7  8  1  0
  7  9  1  0
  9 10  1  0
 10 11  1  0
 11 12  1  0
 12 13  1  0
 13 14  1  0
 14 15  1  0
 15 16  1  0
 16 17  1  0
  4 18  1  0
 18 19  2  0
 18 20  1  0
 20 21  1  0
 21 22  1  0
 22 23  1  0
 23 24  2  0
 24 25  1  0
 24 26  1  0
 26 27  2  0
 27 28  1  0
 28 29  2  0
 27 30  1  0
 30 31  1  0
 30 32  1  0
 30 33  1  0
  8  4  1  0
 15 10  1  0
 25 20  1  0
 29 23  1  0
M  CHG  1   9   1
M  END
$$$$
