
     RDKit          3D

 33 36  0  0  0  0  0  0  0  0999 V2000
   -0.0702    5.3255   18.1924 C   0  0  0  0  0  0  0  0  0  0  0  0
    1.1784    4.5348   18.2879 C   0  0  0  0  0  0  0  0  0  0  0  0
    2.0324    5.1261   19.3975 C   0  0  0  0  0  0  0  0  0  0  0  0
    1.0537    3.0618   18.3887 C   0  0  0  0  0  0  0  0  0  0  0  0
    0.2716    2.5223   17.2234 C   0  0  0  0  0  0  0  0  0  0  0  0
    1.1286    2.9387   16.0277 C   0  0  0  0  0  0  0  0  0  0  0  0
    2.5263    2.7653   16.5180 C   0  0  0  0  0  0  0  0  0  0  0  0
    2.4577    2.4505   17.9792 C   0  0  0  0  0  0  0  0  0  0  0  0
    3.1366    1.6787   15.7610 N   0  0  0  0  0  4  0  0  0  0  0  0
    4.5432    1.5520   16.0604 C   0  0  0  0  0  0  0  0  0  0  0  0
    4.7725    0.9900   17.4684 C   0  0  0  0  0  0  0  0  0  0  0  0
    6.1456    0.3112   17.4050 C   0  0  0  0  0  0  0  0  0  0  0  0
    6.9900    0.9471   16.5100 O   0  0  0  0  0  0  0  0  0  0  0  0
    6.6616    0.6467   15.1717 C   0  0  0  0  0  0  0  0  0  0  0  0
    5.1535    0.5461   15.1080 C   0  0  0  0  0  0  0  0  0  0  0  0
    4.6423    0.7094   13.8465 O   0  0  0  0  0  0  0  0  0  0  0  0
    5.3158    1.6141   13.0607 C   0  0  0  0  0  0  0  0  0  0  0  0
    0.6505    2.4685   19.6430 C   0  0  0  0  0  0  0  0  0  0  0  0
    0.3547    3.3880   20.5534 O   0  0  0  0  0  0  0  0  0  0  0  0
    0.5007    1.1856   20.1190 N   0  0  0  0  0  0  0  0  0  0  0  0
    0.3891    0.0814   19.1343 C   0  0  0  0  0  0  0  0  0  0  0  0
   -0.9852   -0.5571   19.3986 C   0  0  0  0  0  0  0  0  0  0  0  0
   -0.8628   -1.1872   20.7335 C   0  0  0  0  0  0  0  0  0  0  0  0
   -0.1837   -0.5549   21.7249 C   0  0  0  0  0  0  0  0  0  0  0  0
    0.4308    0.7927   21.4771 C   0  0  0  0  0  0  0  0  0  0  0  0
   -0.0433   -1.1273   22.9931 C   0  0  0  0  0  0  0  0  0  0  0  0
   -0.6045   -2.3567   23.2441 C   0  0  0  0  0  0  0  0  0  0  0  0
   -1.2895   -2.9792   22.2221 C   0  0  0  0  0  0  0  0  0  0  0  0
   -1.4007   -2.3917   21.0140 N   0  0  0  0  0  0  0  0  0  0  0  0
   -0.4918   -3.0212   24.5727 C   0  0  0  0  0  0  0  0  0  0  0  0
   -0.8514   -2.0965   25.5379 F   0  0  0  0  0  0  0  0  0  0  0  0
    0.8041   -3.4163   24.7860 F   0  0  0  0  0  0  0  0  0  0  0  0
   -1.3451   -4.1230   24.5942 F   0  0  0  0  0  0  0  0  0  0  0  0
  1  2  1  0
  2  3  1  0
  2  4  1  0
  4  5  1  0
  5  6  1  0
  6  7  1  0
  7  8  1  0
  7  9  1  0
  9 10  1  0
 10 11  1  0
 11 12  1  0
 12 13  1  0
 13 14  1  0
 14 15  1  0
 15 16  1  0
 16 17  1  0
  4 18  1  0
 18 19  2  0
 18 20  1  0
 20 21  1  0
 21 22  1  0
 22 23  1  0
 23 24  2  0
 24 25  1  0
 24 26  1  0
 26 27  2  0
 27 28  1  0
 28 29  2  0
 27 30  1  0
 30 31  1  0
 30 32  1  0
 30 33  1  0
  8  4  1  0
 15 10  1  0
 25 20  1  0
 29 23  1  0
M  CHG  1   9   1
M  END
$$$$
