
     RDKit          3D

 33 36  0  0  0  0  0  0  0  0999 V2000
    6.6101   11.0241   -9.0210 C   0  0  0  0  0  0  0  0  0  0  0  0
    7.6235   10.5291   -9.9808 C   0  0  0  0  0  0  0  0  0  0  0  0
    7.7329    9.0214   -9.8219 C   0  0  0  0  0  0  0  0  0  0  0  0
    7.4905   10.9444  -11.3968 C   0  0  0  0  0  0  0  0  0  0  0  0
    8.2543   10.0071  -12.2906 C   0  0  0  0  0  0  0  0  0  0  0  0
    7.5702    8.6656  -12.0260 C   0  0  0  0  0  0  0  0  0  0  0  0
    6.1310    9.0268  -11.8770 C   0  0  0  0  0  0  0  0  0  0  0  0
    6.0377   10.5201  -11.8678 C   0  0  0  0  0  0  0  0  0  0  0  0
    5.4038    8.4487  -13.0010 N   0  0  0  0  0  4  0  0  0  0  0  0
    4.2402    9.2345  -13.3370 C   0  0  0  0  0  0  0  0  0  0  0  0
    4.2002    9.5737  -14.8317 C   0  0  0  0  0  0  0  0  0  0  0  0
    2.7153    9.7816  -15.1510 C   0  0  0  0  0  0  0  0  0  0  0  0
    2.0247   10.2915  -14.0641 O   0  0  0  0  0  0  0  0  0  0  0  0
    1.7852    9.3070  -13.0831 C   0  0  0  0  0  0  0  0  0  0  0  0
    3.0015    8.4076  -13.0663 C   0  0  0  0  0  0  0  0  0  0  0  0
    3.1453    7.6957  -11.9036 O   0  0  0  0  0  0  0  0  0  0  0  0
    3.9780    6.6054  -11.9907 C   0  0  0  0  0  0  0  0  0  0  0  0
    7.6945   12.3302  -11.7515 C   0  0  0  0  0  0  0  0  0  0  0  0
    6.6113   12.8653  -12.3010 O   0  0  0  0  0  0  0  0  0  0  0  0
    8.7367   13.2243  -11.6578 N   0  0  0  0  0  0  0  0  0  0  0  0
    9.9888   12.7749  -11.0009 C   0  0  0  0  0  0  0  0  0  0  0  0
   10.1755   13.7184   -9.8004 C   0  0  0  0  0  0  0  0  0  0  0  0
   10.4596   15.0438  -10.3975 C   0  0  0  0  0  0  0  0  0  0  0  0
    9.7891   15.4485  -11.5068 C   0  0  0  0  0  0  0  0  0  0  0  0
    8.7451   14.5615  -12.1221 C   0  0  0  0  0  0  0  0  0  0  0  0
   10.0405   16.6901  -12.0989 C   0  0  0  0  0  0  0  0  0  0  0  0
   10.9865   17.5212  -11.5476 C   0  0  0  0  0  0  0  0  0  0  0  0
   11.6541   17.0888  -10.4213 C   0  0  0  0  0  0  0  0  0  0  0  0
   11.3807   15.8837   -9.8827 N   0  0  0  0  0  0  0  0  0  0  0  0
   11.3019   18.8561  -12.1291 C   0  0  0  0  0  0  0  0  0  0  0  0
   10.1203   19.5733  -12.2022 F   0  0  0  0  0  0  0  0  0  0  0  0
   11.8166   18.7032  -13.3910 F   0  0  0  0  0  0  0  0  0  0  0  0
   12.2242   19.4958  -11.3028 F   0  0  0  0  0  0  0  0  0  0  0  0
  1  2  1  0
  2  3  1  0
  2  4  1  0
  4  5  1  0
  5  6  1  0
  6  7  1  0
  7  8  1  0
  7  9  1  0
  9 10  1  0
 10 11  1  0
 11 12  1  0
 12 13  1  0
 13 14  1  0
 14 15  1  0
 15 16  1  0
 16 17  1  0
  4 18  1  0
 18 19  2  0
 18 20  1  0
 20 21  1  0
 21 22  1  0
 22 23  1  0
 23 24  2  0
 24 25  1  0
 24 26  1  0
 26 27  2  0
 27 28  1  0
 28 29  2  0
 27 30  1  0
 30 31  1  0
 30 32  1  0
 30 33  1  0
  8  4  1  0
 15 10  1  0
 25 20  1  0
 29 23  1  0
M  CHG  1   9   1
M  END
$$$$
