
     RDKit          3D

 33 36  0  0  0  0  0  0  0  0999 V2000
    0.7715    3.9729   20.8581 C   0  0  0  0  0  0  0  0  0  0  0  0
    1.6279    4.1320   19.6604 C   0  0  0  0  0  0  0  0  0  0  0  0
    3.0808    4.0614   20.1016 C   0  0  0  0  0  0  0  0  0  0  0  0
    1.3447    3.2657   18.4922 C   0  0  0  0  0  0  0  0  0  0  0  0
    2.3129    3.5560   17.3791 C   0  0  0  0  0  0  0  0  0  0  0  0
    3.6617    3.2241   18.0179 C   0  0  0  0  0  0  0  0  0  0  0  0
    3.3679    2.0306   18.8624 C   0  0  0  0  0  0  0  0  0  0  0  0
    1.8867    1.8192   18.8478 C   0  0  0  0  0  0  0  0  0  0  0  0
    4.0800    0.8918   18.2945 N   0  0  0  0  0  4  0  0  0  0  0  0
    5.4851    0.9306   18.6237 C   0  0  0  0  0  0  0  0  0  0  0  0
    5.7435    0.4443   20.0546 C   0  0  0  0  0  0  0  0  0  0  0  0
    7.1836   -0.0811   20.0402 C   0  0  0  0  0  0  0  0  0  0  0  0
    7.9728    0.6136   19.1387 O   0  0  0  0  0  0  0  0  0  0  0  0
    7.7087    0.2345   17.8062 C   0  0  0  0  0  0  0  0  0  0  0  0
    6.2223   -0.0333   17.7187 C   0  0  0  0  0  0  0  0  0  0  0  0
    5.7242    0.0307   16.4432 O   0  0  0  0  0  0  0  0  0  0  0  0
    6.4271   -0.6925   15.5093 C   0  0  0  0  0  0  0  0  0  0  0  0
   -0.0142    3.1359   18.0186 C   0  0  0  0  0  0  0  0  0  0  0  0
   -0.7065    4.2558   18.1871 O   0  0  0  0  0  0  0  0  0  0  0  0
   -0.7602    2.1352   17.4383 N   0  0  0  0  0  0  0  0  0  0  0  0
   -0.8782    0.8426   18.1568 C   0  0  0  0  0  0  0  0  0  0  0  0
   -0.2755   -0.2045   17.2047 C   0  0  0  0  0  0  0  0  0  0  0  0
   -1.2146   -0.2655   16.0609 C   0  0  0  0  0  0  0  0  0  0  0  0
   -1.7778    0.8732   15.5812 C   0  0  0  0  0  0  0  0  0  0  0  0
   -1.4375    2.1999   16.1970 C   0  0  0  0  0  0  0  0  0  0  0  0
   -2.6744    0.8478   14.5083 C   0  0  0  0  0  0  0  0  0  0  0  0
   -2.9939   -0.3549   13.9246 C   0  0  0  0  0  0  0  0  0  0  0  0
   -2.4093   -1.4975   14.4287 C   0  0  0  0  0  0  0  0  0  0  0  0
   -1.5500   -1.4279   15.4649 N   0  0  0  0  0  0  0  0  0  0  0  0
   -3.9414   -0.4512   12.7790 C   0  0  0  0  0  0  0  0  0  0  0  0
   -4.2878   -1.7830   12.6298 F   0  0  0  0  0  0  0  0  0  0  0  0
   -3.3302   -0.0120   11.6326 F   0  0  0  0  0  0  0  0  0  0  0  0
   -5.0623    0.3279   13.0606 F   0  0  0  0  0  0  0  0  0  0  0  0
  1  2  1  0
  2  3  1  0
  2  4  1  0
  4  5  1  0
  5  6  1  0
  6  7  1  0
  7  8  1  0
  7  9  1  0
  9 10  1  0
 10 11  1  0
 11 12  1  0
 12 13  1  0
 13 14  1  0
 14 15  1  0
 15 16  1  0
 16 17  1  0
  4 18  1  0
 18 19  2  0
 18 20  1  0
 20 21  1  0
 21 22  1  0
 22 23  1  0
 23 24  2  0
 24 25  1  0
 24 26  1  0
 26 27  2  0
 27 28  1  0
 28 29  2  0
 27 30  1  0
 30 31  1  0
 30 32  1  0
 30 33  1  0
  8  4  1  0
 15 10  1  0
 25 20  1  0
 29 23  1  0
M  CHG  1   9   1
M  END
$$$$
