
     RDKit          3D

 33 36  0  0  0  0  0  0  0  0999 V2000
   -3.6554    2.2101   14.5037 C   0  0  0  0  0  0  0  0  0  0  0  0
   -2.3762    1.5086   14.2494 C   0  0  0  0  0  0  0  0  0  0  0  0
   -1.5466    2.3602   13.3024 C   0  0  0  0  0  0  0  0  0  0  0  0
   -1.6016    1.0432   15.4236 C   0  0  0  0  0  0  0  0  0  0  0  0
   -2.1404   -0.2706   15.9181 C   0  0  0  0  0  0  0  0  0  0  0  0
   -1.9434   -1.1858   14.7093 C   0  0  0  0  0  0  0  0  0  0  0  0
   -0.6402   -0.7396   14.1377 C   0  0  0  0  0  0  0  0  0  0  0  0
   -0.2199    0.4920   14.8762 C   0  0  0  0  0  0  0  0  0  0  0  0
    0.3200   -1.8237   14.3079 N   0  0  0  0  0  4  0  0  0  0  0  0
    0.2327   -2.4036   15.6271 C   0  0  0  0  0  0  0  0  0  0  0  0
   -0.7278   -3.5984   15.6563 C   0  0  0  0  0  0  0  0  0  0  0  0
   -0.2414   -4.4690   16.8207 C   0  0  0  0  0  0  0  0  0  0  0  0
    0.3225   -3.7059   17.8296 O   0  0  0  0  0  0  0  0  0  0  0  0
    1.6143   -3.2538   17.4887 C   0  0  0  0  0  0  0  0  0  0  0  0
    1.5909   -2.9542   16.0060 C   0  0  0  0  0  0  0  0  0  0  0  0
    2.5841   -2.1011   15.5998 O   0  0  0  0  0  0  0  0  0  0  0  0
    3.2181   -1.4243   16.6144 C   0  0  0  0  0  0  0  0  0  0  0  0
   -1.3259    1.9648   16.5017 C   0  0  0  0  0  0  0  0  0  0  0  0
   -2.4020    2.6619   16.8448 O   0  0  0  0  0  0  0  0  0  0  0  0
   -0.2212    2.2928   17.2545 N   0  0  0  0  0  0  0  0  0  0  0  0
    0.6200    1.1902   17.7819 C   0  0  0  0  0  0  0  0  0  0  0  0
    0.5735    1.3439   19.3117 C   0  0  0  0  0  0  0  0  0  0  0  0
    1.2994    2.6046   19.5907 C   0  0  0  0  0  0  0  0  0  0  0  0
    1.1372    3.6782   18.7753 C   0  0  0  0  0  0  0  0  0  0  0  0
    0.2084    3.5971   17.5980 C   0  0  0  0  0  0  0  0  0  0  0  0
    1.8146    4.8794   19.0071 C   0  0  0  0  0  0  0  0  0  0  0  0
    2.6636    4.9781   20.0835 C   0  0  0  0  0  0  0  0  0  0  0  0
    2.8119    3.8750   20.8975 C   0  0  0  0  0  0  0  0  0  0  0  0
    2.1396    2.7360   20.6375 N   0  0  0  0  0  0  0  0  0  0  0  0
    3.4149    6.2285   20.3863 C   0  0  0  0  0  0  0  0  0  0  0  0
    3.9628    6.6880   19.2011 F   0  0  0  0  0  0  0  0  0  0  0  0
    4.4232    5.9606   21.2764 F   0  0  0  0  0  0  0  0  0  0  0  0
    2.5295    7.1621   20.9222 F   0  0  0  0  0  0  0  0  0  0  0  0
  1  2  1  0
  2  3  1  0
  2  4  1  0
  4  5  1  0
  5  6  1  0
  6  7  1  0
  7  8  1  0
  7  9  1  0
  9 10  1  0
 10 11  1  0
 11 12  1  0
 12 13  1  0
 13 14  1  0
 14 15  1  0
 15 16  1  0
 16 17  1  0
  4 18  1  0
 18 19  2  0
 18 20  1  0
 20 21  1  0
 21 22  1  0
 22 23  1  0
 23 24  2  0
 24 25  1  0
 24 26  1  0
 26 27  2  0
 27 28  1  0
 28 29  2  0
 27 30  1  0
 30 31  1  0
 30 32  1  0
 30 33  1  0
  8  4  1  0
 15 10  1  0
 25 20  1  0
 29 23  1  0
M  CHG  1   9   1
M  END
$$$$
