
     RDKit          3D

 33 36  0  0  0  0  0  0  0  0999 V2000
    0.2496   -0.1484   18.5642 C   0  0  0  0  0  0  0  0  0  0  0  0
   -0.5134   -0.1176   17.2953 C   0  0  0  0  0  0  0  0  0  0  0  0
   -1.8017   -0.8988   17.4957 C   0  0  0  0  0  0  0  0  0  0  0  0
   -0.7404    1.2021   16.6610 C   0  0  0  0  0  0  0  0  0  0  0  0
   -1.4098    2.1388   17.6281 C   0  0  0  0  0  0  0  0  0  0  0  0
   -0.3920    2.2236   18.7659 C   0  0  0  0  0  0  0  0  0  0  0  0
    0.9237    2.2114   18.0638 C   0  0  0  0  0  0  0  0  0  0  0  0
    0.6618    1.9399   16.6159 C   0  0  0  0  0  0  0  0  0  0  0  0
    1.5514    3.5125   18.2628 N   0  0  0  0  0  4  0  0  0  0  0  0
    2.4062    3.5135   19.4262 C   0  0  0  0  0  0  0  0  0  0  0  0
    3.8162    3.0129   19.0915 C   0  0  0  0  0  0  0  0  0  0  0  0
    4.7265    3.6630   20.1398 C   0  0  0  0  0  0  0  0  0  0  0  0
    4.0685    3.8487   21.3443 O   0  0  0  0  0  0  0  0  0  0  0  0
    3.1726    4.9367   21.2928 C   0  0  0  0  0  0  0  0  0  0  0  0
    2.5752    4.9403   19.9030 C   0  0  0  0  0  0  0  0  0  0  0  0
    1.3873    5.6188   19.8147 O   0  0  0  0  0  0  0  0  0  0  0  0
    1.3937    6.6889   18.9520 C   0  0  0  0  0  0  0  0  0  0  0  0
   -1.3265    1.2633   15.3417 C   0  0  0  0  0  0  0  0  0  0  0  0
   -1.7206    2.4922   15.0315 O   0  0  0  0  0  0  0  0  0  0  0  0
   -1.5742    0.3584   14.3345 N   0  0  0  0  0  0  0  0  0  0  0  0
   -1.8046   -1.0591   14.7070 C   0  0  0  0  0  0  0  0  0  0  0  0
   -0.6898   -1.8483   13.9996 C   0  0  0  0  0  0  0  0  0  0  0  0
   -0.9974   -1.7318   12.5554 C   0  0  0  0  0  0  0  0  0  0  0  0
   -1.4512   -0.5565   12.0487 C   0  0  0  0  0  0  0  0  0  0  0  0
   -1.6263    0.6340   12.9471 C   0  0  0  0  0  0  0  0  0  0  0  0
   -1.7583   -0.4172   10.6916 C   0  0  0  0  0  0  0  0  0  0  0  0
   -1.5979   -1.4920    9.8499 C   0  0  0  0  0  0  0  0  0  0  0  0
   -1.1356   -2.6747   10.3871 C   0  0  0  0  0  0  0  0  0  0  0  0
   -0.8515   -2.7657   11.7017 N   0  0  0  0  0  0  0  0  0  0  0  0
   -1.9068   -1.4100    8.3948 C   0  0  0  0  0  0  0  0  0  0  0  0
   -0.8519   -0.7613    7.7763 F   0  0  0  0  0  0  0  0  0  0  0  0
   -3.0563   -0.6869    8.2040 F   0  0  0  0  0  0  0  0  0  0  0  0
   -2.0584   -2.7032    7.8975 F   0  0  0  0  0  0  0  0  0  0  0  0
  1  2  1  0
  2  3  1  0
  2  4  1  0
  4  5  1  0
  5  6  1  0
  6  7  1  0
  7  8  1  0
  7  9  1  0
  9 10  1  0
 10 11  1  0
 11 12  1  0
 12 13  1  0
 13 14  1  0
 14 15  1  0
 15 16  1  0
 16 17  1  0
  4 18  1  0
 18 19  2  0
 18 20  1  0
 20 21  1  0
 21 22  1  0
 22 23  1  0
 23 24  2  0
 24 25  1  0
 24 26  1  0
 26 27  2  0
 27 28  1  0
 28 29  2  0
 27 30  1  0
 30 31  1  0
 30 32  1  0
 30 33  1  0
  8  4  1  0
 15 10  1  0
 25 20  1  0
 29 23  1  0
M  CHG  1   9   1
M  END
$$$$
