
     RDKit          3D

 33 36  0  0  0  0  0  0  0  0999 V2000
    2.3784    2.0630   21.1944 C   0  0  0  0  0  0  0  0  0  0  0  0
    1.6399    0.7797   21.1671 C   0  0  0  0  0  0  0  0  0  0  0  0
    0.5128    0.8575   22.1839 C   0  0  0  0  0  0  0  0  0  0  0  0
    1.1849    0.2758   19.8501 C   0  0  0  0  0  0  0  0  0  0  0  0
    2.3425   -0.2997   19.0822 C   0  0  0  0  0  0  0  0  0  0  0  0
    2.8127   -1.4346   19.9924 C   0  0  0  0  0  0  0  0  0  0  0  0
    1.5446   -1.9923   20.5447 C   0  0  0  0  0  0  0  0  0  0  0  0
    0.4293   -1.0922   20.1151 C   0  0  0  0  0  0  0  0  0  0  0  0
    1.3805   -3.3422   20.0182 N   0  0  0  0  0  4  0  0  0  0  0  0
    0.0350   -3.8262   20.2173 C   0  0  0  0  0  0  0  0  0  0  0  0
   -0.3230   -4.9283   19.2133 C   0  0  0  0  0  0  0  0  0  0  0  0
   -1.4056   -5.7614   19.9091 C   0  0  0  0  0  0  0  0  0  0  0  0
   -2.1828   -4.9870   20.7545 O   0  0  0  0  0  0  0  0  0  0  0  0
   -1.5061   -4.6722   21.9512 C   0  0  0  0  0  0  0  0  0  0  0  0
   -0.0525   -4.4677   21.5857 C   0  0  0  0  0  0  0  0  0  0  0  0
    0.6496   -3.7323   22.5053 O   0  0  0  0  0  0  0  0  0  0  0  0
    1.9130   -3.3628   22.1095 C   0  0  0  0  0  0  0  0  0  0  0  0
    0.3385    1.1080   19.0263 C   0  0  0  0  0  0  0  0  0  0  0  0
   -0.9423    0.9894   19.3538 O   0  0  0  0  0  0  0  0  0  0  0  0
    0.5394    1.9893   17.9882 N   0  0  0  0  0  0  0  0  0  0  0  0
    1.9329    2.2519   17.5517 C   0  0  0  0  0  0  0  0  0  0  0  0
    2.1448    3.7605   17.7649 C   0  0  0  0  0  0  0  0  0  0  0  0
    1.2578    4.4140   16.7750 C   0  0  0  0  0  0  0  0  0  0  0  0
    0.0207    3.9095   16.5319 C   0  0  0  0  0  0  0  0  0  0  0  0
   -0.4592    2.6979   17.2781 C   0  0  0  0  0  0  0  0  0  0  0  0
   -0.8368    4.4986   15.5975 C   0  0  0  0  0  0  0  0  0  0  0  0
   -0.4207    5.6130   14.9088 C   0  0  0  0  0  0  0  0  0  0  0  0
    0.8392    6.1073   15.1727 C   0  0  0  0  0  0  0  0  0  0  0  0
    1.6339    5.5081   16.0819 N   0  0  0  0  0  0  0  0  0  0  0  0
   -1.2851    6.2883   13.9005 C   0  0  0  0  0  0  0  0  0  0  0  0
   -0.4555    6.9260   12.9943 F   0  0  0  0  0  0  0  0  0  0  0  0
   -2.0795    7.2195   14.5189 F   0  0  0  0  0  0  0  0  0  0  0  0
   -2.0687    5.3247   13.2680 F   0  0  0  0  0  0  0  0  0  0  0  0
  1  2  1  0
  2  3  1  0
  2  4  1  0
  4  5  1  0
  5  6  1  0
  6  7  1  0
  7  8  1  0
  7  9  1  0
  9 10  1  0
 10 11  1  0
 11 12  1  0
 12 13  1  0
 13 14  1  0
 14 15  1  0
 15 16  1  0
 16 17  1  0
  4 18  1  0
 18 19  2  0
 18 20  1  0
 20 21  1  0
 21 22  1  0
 22 23  1  0
 23 24  2  0
 24 25  1  0
 24 26  1  0
 26 27  2  0
 27 28  1  0
 28 29  2  0
 27 30  1  0
 30 31  1  0
 30 32  1  0
 30 33  1  0
  8  4  1  0
 15 10  1  0
 25 20  1  0
 29 23  1  0
M  CHG  1   9   1
M  END
$$$$
