
     RDKit          3D

 33 36  0  0  0  0  0  0  0  0999 V2000
    0.6774   -2.2916   20.7159 C   0  0  0  0  0  0  0  0  0  0  0  0
    1.7163   -1.5959   19.9223 C   0  0  0  0  0  0  0  0  0  0  0  0
    1.4397   -1.8500   18.4494 C   0  0  0  0  0  0  0  0  0  0  0  0
    1.9634   -0.1650   20.2167 C   0  0  0  0  0  0  0  0  0  0  0  0
    2.2899    0.0204   21.6727 C   0  0  0  0  0  0  0  0  0  0  0  0
    3.5564   -0.8200   21.8381 C   0  0  0  0  0  0  0  0  0  0  0  0
    4.2981   -0.5946   20.5640 C   0  0  0  0  0  0  0  0  0  0  0  0
    3.4027    0.1811   19.6500 C   0  0  0  0  0  0  0  0  0  0  0  0
    5.5166    0.1425   20.8776 N   0  0  0  0  0  4  0  0  0  0  0  0
    6.6712   -0.4556   20.2505 C   0  0  0  0  0  0  0  0  0  0  0  0
    6.3975   -0.8095   18.7840 C   0  0  0  0  0  0  0  0  0  0  0  0
    7.7731   -0.7860   18.1075 C   0  0  0  0  0  0  0  0  0  0  0  0
    8.7796   -1.1623   18.9814 O   0  0  0  0  0  0  0  0  0  0  0  0
    9.0939   -0.1358   19.8961 C   0  0  0  0  0  0  0  0  0  0  0  0
    7.7930    0.5607   20.2293 C   0  0  0  0  0  0  0  0  0  0  0  0
    7.8276    1.2606   21.4075 O   0  0  0  0  0  0  0  0  0  0  0  0
    8.8238    0.8837   22.2765 C   0  0  0  0  0  0  0  0  0  0  0  0
    1.0347    0.8297   19.7309 C   0  0  0  0  0  0  0  0  0  0  0  0
   -0.1804    0.6621   20.2380 O   0  0  0  0  0  0  0  0  0  0  0  0
    1.1062    1.9033   18.8726 N   0  0  0  0  0  0  0  0  0  0  0  0
    2.4262    2.5482   18.6653 C   0  0  0  0  0  0  0  0  0  0  0  0
    2.2415    4.0031   19.1293 C   0  0  0  0  0  0  0  0  0  0  0  0
    1.3144    4.6034   18.1424 C   0  0  0  0  0  0  0  0  0  0  0  0
    0.2659    3.8830   17.6675 C   0  0  0  0  0  0  0  0  0  0  0  0
    0.0325    2.4815   18.1538 C   0  0  0  0  0  0  0  0  0  0  0  0
   -0.6220    4.4184   16.7292 C   0  0  0  0  0  0  0  0  0  0  0  0
   -0.4316    5.7022   16.2764 C   0  0  0  0  0  0  0  0  0  0  0  0
    0.6395    6.4143   16.7731 C   0  0  0  0  0  0  0  0  0  0  0  0
    1.4716    5.8595   17.6770 N   0  0  0  0  0  0  0  0  0  0  0  0
   -1.3406    6.3316   15.2778 C   0  0  0  0  0  0  0  0  0  0  0  0
   -2.6388    5.9923   15.6176 F   0  0  0  0  0  0  0  0  0  0  0  0
   -1.0603    5.8487   14.0253 F   0  0  0  0  0  0  0  0  0  0  0  0
   -1.1587    7.7129   15.3176 F   0  0  0  0  0  0  0  0  0  0  0  0
  1  2  1  0
  2  3  1  0
  2  4  1  0
  4  5  1  0
  5  6  1  0
  6  7  1  0
  7  8  1  0
  7  9  1  0
  9 10  1  0
 10 11  1  0
 11 12  1  0
 12 13  1  0
 13 14  1  0
 14 15  1  0
 15 16  1  0
 16 17  1  0
  4 18  1  0
 18 19  2  0
 18 20  1  0
 20 21  1  0
 21 22  1  0
 22 23  1  0
 23 24  2  0
 24 25  1  0
 24 26  1  0
 26 27  2  0
 27 28  1  0
 28 29  2  0
 27 30  1  0
 30 31  1  0
 30 32  1  0
 30 33  1  0
  8  4  1  0
 15 10  1  0
 25 20  1  0
 29 23  1  0
M  CHG  1   9   1
M  END
$$$$
