
     RDKit          3D

 33 36  0  0  0  0  0  0  0  0999 V2000
   -0.1685    2.5079   13.5793 C   0  0  0  0  0  0  0  0  0  0  0  0
   -0.1691    1.1070   14.0598 C   0  0  0  0  0  0  0  0  0  0  0  0
    1.2709    0.6888   14.3086 C   0  0  0  0  0  0  0  0  0  0  0  0
   -1.0642    0.7681   15.1908 C   0  0  0  0  0  0  0  0  0  0  0  0
   -2.4307    0.3990   14.6836 C   0  0  0  0  0  0  0  0  0  0  0  0
   -2.1406   -0.8182   13.8050 C   0  0  0  0  0  0  0  0  0  0  0  0
   -1.0712   -1.5437   14.5494 C   0  0  0  0  0  0  0  0  0  0  0  0
   -0.6473   -0.6765   15.6926 C   0  0  0  0  0  0  0  0  0  0  0  0
   -1.6256   -2.8108   15.0113 N   0  0  0  0  0  4  0  0  0  0  0  0
   -0.5852   -3.7736   15.2848 C   0  0  0  0  0  0  0  0  0  0  0  0
    0.3073   -3.3255   16.4481 C   0  0  0  0  0  0  0  0  0  0  0  0
    0.8723   -4.6234   17.0366 C   0  0  0  0  0  0  0  0  0  0  0  0
    1.0317   -5.5985   16.0660 O   0  0  0  0  0  0  0  0  0  0  0  0
   -0.1993   -6.1779   15.6943 C   0  0  0  0  0  0  0  0  0  0  0  0
   -1.2281   -5.0695   15.7309 C   0  0  0  0  0  0  0  0  0  0  0  0
   -2.3476   -5.3308   14.9841 O   0  0  0  0  0  0  0  0  0  0  0  0
   -2.1275   -5.4539   13.6329 C   0  0  0  0  0  0  0  0  0  0  0  0
   -1.1221    1.6460   16.3370 C   0  0  0  0  0  0  0  0  0  0  0  0
   -2.2619    1.5145   17.0043 O   0  0  0  0  0  0  0  0  0  0  0  0
   -0.2844    2.5817   16.9002 N   0  0  0  0  0  0  0  0  0  0  0  0
    1.1794    2.3604   16.8032 C   0  0  0  0  0  0  0  0  0  0  0  0
    1.6714    2.2739   18.2581 C   0  0  0  0  0  0  0  0  0  0  0  0
    1.4819    3.6367   18.8066 C   0  0  0  0  0  0  0  0  0  0  0  0
    0.3731    4.3516   18.4852 C   0  0  0  0  0  0  0  0  0  0  0  0
   -0.6730    3.7570   17.5867 C   0  0  0  0  0  0  0  0  0  0  0  0
    0.1693    5.6436   18.9799 C   0  0  0  0  0  0  0  0  0  0  0  0
    1.1103    6.2042   19.8102 C   0  0  0  0  0  0  0  0  0  0  0  0
    2.2277    5.4591   20.1227 C   0  0  0  0  0  0  0  0  0  0  0  0
    2.3847    4.2168   19.6235 N   0  0  0  0  0  0  0  0  0  0  0  0
    0.9538    7.5755   20.3711 C   0  0  0  0  0  0  0  0  0  0  0  0
    1.5020    7.5756   21.6422 F   0  0  0  0  0  0  0  0  0  0  0  0
   -0.3774    7.8946   20.4531 F   0  0  0  0  0  0  0  0  0  0  0  0
    1.6186    8.4758   19.5404 F   0  0  0  0  0  0  0  0  0  0  0  0
  1  2  1  0
  2  3  1  0
  2  4  1  0
  4  5  1  0
  5  6  1  0
  6  7  1  0
  7  8  1  0
  7  9  1  0
  9 10  1  0
 10 11  1  0
 11 12  1  0
 12 13  1  0
 13 14  1  0
 14 15  1  0
 15 16  1  0
 16 17  1  0
  4 18  1  0
 18 19  2  0
 18 20  1  0
 20 21  1  0
 21 22  1  0
 22 23  1  0
 23 24  2  0
 24 25  1  0
 24 26  1  0
 26 27  2  0
 27 28  1  0
 28 29  2  0
 27 30  1  0
 30 31  1  0
 30 32  1  0
 30 33  1  0
  8  4  1  0
 15 10  1  0
 25 20  1  0
 29 23  1  0
M  CHG  1   9   1
M  END
$$$$
