
     RDKit          3D

 33 36  0  0  0  0  0  0  0  0999 V2000
    0.1350    1.3922   21.8343 C   0  0  0  0  0  0  0  0  0  0  0  0
    1.3884    0.8573   21.2547 C   0  0  0  0  0  0  0  0  0  0  0  0
    1.0237   -0.0779   20.1133 C   0  0  0  0  0  0  0  0  0  0  0  0
    2.4426    1.8288   20.8802 C   0  0  0  0  0  0  0  0  0  0  0  0
    3.3464    2.0969   22.0515 C   0  0  0  0  0  0  0  0  0  0  0  0
    3.9278    0.7136   22.3451 C   0  0  0  0  0  0  0  0  0  0  0  0
    4.1204    0.1176   20.9916 C   0  0  0  0  0  0  0  0  0  0  0  0
    3.4993    1.0455   19.9957 C   0  0  0  0  0  0  0  0  0  0  0  0
    5.5532   -0.0332   20.7667 N   0  0  0  0  0  4  0  0  0  0  0  0
    5.9802    0.6815   19.5872 C   0  0  0  0  0  0  0  0  0  0  0  0
    6.6167    2.0300   19.9436 C   0  0  0  0  0  0  0  0  0  0  0  0
    7.5663    2.3394   18.7804 C   0  0  0  0  0  0  0  0  0  0  0  0
    7.0970    1.8210   17.5849 O   0  0  0  0  0  0  0  0  0  0  0  0
    7.2845    0.4254   17.5063 C   0  0  0  0  0  0  0  0  0  0  0  0
    7.0649   -0.1202   18.9000 C   0  0  0  0  0  0  0  0  0  0  0  0
    6.7631   -1.4572   18.9280 O   0  0  0  0  0  0  0  0  0  0  0  0
    7.6246   -2.2609   18.2200 C   0  0  0  0  0  0  0  0  0  0  0  0
    2.0757    3.0389   20.1811 C   0  0  0  0  0  0  0  0  0  0  0  0
    2.6613    4.1094   20.7032 O   0  0  0  0  0  0  0  0  0  0  0  0
    1.2684    3.3474   19.1097 N   0  0  0  0  0  0  0  0  0  0  0  0
   -0.0942    2.7620   19.0675 C   0  0  0  0  0  0  0  0  0  0  0  0
   -0.1322    1.9211   17.7800 C   0  0  0  0  0  0  0  0  0  0  0  0
   -0.0579    2.9077   16.6777 C   0  0  0  0  0  0  0  0  0  0  0  0
    0.7597    3.9866   16.7838 C   0  0  0  0  0  0  0  0  0  0  0  0
    1.6043    4.1746   18.0112 C   0  0  0  0  0  0  0  0  0  0  0  0
    0.8457    4.9399   15.7643 C   0  0  0  0  0  0  0  0  0  0  0  0
    0.0873    4.7834   14.6287 C   0  0  0  0  0  0  0  0  0  0  0  0
   -0.7352    3.6799   14.5436 C   0  0  0  0  0  0  0  0  0  0  0  0
   -0.7879    2.7850   15.5502 N   0  0  0  0  0  0  0  0  0  0  0  0
    0.1324    5.7620   13.5063 C   0  0  0  0  0  0  0  0  0  0  0  0
    0.5223    6.9834   14.0281 F   0  0  0  0  0  0  0  0  0  0  0  0
   -1.1140    5.8863   12.9480 F   0  0  0  0  0  0  0  0  0  0  0  0
    1.0469    5.3098   12.5567 F   0  0  0  0  0  0  0  0  0  0  0  0
  1  2  1  0
  2  3  1  0
  2  4  1  0
  4  5  1  0
  5  6  1  0
  6  7  1  0
  7  8  1  0
  7  9  1  0
  9 10  1  0
 10 11  1  0
 11 12  1  0
 12 13  1  0
 13 14  1  0
 14 15  1  0
 15 16  1  0
 16 17  1  0
  4 18  1  0
 18 19  2  0
 18 20  1  0
 20 21  1  0
 21 22  1  0
 22 23  1  0
 23 24  2  0
 24 25  1  0
 24 26  1  0
 26 27  2  0
 27 28  1  0
 28 29  2  0
 27 30  1  0
 30 31  1  0
 30 32  1  0
 30 33  1  0
  8  4  1  0
 15 10  1  0
 25 20  1  0
 29 23  1  0
M  CHG  1   9   1
M  END
$$$$
