
     RDKit          3D

 33 36  0  0  0  0  0  0  0  0999 V2000
   13.4285   12.3318   -6.8660 C   0  0  0  0  0  0  0  0  0  0  0  0
   12.4326   12.4956   -5.7823 C   0  0  0  0  0  0  0  0  0  0  0  0
   13.0336   11.9498   -4.4972 C   0  0  0  0  0  0  0  0  0  0  0  0
   11.8253   13.8351   -5.6029 C   0  0  0  0  0  0  0  0  0  0  0  0
   11.1666   13.9343   -4.2548 C   0  0  0  0  0  0  0  0  0  0  0  0
   12.3367   13.7088   -3.2968 C   0  0  0  0  0  0  0  0  0  0  0  0
   13.4743   14.4107   -3.9581 C   0  0  0  0  0  0  0  0  0  0  0  0
   13.0120   14.8452   -5.3132 C   0  0  0  0  0  0  0  0  0  0  0  0
   13.8455   15.5487   -3.1252 N   0  0  0  0  0  4  0  0  0  0  0  0
   14.2941   15.1236   -1.8205 C   0  0  0  0  0  0  0  0  0  0  0  0
   15.3729   14.0387   -1.9200 C   0  0  0  0  0  0  0  0  0  0  0  0
   16.1840   14.1669   -0.6254 C   0  0  0  0  0  0  0  0  0  0  0  0
   15.3989   14.6019    0.4294 O   0  0  0  0  0  0  0  0  0  0  0  0
   15.1184   15.9813    0.3433 C   0  0  0  0  0  0  0  0  0  0  0  0
   14.9501   16.2981   -1.1264 C   0  0  0  0  0  0  0  0  0  0  0  0
   14.2464   17.4500   -1.3656 O   0  0  0  0  0  0  0  0  0  0  0  0
   14.5877   18.5146   -0.5658 C   0  0  0  0  0  0  0  0  0  0  0  0
   11.0065   14.3893   -6.6565 C   0  0  0  0  0  0  0  0  0  0  0  0
   10.6936   15.6583   -6.4251 O   0  0  0  0  0  0  0  0  0  0  0  0
   10.4747   13.9203   -7.8363 N   0  0  0  0  0  0  0  0  0  0  0  0
   10.5256   14.8029   -9.0278 C   0  0  0  0  0  0  0  0  0  0  0  0
    9.0572   15.0237   -9.4291 C   0  0  0  0  0  0  0  0  0  0  0  0
    8.5870   13.7001   -9.8990 C   0  0  0  0  0  0  0  0  0  0  0  0
    8.9719   12.5712   -9.2500 C   0  0  0  0  0  0  0  0  0  0  0  0
    9.8613   12.6614   -8.0434 C   0  0  0  0  0  0  0  0  0  0  0  0
    8.5518   11.3065   -9.6741 C   0  0  0  0  0  0  0  0  0  0  0  0
    7.7310   11.2013  -10.7716 C   0  0  0  0  0  0  0  0  0  0  0  0
    7.3532   12.3614  -11.4141 C   0  0  0  0  0  0  0  0  0  0  0  0
    7.7814   13.5606  -10.9718 N   0  0  0  0  0  0  0  0  0  0  0  0
    7.2481    9.8848  -11.2747 C   0  0  0  0  0  0  0  0  0  0  0  0
    6.3388   10.1297  -12.2892 F   0  0  0  0  0  0  0  0  0  0  0  0
    6.6232    9.2018  -10.2630 F   0  0  0  0  0  0  0  0  0  0  0  0
    8.3406    9.1600  -11.7475 F   0  0  0  0  0  0  0  0  0  0  0  0
  1  2  1  0
  2  3  1  0
  2  4  1  0
  4  5  1  0
  5  6  1  0
  6  7  1  0
  7  8  1  0
  7  9  1  0
  9 10  1  0
 10 11  1  0
 11 12  1  0
 12 13  1  0
 13 14  1  0
 14 15  1  0
 15 16  1  0
 16 17  1  0
  4 18  1  0
 18 19  2  0
 18 20  1  0
 20 21  1  0
 21 22  1  0
 22 23  1  0
 23 24  2  0
 24 25  1  0
 24 26  1  0
 26 27  2  0
 27 28  1  0
 28 29  2  0
 27 30  1  0
 30 31  1  0
 30 32  1  0
 30 33  1  0
  8  4  1  0
 15 10  1  0
 25 20  1  0
 29 23  1  0
M  CHG  1   9   1
M  END
$$$$
