
     RDKit          3D

 33 36  0  0  0  0  0  0  0  0999 V2000
    2.2471   -2.4873   16.4826 C   0  0  0  0  0  0  0  0  0  0  0  0
    2.2249   -1.0726   16.9199 C   0  0  0  0  0  0  0  0  0  0  0  0
    2.9323   -0.2373   15.8654 C   0  0  0  0  0  0  0  0  0  0  0  0
    0.9198   -0.4971   17.3212 C   0  0  0  0  0  0  0  0  0  0  0  0
    0.5453   -0.9623   18.7010 C   0  0  0  0  0  0  0  0  0  0  0  0
    1.6913   -0.4207   19.5560 C   0  0  0  0  0  0  0  0  0  0  0  0
    1.9893    0.9072   18.9461 C   0  0  0  0  0  0  0  0  0  0  0  0
    1.1798    1.0217   17.6929 C   0  0  0  0  0  0  0  0  0  0  0  0
    1.6315    1.9370   19.9144 N   0  0  0  0  0  4  0  0  0  0  0  0
    2.0762    3.2419   19.4856 C   0  0  0  0  0  0  0  0  0  0  0  0
    0.9698    3.9995   18.7423 C   0  0  0  0  0  0  0  0  0  0  0  0
    1.3033    5.4827   18.9408 C   0  0  0  0  0  0  0  0  0  0  0  0
    2.6691    5.6917   19.0364 O   0  0  0  0  0  0  0  0  0  0  0  0
    3.1751    5.3003   20.2933 C   0  0  0  0  0  0  0  0  0  0  0  0
    2.3965    4.0721   20.7103 C   0  0  0  0  0  0  0  0  0  0  0  0
    3.0339    3.3084   21.6535 O   0  0  0  0  0  0  0  0  0  0  0  0
    2.3974    3.2387   22.8698 C   0  0  0  0  0  0  0  0  0  0  0  0
   -0.1930   -0.5536   16.4013 C   0  0  0  0  0  0  0  0  0  0  0  0
   -1.3596   -0.5438   17.0342 O   0  0  0  0  0  0  0  0  0  0  0  0
   -0.3339   -0.6158   15.0335 N   0  0  0  0  0  0  0  0  0  0  0  0
    0.8725   -0.4105   14.1947 C   0  0  0  0  0  0  0  0  0  0  0  0
    0.5575    0.8220   13.3299 C   0  0  0  0  0  0  0  0  0  0  0  0
   -0.5249    0.3825   12.4193 C   0  0  0  0  0  0  0  0  0  0  0  0
   -1.5185   -0.4201   12.8804 C   0  0  0  0  0  0  0  0  0  0  0  0
   -1.5330   -0.8510   14.3189 C   0  0  0  0  0  0  0  0  0  0  0  0
   -2.5496   -0.8588   12.0438 C   0  0  0  0  0  0  0  0  0  0  0  0
   -2.5601   -0.4701   10.7255 C   0  0  0  0  0  0  0  0  0  0  0  0
   -1.5411    0.3452   10.2802 C   0  0  0  0  0  0  0  0  0  0  0  0
   -0.5660    0.7449   11.1208 N   0  0  0  0  0  0  0  0  0  0  0  0
   -3.6291   -0.9019    9.7820 C   0  0  0  0  0  0  0  0  0  0  0  0
   -3.6255   -2.2857    9.7464 F   0  0  0  0  0  0  0  0  0  0  0  0
   -3.3646   -0.4169    8.5268 F   0  0  0  0  0  0  0  0  0  0  0  0
   -4.8523   -0.4174   10.2419 F   0  0  0  0  0  0  0  0  0  0  0  0
  1  2  1  0
  2  3  1  0
  2  4  1  0
  4  5  1  0
  5  6  1  0
  6  7  1  0
  7  8  1  0
  7  9  1  0
  9 10  1  0
 10 11  1  0
 11 12  1  0
 12 13  1  0
 13 14  1  0
 14 15  1  0
 15 16  1  0
 16 17  1  0
  4 18  1  0
 18 19  2  0
 18 20  1  0
 20 21  1  0
 21 22  1  0
 22 23  1  0
 23 24  2  0
 24 25  1  0
 24 26  1  0
 26 27  2  0
 27 28  1  0
 28 29  2  0
 27 30  1  0
 30 31  1  0
 30 32  1  0
 30 33  1  0
  8  4  1  0
 15 10  1  0
 25 20  1  0
 29 23  1  0
M  CHG  1   9   1
M  END
$$$$
