
     RDKit          3D

 19 21  0  0  0  0  0  0  0  0999 V2000
   -0.2782   -4.6877   13.0305 C   0  0  0  0  0  0  0  0  0  0  0  0
    0.1052   -3.2642   13.3741 C   0  0  0  0  0  0  0  0  0  0  0  0
    0.4328   -2.5259   12.1008 C   0  0  0  0  0  0  0  0  0  0  0  0
   -0.4037   -2.5020   11.1617 O   0  0  0  0  0  0  0  0  0  0  0  0
    1.6788   -1.8576   11.9549 N   0  0  0  0  0  0  0  0  0  0  0  0
    2.0940   -1.1436   10.7673 C   0  0  0  0  0  0  0  0  0  0  0  0
    1.8331    0.3090   10.9463 C   0  0  0  0  0  0  0  0  0  0  0  0
    1.6325    1.0452    9.6398 C   0  0  0  0  0  0  0  0  0  0  0  0
    0.1494    1.0934    9.3737 C   0  0  0  0  0  0  0  0  0  0  0  0
   -0.2554    2.2228   10.3191 C   0  0  0  0  0  0  0  0  0  0  0  0
    0.9100    3.1646   10.1489 C   0  0  0  0  0  0  0  0  0  0  0  0
    2.0158    2.4587    9.7403 C   0  0  0  0  0  0  0  0  0  0  0  0
    3.2435    3.0921    9.4997 C   0  0  0  0  0  0  0  0  0  0  0  0
    3.3646    4.4511    9.6709 C   0  0  0  0  0  0  0  0  0  0  0  0
    2.2477    5.1484   10.0815 C   0  0  0  0  0  0  0  0  0  0  0  0
    1.0401    4.5258   10.3182 C   0  0  0  0  0  0  0  0  0  0  0  0
    4.6872    4.8323    9.3659 O   0  0  0  0  0  0  0  0  0  0  0  0
    5.2020    3.8383    8.4646 C   0  0  0  0  0  0  0  0  0  0  0  0
    4.5729    2.6007    9.0642 C   0  0  0  0  0  0  0  0  0  0  0  0
  1  2  1  0
  2  3  1  0
  3  4  2  0
  3  5  1  0
  5  6  1  0
  6  7  1  0
  7  8  1  0
  8  9  1  0
  9 10  1  0
 10 11  1  0
 11 12  2  0
 12 13  1  0
 13 14  2  0
 14 15  1  0
 15 16  2  0
 14 17  1  0
 17 18  1  0
 18 19  1  0
 12  8  1  0
 16 11  1  0
 19 13  1  0
M  END
$$$$
