
     RDKit          3D

 19 21  0  0  0  0  0  0  0  0999 V2000
   -0.3007   -3.7506   13.9493 C   0  0  0  0  0  0  0  0  0  0  0  0
    0.5695   -3.7489   12.7107 C   0  0  0  0  0  0  0  0  0  0  0  0
    0.2476   -2.5259   11.8895 C   0  0  0  0  0  0  0  0  0  0  0  0
   -0.9530   -2.2116   11.6844 O   0  0  0  0  0  0  0  0  0  0  0  0
    1.2903   -1.7271   11.3464 N   0  0  0  0  0  0  0  0  0  0  0  0
    1.1809   -0.9478   10.1326 C   0  0  0  0  0  0  0  0  0  0  0  0
    1.5184    0.4707   10.4228 C   0  0  0  0  0  0  0  0  0  0  0  0
    2.0401    1.2194    9.2160 C   0  0  0  0  0  0  0  0  0  0  0  0
    0.8606    1.5139    8.3246 C   0  0  0  0  0  0  0  0  0  0  0  0
    0.2543    2.7030    9.0675 C   0  0  0  0  0  0  0  0  0  0  0  0
    1.5019    3.4341    9.4954 C   0  0  0  0  0  0  0  0  0  0  0  0
    2.5502    2.5492    9.5717 C   0  0  0  0  0  0  0  0  0  0  0  0
    3.8368    2.9653    9.9432 C   0  0  0  0  0  0  0  0  0  0  0  0
    4.0757    4.2860   10.2424 C   0  0  0  0  0  0  0  0  0  0  0  0
    3.0154    5.1644   10.1624 C   0  0  0  0  0  0  0  0  0  0  0  0
    1.7500    4.7555    9.7970 C   0  0  0  0  0  0  0  0  0  0  0  0
    5.4359    4.4370   10.5813 O   0  0  0  0  0  0  0  0  0  0  0  0
    6.1401    3.3633    9.9358 C   0  0  0  0  0  0  0  0  0  0  0  0
    5.1270    2.2540   10.1091 C   0  0  0  0  0  0  0  0  0  0  0  0
  1  2  1  0
  2  3  1  0
  3  4  2  0
  3  5  1  0
  5  6  1  0
  6  7  1  0
  7  8  1  0
  8  9  1  0
  9 10  1  0
 10 11  1  0
 11 12  2  0
 12 13  1  0
 13 14  2  0
 14 15  1  0
 15 16  2  0
 14 17  1  0
 17 18  1  0
 18 19  1  0
 12  8  1  0
 16 11  1  0
 19 13  1  0
M  END
$$$$
