
     RDKit          3D

 19 21  0  0  0  0  0  0  0  0999 V2000
   -1.1682   -3.2494   14.0731 C   0  0  0  0  0  0  0  0  0  0  0  0
   -1.2222   -1.8582   13.4788 C   0  0  0  0  0  0  0  0  0  0  0  0
    0.1799   -1.4150   13.1450 C   0  0  0  0  0  0  0  0  0  0  0  0
    0.8976   -0.8943   14.0372 O   0  0  0  0  0  0  0  0  0  0  0  0
    0.6951   -1.5816   11.8308 N   0  0  0  0  0  0  0  0  0  0  0  0
    1.9671   -1.0645   11.3755 C   0  0  0  0  0  0  0  0  0  0  0  0
    1.7496    0.2110   10.6434 C   0  0  0  0  0  0  0  0  0  0  0  0
    2.6255    1.3408   11.1388 C   0  0  0  0  0  0  0  0  0  0  0  0
    4.0555    0.8705   11.0570 C   0  0  0  0  0  0  0  0  0  0  0  0
    4.3091    1.0445    9.5608 C   0  0  0  0  0  0  0  0  0  0  0  0
    3.5730    2.3341    9.2979 C   0  0  0  0  0  0  0  0  0  0  0  0
    2.5872    2.5012   10.2405 C   0  0  0  0  0  0  0  0  0  0  0  0
    1.7496    3.6259   10.2354 C   0  0  0  0  0  0  0  0  0  0  0  0
    1.9020    4.5959    9.2727 C   0  0  0  0  0  0  0  0  0  0  0  0
    2.8947    4.4165    8.3321 C   0  0  0  0  0  0  0  0  0  0  0  0
    3.7186    3.3106    8.3368 C   0  0  0  0  0  0  0  0  0  0  0  0
    0.9453    5.6082    9.4911 O   0  0  0  0  0  0  0  0  0  0  0  0
    0.6094    5.5594   10.8876 C   0  0  0  0  0  0  0  0  0  0  0  0
    0.6285    4.0625   11.1018 C   0  0  0  0  0  0  0  0  0  0  0  0
  1  2  1  0
  2  3  1  0
  3  4  2  0
  3  5  1  0
  5  6  1  0
  6  7  1  0
  7  8  1  0
  8  9  1  0
  9 10  1  0
 10 11  1  0
 11 12  2  0
 12 13  1  0
 13 14  2  0
 14 15  1  0
 15 16  2  0
 14 17  1  0
 17 18  1  0
 18 19  1  0
 12  8  1  0
 16 11  1  0
 19 13  1  0
M  END
$$$$
