
     RDKit          3D

 19 21  0  0  0  0  0  0  0  0999 V2000
   -1.5942   -3.4453   11.7934 C   0  0  0  0  0  0  0  0  0  0  0  0
   -0.1184   -3.6153   12.0842 C   0  0  0  0  0  0  0  0  0  0  0  0
    0.5257   -2.2536   12.1534 C   0  0  0  0  0  0  0  0  0  0  0  0
    0.3400   -1.5273   13.1634 O   0  0  0  0  0  0  0  0  0  0  0  0
    1.3401   -1.7861   11.0863 N   0  0  0  0  0  0  0  0  0  0  0  0
    2.3969   -0.8084   11.2270 C   0  0  0  0  0  0  0  0  0  0  0  0
    1.9117    0.5162   10.7581 C   0  0  0  0  0  0  0  0  0  0  0  0
    2.7875    1.6658   11.2057 C   0  0  0  0  0  0  0  0  0  0  0  0
    4.1888    1.3748   10.7319 C   0  0  0  0  0  0  0  0  0  0  0  0
    4.0601    1.7652    9.2607 C   0  0  0  0  0  0  0  0  0  0  0  0
    3.1814    2.9859    9.3685 C   0  0  0  0  0  0  0  0  0  0  0  0
    2.4412    2.9191   10.5242 C   0  0  0  0  0  0  0  0  0  0  0  0
    1.5397    3.9331   10.8783 C   0  0  0  0  0  0  0  0  0  0  0  0
    1.3776    5.0285   10.0631 C   0  0  0  0  0  0  0  0  0  0  0  0
    2.1259    5.0838    8.9058 C   0  0  0  0  0  0  0  0  0  0  0  0
    3.0127    4.0868    8.5573 C   0  0  0  0  0  0  0  0  0  0  0  0
    0.4235    5.8899   10.6424 O   0  0  0  0  0  0  0  0  0  0  0  0
    0.4386    5.6263   12.0550 C   0  0  0  0  0  0  0  0  0  0  0  0
    0.6287    4.1262   12.0320 C   0  0  0  0  0  0  0  0  0  0  0  0
  1  2  1  0
  2  3  1  0
  3  4  2  0
  3  5  1  0
  5  6  1  0
  6  7  1  0
  7  8  1  0
  8  9  1  0
  9 10  1  0
 10 11  1  0
 11 12  2  0
 12 13  1  0
 13 14  2  0
 14 15  1  0
 15 16  2  0
 14 17  1  0
 17 18  1  0
 18 19  1  0
 12  8  1  0
 16 11  1  0
 19 13  1  0
M  END
$$$$
