
     RDKit          3D

 19 21  0  0  0  0  0  0  0  0999 V2000
   -0.9867   -3.1677   13.7247 C   0  0  0  0  0  0  0  0  0  0  0  0
   -0.5082   -1.7542   13.4709 C   0  0  0  0  0  0  0  0  0  0  0  0
    0.1374   -1.6942   12.1095 C   0  0  0  0  0  0  0  0  0  0  0  0
    1.2051   -2.3246   11.8981 O   0  0  0  0  0  0  0  0  0  0  0  0
   -0.4520   -0.9312   11.0650 N   0  0  0  0  0  0  0  0  0  0  0  0
    0.2525   -0.4631    9.8915 C   0  0  0  0  0  0  0  0  0  0  0  0
    1.0550    0.7381   10.2421 C   0  0  0  0  0  0  0  0  0  0  0  0
    1.6099    1.4593    9.0334 C   0  0  0  0  0  0  0  0  0  0  0  0
    0.4381    2.0072    8.2592 C   0  0  0  0  0  0  0  0  0  0  0  0
    0.1079    3.2344    9.1067 C   0  0  0  0  0  0  0  0  0  0  0  0
    1.4931    3.7120    9.4633 C   0  0  0  0  0  0  0  0  0  0  0  0
    2.3716    2.6569    9.4088 C   0  0  0  0  0  0  0  0  0  0  0  0
    3.7353    2.8215    9.6909 C   0  0  0  0  0  0  0  0  0  0  0  0
    4.2250    4.0603   10.0323 C   0  0  0  0  0  0  0  0  0  0  0  0
    3.3333    5.1113   10.0838 C   0  0  0  0  0  0  0  0  0  0  0  0
    1.9921    4.9497    9.8064 C   0  0  0  0  0  0  0  0  0  0  0  0
    5.6118    3.9537   10.2630 O   0  0  0  0  0  0  0  0  0  0  0  0
    6.0657    2.8170    9.5098 C   0  0  0  0  0  0  0  0  0  0  0  0
    4.8885    1.8900    9.7137 C   0  0  0  0  0  0  0  0  0  0  0  0
  1  2  1  0
  2  3  1  0
  3  4  2  0
  3  5  1  0
  5  6  1  0
  6  7  1  0
  7  8  1  0
  8  9  1  0
  9 10  1  0
 10 11  1  0
 11 12  2  0
 12 13  1  0
 13 14  2  0
 14 15  1  0
 15 16  2  0
 14 17  1  0
 17 18  1  0
 18 19  1  0
 12  8  1  0
 16 11  1  0
 19 13  1  0
M  END
$$$$
