
     RDKit          3D

 19 21  0  0  0  0  0  0  0  0999 V2000
   -0.7452   -3.7683   14.0723 C   0  0  0  0  0  0  0  0  0  0  0  0
   -0.1270   -2.4065   13.8387 C   0  0  0  0  0  0  0  0  0  0  0  0
    0.4069   -2.3478   12.4297 C   0  0  0  0  0  0  0  0  0  0  0  0
    1.1793   -3.2512   12.0180 O   0  0  0  0  0  0  0  0  0  0  0  0
    0.0435   -1.2799   11.5648 N   0  0  0  0  0  0  0  0  0  0  0  0
    0.5982   -1.0656   10.2461 C   0  0  0  0  0  0  0  0  0  0  0  0
    0.7004    0.3940    9.9831 C   0  0  0  0  0  0  0  0  0  0  0  0
    1.7593    1.0788   10.8191 C   0  0  0  0  0  0  0  0  0  0  0  0
    3.0813    0.4356   10.4858 C   0  0  0  0  0  0  0  0  0  0  0  0
    3.3842    1.1211    9.1547 C   0  0  0  0  0  0  0  0  0  0  0  0
    2.8981    2.5196    9.4405 C   0  0  0  0  0  0  0  0  0  0  0  0
    1.9452    2.4821   10.4298 C   0  0  0  0  0  0  0  0  0  0  0  0
    1.3256    3.6500   10.8972 C   0  0  0  0  0  0  0  0  0  0  0  0
    1.6655    4.8719   10.3658 C   0  0  0  0  0  0  0  0  0  0  0  0
    2.6229    4.8964    9.3733 C   0  0  0  0  0  0  0  0  0  0  0  0
    3.2325    3.7480    8.9135 C   0  0  0  0  0  0  0  0  0  0  0  0
    0.9050    5.8731   11.0039 O   0  0  0  0  0  0  0  0  0  0  0  0
    0.5454    5.3536   12.2947 C   0  0  0  0  0  0  0  0  0  0  0  0
    0.2896    3.9095   11.9256 C   0  0  0  0  0  0  0  0  0  0  0  0
  1  2  1  0
  2  3  1  0
  3  4  2  0
  3  5  1  0
  5  6  1  0
  6  7  1  0
  7  8  1  0
  8  9  1  0
  9 10  1  0
 10 11  1  0
 11 12  2  0
 12 13  1  0
 13 14  2  0
 14 15  1  0
 15 16  2  0
 14 17  1  0
 17 18  1  0
 18 19  1  0
 12  8  1  0
 16 11  1  0
 19 13  1  0
M  END
$$$$
