
     RDKit          3D

 19 21  0  0  0  0  0  0  0  0999 V2000
   -0.6205   -4.5963   12.1066 C   0  0  0  0  0  0  0  0  0  0  0  0
    0.3550   -3.8999   11.1820 C   0  0  0  0  0  0  0  0  0  0  0  0
    0.2548   -2.4110   11.3982 C   0  0  0  0  0  0  0  0  0  0  0  0
   -0.7736   -1.7942   11.0185 O   0  0  0  0  0  0  0  0  0  0  0  0
    1.3133   -1.7008   12.0273 N   0  0  0  0  0  0  0  0  0  0  0  0
    1.2733   -0.2943   12.3629 C   0  0  0  0  0  0  0  0  0  0  0  0
    1.6825    0.5086   11.1806 C   0  0  0  0  0  0  0  0  0  0  0  0
    2.0538    1.9341   11.5262 C   0  0  0  0  0  0  0  0  0  0  0  0
    3.3193    1.8838   12.3438 C   0  0  0  0  0  0  0  0  0  0  0  0
    4.3455    1.6591   11.2349 C   0  0  0  0  0  0  0  0  0  0  0  0
    3.7875    2.5458   10.1503 C   0  0  0  0  0  0  0  0  0  0  0  0
    2.4358    2.7067   10.3378 C   0  0  0  0  0  0  0  0  0  0  0  0
    1.6629    3.4930    9.4714 C   0  0  0  0  0  0  0  0  0  0  0  0
    2.2525    4.1264    8.4028 C   0  0  0  0  0  0  0  0  0  0  0  0
    3.6097    3.9569    8.2251 C   0  0  0  0  0  0  0  0  0  0  0  0
    4.3702    3.1837    9.0770 C   0  0  0  0  0  0  0  0  0  0  0  0
    1.2650    4.8448    7.6981 O   0  0  0  0  0  0  0  0  0  0  0  0
    0.2168    5.1300    8.6390 C   0  0  0  0  0  0  0  0  0  0  0  0
    0.2217    3.8380    9.4248 C   0  0  0  0  0  0  0  0  0  0  0  0
  1  2  1  0
  2  3  1  0
  3  4  2  0
  3  5  1  0
  5  6  1  0
  6  7  1  0
  7  8  1  0
  8  9  1  0
  9 10  1  0
 10 11  1  0
 11 12  2  0
 12 13  1  0
 13 14  2  0
 14 15  1  0
 15 16  2  0
 14 17  1  0
 17 18  1  0
 18 19  1  0
 12  8  1  0
 16 11  1  0
 19 13  1  0
M  END
$$$$
