
     RDKit          3D

 19 21  0  0  0  0  0  0  0  0999 V2000
   -1.5509    1.8245   15.5639 C   0  0  0  0  0  0  0  0  0  0  0  0
   -1.4337    3.3286   15.4398 C   0  0  0  0  0  0  0  0  0  0  0  0
   -1.2009    3.6825   13.9926 C   0  0  0  0  0  0  0  0  0  0  0  0
   -2.0436    3.3394   13.1241 O   0  0  0  0  0  0  0  0  0  0  0  0
   -0.0371    4.4001   13.6040 N   0  0  0  0  0  0  0  0  0  0  0  0
    0.2534    4.8237   12.2517 C   0  0  0  0  0  0  0  0  0  0  0  0
    1.4392    4.0838   11.7452 C   0  0  0  0  0  0  0  0  0  0  0  0
    1.1463    3.2595   10.5107 C   0  0  0  0  0  0  0  0  0  0  0  0
    0.7106    4.2121    9.4266 C   0  0  0  0  0  0  0  0  0  0  0  0
    2.0675    4.7659    8.9960 C   0  0  0  0  0  0  0  0  0  0  0  0
    2.9170    3.5223    9.0724 C   0  0  0  0  0  0  0  0  0  0  0  0
    2.3586    2.6380    9.9637 C   0  0  0  0  0  0  0  0  0  0  0  0
    2.9437    1.3907   10.2247 C   0  0  0  0  0  0  0  0  0  0  0  0
    4.1041    1.0248    9.5841 C   0  0  0  0  0  0  0  0  0  0  0  0
    4.6550    1.9211    8.6921 C   0  0  0  0  0  0  0  0  0  0  0  0
    4.0798    3.1478    8.4351 C   0  0  0  0  0  0  0  0  0  0  0  0
    4.4781   -0.2628   10.0199 O   0  0  0  0  0  0  0  0  0  0  0  0
    3.2739   -0.9112   10.4613 C   0  0  0  0  0  0  0  0  0  0  0  0
    2.5775    0.2619   11.1136 C   0  0  0  0  0  0  0  0  0  0  0  0
  1  2  1  0
  2  3  1  0
  3  4  2  0
  3  5  1  0
  5  6  1  0
  6  7  1  0
  7  8  1  0
  8  9  1  0
  9 10  1  0
 10 11  1  0
 11 12  2  0
 12 13  1  0
 13 14  2  0
 14 15  1  0
 15 16  2  0
 14 17  1  0
 17 18  1  0
 18 19  1  0
 12  8  1  0
 16 11  1  0
 19 13  1  0
M  END
$$$$
