
     RDKit          3D

 19 21  0  0  0  0  0  0  0  0999 V2000
   -0.9093   -1.2867   15.6367 C   0  0  0  0  0  0  0  0  0  0  0  0
    0.0680   -2.0890   14.8046 C   0  0  0  0  0  0  0  0  0  0  0  0
   -0.0246   -1.6348   13.3697 C   0  0  0  0  0  0  0  0  0  0  0  0
   -1.1221   -1.7148   12.7605 O   0  0  0  0  0  0  0  0  0  0  0  0
    1.1187   -1.1175   12.7020 N   0  0  0  0  0  0  0  0  0  0  0  0
    1.1788   -0.8182   11.2880 C   0  0  0  0  0  0  0  0  0  0  0  0
    1.2955    0.6516   11.0976 C   0  0  0  0  0  0  0  0  0  0  0  0
    1.5365    1.0500    9.6580 C   0  0  0  0  0  0  0  0  0  0  0  0
    0.2258    0.9092    8.9267 C   0  0  0  0  0  0  0  0  0  0  0  0
   -0.4756    2.1858    9.3867 C   0  0  0  0  0  0  0  0  0  0  0  0
    0.6755    3.1599    9.3753 C   0  0  0  0  0  0  0  0  0  0  0  0
    1.8577    2.4766    9.5284 C   0  0  0  0  0  0  0  0  0  0  0  0
    3.0925    3.1409    9.5476 C   0  0  0  0  0  0  0  0  0  0  0  0
    3.1431    4.5083    9.4118 C   0  0  0  0  0  0  0  0  0  0  0  0
    1.9497    5.1828    9.2592 C   0  0  0  0  0  0  0  0  0  0  0  0
    0.7352    4.5299    9.2401 C   0  0  0  0  0  0  0  0  0  0  0  0
    4.4900    4.9214    9.4642 O   0  0  0  0  0  0  0  0  0  0  0  0
    5.2799    3.7956    9.0469 C   0  0  0  0  0  0  0  0  0  0  0  0
    4.4935    2.6786    9.6956 C   0  0  0  0  0  0  0  0  0  0  0  0
  1  2  1  0
  2  3  1  0
  3  4  2  0
  3  5  1  0
  5  6  1  0
  6  7  1  0
  7  8  1  0
  8  9  1  0
  9 10  1  0
 10 11  1  0
 11 12  2  0
 12 13  1  0
 13 14  2  0
 14 15  1  0
 15 16  2  0
 14 17  1  0
 17 18  1  0
 18 19  1  0
 12  8  1  0
 16 11  1  0
 19 13  1  0
M  END
$$$$
