
     RDKit          3D

 19 21  0  0  0  0  0  0  0  0999 V2000
   -1.8086   -0.6049   15.2990 C   0  0  0  0  0  0  0  0  0  0  0  0
   -1.1526   -1.6057   14.3721 C   0  0  0  0  0  0  0  0  0  0  0  0
   -0.0531   -0.9141   13.6061 C   0  0  0  0  0  0  0  0  0  0  0  0
    0.9087   -0.3953   14.2289 O   0  0  0  0  0  0  0  0  0  0  0  0
   -0.0964   -0.8447   12.1870 N   0  0  0  0  0  0  0  0  0  0  0  0
    1.0531   -0.9944   11.3218 C   0  0  0  0  0  0  0  0  0  0  0  0
    1.1883    0.2128   10.4648 C   0  0  0  0  0  0  0  0  0  0  0  0
    2.1013    1.2651   11.0551 C   0  0  0  0  0  0  0  0  0  0  0  0
    3.4608    0.6366   11.2259 C   0  0  0  0  0  0  0  0  0  0  0  0
    3.9670    0.6986    9.7860 C   0  0  0  0  0  0  0  0  0  0  0  0
    3.4385    2.0448    9.3589 C   0  0  0  0  0  0  0  0  0  0  0  0
    2.3424    2.3713   10.1205 C   0  0  0  0  0  0  0  0  0  0  0  0
    1.6543    3.5792    9.9370 C   0  0  0  0  0  0  0  0  0  0  0  0
    2.0702    4.4718    8.9773 C   0  0  0  0  0  0  0  0  0  0  0  0
    3.1713    4.1326    8.2191 C   0  0  0  0  0  0  0  0  0  0  0  0
    3.8484    2.9447    8.3994 C   0  0  0  0  0  0  0  0  0  0  0  0
    1.2165    5.5937    8.9987 O   0  0  0  0  0  0  0  0  0  0  0  0
    0.6603    5.6595   10.3221 C   0  0  0  0  0  0  0  0  0  0  0  0
    0.4692    4.1837   10.5915 C   0  0  0  0  0  0  0  0  0  0  0  0
  1  2  1  0
  2  3  1  0
  3  4  2  0
  3  5  1  0
  5  6  1  0
  6  7  1  0
  7  8  1  0
  8  9  1  0
  9 10  1  0
 10 11  1  0
 11 12  2  0
 12 13  1  0
 13 14  2  0
 14 15  1  0
 15 16  2  0
 14 17  1  0
 17 18  1  0
 18 19  1  0
 12  8  1  0
 16 11  1  0
 19 13  1  0
M  END
$$$$
