
     RDKit          3D

 19 21  0  0  0  0  0  0  0  0999 V2000
   -1.1698   -4.6034   10.9146 C   0  0  0  0  0  0  0  0  0  0  0  0
   -0.7332   -3.8993   12.1815 C   0  0  0  0  0  0  0  0  0  0  0  0
    0.1117   -2.7066   11.8109 C   0  0  0  0  0  0  0  0  0  0  0  0
    1.2387   -2.8823   11.2805 O   0  0  0  0  0  0  0  0  0  0  0  0
   -0.3562   -1.3871   12.0566 N   0  0  0  0  0  0  0  0  0  0  0  0
    0.4915   -0.2641   12.3924 C   0  0  0  0  0  0  0  0  0  0  0  0
    0.9576    0.3951   11.1441 C   0  0  0  0  0  0  0  0  0  0  0  0
    2.0413    1.4240   11.3808 C   0  0  0  0  0  0  0  0  0  0  0  0
    3.3492    0.6826   11.4919 C   0  0  0  0  0  0  0  0  0  0  0  0
    3.6301    0.4131   10.0148 C   0  0  0  0  0  0  0  0  0  0  0  0
    3.1646    1.7080    9.3982 C   0  0  0  0  0  0  0  0  0  0  0  0
    2.2330    2.2988   10.2176 C   0  0  0  0  0  0  0  0  0  0  0  0
    1.6357    3.5235    9.8867 C   0  0  0  0  0  0  0  0  0  0  0  0
    1.9764    4.1647    8.7189 C   0  0  0  0  0  0  0  0  0  0  0  0
    2.9123    3.5616    7.9048 C   0  0  0  0  0  0  0  0  0  0  0  0
    3.5000    2.3571    8.2300 C   0  0  0  0  0  0  0  0  0  0  0  0
    1.2401    5.3635    8.6264 O   0  0  0  0  0  0  0  0  0  0  0  0
    0.9033    5.7417    9.9713 C   0  0  0  0  0  0  0  0  0  0  0  0
    0.6249    4.3759   10.5576 C   0  0  0  0  0  0  0  0  0  0  0  0
  1  2  1  0
  2  3  1  0
  3  4  2  0
  3  5  1  0
  5  6  1  0
  6  7  1  0
  7  8  1  0
  8  9  1  0
  9 10  1  0
 10 11  1  0
 11 12  2  0
 12 13  1  0
 13 14  2  0
 14 15  1  0
 15 16  2  0
 14 17  1  0
 17 18  1  0
 18 19  1  0
 12  8  1  0
 16 11  1  0
 19 13  1  0
M  END
$$$$
