
     RDKit          3D

 19 21  0  0  0  0  0  0  0  0999 V2000
   -1.4136   -3.0129   14.3258 C   0  0  0  0  0  0  0  0  0  0  0  0
   -1.4140   -2.0655   13.1452 C   0  0  0  0  0  0  0  0  0  0  0  0
    0.0078   -1.8500   12.6916 C   0  0  0  0  0  0  0  0  0  0  0  0
    0.9591   -2.2151   13.4291 O   0  0  0  0  0  0  0  0  0  0  0  0
    0.2797   -1.2378   11.4378 N   0  0  0  0  0  0  0  0  0  0  0  0
    1.6054   -1.0011   10.9096 C   0  0  0  0  0  0  0  0  0  0  0  0
    1.6206    0.2884   10.1698 C   0  0  0  0  0  0  0  0  0  0  0  0
    2.4958    1.3386   10.8181 C   0  0  0  0  0  0  0  0  0  0  0  0
    3.9248    0.8765   10.6874 C   0  0  0  0  0  0  0  0  0  0  0  0
    4.1930    1.2457    9.2296 C   0  0  0  0  0  0  0  0  0  0  0  0
    3.4639    2.5621    9.1332 C   0  0  0  0  0  0  0  0  0  0  0  0
    2.4700    2.6078   10.0809 C   0  0  0  0  0  0  0  0  0  0  0  0
    1.6365    3.7272   10.2173 C   0  0  0  0  0  0  0  0  0  0  0  0
    1.8013    4.8153    9.3928 C   0  0  0  0  0  0  0  0  0  0  0  0
    2.8021    4.7572    8.4455 C   0  0  0  0  0  0  0  0  0  0  0  0
    3.6220    3.6566    8.3111 C   0  0  0  0  0  0  0  0  0  0  0  0
    0.8461    5.7943    9.7347 O   0  0  0  0  0  0  0  0  0  0  0  0
    0.4970    5.5628   11.1095 C   0  0  0  0  0  0  0  0  0  0  0  0
    0.5088    4.0506   11.1239 C   0  0  0  0  0  0  0  0  0  0  0  0
  1  2  1  0
  2  3  1  0
  3  4  2  0
  3  5  1  0
  5  6  1  0
  6  7  1  0
  7  8  1  0
  8  9  1  0
  9 10  1  0
 10 11  1  0
 11 12  2  0
 12 13  1  0
 13 14  2  0
 14 15  1  0
 15 16  2  0
 14 17  1  0
 17 18  1  0
 18 19  1  0
 12  8  1  0
 16 11  1  0
 19 13  1  0
M  END
$$$$
