
     RDKit          3D

 19 21  0  0  0  0  0  0  0  0999 V2000
   -0.2498   -5.2287   12.1156 C   0  0  0  0  0  0  0  0  0  0  0  0
    0.7446   -4.1176   12.3763 C   0  0  0  0  0  0  0  0  0  0  0  0
    0.3078   -2.8852   11.6252 C   0  0  0  0  0  0  0  0  0  0  0  0
   -0.3000   -3.0056   10.5306 O   0  0  0  0  0  0  0  0  0  0  0  0
    0.5779   -1.5902   12.1453 N   0  0  0  0  0  0  0  0  0  0  0  0
    0.0212   -0.3621   11.6217 C   0  0  0  0  0  0  0  0  0  0  0  0
    0.9309    0.1911   10.5842 C   0  0  0  0  0  0  0  0  0  0  0  0
    1.9011    1.2177   11.1265 C   0  0  0  0  0  0  0  0  0  0  0  0
    3.2175    0.5183   11.3507 C   0  0  0  0  0  0  0  0  0  0  0  0
    3.7409    0.4671    9.9166 C   0  0  0  0  0  0  0  0  0  0  0  0
    3.3007    1.8164    9.4072 C   0  0  0  0  0  0  0  0  0  0  0  0
    2.2192    2.2520   10.1344 C   0  0  0  0  0  0  0  0  0  0  0  0
    1.6087    3.4872    9.8739 C   0  0  0  0  0  0  0  0  0  0  0  0
    2.0883    4.2966    8.8711 C   0  0  0  0  0  0  0  0  0  0  0  0
    3.1740    3.8482    8.1482 C   0  0  0  0  0  0  0  0  0  0  0  0
    3.7748    2.6335    8.4042 C   0  0  0  0  0  0  0  0  0  0  0  0
    1.3053    5.4678    8.8177 O   0  0  0  0  0  0  0  0  0  0  0  0
    0.7409    5.6428   10.1278 C   0  0  0  0  0  0  0  0  0  0  0  0
    0.4566    4.1992   10.4773 C   0  0  0  0  0  0  0  0  0  0  0  0
  1  2  1  0
  2  3  1  0
  3  4  2  0
  3  5  1  0
  5  6  1  0
  6  7  1  0
  7  8  1  0
  8  9  1  0
  9 10  1  0
 10 11  1  0
 11 12  2  0
 12 13  1  0
 13 14  2  0
 14 15  1  0
 15 16  2  0
 14 17  1  0
 17 18  1  0
 18 19  1  0
 12  8  1  0
 16 11  1  0
 19 13  1  0
M  END
$$$$
