
     RDKit          3D

 19 21  0  0  0  0  0  0  0  0999 V2000
   -0.2610   -2.6159   16.1820 C   0  0  0  0  0  0  0  0  0  0  0  0
   -0.9104   -2.3056   14.8503 C   0  0  0  0  0  0  0  0  0  0  0  0
    0.0728   -1.5508   13.9916 C   0  0  0  0  0  0  0  0  0  0  0  0
    1.2333   -2.0067   13.8258 O   0  0  0  0  0  0  0  0  0  0  0  0
   -0.3026   -0.3293   13.3692 N   0  0  0  0  0  0  0  0  0  0  0  0
   -0.1573   -0.0480   11.9577 C   0  0  0  0  0  0  0  0  0  0  0  0
    0.7756    1.0949   11.7742 C   0  0  0  0  0  0  0  0  0  0  0  0
    0.0740    2.4338   11.7076 C   0  0  0  0  0  0  0  0  0  0  0  0
    0.3357    3.1441   13.0113 C   0  0  0  0  0  0  0  0  0  0  0  0
    1.7603    3.6375   12.7658 C   0  0  0  0  0  0  0  0  0  0  0  0
    1.6762    4.0306   11.3124 C   0  0  0  0  0  0  0  0  0  0  0  0
    0.6723    3.3190   10.7009 C   0  0  0  0  0  0  0  0  0  0  0  0
    0.3715    3.4931    9.3424 C   0  0  0  0  0  0  0  0  0  0  0  0
    1.0865    4.3923    8.5867 C   0  0  0  0  0  0  0  0  0  0  0  0
    2.0917    5.1002    9.2118 C   0  0  0  0  0  0  0  0  0  0  0  0
    2.3878    4.9292   10.5478 C   0  0  0  0  0  0  0  0  0  0  0  0
    0.5890    4.3752    7.2676 O   0  0  0  0  0  0  0  0  0  0  0  0
   -0.7723    3.9217    7.3494 C   0  0  0  0  0  0  0  0  0  0  0  0
   -0.6285    2.8797    8.4358 C   0  0  0  0  0  0  0  0  0  0  0  0
  1  2  1  0
  2  3  1  0
  3  4  2  0
  3  5  1  0
  5  6  1  0
  6  7  1  0
  7  8  1  0
  8  9  1  0
  9 10  1  0
 10 11  1  0
 11 12  2  0
 12 13  1  0
 13 14  2  0
 14 15  1  0
 15 16  2  0
 14 17  1  0
 17 18  1  0
 18 19  1  0
 12  8  1  0
 16 11  1  0
 19 13  1  0
M  END
$$$$
