
     RDKit          3D

 19 21  0  0  0  0  0  0  0  0999 V2000
   -1.3302   -2.0332   14.8994 C   0  0  0  0  0  0  0  0  0  0  0  0
    0.0921   -2.2815   14.4448 C   0  0  0  0  0  0  0  0  0  0  0  0
    0.2223   -1.8680   13.0005 C   0  0  0  0  0  0  0  0  0  0  0  0
   -0.6487   -2.2293   12.1682 O   0  0  0  0  0  0  0  0  0  0  0  0
    1.3213   -1.0737   12.5742 N   0  0  0  0  0  0  0  0  0  0  0  0
    1.8530   -1.0615   11.2289 C   0  0  0  0  0  0  0  0  0  0  0  0
    1.6253    0.2749   10.6187 C   0  0  0  0  0  0  0  0  0  0  0  0
    2.5824    1.3326   11.1228 C   0  0  0  0  0  0  0  0  0  0  0  0
    3.9746    0.8987   10.7404 C   0  0  0  0  0  0  0  0  0  0  0  0
    3.9811    1.2914    9.2642 C   0  0  0  0  0  0  0  0  0  0  0  0
    3.2255    2.5953    9.3158 C   0  0  0  0  0  0  0  0  0  0  0  0
    2.4095    2.6105   10.4212 C   0  0  0  0  0  0  0  0  0  0  0  0
    1.5943    3.7125   10.7170 C   0  0  0  0  0  0  0  0  0  0  0  0
    1.5969    4.8139    9.8937 C   0  0  0  0  0  0  0  0  0  0  0  0
    2.4199    4.7865    8.7872 C   0  0  0  0  0  0  0  0  0  0  0  0
    3.2218    3.7029    8.4961 C   0  0  0  0  0  0  0  0  0  0  0  0
    0.6997    5.7707   10.4107 O   0  0  0  0  0  0  0  0  0  0  0  0
    0.5969    5.5153   11.8212 C   0  0  0  0  0  0  0  0  0  0  0  0
    0.6352    4.0035   11.8095 C   0  0  0  0  0  0  0  0  0  0  0  0
  1  2  1  0
  2  3  1  0
  3  4  2  0
  3  5  1  0
  5  6  1  0
  6  7  1  0
  7  8  1  0
  8  9  1  0
  9 10  1  0
 10 11  1  0
 11 12  2  0
 12 13  1  0
 13 14  2  0
 14 15  1  0
 15 16  2  0
 14 17  1  0
 17 18  1  0
 18 19  1  0
 12  8  1  0
 16 11  1  0
 19 13  1  0
M  END
$$$$
