
     RDKit          3D

 19 21  0  0  0  0  0  0  0  0999 V2000
   -0.0781   -3.9998   12.8183 C   0  0  0  0  0  0  0  0  0  0  0  0
    0.2934   -3.5890   11.4096 C   0  0  0  0  0  0  0  0  0  0  0  0
    0.0046   -2.1191   11.2373 C   0  0  0  0  0  0  0  0  0  0  0  0
   -0.8580   -1.5643   11.9655 O   0  0  0  0  0  0  0  0  0  0  0  0
    0.6997   -1.3575   10.2590 N   0  0  0  0  0  0  0  0  0  0  0  0
    0.2328   -0.1031    9.7103 C   0  0  0  0  0  0  0  0  0  0  0  0
    1.1252    0.9971   10.1609 C   0  0  0  0  0  0  0  0  0  0  0  0
    1.7163    1.7928    9.0179 C   0  0  0  0  0  0  0  0  0  0  0  0
    0.5805    2.5120    8.3356 C   0  0  0  0  0  0  0  0  0  0  0  0
    0.3699    3.6670    9.3129 C   0  0  0  0  0  0  0  0  0  0  0  0
    1.7965    3.9904    9.6791 C   0  0  0  0  0  0  0  0  0  0  0  0
    2.5824    2.8787    9.4933 C   0  0  0  0  0  0  0  0  0  0  0  0
    3.9600    2.9015    9.7540 C   0  0  0  0  0  0  0  0  0  0  0  0
    4.5580    4.0539   10.2071 C   0  0  0  0  0  0  0  0  0  0  0  0
    3.7585    5.1629   10.3899 C   0  0  0  0  0  0  0  0  0  0  0  0
    2.4037    5.1408   10.1336 C   0  0  0  0  0  0  0  0  0  0  0  0
    5.9349    3.8112   10.3882 O   0  0  0  0  0  0  0  0  0  0  0  0
    6.2782    2.7261    9.5107 C   0  0  0  0  0  0  0  0  0  0  0  0
    5.0313    1.8818    9.6502 C   0  0  0  0  0  0  0  0  0  0  0  0
  1  2  1  0
  2  3  1  0
  3  4  2  0
  3  5  1  0
  5  6  1  0
  6  7  1  0
  7  8  1  0
  8  9  1  0
  9 10  1  0
 10 11  1  0
 11 12  2  0
 12 13  1  0
 13 14  2  0
 14 15  1  0
 15 16  2  0
 14 17  1  0
 17 18  1  0
 18 19  1  0
 12  8  1  0
 16 11  1  0
 19 13  1  0
M  END
$$$$
