
     RDKit          3D

 19 21  0  0  0  0  0  0  0  0999 V2000
   -0.1975   -5.2353   12.0289 C   0  0  0  0  0  0  0  0  0  0  0  0
   -0.1403   -3.9851   11.1774 C   0  0  0  0  0  0  0  0  0  0  0  0
    0.6732   -2.9401   11.8984 C   0  0  0  0  0  0  0  0  0  0  0  0
    1.8483   -3.2055   12.2602 O   0  0  0  0  0  0  0  0  0  0  0  0
    0.1216   -1.6588   12.1715 N   0  0  0  0  0  0  0  0  0  0  0  0
    0.8732   -0.5323   12.6800 C   0  0  0  0  0  0  0  0  0  0  0  0
    0.8223    0.5814   11.6966 C   0  0  0  0  0  0  0  0  0  0  0  0
    2.0189    1.5039   11.7765 C   0  0  0  0  0  0  0  0  0  0  0  0
    3.1036    0.9093   10.9148 C   0  0  0  0  0  0  0  0  0  0  0  0
    2.6052    1.3258    9.5322 C   0  0  0  0  0  0  0  0  0  0  0  0
    2.0874    2.7116    9.8246 C   0  0  0  0  0  0  0  0  0  0  0  0
    1.7521    2.8063   11.1537 C   0  0  0  0  0  0  0  0  0  0  0  0
    1.2464    3.9944   11.7005 C   0  0  0  0  0  0  0  0  0  0  0  0
    1.0742    5.1023   10.9045 C   0  0  0  0  0  0  0  0  0  0  0  0
    1.4141    4.9946    9.5721 C   0  0  0  0  0  0  0  0  0  0  0  0
    1.9115    3.8263    9.0340 C   0  0  0  0  0  0  0  0  0  0  0  0
    0.5581    6.1523   11.6912 O   0  0  0  0  0  0  0  0  0  0  0  0
    0.9601    5.8850   13.0449 C   0  0  0  0  0  0  0  0  0  0  0  0
    0.8080    4.3806   13.0632 C   0  0  0  0  0  0  0  0  0  0  0  0
  1  2  1  0
  2  3  1  0
  3  4  2  0
  3  5  1  0
  5  6  1  0
  6  7  1  0
  7  8  1  0
  8  9  1  0
  9 10  1  0
 10 11  1  0
 11 12  2  0
 12 13  1  0
 13 14  2  0
 14 15  1  0
 15 16  2  0
 14 17  1  0
 17 18  1  0
 18 19  1  0
 12  8  1  0
 16 11  1  0
 19 13  1  0
M  END
$$$$
