
     RDKit          3D

 19 21  0  0  0  0  0  0  0  0999 V2000
   -1.0402   -4.7360   11.6841 C   0  0  0  0  0  0  0  0  0  0  0  0
    0.0544   -4.0467   10.8978 C   0  0  0  0  0  0  0  0  0  0  0  0
   -0.0745   -2.5561   11.0850 C   0  0  0  0  0  0  0  0  0  0  0  0
   -1.1156   -1.9671   10.6960 O   0  0  0  0  0  0  0  0  0  0  0  0
    0.9713   -1.8132   11.6973 N   0  0  0  0  0  0  0  0  0  0  0  0
    0.9083   -0.3993   11.9964 C   0  0  0  0  0  0  0  0  0  0  0  0
    1.3698    0.3776   10.8159 C   0  0  0  0  0  0  0  0  0  0  0  0
    2.3197    1.4996   11.1735 C   0  0  0  0  0  0  0  0  0  0  0  0
    3.6979    0.9010   11.2945 C   0  0  0  0  0  0  0  0  0  0  0  0
    4.0649    0.7738    9.8172 C   0  0  0  0  0  0  0  0  0  0  0  0
    3.4797    2.0513    9.2701 C   0  0  0  0  0  0  0  0  0  0  0  0
    2.4560    2.4735   10.0835 C   0  0  0  0  0  0  0  0  0  0  0  0
    1.7368    3.6459    9.8100 C   0  0  0  0  0  0  0  0  0  0  0  0
    2.0477    4.4050    8.7065 C   0  0  0  0  0  0  0  0  0  0  0  0
    3.0769    3.9706    7.8976 C   0  0  0  0  0  0  0  0  0  0  0  0
    3.7845    2.8177    8.1663 C   0  0  0  0  0  0  0  0  0  0  0  0
    1.1843    5.5187    8.6622 O   0  0  0  0  0  0  0  0  0  0  0  0
    0.7546    5.7573   10.0127 C   0  0  0  0  0  0  0  0  0  0  0  0
    0.6105    4.3296   10.4899 C   0  0  0  0  0  0  0  0  0  0  0  0
  1  2  1  0
  2  3  1  0
  3  4  2  0
  3  5  1  0
  5  6  1  0
  6  7  1  0
  7  8  1  0
  8  9  1  0
  9 10  1  0
 10 11  1  0
 11 12  2  0
 12 13  1  0
 13 14  2  0
 14 15  1  0
 15 16  2  0
 14 17  1  0
 17 18  1  0
 18 19  1  0
 12  8  1  0
 16 11  1  0
 19 13  1  0
M  END
$$$$
