
     RDKit          3D

 19 21  0  0  0  0  0  0  0  0999 V2000
   -0.5639   -4.8481   11.4209 C   0  0  0  0  0  0  0  0  0  0  0  0
    0.4143   -3.9003   10.7604 C   0  0  0  0  0  0  0  0  0  0  0  0
    0.1288   -2.4969   11.2322 C   0  0  0  0  0  0  0  0  0  0  0  0
   -1.0168   -2.0048   11.0660 O   0  0  0  0  0  0  0  0  0  0  0  0
    1.1442   -1.7276   11.8627 N   0  0  0  0  0  0  0  0  0  0  0  0
    0.9908   -0.3520   12.2833 C   0  0  0  0  0  0  0  0  0  0  0  0
    1.2003    0.5481   11.1188 C   0  0  0  0  0  0  0  0  0  0  0  0
    2.2908    1.5723   11.3442 C   0  0  0  0  0  0  0  0  0  0  0  0
    3.5952    0.9388   10.9324 C   0  0  0  0  0  0  0  0  0  0  0  0
    3.4892    1.0709    9.4143 C   0  0  0  0  0  0  0  0  0  0  0  0
    2.8582    2.4351    9.2932 C   0  0  0  0  0  0  0  0  0  0  0  0
    2.1604    2.7226   10.4414 C   0  0  0  0  0  0  0  0  0  0  0  0
    1.4772    3.9367   10.6008 C   0  0  0  0  0  0  0  0  0  0  0  0
    1.4934    4.8752    9.5959 C   0  0  0  0  0  0  0  0  0  0  0  0
    2.1971    4.5748    8.4483 C   0  0  0  0  0  0  0  0  0  0  0  0
    2.8692    3.3809    8.2912 C   0  0  0  0  0  0  0  0  0  0  0  0
    0.7382    5.9932   10.0049 O   0  0  0  0  0  0  0  0  0  0  0  0
    0.7542    5.9943   11.4420 C   0  0  0  0  0  0  0  0  0  0  0  0
    0.6600    4.5070   11.6987 C   0  0  0  0  0  0  0  0  0  0  0  0
  1  2  1  0
  2  3  1  0
  3  4  2  0
  3  5  1  0
  5  6  1  0
  6  7  1  0
  7  8  1  0
  8  9  1  0
  9 10  1  0
 10 11  1  0
 11 12  2  0
 12 13  1  0
 13 14  2  0
 14 15  1  0
 15 16  2  0
 14 17  1  0
 17 18  1  0
 18 19  1  0
 12  8  1  0
 16 11  1  0
 19 13  1  0
M  END
$$$$
