
     RDKit          3D

 19 21  0  0  0  0  0  0  0  0999 V2000
    0.0686   -4.8565   12.6703 C   0  0  0  0  0  0  0  0  0  0  0  0
    1.0462   -3.8735   12.0624 C   0  0  0  0  0  0  0  0  0  0  0  0
    0.2724   -2.7593   11.4038 C   0  0  0  0  0  0  0  0  0  0  0  0
   -0.7130   -3.0334   10.6718 O   0  0  0  0  0  0  0  0  0  0  0  0
    0.6488   -1.4034   11.6046 N   0  0  0  0  0  0  0  0  0  0  0  0
   -0.0894   -0.2636   11.1063 C   0  0  0  0  0  0  0  0  0  0  0  0
    0.8250    0.9019   10.9807 C   0  0  0  0  0  0  0  0  0  0  0  0
    1.1807    1.2301    9.5472 C   0  0  0  0  0  0  0  0  0  0  0  0
   -0.0966    1.6099    8.8423 C   0  0  0  0  0  0  0  0  0  0  0  0
   -0.2685    3.0396    9.3519 C   0  0  0  0  0  0  0  0  0  0  0  0
    1.1618    3.5171    9.3405 C   0  0  0  0  0  0  0  0  0  0  0  0
    2.0073    2.4393    9.4485 C   0  0  0  0  0  0  0  0  0  0  0  0
    3.4007    2.5972    9.4576 C   0  0  0  0  0  0  0  0  0  0  0  0
    3.9540    3.8521    9.3573 C   0  0  0  0  0  0  0  0  0  0  0  0
    3.0949    4.9258    9.2498 C   0  0  0  0  0  0  0  0  0  0  0  0
    1.7246    4.7708    9.2407 C   0  0  0  0  0  0  0  0  0  0  0  0
    5.3585    3.7341    9.3902 O   0  0  0  0  0  0  0  0  0  0  0  0
    5.6690    2.4102    8.9252 C   0  0  0  0  0  0  0  0  0  0  0  0
    4.5312    1.6436    9.5613 C   0  0  0  0  0  0  0  0  0  0  0  0
  1  2  1  0
  2  3  1  0
  3  4  2  0
  3  5  1  0
  5  6  1  0
  6  7  1  0
  7  8  1  0
  8  9  1  0
  9 10  1  0
 10 11  1  0
 11 12  2  0
 12 13  1  0
 13 14  2  0
 14 15  1  0
 15 16  2  0
 14 17  1  0
 17 18  1  0
 18 19  1  0
 12  8  1  0
 16 11  1  0
 19 13  1  0
M  END
$$$$
