
     RDKit          3D

 19 21  0  0  0  0  0  0  0  0999 V2000
   -0.4655    4.1912   16.3238 C   0  0  0  0  0  0  0  0  0  0  0  0
   -0.7767    5.1968   15.2361 C   0  0  0  0  0  0  0  0  0  0  0  0
   -0.8457    4.4785   13.9121 C   0  0  0  0  0  0  0  0  0  0  0  0
   -1.4605    3.3843   13.8283 O   0  0  0  0  0  0  0  0  0  0  0  0
   -0.2216    5.0289   12.7597 N   0  0  0  0  0  0  0  0  0  0  0  0
   -0.2668    4.4383   11.4399 C   0  0  0  0  0  0  0  0  0  0  0  0
    0.9564    3.6224   11.2204 C   0  0  0  0  0  0  0  0  0  0  0  0
    1.1646    3.2358    9.7726 C   0  0  0  0  0  0  0  0  0  0  0  0
    1.7002    4.4489    9.0555 C   0  0  0  0  0  0  0  0  0  0  0  0
    3.1604    4.4000    9.5013 C   0  0  0  0  0  0  0  0  0  0  0  0
    3.4173    2.9146    9.4639 C   0  0  0  0  0  0  0  0  0  0  0  0
    2.2308    2.2387    9.6172 C   0  0  0  0  0  0  0  0  0  0  0  0
    2.1784    0.8374    9.6147 C   0  0  0  0  0  0  0  0  0  0  0  0
    3.3306    0.1037    9.4565 C   0  0  0  0  0  0  0  0  0  0  0  0
    4.5151    0.7936    9.3039 C   0  0  0  0  0  0  0  0  0  0  0  0
    4.5670    2.1717    9.3062 C   0  0  0  0  0  0  0  0  0  0  0  0
    3.0051   -1.2677    9.4901 O   0  0  0  0  0  0  0  0  0  0  0  0
    1.6305   -1.3721    9.0838 C   0  0  0  0  0  0  0  0  0  0  0  0
    1.0717   -0.1388    9.7573 C   0  0  0  0  0  0  0  0  0  0  0  0
  1  2  1  0
  2  3  1  0
  3  4  2  0
  3  5  1  0
  5  6  1  0
  6  7  1  0
  7  8  1  0
  8  9  1  0
  9 10  1  0
 10 11  1  0
 11 12  2  0
 12 13  1  0
 13 14  2  0
 14 15  1  0
 15 16  2  0
 14 17  1  0
 17 18  1  0
 18 19  1  0
 12  8  1  0
 16 11  1  0
 19 13  1  0
M  END
$$$$
