
     RDKit          3D

 19 21  0  0  0  0  0  0  0  0999 V2000
   -1.3786   -0.6817   16.8359 C   0  0  0  0  0  0  0  0  0  0  0  0
   -1.6172    0.2179   15.6421 C   0  0  0  0  0  0  0  0  0  0  0  0
   -0.8319   -0.3101   14.4681 C   0  0  0  0  0  0  0  0  0  0  0  0
   -0.8172   -1.5458   14.2336 O   0  0  0  0  0  0  0  0  0  0  0  0
   -0.1091    0.5780   13.6260 N   0  0  0  0  0  0  0  0  0  0  0  0
    0.7138    0.1652   12.5103 C   0  0  0  0  0  0  0  0  0  0  0  0
    1.3456    1.3605   11.8921 C   0  0  0  0  0  0  0  0  0  0  0  0
    1.2535    1.3709   10.3819 C   0  0  0  0  0  0  0  0  0  0  0  0
   -0.1897    1.6142   10.0208 C   0  0  0  0  0  0  0  0  0  0  0  0
   -0.2721    3.1222   10.2498 C   0  0  0  0  0  0  0  0  0  0  0  0
    1.0693    3.5618    9.7195 C   0  0  0  0  0  0  0  0  0  0  0  0
    1.9587    2.5172    9.7956 C   0  0  0  0  0  0  0  0  0  0  0  0
    3.2856    2.6495    9.3616 C   0  0  0  0  0  0  0  0  0  0  0  0
    3.7270    3.8448    8.8446 C   0  0  0  0  0  0  0  0  0  0  0  0
    2.8249    4.8858    8.7738 C   0  0  0  0  0  0  0  0  0  0  0  0
    1.5199    4.7560    9.2004 C   0  0  0  0  0  0  0  0  0  0  0  0
    5.0843    3.7125    8.4869 O   0  0  0  0  0  0  0  0  0  0  0  0
    5.3072    2.3149    8.2369 C   0  0  0  0  0  0  0  0  0  0  0  0
    4.4404    1.7204    9.3242 C   0  0  0  0  0  0  0  0  0  0  0  0
  1  2  1  0
  2  3  1  0
  3  4  2  0
  3  5  1  0
  5  6  1  0
  6  7  1  0
  7  8  1  0
  8  9  1  0
  9 10  1  0
 10 11  1  0
 11 12  2  0
 12 13  1  0
 13 14  2  0
 14 15  1  0
 15 16  2  0
 14 17  1  0
 17 18  1  0
 18 19  1  0
 12  8  1  0
 16 11  1  0
 19 13  1  0
M  END
$$$$
