
     RDKit          3D

 19 21  0  0  0  0  0  0  0  0999 V2000
   -1.4858   -2.3377   15.0176 C   0  0  0  0  0  0  0  0  0  0  0  0
   -0.7104   -1.1327   14.5299 C   0  0  0  0  0  0  0  0  0  0  0  0
   -0.0683   -1.4677   13.2073 C   0  0  0  0  0  0  0  0  0  0  0  0
   -0.5786   -2.3530   12.4736 O   0  0  0  0  0  0  0  0  0  0  0  0
    1.1079   -0.7908   12.7847 N   0  0  0  0  0  0  0  0  0  0  0  0
    1.6988   -0.9132   11.4700 C   0  0  0  0  0  0  0  0  0  0  0  0
    1.5168    0.3602   10.7248 C   0  0  0  0  0  0  0  0  0  0  0  0
    2.5212    1.4250   11.1077 C   0  0  0  0  0  0  0  0  0  0  0  0
    3.8881    0.9081   10.7374 C   0  0  0  0  0  0  0  0  0  0  0  0
    3.8713    1.1626    9.2313 C   0  0  0  0  0  0  0  0  0  0  0  0
    3.1614    2.4919    9.1777 C   0  0  0  0  0  0  0  0  0  0  0  0
    2.3740    2.6382   10.2942 C   0  0  0  0  0  0  0  0  0  0  0  0
    1.6039    3.7912   10.5037 C   0  0  0  0  0  0  0  0  0  0  0  0
    1.6232    4.8112    9.5818 C   0  0  0  0  0  0  0  0  0  0  0  0
    2.4172    4.6525    8.4652 C   0  0  0  0  0  0  0  0  0  0  0  0
    3.1747    3.5187    8.2589 C   0  0  0  0  0  0  0  0  0  0  0  0
    0.7717    5.8431   10.0267 O   0  0  0  0  0  0  0  0  0  0  0  0
    0.6954    5.7225   11.4568 C   0  0  0  0  0  0  0  0  0  0  0  0
    0.6824    4.2158   11.5848 C   0  0  0  0  0  0  0  0  0  0  0  0
  1  2  1  0
  2  3  1  0
  3  4  2  0
  3  5  1  0
  5  6  1  0
  6  7  1  0
  7  8  1  0
  8  9  1  0
  9 10  1  0
 10 11  1  0
 11 12  2  0
 12 13  1  0
 13 14  2  0
 14 15  1  0
 15 16  2  0
 14 17  1  0
 17 18  1  0
 18 19  1  0
 12  8  1  0
 16 11  1  0
 19 13  1  0
M  END
$$$$
