
     RDKit          3D

 19 21  0  0  0  0  0  0  0  0999 V2000
   -1.8361   -3.2148   10.9064 C   0  0  0  0  0  0  0  0  0  0  0  0
   -0.9769   -2.9446   12.1230 C   0  0  0  0  0  0  0  0  0  0  0  0
    0.3571   -2.4077   11.6691 C   0  0  0  0  0  0  0  0  0  0  0  0
    1.0518   -3.0708   10.8569 O   0  0  0  0  0  0  0  0  0  0  0  0
    0.8340   -1.1589   12.1525 N   0  0  0  0  0  0  0  0  0  0  0  0
    2.1015   -0.5661   11.7860 C   0  0  0  0  0  0  0  0  0  0  0  0
    1.8799    0.8288   11.3220 C   0  0  0  0  0  0  0  0  0  0  0  0
    2.1295    1.0123    9.8410 C   0  0  0  0  0  0  0  0  0  0  0  0
    0.8732    0.5977    9.1183 C   0  0  0  0  0  0  0  0  0  0  0  0
    0.0123    1.8390    9.3448 C   0  0  0  0  0  0  0  0  0  0  0  0
    1.0433    2.9290    9.1931 C   0  0  0  0  0  0  0  0  0  0  0  0
    2.2894    2.4266    9.4811 C   0  0  0  0  0  0  0  0  0  0  0  0
    3.4380    3.2281    9.4131 C   0  0  0  0  0  0  0  0  0  0  0  0
    3.3363    4.5510    9.0518 C   0  0  0  0  0  0  0  0  0  0  0  0
    2.0802    5.0436    8.7654 C   0  0  0  0  0  0  0  0  0  0  0  0
    0.9504    4.2555    8.8322 C   0  0  0  0  0  0  0  0  0  0  0  0
    4.6238    5.1255    9.0605 O   0  0  0  0  0  0  0  0  0  0  0  0
    5.5534    4.0495    8.8526 C   0  0  0  0  0  0  0  0  0  0  0  0
    4.8759    2.9675    9.6633 C   0  0  0  0  0  0  0  0  0  0  0  0
  1  2  1  0
  2  3  1  0
  3  4  2  0
  3  5  1  0
  5  6  1  0
  6  7  1  0
  7  8  1  0
  8  9  1  0
  9 10  1  0
 10 11  1  0
 11 12  2  0
 12 13  1  0
 13 14  2  0
 14 15  1  0
 15 16  2  0
 14 17  1  0
 17 18  1  0
 18 19  1  0
 12  8  1  0
 16 11  1  0
 19 13  1  0
M  END
$$$$
