
     RDKit          3D

 19 21  0  0  0  0  0  0  0  0999 V2000
    8.3802    3.7086   10.7342 C   0  0  0  0  0  0  0  0  0  0  0  0
    6.9638    3.9520   11.2096 C   0  0  0  0  0  0  0  0  0  0  0  0
    6.0233    3.7979   10.0411 C   0  0  0  0  0  0  0  0  0  0  0  0
    6.3664    3.0989    9.0532 O   0  0  0  0  0  0  0  0  0  0  0  0
    4.7533    4.4364   10.0485 N   0  0  0  0  0  0  0  0  0  0  0  0
    3.6768    4.1346    9.1307 C   0  0  0  0  0  0  0  0  0  0  0  0
    2.9813    2.8973    9.5728 C   0  0  0  0  0  0  0  0  0  0  0  0
    1.8785    3.1579   10.5754 C   0  0  0  0  0  0  0  0  0  0  0  0
    1.1619    4.4109   10.1405 C   0  0  0  0  0  0  0  0  0  0  0  0
    0.2973    3.8473    9.0143 C   0  0  0  0  0  0  0  0  0  0  0  0
   -0.1004    2.5171    9.6026 C   0  0  0  0  0  0  0  0  0  0  0  0
    0.8365    2.1248   10.5280 C   0  0  0  0  0  0  0  0  0  0  0  0
    0.7105    0.9207   11.2355 C   0  0  0  0  0  0  0  0  0  0  0  0
   -0.3689    0.0986   11.0123 C   0  0  0  0  0  0  0  0  0  0  0  0
   -1.3023    0.5031   10.0809 C   0  0  0  0  0  0  0  0  0  0  0  0
   -1.1788    1.6873    9.3851 C   0  0  0  0  0  0  0  0  0  0  0  0
   -0.2569   -1.0352   11.8429 O   0  0  0  0  0  0  0  0  0  0  0  0
    0.5474   -0.6412   12.9669 C   0  0  0  0  0  0  0  0  0  0  0  0
    1.5435    0.2547   12.2654 C   0  0  0  0  0  0  0  0  0  0  0  0
  1  2  1  0
  2  3  1  0
  3  4  2  0
  3  5  1  0
  5  6  1  0
  6  7  1  0
  7  8  1  0
  8  9  1  0
  9 10  1  0
 10 11  1  0
 11 12  2  0
 12 13  1  0
 13 14  2  0
 14 15  1  0
 15 16  2  0
 14 17  1  0
 17 18  1  0
 18 19  1  0
 12  8  1  0
 16 11  1  0
 19 13  1  0
M  END
$$$$
