
     RDKit          3D

 19 21  0  0  0  0  0  0  0  0999 V2000
    3.3506   -2.8567   11.5321 C   0  0  0  0  0  0  0  0  0  0  0  0
    2.6406   -1.6076   12.0085 C   0  0  0  0  0  0  0  0  0  0  0  0
    3.0269   -0.4556   11.1155 C   0  0  0  0  0  0  0  0  0  0  0  0
    4.1311    0.1220   11.2865 O   0  0  0  0  0  0  0  0  0  0  0  0
    2.1528   -0.0189   10.0832 N   0  0  0  0  0  0  0  0  0  0  0  0
    2.4111    1.1037    9.2083 C   0  0  0  0  0  0  0  0  0  0  0  0
    1.5825    2.2629    9.6324 C   0  0  0  0  0  0  0  0  0  0  0  0
    2.3688    3.3176   10.3795 C   0  0  0  0  0  0  0  0  0  0  0  0
    3.3674    3.9028    9.4136 C   0  0  0  0  0  0  0  0  0  0  0  0
    2.4563    4.8379    8.6207 C   0  0  0  0  0  0  0  0  0  0  0  0
    1.5697    5.3668    9.7198 C   0  0  0  0  0  0  0  0  0  0  0  0
    1.5325    4.4642   10.7552 C   0  0  0  0  0  0  0  0  0  0  0  0
    0.7833    4.7079   11.9152 C   0  0  0  0  0  0  0  0  0  0  0  0
    0.0614    5.8717   12.0390 C   0  0  0  0  0  0  0  0  0  0  0  0
    0.1065    6.7696   10.9930 C   0  0  0  0  0  0  0  0  0  0  0  0
    0.8434    6.5303    9.8521 C   0  0  0  0  0  0  0  0  0  0  0  0
   -0.5950    5.8696   13.2868 O   0  0  0  0  0  0  0  0  0  0  0  0
    0.1700    5.0124   14.1502 C   0  0  0  0  0  0  0  0  0  0  0  0
    0.5586    3.9364   13.1612 C   0  0  0  0  0  0  0  0  0  0  0  0
  1  2  1  0
  2  3  1  0
  3  4  2  0
  3  5  1  0
  5  6  1  0
  6  7  1  0
  7  8  1  0
  8  9  1  0
  9 10  1  0
 10 11  1  0
 11 12  2  0
 12 13  1  0
 13 14  2  0
 14 15  1  0
 15 16  2  0
 14 17  1  0
 17 18  1  0
 18 19  1  0
 12  8  1  0
 16 11  1  0
 19 13  1  0
M  END
$$$$
