
     RDKit          3D

 19 21  0  0  0  0  0  0  0  0999 V2000
   -0.9072   -4.4048   12.9355 C   0  0  0  0  0  0  0  0  0  0  0  0
   -1.0998   -3.0240   12.3457 C   0  0  0  0  0  0  0  0  0  0  0  0
    0.1702   -2.2325   12.5309 C   0  0  0  0  0  0  0  0  0  0  0  0
    0.4559   -1.7694   13.6650 O   0  0  0  0  0  0  0  0  0  0  0  0
    1.0454   -2.0065   11.4339 N   0  0  0  0  0  0  0  0  0  0  0  0
    2.1631   -1.0883   11.4504 C   0  0  0  0  0  0  0  0  0  0  0  0
    1.6867    0.2778   11.1086 C   0  0  0  0  0  0  0  0  0  0  0  0
    1.8370    0.6129    9.6409 C   0  0  0  0  0  0  0  0  0  0  0  0
    0.6695   -0.0069    8.9160 C   0  0  0  0  0  0  0  0  0  0  0  0
   -0.4235    1.0049    9.2549 C   0  0  0  0  0  0  0  0  0  0  0  0
    0.3497    2.2964    9.1643 C   0  0  0  0  0  0  0  0  0  0  0  0
    1.6833    2.0505    9.3862 C   0  0  0  0  0  0  0  0  0  0  0  0
    2.6348    3.0800    9.3545 C   0  0  0  0  0  0  0  0  0  0  0  0
    2.2446    4.3732    9.0971 C   0  0  0  0  0  0  0  0  0  0  0  0
    0.9034    4.6072    8.8764 C   0  0  0  0  0  0  0  0  0  0  0  0
   -0.0327    3.5950    8.9074 C   0  0  0  0  0  0  0  0  0  0  0  0
    3.3825    5.2054    9.1217 O   0  0  0  0  0  0  0  0  0  0  0  0
    4.5087    4.3679    8.8124 C   0  0  0  0  0  0  0  0  0  0  0  0
    4.1038    3.1131    9.5530 C   0  0  0  0  0  0  0  0  0  0  0  0
  1  2  1  0
  2  3  1  0
  3  4  2  0
  3  5  1  0
  5  6  1  0
  6  7  1  0
  7  8  1  0
  8  9  1  0
  9 10  1  0
 10 11  1  0
 11 12  2  0
 12 13  1  0
 13 14  2  0
 14 15  1  0
 15 16  2  0
 14 17  1  0
 17 18  1  0
 18 19  1  0
 12  8  1  0
 16 11  1  0
 19 13  1  0
M  END
$$$$
