
     RDKit          3D

 19 21  0  0  0  0  0  0  0  0999 V2000
   -1.6437   -1.3152   15.4165 C   0  0  0  0  0  0  0  0  0  0  0  0
   -1.1849   -0.2540   14.4393 C   0  0  0  0  0  0  0  0  0  0  0  0
    0.0053   -0.7761   13.6747 C   0  0  0  0  0  0  0  0  0  0  0  0
    1.0349   -1.1411   14.2982 O   0  0  0  0  0  0  0  0  0  0  0  0
   -0.0287   -0.8584   12.2561 N   0  0  0  0  0  0  0  0  0  0  0  0
    1.1394   -0.8288   11.4033 C   0  0  0  0  0  0  0  0  0  0  0  0
    1.5531    0.5814   11.1790 C   0  0  0  0  0  0  0  0  0  0  0  0
    1.5880    0.9681    9.7167 C   0  0  0  0  0  0  0  0  0  0  0  0
    0.1694    0.9322    9.2078 C   0  0  0  0  0  0  0  0  0  0  0  0
   -0.3487    2.2563    9.7662 C   0  0  0  0  0  0  0  0  0  0  0  0
    0.8565    3.1394    9.5622 C   0  0  0  0  0  0  0  0  0  0  0  0
    1.9922    2.3666    9.5269 C   0  0  0  0  0  0  0  0  0  0  0  0
    3.2610    2.9342    9.3418 C   0  0  0  0  0  0  0  0  0  0  0  0
    3.3934    4.2944    9.1901 C   0  0  0  0  0  0  0  0  0  0  0  0
    2.2463    5.0593    9.2277 C   0  0  0  0  0  0  0  0  0  0  0  0
    0.9983    4.5014    9.4096 C   0  0  0  0  0  0  0  0  0  0  0  0
    4.7588    4.6028    9.0213 O   0  0  0  0  0  0  0  0  0  0  0  0
    5.3823    3.4221    8.4897 C   0  0  0  0  0  0  0  0  0  0  0  0
    4.6279    2.3651    9.2646 C   0  0  0  0  0  0  0  0  0  0  0  0
  1  2  1  0
  2  3  1  0
  3  4  2  0
  3  5  1  0
  5  6  1  0
  6  7  1  0
  7  8  1  0
  8  9  1  0
  9 10  1  0
 10 11  1  0
 11 12  2  0
 12 13  1  0
 13 14  2  0
 14 15  1  0
 15 16  2  0
 14 17  1  0
 17 18  1  0
 18 19  1  0
 12  8  1  0
 16 11  1  0
 19 13  1  0
M  END
$$$$
