
     RDKit          3D

 19 21  0  0  0  0  0  0  0  0999 V2000
   -0.3719   -3.0720   14.7506 C   0  0  0  0  0  0  0  0  0  0  0  0
   -0.8084   -1.8728   13.9366 C   0  0  0  0  0  0  0  0  0  0  0  0
   -0.1484   -1.9355   12.5823 C   0  0  0  0  0  0  0  0  0  0  0  0
    0.7656   -2.7739   12.3729 O   0  0  0  0  0  0  0  0  0  0  0  0
   -0.5518   -1.0546   11.5421 N   0  0  0  0  0  0  0  0  0  0  0  0
    0.2074   -0.8052   10.3364 C   0  0  0  0  0  0  0  0  0  0  0  0
    0.9819    0.4543   10.4907 C   0  0  0  0  0  0  0  0  0  0  0  0
    1.3409    1.1003    9.1704 C   0  0  0  0  0  0  0  0  0  0  0  0
    0.0500    1.4363    8.4682 C   0  0  0  0  0  0  0  0  0  0  0  0
   -0.3443    2.7032    9.2251 C   0  0  0  0  0  0  0  0  0  0  0  0
    1.0022    3.3602    9.3962 C   0  0  0  0  0  0  0  0  0  0  0  0
    1.9888    2.4047    9.3542 C   0  0  0  0  0  0  0  0  0  0  0  0
    3.3438    2.7422    9.4829 C   0  0  0  0  0  0  0  0  0  0  0  0
    3.7149    4.0549    9.6561 C   0  0  0  0  0  0  0  0  0  0  0  0
    2.7154    5.0046    9.6968 C   0  0  0  0  0  0  0  0  0  0  0  0
    1.3828    4.6730    9.5702 C   0  0  0  0  0  0  0  0  0  0  0  0
    5.1196    4.1213    9.7571 O   0  0  0  0  0  0  0  0  0  0  0  0
    5.6340    2.9669    9.0728 C   0  0  0  0  0  0  0  0  0  0  0  0
    4.5946    1.9463    9.4787 C   0  0  0  0  0  0  0  0  0  0  0  0
  1  2  1  0
  2  3  1  0
  3  4  2  0
  3  5  1  0
  5  6  1  0
  6  7  1  0
  7  8  1  0
  8  9  1  0
  9 10  1  0
 10 11  1  0
 11 12  2  0
 12 13  1  0
 13 14  2  0
 14 15  1  0
 15 16  2  0
 14 17  1  0
 17 18  1  0
 18 19  1  0
 12  8  1  0
 16 11  1  0
 19 13  1  0
M  END
$$$$
