
     RDKit          3D

 19 21  0  0  0  0  0  0  0  0999 V2000
   -0.0212   -4.6341   12.9787 C   0  0  0  0  0  0  0  0  0  0  0  0
    0.9700   -3.5683   12.5629 C   0  0  0  0  0  0  0  0  0  0  0  0
    0.2194   -2.2981   12.2517 C   0  0  0  0  0  0  0  0  0  0  0  0
   -0.6630   -1.8851   13.0474 O   0  0  0  0  0  0  0  0  0  0  0  0
    0.5019   -1.5654   11.0669 N   0  0  0  0  0  0  0  0  0  0  0  0
   -0.2421   -0.4083   10.6195 C   0  0  0  0  0  0  0  0  0  0  0  0
    0.6221    0.7985   10.7027 C   0  0  0  0  0  0  0  0  0  0  0  0
    1.0080    1.3512    9.3481 C   0  0  0  0  0  0  0  0  0  0  0  0
   -0.2563    1.8287    8.6802 C   0  0  0  0  0  0  0  0  0  0  0  0
   -0.4554    3.1589    9.4044 C   0  0  0  0  0  0  0  0  0  0  0  0
    0.9696    3.6419    9.5040 C   0  0  0  0  0  0  0  0  0  0  0  0
    1.8238    2.5664    9.4618 C   0  0  0  0  0  0  0  0  0  0  0  0
    3.2148    2.7303    9.5304 C   0  0  0  0  0  0  0  0  0  0  0  0
    3.7569    3.9890    9.6429 C   0  0  0  0  0  0  0  0  0  0  0  0
    2.8892    5.0604    9.6846 C   0  0  0  0  0  0  0  0  0  0  0  0
    1.5212    4.8995    9.6171 C   0  0  0  0  0  0  0  0  0  0  0  0
    5.1615    3.8769    9.6919 O   0  0  0  0  0  0  0  0  0  0  0  0
    5.4969    2.6451    9.0319 C   0  0  0  0  0  0  0  0  0  0  0  0
    4.3527    1.7800    9.5108 C   0  0  0  0  0  0  0  0  0  0  0  0
  1  2  1  0
  2  3  1  0
  3  4  2  0
  3  5  1  0
  5  6  1  0
  6  7  1  0
  7  8  1  0
  8  9  1  0
  9 10  1  0
 10 11  1  0
 11 12  2  0
 12 13  1  0
 13 14  2  0
 14 15  1  0
 15 16  2  0
 14 17  1  0
 17 18  1  0
 18 19  1  0
 12  8  1  0
 16 11  1  0
 19 13  1  0
M  END
$$$$
