
     RDKit          3D

 19 21  0  0  0  0  0  0  0  0999 V2000
   -0.5173   -3.1955   13.8266 C   0  0  0  0  0  0  0  0  0  0  0  0
    0.5581   -3.2650   12.7636 C   0  0  0  0  0  0  0  0  0  0  0  0
    0.1458   -2.4056   11.5951 C   0  0  0  0  0  0  0  0  0  0  0  0
   -0.9964   -2.5496   11.0883 O   0  0  0  0  0  0  0  0  0  0  0  0
    1.0382   -1.4354   11.0633 N   0  0  0  0  0  0  0  0  0  0  0  0
    0.7619   -0.6118    9.9066 C   0  0  0  0  0  0  0  0  0  0  0  0
    0.9233    0.8209   10.2691 C   0  0  0  0  0  0  0  0  0  0  0  0
    1.9456    1.5410    9.4173 C   0  0  0  0  0  0  0  0  0  0  0  0
    1.4570    1.4939    7.9919 C   0  0  0  0  0  0  0  0  0  0  0  0
    0.4006    2.5964    8.0347 C   0  0  0  0  0  0  0  0  0  0  0  0
    1.0867    3.6105    8.9149 C   0  0  0  0  0  0  0  0  0  0  0  0
    2.0015    2.9763    9.7205 C   0  0  0  0  0  0  0  0  0  0  0  0
    2.7887    3.6866   10.6382 C   0  0  0  0  0  0  0  0  0  0  0  0
    2.6571    5.0508   10.7501 C   0  0  0  0  0  0  0  0  0  0  0  0
    1.7354    5.6758    9.9363 C   0  0  0  0  0  0  0  0  0  0  0  0
    0.9612    4.9776    9.0336 C   0  0  0  0  0  0  0  0  0  0  0  0
    3.5541    5.5154   11.7336 O   0  0  0  0  0  0  0  0  0  0  0  0
    4.6213    4.5551   11.8005 C   0  0  0  0  0  0  0  0  0  0  0  0
    3.8290    3.2807   11.6135 C   0  0  0  0  0  0  0  0  0  0  0  0
  1  2  1  0
  2  3  1  0
  3  4  2  0
  3  5  1  0
  5  6  1  0
  6  7  1  0
  7  8  1  0
  8  9  1  0
  9 10  1  0
 10 11  1  0
 11 12  2  0
 12 13  1  0
 13 14  2  0
 14 15  1  0
 15 16  2  0
 14 17  1  0
 17 18  1  0
 18 19  1  0
 12  8  1  0
 16 11  1  0
 19 13  1  0
M  END
$$$$
