
     RDKit          3D

 19 21  0  0  0  0  0  0  0  0999 V2000
   -1.4566   -3.9957   11.9861 C   0  0  0  0  0  0  0  0  0  0  0  0
   -0.9151   -3.1469   10.8558 C   0  0  0  0  0  0  0  0  0  0  0  0
    0.2032   -2.2848   11.3851 C   0  0  0  0  0  0  0  0  0  0  0  0
    0.1309   -1.8168   12.5504 O   0  0  0  0  0  0  0  0  0  0  0  0
    1.3368   -1.9980   10.5770 N   0  0  0  0  0  0  0  0  0  0  0  0
    2.3653   -1.0387   10.9153 C   0  0  0  0  0  0  0  0  0  0  0  0
    2.2487    0.1467   10.0256 C   0  0  0  0  0  0  0  0  0  0  0  0
    2.6286    1.4436   10.7058 C   0  0  0  0  0  0  0  0  0  0  0  0
    4.0835    1.3421   11.0875 C   0  0  0  0  0  0  0  0  0  0  0  0
    4.7350    1.6131    9.7327 C   0  0  0  0  0  0  0  0  0  0  0  0
    3.8261    2.6884    9.1927 C   0  0  0  0  0  0  0  0  0  0  0  0
    2.5886    2.5826    9.7804 C   0  0  0  0  0  0  0  0  0  0  0  0
    1.5471    3.4662    9.4631 C   0  0  0  0  0  0  0  0  0  0  0  0
    1.7485    4.4693    8.5444 C   0  0  0  0  0  0  0  0  0  0  0  0
    2.9947    4.5650    7.9612 C   0  0  0  0  0  0  0  0  0  0  0  0
    4.0193    3.6961    8.2730 C   0  0  0  0  0  0  0  0  0  0  0  0
    0.5558    5.2088    8.4090 O   0  0  0  0  0  0  0  0  0  0  0  0
   -0.1710    5.0415    9.6375 C   0  0  0  0  0  0  0  0  0  0  0  0
    0.1432    3.5902    9.9235 C   0  0  0  0  0  0  0  0  0  0  0  0
  1  2  1  0
  2  3  1  0
  3  4  2  0
  3  5  1  0
  5  6  1  0
  6  7  1  0
  7  8  1  0
  8  9  1  0
  9 10  1  0
 10 11  1  0
 11 12  2  0
 12 13  1  0
 13 14  2  0
 14 15  1  0
 15 16  2  0
 14 17  1  0
 17 18  1  0
 18 19  1  0
 12  8  1  0
 16 11  1  0
 19 13  1  0
M  END
$$$$
