
     RDKit          3D

 19 21  0  0  0  0  0  0  0  0999 V2000
   -0.1417   -4.5884   12.3881 C   0  0  0  0  0  0  0  0  0  0  0  0
   -0.0633   -3.1300   12.7862 C   0  0  0  0  0  0  0  0  0  0  0  0
    0.3569   -2.3184   11.5868 C   0  0  0  0  0  0  0  0  0  0  0  0
   -0.4300   -2.1918   10.6137 O   0  0  0  0  0  0  0  0  0  0  0  0
    1.6344   -1.6963   11.5488 N   0  0  0  0  0  0  0  0  0  0  0  0
    2.1119   -0.8662   10.4647 C   0  0  0  0  0  0  0  0  0  0  0  0
    1.5108    0.4889   10.5770 C   0  0  0  0  0  0  0  0  0  0  0  0
    2.5043    1.5500   10.9966 C   0  0  0  0  0  0  0  0  0  0  0  0
    3.7485    1.3542   10.1683 C   0  0  0  0  0  0  0  0  0  0  0  0
    3.2985    1.9910    8.8549 C   0  0  0  0  0  0  0  0  0  0  0  0
    2.5096    3.1692    9.3683 C   0  0  0  0  0  0  0  0  0  0  0  0
    2.0530    2.8996   10.6359 C   0  0  0  0  0  0  0  0  0  0  0  0
    1.2915    3.8316   11.3557 C   0  0  0  0  0  0  0  0  0  0  0  0
    0.9835    5.0499   10.7974 C   0  0  0  0  0  0  0  0  0  0  0  0
    1.4473    5.3084    9.5244 C   0  0  0  0  0  0  0  0  0  0  0  0
    2.1962    4.3922    8.8163 C   0  0  0  0  0  0  0  0  0  0  0  0
    0.2175    5.7924   11.7192 O   0  0  0  0  0  0  0  0  0  0  0  0
    0.5479    5.2897   13.0244 C   0  0  0  0  0  0  0  0  0  0  0  0
    0.6770    3.8172   12.7049 C   0  0  0  0  0  0  0  0  0  0  0  0
  1  2  1  0
  2  3  1  0
  3  4  2  0
  3  5  1  0
  5  6  1  0
  6  7  1  0
  7  8  1  0
  8  9  1  0
  9 10  1  0
 10 11  1  0
 11 12  2  0
 12 13  1  0
 13 14  2  0
 14 15  1  0
 15 16  2  0
 14 17  1  0
 17 18  1  0
 18 19  1  0
 12  8  1  0
 16 11  1  0
 19 13  1  0
M  END
$$$$
