
     RDKit          3D

 19 21  0  0  0  0  0  0  0  0999 V2000
    1.0194   -5.0223   11.3855 C   0  0  0  0  0  0  0  0  0  0  0  0
    0.7058   -4.0698   12.5195 C   0  0  0  0  0  0  0  0  0  0  0  0
    0.3519   -2.7226   11.9419 C   0  0  0  0  0  0  0  0  0  0  0  0
   -0.5999   -2.6255   11.1253 O   0  0  0  0  0  0  0  0  0  0  0  0
    1.0856   -1.5634   12.3137 N   0  0  0  0  0  0  0  0  0  0  0  0
    0.6058   -0.2064   12.1702 C   0  0  0  0  0  0  0  0  0  0  0  0
    1.2198    0.4111   10.9653 C   0  0  0  0  0  0  0  0  0  0  0  0
    2.3299    1.3854   11.2934 C   0  0  0  0  0  0  0  0  0  0  0  0
    3.6161    0.7926   10.7768 C   0  0  0  0  0  0  0  0  0  0  0  0
    3.4813    1.1159    9.2899 C   0  0  0  0  0  0  0  0  0  0  0  0
    2.8685    2.4922    9.3549 C   0  0  0  0  0  0  0  0  0  0  0  0
    2.1985    2.6416   10.5452 C   0  0  0  0  0  0  0  0  0  0  0  0
    1.5369    3.8344   10.8706 C   0  0  0  0  0  0  0  0  0  0  0  0
    1.5469    4.8915    9.9913 C   0  0  0  0  0  0  0  0  0  0  0  0
    2.2225    4.7292    8.7999 C   0  0  0  0  0  0  0  0  0  0  0  0
    2.8733    3.5563    8.4795 C   0  0  0  0  0  0  0  0  0  0  0  0
    0.8170    5.9585   10.5540 O   0  0  0  0  0  0  0  0  0  0  0  0
    0.8622    5.7786   11.9791 C   0  0  0  0  0  0  0  0  0  0  0  0
    0.7509    4.2720   12.0491 C   0  0  0  0  0  0  0  0  0  0  0  0
  1  2  1  0
  2  3  1  0
  3  4  2  0
  3  5  1  0
  5  6  1  0
  6  7  1  0
  7  8  1  0
  8  9  1  0
  9 10  1  0
 10 11  1  0
 11 12  2  0
 12 13  1  0
 13 14  2  0
 14 15  1  0
 15 16  2  0
 14 17  1  0
 17 18  1  0
 18 19  1  0
 12  8  1  0
 16 11  1  0
 19 13  1  0
M  END
$$$$
