
     RDKit          3D

 19 21  0  0  0  0  0  0  0  0999 V2000
   -0.6242   -1.8360   15.0885 C   0  0  0  0  0  0  0  0  0  0  0  0
   -1.2977   -2.1142   13.7617 C   0  0  0  0  0  0  0  0  0  0  0  0
   -0.2508   -2.1306   12.6766 C   0  0  0  0  0  0  0  0  0  0  0  0
    0.6041   -3.0528   12.6496 O   0  0  0  0  0  0  0  0  0  0  0  0
   -0.2238   -1.1121   11.6854 N   0  0  0  0  0  0  0  0  0  0  0  0
    0.7804   -0.9997   10.6502 C   0  0  0  0  0  0  0  0  0  0  0  0
    1.3985    0.3512   10.7046 C   0  0  0  0  0  0  0  0  0  0  0  0
    1.5831    0.9789    9.3405 C   0  0  0  0  0  0  0  0  0  0  0  0
    0.2101    1.2578    8.7840 C   0  0  0  0  0  0  0  0  0  0  0  0
   -0.1392    2.5278    9.5575 C   0  0  0  0  0  0  0  0  0  0  0  0
    1.1946    3.2313    9.5618 C   0  0  0  0  0  0  0  0  0  0  0  0
    2.2024    2.3073    9.4252 C   0  0  0  0  0  0  0  0  0  0  0  0
    3.5508    2.6909    9.3924 C   0  0  0  0  0  0  0  0  0  0  0  0
    3.8937    4.0183    9.4980 C   0  0  0  0  0  0  0  0  0  0  0  0
    2.8733    4.9361    9.6349 C   0  0  0  0  0  0  0  0  0  0  0  0
    1.5471    4.5592    9.6672 C   0  0  0  0  0  0  0  0  0  0  0  0
    5.2977    4.1319    9.4369 O   0  0  0  0  0  0  0  0  0  0  0  0
    5.7706    2.9798    8.7197 C   0  0  0  0  0  0  0  0  0  0  0  0
    4.8197    1.9355    9.2601 C   0  0  0  0  0  0  0  0  0  0  0  0
  1  2  1  0
  2  3  1  0
  3  4  2  0
  3  5  1  0
  5  6  1  0
  6  7  1  0
  7  8  1  0
  8  9  1  0
  9 10  1  0
 10 11  1  0
 11 12  2  0
 12 13  1  0
 13 14  2  0
 14 15  1  0
 15 16  2  0
 14 17  1  0
 17 18  1  0
 18 19  1  0
 12  8  1  0
 16 11  1  0
 19 13  1  0
M  END
$$$$
