
     RDKit          3D

 19 21  0  0  0  0  0  0  0  0999 V2000
   -0.8399   -4.3158   10.2674 C   0  0  0  0  0  0  0  0  0  0  0  0
   -1.2621   -2.9176   10.6652 C   0  0  0  0  0  0  0  0  0  0  0  0
   -0.1230   -2.2529   11.3962 C   0  0  0  0  0  0  0  0  0  0  0  0
    0.9810   -2.8466   11.5007 O   0  0  0  0  0  0  0  0  0  0  0  0
   -0.2882   -0.9617   11.9671 N   0  0  0  0  0  0  0  0  0  0  0  0
    0.7971   -0.0634   12.2950 C   0  0  0  0  0  0  0  0  0  0  0  0
    1.1387    0.7563   11.1027 C   0  0  0  0  0  0  0  0  0  0  0  0
    2.4994    1.4110   11.1979 C   0  0  0  0  0  0  0  0  0  0  0  0
    3.5276    0.3638   10.8533 C   0  0  0  0  0  0  0  0  0  0  0  0
    3.4011    0.3555    9.3311 C   0  0  0  0  0  0  0  0  0  0  0  0
    3.2140    1.8262    9.0555 C   0  0  0  0  0  0  0  0  0  0  0  0
    2.6886    2.4392   10.1674 C   0  0  0  0  0  0  0  0  0  0  0  0
    2.4180    3.8150   10.1883 C   0  0  0  0  0  0  0  0  0  0  0  0
    2.6774    4.5866    9.0801 C   0  0  0  0  0  0  0  0  0  0  0  0
    3.2043    3.9596    7.9703 C   0  0  0  0  0  0  0  0  0  0  0  0
    3.4706    2.6067    7.9494 C   0  0  0  0  0  0  0  0  0  0  0  0
    2.3198    5.9212    9.3609 O   0  0  0  0  0  0  0  0  0  0  0  0
    2.3980    6.0742   10.7877 C   0  0  0  0  0  0  0  0  0  0  0  0
    1.8637    4.7265   11.2179 C   0  0  0  0  0  0  0  0  0  0  0  0
  1  2  1  0
  2  3  1  0
  3  4  2  0
  3  5  1  0
  5  6  1  0
  6  7  1  0
  7  8  1  0
  8  9  1  0
  9 10  1  0
 10 11  1  0
 11 12  2  0
 12 13  1  0
 13 14  2  0
 14 15  1  0
 15 16  2  0
 14 17  1  0
 17 18  1  0
 18 19  1  0
 12  8  1  0
 16 11  1  0
 19 13  1  0
M  END
$$$$
