
     RDKit          3D

 23 23  0  0  0  0  0  0  0  0999 V2000
   -1.2214    3.8486    9.4790 C   0  0  0  0  0  0  0  0  0  0  0  0
   -1.8978    2.8861   10.4352 C   0  0  0  0  0  0  0  0  0  0  0  0
   -1.5798    1.4843    9.9640 C   0  0  0  0  0  0  0  0  0  0  0  0
   -2.9112    0.7873    9.6752 C   0  0  0  0  0  0  0  0  0  0  0  0
   -2.7670   -0.6986    9.8453 C   0  0  0  0  0  0  0  0  0  0  0  0
   -1.4074   -0.9805   10.4477 C   0  0  0  0  0  0  0  0  0  0  0  0
   -1.3134   -2.4018   10.8716 C   0  0  0  0  0  0  0  0  0  0  0  0
   -0.3445   -3.2445   10.3525 C   0  0  0  0  0  0  0  0  0  0  0  0
   -0.2862   -4.5424   10.7626 C   0  0  0  0  0  0  0  0  0  0  0  0
   -1.2018   -5.0253   11.7057 C   0  0  0  0  0  0  0  0  0  0  0  0
   -2.1692   -4.2411   12.2443 C   0  0  0  0  0  0  0  0  0  0  0  0
   -2.1907   -2.9017   11.7885 C   0  0  0  0  0  0  0  0  0  0  0  0
   -3.1239   -4.6065   13.1789 N   0  0  0  0  0  0  0  0  0  0  0  0
   -3.2963   -5.8361   13.8650 C   0  0  0  0  0  0  0  0  0  0  0  0
   -2.3761   -6.6832   13.6983 O   0  0  0  0  0  0  0  0  0  0  0  0
   -4.4612   -6.1192   14.7139 C   0  0  1  0  0  0  0  0  0  0  0  0
   -4.4537   -5.7434   16.1326 C   0  0  0  0  0  0  0  0  0  0  0  0
   -5.5763   -6.0632   17.0238 C   0  0  0  0  0  0  0  0  0  0  0  0
   -5.1710   -7.0324   18.4667 P   0  0  1  0  0  5  0  0  0  0  0  0
   -4.5933   -8.3623   18.1208 O   0  0  0  0  0  0  0  0  0  0  0  0
   -3.9755   -6.1173   19.3288 O   0  0  0  0  0  0  0  0  0  0  0  0
   -6.5168   -7.2008   19.4724 O   0  0  0  0  0  1  0  0  0  0  0  0
   -5.6522   -5.4080   14.1115 N   0  0  0  0  0  4  0  0  0  0  0  0
  1  2  1  0
  2  3  1  0
  3  4  1  0
  4  5  1  0
  5  6  1  0
  6  7  1  0
  7  8  2  0
  8  9  1  0
  9 10  2  0
 10 11  1  0
 11 12  2  0
 11 13  1  0
 13 14  1  0
 14 15  2  0
 14 16  1  0
 16 17  1  0
 17 18  1  0
 18 19  1  0
 19 20  2  0
 19 21  1  1
 19 22  1  0
 16 23  1  6
 12  7  1  0
M  CHG  2  22  -1  23   1
M  END
$$$$
