
     RDKit          3D

 23 23  0  0  0  0  0  0  0  0999 V2000
   -2.8444    5.5703    7.9720 C   0  0  0  0  0  0  0  0  0  0  0  0
   -3.0189    4.2111    8.6201 C   0  0  0  0  0  0  0  0  0  0  0  0
   -1.6994    3.4813    8.4996 C   0  0  0  0  0  0  0  0  0  0  0  0
   -1.4789    2.7187    9.8079 C   0  0  0  0  0  0  0  0  0  0  0  0
   -2.3515    1.4960    9.8497 C   0  0  0  0  0  0  0  0  0  0  0  0
   -2.4389    1.0208   11.2840 C   0  0  0  0  0  0  0  0  0  0  0  0
   -2.1323   -0.4310   11.3680 C   0  0  0  0  0  0  0  0  0  0  0  0
   -1.0912   -0.9891   10.6448 C   0  0  0  0  0  0  0  0  0  0  0  0
   -0.8370   -2.3238   10.7447 C   0  0  0  0  0  0  0  0  0  0  0  0
   -1.6243   -3.1310   11.5751 C   0  0  0  0  0  0  0  0  0  0  0  0
   -2.6551   -2.6334   12.3038 C   0  0  0  0  0  0  0  0  0  0  0  0
   -2.8810   -1.2432   12.1680 C   0  0  0  0  0  0  0  0  0  0  0  0
   -3.4972   -3.3309   13.1538 N   0  0  0  0  0  0  0  0  0  0  0  0
   -3.3217   -4.6001   13.7629 C   0  0  0  0  0  0  0  0  0  0  0  0
   -2.1494   -5.0646   13.7188 O   0  0  0  0  0  0  0  0  0  0  0  0
   -4.4196   -5.3358   14.4039 C   0  0  1  0  0  0  0  0  0  0  0  0
   -4.6623   -5.1987   15.8448 C   0  0  0  0  0  0  0  0  0  0  0  0
   -3.6353   -5.5380   16.8382 C   0  0  0  0  0  0  0  0  0  0  0  0
   -4.1442   -5.4397   18.5461 P   0  0  1  0  0  5  0  0  0  0  0  0
   -4.6404   -4.0846   18.9199 O   0  0  0  0  0  0  0  0  0  0  0  0
   -5.4474   -6.5722   18.7159 O   0  0  0  0  0  0  0  0  0  0  0  0
   -2.8963   -5.9309   19.5721 O   0  0  0  0  0  1  0  0  0  0  0  0
   -5.7080   -4.9148   13.7329 N   0  0  0  0  0  4  0  0  0  0  0  0
  1  2  1  0
  2  3  1  0
  3  4  1  0
  4  5  1  0
  5  6  1  0
  6  7  1  0
  7  8  2  0
  8  9  1  0
  9 10  2  0
 10 11  1  0
 11 12  2  0
 11 13  1  0
 13 14  1  0
 14 15  2  0
 14 16  1  0
 16 17  1  0
 17 18  1  0
 18 19  1  0
 19 20  2  0
 19 21  1  6
 19 22  1  0
 16 23  1  6
 12  7  1  0
M  CHG  2  22  -1  23   1
M  END
$$$$
