
     RDKit          3D

 23 23  0  0  0  0  0  0  0  0999 V2000
   -2.7807    4.9063    7.2065 C   0  0  0  0  0  0  0  0  0  0  0  0
   -2.4354    3.5590    7.8096 C   0  0  0  0  0  0  0  0  0  0  0  0
   -1.0976    3.7038    8.5006 C   0  0  0  0  0  0  0  0  0  0  0  0
   -1.0966    2.7495    9.6969 C   0  0  0  0  0  0  0  0  0  0  0  0
   -0.9546    1.3290    9.2279 C   0  0  0  0  0  0  0  0  0  0  0  0
   -0.6841    0.4534   10.4325 C   0  0  0  0  0  0  0  0  0  0  0  0
   -1.9465   -0.1611   10.9198 C   0  0  0  0  0  0  0  0  0  0  0  0
   -3.1750    0.4307   10.6770 C   0  0  0  0  0  0  0  0  0  0  0  0
   -4.3132   -0.1591   11.1380 C   0  0  0  0  0  0  0  0  0  0  0  0
   -4.2441   -1.3598   11.8553 C   0  0  0  0  0  0  0  0  0  0  0  0
   -3.0662   -1.9794   12.1195 C   0  0  0  0  0  0  0  0  0  0  0  0
   -1.9119   -1.3303   11.6213 C   0  0  0  0  0  0  0  0  0  0  0  0
   -2.8762   -3.1622   12.8147 N   0  0  0  0  0  0  0  0  0  0  0  0
   -3.7415   -4.2770   12.9600 C   0  0  0  0  0  0  0  0  0  0  0  0
   -4.9038   -4.1251   12.4933 O   0  0  0  0  0  0  0  0  0  0  0  0
   -3.3276   -5.5287   13.6079 C   0  0  1  0  0  0  0  0  0  0  0  0
   -3.1720   -5.5928   15.0659 C   0  0  0  0  0  0  0  0  0  0  0  0
   -4.3079   -5.3921   15.9749 C   0  0  0  0  0  0  0  0  0  0  0  0
   -3.9548   -5.5855   17.7136 P   0  0  1  0  0  5  0  0  0  0  0  0
   -2.5120   -5.3876   18.0316 O   0  0  0  0  0  0  0  0  0  0  0  0
   -4.8731   -4.3548   18.5211 O   0  0  0  0  0  0  0  0  0  0  0  0
   -4.4970   -7.0841   18.2718 O   0  0  0  0  0  1  0  0  0  0  0  0
   -4.3524   -6.5857   13.2617 N   0  0  0  0  0  4  0  0  0  0  0  0
  1  2  1  0
  2  3  1  0
  3  4  1  0
  4  5  1  0
  5  6  1  0
  6  7  1  0
  7  8  2  0
  8  9  1  0
  9 10  2  0
 10 11  1  0
 11 12  2  0
 11 13  1  0
 13 14  1  0
 14 15  2  0
 14 16  1  0
 16 17  1  0
 17 18  1  0
 18 19  1  0
 19 20  2  0
 19 21  1  1
 19 22  1  0
 16 23  1  1
 12  7  1  0
M  CHG  2  22  -1  23   1
M  END
$$$$
