
     RDKit          3D

 23 23  0  0  0  0  0  0  0  0999 V2000
   -1.4682    4.6826   10.3613 C   0  0  0  0  0  0  0  0  0  0  0  0
   -0.8717    3.6271    9.4513 C   0  0  0  0  0  0  0  0  0  0  0  0
   -1.6561    2.3516    9.6653 C   0  0  0  0  0  0  0  0  0  0  0  0
   -1.3172    1.4083    8.5090 C   0  0  0  0  0  0  0  0  0  0  0  0
   -1.1059    0.0121    9.0226 C   0  0  0  0  0  0  0  0  0  0  0  0
   -2.3173   -0.3848    9.8386 C   0  0  0  0  0  0  0  0  0  0  0  0
   -2.4953   -1.8602    9.8171 C   0  0  0  0  0  0  0  0  0  0  0  0
   -2.6882   -2.5440    8.6282 C   0  0  0  0  0  0  0  0  0  0  0  0
   -2.8480   -3.8969    8.6439 C   0  0  0  0  0  0  0  0  0  0  0  0
   -2.8178   -4.5961    9.8568 C   0  0  0  0  0  0  0  0  0  0  0  0
   -2.6320   -3.9734   11.0479 C   0  0  0  0  0  0  0  0  0  0  0  0
   -2.4707   -2.5692   10.9819 C   0  0  0  0  0  0  0  0  0  0  0  0
   -2.5840   -4.5572   12.3030 N   0  0  0  0  0  0  0  0  0  0  0  0
   -2.4810   -5.9256   12.6626 C   0  0  0  0  0  0  0  0  0  0  0  0
   -2.4430   -6.7379   11.6979 O   0  0  0  0  0  0  0  0  0  0  0  0
   -2.4228   -6.3814   14.0578 C   0  0  1  0  0  0  0  0  0  0  0  0
   -3.2262   -5.7153   15.0897 C   0  0  0  0  0  0  0  0  0  0  0  0
   -3.5662   -6.3797   16.3545 C   0  0  0  0  0  0  0  0  0  0  0  0
   -4.3969   -5.3657   17.5658 P   0  0  1  0  0  5  0  0  0  0  0  0
   -5.8202   -5.0991   17.2118 O   0  0  0  0  0  0  0  0  0  0  0  0
   -4.3551   -6.2695   19.0460 O   0  0  0  0  0  0  0  0  0  0  0  0
   -3.5559   -3.9234   17.8175 O   0  0  0  0  0  1  0  0  0  0  0  0
   -2.8483   -7.8324   14.0852 N   0  0  0  0  0  4  0  0  0  0  0  0
  1  2  1  0
  2  3  1  0
  3  4  1  0
  4  5  1  0
  5  6  1  0
  6  7  1  0
  7  8  2  0
  8  9  1  0
  9 10  2  0
 10 11  1  0
 11 12  2  0
 11 13  1  0
 13 14  1  0
 14 15  2  0
 14 16  1  0
 16 17  1  0
 17 18  1  0
 18 19  1  0
 19 20  2  0
 19 21  1  1
 19 22  1  0
 16 23  1  6
 12  7  1  0
M  CHG  2  22  -1  23   1
M  END
$$$$
