
     RDKit          3D

 23 23  0  0  0  0  0  0  0  0999 V2000
   -1.3307    4.8898    8.7393 C   0  0  0  0  0  0  0  0  0  0  0  0
   -0.7551    3.5080    8.9789 C   0  0  0  0  0  0  0  0  0  0  0  0
   -1.9197    2.5579    9.1501 C   0  0  0  0  0  0  0  0  0  0  0  0
   -1.3485    1.1388    9.1896 C   0  0  0  0  0  0  0  0  0  0  0  0
   -2.0337    0.3327   10.2566 C   0  0  0  0  0  0  0  0  0  0  0  0
   -2.9736   -0.6459    9.5859 C   0  0  0  0  0  0  0  0  0  0  0  0
   -2.5337   -2.0428    9.8392 C   0  0  0  0  0  0  0  0  0  0  0  0
   -1.8590   -2.7706    8.8731 C   0  0  0  0  0  0  0  0  0  0  0  0
   -1.4698   -4.0491    9.1379 C   0  0  0  0  0  0  0  0  0  0  0  0
   -1.7498   -4.6277   10.3820 C   0  0  0  0  0  0  0  0  0  0  0  0
   -2.4076   -3.9575   11.3615 C   0  0  0  0  0  0  0  0  0  0  0  0
   -2.7917   -2.6340   11.0410 C   0  0  0  0  0  0  0  0  0  0  0  0
   -2.7381   -4.4241   12.6230 N   0  0  0  0  0  0  0  0  0  0  0  0
   -3.8500   -4.1055   13.4444 C   0  0  0  0  0  0  0  0  0  0  0  0
   -4.2953   -2.9314   13.3218 O   0  0  0  0  0  0  0  0  0  0  0  0
   -4.4519   -5.0654   14.3793 C   0  0  1  0  0  0  0  0  0  0  0  0
   -3.7027   -5.5257   15.5544 C   0  0  0  0  0  0  0  0  0  0  0  0
   -4.1625   -5.2507   16.9217 C   0  0  0  0  0  0  0  0  0  0  0  0
   -3.8096   -6.5167   18.1292 P   0  0  1  0  0  5  0  0  0  0  0  0
   -2.3600   -6.8576   18.1962 O   0  0  0  0  0  0  0  0  0  0  0  0
   -4.2941   -5.8576   19.6591 O   0  0  0  0  0  0  0  0  0  0  0  0
   -4.7422   -7.8948   17.8421 O   0  0  0  0  0  1  0  0  0  0  0  0
   -5.7190   -4.4441   14.9230 N   0  0  0  0  0  4  0  0  0  0  0  0
  1  2  1  0
  2  3  1  0
  3  4  1  0
  4  5  1  0
  5  6  1  0
  6  7  1  0
  7  8  2  0
  8  9  1  0
  9 10  2  0
 10 11  1  0
 11 12  2  0
 11 13  1  0
 13 14  1  0
 14 15  2  0
 14 16  1  0
 16 17  1  0
 17 18  1  0
 18 19  1  0
 19 20  2  0
 19 21  1  1
 19 22  1  0
 16 23  1  1
 12  7  1  0
M  CHG  2  22  -1  23   1
M  END
$$$$
