
     RDKit          3D

 23 23  0  0  0  0  0  0  0  0999 V2000
    1.4320    3.4610   11.4792 C   0  0  0  0  0  0  0  0  0  0  0  0
    0.7615    2.1837   11.0132 C   0  0  0  0  0  0  0  0  0  0  0  0
    0.1125    2.4762    9.6785 C   0  0  0  0  0  0  0  0  0  0  0  0
   -1.3659    2.0998    9.7980 C   0  0  0  0  0  0  0  0  0  0  0  0
   -1.5897    0.7049    9.2862 C   0  0  0  0  0  0  0  0  0  0  0  0
   -2.1699   -0.1282   10.4089 C   0  0  0  0  0  0  0  0  0  0  0  0
   -2.3754   -1.5301    9.9604 C   0  0  0  0  0  0  0  0  0  0  0  0
   -2.1358   -1.9082    8.6496 C   0  0  0  0  0  0  0  0  0  0  0  0
   -2.3343   -3.2019    8.2715 C   0  0  0  0  0  0  0  0  0  0  0  0
   -2.7791   -4.1482    9.2030 C   0  0  0  0  0  0  0  0  0  0  0  0
   -3.0281   -3.8288   10.4981 C   0  0  0  0  0  0  0  0  0  0  0  0
   -2.8079   -2.4746   10.8441 C   0  0  0  0  0  0  0  0  0  0  0  0
   -3.4683   -4.6747   11.5026 N   0  0  0  0  0  0  0  0  0  0  0  0
   -4.0123   -4.3640   12.7754 C   0  0  0  0  0  0  0  0  0  0  0  0
   -3.9884   -3.1427   13.0913 O   0  0  0  0  0  0  0  0  0  0  0  0
   -4.5679   -5.3831   13.6756 C   0  0  1  0  0  0  0  0  0  0  0  0
   -3.7990   -5.8453   14.8371 C   0  0  0  0  0  0  0  0  0  0  0  0
   -3.7469   -5.0756   16.0867 C   0  0  0  0  0  0  0  0  0  0  0  0
   -3.5633   -6.0331   17.5817 P   0  0  1  0  0  5  0  0  0  0  0  0
   -4.4860   -5.5885   18.6647 O   0  0  0  0  0  0  0  0  0  0  0  0
   -3.9639   -7.6647   17.1489 O   0  0  0  0  0  0  0  0  0  0  0  0
   -1.9595   -6.0178   18.1095 O   0  0  0  0  0  1  0  0  0  0  0  0
   -5.8649   -4.8433   14.2356 N   0  0  0  0  0  4  0  0  0  0  0  0
  1  2  1  0
  2  3  1  0
  3  4  1  0
  4  5  1  0
  5  6  1  0
  6  7  1  0
  7  8  2  0
  8  9  1  0
  9 10  2  0
 10 11  1  0
 11 12  2  0
 11 13  1  0
 13 14  1  0
 14 15  2  0
 14 16  1  0
 16 17  1  0
 17 18  1  0
 18 19  1  0
 19 20  2  0
 19 21  1  6
 19 22  1  0
 16 23  1  1
 12  7  1  0
M  CHG  2  22  -1  23   1
M  END
$$$$
