
     RDKit          3D

 23 23  0  0  0  0  0  0  0  0999 V2000
   -0.7235    4.9555    7.8291 C   0  0  0  0  0  0  0  0  0  0  0  0
   -1.9171    4.0285    7.9488 C   0  0  0  0  0  0  0  0  0  0  0  0
   -1.5114    2.8855    8.8528 C   0  0  0  0  0  0  0  0  0  0  0  0
   -2.4447    1.7112    8.5501 C   0  0  0  0  0  0  0  0  0  0  0  0
   -1.6772    0.4195    8.5690 C   0  0  0  0  0  0  0  0  0  0  0  0
   -1.6994   -0.1283    9.9798 C   0  0  0  0  0  0  0  0  0  0  0  0
   -2.2145   -1.5223    9.9858 C   0  0  0  0  0  0  0  0  0  0  0  0
   -2.8345   -2.0647    8.8724 C   0  0  0  0  0  0  0  0  0  0  0  0
   -3.2954   -3.3461    8.9115 C   0  0  0  0  0  0  0  0  0  0  0  0
   -3.1441   -4.1145   10.0724 C   0  0  0  0  0  0  0  0  0  0  0  0
   -2.5445   -3.6301   11.1890 C   0  0  0  0  0  0  0  0  0  0  0  0
   -2.0821   -2.2957   11.1014 C   0  0  0  0  0  0  0  0  0  0  0  0
   -2.3398   -4.2930   12.3878 N   0  0  0  0  0  0  0  0  0  0  0  0
   -2.6300   -5.6357   12.7420 C   0  0  0  0  0  0  0  0  0  0  0  0
   -3.1141   -6.3469   11.8191 O   0  0  0  0  0  0  0  0  0  0  0  0
   -2.3901   -6.1754   14.0870 C   0  0  1  0  0  0  0  0  0  0  0  0
   -3.4078   -6.0345   15.1350 C   0  0  0  0  0  0  0  0  0  0  0  0
   -3.1121   -6.3218   16.5445 C   0  0  0  0  0  0  0  0  0  0  0  0
   -4.4359   -5.9992   17.6973 P   0  0  1  0  0  5  0  0  0  0  0  0
   -3.9395   -5.5647   19.0340 O   0  0  0  0  0  0  0  0  0  0  0  0
   -5.3608   -4.7058   17.0034 O   0  0  0  0  0  0  0  0  0  0  0  0
   -5.4498   -7.3424   17.8361 O   0  0  0  0  0  1  0  0  0  0  0  0
   -2.1517   -7.6625   13.9493 N   0  0  0  0  0  4  0  0  0  0  0  0
  1  2  1  0
  2  3  1  0
  3  4  1  0
  4  5  1  0
  5  6  1  0
  6  7  1  0
  7  8  2  0
  8  9  1  0
  9 10  2  0
 10 11  1  0
 11 12  2  0
 11 13  1  0
 13 14  1  0
 14 15  2  0
 14 16  1  0
 16 17  1  0
 17 18  1  0
 18 19  1  0
 19 20  2  0
 19 21  1  6
 19 22  1  0
 16 23  1  6
 12  7  1  0
M  CHG  2  22  -1  23   1
M  END
$$$$
