
     RDKit          3D

 23 23  0  0  0  0  0  0  0  0999 V2000
    0.4534    4.0395    7.0756 C   0  0  0  0  0  0  0  0  0  0  0  0
   -0.2564    3.9221    8.4099 C   0  0  0  0  0  0  0  0  0  0  0  0
   -1.5952    3.2667    8.1524 C   0  0  0  0  0  0  0  0  0  0  0  0
   -2.0511    2.6290    9.4667 C   0  0  0  0  0  0  0  0  0  0  0  0
   -1.9339    1.1332    9.3862 C   0  0  0  0  0  0  0  0  0  0  0  0
   -3.0006    0.5226   10.2696 C   0  0  0  0  0  0  0  0  0  0  0  0
   -2.8692   -0.9576   10.2922 C   0  0  0  0  0  0  0  0  0  0  0  0
   -2.7650   -1.6882    9.1202 C   0  0  0  0  0  0  0  0  0  0  0  0
   -2.6459   -3.0442    9.1764 C   0  0  0  0  0  0  0  0  0  0  0  0
   -2.6287   -3.6995   10.4138 C   0  0  0  0  0  0  0  0  0  0  0  0
   -2.7276   -3.0301   11.5899 C   0  0  0  0  0  0  0  0  0  0  0  0
   -2.8494   -1.6246   11.4817 C   0  0  0  0  0  0  0  0  0  0  0  0
   -2.7221   -3.5681   12.8662 N   0  0  0  0  0  0  0  0  0  0  0  0
   -2.7456   -4.9255   13.2776 C   0  0  0  0  0  0  0  0  0  0  0  0
   -2.7996   -5.7734   12.3448 O   0  0  0  0  0  0  0  0  0  0  0  0
   -2.7111   -5.3320   14.6887 C   0  0  1  0  0  0  0  0  0  0  0  0
   -3.9522   -5.4113   15.4681 C   0  0  0  0  0  0  0  0  0  0  0  0
   -4.2567   -6.5660   16.3229 C   0  0  0  0  0  0  0  0  0  0  0  0
   -4.7764   -6.1848   17.9872 P   0  0  1  0  0  5  0  0  0  0  0  0
   -5.0648   -4.7352   18.1804 O   0  0  0  0  0  0  0  0  0  0  0  0
   -6.2414   -7.0789   18.2403 O   0  0  0  0  0  0  0  0  0  0  0  0
   -3.6385   -6.7298   19.1095 O   0  0  0  0  0  1  0  0  0  0  0  0
   -2.1014   -6.7144   14.7538 N   0  0  0  0  0  4  0  0  0  0  0  0
  1  2  1  0
  2  3  1  0
  3  4  1  0
  4  5  1  0
  5  6  1  0
  6  7  1  0
  7  8  2  0
  8  9  1  0
  9 10  2  0
 10 11  1  0
 11 12  2  0
 11 13  1  0
 13 14  1  0
 14 15  2  0
 14 16  1  0
 16 17  1  0
 17 18  1  0
 18 19  1  0
 19 20  2  0
 19 21  1  1
 19 22  1  0
 16 23  1  6
 12  7  1  0
M  CHG  2  22  -1  23   1
M  END
$$$$
