
     RDKit          3D

 23 23  0  0  0  0  0  0  0  0999 V2000
   -1.9402    3.5948   12.4735 C   0  0  0  0  0  0  0  0  0  0  0  0
   -1.1922    2.5140   11.7182 C   0  0  0  0  0  0  0  0  0  0  0  0
   -1.6768    2.5472   10.2857 C   0  0  0  0  0  0  0  0  0  0  0  0
   -0.9113    1.4658    9.5201 C   0  0  0  0  0  0  0  0  0  0  0  0
   -1.8251    0.3208    9.1856 C   0  0  0  0  0  0  0  0  0  0  0  0
   -1.2903   -0.9276    9.8536 C   0  0  0  0  0  0  0  0  0  0  0  0
   -2.1212   -2.1052    9.4910 C   0  0  0  0  0  0  0  0  0  0  0  0
   -2.2351   -2.5279    8.1769 C   0  0  0  0  0  0  0  0  0  0  0  0
   -3.0052   -3.6114    7.8788 C   0  0  0  0  0  0  0  0  0  0  0  0
   -3.6805   -4.2973    8.8959 C   0  0  0  0  0  0  0  0  0  0  0  0
   -3.6018   -3.9239   10.1979 C   0  0  0  0  0  0  0  0  0  0  0  0
   -2.7910   -2.7940   10.4590 C   0  0  0  0  0  0  0  0  0  0  0  0
   -4.2214   -4.5220   11.2827 N   0  0  0  0  0  0  0  0  0  0  0  0
   -4.1856   -4.1672   12.6558 C   0  0  0  0  0  0  0  0  0  0  0  0
   -3.6338   -3.0628   12.9158 O   0  0  0  0  0  0  0  0  0  0  0  0
   -4.7473   -5.0172   13.7141 C   0  0  1  0  0  0  0  0  0  0  0  0
   -3.8656   -5.6563   14.6980 C   0  0  0  0  0  0  0  0  0  0  0  0
   -4.3949   -6.3112   15.9012 C   0  0  0  0  0  0  0  0  0  0  0  0
   -3.2981   -6.3540   17.3085 P   0  0  1  0  0  5  0  0  0  0  0  0
   -3.1971   -5.0360   17.9976 O   0  0  0  0  0  0  0  0  0  0  0  0
   -3.9889   -7.5025   18.4101 O   0  0  0  0  0  0  0  0  0  0  0  0
   -1.7718   -6.9211   16.8613 O   0  0  0  0  0  1  0  0  0  0  0  0
   -5.7099   -4.1729   14.5189 N   0  0  0  0  0  4  0  0  0  0  0  0
  1  2  1  0
  2  3  1  0
  3  4  1  0
  4  5  1  0
  5  6  1  0
  6  7  1  0
  7  8  2  0
  8  9  1  0
  9 10  2  0
 10 11  1  0
 11 12  2  0
 11 13  1  0
 13 14  1  0
 14 15  2  0
 14 16  1  0
 16 17  1  0
 17 18  1  0
 18 19  1  0
 19 20  2  0
 19 21  1  1
 19 22  1  0
 16 23  1  1
 12  7  1  0
M  CHG  2  22  -1  23   1
M  END
$$$$
