
     RDKit          3D

 23 23  0  0  0  0  0  0  0  0999 V2000
   -3.2655    6.1389    9.0489 C   0  0  0  0  0  0  0  0  0  0  0  0
   -3.8127    4.7795    8.6607 C   0  0  0  0  0  0  0  0  0  0  0  0
   -2.6422    3.8232    8.5988 C   0  0  0  0  0  0  0  0  0  0  0  0
   -3.2147    2.4061    8.5221 C   0  0  0  0  0  0  0  0  0  0  0  0
   -2.1520    1.3979    8.8568 C   0  0  0  0  0  0  0  0  0  0  0  0
   -2.4598    0.8143   10.2190 C   0  0  0  0  0  0  0  0  0  0  0  0
   -1.6747   -0.4281   10.4394 C   0  0  0  0  0  0  0  0  0  0  0  0
   -0.6225   -0.7712    9.6065 C   0  0  0  0  0  0  0  0  0  0  0  0
    0.0768   -1.9175    9.8367 C   0  0  0  0  0  0  0  0  0  0  0  0
   -0.2652   -2.7480   10.9111 C   0  0  0  0  0  0  0  0  0  0  0  0
   -1.2866   -2.4571   11.7555 C   0  0  0  0  0  0  0  0  0  0  0  0
   -1.9834   -1.2574   11.4773 C   0  0  0  0  0  0  0  0  0  0  0  0
   -1.7136   -3.1983   12.8449 N   0  0  0  0  0  0  0  0  0  0  0  0
   -2.9561   -3.1708   13.5289 C   0  0  0  0  0  0  0  0  0  0  0  0
   -3.8142   -2.3726   13.0615 O   0  0  0  0  0  0  0  0  0  0  0  0
   -3.2390   -4.0072   14.7028 C   0  0  1  0  0  0  0  0  0  0  0  0
   -4.1822   -5.1274   14.6053 C   0  0  0  0  0  0  0  0  0  0  0  0
   -4.2647   -6.1622   15.6440 C   0  0  0  0  0  0  0  0  0  0  0  0
   -5.8667   -6.3771   16.4009 P   0  0  1  0  0  5  0  0  0  0  0  0
   -5.7789   -6.6356   17.8664 O   0  0  0  0  0  0  0  0  0  0  0  0
   -6.7100   -4.8814   16.1527 O   0  0  0  0  0  0  0  0  0  0  0  0
   -6.7380   -7.5964   15.6229 O   0  0  0  0  0  1  0  0  0  0  0  0
   -1.9317   -4.6154   15.1592 N   0  0  0  0  0  4  0  0  0  0  0  0
  1  2  1  0
  2  3  1  0
  3  4  1  0
  4  5  1  0
  5  6  1  0
  6  7  1  0
  7  8  2  0
  8  9  1  0
  9 10  2  0
 10 11  1  0
 11 12  2  0
 11 13  1  0
 13 14  1  0
 14 15  2  0
 14 16  1  0
 16 17  1  0
 17 18  1  0
 18 19  1  0
 19 20  2  0
 19 21  1  1
 19 22  1  0
 16 23  1  6
 12  7  1  0
M  CHG  2  22  -1  23   1
M  END
$$$$
