
     RDKit          3D

 23 23  0  0  0  0  0  0  0  0999 V2000
   -1.6692    4.8422    9.8599 C   0  0  0  0  0  0  0  0  0  0  0  0
   -1.1778    3.4961   10.3545 C   0  0  0  0  0  0  0  0  0  0  0  0
   -1.1332    2.5664    9.1621 C   0  0  0  0  0  0  0  0  0  0  0  0
   -0.6554    1.2024    9.6649 C   0  0  0  0  0  0  0  0  0  0  0  0
   -1.3546    0.1004    8.9203 C   0  0  0  0  0  0  0  0  0  0  0  0
   -0.5536   -1.1727    9.0891 C   0  0  0  0  0  0  0  0  0  0  0  0
   -1.4611   -2.3441    9.2028 C   0  0  0  0  0  0  0  0  0  0  0  0
   -2.1812   -2.8046    8.1129 C   0  0  0  0  0  0  0  0  0  0  0  0
   -3.0044   -3.8812    8.2516 C   0  0  0  0  0  0  0  0  0  0  0  0
   -3.1239   -4.5220    9.4910 C   0  0  0  0  0  0  0  0  0  0  0  0
   -2.4407   -4.1103   10.5886 C   0  0  0  0  0  0  0  0  0  0  0  0
   -1.5988   -2.9894   10.3965 C   0  0  0  0  0  0  0  0  0  0  0  0
   -2.4789   -4.6624   11.8583 N   0  0  0  0  0  0  0  0  0  0  0  0
   -3.1582   -5.8173   12.3243 C   0  0  0  0  0  0  0  0  0  0  0  0
   -4.0794   -6.2434   11.5747 O   0  0  0  0  0  0  0  0  0  0  0  0
   -2.8244   -6.4823   13.5909 C   0  0  1  0  0  0  0  0  0  0  0  0
   -2.9590   -5.7638   14.8636 C   0  0  0  0  0  0  0  0  0  0  0  0
   -4.2689   -5.5268   15.4837 C   0  0  0  0  0  0  0  0  0  0  0  0
   -4.2357   -4.9299   17.1653 P   0  0  1  0  0  5  0  0  0  0  0  0
   -3.8336   -3.4974   17.2578 O   0  0  0  0  0  0  0  0  0  0  0  0
   -5.8600   -5.0876   17.7540 O   0  0  0  0  0  0  0  0  0  0  0  0
   -3.2419   -5.9001   18.1257 O   0  0  0  0  0  1  0  0  0  0  0  0
   -3.7103   -7.7015   13.7169 N   0  0  0  0  0  4  0  0  0  0  0  0
  1  2  1  0
  2  3  1  0
  3  4  1  0
  4  5  1  0
  5  6  1  0
  6  7  1  0
  7  8  2  0
  8  9  1  0
  9 10  2  0
 10 11  1  0
 11 12  2  0
 11 13  1  0
 13 14  1  0
 14 15  2  0
 14 16  1  0
 16 17  1  0
 17 18  1  0
 18 19  1  0
 19 20  2  0
 19 21  1  1
 19 22  1  0
 16 23  1  1
 12  7  1  0
M  CHG  2  22  -1  23   1
M  END
$$$$
