
     RDKit          3D

 23 23  0  0  0  0  0  0  0  0999 V2000
   -1.8498    5.0117    7.1235 C   0  0  0  0  0  0  0  0  0  0  0  0
   -2.5558    4.1354    8.1393 C   0  0  0  0  0  0  0  0  0  0  0  0
   -1.9471    2.7539    8.0436 C   0  0  0  0  0  0  0  0  0  0  0  0
   -1.7017    2.2637    9.4723 C   0  0  0  0  0  0  0  0  0  0  0  0
   -1.7204    0.7619    9.5164 C   0  0  0  0  0  0  0  0  0  0  0  0
   -2.6069    0.3290   10.6643 C   0  0  0  0  0  0  0  0  0  0  0  0
   -2.3789   -1.1048   10.9823 C   0  0  0  0  0  0  0  0  0  0  0  0
   -1.9040   -1.9869   10.0258 C   0  0  0  0  0  0  0  0  0  0  0  0
   -1.7060   -3.2951   10.3506 C   0  0  0  0  0  0  0  0  0  0  0  0
   -1.9811   -3.7489   11.6465 C   0  0  0  0  0  0  0  0  0  0  0  0
   -2.4475   -2.9257   12.6191 C   0  0  0  0  0  0  0  0  0  0  0  0
   -2.6374   -1.5770   12.2354 C   0  0  0  0  0  0  0  0  0  0  0  0
   -2.7529   -3.2599   13.9280 N   0  0  0  0  0  0  0  0  0  0  0  0
   -2.5427   -4.4774   14.6251 C   0  0  0  0  0  0  0  0  0  0  0  0
   -2.2067   -5.4606   13.9092 O   0  0  0  0  0  0  0  0  0  0  0  0
   -2.7023   -4.6012   16.0801 C   0  0  1  0  0  0  0  0  0  0  0  0
   -4.0415   -4.6839   16.6748 C   0  0  0  0  0  0  0  0  0  0  0  0
   -4.8240   -5.9264   16.6496 C   0  0  0  0  0  0  0  0  0  0  0  0
   -6.2142   -5.9917   17.7670 P   0  0  1  0  0  5  0  0  0  0  0  0
   -7.3533   -5.1426   17.3158 O   0  0  0  0  0  0  0  0  0  0  0  0
   -6.7304   -7.6479   17.7814 O   0  0  0  0  0  0  0  0  0  0  0  0
   -5.7410   -5.5847   19.3360 O   0  0  0  0  0  1  0  0  0  0  0  0
   -1.9859   -5.8600   16.5153 N   0  0  0  0  0  4  0  0  0  0  0  0
  1  2  1  0
  2  3  1  0
  3  4  1  0
  4  5  1  0
  5  6  1  0
  6  7  1  0
  7  8  2  0
  8  9  1  0
  9 10  2  0
 10 11  1  0
 11 12  2  0
 11 13  1  0
 13 14  1  0
 14 15  2  0
 14 16  1  0
 16 17  1  0
 17 18  1  0
 18 19  1  0
 19 20  2  0
 19 21  1  1
 19 22  1  0
 16 23  1  6
 12  7  1  0
M  CHG  2  22  -1  23   1
M  END
$$$$
