
     RDKit          3D

 23 23  0  0  0  0  0  0  0  0999 V2000
   -0.0318    4.9666    8.5778 C   0  0  0  0  0  0  0  0  0  0  0  0
   -0.9012    4.1719    9.5321 C   0  0  0  0  0  0  0  0  0  0  0  0
   -0.5782    2.7088    9.3244 C   0  0  0  0  0  0  0  0  0  0  0  0
   -1.8464    1.9126    9.6393 C   0  0  0  0  0  0  0  0  0  0  0  0
   -1.8628    0.6307    8.8555 C   0  0  0  0  0  0  0  0  0  0  0  0
   -1.0979   -0.4162    9.6365 C   0  0  0  0  0  0  0  0  0  0  0  0
   -1.9122   -1.6508    9.7826 C   0  0  0  0  0  0  0  0  0  0  0  0
   -2.7244   -2.1022    8.7555 C   0  0  0  0  0  0  0  0  0  0  0  0
   -3.4581   -3.2380    8.9223 C   0  0  0  0  0  0  0  0  0  0  0  0
   -3.3930   -3.9485   10.1273 C   0  0  0  0  0  0  0  0  0  0  0  0
   -2.6133   -3.5485   11.1633 C   0  0  0  0  0  0  0  0  0  0  0  0
   -1.8701   -2.3646   10.9440 C   0  0  0  0  0  0  0  0  0  0  0  0
   -2.4695   -4.1666   12.3944 N   0  0  0  0  0  0  0  0  0  0  0  0
   -3.2200   -5.2234   12.9711 C   0  0  0  0  0  0  0  0  0  0  0  0
   -4.1709   -5.6601   12.2660 O   0  0  0  0  0  0  0  0  0  0  0  0
   -2.9234   -5.7810   14.2973 C   0  0  1  0  0  0  0  0  0  0  0  0
   -3.5510   -5.2148   15.4971 C   0  0  0  0  0  0  0  0  0  0  0  0
   -4.2979   -6.0495   16.4468 C   0  0  0  0  0  0  0  0  0  0  0  0
   -4.5211   -5.3603   18.0780 P   0  0  1  0  0  5  0  0  0  0  0  0
   -5.3334   -4.1105   18.0666 O   0  0  0  0  0  0  0  0  0  0  0  0
   -5.3747   -6.5666   18.9869 O   0  0  0  0  0  0  0  0  0  0  0  0
   -3.0307   -5.1060   18.8298 O   0  0  0  0  0  1  0  0  0  0  0  0
   -3.3203   -7.2403   14.2812 N   0  0  0  0  0  4  0  0  0  0  0  0
  1  2  1  0
  2  3  1  0
  3  4  1  0
  4  5  1  0
  5  6  1  0
  6  7  1  0
  7  8  2  0
  8  9  1  0
  9 10  2  0
 10 11  1  0
 11 12  2  0
 11 13  1  0
 13 14  1  0
 14 15  2  0
 14 16  1  0
 16 17  1  0
 17 18  1  0
 18 19  1  0
 19 20  2  0
 19 21  1  1
 19 22  1  0
 16 23  1  6
 12  7  1  0
M  CHG  2  22  -1  23   1
M  END
$$$$
