
     RDKit          3D

 23 23  0  0  0  0  0  0  0  0999 V2000
   -1.3682    4.4338    6.9373 C   0  0  0  0  0  0  0  0  0  0  0  0
   -1.9796    3.9890    8.2513 C   0  0  0  0  0  0  0  0  0  0  0  0
   -1.2031    2.7797    8.7234 C   0  0  0  0  0  0  0  0  0  0  0  0
   -2.1626    1.5877    8.7095 C   0  0  0  0  0  0  0  0  0  0  0  0
   -2.1460    0.8921   10.0413 C   0  0  0  0  0  0  0  0  0  0  0  0
   -1.3056   -0.3603    9.9152 C   0  0  0  0  0  0  0  0  0  0  0  0
   -2.1429   -1.5694   10.1295 C   0  0  0  0  0  0  0  0  0  0  0  0
   -3.1547   -1.9091    9.2467 C   0  0  0  0  0  0  0  0  0  0  0  0
   -3.9038   -3.0244    9.4726 C   0  0  0  0  0  0  0  0  0  0  0  0
   -3.6536   -3.8263   10.5931 C   0  0  0  0  0  0  0  0  0  0  0  0
   -2.6749   -3.5373   11.4873 C   0  0  0  0  0  0  0  0  0  0  0  0
   -1.9237   -2.3704   11.2114 C   0  0  0  0  0  0  0  0  0  0  0  0
   -2.3379   -4.2523   12.6247 N   0  0  0  0  0  0  0  0  0  0  0  0
   -3.0363   -5.3014   13.2758 C   0  0  0  0  0  0  0  0  0  0  0  0
   -4.1436   -5.6170   12.7597 O   0  0  0  0  0  0  0  0  0  0  0  0
   -2.5195   -5.9826   14.4702 C   0  0  1  0  0  0  0  0  0  0  0  0
   -3.1161   -5.7264   15.7864 C   0  0  0  0  0  0  0  0  0  0  0  0
   -3.7451   -6.7958   16.5723 C   0  0  0  0  0  0  0  0  0  0  0  0
   -4.4673   -6.2958   18.1260 P   0  0  1  0  0  5  0  0  0  0  0  0
   -5.2615   -7.3830   18.7658 O   0  0  0  0  0  0  0  0  0  0  0  0
   -3.1324   -5.9028   19.1619 O   0  0  0  0  0  0  0  0  0  0  0  0
   -5.3986   -4.9006   17.9321 O   0  0  0  0  0  1  0  0  0  0  0  0
   -2.6564   -7.4718   14.2449 N   0  0  0  0  0  4  0  0  0  0  0  0
  1  2  1  0
  2  3  1  0
  3  4  1  0
  4  5  1  0
  5  6  1  0
  6  7  1  0
  7  8  2  0
  8  9  1  0
  9 10  2  0
 10 11  1  0
 11 12  2  0
 11 13  1  0
 13 14  1  0
 14 15  2  0
 14 16  1  0
 16 17  1  0
 17 18  1  0
 18 19  1  0
 19 20  2  0
 19 21  1  1
 19 22  1  0
 16 23  1  6
 12  7  1  0
M  CHG  2  22  -1  23   1
M  END
$$$$
