
     RDKit          3D

 23 23  0  0  0  0  0  0  0  0999 V2000
   -1.9856    4.7990    7.9242 C   0  0  0  0  0  0  0  0  0  0  0  0
   -2.3251    3.3458    8.1909 C   0  0  0  0  0  0  0  0  0  0  0  0
   -1.4991    2.9001    9.3772 C   0  0  0  0  0  0  0  0  0  0  0  0
   -0.7602    1.6250    8.9651 C   0  0  0  0  0  0  0  0  0  0  0  0
   -1.6168    0.4194    9.2312 C   0  0  0  0  0  0  0  0  0  0  0  0
   -1.0641   -0.7438    8.4359 C   0  0  0  0  0  0  0  0  0  0  0  0
   -1.8082   -1.9898    8.7561 C   0  0  0  0  0  0  0  0  0  0  0  0
   -2.4954   -2.6887    7.7774 C   0  0  0  0  0  0  0  0  0  0  0  0
   -3.1674   -3.8276    8.1049 C   0  0  0  0  0  0  0  0  0  0  0  0
   -3.1650   -4.2923    9.4259 C   0  0  0  0  0  0  0  0  0  0  0  0
   -2.5078   -3.6448   10.4208 C   0  0  0  0  0  0  0  0  0  0  0  0
   -1.8247   -2.4677   10.0334 C   0  0  0  0  0  0  0  0  0  0  0  0
   -2.4354   -4.0078   11.7554 N   0  0  0  0  0  0  0  0  0  0  0  0
   -2.9638   -5.1475   12.4145 C   0  0  0  0  0  0  0  0  0  0  0  0
   -3.6056   -5.9486   11.6808 O   0  0  0  0  0  0  0  0  0  0  0  0
   -2.7853   -5.3917   13.8520 C   0  0  1  0  0  0  0  0  0  0  0  0
   -3.7904   -4.9245   14.8140 C   0  0  0  0  0  0  0  0  0  0  0  0
   -3.4139   -4.3980   16.1322 C   0  0  0  0  0  0  0  0  0  0  0  0
   -4.3100   -5.0698   17.5218 P   0  0  1  0  0  5  0  0  0  0  0  0
   -3.7556   -6.3733   17.9861 O   0  0  0  0  0  0  0  0  0  0  0  0
   -4.1381   -3.9090   18.7996 O   0  0  0  0  0  0  0  0  0  0  0  0
   -5.9549   -5.2050   17.1649 O   0  0  0  0  0  1  0  0  0  0  0  0
   -2.6922   -6.8875   14.0557 N   0  0  0  0  0  4  0  0  0  0  0  0
  1  2  1  0
  2  3  1  0
  3  4  1  0
  4  5  1  0
  5  6  1  0
  6  7  1  0
  7  8  2  0
  8  9  1  0
  9 10  2  0
 10 11  1  0
 11 12  2  0
 11 13  1  0
 13 14  1  0
 14 15  2  0
 14 16  1  0
 16 17  1  0
 17 18  1  0
 18 19  1  0
 19 20  2  0
 19 21  1  1
 19 22  1  0
 16 23  1  6
 12  7  1  0
M  CHG  2  22  -1  23   1
M  END
$$$$
