
     RDKit          3D

 23 23  0  0  0  0  0  0  0  0999 V2000
    0.3476    3.8263   11.4177 C   0  0  0  0  0  0  0  0  0  0  0  0
   -0.2770    3.8034   10.0366 C   0  0  0  0  0  0  0  0  0  0  0  0
    0.0386    2.4582    9.4211 C   0  0  0  0  0  0  0  0  0  0  0  0
   -1.2849    1.8487    8.9537 C   0  0  0  0  0  0  0  0  0  0  0  0
   -1.2934    0.3679    9.2087 C   0  0  0  0  0  0  0  0  0  0  0  0
   -2.7033   -0.1435    9.0048 C   0  0  0  0  0  0  0  0  0  0  0  0
   -2.7654   -1.6063    9.2597 C   0  0  0  0  0  0  0  0  0  0  0  0
   -2.9256   -2.5108    8.2230 C   0  0  0  0  0  0  0  0  0  0  0  0
   -2.9786   -3.8454    8.4914 C   0  0  0  0  0  0  0  0  0  0  0  0
   -2.8718   -4.3038    9.8102 C   0  0  0  0  0  0  0  0  0  0  0  0
   -2.7139   -3.4594   10.8605 C   0  0  0  0  0  0  0  0  0  0  0  0
   -2.6644   -2.0837   10.5333 C   0  0  0  0  0  0  0  0  0  0  0  0
   -2.5976   -3.7957   12.1991 N   0  0  0  0  0  0  0  0  0  0  0  0
   -2.9217   -5.0082   12.8604 C   0  0  0  0  0  0  0  0  0  0  0  0
   -3.3875   -5.9198   12.1228 O   0  0  0  0  0  0  0  0  0  0  0  0
   -2.7345   -5.2040   14.3041 C   0  0  1  0  0  0  0  0  0  0  0  0
   -3.8436   -4.9640   15.2350 C   0  0  0  0  0  0  0  0  0  0  0  0
   -4.3230   -6.0057   16.1525 C   0  0  0  0  0  0  0  0  0  0  0  0
   -4.6746   -5.4713   17.8187 P   0  0  1  0  0  5  0  0  0  0  0  0
   -5.2362   -4.0916   17.8723 O   0  0  0  0  0  0  0  0  0  0  0  0
   -5.8648   -6.5771   18.4273 O   0  0  0  0  0  0  0  0  0  0  0  0
   -3.3013   -5.6034   18.7923 O   0  0  0  0  0  1  0  0  0  0  0  0
   -2.3244   -6.6431   14.5231 N   0  0  0  0  0  4  0  0  0  0  0  0
  1  2  1  0
  2  3  1  0
  3  4  1  0
  4  5  1  0
  5  6  1  0
  6  7  1  0
  7  8  2  0
  8  9  1  0
  9 10  2  0
 10 11  1  0
 11 12  2  0
 11 13  1  0
 13 14  1  0
 14 15  2  0
 14 16  1  0
 16 17  1  0
 17 18  1  0
 18 19  1  0
 19 20  2  0
 19 21  1  1
 19 22  1  0
 16 23  1  6
 12  7  1  0
M  CHG  2  22  -1  23   1
M  END
$$$$
