
     RDKit          3D

 23 23  0  0  0  0  0  0  0  0999 V2000
   -0.6593    4.1636   11.2563 C   0  0  0  0  0  0  0  0  0  0  0  0
   -0.7987    3.2434   10.0597 C   0  0  0  0  0  0  0  0  0  0  0  0
   -0.9010    1.8295   10.5876 C   0  0  0  0  0  0  0  0  0  0  0  0
   -2.2285    1.2524   10.0912 C   0  0  0  0  0  0  0  0  0  0  0  0
   -2.0059   -0.0919    9.4578 C   0  0  0  0  0  0  0  0  0  0  0  0
   -3.3550   -0.7299    9.2053 C   0  0  0  0  0  0  0  0  0  0  0  0
   -3.2280   -2.2101    9.1639 C   0  0  0  0  0  0  0  0  0  0  0  0
   -3.0855   -2.8863    7.9635 C   0  0  0  0  0  0  0  0  0  0  0  0
   -2.9716   -4.2439    7.9609 C   0  0  0  0  0  0  0  0  0  0  0  0
   -2.9983   -4.9557    9.1666 C   0  0  0  0  0  0  0  0  0  0  0  0
   -3.1357   -4.3408   10.3684 C   0  0  0  0  0  0  0  0  0  0  0  0
   -3.2504   -2.9313   10.3212 C   0  0  0  0  0  0  0  0  0  0  0  0
   -3.1751   -4.9372   11.6179 N   0  0  0  0  0  0  0  0  0  0  0  0
   -3.8000   -4.4968   12.8129 C   0  0  0  0  0  0  0  0  0  0  0  0
   -4.1578   -3.2869   12.8230 O   0  0  0  0  0  0  0  0  0  0  0  0
   -4.0214   -5.3766   13.9681 C   0  0  1  0  0  0  0  0  0  0  0  0
   -3.4807   -5.0212   15.2854 C   0  0  0  0  0  0  0  0  0  0  0  0
   -4.3420   -4.5283   16.3680 C   0  0  0  0  0  0  0  0  0  0  0  0
   -3.8662   -5.0098   18.0194 P   0  0  1  0  0  5  0  0  0  0  0  0
   -4.8064   -4.5017   19.0586 O   0  0  0  0  0  0  0  0  0  0  0  0
   -3.9086   -6.7441   18.0356 O   0  0  0  0  0  0  0  0  0  0  0  0
   -2.2818   -4.5290   18.3504 O   0  0  0  0  0  1  0  0  0  0  0  0
   -5.5150   -5.5099   14.1644 N   0  0  0  0  0  4  0  0  0  0  0  0
  1  2  1  0
  2  3  1  0
  3  4  1  0
  4  5  1  0
  5  6  1  0
  6  7  1  0
  7  8  2  0
  8  9  1  0
  9 10  2  0
 10 11  1  0
 11 12  2  0
 11 13  1  0
 13 14  1  0
 14 15  2  0
 14 16  1  0
 16 17  1  0
 17 18  1  0
 18 19  1  0
 19 20  2  0
 19 21  1  6
 19 22  1  0
 16 23  1  1
 12  7  1  0
M  CHG  2  22  -1  23   1
M  END
$$$$
