
     RDKit          3D

 23 23  0  0  0  0  0  0  0  0999 V2000
   -0.0304    4.4268   10.6743 C   0  0  0  0  0  0  0  0  0  0  0  0
   -1.2216    3.5489   10.3451 C   0  0  0  0  0  0  0  0  0  0  0  0
   -0.7101    2.1335   10.1922 C   0  0  0  0  0  0  0  0  0  0  0  0
   -1.6656    1.4030    9.2461 C   0  0  0  0  0  0  0  0  0  0  0  0
   -2.1815    0.1497    9.8948 C   0  0  0  0  0  0  0  0  0  0  0  0
   -1.2855   -1.0010    9.4899 C   0  0  0  0  0  0  0  0  0  0  0  0
   -1.9923   -2.2958    9.6706 C   0  0  0  0  0  0  0  0  0  0  0  0
   -2.8435   -2.7925    8.6974 C   0  0  0  0  0  0  0  0  0  0  0  0
   -3.4758   -3.9829    8.8948 C   0  0  0  0  0  0  0  0  0  0  0  0
   -3.2676   -4.7040   10.0771 C   0  0  0  0  0  0  0  0  0  0  0  0
   -2.4443   -4.2613   11.0606 C   0  0  0  0  0  0  0  0  0  0  0  0
   -1.8100   -3.0213   10.8111 C   0  0  0  0  0  0  0  0  0  0  0  0
   -2.1628   -4.8846   12.2650 N   0  0  0  0  0  0  0  0  0  0  0  0
   -2.6923   -6.0821   12.8112 C   0  0  0  0  0  0  0  0  0  0  0  0
   -3.5792   -6.6490   12.1156 O   0  0  0  0  0  0  0  0  0  0  0  0
   -2.2493   -6.6360   14.0975 C   0  0  1  0  0  0  0  0  0  0  0  0
   -3.1652   -6.6731   15.2437 C   0  0  0  0  0  0  0  0  0  0  0  0
   -3.6606   -5.4449   15.8785 C   0  0  0  0  0  0  0  0  0  0  0  0
   -4.7231   -5.6762   17.2938 P   0  0  1  0  0  5  0  0  0  0  0  0
   -4.1052   -6.5396   18.3401 O   0  0  0  0  0  0  0  0  0  0  0  0
   -4.9732   -4.0937   17.9594 O   0  0  0  0  0  0  0  0  0  0  0  0
   -6.2270   -6.2811   16.8212 O   0  0  0  0  0  1  0  0  0  0  0  0
   -1.8356   -8.0714   13.8614 N   0  0  0  0  0  4  0  0  0  0  0  0
  1  2  1  0
  2  3  1  0
  3  4  1  0
  4  5  1  0
  5  6  1  0
  6  7  1  0
  7  8  2  0
  8  9  1  0
  9 10  2  0
 10 11  1  0
 11 12  2  0
 11 13  1  0
 13 14  1  0
 14 15  2  0
 14 16  1  0
 16 17  1  0
 17 18  1  0
 18 19  1  0
 19 20  2  0
 19 21  1  1
 19 22  1  0
 16 23  1  6
 12  7  1  0
M  CHG  2  22  -1  23   1
M  END
$$$$
