
     RDKit          3D

 23 23  0  0  0  0  0  0  0  0999 V2000
   -1.1741    3.4448    8.9890 C   0  0  0  0  0  0  0  0  0  0  0  0
   -0.6533    2.1080    8.4994 C   0  0  0  0  0  0  0  0  0  0  0  0
   -1.5956    1.0416    9.0125 C   0  0  0  0  0  0  0  0  0  0  0  0
   -1.3375   -0.2264    8.1957 C   0  0  0  0  0  0  0  0  0  0  0  0
   -1.4007   -1.4374    9.0829 C   0  0  0  0  0  0  0  0  0  0  0  0
   -2.7630   -2.0769    8.9215 C   0  0  0  0  0  0  0  0  0  0  0  0
   -2.8430   -3.3318    9.7136 C   0  0  0  0  0  0  0  0  0  0  0  0
   -2.4905   -4.5532    9.1636 C   0  0  0  0  0  0  0  0  0  0  0  0
   -2.5755   -5.6847    9.9175 C   0  0  0  0  0  0  0  0  0  0  0  0
   -3.0176   -5.6159   11.2444 C   0  0  0  0  0  0  0  0  0  0  0  0
   -3.3745   -4.4450   11.8297 C   0  0  0  0  0  0  0  0  0  0  0  0
   -3.2698   -3.2975   11.0085 C   0  0  0  0  0  0  0  0  0  0  0  0
   -3.8237   -4.2560   13.1262 N   0  0  0  0  0  0  0  0  0  0  0  0
   -4.1720   -5.2136   14.1132 C   0  0  0  0  0  0  0  0  0  0  0  0
   -3.9949   -6.4190   13.7849 O   0  0  0  0  0  0  0  0  0  0  0  0
   -4.7044   -4.8431   15.4312 C   0  0  1  0  0  0  0  0  0  0  0  0
   -5.1297   -5.8810   16.3777 C   0  0  0  0  0  0  0  0  0  0  0  0
   -4.1677   -6.7927   17.0101 C   0  0  0  0  0  0  0  0  0  0  0  0
   -4.8648   -8.0270   18.0946 P   0  0  1  0  0  5  0  0  0  0  0  0
   -3.9067   -8.4746   19.1452 O   0  0  0  0  0  0  0  0  0  0  0  0
   -6.2179   -7.2651   18.8683 O   0  0  0  0  0  0  0  0  0  0  0  0
   -5.4488   -9.3410   17.2094 O   0  0  0  0  0  1  0  0  0  0  0  0
   -3.6370   -4.0495   16.1510 N   0  0  0  0  0  4  0  0  0  0  0  0
  1  2  1  0
  2  3  1  0
  3  4  1  0
  4  5  1  0
  5  6  1  0
  6  7  1  0
  7  8  2  0
  8  9  1  0
  9 10  2  0
 10 11  1  0
 11 12  2  0
 11 13  1  0
 13 14  1  0
 14 15  2  0
 14 16  1  0
 16 17  1  0
 17 18  1  0
 18 19  1  0
 19 20  2  0
 19 21  1  1
 19 22  1  0
 16 23  1  1
 12  7  1  0
M  CHG  2  22  -1  23   1
M  END
$$$$
