
     RDKit          3D

 23 23  0  0  0  0  0  0  0  0999 V2000
   -0.6422    4.7955    8.0646 C   0  0  0  0  0  0  0  0  0  0  0  0
   -1.7717    3.9620    8.6372 C   0  0  0  0  0  0  0  0  0  0  0  0
   -1.4250    2.5089    8.3996 C   0  0  0  0  0  0  0  0  0  0  0  0
   -2.5836    1.6691    8.9420 C   0  0  0  0  0  0  0  0  0  0  0  0
   -2.0585    0.4304    9.6109 C   0  0  0  0  0  0  0  0  0  0  0  0
   -3.2363   -0.3771   10.1125 C   0  0  0  0  0  0  0  0  0  0  0  0
   -2.9544   -1.8316    9.9953 C   0  0  0  0  0  0  0  0  0  0  0  0
   -2.9377   -2.4639    8.7631 C   0  0  0  0  0  0  0  0  0  0  0  0
   -2.6757   -3.7989    8.6911 C   0  0  0  0  0  0  0  0  0  0  0  0
   -2.4238   -4.5317    9.8575 C   0  0  0  0  0  0  0  0  0  0  0  0
   -2.4285   -3.9598   11.0880 C   0  0  0  0  0  0  0  0  0  0  0  0
   -2.7052   -2.5724   11.1131 C   0  0  0  0  0  0  0  0  0  0  0  0
   -2.1947   -4.5802   12.3040 N   0  0  0  0  0  0  0  0  0  0  0  0
   -2.8461   -4.4031   13.5518 C   0  0  0  0  0  0  0  0  0  0  0  0
   -3.6940   -3.4696   13.5926 O   0  0  0  0  0  0  0  0  0  0  0  0
   -2.5630   -5.2403   14.7251 C   0  0  1  0  0  0  0  0  0  0  0  0
   -3.6627   -5.7886   15.5276 C   0  0  0  0  0  0  0  0  0  0  0  0
   -3.4257   -6.4413   16.8216 C   0  0  0  0  0  0  0  0  0  0  0  0
   -4.8860   -6.8774   17.7506 P   0  0  1  0  0  5  0  0  0  0  0  0
   -5.7555   -7.8501   17.0296 O   0  0  0  0  0  0  0  0  0  0  0  0
   -4.3124   -7.6229   19.2083 O   0  0  0  0  0  0  0  0  0  0  0  0
   -5.7545   -5.4959   18.1844 O   0  0  0  0  0  1  0  0  0  0  0  0
   -1.7675   -6.4372   14.2542 N   0  0  0  0  0  4  0  0  0  0  0  0
  1  2  1  0
  2  3  1  0
  3  4  1  0
  4  5  1  0
  5  6  1  0
  6  7  1  0
  7  8  2  0
  8  9  1  0
  9 10  2  0
 10 11  1  0
 11 12  2  0
 11 13  1  0
 13 14  1  0
 14 15  2  0
 14 16  1  0
 16 17  1  0
 17 18  1  0
 18 19  1  0
 19 20  2  0
 19 21  1  1
 19 22  1  0
 16 23  1  6
 12  7  1  0
M  CHG  2  22  -1  23   1
M  END
$$$$
