
     RDKit          3D

 23 23  0  0  0  0  0  0  0  0999 V2000
    2.3288    3.5319    9.9772 C   0  0  0  0  0  0  0  0  0  0  0  0
    0.9237    3.5020   10.5454 C   0  0  0  0  0  0  0  0  0  0  0  0
    0.4846    2.0550   10.5865 C   0  0  0  0  0  0  0  0  0  0  0  0
   -0.7910    1.9415    9.7489 C   0  0  0  0  0  0  0  0  0  0  0  0
   -1.0541    0.5050    9.3953 C   0  0  0  0  0  0  0  0  0  0  0  0
   -2.3881    0.1042    9.9875 C   0  0  0  0  0  0  0  0  0  0  0  0
   -2.5627   -1.3701    9.9197 C   0  0  0  0  0  0  0  0  0  0  0  0
   -2.7793   -2.0139    8.7126 C   0  0  0  0  0  0  0  0  0  0  0  0
   -2.9353   -3.3670    8.6858 C   0  0  0  0  0  0  0  0  0  0  0  0
   -2.8774   -4.1068    9.8733 C   0  0  0  0  0  0  0  0  0  0  0  0
   -2.6677   -3.5243   11.0807 C   0  0  0  0  0  0  0  0  0  0  0  0
   -2.5115   -2.1182   11.0590 C   0  0  0  0  0  0  0  0  0  0  0  0
   -2.5914   -4.1502   12.3139 N   0  0  0  0  0  0  0  0  0  0  0  0
   -3.0192   -5.4464   12.7003 C   0  0  0  0  0  0  0  0  0  0  0  0
   -3.7262   -6.0585   11.8533 O   0  0  0  0  0  0  0  0  0  0  0  0
   -2.6720   -6.0480   13.9946 C   0  0  1  0  0  0  0  0  0  0  0  0
   -3.1305   -5.4322   15.2455 C   0  0  0  0  0  0  0  0  0  0  0  0
   -4.5302   -5.5166   15.6819 C   0  0  0  0  0  0  0  0  0  0  0  0
   -4.7884   -5.6411   17.4435 P   0  0  1  0  0  5  0  0  0  0  0  0
   -4.6728   -7.0408   17.9428 O   0  0  0  0  0  0  0  0  0  0  0  0
   -3.5349   -4.6885   18.1724 O   0  0  0  0  0  0  0  0  0  0  0  0
   -6.2720   -4.9637   17.8807 O   0  0  0  0  0  1  0  0  0  0  0  0
   -3.2231   -7.4563   14.0092 N   0  0  0  0  0  4  0  0  0  0  0  0
  1  2  1  0
  2  3  1  0
  3  4  1  0
  4  5  1  0
  5  6  1  0
  6  7  1  0
  7  8  2  0
  8  9  1  0
  9 10  2  0
 10 11  1  0
 11 12  2  0
 11 13  1  0
 13 14  1  0
 14 15  2  0
 14 16  1  0
 16 17  1  0
 17 18  1  0
 18 19  1  0
 19 20  2  0
 19 21  1  1
 19 22  1  0
 16 23  1  6
 12  7  1  0
M  CHG  2  22  -1  23   1
M  END
$$$$
