
     RDKit          3D

 23 23  0  0  0  0  0  0  0  0999 V2000
   -1.6833    5.2620    9.1715 C   0  0  0  0  0  0  0  0  0  0  0  0
   -2.1865    3.8327    9.2163 C   0  0  0  0  0  0  0  0  0  0  0  0
   -1.1152    2.9580    8.6035 C   0  0  0  0  0  0  0  0  0  0  0  0
   -1.0432    1.6752    9.4347 C   0  0  0  0  0  0  0  0  0  0  0  0
   -1.8240    0.5790    8.7666 C   0  0  0  0  0  0  0  0  0  0  0  0
   -0.9400   -0.6458    8.6696 C   0  0  0  0  0  0  0  0  0  0  0  0
   -1.7220   -1.8736    8.9693 C   0  0  0  0  0  0  0  0  0  0  0  0
   -2.5293   -2.4639    8.0110 C   0  0  0  0  0  0  0  0  0  0  0  0
   -3.2330   -3.5891    8.3188 C   0  0  0  0  0  0  0  0  0  0  0  0
   -3.1422   -4.1490    9.5991 C   0  0  0  0  0  0  0  0  0  0  0  0
   -2.3661   -3.6096   10.5727 C   0  0  0  0  0  0  0  0  0  0  0  0
   -1.6545   -2.4426   10.2070 C   0  0  0  0  0  0  0  0  0  0  0  0
   -2.1988   -4.0728   11.8672 N   0  0  0  0  0  0  0  0  0  0  0  0
   -2.7356   -5.2272   12.4932 C   0  0  0  0  0  0  0  0  0  0  0  0
   -3.4332   -5.9713   11.7504 O   0  0  0  0  0  0  0  0  0  0  0  0
   -2.5050   -5.5473   13.9081 C   0  0  1  0  0  0  0  0  0  0  0  0
   -3.5346   -5.2544   14.9121 C   0  0  0  0  0  0  0  0  0  0  0  0
   -3.3791   -5.6493   16.3180 C   0  0  0  0  0  0  0  0  0  0  0  0
   -4.7669   -5.2943   17.3826 P   0  0  1  0  0  5  0  0  0  0  0  0
   -5.5810   -6.5054   17.6871 O   0  0  0  0  0  0  0  0  0  0  0  0
   -4.0857   -4.6992   18.8630 O   0  0  0  0  0  0  0  0  0  0  0  0
   -5.7268   -4.0697   16.7269 O   0  0  0  0  0  1  0  0  0  0  0  0
   -2.2525   -7.0352   14.0071 N   0  0  0  0  0  4  0  0  0  0  0  0
  1  2  1  0
  2  3  1  0
  3  4  1  0
  4  5  1  0
  5  6  1  0
  6  7  1  0
  7  8  2  0
  8  9  1  0
  9 10  2  0
 10 11  1  0
 11 12  2  0
 11 13  1  0
 13 14  1  0
 14 15  2  0
 14 16  1  0
 16 17  1  0
 17 18  1  0
 18 19  1  0
 19 20  2  0
 19 21  1  1
 19 22  1  0
 16 23  1  6
 12  7  1  0
M  CHG  2  22  -1  23   1
M  END
$$$$
