
     RDKit          3D

 23 23  0  0  0  0  0  0  0  0999 V2000
   -1.8663    5.4134    8.7743 C   0  0  0  0  0  0  0  0  0  0  0  0
   -1.2281    4.0988    8.3712 C   0  0  0  0  0  0  0  0  0  0  0  0
   -1.0988    3.2580    9.6221 C   0  0  0  0  0  0  0  0  0  0  0  0
   -1.8563    1.9518    9.3739 C   0  0  0  0  0  0  0  0  0  0  0  0
   -2.0151    1.1911   10.6600 C   0  0  0  0  0  0  0  0  0  0  0  0
   -3.1645    0.2193   10.5010 C   0  0  0  0  0  0  0  0  0  0  0  0
   -2.7488   -1.1463   10.9146 C   0  0  0  0  0  0  0  0  0  0  0  0
   -1.6162   -1.7440   10.3870 C   0  0  0  0  0  0  0  0  0  0  0  0
   -1.2632   -2.9973   10.7878 C   0  0  0  0  0  0  0  0  0  0  0  0
   -2.0414   -3.6812   11.7300 C   0  0  0  0  0  0  0  0  0  0  0  0
   -3.1593   -3.1403   12.2766 C   0  0  0  0  0  0  0  0  0  0  0  0
   -3.4860   -1.8379   11.8302 C   0  0  0  0  0  0  0  0  0  0  0  0
   -4.0023   -3.7186   13.2111 N   0  0  0  0  0  0  0  0  0  0  0  0
   -3.7321   -4.7214   14.1775 C   0  0  0  0  0  0  0  0  0  0  0  0
   -2.5200   -4.8451   14.5054 O   0  0  0  0  0  0  0  0  0  0  0  0
   -4.7804   -5.5665   14.7644 C   0  0  1  0  0  0  0  0  0  0  0  0
   -4.9001   -5.6949   16.2215 C   0  0  0  0  0  0  0  0  0  0  0  0
   -3.9015   -6.4180   17.0194 C   0  0  0  0  0  0  0  0  0  0  0  0
   -4.4406   -6.9609   18.6318 P   0  0  1  0  0  5  0  0  0  0  0  0
   -5.6078   -6.1842   19.1382 O   0  0  0  0  0  0  0  0  0  0  0  0
   -4.9209   -8.6165   18.4359 O   0  0  0  0  0  0  0  0  0  0  0  0
   -3.1631   -6.9211   19.7352 O   0  0  0  0  0  1  0  0  0  0  0  0
   -6.1157   -5.0365   14.2921 N   0  0  0  0  0  4  0  0  0  0  0  0
  1  2  1  0
  2  3  1  0
  3  4  1  0
  4  5  1  0
  5  6  1  0
  6  7  1  0
  7  8  2  0
  8  9  1  0
  9 10  2  0
 10 11  1  0
 11 12  2  0
 11 13  1  0
 13 14  1  0
 14 15  2  0
 14 16  1  0
 16 17  1  0
 17 18  1  0
 18 19  1  0
 19 20  2  0
 19 21  1  6
 19 22  1  0
 16 23  1  1
 12  7  1  0
M  CHG  2  22  -1  23   1
M  END
$$$$
