
     RDKit          3D

 23 23  0  0  0  0  0  0  0  0999 V2000
   -1.1121    4.4318    8.0923 C   0  0  0  0  0  0  0  0  0  0  0  0
   -2.1346    3.3487    8.3743 C   0  0  0  0  0  0  0  0  0  0  0  0
   -1.4244    2.2416    9.1214 C   0  0  0  0  0  0  0  0  0  0  0  0
   -1.6834    0.9392    8.3609 C   0  0  0  0  0  0  0  0  0  0  0  0
   -2.7360    0.1285    9.0629 C   0  0  0  0  0  0  0  0  0  0  0  0
   -2.0518   -0.7788   10.0628 C   0  0  0  0  0  0  0  0  0  0  0  0
   -2.6808   -2.1253   10.0551 C   0  0  0  0  0  0  0  0  0  0  0  0
   -2.9164   -2.8022    8.8699 C   0  0  0  0  0  0  0  0  0  0  0  0
   -3.4949   -4.0353    8.8983 C   0  0  0  0  0  0  0  0  0  0  0  0
   -3.8511   -4.6187   10.1205 C   0  0  0  0  0  0  0  0  0  0  0  0
   -3.6417   -3.9974   11.3085 C   0  0  0  0  0  0  0  0  0  0  0  0
   -3.0389   -2.7198   11.2292 C   0  0  0  0  0  0  0  0  0  0  0  0
   -3.9505   -4.4737   12.5719 N   0  0  0  0  0  0  0  0  0  0  0  0
   -3.4695   -4.0575   13.8399 C   0  0  0  0  0  0  0  0  0  0  0  0
   -2.3703   -3.4382   13.8257 O   0  0  0  0  0  0  0  0  0  0  0  0
   -4.1897   -4.3226   15.0924 C   0  0  1  0  0  0  0  0  0  0  0  0
   -4.8149   -5.6297   15.3259 C   0  0  0  0  0  0  0  0  0  0  0  0
   -4.0180   -6.8565   15.4559 C   0  0  0  0  0  0  0  0  0  0  0  0
   -4.8926   -8.2905   16.0593 P   0  0  1  0  0  5  0  0  0  0  0  0
   -5.3467   -9.1899   14.9608 O   0  0  0  0  0  0  0  0  0  0  0  0
   -3.7577   -9.1537   17.0476 O   0  0  0  0  0  0  0  0  0  0  0  0
   -6.1882   -7.8328   17.0407 O   0  0  0  0  0  1  0  0  0  0  0  0
   -3.2150   -4.1288   16.2325 N   0  0  0  0  0  4  0  0  0  0  0  0
  1  2  1  0
  2  3  1  0
  3  4  1  0
  4  5  1  0
  5  6  1  0
  6  7  1  0
  7  8  2  0
  8  9  1  0
  9 10  2  0
 10 11  1  0
 11 12  2  0
 11 13  1  0
 13 14  1  0
 14 15  2  0
 14 16  1  0
 16 17  1  0
 17 18  1  0
 18 19  1  0
 19 20  2  0
 19 21  1  1
 19 22  1  0
 16 23  1  1
 12  7  1  0
M  CHG  2  22  -1  23   1
M  END
$$$$
