
     RDKit          3D

 23 23  0  0  0  0  0  0  0  0999 V2000
   -1.1717    4.7941    8.8969 C   0  0  0  0  0  0  0  0  0  0  0  0
   -0.8821    3.3660    8.4788 C   0  0  0  0  0  0  0  0  0  0  0  0
   -1.2029    2.4766    9.6596 C   0  0  0  0  0  0  0  0  0  0  0  0
   -2.1204    1.3610    9.1542 C   0  0  0  0  0  0  0  0  0  0  0  0
   -1.7072    0.0419    9.7434 C   0  0  0  0  0  0  0  0  0  0  0  0
   -2.9569   -0.7338   10.1003 C   0  0  0  0  0  0  0  0  0  0  0  0
   -2.5993   -2.0712   10.6411 C   0  0  0  0  0  0  0  0  0  0  0  0
   -1.6214   -2.8500   10.0449 C   0  0  0  0  0  0  0  0  0  0  0  0
   -1.3178   -4.0715   10.5662 C   0  0  0  0  0  0  0  0  0  0  0  0
   -1.9910   -4.5405   11.7010 C   0  0  0  0  0  0  0  0  0  0  0  0
   -2.9563   -3.8167   12.3219 C   0  0  0  0  0  0  0  0  0  0  0  0
   -3.2370   -2.5555   11.7451 C   0  0  0  0  0  0  0  0  0  0  0  0
   -3.6853   -4.1756   13.4436 N   0  0  0  0  0  0  0  0  0  0  0  0
   -3.5341   -5.2941   14.3029 C   0  0  0  0  0  0  0  0  0  0  0  0
   -2.5160   -6.0080   14.0890 O   0  0  0  0  0  0  0  0  0  0  0  0
   -4.4894   -5.6131   15.3723 C   0  0  1  0  0  0  0  0  0  0  0  0
   -4.1847   -5.2684   16.7660 C   0  0  0  0  0  0  0  0  0  0  0  0
   -5.0236   -5.7316   17.8788 C   0  0  0  0  0  0  0  0  0  0  0  0
   -4.6413   -7.3540   18.5167 P   0  0  1  0  0  5  0  0  0  0  0  0
   -3.2469   -7.4530   19.0344 O   0  0  0  0  0  0  0  0  0  0  0  0
   -5.7401   -7.6139   19.8339 O   0  0  0  0  0  0  0  0  0  0  0  0
   -4.9400   -8.5407   17.3533 O   0  0  0  0  0  1  0  0  0  0  0  0
   -5.7882   -4.9069   15.0536 N   0  0  0  0  0  4  0  0  0  0  0  0
  1  2  1  0
  2  3  1  0
  3  4  1  0
  4  5  1  0
  5  6  1  0
  6  7  1  0
  7  8  2  0
  8  9  1  0
  9 10  2  0
 10 11  1  0
 11 12  2  0
 11 13  1  0
 13 14  1  0
 14 15  2  0
 14 16  1  0
 16 17  1  0
 17 18  1  0
 18 19  1  0
 19 20  2  0
 19 21  1  1
 19 22  1  0
 16 23  1  6
 12  7  1  0
M  CHG  2  22  -1  23   1
M  END
$$$$
