
     RDKit          3D

 23 23  0  0  0  0  0  0  0  0999 V2000
   -1.2276    5.2010    8.7677 C   0  0  0  0  0  0  0  0  0  0  0  0
   -2.1524    4.0124    8.9413 C   0  0  0  0  0  0  0  0  0  0  0  0
   -1.3723    2.7744    8.5580 C   0  0  0  0  0  0  0  0  0  0  0  0
   -1.3726    1.8414    9.7710 C   0  0  0  0  0  0  0  0  0  0  0  0
   -1.6923    0.4363    9.3454 C   0  0  0  0  0  0  0  0  0  0  0  0
   -2.7465   -0.1174   10.2797 C   0  0  0  0  0  0  0  0  0  0  0  0
   -2.5963   -1.5897   10.4154 C   0  0  0  0  0  0  0  0  0  0  0  0
   -1.8265   -2.3192    9.5244 C   0  0  0  0  0  0  0  0  0  0  0  0
   -1.7099   -3.6679    9.6774 C   0  0  0  0  0  0  0  0  0  0  0  0
   -2.3650   -4.3169   10.7312 C   0  0  0  0  0  0  0  0  0  0  0  0
   -3.1303   -3.6484   11.6303 C   0  0  0  0  0  0  0  0  0  0  0  0
   -3.2219   -2.2505   11.4313 C   0  0  0  0  0  0  0  0  0  0  0  0
   -3.8212   -4.1806   12.7063 N   0  0  0  0  0  0  0  0  0  0  0  0
   -3.8060   -5.4988   13.2306 C   0  0  0  0  0  0  0  0  0  0  0  0
   -2.8054   -6.1976   12.9105 O   0  0  0  0  0  0  0  0  0  0  0  0
   -4.8749   -6.0285   14.0877 C   0  0  1  0  0  0  0  0  0  0  0  0
   -4.5878   -6.4257   15.4711 C   0  0  0  0  0  0  0  0  0  0  0  0
   -4.5785   -5.4513   16.5699 C   0  0  0  0  0  0  0  0  0  0  0  0
   -4.1031   -6.0876   18.1682 P   0  0  1  0  0  5  0  0  0  0  0  0
   -2.6977   -6.5839   18.1933 O   0  0  0  0  0  0  0  0  0  0  0  0
   -4.2376   -4.7515   19.2667 O   0  0  0  0  0  0  0  0  0  0  0  0
   -5.1769   -7.2863   18.6792 O   0  0  0  0  0  1  0  0  0  0  0  0
   -5.9528   -4.9720   14.1836 N   0  0  0  0  0  4  0  0  0  0  0  0
  1  2  1  0
  2  3  1  0
  3  4  1  0
  4  5  1  0
  5  6  1  0
  6  7  1  0
  7  8  2  0
  8  9  1  0
  9 10  2  0
 10 11  1  0
 11 12  2  0
 11 13  1  0
 13 14  1  0
 14 15  2  0
 14 16  1  0
 16 17  1  0
 17 18  1  0
 18 19  1  0
 19 20  2  0
 19 21  1  1
 19 22  1  0
 16 23  1  1
 12  7  1  0
M  CHG  2  22  -1  23   1
M  END
$$$$
