
     RDKit          3D

 23 23  0  0  0  0  0  0  0  0999 V2000
   -2.1841    5.1503    8.5699 C   0  0  0  0  0  0  0  0  0  0  0  0
   -2.3366    3.6873    8.2033 C   0  0  0  0  0  0  0  0  0  0  0  0
   -1.8557    2.8739    9.3845 C   0  0  0  0  0  0  0  0  0  0  0  0
   -1.0750    1.6807    8.8290 C   0  0  0  0  0  0  0  0  0  0  0  0
   -1.8006    0.3998    9.1299 C   0  0  0  0  0  0  0  0  0  0  0  0
   -1.2107   -0.1986   10.3888 C   0  0  0  0  0  0  0  0  0  0  0  0
   -1.6080   -1.6248   10.5195 C   0  0  0  0  0  0  0  0  0  0  0  0
   -1.1914   -2.5744    9.6013 C   0  0  0  0  0  0  0  0  0  0  0  0
   -1.5737   -3.8734    9.7505 C   0  0  0  0  0  0  0  0  0  0  0  0
   -2.3853   -4.2499   10.8278 C   0  0  0  0  0  0  0  0  0  0  0  0
   -2.8199   -3.3587   11.7540 C   0  0  0  0  0  0  0  0  0  0  0  0
   -2.3977   -2.0225   11.5579 C   0  0  0  0  0  0  0  0  0  0  0  0
   -3.6210   -3.6137   12.8547 N   0  0  0  0  0  0  0  0  0  0  0  0
   -4.0099   -4.8532   13.4248 C   0  0  0  0  0  0  0  0  0  0  0  0
   -3.2481   -5.8274   13.1746 O   0  0  0  0  0  0  0  0  0  0  0  0
   -5.2145   -5.0080   14.2511 C   0  0  1  0  0  0  0  0  0  0  0  0
   -5.1005   -5.1689   15.7054 C   0  0  0  0  0  0  0  0  0  0  0  0
   -3.8606   -5.6379   16.3373 C   0  0  0  0  0  0  0  0  0  0  0  0
   -4.0108   -6.1889   18.0283 P   0  0  1  0  0  5  0  0  0  0  0  0
   -4.7392   -7.4840   18.1472 O   0  0  0  0  0  0  0  0  0  0  0  0
   -2.3872   -6.4132   18.5972 O   0  0  0  0  0  0  0  0  0  0  0  0
   -4.7330   -4.9989   18.9840 O   0  0  0  0  0  1  0  0  0  0  0  0
   -6.0742   -3.7811   14.0441 N   0  0  0  0  0  4  0  0  0  0  0  0
  1  2  1  0
  2  3  1  0
  3  4  1  0
  4  5  1  0
  5  6  1  0
  6  7  1  0
  7  8  2  0
  8  9  1  0
  9 10  2  0
 10 11  1  0
 11 12  2  0
 11 13  1  0
 13 14  1  0
 14 15  2  0
 14 16  1  0
 16 17  1  0
 17 18  1  0
 18 19  1  0
 19 20  2  0
 19 21  1  1
 19 22  1  0
 16 23  1  1
 12  7  1  0
M  CHG  2  22  -1  23   1
M  END
$$$$
