
     RDKit          3D

 23 23  0  0  0  0  0  0  0  0999 V2000
    0.0072    4.6812    8.9982 C   0  0  0  0  0  0  0  0  0  0  0  0
   -0.6255    3.5478    9.7812 C   0  0  0  0  0  0  0  0  0  0  0  0
   -0.1442    2.2518    9.1672 C   0  0  0  0  0  0  0  0  0  0  0  0
   -1.3832    1.4610    8.7417 C   0  0  0  0  0  0  0  0  0  0  0  0
   -1.3388    0.0751    9.3206 C   0  0  0  0  0  0  0  0  0  0  0  0
   -2.7585   -0.4331    9.4518 C   0  0  0  0  0  0  0  0  0  0  0  0
   -2.7683   -1.9133    9.5846 C   0  0  0  0  0  0  0  0  0  0  0  0
   -2.9752   -2.7325    8.4871 C   0  0  0  0  0  0  0  0  0  0  0  0
   -2.9782   -4.0858    8.6437 C   0  0  0  0  0  0  0  0  0  0  0  0
   -2.7729   -4.6493    9.9092 C   0  0  0  0  0  0  0  0  0  0  0  0
   -2.5658   -3.8911   11.0152 C   0  0  0  0  0  0  0  0  0  0  0  0
   -2.5713   -2.4921   10.8038 C   0  0  0  0  0  0  0  0  0  0  0  0
   -2.3528   -4.3343   12.3101 N   0  0  0  0  0  0  0  0  0  0  0  0
   -2.7126   -5.5647   12.9175 C   0  0  0  0  0  0  0  0  0  0  0  0
   -3.4379   -6.3231   12.2170 O   0  0  0  0  0  0  0  0  0  0  0  0
   -2.2791   -5.9438   14.2689 C   0  0  1  0  0  0  0  0  0  0  0  0
   -2.8034   -5.2346   15.4420 C   0  0  0  0  0  0  0  0  0  0  0  0
   -4.2113   -5.3416   15.8456 C   0  0  0  0  0  0  0  0  0  0  0  0
   -4.5178   -5.3368   17.6039 P   0  0  1  0  0  5  0  0  0  0  0  0
   -3.2617   -5.3795   18.4054 O   0  0  0  0  0  0  0  0  0  0  0  0
   -5.3355   -3.8432   17.9361 O   0  0  0  0  0  0  0  0  0  0  0  0
   -5.5533   -6.5991   18.0347 O   0  0  0  0  0  1  0  0  0  0  0  0
   -2.6422   -7.3971   14.4769 N   0  0  0  0  0  4  0  0  0  0  0  0
  1  2  1  0
  2  3  1  0
  3  4  1  0
  4  5  1  0
  5  6  1  0
  6  7  1  0
  7  8  2  0
  8  9  1  0
  9 10  2  0
 10 11  1  0
 11 12  2  0
 11 13  1  0
 13 14  1  0
 14 15  2  0
 14 16  1  0
 16 17  1  0
 17 18  1  0
 18 19  1  0
 19 20  2  0
 19 21  1  1
 19 22  1  0
 16 23  1  1
 12  7  1  0
M  CHG  2  22  -1  23   1
M  END
$$$$
