
     RDKit          3D

 23 23  0  0  0  0  0  0  0  0999 V2000
   -0.6624    3.8683    9.9164 C   0  0  0  0  0  0  0  0  0  0  0  0
   -0.8623    3.2713    8.5374 C   0  0  0  0  0  0  0  0  0  0  0  0
   -1.7472    2.0548    8.6966 C   0  0  0  0  0  0  0  0  0  0  0  0
   -1.1103    1.1645    9.7660 C   0  0  0  0  0  0  0  0  0  0  0  0
   -1.3497   -0.2839    9.4458 C   0  0  0  0  0  0  0  0  0  0  0  0
   -2.4598   -0.7933   10.3398 C   0  0  0  0  0  0  0  0  0  0  0  0
   -2.7486   -2.2209   10.0442 C   0  0  0  0  0  0  0  0  0  0  0  0
   -2.3138   -2.8146    8.8708 C   0  0  0  0  0  0  0  0  0  0  0  0
   -2.5958   -4.1257    8.6309 C   0  0  0  0  0  0  0  0  0  0  0  0
   -3.3226   -4.8728    9.5660 C   0  0  0  0  0  0  0  0  0  0  0  0
   -3.7709   -4.3385   10.7299 C   0  0  0  0  0  0  0  0  0  0  0  0
   -3.4543   -2.9748   10.9352 C   0  0  0  0  0  0  0  0  0  0  0  0
   -4.4947   -4.9763   11.7237 N   0  0  0  0  0  0  0  0  0  0  0  0
   -4.3773   -4.8797   13.1342 C   0  0  0  0  0  0  0  0  0  0  0  0
   -3.3871   -4.2182   13.5513 O   0  0  0  0  0  0  0  0  0  0  0  0
   -5.3341   -5.5023   14.0586 C   0  0  1  0  0  0  0  0  0  0  0  0
   -4.8768   -6.4843   15.0488 C   0  0  0  0  0  0  0  0  0  0  0  0
   -4.0392   -6.0984   16.1917 C   0  0  0  0  0  0  0  0  0  0  0  0
   -3.8153   -7.3469   17.4473 P   0  0  1  0  0  5  0  0  0  0  0  0
   -3.3183   -8.6375   16.8910 O   0  0  0  0  0  0  0  0  0  0  0  0
   -2.6184   -6.7150   18.5327 O   0  0  0  0  0  0  0  0  0  0  0  0
   -5.2394   -7.5753   18.3254 O   0  0  0  0  0  1  0  0  0  0  0  0
   -5.9889   -4.3963   14.8556 N   0  0  0  0  0  4  0  0  0  0  0  0
  1  2  1  0
  2  3  1  0
  3  4  1  0
  4  5  1  0
  5  6  1  0
  6  7  1  0
  7  8  2  0
  8  9  1  0
  9 10  2  0
 10 11  1  0
 11 12  2  0
 11 13  1  0
 13 14  1  0
 14 15  2  0
 14 16  1  0
 16 17  1  0
 17 18  1  0
 18 19  1  0
 19 20  2  0
 19 21  1  1
 19 22  1  0
 16 23  1  1
 12  7  1  0
M  CHG  2  22  -1  23   1
M  END
$$$$
