
     RDKit          3D

 23 23  0  0  0  0  0  0  0  0999 V2000
    0.1434    3.9393    9.1773 C   0  0  0  0  0  0  0  0  0  0  0  0
   -0.3534    3.0380   10.2904 C   0  0  0  0  0  0  0  0  0  0  0  0
   -0.5819    1.6673    9.6926 C   0  0  0  0  0  0  0  0  0  0  0  0
   -2.0757    1.5483    9.3826 C   0  0  0  0  0  0  0  0  0  0  0  0
   -2.6446    0.3186   10.0324 C   0  0  0  0  0  0  0  0  0  0  0  0
   -3.1878   -0.5866    8.9478 C   0  0  0  0  0  0  0  0  0  0  0  0
   -2.9962   -2.0127    9.3196 C   0  0  0  0  0  0  0  0  0  0  0  0
   -2.4406   -2.9189    8.4316 C   0  0  0  0  0  0  0  0  0  0  0  0
   -2.2789   -4.2193    8.8044 C   0  0  0  0  0  0  0  0  0  0  0  0
   -2.6723   -4.6408   10.0805 C   0  0  0  0  0  0  0  0  0  0  0  0
   -3.2211   -3.7930   10.9867 C   0  0  0  0  0  0  0  0  0  0  0  0
   -3.3693   -2.4537   10.5551 C   0  0  0  0  0  0  0  0  0  0  0  0
   -3.6455   -4.0945   12.2702 N   0  0  0  0  0  0  0  0  0  0  0  0
   -3.3900   -5.2430   13.0628 C   0  0  0  0  0  0  0  0  0  0  0  0
   -2.3111   -5.8465   12.8102 O   0  0  0  0  0  0  0  0  0  0  0  0
   -4.3091   -5.7107   14.1089 C   0  0  1  0  0  0  0  0  0  0  0  0
   -4.2463   -5.1410   15.4600 C   0  0  0  0  0  0  0  0  0  0  0  0
   -3.0167   -5.1846   16.2619 C   0  0  0  0  0  0  0  0  0  0  0  0
   -3.2399   -5.1074   18.0310 P   0  0  1  0  0  5  0  0  0  0  0  0
   -4.3925   -4.2490   18.4269 O   0  0  0  0  0  0  0  0  0  0  0  0
   -3.5629   -6.7351   18.5371 O   0  0  0  0  0  0  0  0  0  0  0  0
   -1.8199   -4.6021   18.7922 O   0  0  0  0  0  1  0  0  0  0  0  0
   -5.7202   -5.4585   13.6268 N   0  0  0  0  0  4  0  0  0  0  0  0
  1  2  1  0
  2  3  1  0
  3  4  1  0
  4  5  1  0
  5  6  1  0
  6  7  1  0
  7  8  2  0
  8  9  1  0
  9 10  2  0
 10 11  1  0
 11 12  2  0
 11 13  1  0
 13 14  1  0
 14 15  2  0
 14 16  1  0
 16 17  1  0
 17 18  1  0
 18 19  1  0
 19 20  2  0
 19 21  1  1
 19 22  1  0
 16 23  1  6
 12  7  1  0
M  CHG  2  22  -1  23   1
M  END
$$$$
