
     RDKit          3D

 41 45  0  0  0  0  0  0  0  0999 V2000
    6.9204   -0.8324   11.4464 C   0  0  0  0  0  0  0  0  0  0  0  0
    5.9109   -1.8964   11.7197 C   0  0  0  0  0  0  0  0  0  0  0  0
    6.2947   -3.2235   11.5591 C   0  0  0  0  0  0  0  0  0  0  0  0
    5.4519   -4.2836   11.7636 C   0  0  0  0  0  0  0  0  0  0  0  0
    4.1660   -3.9736   12.1477 C   0  0  0  0  0  0  0  0  0  0  0  0
    3.7558   -2.6807   12.3152 C   0  0  0  0  0  0  0  0  0  0  0  0
    4.6326   -1.6057   12.1016 C   0  0  0  0  0  0  0  0  0  0  0  0
    4.0594    0.0135   12.3483 S   0  0  0  0  0  6  0  0  0  0  0  0
    3.1037    0.3699   11.2189 O   0  0  0  0  0  0  0  0  0  0  0  0
    5.1750    1.0223   12.2399 O   0  0  0  0  0  0  0  0  0  0  0  0
    3.1671    0.2084   13.7976 N   0  0  0  0  0  0  0  0  0  0  0  0
    3.5283   -0.2499   15.0741 C   0  0  0  0  0  0  0  0  0  0  0  0
    4.6919   -0.6481   15.2547 O   0  0  0  0  0  0  0  0  0  0  0  0
    2.6012   -0.2851   16.2194 C   0  0  0  0  0  0  0  0  0  0  0  0
    2.6590   -1.2463   17.1989 C   0  0  0  0  0  0  0  0  0  0  0  0
    1.7693   -1.2732   18.2758 C   0  0  0  0  0  0  0  0  0  0  0  0
    0.7920   -0.3156   18.3822 C   0  0  0  0  0  0  0  0  0  0  0  0
    0.7214    0.6535   17.4096 C   0  0  0  0  0  0  0  0  0  0  0  0
    1.6177    0.6709   16.3356 C   0  0  0  0  0  0  0  0  0  0  0  0
   -0.1628   -0.2983   19.4947 C   0  0  0  0  0  0  0  0  0  0  0  0
    0.2754    0.4933   20.6429 C   0  0  0  0  0  0  0  0  0  0  0  0
    1.4598    1.1859   20.7620 C   0  0  0  0  0  0  0  0  0  0  0  0
    1.5323    1.7923   21.9552 N   0  0  0  0  0  0  0  0  0  0  0  0
    0.4090    1.5123   22.6354 C   0  0  0  0  0  0  0  0  0  0  0  0
   -0.3907    0.6974   21.8239 C   0  0  0  0  0  0  0  0  0  0  0  0
   -1.6082    0.2668   22.2987 C   0  0  0  0  0  0  0  0  0  0  0  0
   -2.1081    0.5916   23.5535 C   0  0  0  0  0  0  0  0  0  0  0  0
   -1.3095    1.3858   24.3227 C   0  0  0  0  0  0  0  0  0  0  0  0
   -0.0685    1.8480   23.8869 C   0  0  0  0  0  0  0  0  0  0  0  0
   -3.3759    0.0759   23.8992 N   0  0  0  0  0  0  0  0  0  0  0  0
   -3.7560   -0.4062   25.1695 C   0  0  0  0  0  0  0  0  0  0  0  0
   -3.4012    0.1600   26.1994 O   0  0  0  0  0  0  0  0  0  0  0  0
   -4.5518   -1.5467   25.3272 O   0  0  0  0  0  0  0  0  0  0  0  0
   -4.7856   -2.1337   26.5915 C   0  0  0  0  0  0  0  0  0  0  0  0
   -6.1049   -1.7045   27.1818 C   0  0  0  0  0  0  0  0  0  0  0  0
   -6.9420   -2.9493   27.3456 C   0  0  0  0  0  0  0  0  0  0  0  0
   -5.9143   -4.0429   27.4164 C   0  0  0  0  0  0  0  0  0  0  0  0
   -4.7748   -3.6353   26.5384 C   0  0  0  0  0  0  0  0  0  0  0  0
    2.6020    2.6156   22.4796 C   0  0  0  0  0  0  0  0  0  0  0  0
    1.8337   -2.2383   19.2527 O   0  0  0  0  0  0  0  0  0  0  0  0
    3.0421   -2.7106   19.8001 C   0  0  0  0  0  0  0  0  0  0  0  0
  1  2  1  0
  2  3  2  0
  3  4  1  0
  4  5  2  0
  5  6  1  0
  6  7  2  0
  7  8  1  0
  8  9  2  0
  8 10  2  0
  8 11  1  0
 11 12  1  0
 12 13  2  0
 12 14  1  0
 14 15  2  0
 15 16  1  0
 16 17  2  0
 17 18  1  0
 18 19  2  0
 17 20  1  0
 20 21  1  0
 21 22  2  0
 22 23  1  0
 23 24  1  0
 24 25  2  0
 25 26  1  0
 26 27  2  0
 27 28  1  0
 28 29  2  0
 27 30  1  0
 30 31  1  0
 31 32  2  0
 31 33  1  0
 33 34  1  0
 34 35  1  0
 35 36  1  0
 36 37  1  0
 37 38  1  0
 23 39  1  0
 16 40  1  0
 40 41  1  0
  7  2  1  0
 19 14  1  0
 25 21  1  0
 29 24  1  0
 38 34  1  0
M  END
$$$$
