
     RDKit          3D

 41 45  0  0  0  0  0  0  0  0999 V2000
   12.5220   -2.2605   18.8446 C   0  0  0  0  0  0  0  0  0  0  0  0
   11.6108   -1.2522   18.2291 C   0  0  0  0  0  0  0  0  0  0  0  0
   11.9923   -0.6697   17.0252 C   0  0  0  0  0  0  0  0  0  0  0  0
   11.2477    0.2787   16.3756 C   0  0  0  0  0  0  0  0  0  0  0  0
   10.0664    0.6455   16.9816 C   0  0  0  0  0  0  0  0  0  0  0  0
    9.6613    0.0930   18.1642 C   0  0  0  0  0  0  0  0  0  0  0  0
   10.4364   -0.8783   18.8168 C   0  0  0  0  0  0  0  0  0  0  0  0
    9.8608   -1.5570   20.3065 S   0  0  0  0  0  6  0  0  0  0  0  0
    9.5482   -0.4220   21.2709 O   0  0  0  0  0  0  0  0  0  0  0  0
   10.9279   -2.3665   20.9993 O   0  0  0  0  0  0  0  0  0  0  0  0
    8.4042   -2.4423   20.1355 N   0  0  0  0  0  0  0  0  0  0  0  0
    8.0733   -3.3211   19.0922 C   0  0  0  0  0  0  0  0  0  0  0  0
    8.8204   -4.2900   18.8726 O   0  0  0  0  0  0  0  0  0  0  0  0
    6.8829   -3.1598   18.2382 C   0  0  0  0  0  0  0  0  0  0  0  0
    6.7322   -3.8066   17.0358 C   0  0  0  0  0  0  0  0  0  0  0  0
    5.6021   -3.6394   16.2315 C   0  0  0  0  0  0  0  0  0  0  0  0
    4.5910   -2.8034   16.6344 C   0  0  0  0  0  0  0  0  0  0  0  0
    4.7271   -2.1490   17.8358 C   0  0  0  0  0  0  0  0  0  0  0  0
    5.8631   -2.3240   18.6333 C   0  0  0  0  0  0  0  0  0  0  0  0
    3.3838   -2.5974   15.8284 C   0  0  0  0  0  0  0  0  0  0  0  0
    3.2962   -1.2731   15.2156 C   0  0  0  0  0  0  0  0  0  0  0  0
    4.3448   -0.5050   14.7607 C   0  0  0  0  0  0  0  0  0  0  0  0
    3.8968    0.6575   14.2662 N   0  0  0  0  0  0  0  0  0  0  0  0
    2.5595    0.6750   14.3859 C   0  0  0  0  0  0  0  0  0  0  0  0
    2.1673   -0.5312   14.9802 C   0  0  0  0  0  0  0  0  0  0  0  0
    0.8309   -0.7595   15.2154 C   0  0  0  0  0  0  0  0  0  0  0  0
   -0.1759    0.1434   14.8973 C   0  0  0  0  0  0  0  0  0  0  0  0
    0.2336    1.3092   14.3199 C   0  0  0  0  0  0  0  0  0  0  0  0
    1.5749    1.5872   14.0609 C   0  0  0  0  0  0  0  0  0  0  0  0
   -1.5027   -0.2337   15.1973 N   0  0  0  0  0  0  0  0  0  0  0  0
   -2.6630    0.5127   14.9021 C   0  0  0  0  0  0  0  0  0  0  0  0
   -2.5914    1.6474   14.4391 O   0  0  0  0  0  0  0  0  0  0  0  0
   -3.9503    0.0072   15.1179 O   0  0  0  0  0  0  0  0  0  0  0  0
   -5.1069    0.8084   14.9842 C   0  0  0  0  0  0  0  0  0  0  0  0
   -5.5691    0.9043   13.5522 C   0  0  0  0  0  0  0  0  0  0  0  0
   -6.9546    0.3093   13.4939 C   0  0  0  0  0  0  0  0  0  0  0  0
   -7.4447    0.4504   14.9071 C   0  0  0  0  0  0  0  0  0  0  0  0
   -6.2579    0.2967   15.8034 C   0  0  0  0  0  0  0  0  0  0  0  0
    4.6638    1.7433   13.6919 C   0  0  0  0  0  0  0  0  0  0  0  0
    5.4581   -4.2906   15.0295 O   0  0  0  0  0  0  0  0  0  0  0  0
    6.4978   -5.0043   14.4028 C   0  0  0  0  0  0  0  0  0  0  0  0
  1  2  1  0
  2  3  2  0
  3  4  1  0
  4  5  2  0
  5  6  1  0
  6  7  2  0
  7  8  1  0
  8  9  2  0
  8 10  2  0
  8 11  1  0
 11 12  1  0
 12 13  2  0
 12 14  1  0
 14 15  2  0
 15 16  1  0
 16 17  2  0
 17 18  1  0
 18 19  2  0
 17 20  1  0
 20 21  1  0
 21 22  2  0
 22 23  1  0
 23 24  1  0
 24 25  2  0
 25 26  1  0
 26 27  2  0
 27 28  1  0
 28 29  2  0
 27 30  1  0
 30 31  1  0
 31 32  2  0
 31 33  1  0
 33 34  1  0
 34 35  1  0
 35 36  1  0
 36 37  1  0
 37 38  1  0
 23 39  1  0
 16 40  1  0
 40 41  1  0
  7  2  1  0
 19 14  1  0
 25 21  1  0
 29 24  1  0
 38 34  1  0
M  END
$$$$
