
     RDKit          3D

 41 45  0  0  0  0  0  0  0  0999 V2000
   -1.1033  -10.0473   17.2241 C   0  0  0  0  0  0  0  0  0  0  0  0
   -0.5230  -10.7204   16.0257 C   0  0  0  0  0  0  0  0  0  0  0  0
    0.2554  -11.8560   16.2222 C   0  0  0  0  0  0  0  0  0  0  0  0
    0.8536  -12.5475   15.2023 C   0  0  0  0  0  0  0  0  0  0  0  0
    0.6469  -12.0577   13.9316 C   0  0  0  0  0  0  0  0  0  0  0  0
   -0.1126  -10.9448   13.7029 C   0  0  0  0  0  0  0  0  0  0  0  0
   -0.7189  -10.2479   14.7597 C   0  0  0  0  0  0  0  0  0  0  0  0
   -1.6872   -8.8522   14.4054 S   0  0  0  0  0  6  0  0  0  0  0  0
   -2.8068   -8.7619   15.4323 O   0  0  0  0  0  0  0  0  0  0  0  0
   -2.3924   -8.9851   13.0792 O   0  0  0  0  0  0  0  0  0  0  0  0
   -0.8250   -7.3763   14.5199 N   0  0  0  0  0  0  0  0  0  0  0  0
    0.4041   -7.0726   13.9138 C   0  0  0  0  0  0  0  0  0  0  0  0
    1.0395   -7.9908   13.3675 O   0  0  0  0  0  0  0  0  0  0  0  0
    0.9868   -5.7191   13.8874 C   0  0  0  0  0  0  0  0  0  0  0  0
    2.2505   -5.4582   13.4165 C   0  0  0  0  0  0  0  0  0  0  0  0
    2.7946   -4.1715   13.4039 C   0  0  0  0  0  0  0  0  0  0  0  0
    2.0604   -3.1116   13.8741 C   0  0  0  0  0  0  0  0  0  0  0  0
    0.7936   -3.3567   14.3486 C   0  0  0  0  0  0  0  0  0  0  0  0
    0.2586   -4.6493   14.3564 C   0  0  0  0  0  0  0  0  0  0  0  0
    2.5849   -1.7425   13.8786 C   0  0  0  0  0  0  0  0  0  0  0  0
    3.2462   -1.3626   15.1256 C   0  0  0  0  0  0  0  0  0  0  0  0
    3.5244   -2.1855   16.1943 C   0  0  0  0  0  0  0  0  0  0  0  0
    4.1308   -1.4980   17.1722 N   0  0  0  0  0  0  0  0  0  0  0  0
    4.2608   -0.2239   16.7690 C   0  0  0  0  0  0  0  0  0  0  0  0
    3.7100   -0.1233   15.4850 C   0  0  0  0  0  0  0  0  0  0  0  0
    3.7184    1.0950   14.8454 C   0  0  0  0  0  0  0  0  0  0  0  0
    4.2462    2.2553   15.3978 C   0  0  0  0  0  0  0  0  0  0  0  0
    4.7758    2.1290   16.6483 C   0  0  0  0  0  0  0  0  0  0  0  0
    4.7916    0.9172   17.3373 C   0  0  0  0  0  0  0  0  0  0  0  0
    4.1842    3.4304   14.6181 N   0  0  0  0  0  0  0  0  0  0  0  0
    5.2332    4.3543   14.4272 C   0  0  0  0  0  0  0  0  0  0  0  0
    6.3484    4.1610   14.9025 O   0  0  0  0  0  0  0  0  0  0  0  0
    5.0645    5.5332   13.6918 O   0  0  0  0  0  0  0  0  0  0  0  0
    5.9714    5.9282   12.6822 C   0  0  0  0  0  0  0  0  0  0  0  0
    5.8422    5.0831   11.4402 C   0  0  0  0  0  0  0  0  0  0  0  0
    5.4394    6.0066   10.3169 C   0  0  0  0  0  0  0  0  0  0  0  0
    5.9232    7.3481   10.7898 C   0  0  0  0  0  0  0  0  0  0  0  0
    5.7923    7.3646   12.2792 C   0  0  0  0  0  0  0  0  0  0  0  0
    4.5887   -1.9818   18.4580 C   0  0  0  0  0  0  0  0  0  0  0  0
    4.0600   -3.9180   12.9304 O   0  0  0  0  0  0  0  0  0  0  0  0
    4.9164   -4.9167   12.4281 C   0  0  0  0  0  0  0  0  0  0  0  0
  1  2  1  0
  2  3  2  0
  3  4  1  0
  4  5  2  0
  5  6  1  0
  6  7  2  0
  7  8  1  0
  8  9  2  0
  8 10  2  0
  8 11  1  0
 11 12  1  0
 12 13  2  0
 12 14  1  0
 14 15  2  0
 15 16  1  0
 16 17  2  0
 17 18  1  0
 18 19  2  0
 17 20  1  0
 20 21  1  0
 21 22  2  0
 22 23  1  0
 23 24  1  0
 24 25  2  0
 25 26  1  0
 26 27  2  0
 27 28  1  0
 28 29  2  0
 27 30  1  0
 30 31  1  0
 31 32  2  0
 31 33  1  0
 33 34  1  0
 34 35  1  0
 35 36  1  0
 36 37  1  0
 37 38  1  0
 23 39  1  0
 16 40  1  0
 40 41  1  0
  7  2  1  0
 19 14  1  0
 25 21  1  0
 29 24  1  0
 38 34  1  0
M  END
$$$$
