
     RDKit          3D

 41 45  0  0  0  0  0  0  0  0999 V2000
    3.2640   -8.0643   23.8546 C   0  0  0  0  0  0  0  0  0  0  0  0
    4.2820   -7.0331   23.4994 C   0  0  0  0  0  0  0  0  0  0  0  0
    5.1297   -6.5737   24.5017 C   0  0  0  0  0  0  0  0  0  0  0  0
    6.0899   -5.6181   24.2997 C   0  0  0  0  0  0  0  0  0  0  0  0
    6.1864   -5.1128   23.0220 C   0  0  0  0  0  0  0  0  0  0  0  0
    5.3698   -5.5420   22.0136 C   0  0  0  0  0  0  0  0  0  0  0  0
    4.3909   -6.5226   22.2377 C   0  0  0  0  0  0  0  0  0  0  0  0
    3.3960   -7.0408   20.9137 S   0  0  0  0  0  6  0  0  0  0  0  0
    1.9364   -6.8291   21.2884 O   0  0  0  0  0  0  0  0  0  0  0  0
    3.5190   -8.5240   20.6714 O   0  0  0  0  0  0  0  0  0  0  0  0
    3.6475   -6.1408   19.4779 N   0  0  0  0  0  0  0  0  0  0  0  0
    4.7947   -6.1531   18.6692 C   0  0  0  0  0  0  0  0  0  0  0  0
    5.5657   -7.1251   18.7474 O   0  0  0  0  0  0  0  0  0  0  0  0
    5.1384   -5.0735   17.7266 C   0  0  0  0  0  0  0  0  0  0  0  0
    6.4205   -4.8398   17.2926 C   0  0  0  0  0  0  0  0  0  0  0  0
    6.7347   -3.8080   16.4046 C   0  0  0  0  0  0  0  0  0  0  0  0
    5.7443   -2.9828   15.9339 C   0  0  0  0  0  0  0  0  0  0  0  0
    4.4557   -3.2040   16.3590 C   0  0  0  0  0  0  0  0  0  0  0  0
    4.1524   -4.2405   17.2483 C   0  0  0  0  0  0  0  0  0  0  0  0
    6.0221   -1.8888   14.9981 C   0  0  0  0  0  0  0  0  0  0  0  0
    6.1331   -0.5766   15.6326 C   0  0  0  0  0  0  0  0  0  0  0  0
    6.3914   -0.3235   16.9615 C   0  0  0  0  0  0  0  0  0  0  0  0
    6.4142    0.9966   17.1933 N   0  0  0  0  0  0  0  0  0  0  0  0
    6.1736    1.6289   16.0334 C   0  0  0  0  0  0  0  0  0  0  0  0
    5.9954    0.6539   15.0436 C   0  0  0  0  0  0  0  0  0  0  0  0
    5.7312    1.0497   13.7525 C   0  0  0  0  0  0  0  0  0  0  0  0
    5.6269    2.3771   13.3561 C   0  0  0  0  0  0  0  0  0  0  0  0
    5.8047    3.3053   14.3394 C   0  0  0  0  0  0  0  0  0  0  0  0
    6.0746    2.9551   15.6616 C   0  0  0  0  0  0  0  0  0  0  0  0
    5.3539    2.6269   11.9939 N   0  0  0  0  0  0  0  0  0  0  0  0
    5.6120    3.8304   11.3043 C   0  0  0  0  0  0  0  0  0  0  0  0
    6.0144    4.8296   11.8931 O   0  0  0  0  0  0  0  0  0  0  0  0
    5.4261    3.9531    9.9225 O   0  0  0  0  0  0  0  0  0  0  0  0
    4.7724    5.0657    9.3458 C   0  0  0  0  0  0  0  0  0  0  0  0
    4.8444    5.0490    7.8398 C   0  0  0  0  0  0  0  0  0  0  0  0
    3.4263    4.9704    7.3301 C   0  0  0  0  0  0  0  0  0  0  0  0
    2.6240    5.5313    8.4698 C   0  0  0  0  0  0  0  0  0  0  0  0
    3.3229    5.1449    9.7339 C   0  0  0  0  0  0  0  0  0  0  0  0
    6.6494    1.6835   18.4462 C   0  0  0  0  0  0  0  0  0  0  0  0
    8.0203   -3.5806   15.9743 O   0  0  0  0  0  0  0  0  0  0  0  0
    9.1308   -4.3257   16.4155 C   0  0  0  0  0  0  0  0  0  0  0  0
  1  2  1  0
  2  3  2  0
  3  4  1  0
  4  5  2  0
  5  6  1  0
  6  7  2  0
  7  8  1  0
  8  9  2  0
  8 10  2  0
  8 11  1  0
 11 12  1  0
 12 13  2  0
 12 14  1  0
 14 15  2  0
 15 16  1  0
 16 17  2  0
 17 18  1  0
 18 19  2  0
 17 20  1  0
 20 21  1  0
 21 22  2  0
 22 23  1  0
 23 24  1  0
 24 25  2  0
 25 26  1  0
 26 27  2  0
 27 28  1  0
 28 29  2  0
 27 30  1  0
 30 31  1  0
 31 32  2  0
 31 33  1  0
 33 34  1  0
 34 35  1  0
 35 36  1  0
 36 37  1  0
 37 38  1  0
 23 39  1  0
 16 40  1  0
 40 41  1  0
  7  2  1  0
 19 14  1  0
 25 21  1  0
 29 24  1  0
 38 34  1  0
M  END
$$$$
