
     RDKit          3D

 41 45  0  0  0  0  0  0  0  0999 V2000
    5.5454   -8.4628   22.8105 C   0  0  0  0  0  0  0  0  0  0  0  0
    6.2410   -7.2635   22.2594 C   0  0  0  0  0  0  0  0  0  0  0  0
    6.9892   -6.4793   23.1309 C   0  0  0  0  0  0  0  0  0  0  0  0
    7.6564   -5.3472   22.7447 C   0  0  0  0  0  0  0  0  0  0  0  0
    7.5541   -5.0041   21.4147 C   0  0  0  0  0  0  0  0  0  0  0  0
    6.8277   -5.7523   20.5313 C   0  0  0  0  0  0  0  0  0  0  0  0
    6.1500   -6.9102   20.9436 C   0  0  0  0  0  0  0  0  0  0  0  0
    5.2591   -7.8297   19.7722 S   0  0  0  0  0  6  0  0  0  0  0  0
    3.9487   -8.2810   20.4006 O   0  0  0  0  0  0  0  0  0  0  0  0
    5.9710   -9.1083   19.4087 O   0  0  0  0  0  0  0  0  0  0  0  0
    4.8268   -6.9274   18.3816 N   0  0  0  0  0  0  0  0  0  0  0  0
    4.1163   -5.7172   18.3533 C   0  0  0  0  0  0  0  0  0  0  0  0
    3.3827   -5.4368   19.3169 O   0  0  0  0  0  0  0  0  0  0  0  0
    4.1919   -4.7541   17.2402 C   0  0  0  0  0  0  0  0  0  0  0  0
    3.2260   -3.8063   17.0046 C   0  0  0  0  0  0  0  0  0  0  0  0
    3.3054   -2.9038   15.9411 C   0  0  0  0  0  0  0  0  0  0  0  0
    4.3775   -2.9447   15.0853 C   0  0  0  0  0  0  0  0  0  0  0  0
    5.3527   -3.8878   15.3081 C   0  0  0  0  0  0  0  0  0  0  0  0
    5.2631   -4.7866   16.3764 C   0  0  0  0  0  0  0  0  0  0  0  0
    4.5088   -2.0173   13.9574 C   0  0  0  0  0  0  0  0  0  0  0  0
    5.4227   -0.9038   14.2056 C   0  0  0  0  0  0  0  0  0  0  0  0
    6.3987   -0.8397   15.1751 C   0  0  0  0  0  0  0  0  0  0  0  0
    7.0417    0.3350   15.1187 N   0  0  0  0  0  0  0  0  0  0  0  0
    6.5058    1.0574   14.1217 C   0  0  0  0  0  0  0  0  0  0  0  0
    5.4877    0.2923   13.5383 C   0  0  0  0  0  0  0  0  0  0  0  0
    4.7756    0.8162   12.4839 C   0  0  0  0  0  0  0  0  0  0  0  0
    5.0022    2.0777   11.9480 C   0  0  0  0  0  0  0  0  0  0  0  0
    5.9986    2.8010   12.5346 C   0  0  0  0  0  0  0  0  0  0  0  0
    6.7485    2.3146   13.6045 C   0  0  0  0  0  0  0  0  0  0  0  0
    4.1909    2.4763   10.8638 N   0  0  0  0  0  0  0  0  0  0  0  0
    4.5608    3.3703    9.8369 C   0  0  0  0  0  0  0  0  0  0  0  0
    5.0934    2.9719    8.8051 O   0  0  0  0  0  0  0  0  0  0  0  0
    4.3439    4.7496    9.9345 O   0  0  0  0  0  0  0  0  0  0  0  0
    4.2351    5.5780    8.7945 C   0  0  0  0  0  0  0  0  0  0  0  0
    3.8400    6.9883    9.1528 C   0  0  0  0  0  0  0  0  0  0  0  0
    4.9648    7.8897    8.7061 C   0  0  0  0  0  0  0  0  0  0  0  0
    5.6358    7.0869    7.6279 C   0  0  0  0  0  0  0  0  0  0  0  0
    5.5148    5.6464    8.0101 C   0  0  0  0  0  0  0  0  0  0  0  0
    8.1276    0.8045   15.9538 C   0  0  0  0  0  0  0  0  0  0  0  0
    2.3349   -1.9575   15.7120 O   0  0  0  0  0  0  0  0  0  0  0  0
    1.6136   -1.3194   16.7394 C   0  0  0  0  0  0  0  0  0  0  0  0
  1  2  1  0
  2  3  2  0
  3  4  1  0
  4  5  2  0
  5  6  1  0
  6  7  2  0
  7  8  1  0
  8  9  2  0
  8 10  2  0
  8 11  1  0
 11 12  1  0
 12 13  2  0
 12 14  1  0
 14 15  2  0
 15 16  1  0
 16 17  2  0
 17 18  1  0
 18 19  2  0
 17 20  1  0
 20 21  1  0
 21 22  2  0
 22 23  1  0
 23 24  1  0
 24 25  2  0
 25 26  1  0
 26 27  2  0
 27 28  1  0
 28 29  2  0
 27 30  1  0
 30 31  1  0
 31 32  2  0
 31 33  1  0
 33 34  1  0
 34 35  1  0
 35 36  1  0
 36 37  1  0
 37 38  1  0
 23 39  1  0
 16 40  1  0
 40 41  1  0
  7  2  1  0
 19 14  1  0
 25 21  1  0
 29 24  1  0
 38 34  1  0
M  END
$$$$
