
     RDKit          3D

 41 45  0  0  0  0  0  0  0  0999 V2000
    2.9987    4.5938   12.7576 C   0  0  0  0  0  0  0  0  0  0  0  0
    3.8296    4.9462   11.5695 C   0  0  0  0  0  0  0  0  0  0  0  0
    3.1787    5.2419   10.3766 C   0  0  0  0  0  0  0  0  0  0  0  0
    3.8345    5.5617    9.2175 C   0  0  0  0  0  0  0  0  0  0  0  0
    5.2103    5.5800    9.2816 C   0  0  0  0  0  0  0  0  0  0  0  0
    5.8817    5.2951   10.4375 C   0  0  0  0  0  0  0  0  0  0  0  0
    5.1940    4.9693   11.6169 C   0  0  0  0  0  0  0  0  0  0  0  0
    6.1006    4.6353   13.0584 S   0  0  0  0  0  6  0  0  0  0  0  0
    5.3920    5.2802   14.2407 O   0  0  0  0  0  0  0  0  0  0  0  0
    7.4606    5.2857   13.0246 O   0  0  0  0  0  0  0  0  0  0  0  0
    6.2053    2.9658   13.4274 N   0  0  0  0  0  0  0  0  0  0  0  0
    5.6978    1.9034   12.6632 C   0  0  0  0  0  0  0  0  0  0  0  0
    5.3637    2.1251   11.4866 O   0  0  0  0  0  0  0  0  0  0  0  0
    5.5384    0.5321   13.1793 C   0  0  0  0  0  0  0  0  0  0  0  0
    4.5075   -0.2936   12.8024 C   0  0  0  0  0  0  0  0  0  0  0  0
    4.3631   -1.5893   13.3048 C   0  0  0  0  0  0  0  0  0  0  0  0
    5.2710   -2.0791   14.2099 C   0  0  0  0  0  0  0  0  0  0  0  0
    6.3087   -1.2646   14.5970 C   0  0  0  0  0  0  0  0  0  0  0  0
    6.4437    0.0312   14.0873 C   0  0  0  0  0  0  0  0  0  0  0  0
    5.1654   -3.4327   14.7633 C   0  0  0  0  0  0  0  0  0  0  0  0
    4.8642   -3.4692   16.1933 C   0  0  0  0  0  0  0  0  0  0  0  0
    4.9026   -2.4083   17.0705 C   0  0  0  0  0  0  0  0  0  0  0  0
    4.5755   -2.8082   18.3073 N   0  0  0  0  0  0  0  0  0  0  0  0
    4.3189   -4.1256   18.2665 C   0  0  0  0  0  0  0  0  0  0  0  0
    4.4956   -4.5552   16.9450 C   0  0  0  0  0  0  0  0  0  0  0  0
    4.2923   -5.8810   16.6380 C   0  0  0  0  0  0  0  0  0  0  0  0
    3.9163   -6.8417   17.5684 C   0  0  0  0  0  0  0  0  0  0  0  0
    3.7512   -6.3965   18.8470 C   0  0  0  0  0  0  0  0  0  0  0  0
    3.9447   -5.0639   19.2081 C   0  0  0  0  0  0  0  0  0  0  0  0
    3.7430   -8.1626   17.1018 N   0  0  0  0  0  0  0  0  0  0  0  0
    2.6883   -9.0326   17.4498 C   0  0  0  0  0  0  0  0  0  0  0  0
    2.0654   -8.8930   18.4984 O   0  0  0  0  0  0  0  0  0  0  0  0
    2.2952  -10.0949   16.6275 O   0  0  0  0  0  0  0  0  0  0  0  0
    1.1525  -10.0237   15.7988 C   0  0  0  0  0  0  0  0  0  0  0  0
    1.3589   -9.1004   14.6247 C   0  0  0  0  0  0  0  0  0  0  0  0
    1.2207   -9.9357   13.3756 C   0  0  0  0  0  0  0  0  0  0  0  0
    0.3858  -11.0974   13.8344 C   0  0  0  0  0  0  0  0  0  0  0  0
    0.7495  -11.3670   15.2594 C   0  0  0  0  0  0  0  0  0  0  0  0
    4.4949   -2.0136   19.5152 C   0  0  0  0  0  0  0  0  0  0  0  0
    3.3289   -2.4101   12.9223 O   0  0  0  0  0  0  0  0  0  0  0  0
    2.4389   -2.1025   11.8752 C   0  0  0  0  0  0  0  0  0  0  0  0
  1  2  1  0
  2  3  2  0
  3  4  1  0
  4  5  2  0
  5  6  1  0
  6  7  2  0
  7  8  1  0
  8  9  2  0
  8 10  2  0
  8 11  1  0
 11 12  1  0
 12 13  2  0
 12 14  1  0
 14 15  2  0
 15 16  1  0
 16 17  2  0
 17 18  1  0
 18 19  2  0
 17 20  1  0
 20 21  1  0
 21 22  2  0
 22 23  1  0
 23 24  1  0
 24 25  2  0
 25 26  1  0
 26 27  2  0
 27 28  1  0
 28 29  2  0
 27 30  1  0
 30 31  1  0
 31 32  2  0
 31 33  1  0
 33 34  1  0
 34 35  1  0
 35 36  1  0
 36 37  1  0
 37 38  1  0
 23 39  1  0
 16 40  1  0
 40 41  1  0
  7  2  1  0
 19 14  1  0
 25 21  1  0
 29 24  1  0
 38 34  1  0
M  END
$$$$
