
     RDKit          3D

 41 45  0  0  0  0  0  0  0  0999 V2000
    6.5785   -7.7939   19.1694 C   0  0  0  0  0  0  0  0  0  0  0  0
    6.6757   -6.3966   19.6831 C   0  0  0  0  0  0  0  0  0  0  0  0
    7.9367   -5.8180   19.7796 C   0  0  0  0  0  0  0  0  0  0  0  0
    8.1521   -4.5505   20.2520 C   0  0  0  0  0  0  0  0  0  0  0  0
    7.0332   -3.8475   20.6409 C   0  0  0  0  0  0  0  0  0  0  0  0
    5.7795   -4.3856   20.5590 C   0  0  0  0  0  0  0  0  0  0  0  0
    5.5764   -5.6863   20.0721 C   0  0  0  0  0  0  0  0  0  0  0  0
    3.9594   -6.3084   19.9741 S   0  0  0  0  0  6  0  0  0  0  0  0
    3.1781   -5.8294   21.1891 O   0  0  0  0  0  0  0  0  0  0  0  0
    3.9343   -7.8130   20.0702 O   0  0  0  0  0  0  0  0  0  0  0  0
    3.0932   -5.7459   18.6073 N   0  0  0  0  0  0  0  0  0  0  0  0
    3.5103   -5.8001   17.2682 C   0  0  0  0  0  0  0  0  0  0  0  0
    3.8139   -6.9046   16.7853 O   0  0  0  0  0  0  0  0  0  0  0  0
    3.6084   -4.6154   16.3970 C   0  0  0  0  0  0  0  0  0  0  0  0
    3.6921   -4.6984   15.0285 C   0  0  0  0  0  0  0  0  0  0  0  0
    3.7923   -3.5678   14.2139 C   0  0  0  0  0  0  0  0  0  0  0  0
    3.8104   -2.3163   14.7767 C   0  0  0  0  0  0  0  0  0  0  0  0
    3.7273   -2.2167   16.1454 C   0  0  0  0  0  0  0  0  0  0  0  0
    3.6269   -3.3556   16.9515 C   0  0  0  0  0  0  0  0  0  0  0  0
    3.9104   -1.0994   13.9652 C   0  0  0  0  0  0  0  0  0  0  0  0
    5.0658   -0.2633   14.2859 C   0  0  0  0  0  0  0  0  0  0  0  0
    6.0926   -0.5736   15.1496 C   0  0  0  0  0  0  0  0  0  0  0  0
    6.9784    0.4307   15.2076 N   0  0  0  0  0  0  0  0  0  0  0  0
    6.5546    1.4096   14.3920 C   0  0  0  0  0  0  0  0  0  0  0  0
    5.3544    0.9881   13.8055 C   0  0  0  0  0  0  0  0  0  0  0  0
    4.7109    1.8230   12.9210 C   0  0  0  0  0  0  0  0  0  0  0  0
    5.1799    3.0808   12.5633 C   0  0  0  0  0  0  0  0  0  0  0  0
    6.3499    3.4660   13.1489 C   0  0  0  0  0  0  0  0  0  0  0  0
    7.0396    2.6566   14.0504 C   0  0  0  0  0  0  0  0  0  0  0  0
    4.4098    3.8211   11.6406 N   0  0  0  0  0  0  0  0  0  0  0  0
    4.8998    4.4825   10.4948 C   0  0  0  0  0  0  0  0  0  0  0  0
    5.8882    5.2085   10.5507 O   0  0  0  0  0  0  0  0  0  0  0  0
    4.2932    4.3503    9.2404 O   0  0  0  0  0  0  0  0  0  0  0  0
    4.1821    5.4333    8.3390 C   0  0  0  0  0  0  0  0  0  0  0  0
    3.5203    5.0302    7.0455 C   0  0  0  0  0  0  0  0  0  0  0  0
    2.2562    5.8450    6.9228 C   0  0  0  0  0  0  0  0  0  0  0  0
    2.5397    7.0436    7.7830 C   0  0  0  0  0  0  0  0  0  0  0  0
    3.4017    6.5814    8.9140 C   0  0  0  0  0  0  0  0  0  0  0  0
    8.1945    0.5103   15.9897 C   0  0  0  0  0  0  0  0  0  0  0  0
    3.8751   -3.6589   12.8448 O   0  0  0  0  0  0  0  0  0  0  0  0
    2.9316   -4.3411   12.0527 C   0  0  0  0  0  0  0  0  0  0  0  0
  1  2  1  0
  2  3  2  0
  3  4  1  0
  4  5  2  0
  5  6  1  0
  6  7  2  0
  7  8  1  0
  8  9  2  0
  8 10  2  0
  8 11  1  0
 11 12  1  0
 12 13  2  0
 12 14  1  0
 14 15  2  0
 15 16  1  0
 16 17  2  0
 17 18  1  0
 18 19  2  0
 17 20  1  0
 20 21  1  0
 21 22  2  0
 22 23  1  0
 23 24  1  0
 24 25  2  0
 25 26  1  0
 26 27  2  0
 27 28  1  0
 28 29  2  0
 27 30  1  0
 30 31  1  0
 31 32  2  0
 31 33  1  0
 33 34  1  0
 34 35  1  0
 35 36  1  0
 36 37  1  0
 37 38  1  0
 23 39  1  0
 16 40  1  0
 40 41  1  0
  7  2  1  0
 19 14  1  0
 25 21  1  0
 29 24  1  0
 38 34  1  0
M  END
$$$$
