
     RDKit          3D

 41 45  0  0  0  0  0  0  0  0999 V2000
    5.5777   -3.9289   15.4224 C   0  0  0  0  0  0  0  0  0  0  0  0
    5.6122   -3.3777   14.0365 C   0  0  0  0  0  0  0  0  0  0  0  0
    5.2552   -4.2166   12.9863 C   0  0  0  0  0  0  0  0  0  0  0  0
    5.2651   -3.8287   11.6728 C   0  0  0  0  0  0  0  0  0  0  0  0
    5.6554   -2.5314   11.4241 C   0  0  0  0  0  0  0  0  0  0  0  0
    6.0122   -1.6804   12.4322 C   0  0  0  0  0  0  0  0  0  0  0  0
    5.9962   -2.0940   13.7734 C   0  0  0  0  0  0  0  0  0  0  0  0
    6.4418   -0.9626   15.0115 S   0  0  0  0  0  6  0  0  0  0  0  0
    6.8020    0.3621   14.3548 O   0  0  0  0  0  0  0  0  0  0  0  0
    7.6970   -1.3887   15.7303 O   0  0  0  0  0  0  0  0  0  0  0  0
    5.1714   -0.6137   16.1065 N   0  0  0  0  0  0  0  0  0  0  0  0
    3.8896   -0.1421   15.7828 C   0  0  0  0  0  0  0  0  0  0  0  0
    3.5872   -0.0204   14.5833 O   0  0  0  0  0  0  0  0  0  0  0  0
    2.8758    0.2180   16.7902 C   0  0  0  0  0  0  0  0  0  0  0  0
    1.5505    0.4072   16.4828 C   0  0  0  0  0  0  0  0  0  0  0  0
    0.6003    0.7559   17.4458 C   0  0  0  0  0  0  0  0  0  0  0  0
    0.9790    0.9222   18.7544 C   0  0  0  0  0  0  0  0  0  0  0  0
    2.3022    0.7362   19.0779 C   0  0  0  0  0  0  0  0  0  0  0  0
    3.2452    0.3868   18.1055 C   0  0  0  0  0  0  0  0  0  0  0  0
    0.0195    1.2841   19.8023 C   0  0  0  0  0  0  0  0  0  0  0  0
   -0.6402    0.1387   20.4266 C   0  0  0  0  0  0  0  0  0  0  0  0
   -0.4754   -1.1879   20.0955 C   0  0  0  0  0  0  0  0  0  0  0  0
   -1.2445   -1.9654   20.8704 N   0  0  0  0  0  0  0  0  0  0  0  0
   -1.9221   -1.1727   21.7162 C   0  0  0  0  0  0  0  0  0  0  0  0
   -1.5528    0.1520   21.4498 C   0  0  0  0  0  0  0  0  0  0  0  0
   -2.1159    1.1667   22.1892 C   0  0  0  0  0  0  0  0  0  0  0  0
   -3.0446    0.9626   23.2020 C   0  0  0  0  0  0  0  0  0  0  0  0
   -3.3863   -0.3361   23.4404 C   0  0  0  0  0  0  0  0  0  0  0  0
   -2.8438   -1.3989   22.7194 C   0  0  0  0  0  0  0  0  0  0  0  0
   -3.5316    2.1043   23.8742 N   0  0  0  0  0  0  0  0  0  0  0  0
   -3.5416    2.3019   25.2711 C   0  0  0  0  0  0  0  0  0  0  0  0
   -2.5005    2.4712   25.8992 O   0  0  0  0  0  0  0  0  0  0  0  0
   -4.7277    2.3163   26.0141 O   0  0  0  0  0  0  0  0  0  0  0  0
   -4.7694    2.7486   27.3591 C   0  0  0  0  0  0  0  0  0  0  0  0
   -5.8498    2.0514   28.1466 C   0  0  0  0  0  0  0  0  0  0  0  0
   -5.1668    1.2892   29.2556 C   0  0  0  0  0  0  0  0  0  0  0  0
   -3.8682    2.0257   29.4243 C   0  0  0  0  0  0  0  0  0  0  0  0
   -3.4665    2.5273   28.0742 C   0  0  0  0  0  0  0  0  0  0  0  0
   -1.3698   -3.4079   20.8505 C   0  0  0  0  0  0  0  0  0  0  0  0
   -0.7246    0.9430   17.1306 O   0  0  0  0  0  0  0  0  0  0  0  0
   -1.2458    2.1619   16.6555 C   0  0  0  0  0  0  0  0  0  0  0  0
  1  2  1  0
  2  3  2  0
  3  4  1  0
  4  5  2  0
  5  6  1  0
  6  7  2  0
  7  8  1  0
  8  9  2  0
  8 10  2  0
  8 11  1  0
 11 12  1  0
 12 13  2  0
 12 14  1  0
 14 15  2  0
 15 16  1  0
 16 17  2  0
 17 18  1  0
 18 19  2  0
 17 20  1  0
 20 21  1  0
 21 22  2  0
 22 23  1  0
 23 24  1  0
 24 25  2  0
 25 26  1  0
 26 27  2  0
 27 28  1  0
 28 29  2  0
 27 30  1  0
 30 31  1  0
 31 32  2  0
 31 33  1  0
 33 34  1  0
 34 35  1  0
 35 36  1  0
 36 37  1  0
 37 38  1  0
 23 39  1  0
 16 40  1  0
 40 41  1  0
  7  2  1  0
 19 14  1  0
 25 21  1  0
 29 24  1  0
 38 34  1  0
M  END
$$$$
