
     RDKit          3D

 41 45  0  0  0  0  0  0  0  0999 V2000
    4.7525   -6.5841   21.3740 C   0  0  0  0  0  0  0  0  0  0  0  0
    5.2179   -6.7428   19.9654 C   0  0  0  0  0  0  0  0  0  0  0  0
    4.4802   -7.5623   19.1178 C   0  0  0  0  0  0  0  0  0  0  0  0
    4.8186   -7.7978   17.8116 C   0  0  0  0  0  0  0  0  0  0  0  0
    5.9563   -7.1700   17.3549 C   0  0  0  0  0  0  0  0  0  0  0  0
    6.7041   -6.3579   18.1606 C   0  0  0  0  0  0  0  0  0  0  0  0
    6.3430   -6.1270   19.4971 C   0  0  0  0  0  0  0  0  0  0  0  0
    7.3217   -5.0711   20.4660 S   0  0  0  0  0  6  0  0  0  0  0  0
    8.6818   -5.7212   20.6740 O   0  0  0  0  0  0  0  0  0  0  0  0
    6.7580   -4.9072   21.8549 O   0  0  0  0  0  0  0  0  0  0  0  0
    7.6328   -3.5581   19.7253 N   0  0  0  0  0  0  0  0  0  0  0  0
    6.6797   -2.6456   19.2468 C   0  0  0  0  0  0  0  0  0  0  0  0
    5.4967   -2.7807   19.6041 O   0  0  0  0  0  0  0  0  0  0  0  0
    7.0038   -1.5293   18.3406 C   0  0  0  0  0  0  0  0  0  0  0  0
    8.2625   -1.3205   17.8319 C   0  0  0  0  0  0  0  0  0  0  0  0
    8.5589   -0.2539   16.9796 C   0  0  0  0  0  0  0  0  0  0  0  0
    7.5740    0.6326   16.6222 C   0  0  0  0  0  0  0  0  0  0  0  0
    6.3088    0.4368   17.1231 C   0  0  0  0  0  0  0  0  0  0  0  0
    6.0232   -0.6348   17.9757 C   0  0  0  0  0  0  0  0  0  0  0  0
    7.8335    1.7652   15.7281 C   0  0  0  0  0  0  0  0  0  0  0  0
    7.4165    1.5396   14.3454 C   0  0  0  0  0  0  0  0  0  0  0  0
    8.0941    0.8179   13.3880 C   0  0  0  0  0  0  0  0  0  0  0  0
    7.4224    0.8278   12.2281 N   0  0  0  0  0  0  0  0  0  0  0  0
    6.3027    1.5488   12.3996 C   0  0  0  0  0  0  0  0  0  0  0  0
    6.2846    2.0023   13.7248 C   0  0  0  0  0  0  0  0  0  0  0  0
    5.2296    2.7737   14.1552 C   0  0  0  0  0  0  0  0  0  0  0  0
    4.1598    3.1408   13.3485 C   0  0  0  0  0  0  0  0  0  0  0  0
    4.2027    2.6860   12.0634 C   0  0  0  0  0  0  0  0  0  0  0  0
    5.2488    1.9016   11.5799 C   0  0  0  0  0  0  0  0  0  0  0  0
    3.1496    3.9343   13.9337 N   0  0  0  0  0  0  0  0  0  0  0  0
    1.8723    4.1837   13.3889 C   0  0  0  0  0  0  0  0  0  0  0  0
    1.4856    3.6051   12.3776 O   0  0  0  0  0  0  0  0  0  0  0  0
    0.9809    5.0965   13.9646 O   0  0  0  0  0  0  0  0  0  0  0  0
   -0.4209    4.9449   13.8669 C   0  0  0  0  0  0  0  0  0  0  0  0
   -0.8932    3.6383   14.4527 C   0  0  0  0  0  0  0  0  0  0  0  0
   -1.8180    3.9751   15.5966 C   0  0  0  0  0  0  0  0  0  0  0  0
   -2.2939    5.3580   15.2529 C   0  0  0  0  0  0  0  0  0  0  0  0
   -1.1677    6.0519   14.5558 C   0  0  0  0  0  0  0  0  0  0  0  0
    7.7839    0.1955   10.9765 C   0  0  0  0  0  0  0  0  0  0  0  0
    9.8211   -0.0517   16.4740 O   0  0  0  0  0  0  0  0  0  0  0  0
   10.9447   -0.8052   16.8647 C   0  0  0  0  0  0  0  0  0  0  0  0
  1  2  1  0
  2  3  2  0
  3  4  1  0
  4  5  2  0
  5  6  1  0
  6  7  2  0
  7  8  1  0
  8  9  2  0
  8 10  2  0
  8 11  1  0
 11 12  1  0
 12 13  2  0
 12 14  1  0
 14 15  2  0
 15 16  1  0
 16 17  2  0
 17 18  1  0
 18 19  2  0
 17 20  1  0
 20 21  1  0
 21 22  2  0
 22 23  1  0
 23 24  1  0
 24 25  2  0
 25 26  1  0
 26 27  2  0
 27 28  1  0
 28 29  2  0
 27 30  1  0
 30 31  1  0
 31 32  2  0
 31 33  1  0
 33 34  1  0
 34 35  1  0
 35 36  1  0
 36 37  1  0
 37 38  1  0
 23 39  1  0
 16 40  1  0
 40 41  1  0
  7  2  1  0
 19 14  1  0
 25 21  1  0
 29 24  1  0
 38 34  1  0
M  END
$$$$
