
     RDKit          3D

 41 45  0  0  0  0  0  0  0  0999 V2000
    1.6922  -10.5798   11.7916 C   0  0  0  0  0  0  0  0  0  0  0  0
    0.2208  -10.4052   11.6173 C   0  0  0  0  0  0  0  0  0  0  0  0
   -0.3193  -10.6044   10.3514 C   0  0  0  0  0  0  0  0  0  0  0  0
   -1.6509  -10.4563   10.0665 C   0  0  0  0  0  0  0  0  0  0  0  0
   -2.4614  -10.0902   11.1183 C   0  0  0  0  0  0  0  0  0  0  0  0
   -1.9636   -9.8869   12.3748 C   0  0  0  0  0  0  0  0  0  0  0  0
   -0.5962  -10.0432   12.6498 C   0  0  0  0  0  0  0  0  0  0  0  0
   -0.0260   -9.7894   14.2689 S   0  0  0  0  0  6  0  0  0  0  0  0
    0.7274  -11.0320   14.7211 O   0  0  0  0  0  0  0  0  0  0  0  0
   -1.1660   -9.6546   15.2466 O   0  0  0  0  0  0  0  0  0  0  0  0
    1.0838   -8.4916   14.4063 N   0  0  0  0  0  0  0  0  0  0  0  0
    0.8130   -7.1298   14.2001 C   0  0  0  0  0  0  0  0  0  0  0  0
   -0.0995   -6.8181   13.4157 O   0  0  0  0  0  0  0  0  0  0  0  0
    1.5528   -6.0425   14.8655 C   0  0  0  0  0  0  0  0  0  0  0  0
    2.7036   -6.2524   15.5854 C   0  0  0  0  0  0  0  0  0  0  0  0
    3.3917   -5.2141   16.2181 C   0  0  0  0  0  0  0  0  0  0  0  0
    2.9212   -3.9276   16.1330 C   0  0  0  0  0  0  0  0  0  0  0  0
    1.7704   -3.7013   15.4157 C   0  0  0  0  0  0  0  0  0  0  0  0
    1.0896   -4.7487   14.7860 C   0  0  0  0  0  0  0  0  0  0  0  0
    3.6088   -2.8034   16.7757 C   0  0  0  0  0  0  0  0  0  0  0  0
    4.2557   -1.8870   15.8384 C   0  0  0  0  0  0  0  0  0  0  0  0
    4.4047   -2.0665   14.4812 C   0  0  0  0  0  0  0  0  0  0  0  0
    5.0552   -1.0281   13.9378 N   0  0  0  0  0  0  0  0  0  0  0  0
    5.3430   -0.1561   14.9174 C   0  0  0  0  0  0  0  0  0  0  0  0
    4.8468   -0.6815   16.1173 C   0  0  0  0  0  0  0  0  0  0  0  0
    5.0179    0.0301   17.2825 C   0  0  0  0  0  0  0  0  0  0  0  0
    5.6626    1.2588   17.3510 C   0  0  0  0  0  0  0  0  0  0  0  0
    6.1357    1.7470   16.1687 C   0  0  0  0  0  0  0  0  0  0  0  0
    5.9872    1.0646   14.9622 C   0  0  0  0  0  0  0  0  0  0  0  0
    5.7586    1.8700   18.6198 N   0  0  0  0  0  0  0  0  0  0  0  0
    5.9659    3.2441   18.8639 C   0  0  0  0  0  0  0  0  0  0  0  0
    5.2595    3.8659   19.6522 O   0  0  0  0  0  0  0  0  0  0  0  0
    6.9792    3.9704   18.2276 O   0  0  0  0  0  0  0  0  0  0  0  0
    6.8461    5.3449   17.9267 C   0  0  0  0  0  0  0  0  0  0  0  0
    7.2727    6.2221   19.0765 C   0  0  0  0  0  0  0  0  0  0  0  0
    8.4351    7.0530   18.5912 C   0  0  0  0  0  0  0  0  0  0  0  0
    8.2450    7.0656   17.1010 C   0  0  0  0  0  0  0  0  0  0  0  0
    7.6467    5.7490   16.7211 C   0  0  0  0  0  0  0  0  0  0  0  0
    5.4154   -0.8217   12.5504 C   0  0  0  0  0  0  0  0  0  0  0  0
    4.5432   -5.4319   16.9364 O   0  0  0  0  0  0  0  0  0  0  0  0
    5.5908   -6.2618   16.4927 C   0  0  0  0  0  0  0  0  0  0  0  0
  1  2  1  0
  2  3  2  0
  3  4  1  0
  4  5  2  0
  5  6  1  0
  6  7  2  0
  7  8  1  0
  8  9  2  0
  8 10  2  0
  8 11  1  0
 11 12  1  0
 12 13  2  0
 12 14  1  0
 14 15  2  0
 15 16  1  0
 16 17  2  0
 17 18  1  0
 18 19  2  0
 17 20  1  0
 20 21  1  0
 21 22  2  0
 22 23  1  0
 23 24  1  0
 24 25  2  0
 25 26  1  0
 26 27  2  0
 27 28  1  0
 28 29  2  0
 27 30  1  0
 30 31  1  0
 31 32  2  0
 31 33  1  0
 33 34  1  0
 34 35  1  0
 35 36  1  0
 36 37  1  0
 37 38  1  0
 23 39  1  0
 16 40  1  0
 40 41  1  0
  7  2  1  0
 19 14  1  0
 25 21  1  0
 29 24  1  0
 38 34  1  0
M  END
$$$$
