
     RDKit          3D

 41 45  0  0  0  0  0  0  0  0999 V2000
    3.1904   -7.8019   12.8279 C   0  0  0  0  0  0  0  0  0  0  0  0
    2.2610   -6.6348   12.8400 C   0  0  0  0  0  0  0  0  0  0  0  0
    1.1548   -6.6667   11.9978 C   0  0  0  0  0  0  0  0  0  0  0  0
    0.2431   -5.6484   11.9094 C   0  0  0  0  0  0  0  0  0  0  0  0
    0.4722   -4.5547   12.7147 C   0  0  0  0  0  0  0  0  0  0  0  0
    1.5488   -4.4907   13.5542 C   0  0  0  0  0  0  0  0  0  0  0  0
    2.4738   -5.5435   13.6326 C   0  0  0  0  0  0  0  0  0  0  0  0
    3.8109   -5.4128   14.7310 S   0  0  0  0  0  6  0  0  0  0  0  0
    5.0530   -5.9770   14.0566 O   0  0  0  0  0  0  0  0  0  0  0  0
    3.6138   -6.2728   15.9538 O   0  0  0  0  0  0  0  0  0  0  0  0
    4.1962   -3.7966   15.1480 N   0  0  0  0  0  0  0  0  0  0  0  0
    4.4442   -2.7370   14.2614 C   0  0  0  0  0  0  0  0  0  0  0  0
    4.5774   -2.9933   13.0524 O   0  0  0  0  0  0  0  0  0  0  0  0
    4.5552   -1.3296   14.6850 C   0  0  0  0  0  0  0  0  0  0  0  0
    4.4555   -0.2754   13.8101 C   0  0  0  0  0  0  0  0  0  0  0  0
    4.5701    1.0544   14.2230 C   0  0  0  0  0  0  0  0  0  0  0  0
    4.7911    1.3453   15.5459 C   0  0  0  0  0  0  0  0  0  0  0  0
    4.8932    0.3008   16.4339 C   0  0  0  0  0  0  0  0  0  0  0  0
    4.7765   -1.0271   16.0095 C   0  0  0  0  0  0  0  0  0  0  0  0
    4.9150    2.7238   16.0294 C   0  0  0  0  0  0  0  0  0  0  0  0
    5.4027    2.8311   17.4032 C   0  0  0  0  0  0  0  0  0  0  0  0
    6.7040    3.0434   17.8011 C   0  0  0  0  0  0  0  0  0  0  0  0
    6.7875    3.0777   19.1384 N   0  0  0  0  0  0  0  0  0  0  0  0
    5.5558    2.8904   19.6392 C   0  0  0  0  0  0  0  0  0  0  0  0
    4.6749    2.7344   18.5613 C   0  0  0  0  0  0  0  0  0  0  0  0
    3.3384    2.5247   18.8125 C   0  0  0  0  0  0  0  0  0  0  0  0
    2.7925    2.4557   20.0881 C   0  0  0  0  0  0  0  0  0  0  0  0
    3.6721    2.6108   21.1188 C   0  0  0  0  0  0  0  0  0  0  0  0
    5.0345    2.8257   20.9163 C   0  0  0  0  0  0  0  0  0  0  0  0
    1.4013    2.2376   20.1864 N   0  0  0  0  0  0  0  0  0  0  0  0
    0.6286    2.3345   21.3629 C   0  0  0  0  0  0  0  0  0  0  0  0
    1.0802    2.8473   22.3827 O   0  0  0  0  0  0  0  0  0  0  0  0
   -0.6849    1.8563   21.4343 O   0  0  0  0  0  0  0  0  0  0  0  0
   -1.4324    1.8823   22.6336 C   0  0  0  0  0  0  0  0  0  0  0  0
   -2.2106    3.1642   22.7901 C   0  0  0  0  0  0  0  0  0  0  0  0
   -3.6723    2.7918   22.8324 C   0  0  0  0  0  0  0  0  0  0  0  0
   -3.6453    1.3610   23.2898 C   0  0  0  0  0  0  0  0  0  0  0  0
   -2.4056    0.7415   22.7287 C   0  0  0  0  0  0  0  0  0  0  0  0
    7.9640    3.2764   19.9590 C   0  0  0  0  0  0  0  0  0  0  0  0
    4.4686    2.1043   13.3415 O   0  0  0  0  0  0  0  0  0  0  0  0
    5.0354    2.0944   12.0524 C   0  0  0  0  0  0  0  0  0  0  0  0
  1  2  1  0
  2  3  2  0
  3  4  1  0
  4  5  2  0
  5  6  1  0
  6  7  2  0
  7  8  1  0
  8  9  2  0
  8 10  2  0
  8 11  1  0
 11 12  1  0
 12 13  2  0
 12 14  1  0
 14 15  2  0
 15 16  1  0
 16 17  2  0
 17 18  1  0
 18 19  2  0
 17 20  1  0
 20 21  1  0
 21 22  2  0
 22 23  1  0
 23 24  1  0
 24 25  2  0
 25 26  1  0
 26 27  2  0
 27 28  1  0
 28 29  2  0
 27 30  1  0
 30 31  1  0
 31 32  2  0
 31 33  1  0
 33 34  1  0
 34 35  1  0
 35 36  1  0
 36 37  1  0
 37 38  1  0
 23 39  1  0
 16 40  1  0
 40 41  1  0
  7  2  1  0
 19 14  1  0
 25 21  1  0
 29 24  1  0
 38 34  1  0
M  END
$$$$
