
     RDKit          3D

 41 45  0  0  0  0  0  0  0  0999 V2000
    7.2139   -8.5170   18.3004 C   0  0  0  0  0  0  0  0  0  0  0  0
    6.6465   -7.6783   19.3961 C   0  0  0  0  0  0  0  0  0  0  0  0
    7.5077   -7.2232   20.3888 C   0  0  0  0  0  0  0  0  0  0  0  0
    7.0998   -6.4620   21.4519 C   0  0  0  0  0  0  0  0  0  0  0  0
    5.7581   -6.1543   21.5011 C   0  0  0  0  0  0  0  0  0  0  0  0
    4.8845   -6.5847   20.5423 C   0  0  0  0  0  0  0  0  0  0  0  0
    5.3192   -7.3641   19.4589 C   0  0  0  0  0  0  0  0  0  0  0  0
    4.1663   -7.8653   18.2627 S   0  0  0  0  0  6  0  0  0  0  0  0
    2.8114   -8.0387   18.9337 O   0  0  0  0  0  0  0  0  0  0  0  0
    4.4965   -9.2275   17.7067 O   0  0  0  0  0  0  0  0  0  0  0  0
    3.9295   -6.7127   17.0177 N   0  0  0  0  0  0  0  0  0  0  0  0
    3.0326   -5.6331   17.0323 C   0  0  0  0  0  0  0  0  0  0  0  0
    1.9838   -5.7415   17.6907 O   0  0  0  0  0  0  0  0  0  0  0  0
    3.2655   -4.3708   16.3080 C   0  0  0  0  0  0  0  0  0  0  0  0
    2.4082   -3.2999   16.3771 C   0  0  0  0  0  0  0  0  0  0  0  0
    2.6362   -2.1111   15.6795 C   0  0  0  0  0  0  0  0  0  0  0  0
    3.7504   -1.9829   14.8885 C   0  0  0  0  0  0  0  0  0  0  0  0
    4.6183   -3.0462   14.8091 C   0  0  0  0  0  0  0  0  0  0  0  0
    4.3802   -4.2319   15.5123 C   0  0  0  0  0  0  0  0  0  0  0  0
    4.0363   -0.7552   14.1399 C   0  0  0  0  0  0  0  0  0  0  0  0
    5.0760    0.0792   14.7396 C   0  0  0  0  0  0  0  0  0  0  0  0
    5.8542   -0.2327   15.8321 C   0  0  0  0  0  0  0  0  0  0  0  0
    6.6986    0.7704   16.1103 N   0  0  0  0  0  0  0  0  0  0  0  0
    6.4931    1.7501   15.2153 C   0  0  0  0  0  0  0  0  0  0  0  0
    5.4769    1.3304   14.3474 C   0  0  0  0  0  0  0  0  0  0  0  0
    5.0757    2.1665   13.3308 C   0  0  0  0  0  0  0  0  0  0  0  0
    5.6206    3.4238   13.1025 C   0  0  0  0  0  0  0  0  0  0  0  0
    6.6077    3.8073   13.9619 C   0  0  0  0  0  0  0  0  0  0  0  0
    7.0495    2.9966   15.0066 C   0  0  0  0  0  0  0  0  0  0  0  0
    5.1062    4.1655   12.0172 N   0  0  0  0  0  0  0  0  0  0  0  0
    5.7837    4.4497   10.8127 C   0  0  0  0  0  0  0  0  0  0  0  0
    6.8847    3.9641   10.5697 O   0  0  0  0  0  0  0  0  0  0  0  0
    5.2446    5.2936    9.8347 O   0  0  0  0  0  0  0  0  0  0  0  0
    5.7469    5.3342    8.5142 C   0  0  0  0  0  0  0  0  0  0  0  0
    5.8491    3.9597    7.9028 C   0  0  0  0  0  0  0  0  0  0  0  0
    4.9403    3.9429    6.6982 C   0  0  0  0  0  0  0  0  0  0  0  0
    4.8357    5.3960    6.3312 C   0  0  0  0  0  0  0  0  0  0  0  0
    4.9009    6.1785    7.6036 C   0  0  0  0  0  0  0  0  0  0  0  0
    7.6809    0.8481   17.1714 C   0  0  0  0  0  0  0  0  0  0  0  0
    1.7738   -1.0433   15.7541 O   0  0  0  0  0  0  0  0  0  0  0  0
    0.4547   -1.0738   15.2622 C   0  0  0  0  0  0  0  0  0  0  0  0
  1  2  1  0
  2  3  2  0
  3  4  1  0
  4  5  2  0
  5  6  1  0
  6  7  2  0
  7  8  1  0
  8  9  2  0
  8 10  2  0
  8 11  1  0
 11 12  1  0
 12 13  2  0
 12 14  1  0
 14 15  2  0
 15 16  1  0
 16 17  2  0
 17 18  1  0
 18 19  2  0
 17 20  1  0
 20 21  1  0
 21 22  2  0
 22 23  1  0
 23 24  1  0
 24 25  2  0
 25 26  1  0
 26 27  2  0
 27 28  1  0
 28 29  2  0
 27 30  1  0
 30 31  1  0
 31 32  2  0
 31 33  1  0
 33 34  1  0
 34 35  1  0
 35 36  1  0
 36 37  1  0
 37 38  1  0
 23 39  1  0
 16 40  1  0
 40 41  1  0
  7  2  1  0
 19 14  1  0
 25 21  1  0
 29 24  1  0
 38 34  1  0
M  END
$$$$
