
     RDKit          3D

 41 45  0  0  0  0  0  0  0  0999 V2000
    4.0727    5.3175    8.7894 C   0  0  0  0  0  0  0  0  0  0  0  0
    2.8636    4.5365    9.1820 C   0  0  0  0  0  0  0  0  0  0  0  0
    1.7511    4.5845    8.3489 C   0  0  0  0  0  0  0  0  0  0  0  0
    0.5804    3.9245    8.6133 C   0  0  0  0  0  0  0  0  0  0  0  0
    0.5470    3.1863    9.7757 C   0  0  0  0  0  0  0  0  0  0  0  0
    1.6221    3.1171   10.6166 C   0  0  0  0  0  0  0  0  0  0  0  0
    2.8148    3.7996   10.3304 C   0  0  0  0  0  0  0  0  0  0  0  0
    4.1525    3.6585   11.4268 S   0  0  0  0  0  6  0  0  0  0  0  0
    4.1186    4.8350   12.3914 O   0  0  0  0  0  0  0  0  0  0  0  0
    5.4743    3.7856   10.7125 O   0  0  0  0  0  0  0  0  0  0  0  0
    4.0910    2.2507   12.4009 N   0  0  0  0  0  0  0  0  0  0  0  0
    3.5400    1.0089   12.0482 C   0  0  0  0  0  0  0  0  0  0  0  0
    2.9447    0.9107   10.9614 O   0  0  0  0  0  0  0  0  0  0  0  0
    3.6285   -0.1923   12.8977 C   0  0  0  0  0  0  0  0  0  0  0  0
    2.8802   -1.3224   12.6750 C   0  0  0  0  0  0  0  0  0  0  0  0
    2.9676   -2.4522   13.4922 C   0  0  0  0  0  0  0  0  0  0  0  0
    3.8248   -2.4588   14.5640 C   0  0  0  0  0  0  0  0  0  0  0  0
    4.5808   -1.3350   14.8000 C   0  0  0  0  0  0  0  0  0  0  0  0
    4.4853   -0.2093   13.9749 C   0  0  0  0  0  0  0  0  0  0  0  0
    3.9556   -3.6205   15.4488 C   0  0  0  0  0  0  0  0  0  0  0  0
    3.4487   -3.3983   16.8017 C   0  0  0  0  0  0  0  0  0  0  0  0
    2.1315   -3.4266   17.2028 C   0  0  0  0  0  0  0  0  0  0  0  0
    2.0334   -3.1703   18.5148 N   0  0  0  0  0  0  0  0  0  0  0  0
    3.2712   -2.9706   18.9954 C   0  0  0  0  0  0  0  0  0  0  0  0
    4.1711   -3.1109   17.9312 C   0  0  0  0  0  0  0  0  0  0  0  0
    5.5174   -2.9500   18.1659 C   0  0  0  0  0  0  0  0  0  0  0  0
    6.0554   -2.6515   19.4114 C   0  0  0  0  0  0  0  0  0  0  0  0
    5.1572   -2.5204   20.4294 C   0  0  0  0  0  0  0  0  0  0  0  0
    3.7842   -2.6742   20.2427 C   0  0  0  0  0  0  0  0  0  0  0  0
    7.4581   -2.5188   19.4963 N   0  0  0  0  0  0  0  0  0  0  0  0
    8.2701   -2.9681   20.5589 C   0  0  0  0  0  0  0  0  0  0  0  0
    8.1321   -4.0903   21.0372 O   0  0  0  0  0  0  0  0  0  0  0  0
    9.2702   -2.1681   21.1236 O   0  0  0  0  0  0  0  0  0  0  0  0
   10.6369   -2.3309   20.8022 C   0  0  0  0  0  0  0  0  0  0  0  0
   10.8322   -2.8636   19.4052 C   0  0  0  0  0  0  0  0  0  0  0  0
   11.6055   -1.8194   18.6378 C   0  0  0  0  0  0  0  0  0  0  0  0
   12.3109   -1.0544   19.7215 C   0  0  0  0  0  0  0  0  0  0  0  0
   11.4102   -1.0475   20.9150 C   0  0  0  0  0  0  0  0  0  0  0  0
    0.8378   -3.1047   19.3292 C   0  0  0  0  0  0  0  0  0  0  0  0
    2.2158   -3.5799   13.2627 O   0  0  0  0  0  0  0  0  0  0  0  0
    1.0163   -3.5774   12.5249 C   0  0  0  0  0  0  0  0  0  0  0  0
  1  2  1  0
  2  3  2  0
  3  4  1  0
  4  5  2  0
  5  6  1  0
  6  7  2  0
  7  8  1  0
  8  9  2  0
  8 10  2  0
  8 11  1  0
 11 12  1  0
 12 13  2  0
 12 14  1  0
 14 15  2  0
 15 16  1  0
 16 17  2  0
 17 18  1  0
 18 19  2  0
 17 20  1  0
 20 21  1  0
 21 22  2  0
 22 23  1  0
 23 24  1  0
 24 25  2  0
 25 26  1  0
 26 27  2  0
 27 28  1  0
 28 29  2  0
 27 30  1  0
 30 31  1  0
 31 32  2  0
 31 33  1  0
 33 34  1  0
 34 35  1  0
 35 36  1  0
 36 37  1  0
 37 38  1  0
 23 39  1  0
 16 40  1  0
 40 41  1  0
  7  2  1  0
 19 14  1  0
 25 21  1  0
 29 24  1  0
 38 34  1  0
M  END
$$$$
