
     RDKit          3D

 41 45  0  0  0  0  0  0  0  0999 V2000
   -3.2393   -5.9261   17.5156 C   0  0  0  0  0  0  0  0  0  0  0  0
   -4.1863   -5.0546   16.7609 C   0  0  0  0  0  0  0  0  0  0  0  0
   -4.9283   -5.6259   15.7327 C   0  0  0  0  0  0  0  0  0  0  0  0
   -5.8147   -4.9233   14.9603 C   0  0  0  0  0  0  0  0  0  0  0  0
   -5.9472   -3.5836   15.2515 C   0  0  0  0  0  0  0  0  0  0  0  0
   -5.2339   -2.9903   16.2551 C   0  0  0  0  0  0  0  0  0  0  0  0
   -4.3296   -3.7251   17.0376 C   0  0  0  0  0  0  0  0  0  0  0  0
   -3.4663   -2.9208   18.3100 S   0  0  0  0  0  6  0  0  0  0  0  0
   -3.3864   -3.8530   19.5102 O   0  0  0  0  0  0  0  0  0  0  0  0
   -4.2134   -1.7112   18.8124 O   0  0  0  0  0  0  0  0  0  0  0  0
   -1.8464   -2.5411   17.9018 N   0  0  0  0  0  0  0  0  0  0  0  0
   -1.3479   -2.2562   16.6210 C   0  0  0  0  0  0  0  0  0  0  0  0
   -2.1485   -2.1979   15.6718 O   0  0  0  0  0  0  0  0  0  0  0  0
    0.0787   -2.0197   16.3362 C   0  0  0  0  0  0  0  0  0  0  0  0
    0.5773   -1.9020   15.0618 C   0  0  0  0  0  0  0  0  0  0  0  0
    1.9333   -1.6855   14.8046 C   0  0  0  0  0  0  0  0  0  0  0  0
    2.8212   -1.5834   15.8461 C   0  0  0  0  0  0  0  0  0  0  0  0
    2.3374   -1.6990   17.1278 C   0  0  0  0  0  0  0  0  0  0  0  0
    0.9774   -1.9155   17.3737 C   0  0  0  0  0  0  0  0  0  0  0  0
    4.2527   -1.3528   15.6287 C   0  0  0  0  0  0  0  0  0  0  0  0
    5.0885   -2.5271   15.8725 C   0  0  0  0  0  0  0  0  0  0  0  0
    4.6941   -3.8453   15.8140 C   0  0  0  0  0  0  0  0  0  0  0  0
    5.7208   -4.6569   16.1036 N   0  0  0  0  0  0  0  0  0  0  0  0
    6.7975   -3.8953   16.3555 C   0  0  0  0  0  0  0  0  0  0  0  0
    6.4162   -2.5550   16.2139 C   0  0  0  0  0  0  0  0  0  0  0  0
    7.3500   -1.5664   16.4237 C   0  0  0  0  0  0  0  0  0  0  0  0
    8.6718   -1.8123   16.7736 C   0  0  0  0  0  0  0  0  0  0  0  0
    9.0161   -3.1255   16.9048 C   0  0  0  0  0  0  0  0  0  0  0  0
    8.1071   -4.1630   16.7026 C   0  0  0  0  0  0  0  0  0  0  0  0
    9.5134   -0.6933   16.9527 N   0  0  0  0  0  0  0  0  0  0  0  0
   10.8067   -0.7111   17.5164 C   0  0  0  0  0  0  0  0  0  0  0  0
   11.1797   -1.6387   18.2288 O   0  0  0  0  0  0  0  0  0  0  0  0
   11.7300    0.3179   17.2980 O   0  0  0  0  0  0  0  0  0  0  0  0
   12.2464    1.1039   18.3531 C   0  0  0  0  0  0  0  0  0  0  0  0
   13.1096    2.2332   17.8503 C   0  0  0  0  0  0  0  0  0  0  0  0
   12.4533    3.5198   18.2874 C   0  0  0  0  0  0  0  0  0  0  0  0
   11.6304    3.0965   19.4709 C   0  0  0  0  0  0  0  0  0  0  0  0
   11.1640    1.7005   19.2077 C   0  0  0  0  0  0  0  0  0  0  0  0
    5.7337   -6.1041   16.1543 C   0  0  0  0  0  0  0  0  0  0  0  0
    2.4248   -1.5681   13.5262 O   0  0  0  0  0  0  0  0  0  0  0  0
    1.9803   -2.3563   12.4472 C   0  0  0  0  0  0  0  0  0  0  0  0
  1  2  1  0
  2  3  2  0
  3  4  1  0
  4  5  2  0
  5  6  1  0
  6  7  2  0
  7  8  1  0
  8  9  2  0
  8 10  2  0
  8 11  1  0
 11 12  1  0
 12 13  2  0
 12 14  1  0
 14 15  2  0
 15 16  1  0
 16 17  2  0
 17 18  1  0
 18 19  2  0
 17 20  1  0
 20 21  1  0
 21 22  2  0
 22 23  1  0
 23 24  1  0
 24 25  2  0
 25 26  1  0
 26 27  2  0
 27 28  1  0
 28 29  2  0
 27 30  1  0
 30 31  1  0
 31 32  2  0
 31 33  1  0
 33 34  1  0
 34 35  1  0
 35 36  1  0
 36 37  1  0
 37 38  1  0
 23 39  1  0
 16 40  1  0
 40 41  1  0
  7  2  1  0
 19 14  1  0
 25 21  1  0
 29 24  1  0
 38 34  1  0
M  END
$$$$
