
     RDKit          3D

 41 45  0  0  0  0  0  0  0  0999 V2000
    4.6222  -10.7157   18.6348 C   0  0  0  0  0  0  0  0  0  0  0  0
    3.7099  -10.6415   17.4566 C   0  0  0  0  0  0  0  0  0  0  0  0
    3.8013  -11.6379   16.4907 C   0  0  0  0  0  0  0  0  0  0  0  0
    3.0298  -11.6663   15.3593 C   0  0  0  0  0  0  0  0  0  0  0  0
    2.1294  -10.6346   15.2106 C   0  0  0  0  0  0  0  0  0  0  0  0
    2.0133   -9.6397   16.1405 C   0  0  0  0  0  0  0  0  0  0  0  0
    2.8117   -9.6259   17.2947 C   0  0  0  0  0  0  0  0  0  0  0  0
    2.6058   -8.3464   18.4488 S   0  0  0  0  0  6  0  0  0  0  0  0
    3.3542   -8.7130   19.7221 O   0  0  0  0  0  0  0  0  0  0  0  0
    1.1663   -8.2075   18.8760 O   0  0  0  0  0  0  0  0  0  0  0  0
    3.2613   -6.8501   17.9331 N   0  0  0  0  0  0  0  0  0  0  0  0
    4.3149   -6.6634   17.0246 C   0  0  0  0  0  0  0  0  0  0  0  0
    5.0857   -7.6138   16.8060 O   0  0  0  0  0  0  0  0  0  0  0  0
    4.5598   -5.3976   16.3103 C   0  0  0  0  0  0  0  0  0  0  0  0
    3.5531   -4.5349   15.9510 C   0  0  0  0  0  0  0  0  0  0  0  0
    3.7975   -3.3414   15.2671 C   0  0  0  0  0  0  0  0  0  0  0  0
    5.0819   -2.9948   14.9297 C   0  0  0  0  0  0  0  0  0  0  0  0
    6.1005   -3.8481   15.2826 C   0  0  0  0  0  0  0  0  0  0  0  0
    5.8443   -5.0406   15.9676 C   0  0  0  0  0  0  0  0  0  0  0  0
    5.3906   -1.7521   14.2158 C   0  0  0  0  0  0  0  0  0  0  0  0
    5.8759   -0.6755   15.0774 C   0  0  0  0  0  0  0  0  0  0  0  0
    6.6024   -0.8144   16.2390 C   0  0  0  0  0  0  0  0  0  0  0  0
    6.8689    0.3856   16.7737 N   0  0  0  0  0  0  0  0  0  0  0  0
    6.3279    1.3255   15.9819 C   0  0  0  0  0  0  0  0  0  0  0  0
    5.7010    0.6744   14.9118 C   0  0  0  0  0  0  0  0  0  0  0  0
    5.0634    1.4250   13.9509 C   0  0  0  0  0  0  0  0  0  0  0  0
    4.9977    2.8126   13.9705 C   0  0  0  0  0  0  0  0  0  0  0  0
    5.6161    3.4207   15.0230 C   0  0  0  0  0  0  0  0  0  0  0  0
    6.2754    2.7048   16.0212 C   0  0  0  0  0  0  0  0  0  0  0  0
    4.3093    3.4435   12.9119 N   0  0  0  0  0  0  0  0  0  0  0  0
    4.7698    4.5495   12.1668 C   0  0  0  0  0  0  0  0  0  0  0  0
    5.8379    5.0952   12.4284 O   0  0  0  0  0  0  0  0  0  0  0  0
    4.0424    5.0832   11.0967 O   0  0  0  0  0  0  0  0  0  0  0  0
    4.6721    5.6486    9.9647 C   0  0  0  0  0  0  0  0  0  0  0  0
    4.6639    4.7121    8.7831 C   0  0  0  0  0  0  0  0  0  0  0  0
    3.8817    5.3914    7.6859 C   0  0  0  0  0  0  0  0  0  0  0  0
    3.9926    6.8470    8.0408 C   0  0  0  0  0  0  0  0  0  0  0  0
    4.0290    6.9361    9.5329 C   0  0  0  0  0  0  0  0  0  0  0  0
    7.6025    0.6848   17.9858 C   0  0  0  0  0  0  0  0  0  0  0  0
    2.7848   -2.4827   14.9113 O   0  0  0  0  0  0  0  0  0  0  0  0
    1.5318   -2.9139   14.4345 C   0  0  0  0  0  0  0  0  0  0  0  0
  1  2  1  0
  2  3  2  0
  3  4  1  0
  4  5  2  0
  5  6  1  0
  6  7  2  0
  7  8  1  0
  8  9  2  0
  8 10  2  0
  8 11  1  0
 11 12  1  0
 12 13  2  0
 12 14  1  0
 14 15  2  0
 15 16  1  0
 16 17  2  0
 17 18  1  0
 18 19  2  0
 17 20  1  0
 20 21  1  0
 21 22  2  0
 22 23  1  0
 23 24  1  0
 24 25  2  0
 25 26  1  0
 26 27  2  0
 27 28  1  0
 28 29  2  0
 27 30  1  0
 30 31  1  0
 31 32  2  0
 31 33  1  0
 33 34  1  0
 34 35  1  0
 35 36  1  0
 36 37  1  0
 37 38  1  0
 23 39  1  0
 16 40  1  0
 40 41  1  0
  7  2  1  0
 19 14  1  0
 25 21  1  0
 29 24  1  0
 38 34  1  0
M  END
$$$$
