
     RDKit          3D

 41 45  0  0  0  0  0  0  0  0999 V2000
   -1.8856   -7.6396   12.0682 C   0  0  0  0  0  0  0  0  0  0  0  0
   -1.2269   -8.9604   11.8502 C   0  0  0  0  0  0  0  0  0  0  0  0
   -1.1499   -9.4499   10.5507 C   0  0  0  0  0  0  0  0  0  0  0  0
   -0.5848  -10.6557   10.2300 C   0  0  0  0  0  0  0  0  0  0  0  0
   -0.0785  -11.3891   11.2803 C   0  0  0  0  0  0  0  0  0  0  0  0
   -0.1371  -10.9378   12.5689 C   0  0  0  0  0  0  0  0  0  0  0  0
   -0.7196   -9.6993   12.8802 C   0  0  0  0  0  0  0  0  0  0  0  0
   -0.7480   -9.1710   14.5329 S   0  0  0  0  0  6  0  0  0  0  0  0
   -0.0688  -10.2261   15.3939 O   0  0  0  0  0  0  0  0  0  0  0  0
   -2.1556   -9.0874   15.0672 O   0  0  0  0  0  0  0  0  0  0  0  0
    0.1188   -7.7178   14.8000 N   0  0  0  0  0  0  0  0  0  0  0  0
    1.5036   -7.5299   14.6689 C   0  0  0  0  0  0  0  0  0  0  0  0
    2.2460   -8.5252   14.7277 O   0  0  0  0  0  0  0  0  0  0  0  0
    2.1309   -6.2121   14.4631 C   0  0  0  0  0  0  0  0  0  0  0  0
    1.4065   -5.0596   14.2797 C   0  0  0  0  0  0  0  0  0  0  0  0
    2.0131   -3.8173   14.0780 C   0  0  0  0  0  0  0  0  0  0  0  0
    3.3817   -3.7175   14.0575 C   0  0  0  0  0  0  0  0  0  0  0  0
    4.1207   -4.8623   14.2398 C   0  0  0  0  0  0  0  0  0  0  0  0
    3.5028   -6.1011   14.4413 C   0  0  0  0  0  0  0  0  0  0  0  0
    4.0656   -2.4369   13.8532 C   0  0  0  0  0  0  0  0  0  0  0  0
    4.3844   -1.7282   15.0913 C   0  0  0  0  0  0  0  0  0  0  0  0
    4.5825   -2.2887   16.3336 C   0  0  0  0  0  0  0  0  0  0  0  0
    4.8482   -1.3390   17.2414 N   0  0  0  0  0  0  0  0  0  0  0  0
    4.8296   -0.1492   16.6194 C   0  0  0  0  0  0  0  0  0  0  0  0
    4.5399   -0.3773   15.2681 C   0  0  0  0  0  0  0  0  0  0  0  0
    4.4616    0.6945   14.4088 C   0  0  0  0  0  0  0  0  0  0  0  0
    4.6538    2.0141   14.7983 C   0  0  0  0  0  0  0  0  0  0  0  0
    4.9343    2.2077   16.1189 C   0  0  0  0  0  0  0  0  0  0  0  0
    5.0248    1.1552   17.0287 C   0  0  0  0  0  0  0  0  0  0  0  0
    4.5435    3.0067   13.8008 N   0  0  0  0  0  0  0  0  0  0  0  0
    5.3879    4.1268   13.6495 C   0  0  0  0  0  0  0  0  0  0  0  0
    6.5464    4.1121   14.0554 O   0  0  0  0  0  0  0  0  0  0  0  0
    4.9576    5.3079   13.0340 O   0  0  0  0  0  0  0  0  0  0  0  0
    5.8353    6.1395   12.3021 C   0  0  0  0  0  0  0  0  0  0  0  0
    5.9273    5.7326   10.8532 C   0  0  0  0  0  0  0  0  0  0  0  0
    5.4310    6.8987   10.0340 C   0  0  0  0  0  0  0  0  0  0  0  0
    5.6425    8.0713   10.9491 C   0  0  0  0  0  0  0  0  0  0  0  0
    5.4276    7.5850   12.3466 C   0  0  0  0  0  0  0  0  0  0  0  0
    5.1158   -1.4993   18.6555 C   0  0  0  0  0  0  0  0  0  0  0  0
    1.2813   -2.6680   13.8957 O   0  0  0  0  0  0  0  0  0  0  0  0
   -0.1215   -2.6509   13.7739 C   0  0  0  0  0  0  0  0  0  0  0  0
  1  2  1  0
  2  3  2  0
  3  4  1  0
  4  5  2  0
  5  6  1  0
  6  7  2  0
  7  8  1  0
  8  9  2  0
  8 10  2  0
  8 11  1  0
 11 12  1  0
 12 13  2  0
 12 14  1  0
 14 15  2  0
 15 16  1  0
 16 17  2  0
 17 18  1  0
 18 19  2  0
 17 20  1  0
 20 21  1  0
 21 22  2  0
 22 23  1  0
 23 24  1  0
 24 25  2  0
 25 26  1  0
 26 27  2  0
 27 28  1  0
 28 29  2  0
 27 30  1  0
 30 31  1  0
 31 32  2  0
 31 33  1  0
 33 34  1  0
 34 35  1  0
 35 36  1  0
 36 37  1  0
 37 38  1  0
 23 39  1  0
 16 40  1  0
 40 41  1  0
  7  2  1  0
 19 14  1  0
 25 21  1  0
 29 24  1  0
 38 34  1  0
M  END
$$$$
