
     RDKit          3D

 41 45  0  0  0  0  0  0  0  0999 V2000
    4.2967    5.7015   13.2224 C   0  0  0  0  0  0  0  0  0  0  0  0
    5.6777    5.4527   12.7157 C   0  0  0  0  0  0  0  0  0  0  0  0
    6.7048    6.2678   13.1793 C   0  0  0  0  0  0  0  0  0  0  0  0
    8.0073    6.1462   12.7734 C   0  0  0  0  0  0  0  0  0  0  0  0
    8.2690    5.1514   11.8574 C   0  0  0  0  0  0  0  0  0  0  0  0
    7.2837    4.3325   11.3815 C   0  0  0  0  0  0  0  0  0  0  0  0
    5.9537    4.4706   11.8081 C   0  0  0  0  0  0  0  0  0  0  0  0
    4.7495    3.3891   11.1824 S   0  0  0  0  0  6  0  0  0  0  0  0
    5.1719    2.9415    9.7906 O   0  0  0  0  0  0  0  0  0  0  0  0
    3.4277    4.0853   10.9771 O   0  0  0  0  0  0  0  0  0  0  0  0
    4.5746    1.9555   12.1038 N   0  0  0  0  0  0  0  0  0  0  0  0
    3.9194    1.8254   13.3382 C   0  0  0  0  0  0  0  0  0  0  0  0
    3.3038    2.8064   13.7899 O   0  0  0  0  0  0  0  0  0  0  0  0
    3.9190    0.5844   14.1334 C   0  0  0  0  0  0  0  0  0  0  0  0
    4.1758   -0.6512   13.5910 C   0  0  0  0  0  0  0  0  0  0  0  0
    4.1649   -1.8214   14.3541 C   0  0  0  0  0  0  0  0  0  0  0  0
    3.8899   -1.7619   15.6974 C   0  0  0  0  0  0  0  0  0  0  0  0
    3.6309   -0.5322   16.2550 C   0  0  0  0  0  0  0  0  0  0  0  0
    3.6447    0.6333   15.4814 C   0  0  0  0  0  0  0  0  0  0  0  0
    3.8701   -2.9604   16.5416 C   0  0  0  0  0  0  0  0  0  0  0  0
    5.0670   -3.1292   17.3636 C   0  0  0  0  0  0  0  0  0  0  0  0
    6.1666   -2.3007   17.3974 C   0  0  0  0  0  0  0  0  0  0  0  0
    7.0805   -2.7666   18.2601 N   0  0  0  0  0  0  0  0  0  0  0  0
    6.6039   -3.8982   18.8035 C   0  0  0  0  0  0  0  0  0  0  0  0
    5.3396   -4.1388   18.2505 C   0  0  0  0  0  0  0  0  0  0  0  0
    4.6351   -5.2522   18.6472 C   0  0  0  0  0  0  0  0  0  0  0  0
    5.1020   -6.1725   19.5772 C   0  0  0  0  0  0  0  0  0  0  0  0
    6.3351   -5.9142   20.0995 C   0  0  0  0  0  0  0  0  0  0  0  0
    7.0876   -4.8001   19.7305 C   0  0  0  0  0  0  0  0  0  0  0  0
    4.2629   -7.2651   19.8850 N   0  0  0  0  0  0  0  0  0  0  0  0
    3.5847   -8.0776   18.9520 C   0  0  0  0  0  0  0  0  0  0  0  0
    2.9080   -7.5879   18.0524 O   0  0  0  0  0  0  0  0  0  0  0  0
    3.6439   -9.4752   18.9979 O   0  0  0  0  0  0  0  0  0  0  0  0
    4.1442  -10.2442   17.9226 C   0  0  0  0  0  0  0  0  0  0  0  0
    4.2321  -11.7099   18.2651 C   0  0  0  0  0  0  0  0  0  0  0  0
    3.3211  -12.4424   17.3107 C   0  0  0  0  0  0  0  0  0  0  0  0
    3.2299  -11.5044   16.1407 C   0  0  0  0  0  0  0  0  0  0  0  0
    3.3048  -10.1131   16.6833 C   0  0  0  0  0  0  0  0  0  0  0  0
    8.3712   -2.2003   18.5927 C   0  0  0  0  0  0  0  0  0  0  0  0
    4.4234   -3.0545   13.8043 O   0  0  0  0  0  0  0  0  0  0  0  0
    4.6804   -3.2563   12.4345 C   0  0  0  0  0  0  0  0  0  0  0  0
  1  2  1  0
  2  3  2  0
  3  4  1  0
  4  5  2  0
  5  6  1  0
  6  7  2  0
  7  8  1  0
  8  9  2  0
  8 10  2  0
  8 11  1  0
 11 12  1  0
 12 13  2  0
 12 14  1  0
 14 15  2  0
 15 16  1  0
 16 17  2  0
 17 18  1  0
 18 19  2  0
 17 20  1  0
 20 21  1  0
 21 22  2  0
 22 23  1  0
 23 24  1  0
 24 25  2  0
 25 26  1  0
 26 27  2  0
 27 28  1  0
 28 29  2  0
 27 30  1  0
 30 31  1  0
 31 32  2  0
 31 33  1  0
 33 34  1  0
 34 35  1  0
 35 36  1  0
 36 37  1  0
 37 38  1  0
 23 39  1  0
 16 40  1  0
 40 41  1  0
  7  2  1  0
 19 14  1  0
 25 21  1  0
 29 24  1  0
 38 34  1  0
M  END
$$$$
