
     RDKit          3D

 41 45  0  0  0  0  0  0  0  0999 V2000
    5.3101  -10.0895   19.5669 C   0  0  0  0  0  0  0  0  0  0  0  0
    5.8211   -8.7705   19.0926 C   0  0  0  0  0  0  0  0  0  0  0  0
    7.1640   -8.4733   19.2983 C   0  0  0  0  0  0  0  0  0  0  0  0
    7.7418   -7.2896   18.9226 C   0  0  0  0  0  0  0  0  0  0  0  0
    6.9129   -6.3744   18.3122 C   0  0  0  0  0  0  0  0  0  0  0  0
    5.5890   -6.6342   18.0942 C   0  0  0  0  0  0  0  0  0  0  0  0
    5.0126   -7.8528   18.4854 C   0  0  0  0  0  0  0  0  0  0  0  0
    3.3303   -8.1327   18.1651 S   0  0  0  0  0  6  0  0  0  0  0  0
    2.5288   -7.7550   19.4024 O   0  0  0  0  0  0  0  0  0  0  0  0
    3.0396   -9.5968   17.9515 O   0  0  0  0  0  0  0  0  0  0  0  0
    2.7087   -7.1705   16.8913 N   0  0  0  0  0  0  0  0  0  0  0  0
    3.3631   -6.8355   15.6957 C   0  0  0  0  0  0  0  0  0  0  0  0
    4.0121   -7.7172   15.1069 O   0  0  0  0  0  0  0  0  0  0  0  0
    3.3235   -5.4903   15.0947 C   0  0  0  0  0  0  0  0  0  0  0  0
    3.3295   -5.2770   13.7378 C   0  0  0  0  0  0  0  0  0  0  0  0
    3.2994   -3.9963   13.1803 C   0  0  0  0  0  0  0  0  0  0  0  0
    3.2627   -2.8936   13.9966 C   0  0  0  0  0  0  0  0  0  0  0  0
    3.2561   -3.0908   15.3572 C   0  0  0  0  0  0  0  0  0  0  0  0
    3.2862   -4.3778   15.9045 C   0  0  0  0  0  0  0  0  0  0  0  0
    3.2263   -1.5295   13.4606 C   0  0  0  0  0  0  0  0  0  0  0  0
    4.2926   -0.6644   13.9620 C   0  0  0  0  0  0  0  0  0  0  0  0
    5.2969   -1.0170   14.8358 C   0  0  0  0  0  0  0  0  0  0  0  0
    6.0942    0.0315   15.0842 N   0  0  0  0  0  0  0  0  0  0  0  0
    5.6335    1.0817   14.3858 C   0  0  0  0  0  0  0  0  0  0  0  0
    4.5022    0.6601   13.6756 C   0  0  0  0  0  0  0  0  0  0  0  0
    3.8379    1.5617   12.8761 C   0  0  0  0  0  0  0  0  0  0  0  0
    4.2205    2.8884   12.7228 C   0  0  0  0  0  0  0  0  0  0  0  0
    5.3247    3.2722   13.4253 C   0  0  0  0  0  0  0  0  0  0  0  0
    6.0321    2.3966   14.2479 C   0  0  0  0  0  0  0  0  0  0  0  0
    3.4397    3.6928   11.8650 N   0  0  0  0  0  0  0  0  0  0  0  0
    3.8248    4.9333   11.3143 C   0  0  0  0  0  0  0  0  0  0  0  0
    4.8311    5.5193   11.7029 O   0  0  0  0  0  0  0  0  0  0  0  0
    3.0888    5.5614   10.3030 O   0  0  0  0  0  0  0  0  0  0  0  0
    3.4168    6.8488    9.8206 C   0  0  0  0  0  0  0  0  0  0  0  0
    4.8467    6.9315    9.3493 C   0  0  0  0  0  0  0  0  0  0  0  0
    4.8089    7.2709    7.8794 C   0  0  0  0  0  0  0  0  0  0  0  0
    3.4700    7.9331    7.7180 C   0  0  0  0  0  0  0  0  0  0  0  0
    2.5343    7.2780    8.6828 C   0  0  0  0  0  0  0  0  0  0  0  0
    7.2594    0.0891   15.9421 C   0  0  0  0  0  0  0  0  0  0  0  0
    3.3050   -3.7909   11.8211 O   0  0  0  0  0  0  0  0  0  0  0  0
    2.1363   -3.7497   11.0365 C   0  0  0  0  0  0  0  0  0  0  0  0
  1  2  1  0
  2  3  2  0
  3  4  1  0
  4  5  2  0
  5  6  1  0
  6  7  2  0
  7  8  1  0
  8  9  2  0
  8 10  2  0
  8 11  1  0
 11 12  1  0
 12 13  2  0
 12 14  1  0
 14 15  2  0
 15 16  1  0
 16 17  2  0
 17 18  1  0
 18 19  2  0
 17 20  1  0
 20 21  1  0
 21 22  2  0
 22 23  1  0
 23 24  1  0
 24 25  2  0
 25 26  1  0
 26 27  2  0
 27 28  1  0
 28 29  2  0
 27 30  1  0
 30 31  1  0
 31 32  2  0
 31 33  1  0
 33 34  1  0
 34 35  1  0
 35 36  1  0
 36 37  1  0
 37 38  1  0
 23 39  1  0
 16 40  1  0
 40 41  1  0
  7  2  1  0
 19 14  1  0
 25 21  1  0
 29 24  1  0
 38 34  1  0
M  END
$$$$
