
     RDKit          3D

 41 45  0  0  0  0  0  0  0  0999 V2000
    9.9023    1.6025   17.9304 C   0  0  0  0  0  0  0  0  0  0  0  0
    9.5129    1.7130   16.4945 C   0  0  0  0  0  0  0  0  0  0  0  0
   10.2123    0.9527   15.5633 C   0  0  0  0  0  0  0  0  0  0  0  0
    9.9569    0.9837   14.2180 C   0  0  0  0  0  0  0  0  0  0  0  0
    8.9460    1.8255   13.8096 C   0  0  0  0  0  0  0  0  0  0  0  0
    8.2386    2.5861   14.6978 C   0  0  0  0  0  0  0  0  0  0  0  0
    8.5130    2.5422   16.0736 C   0  0  0  0  0  0  0  0  0  0  0  0
    7.5684    3.5169   17.1547 S   0  0  0  0  0  6  0  0  0  0  0  0
    7.4012    4.9007   16.5438 O   0  0  0  0  0  0  0  0  0  0  0  0
    8.2855    3.7572   18.4592 O   0  0  0  0  0  0  0  0  0  0  0  0
    5.9825    2.9189   17.4038 N   0  0  0  0  0  0  0  0  0  0  0  0
    5.6283    1.6255   17.8181 C   0  0  0  0  0  0  0  0  0  0  0  0
    5.9494    1.2596   18.9619 O   0  0  0  0  0  0  0  0  0  0  0  0
    4.8921    0.6714   16.9694 C   0  0  0  0  0  0  0  0  0  0  0  0
    4.5391    0.9442   15.6703 C   0  0  0  0  0  0  0  0  0  0  0  0
    3.8344    0.0342   14.8784 C   0  0  0  0  0  0  0  0  0  0  0  0
    3.4690   -1.1843   15.3936 C   0  0  0  0  0  0  0  0  0  0  0  0
    3.8153   -1.4722   16.6926 C   0  0  0  0  0  0  0  0  0  0  0  0
    4.5213   -0.5535   17.4765 C   0  0  0  0  0  0  0  0  0  0  0  0
    2.7324   -2.1746   14.6023 C   0  0  0  0  0  0  0  0  0  0  0  0
    3.2332   -3.5407   14.7430 C   0  0  0  0  0  0  0  0  0  0  0  0
    4.5032   -3.9177   15.1191 C   0  0  0  0  0  0  0  0  0  0  0  0
    4.6125   -5.2536   15.1340 N   0  0  0  0  0  0  0  0  0  0  0  0
    3.4290   -5.7739   14.7715 C   0  0  0  0  0  0  0  0  0  0  0  0
    2.5521   -4.7103   14.5230 C   0  0  0  0  0  0  0  0  0  0  0  0
    1.2619   -4.9827   14.1299 C   0  0  0  0  0  0  0  0  0  0  0  0
    0.7600   -6.2668   13.9591 C   0  0  0  0  0  0  0  0  0  0  0  0
    1.6346   -7.2833   14.2076 C   0  0  0  0  0  0  0  0  0  0  0  0
    2.9509   -7.0592   14.6083 C   0  0  0  0  0  0  0  0  0  0  0  0
   -0.5868   -6.3873   13.5538 N   0  0  0  0  0  0  0  0  0  0  0  0
   -1.1790   -7.5299   12.9756 C   0  0  0  0  0  0  0  0  0  0  0  0
   -1.0140   -8.6471   13.4570 O   0  0  0  0  0  0  0  0  0  0  0  0
   -1.9810   -7.4563   11.8309 O   0  0  0  0  0  0  0  0  0  0  0  0
   -2.9611   -8.4301   11.5332 C   0  0  0  0  0  0  0  0  0  0  0  0
   -3.9675   -8.5816   12.6458 C   0  0  0  0  0  0  0  0  0  0  0  0
   -5.3155   -8.2146   12.0757 C   0  0  0  0  0  0  0  0  0  0  0  0
   -5.1366   -8.4488   10.6025 C   0  0  0  0  0  0  0  0  0  0  0  0
   -3.7163   -8.1182   10.2723 C   0  0  0  0  0  0  0  0  0  0  0  0
    5.7706   -6.0553   15.4704 C   0  0  0  0  0  0  0  0  0  0  0  0
    3.4850    0.3141   13.5787 O   0  0  0  0  0  0  0  0  0  0  0  0
    2.2514    0.8855   13.2114 C   0  0  0  0  0  0  0  0  0  0  0  0
  1  2  1  0
  2  3  2  0
  3  4  1  0
  4  5  2  0
  5  6  1  0
  6  7  2  0
  7  8  1  0
  8  9  2  0
  8 10  2  0
  8 11  1  0
 11 12  1  0
 12 13  2  0
 12 14  1  0
 14 15  2  0
 15 16  1  0
 16 17  2  0
 17 18  1  0
 18 19  2  0
 17 20  1  0
 20 21  1  0
 21 22  2  0
 22 23  1  0
 23 24  1  0
 24 25  2  0
 25 26  1  0
 26 27  2  0
 27 28  1  0
 28 29  2  0
 27 30  1  0
 30 31  1  0
 31 32  2  0
 31 33  1  0
 33 34  1  0
 34 35  1  0
 35 36  1  0
 36 37  1  0
 37 38  1  0
 23 39  1  0
 16 40  1  0
 40 41  1  0
  7  2  1  0
 19 14  1  0
 25 21  1  0
 29 24  1  0
 38 34  1  0
M  END
$$$$
