
     RDKit          3D

 41 45  0  0  0  0  0  0  0  0999 V2000
    9.0224    2.3580   15.5762 C   0  0  0  0  0  0  0  0  0  0  0  0
    9.4565    1.1398   16.3201 C   0  0  0  0  0  0  0  0  0  0  0  0
   10.6610    0.5446   15.9609 C   0  0  0  0  0  0  0  0  0  0  0  0
   11.1534   -0.5849   16.5590 C   0  0  0  0  0  0  0  0  0  0  0  0
   10.3830   -1.1266   17.5642 C   0  0  0  0  0  0  0  0  0  0  0  0
    9.1948   -0.5672   17.9425 C   0  0  0  0  0  0  0  0  0  0  0  0
    8.7047    0.5910   17.3191 C   0  0  0  0  0  0  0  0  0  0  0  0
    7.1987    1.2658   17.8555 S   0  0  0  0  0  6  0  0  0  0  0  0
    7.0845    2.6873   17.3242 O   0  0  0  0  0  0  0  0  0  0  0  0
    7.1563    1.4121   19.3557 O   0  0  0  0  0  0  0  0  0  0  0  0
    5.8262    0.4307   17.2609 N   0  0  0  0  0  0  0  0  0  0  0  0
    5.8263   -0.6946   16.4220 C   0  0  0  0  0  0  0  0  0  0  0  0
    6.9173   -1.2003   16.1072 O   0  0  0  0  0  0  0  0  0  0  0  0
    4.5992   -1.3148   15.8909 C   0  0  0  0  0  0  0  0  0  0  0  0
    3.4659   -1.4958   16.6457 C   0  0  0  0  0  0  0  0  0  0  0  0
    2.3113   -2.0921   16.1327 C   0  0  0  0  0  0  0  0  0  0  0  0
    2.2823   -2.5222   14.8298 C   0  0  0  0  0  0  0  0  0  0  0  0
    3.4090   -2.3480   14.0614 C   0  0  0  0  0  0  0  0  0  0  0  0
    4.5597   -1.7493   14.5854 C   0  0  0  0  0  0  0  0  0  0  0  0
    1.0942   -3.1503   14.2438 C   0  0  0  0  0  0  0  0  0  0  0  0
    1.1436   -4.6111   14.2203 C   0  0  0  0  0  0  0  0  0  0  0  0
    2.2445   -5.4020   14.4633 C   0  0  0  0  0  0  0  0  0  0  0  0
    1.9269   -6.6990   14.3472 N   0  0  0  0  0  0  0  0  0  0  0  0
    0.6253   -6.7839   14.0288 C   0  0  0  0  0  0  0  0  0  0  0  0
    0.1193   -5.4804   13.9459 C   0  0  0  0  0  0  0  0  0  0  0  0
   -1.2066   -5.2947   13.6279 C   0  0  0  0  0  0  0  0  0  0  0  0
   -2.0951   -6.3331   13.3782 C   0  0  0  0  0  0  0  0  0  0  0  0
   -1.5763   -7.5914   13.4657 C   0  0  0  0  0  0  0  0  0  0  0  0
   -0.2407   -7.8316   13.7848 C   0  0  0  0  0  0  0  0  0  0  0  0
   -3.4271   -5.9851   13.0664 N   0  0  0  0  0  0  0  0  0  0  0  0
   -4.2320   -6.5906   12.0785 C   0  0  0  0  0  0  0  0  0  0  0  0
   -5.4379   -6.3698   12.0143 O   0  0  0  0  0  0  0  0  0  0  0  0
   -3.7072   -7.4694   11.1239 O   0  0  0  0  0  0  0  0  0  0  0  0
   -4.2867   -7.6261    9.8444 C   0  0  0  0  0  0  0  0  0  0  0  0
   -3.2464   -7.7125    8.7563 C   0  0  0  0  0  0  0  0  0  0  0  0
   -3.3989   -9.0653    8.1052 C   0  0  0  0  0  0  0  0  0  0  0  0
   -4.8235   -9.4311    8.4114 C   0  0  0  0  0  0  0  0  0  0  0  0
   -5.1497   -8.8526    9.7510 C   0  0  0  0  0  0  0  0  0  0  0  0
    2.7859   -7.8520   14.5202 C   0  0  0  0  0  0  0  0  0  0  0  0
    1.1806   -2.2693   16.8941 O   0  0  0  0  0  0  0  0  0  0  0  0
    1.0378   -1.7674   18.2021 C   0  0  0  0  0  0  0  0  0  0  0  0
  1  2  1  0
  2  3  2  0
  3  4  1  0
  4  5  2  0
  5  6  1  0
  6  7  2  0
  7  8  1  0
  8  9  2  0
  8 10  2  0
  8 11  1  0
 11 12  1  0
 12 13  2  0
 12 14  1  0
 14 15  2  0
 15 16  1  0
 16 17  2  0
 17 18  1  0
 18 19  2  0
 17 20  1  0
 20 21  1  0
 21 22  2  0
 22 23  1  0
 23 24  1  0
 24 25  2  0
 25 26  1  0
 26 27  2  0
 27 28  1  0
 28 29  2  0
 27 30  1  0
 30 31  1  0
 31 32  2  0
 31 33  1  0
 33 34  1  0
 34 35  1  0
 35 36  1  0
 36 37  1  0
 37 38  1  0
 23 39  1  0
 16 40  1  0
 40 41  1  0
  7  2  1  0
 19 14  1  0
 25 21  1  0
 29 24  1  0
 38 34  1  0
M  END
$$$$
