
     RDKit          3D

 41 45  0  0  0  0  0  0  0  0999 V2000
   10.1653    5.0849   13.8416 C   0  0  0  0  0  0  0  0  0  0  0  0
    9.5825    3.9356   13.0898 C   0  0  0  0  0  0  0  0  0  0  0  0
    9.9626    3.7568   11.7640 C   0  0  0  0  0  0  0  0  0  0  0  0
    9.4821    2.7498   10.9696 C   0  0  0  0  0  0  0  0  0  0  0  0
    8.5773    1.8920   11.5550 C   0  0  0  0  0  0  0  0  0  0  0  0
    8.1825    2.0384   12.8552 C   0  0  0  0  0  0  0  0  0  0  0  0
    8.6850    3.0761   13.6557 C   0  0  0  0  0  0  0  0  0  0  0  0
    8.1606    3.2000   15.3052 S   0  0  0  0  0  6  0  0  0  0  0  0
    7.9876    4.6714   15.6527 O   0  0  0  0  0  0  0  0  0  0  0  0
    9.2121    2.7002   16.2634 O   0  0  0  0  0  0  0  0  0  0  0  0
    6.6394    2.4672   15.5946 N   0  0  0  0  0  0  0  0  0  0  0  0
    5.5565    2.4003   14.7041 C   0  0  0  0  0  0  0  0  0  0  0  0
    5.3644    3.3540   13.9303 O   0  0  0  0  0  0  0  0  0  0  0  0
    4.6297    1.2565   14.6332 C   0  0  0  0  0  0  0  0  0  0  0  0
    4.1047    0.7916   13.4521 C   0  0  0  0  0  0  0  0  0  0  0  0
    3.2208   -0.2891   13.3988 C   0  0  0  0  0  0  0  0  0  0  0  0
    2.8470   -0.9271   14.5550 C   0  0  0  0  0  0  0  0  0  0  0  0
    3.3642   -0.4735   15.7453 C   0  0  0  0  0  0  0  0  0  0  0  0
    4.2488    0.6095   15.7869 C   0  0  0  0  0  0  0  0  0  0  0  0
    1.9257   -2.0675   14.5516 C   0  0  0  0  0  0  0  0  0  0  0  0
    2.5885   -3.3683   14.6248 C   0  0  0  0  0  0  0  0  0  0  0  0
    3.9285   -3.5988   14.8436 C   0  0  0  0  0  0  0  0  0  0  0  0
    4.1867   -4.9141   14.8392 N   0  0  0  0  0  0  0  0  0  0  0  0
    3.0334   -5.5657   14.6195 C   0  0  0  0  0  0  0  0  0  0  0  0
    2.0202   -4.6082   14.4831 C   0  0  0  0  0  0  0  0  0  0  0  0
    0.7305   -5.0255   14.2470 C   0  0  0  0  0  0  0  0  0  0  0  0
    0.3576   -6.3589   14.1321 C   0  0  0  0  0  0  0  0  0  0  0  0
    1.3633   -7.2699   14.2689 C   0  0  0  0  0  0  0  0  0  0  0  0
    2.6851   -6.8975   14.5092 C   0  0  0  0  0  0  0  0  0  0  0  0
   -1.0063   -6.6316   13.8913 N   0  0  0  0  0  0  0  0  0  0  0  0
   -1.8367   -7.4597   14.6758 C   0  0  0  0  0  0  0  0  0  0  0  0
   -2.0885   -7.1863   15.8457 O   0  0  0  0  0  0  0  0  0  0  0  0
   -2.4156   -8.6294   14.1701 O   0  0  0  0  0  0  0  0  0  0  0  0
   -3.5405   -9.2357   14.7740 C   0  0  0  0  0  0  0  0  0  0  0  0
   -4.6176   -8.2332   15.1035 C   0  0  0  0  0  0  0  0  0  0  0  0
   -5.8412   -8.6223   14.3107 C   0  0  0  0  0  0  0  0  0  0  0  0
   -5.6273  -10.0868   14.0524 C   0  0  0  0  0  0  0  0  0  0  0  0
   -4.1543  -10.2989   13.9077 C   0  0  0  0  0  0  0  0  0  0  0  0
    5.4587   -5.5794   15.0301 C   0  0  0  0  0  0  0  0  0  0  0  0
    2.6998   -0.7490   12.2128 O   0  0  0  0  0  0  0  0  0  0  0  0
    3.0390   -0.2134   10.9553 C   0  0  0  0  0  0  0  0  0  0  0  0
  1  2  1  0
  2  3  2  0
  3  4  1  0
  4  5  2  0
  5  6  1  0
  6  7  2  0
  7  8  1  0
  8  9  2  0
  8 10  2  0
  8 11  1  0
 11 12  1  0
 12 13  2  0
 12 14  1  0
 14 15  2  0
 15 16  1  0
 16 17  2  0
 17 18  1  0
 18 19  2  0
 17 20  1  0
 20 21  1  0
 21 22  2  0
 22 23  1  0
 23 24  1  0
 24 25  2  0
 25 26  1  0
 26 27  2  0
 27 28  1  0
 28 29  2  0
 27 30  1  0
 30 31  1  0
 31 32  2  0
 31 33  1  0
 33 34  1  0
 34 35  1  0
 35 36  1  0
 36 37  1  0
 37 38  1  0
 23 39  1  0
 16 40  1  0
 40 41  1  0
  7  2  1  0
 19 14  1  0
 25 21  1  0
 29 24  1  0
 38 34  1  0
M  END
$$$$
