
     RDKit          3D

 41 45  0  0  0  0  0  0  0  0999 V2000
    6.9789   -6.2975   17.9627 C   0  0  0  0  0  0  0  0  0  0  0  0
    6.1169   -7.5124   17.8797 C   0  0  0  0  0  0  0  0  0  0  0  0
    6.6679   -8.6743   17.3502 C   0  0  0  0  0  0  0  0  0  0  0  0
    5.9702   -9.8444   17.2080 C   0  0  0  0  0  0  0  0  0  0  0  0
    4.6574   -9.8247   17.6242 C   0  0  0  0  0  0  0  0  0  0  0  0
    4.0847   -8.7005   18.1495 C   0  0  0  0  0  0  0  0  0  0  0  0
    4.8141   -7.5094   18.2884 C   0  0  0  0  0  0  0  0  0  0  0  0
    4.0381   -6.1196   18.9796 S   0  0  0  0  0  6  0  0  0  0  0  0
    4.6449   -5.8532   20.3496 O   0  0  0  0  0  0  0  0  0  0  0  0
    2.5766   -6.3742   19.2499 O   0  0  0  0  0  0  0  0  0  0  0  0
    4.2749   -4.6848   18.0741 N   0  0  0  0  0  0  0  0  0  0  0  0
    3.8856   -4.4568   16.7450 C   0  0  0  0  0  0  0  0  0  0  0  0
    2.8993   -5.0700   16.3018 O   0  0  0  0  0  0  0  0  0  0  0  0
    4.5831   -3.5255   15.8403 C   0  0  0  0  0  0  0  0  0  0  0  0
    5.6789   -2.7911   16.2230 C   0  0  0  0  0  0  0  0  0  0  0  0
    6.3269   -1.9057   15.3581 C   0  0  0  0  0  0  0  0  0  0  0  0
    5.8716   -1.7450   14.0735 C   0  0  0  0  0  0  0  0  0  0  0  0
    4.7756   -2.4734   13.6753 C   0  0  0  0  0  0  0  0  0  0  0  0
    4.1346   -3.3574   14.5498 C   0  0  0  0  0  0  0  0  0  0  0  0
    6.5189   -0.8315   13.1269 C   0  0  0  0  0  0  0  0  0  0  0  0
    5.5942    0.0716   12.4442 C   0  0  0  0  0  0  0  0  0  0  0  0
    4.8921   -0.1879   11.2882 C   0  0  0  0  0  0  0  0  0  0  0  0
    4.1458    0.8708   10.9432 N   0  0  0  0  0  0  0  0  0  0  0  0
    4.3415    1.8356   11.8563 C   0  0  0  0  0  0  0  0  0  0  0  0
    5.2486    1.3483   12.8059 C   0  0  0  0  0  0  0  0  0  0  0  0
    5.6187    2.1566   13.8562 C   0  0  0  0  0  0  0  0  0  0  0  0
    5.1444    3.4490   14.0424 C   0  0  0  0  0  0  0  0  0  0  0  0
    4.2629    3.8982   13.1036 C   0  0  0  0  0  0  0  0  0  0  0  0
    3.8568    3.1180   12.0219 C   0  0  0  0  0  0  0  0  0  0  0  0
    5.6145    4.1554   15.1705 N   0  0  0  0  0  0  0  0  0  0  0  0
    5.4075    5.5256   15.4355 C   0  0  0  0  0  0  0  0  0  0  0  0
    5.4393    6.3614   14.5369 O   0  0  0  0  0  0  0  0  0  0  0  0
    5.1562    6.0063   16.7258 O   0  0  0  0  0  0  0  0  0  0  0  0
    5.4730    7.3283   17.1126 C   0  0  0  0  0  0  0  0  0  0  0  0
    4.4705    8.3277   16.5933 C   0  0  0  0  0  0  0  0  0  0  0  0
    3.8380    8.9850   17.7954 C   0  0  0  0  0  0  0  0  0  0  0  0
    4.8710    8.7947   18.8695 C   0  0  0  0  0  0  0  0  0  0  0  0
    5.5475    7.4879   18.6048 C   0  0  0  0  0  0  0  0  0  0  0  0
    3.2651    1.0142    9.8027 C   0  0  0  0  0  0  0  0  0  0  0  0
    7.4236   -1.1744   15.7483 O   0  0  0  0  0  0  0  0  0  0  0  0
    8.3909   -1.6480   16.6555 C   0  0  0  0  0  0  0  0  0  0  0  0
  1  2  1  0
  2  3  2  0
  3  4  1  0
  4  5  2  0
  5  6  1  0
  6  7  2  0
  7  8  1  0
  8  9  2  0
  8 10  2  0
  8 11  1  0
 11 12  1  0
 12 13  2  0
 12 14  1  0
 14 15  2  0
 15 16  1  0
 16 17  2  0
 17 18  1  0
 18 19  2  0
 17 20  1  0
 20 21  1  0
 21 22  2  0
 22 23  1  0
 23 24  1  0
 24 25  2  0
 25 26  1  0
 26 27  2  0
 27 28  1  0
 28 29  2  0
 27 30  1  0
 30 31  1  0
 31 32  2  0
 31 33  1  0
 33 34  1  0
 34 35  1  0
 35 36  1  0
 36 37  1  0
 37 38  1  0
 23 39  1  0
 16 40  1  0
 40 41  1  0
  7  2  1  0
 19 14  1  0
 25 21  1  0
 29 24  1  0
 38 34  1  0
M  END
$$$$
