
     RDKit          3D

 41 45  0  0  0  0  0  0  0  0999 V2000
    5.3271   -7.8359   18.4025 C   0  0  0  0  0  0  0  0  0  0  0  0
    5.0382   -8.8125   17.3122 C   0  0  0  0  0  0  0  0  0  0  0  0
    6.0564   -9.6712   16.9121 C   0  0  0  0  0  0  0  0  0  0  0  0
    5.9149  -10.5963   15.9120 C   0  0  0  0  0  0  0  0  0  0  0  0
    4.6832  -10.6446   15.2973 C   0  0  0  0  0  0  0  0  0  0  0  0
    3.6609   -9.8158   15.6659 C   0  0  0  0  0  0  0  0  0  0  0  0
    3.8226   -8.8734   16.6933 C   0  0  0  0  0  0  0  0  0  0  0  0
    2.4823   -7.8612   17.1295 S   0  0  0  0  0  6  0  0  0  0  0  0
    2.4347   -7.7416   18.6459 O   0  0  0  0  0  0  0  0  0  0  0  0
    1.1641   -8.4887   16.7523 O   0  0  0  0  0  0  0  0  0  0  0  0
    2.6149   -6.2596   16.5362 N   0  0  0  0  0  0  0  0  0  0  0  0
    3.6833   -5.7221   15.8015 C   0  0  0  0  0  0  0  0  0  0  0  0
    4.4902   -6.5035   15.2690 O   0  0  0  0  0  0  0  0  0  0  0  0
    3.9034   -4.2756   15.6236 C   0  0  0  0  0  0  0  0  0  0  0  0
    3.1724   -3.3209   16.2876 C   0  0  0  0  0  0  0  0  0  0  0  0
    3.3855   -1.9523   16.1045 C   0  0  0  0  0  0  0  0  0  0  0  0
    4.3546   -1.5193   15.2345 C   0  0  0  0  0  0  0  0  0  0  0  0
    5.0948   -2.4630   14.5625 C   0  0  0  0  0  0  0  0  0  0  0  0
    4.8730   -3.8310   14.7537 C   0  0  0  0  0  0  0  0  0  0  0  0
    4.6192   -0.0948   15.0105 C   0  0  0  0  0  0  0  0  0  0  0  0
    4.3109    0.3622   13.6567 C   0  0  0  0  0  0  0  0  0  0  0  0
    3.8308   -0.4042   12.6180 C   0  0  0  0  0  0  0  0  0  0  0  0
    3.6713    0.3429   11.5166 N   0  0  0  0  0  0  0  0  0  0  0  0
    4.0399    1.6008   11.8077 C   0  0  0  0  0  0  0  0  0  0  0  0
    4.4438    1.6288   13.1486 C   0  0  0  0  0  0  0  0  0  0  0  0
    4.8741    2.8163   13.6946 C   0  0  0  0  0  0  0  0  0  0  0  0
    4.9368    4.0131   12.9921 C   0  0  0  0  0  0  0  0  0  0  0  0
    4.5379    3.9575   11.6890 C   0  0  0  0  0  0  0  0  0  0  0  0
    4.0936    2.7795   11.0903 C   0  0  0  0  0  0  0  0  0  0  0  0
    5.3980    5.1504   13.6896 N   0  0  0  0  0  0  0  0  0  0  0  0
    5.1523    6.4943   13.3376 C   0  0  0  0  0  0  0  0  0  0  0  0
    4.1826    6.8078   12.6532 O   0  0  0  0  0  0  0  0  0  0  0  0
    5.9919    7.5377   13.7446 O   0  0  0  0  0  0  0  0  0  0  0  0
    5.5691    8.8864   13.7514 C   0  0  0  0  0  0  0  0  0  0  0  0
    4.3682    9.1007   14.6376 C   0  0  0  0  0  0  0  0  0  0  0  0
    4.7842   10.0661   15.7202 C   0  0  0  0  0  0  0  0  0  0  0  0
    5.9409   10.7960   15.0985 C   0  0  0  0  0  0  0  0  0  0  0  0
    6.6495    9.8246   14.2098 C   0  0  0  0  0  0  0  0  0  0  0  0
    3.1925   -0.0703   10.2139 C   0  0  0  0  0  0  0  0  0  0  0  0
    2.6502   -1.0026   16.7731 O   0  0  0  0  0  0  0  0  0  0  0  0
    1.2539   -1.0767   16.9407 C   0  0  0  0  0  0  0  0  0  0  0  0
  1  2  1  0
  2  3  2  0
  3  4  1  0
  4  5  2  0
  5  6  1  0
  6  7  2  0
  7  8  1  0
  8  9  2  0
  8 10  2  0
  8 11  1  0
 11 12  1  0
 12 13  2  0
 12 14  1  0
 14 15  2  0
 15 16  1  0
 16 17  2  0
 17 18  1  0
 18 19  2  0
 17 20  1  0
 20 21  1  0
 21 22  2  0
 22 23  1  0
 23 24  1  0
 24 25  2  0
 25 26  1  0
 26 27  2  0
 27 28  1  0
 28 29  2  0
 27 30  1  0
 30 31  1  0
 31 32  2  0
 31 33  1  0
 33 34  1  0
 34 35  1  0
 35 36  1  0
 36 37  1  0
 37 38  1  0
 23 39  1  0
 16 40  1  0
 40 41  1  0
  7  2  1  0
 19 14  1  0
 25 21  1  0
 29 24  1  0
 38 34  1  0
M  END
$$$$
