
     RDKit          3D

 41 45  0  0  0  0  0  0  0  0999 V2000
   -4.7278   -7.0948   19.5534 C   0  0  0  0  0  0  0  0  0  0  0  0
   -4.4650   -6.7104   18.1360 C   0  0  0  0  0  0  0  0  0  0  0  0
   -4.4455   -7.7156   17.1751 C   0  0  0  0  0  0  0  0  0  0  0  0
   -4.1982   -7.4868   15.8475 C   0  0  0  0  0  0  0  0  0  0  0  0
   -3.9618   -6.1780   15.4891 C   0  0  0  0  0  0  0  0  0  0  0  0
   -3.9739   -5.1659   16.4075 C   0  0  0  0  0  0  0  0  0  0  0  0
   -4.2294   -5.4178   17.7645 C   0  0  0  0  0  0  0  0  0  0  0  0
   -4.2501   -4.0892   18.8807 S   0  0  0  0  0  6  0  0  0  0  0  0
   -4.6439   -4.6125   20.2543 O   0  0  0  0  0  0  0  0  0  0  0  0
   -5.3189   -3.0845   18.5315 O   0  0  0  0  0  0  0  0  0  0  0  0
   -2.7210   -3.3437   19.0829 N   0  0  0  0  0  0  0  0  0  0  0  0
   -1.4879   -3.8136   18.6045 C   0  0  0  0  0  0  0  0  0  0  0  0
   -1.3012   -5.0413   18.5498 O   0  0  0  0  0  0  0  0  0  0  0  0
   -0.3961   -2.9289   18.1600 C   0  0  0  0  0  0  0  0  0  0  0  0
   -0.4095   -1.5692   18.3541 C   0  0  0  0  0  0  0  0  0  0  0  0
    0.6283   -0.7401   17.9211 C   0  0  0  0  0  0  0  0  0  0  0  0
    1.7126   -1.2790   17.2749 C   0  0  0  0  0  0  0  0  0  0  0  0
    1.7406   -2.6387   17.0731 C   0  0  0  0  0  0  0  0  0  0  0  0
    0.6959   -3.4594   17.5112 C   0  0  0  0  0  0  0  0  0  0  0  0
    2.8283   -0.4523   16.8047 C   0  0  0  0  0  0  0  0  0  0  0  0
    4.0262   -0.5395   17.6380 C   0  0  0  0  0  0  0  0  0  0  0  0
    4.1953   -1.3233   18.7577 C   0  0  0  0  0  0  0  0  0  0  0  0
    5.4182   -1.1449   19.2766 N   0  0  0  0  0  0  0  0  0  0  0  0
    6.0687   -0.2499   18.5159 C   0  0  0  0  0  0  0  0  0  0  0  0
    5.2073    0.1394   17.4822 C   0  0  0  0  0  0  0  0  0  0  0  0
    5.6425    1.0611   16.5580 C   0  0  0  0  0  0  0  0  0  0  0  0
    6.9035    1.6438   16.5810 C   0  0  0  0  0  0  0  0  0  0  0  0
    7.7216    1.2471   17.5976 C   0  0  0  0  0  0  0  0  0  0  0  0
    7.3274    0.3165   18.5579 C   0  0  0  0  0  0  0  0  0  0  0  0
    7.2067    2.5725   15.5622 N   0  0  0  0  0  0  0  0  0  0  0  0
    7.1120    2.3397   14.1739 C   0  0  0  0  0  0  0  0  0  0  0  0
    6.4138    1.4355   13.7245 O   0  0  0  0  0  0  0  0  0  0  0  0
    7.8021    3.1187   13.2379 O   0  0  0  0  0  0  0  0  0  0  0  0
    7.3126    3.3348   11.9297 C   0  0  0  0  0  0  0  0  0  0  0  0
    7.6696    4.7039   11.4085 C   0  0  0  0  0  0  0  0  0  0  0  0
    8.5310    4.5010   10.1863 C   0  0  0  0  0  0  0  0  0  0  0  0
    8.1489    3.1228    9.7262 C   0  0  0  0  0  0  0  0  0  0  0  0
    7.8307    2.3219   10.9481 C   0  0  0  0  0  0  0  0  0  0  0  0
    5.9969   -1.7728   20.4463 C   0  0  0  0  0  0  0  0  0  0  0  0
    0.6081    0.6200   18.1196 O   0  0  0  0  0  0  0  0  0  0  0  0
   -0.4342    1.2928   18.7858 C   0  0  0  0  0  0  0  0  0  0  0  0
  1  2  1  0
  2  3  2  0
  3  4  1  0
  4  5  2  0
  5  6  1  0
  6  7  2  0
  7  8  1  0
  8  9  2  0
  8 10  2  0
  8 11  1  0
 11 12  1  0
 12 13  2  0
 12 14  1  0
 14 15  2  0
 15 16  1  0
 16 17  2  0
 17 18  1  0
 18 19  2  0
 17 20  1  0
 20 21  1  0
 21 22  2  0
 22 23  1  0
 23 24  1  0
 24 25  2  0
 25 26  1  0
 26 27  2  0
 27 28  1  0
 28 29  2  0
 27 30  1  0
 30 31  1  0
 31 32  2  0
 31 33  1  0
 33 34  1  0
 34 35  1  0
 35 36  1  0
 36 37  1  0
 37 38  1  0
 23 39  1  0
 16 40  1  0
 40 41  1  0
  7  2  1  0
 19 14  1  0
 25 21  1  0
 29 24  1  0
 38 34  1  0
M  END
$$$$
