
     RDKit          3D

 41 45  0  0  0  0  0  0  0  0999 V2000
    8.7116    3.0351   10.8647 C   0  0  0  0  0  0  0  0  0  0  0  0
    7.6640    3.2760    9.8300 C   0  0  0  0  0  0  0  0  0  0  0  0
    8.0127    3.1197    8.4928 C   0  0  0  0  0  0  0  0  0  0  0  0
    7.1428    3.3297    7.4559 C   0  0  0  0  0  0  0  0  0  0  0  0
    5.8660    3.7145    7.8009 C   0  0  0  0  0  0  0  0  0  0  0  0
    5.4898    3.8770    9.1047 C   0  0  0  0  0  0  0  0  0  0  0  0
    6.3940    3.6574   10.1556 C   0  0  0  0  0  0  0  0  0  0  0  0
    5.8530    3.8616   11.7917 S   0  0  0  0  0  6  0  0  0  0  0  0
    4.6047    4.7321   11.7876 O   0  0  0  0  0  0  0  0  0  0  0  0
    6.8537    4.6294   12.6180 O   0  0  0  0  0  0  0  0  0  0  0  0
    5.3990    2.3934   12.5488 N   0  0  0  0  0  0  0  0  0  0  0  0
    5.1933    2.1851   13.9216 C   0  0  0  0  0  0  0  0  0  0  0  0
    4.8442    3.1504   14.6227 O   0  0  0  0  0  0  0  0  0  0  0  0
    5.3676    0.8793   14.5824 C   0  0  0  0  0  0  0  0  0  0  0  0
    4.6840   -0.2492   14.2003 C   0  0  0  0  0  0  0  0  0  0  0  0
    4.8524   -1.4799   14.8399 C   0  0  0  0  0  0  0  0  0  0  0  0
    5.7267   -1.5923   15.8918 C   0  0  0  0  0  0  0  0  0  0  0  0
    6.4185   -0.4715   16.2859 C   0  0  0  0  0  0  0  0  0  0  0  0
    6.2422    0.7558   15.6381 C   0  0  0  0  0  0  0  0  0  0  0  0
    5.9414   -2.8618   16.5930 C   0  0  0  0  0  0  0  0  0  0  0  0
    5.2009   -2.9814   17.8476 C   0  0  0  0  0  0  0  0  0  0  0  0
    4.4240   -2.0114   18.4412 C   0  0  0  0  0  0  0  0  0  0  0  0
    3.9007   -2.4648   19.5889 N   0  0  0  0  0  0  0  0  0  0  0  0
    4.3195   -3.7277   19.7693 C   0  0  0  0  0  0  0  0  0  0  0  0
    5.1369   -4.0666   18.6834 C   0  0  0  0  0  0  0  0  0  0  0  0
    5.6984   -5.3218   18.6327 C   0  0  0  0  0  0  0  0  0  0  0  0
    5.5061   -6.2952   19.6051 C   0  0  0  0  0  0  0  0  0  0  0  0
    4.7063   -5.9389   20.6508 C   0  0  0  0  0  0  0  0  0  0  0  0
    4.1143   -4.6805   20.7476 C   0  0  0  0  0  0  0  0  0  0  0  0
    6.1471   -7.5381   19.4132 N   0  0  0  0  0  0  0  0  0  0  0  0
    5.5074   -8.7890   19.2839 C   0  0  0  0  0  0  0  0  0  0  0  0
    5.2013   -9.2386   18.1834 O   0  0  0  0  0  0  0  0  0  0  0  0
    5.1882   -9.5818   20.3924 O   0  0  0  0  0  0  0  0  0  0  0  0
    4.2272  -10.6162   20.3275 C   0  0  0  0  0  0  0  0  0  0  0  0
    3.0253  -10.2243   19.5058 C   0  0  0  0  0  0  0  0  0  0  0  0
    2.9546  -11.1814   18.3413 C   0  0  0  0  0  0  0  0  0  0  0  0
    3.7033  -12.3832   18.8434 C   0  0  0  0  0  0  0  0  0  0  0  0
    4.7861  -11.8837   19.7454 C   0  0  0  0  0  0  0  0  0  0  0  0
    3.0324   -1.7690   20.5157 C   0  0  0  0  0  0  0  0  0  0  0  0
    4.1650   -2.6052   14.4515 O   0  0  0  0  0  0  0  0  0  0  0  0
    3.3135   -2.6476   13.3306 C   0  0  0  0  0  0  0  0  0  0  0  0
  1  2  1  0
  2  3  2  0
  3  4  1  0
  4  5  2  0
  5  6  1  0
  6  7  2  0
  7  8  1  0
  8  9  2  0
  8 10  2  0
  8 11  1  0
 11 12  1  0
 12 13  2  0
 12 14  1  0
 14 15  2  0
 15 16  1  0
 16 17  2  0
 17 18  1  0
 18 19  2  0
 17 20  1  0
 20 21  1  0
 21 22  2  0
 22 23  1  0
 23 24  1  0
 24 25  2  0
 25 26  1  0
 26 27  2  0
 27 28  1  0
 28 29  2  0
 27 30  1  0
 30 31  1  0
 31 32  2  0
 31 33  1  0
 33 34  1  0
 34 35  1  0
 35 36  1  0
 36 37  1  0
 37 38  1  0
 23 39  1  0
 16 40  1  0
 40 41  1  0
  7  2  1  0
 19 14  1  0
 25 21  1  0
 29 24  1  0
 38 34  1  0
M  END
$$$$
