
     RDKit          3D

 41 45  0  0  0  0  0  0  0  0999 V2000
   -1.6249   -9.7994   12.8231 C   0  0  0  0  0  0  0  0  0  0  0  0
   -1.3768   -8.3934   12.3901 C   0  0  0  0  0  0  0  0  0  0  0  0
   -2.4276   -7.6879   11.8139 C   0  0  0  0  0  0  0  0  0  0  0  0
   -2.3150   -6.3994   11.3629 C   0  0  0  0  0  0  0  0  0  0  0  0
   -1.0786   -5.8098   11.5075 C   0  0  0  0  0  0  0  0  0  0  0  0
   -0.0248   -6.4740   12.0697 C   0  0  0  0  0  0  0  0  0  0  0  0
   -0.1574   -7.7944   12.5270 C   0  0  0  0  0  0  0  0  0  0  0  0
    1.2115   -8.5795   13.2489 S   0  0  0  0  0  6  0  0  0  0  0  0
    2.2133   -8.9173   12.1543 O   0  0  0  0  0  0  0  0  0  0  0  0
    0.8372   -9.9105   13.8508 O   0  0  0  0  0  0  0  0  0  0  0  0
    2.0533   -7.5921   14.3674 N   0  0  0  0  0  0  0  0  0  0  0  0
    2.6506   -6.3490   14.1065 C   0  0  0  0  0  0  0  0  0  0  0  0
    3.1887   -6.1693   13.0004 O   0  0  0  0  0  0  0  0  0  0  0  0
    2.6751   -5.2379   15.0746 C   0  0  0  0  0  0  0  0  0  0  0  0
    2.2113   -5.3575   16.3620 C   0  0  0  0  0  0  0  0  0  0  0  0
    2.2330   -4.2944   17.2681 C   0  0  0  0  0  0  0  0  0  0  0  0
    2.7307   -3.0747   16.8828 C   0  0  0  0  0  0  0  0  0  0  0  0
    3.1988   -2.9393   15.5973 C   0  0  0  0  0  0  0  0  0  0  0  0
    3.1725   -4.0108   14.6983 C   0  0  0  0  0  0  0  0  0  0  0  0
    2.7786   -1.9297   17.7972 C   0  0  0  0  0  0  0  0  0  0  0  0
    3.3709   -0.7271   17.2144 C   0  0  0  0  0  0  0  0  0  0  0  0
    3.7777   -0.5586   15.9095 C   0  0  0  0  0  0  0  0  0  0  0  0
    4.2826    0.6698   15.7289 N   0  0  0  0  0  0  0  0  0  0  0  0
    4.2180    1.3247   16.8993 C   0  0  0  0  0  0  0  0  0  0  0  0
    3.6471    0.4603   17.8422 C   0  0  0  0  0  0  0  0  0  0  0  0
    3.4718    0.8991   19.1345 C   0  0  0  0  0  0  0  0  0  0  0  0
    3.8300    2.1665   19.5766 C   0  0  0  0  0  0  0  0  0  0  0  0
    4.3834    2.9873   18.6384 C   0  0  0  0  0  0  0  0  0  0  0  0
    4.5813    2.5898   17.3169 C   0  0  0  0  0  0  0  0  0  0  0  0
    3.5857    2.4726   20.9327 N   0  0  0  0  0  0  0  0  0  0  0  0
    2.9449    3.6322   21.4179 C   0  0  0  0  0  0  0  0  0  0  0  0
    3.1758    4.7377   20.9366 O   0  0  0  0  0  0  0  0  0  0  0  0
    2.0179    3.5893   22.4657 O   0  0  0  0  0  0  0  0  0  0  0  0
    1.5516    4.7589   23.1078 C   0  0  0  0  0  0  0  0  0  0  0  0
    0.1604    5.1344   22.6639 C   0  0  0  0  0  0  0  0  0  0  0  0
   -0.7234    5.0804   23.8859 C   0  0  0  0  0  0  0  0  0  0  0  0
    0.2483    5.2670   25.0164 C   0  0  0  0  0  0  0  0  0  0  0  0
    1.5339    4.6244   24.6042 C   0  0  0  0  0  0  0  0  0  0  0  0
    4.8192    1.2498   14.5153 C   0  0  0  0  0  0  0  0  0  0  0  0
    1.7675   -4.4219   18.5552 O   0  0  0  0  0  0  0  0  0  0  0  0
    2.5464   -4.9192   19.6178 C   0  0  0  0  0  0  0  0  0  0  0  0
  1  2  1  0
  2  3  2  0
  3  4  1  0
  4  5  2  0
  5  6  1  0
  6  7  2  0
  7  8  1  0
  8  9  2  0
  8 10  2  0
  8 11  1  0
 11 12  1  0
 12 13  2  0
 12 14  1  0
 14 15  2  0
 15 16  1  0
 16 17  2  0
 17 18  1  0
 18 19  2  0
 17 20  1  0
 20 21  1  0
 21 22  2  0
 22 23  1  0
 23 24  1  0
 24 25  2  0
 25 26  1  0
 26 27  2  0
 27 28  1  0
 28 29  2  0
 27 30  1  0
 30 31  1  0
 31 32  2  0
 31 33  1  0
 33 34  1  0
 34 35  1  0
 35 36  1  0
 36 37  1  0
 37 38  1  0
 23 39  1  0
 16 40  1  0
 40 41  1  0
  7  2  1  0
 19 14  1  0
 25 21  1  0
 29 24  1  0
 38 34  1  0
M  END
$$$$
