
     RDKit          3D

 41 45  0  0  0  0  0  0  0  0999 V2000
   -4.8917   -6.2537   17.5070 C   0  0  0  0  0  0  0  0  0  0  0  0
   -5.3248   -5.0948   18.3408 C   0  0  0  0  0  0  0  0  0  0  0  0
   -6.5654   -4.5235   18.0785 C   0  0  0  0  0  0  0  0  0  0  0  0
   -7.0616   -3.4471   18.7648 C   0  0  0  0  0  0  0  0  0  0  0  0
   -6.2569   -2.9353   19.7586 C   0  0  0  0  0  0  0  0  0  0  0  0
   -5.0328   -3.4725   20.0428 C   0  0  0  0  0  0  0  0  0  0  0  0
   -4.5392   -4.5761   19.3298 C   0  0  0  0  0  0  0  0  0  0  0  0
   -2.9857   -5.2260   19.7487 S   0  0  0  0  0  6  0  0  0  0  0  0
   -2.9568   -6.7007   19.3740 O   0  0  0  0  0  0  0  0  0  0  0  0
   -2.7556   -5.2039   21.2388 O   0  0  0  0  0  0  0  0  0  0  0  0
   -1.6894   -4.4995   18.8962 N   0  0  0  0  0  0  0  0  0  0  0  0
   -1.2033   -4.8696   17.6326 C   0  0  0  0  0  0  0  0  0  0  0  0
   -1.5615   -5.9598   17.1546 O   0  0  0  0  0  0  0  0  0  0  0  0
   -0.2879   -4.0337   16.8352 C   0  0  0  0  0  0  0  0  0  0  0  0
    0.2271   -4.4328   15.6260 C   0  0  0  0  0  0  0  0  0  0  0  0
    1.1002   -3.6343   14.8831 C   0  0  0  0  0  0  0  0  0  0  0  0
    1.4733   -2.4014   15.3568 C   0  0  0  0  0  0  0  0  0  0  0  0
    0.9661   -1.9878   16.5658 C   0  0  0  0  0  0  0  0  0  0  0  0
    0.0922   -2.7955   17.3012 C   0  0  0  0  0  0  0  0  0  0  0  0
    2.3835   -1.5249   14.6134 C   0  0  0  0  0  0  0  0  0  0  0  0
    3.7360   -1.4661   15.1648 C   0  0  0  0  0  0  0  0  0  0  0  0
    4.2853   -2.3232   16.0924 C   0  0  0  0  0  0  0  0  0  0  0  0
    5.5454   -1.9650   16.3758 N   0  0  0  0  0  0  0  0  0  0  0  0
    5.8447   -0.8773   15.6477 C   0  0  0  0  0  0  0  0  0  0  0  0
    4.7181   -0.5521   14.8815 C   0  0  0  0  0  0  0  0  0  0  0  0
    4.7693    0.5375   14.0427 C   0  0  0  0  0  0  0  0  0  0  0  0
    5.8848    1.3534   13.9015 C   0  0  0  0  0  0  0  0  0  0  0  0
    6.9673    1.0143   14.6587 C   0  0  0  0  0  0  0  0  0  0  0  0
    6.9652   -0.0798   15.5227 C   0  0  0  0  0  0  0  0  0  0  0  0
    5.7868    2.4342   12.9988 N   0  0  0  0  0  0  0  0  0  0  0  0
    6.8522    3.0052   12.2712 C   0  0  0  0  0  0  0  0  0  0  0  0
    8.0142    2.6588   12.4632 O   0  0  0  0  0  0  0  0  0  0  0  0
    6.6476    3.9900   11.2978 O   0  0  0  0  0  0  0  0  0  0  0  0
    7.7133    4.5522   10.5588 C   0  0  0  0  0  0  0  0  0  0  0  0
    8.5526    3.4987    9.8813 C   0  0  0  0  0  0  0  0  0  0  0  0
    8.4564    3.7445    8.3956 C   0  0  0  0  0  0  0  0  0  0  0  0
    8.0933    5.2001    8.3148 C   0  0  0  0  0  0  0  0  0  0  0  0
    7.2375    5.5081    9.5016 C   0  0  0  0  0  0  0  0  0  0  0  0
    6.4722   -2.5944   17.2934 C   0  0  0  0  0  0  0  0  0  0  0  0
    1.6111   -4.0403   13.6732 O   0  0  0  0  0  0  0  0  0  0  0  0
    1.9601   -5.3738   13.3850 C   0  0  0  0  0  0  0  0  0  0  0  0
  1  2  1  0
  2  3  2  0
  3  4  1  0
  4  5  2  0
  5  6  1  0
  6  7  2  0
  7  8  1  0
  8  9  2  0
  8 10  2  0
  8 11  1  0
 11 12  1  0
 12 13  2  0
 12 14  1  0
 14 15  2  0
 15 16  1  0
 16 17  2  0
 17 18  1  0
 18 19  2  0
 17 20  1  0
 20 21  1  0
 21 22  2  0
 22 23  1  0
 23 24  1  0
 24 25  2  0
 25 26  1  0
 26 27  2  0
 27 28  1  0
 28 29  2  0
 27 30  1  0
 30 31  1  0
 31 32  2  0
 31 33  1  0
 33 34  1  0
 34 35  1  0
 35 36  1  0
 36 37  1  0
 37 38  1  0
 23 39  1  0
 16 40  1  0
 40 41  1  0
  7  2  1  0
 19 14  1  0
 25 21  1  0
 29 24  1  0
 38 34  1  0
M  END
$$$$
