
     RDKit          3D

 41 45  0  0  0  0  0  0  0  0999 V2000
   -2.7776   -9.3021   20.1509 C   0  0  0  0  0  0  0  0  0  0  0  0
   -2.0714   -8.1608   20.8026 C   0  0  0  0  0  0  0  0  0  0  0  0
   -2.5556   -7.6978   22.0213 C   0  0  0  0  0  0  0  0  0  0  0  0
   -2.0019   -6.6475   22.7042 C   0  0  0  0  0  0  0  0  0  0  0  0
   -0.9098   -6.0476   22.1170 C   0  0  0  0  0  0  0  0  0  0  0  0
   -0.4080   -6.4775   20.9207 C   0  0  0  0  0  0  0  0  0  0  0  0
   -0.9874   -7.5558   20.2339 C   0  0  0  0  0  0  0  0  0  0  0  0
   -0.2944   -8.0681   18.7277 S   0  0  0  0  0  6  0  0  0  0  0  0
   -1.4069   -8.5962   17.8336 O   0  0  0  0  0  0  0  0  0  0  0  0
    0.6377   -9.2389   18.9127 O   0  0  0  0  0  0  0  0  0  0  0  0
    0.4492   -6.7979   17.8514 N   0  0  0  0  0  0  0  0  0  0  0  0
   -0.0805   -5.5202   17.6125 C   0  0  0  0  0  0  0  0  0  0  0  0
   -1.2382   -5.2766   17.9941 O   0  0  0  0  0  0  0  0  0  0  0  0
    0.6626   -4.4445   16.9319 C   0  0  0  0  0  0  0  0  0  0  0  0
    0.3423   -3.1153   17.0635 C   0  0  0  0  0  0  0  0  0  0  0  0
    1.0499   -2.1054   16.4069 C   0  0  0  0  0  0  0  0  0  0  0  0
    2.1081   -2.4264   15.5942 C   0  0  0  0  0  0  0  0  0  0  0  0
    2.4412   -3.7527   15.4524 C   0  0  0  0  0  0  0  0  0  0  0  0
    1.7258   -4.7558   16.1149 C   0  0  0  0  0  0  0  0  0  0  0  0
    2.8843   -1.4034   14.8867 C   0  0  0  0  0  0  0  0  0  0  0  0
    4.2165   -1.1760   15.4437 C   0  0  0  0  0  0  0  0  0  0  0  0
    4.7515   -1.7665   16.5669 C   0  0  0  0  0  0  0  0  0  0  0  0
    5.9945   -1.3164   16.7885 N   0  0  0  0  0  0  0  0  0  0  0  0
    6.2963   -0.4308   15.8254 C   0  0  0  0  0  0  0  0  0  0  0  0
    5.1894   -0.3322   14.9727 C   0  0  0  0  0  0  0  0  0  0  0  0
    5.2470    0.5216   13.8952 C   0  0  0  0  0  0  0  0  0  0  0  0
    6.3505    1.3083   13.5895 C   0  0  0  0  0  0  0  0  0  0  0  0
    7.4138    1.1928   14.4358 C   0  0  0  0  0  0  0  0  0  0  0  0
    7.4046    0.3421   15.5402 C   0  0  0  0  0  0  0  0  0  0  0  0
    6.2613    2.1340   12.4481 N   0  0  0  0  0  0  0  0  0  0  0  0
    7.2737    2.9879   11.9620 C   0  0  0  0  0  0  0  0  0  0  0  0
    8.0378    3.5711   12.7256 O   0  0  0  0  0  0  0  0  0  0  0  0
    7.4636    3.2170   10.5943 O   0  0  0  0  0  0  0  0  0  0  0  0
    8.0336    4.4131   10.1025 C   0  0  0  0  0  0  0  0  0  0  0  0
    8.0322    4.4653    8.5955 C   0  0  0  0  0  0  0  0  0  0  0  0
    7.1883    5.6504    8.1948 C   0  0  0  0  0  0  0  0  0  0  0  0
    7.2445    6.5335    9.4090 C   0  0  0  0  0  0  0  0  0  0  0  0
    7.3210    5.6374   10.6035 C   0  0  0  0  0  0  0  0  0  0  0  0
    6.9026   -1.6785   17.8568 C   0  0  0  0  0  0  0  0  0  0  0  0
    0.7236   -0.7771   16.5440 O   0  0  0  0  0  0  0  0  0  0  0  0
    0.0493   -0.0362   15.5543 C   0  0  0  0  0  0  0  0  0  0  0  0
  1  2  1  0
  2  3  2  0
  3  4  1  0
  4  5  2  0
  5  6  1  0
  6  7  2  0
  7  8  1  0
  8  9  2  0
  8 10  2  0
  8 11  1  0
 11 12  1  0
 12 13  2  0
 12 14  1  0
 14 15  2  0
 15 16  1  0
 16 17  2  0
 17 18  1  0
 18 19  2  0
 17 20  1  0
 20 21  1  0
 21 22  2  0
 22 23  1  0
 23 24  1  0
 24 25  2  0
 25 26  1  0
 26 27  2  0
 27 28  1  0
 28 29  2  0
 27 30  1  0
 30 31  1  0
 31 32  2  0
 31 33  1  0
 33 34  1  0
 34 35  1  0
 35 36  1  0
 36 37  1  0
 37 38  1  0
 23 39  1  0
 16 40  1  0
 40 41  1  0
  7  2  1  0
 19 14  1  0
 25 21  1  0
 29 24  1  0
 38 34  1  0
M  END
$$$$
