
     RDKit          3D

 41 45  0  0  0  0  0  0  0  0999 V2000
    7.2094   -3.3011   14.2685 C   0  0  0  0  0  0  0  0  0  0  0  0
    7.7730   -3.5305   15.6307 C   0  0  0  0  0  0  0  0  0  0  0  0
    8.5944   -2.5496   16.1760 C   0  0  0  0  0  0  0  0  0  0  0  0
    9.1821   -2.6560   17.4086 C   0  0  0  0  0  0  0  0  0  0  0  0
    8.9188   -3.8113   18.1108 C   0  0  0  0  0  0  0  0  0  0  0  0
    8.1160   -4.7950   17.6050 C   0  0  0  0  0  0  0  0  0  0  0  0
    7.5211   -4.6698   16.3398 C   0  0  0  0  0  0  0  0  0  0  0  0
    6.4964   -5.9440   15.7587 S   0  0  0  0  0  6  0  0  0  0  0  0
    6.8119   -7.2153   16.5334 O   0  0  0  0  0  0  0  0  0  0  0  0
    6.7941   -6.2867   14.3208 O   0  0  0  0  0  0  0  0  0  0  0  0
    4.8279   -5.6449   16.0068 N   0  0  0  0  0  0  0  0  0  0  0  0
    3.9789   -4.8886   15.1837 C   0  0  0  0  0  0  0  0  0  0  0  0
    3.9744   -5.1209   13.9625 O   0  0  0  0  0  0  0  0  0  0  0  0
    3.0867   -3.8295   15.6881 C   0  0  0  0  0  0  0  0  0  0  0  0
    2.6274   -2.8013   14.9016 C   0  0  0  0  0  0  0  0  0  0  0  0
    1.7879   -1.7988   15.3937 C   0  0  0  0  0  0  0  0  0  0  0  0
    1.3932   -1.8185   16.7080 C   0  0  0  0  0  0  0  0  0  0  0  0
    1.8446   -2.8414   17.5080 C   0  0  0  0  0  0  0  0  0  0  0  0
    2.6847   -3.8403   17.0046 C   0  0  0  0  0  0  0  0  0  0  0  0
    0.5106   -0.7921   17.2709 C   0  0  0  0  0  0  0  0  0  0  0  0
    1.2179    0.3099   17.9207 C   0  0  0  0  0  0  0  0  0  0  0  0
    2.4640    0.7960   17.5928 C   0  0  0  0  0  0  0  0  0  0  0  0
    2.8038    1.8063   18.4055 N   0  0  0  0  0  0  0  0  0  0  0  0
    1.7982    2.0008   19.2737 C   0  0  0  0  0  0  0  0  0  0  0  0
    0.7944    1.0686   18.9815 C   0  0  0  0  0  0  0  0  0  0  0  0
   -0.3542    1.0603   19.7391 C   0  0  0  0  0  0  0  0  0  0  0  0
   -0.5906    1.9311   20.7954 C   0  0  0  0  0  0  0  0  0  0  0  0
    0.4027    2.8280   21.0582 C   0  0  0  0  0  0  0  0  0  0  0  0
    1.5842    2.8766   20.3197 C   0  0  0  0  0  0  0  0  0  0  0  0
   -1.8192    1.8027   21.4784 N   0  0  0  0  0  0  0  0  0  0  0  0
   -2.1186    2.3316   22.7517 C   0  0  0  0  0  0  0  0  0  0  0  0
   -1.4842    3.2741   23.2165 O   0  0  0  0  0  0  0  0  0  0  0  0
   -3.1464    1.8171   23.5504 O   0  0  0  0  0  0  0  0  0  0  0  0
   -3.1268    1.9161   24.9602 C   0  0  0  0  0  0  0  0  0  0  0  0
   -4.2128    2.8231   25.4811 C   0  0  0  0  0  0  0  0  0  0  0  0
   -5.1091    1.9822   26.3567 C   0  0  0  0  0  0  0  0  0  0  0  0
   -4.2132    0.8501   26.7721 C   0  0  0  0  0  0  0  0  0  0  0  0
   -3.2840    0.5812   25.6319 C   0  0  0  0  0  0  0  0  0  0  0  0
    4.0219    2.5895   18.4023 C   0  0  0  0  0  0  0  0  0  0  0  0
    1.3318   -0.7732   14.6001 O   0  0  0  0  0  0  0  0  0  0  0  0
    1.0835   -0.9092   13.2207 C   0  0  0  0  0  0  0  0  0  0  0  0
  1  2  1  0
  2  3  2  0
  3  4  1  0
  4  5  2  0
  5  6  1  0
  6  7  2  0
  7  8  1  0
  8  9  2  0
  8 10  2  0
  8 11  1  0
 11 12  1  0
 12 13  2  0
 12 14  1  0
 14 15  2  0
 15 16  1  0
 16 17  2  0
 17 18  1  0
 18 19  2  0
 17 20  1  0
 20 21  1  0
 21 22  2  0
 22 23  1  0
 23 24  1  0
 24 25  2  0
 25 26  1  0
 26 27  2  0
 27 28  1  0
 28 29  2  0
 27 30  1  0
 30 31  1  0
 31 32  2  0
 31 33  1  0
 33 34  1  0
 34 35  1  0
 35 36  1  0
 36 37  1  0
 37 38  1  0
 23 39  1  0
 16 40  1  0
 40 41  1  0
  7  2  1  0
 19 14  1  0
 25 21  1  0
 29 24  1  0
 38 34  1  0
M  END
$$$$
