
     RDKit          3D

 33 36  0  0  0  0  0  0  0  0999 V2000
   -1.0160   -8.9102   15.3436 C   0  0  0  0  0  0  0  0  0  0  0  0
   -2.4834   -8.5519   15.3744 C   0  0  0  0  0  0  0  0  0  0  0  0
   -3.0801   -9.3185   16.5341 C   0  0  0  0  0  0  0  0  0  0  0  0
   -2.6785   -7.0625   15.5097 C   0  0  0  0  0  0  0  0  0  0  0  0
   -3.7990   -6.7503   16.4811 C   0  0  0  0  0  0  0  0  0  0  0  0
   -4.9848   -6.4884   15.6152 C   0  0  0  0  0  0  0  0  0  0  0  0
   -4.3836   -5.8356   14.3869 C   0  0  0  0  0  0  0  0  0  0  0  0
   -3.0071   -6.3764   14.2473 C   0  0  0  0  0  0  0  0  0  0  0  0
   -4.4274   -4.3994   14.5908 N   0  0  0  0  0  4  0  0  0  0  0  0
   -4.0840   -3.7862   13.3257 C   0  0  0  0  0  0  0  0  0  0  0  0
   -2.7735   -3.0101   13.4296 C   0  0  0  0  0  0  0  0  0  0  0  0
   -2.3447   -2.7473   11.9809 C   0  0  0  0  0  0  0  0  0  0  0  0
   -3.3982   -2.2678   11.2431 O   0  0  0  0  0  0  0  0  0  0  0  0
   -4.4507   -1.7776   12.0079 C   0  0  0  0  0  0  0  0  0  0  0  0
   -5.1412   -2.8696   12.7967 C   0  0  0  0  0  0  0  0  0  0  0  0
   -6.0292   -3.4976   11.9257 O   0  0  0  0  0  0  0  0  0  0  0  0
   -6.8906   -2.5507   11.3417 C   0  0  0  0  0  0  0  0  0  0  0  0
   -1.4372   -6.5060   16.1288 C   0  0  0  0  0  0  0  0  0  0  0  0
   -1.2928   -6.5655   17.4000 O   0  0  0  0  0  0  0  0  0  0  0  0
   -0.3808   -5.9019   15.4116 N   0  0  0  0  0  0  0  0  0  0  0  0
   -0.1790   -5.9257   13.9884 C   0  0  0  0  0  0  0  0  0  0  0  0
    0.6195   -4.6705   13.5508 C   0  0  0  0  0  0  0  0  0  0  0  0
    1.9800   -4.9204   14.1622 C   0  0  0  0  0  0  0  0  0  0  0  0
    1.9259   -5.1817   15.5247 C   0  0  0  0  0  0  0  0  0  0  0  0
    0.6244   -5.1573   16.1884 C   0  0  0  0  0  0  0  0  0  0  0  0
    3.1325   -5.4346   16.1462 C   0  0  0  0  0  0  0  0  0  0  0  0
    4.3173   -5.4239   15.4379 C   0  0  0  0  0  0  0  0  0  0  0  0
    4.2973   -5.1531   14.0708 C   0  0  0  0  0  0  0  0  0  0  0  0
    3.1110   -4.9021   13.4462 N   0  0  0  0  0  0  0  0  0  0  0  0
    5.6124   -5.6978   16.1158 C   0  0  0  0  0  0  0  0  0  0  0  0
    5.9406   -4.7140   17.0277 F   0  0  0  0  0  0  0  0  0  0  0  0
    6.6177   -5.7126   15.1601 F   0  0  0  0  0  0  0  0  0  0  0  0
    5.5931   -6.9379   16.7593 F   0  0  0  0  0  0  0  0  0  0  0  0
  1  2  1  0
  2  3  1  0
  2  4  1  0
  4  5  1  0
  5  6  1  0
  6  7  1  0
  7  8  1  0
  7  9  1  0
  9 10  1  0
 10 11  1  0
 11 12  1  0
 12 13  1  0
 13 14  1  0
 14 15  1  0
 15 16  1  0
 16 17  1  0
  4 18  1  0
 18 19  2  0
 18 20  1  0
 20 21  1  0
 21 22  1  0
 22 23  1  0
 23 24  2  0
 24 25  1  0
 24 26  1  0
 26 27  2  0
 27 28  1  0
 28 29  2  0
 27 30  1  0
 30 31  1  0
 30 32  1  0
 30 33  1  0
  8  4  1  0
 15 10  1  0
 25 20  1  0
 29 23  1  0
M  CHG  1   9   1
M  END
$$$$
