
     RDKit          3D

 33 36  0  0  0  0  0  0  0  0999 V2000
    0.1854   -8.8577   15.6247 C   0  0  0  0  0  0  0  0  0  0  0  0
   -1.2841   -8.5497   15.4563 C   0  0  0  0  0  0  0  0  0  0  0  0
   -1.9591   -9.0063   16.7309 C   0  0  0  0  0  0  0  0  0  0  0  0
   -1.5063   -7.0833   15.1825 C   0  0  0  0  0  0  0  0  0  0  0  0
   -2.8559   -6.6344   15.7055 C   0  0  0  0  0  0  0  0  0  0  0  0
   -3.7462   -6.6487   14.5090 C   0  0  0  0  0  0  0  0  0  0  0  0
   -2.8193   -6.2496   13.3785 C   0  0  0  0  0  0  0  0  0  0  0  0
   -1.4611   -6.7188   13.7550 C   0  0  0  0  0  0  0  0  0  0  0  0
   -2.9160   -4.8099   13.2231 N   0  0  0  0  0  4  0  0  0  0  0  0
   -1.9092   -4.4245   12.2575 C   0  0  0  0  0  0  0  0  0  0  0  0
   -0.5188   -4.8641   12.7091 C   0  0  0  0  0  0  0  0  0  0  0  0
    0.3666   -4.7437   11.4628 C   0  0  0  0  0  0  0  0  0  0  0  0
    0.1696   -3.5347   10.8434 O   0  0  0  0  0  0  0  0  0  0  0  0
   -0.4499   -2.5810   11.6433 C   0  0  0  0  0  0  0  0  0  0  0  0
   -1.8780   -2.9555   11.9772 C   0  0  0  0  0  0  0  0  0  0  0  0
   -2.6589   -2.5867   10.8836 O   0  0  0  0  0  0  0  0  0  0  0  0
   -2.6805   -1.1862   10.7504 C   0  0  0  0  0  0  0  0  0  0  0  0
   -0.4909   -6.3245   15.9742 C   0  0  0  0  0  0  0  0  0  0  0  0
   -0.2304   -6.6936   17.1726 O   0  0  0  0  0  0  0  0  0  0  0  0
    0.2252   -5.2026   15.5006 N   0  0  0  0  0  0  0  0  0  0  0  0
    1.6191   -5.1521   15.1529 C   0  0  0  0  0  0  0  0  0  0  0  0
    1.8563   -4.0415   14.0968 C   0  0  0  0  0  0  0  0  0  0  0  0
    1.5841   -2.7796   14.8846 C   0  0  0  0  0  0  0  0  0  0  0  0
    0.3473   -2.7866   15.5155 C   0  0  0  0  0  0  0  0  0  0  0  0
   -0.5230   -3.9457   15.3312 C   0  0  0  0  0  0  0  0  0  0  0  0
    0.0387   -1.6699   16.2663 C   0  0  0  0  0  0  0  0  0  0  0  0
    0.9214   -0.6140   16.3729 C   0  0  0  0  0  0  0  0  0  0  0  0
    2.1467   -0.6743   15.7115 C   0  0  0  0  0  0  0  0  0  0  0  0
    2.4625   -1.7727   14.9670 N   0  0  0  0  0  0  0  0  0  0  0  0
    0.5804    0.5849   17.1843 C   0  0  0  0  0  0  0  0  0  0  0  0
   -0.3376    1.3985   16.5500 F   0  0  0  0  0  0  0  0  0  0  0  0
    1.7305    1.3392   17.3641 F   0  0  0  0  0  0  0  0  0  0  0  0
    0.0871    0.2211   18.4400 F   0  0  0  0  0  0  0  0  0  0  0  0
  1  2  1  0
  2  3  1  0
  2  4  1  0
  4  5  1  0
  5  6  1  0
  6  7  1  0
  7  8  1  0
  7  9  1  0
  9 10  1  0
 10 11  1  0
 11 12  1  0
 12 13  1  0
 13 14  1  0
 14 15  1  0
 15 16  1  0
 16 17  1  0
  4 18  1  0
 18 19  2  0
 18 20  1  0
 20 21  1  0
 21 22  1  0
 22 23  1  0
 23 24  2  0
 24 25  1  0
 24 26  1  0
 26 27  2  0
 27 28  1  0
 28 29  2  0
 27 30  1  0
 30 31  1  0
 30 32  1  0
 30 33  1  0
  8  4  1  0
 15 10  1  0
 25 20  1  0
 29 23  1  0
M  CHG  1   9   1
M  END
$$$$
