
     RDKit          3D

 33 36  0  0  0  0  0  0  0  0999 V2000
   -1.6494   -7.4834   12.8183 C   0  0  0  0  0  0  0  0  0  0  0  0
   -1.1222   -7.6903   14.2190 C   0  0  0  0  0  0  0  0  0  0  0  0
    0.2988   -7.1710   14.2154 C   0  0  0  0  0  0  0  0  0  0  0  0
   -1.9870   -6.9893   15.2366 C   0  0  0  0  0  0  0  0  0  0  0  0
   -1.9434   -7.7083   16.5699 C   0  0  0  0  0  0  0  0  0  0  0  0
   -3.1805   -8.5412   16.5880 C   0  0  0  0  0  0  0  0  0  0  0  0
   -4.1832   -7.6950   15.8298 C   0  0  0  0  0  0  0  0  0  0  0  0
   -3.4072   -6.8842   14.8566 C   0  0  0  0  0  0  0  0  0  0  0  0
   -4.9076   -6.8998   16.8040 N   0  0  0  0  0  4  0  0  0  0  0  0
   -6.1416   -7.6024   17.0835 C   0  0  0  0  0  0  0  0  0  0  0  0
   -6.1282   -9.0004   16.4706 C   0  0  0  0  0  0  0  0  0  0  0  0
   -7.2854   -9.7473   17.1451 C   0  0  0  0  0  0  0  0  0  0  0  0
   -8.4241   -8.9808   17.1420 O   0  0  0  0  0  0  0  0  0  0  0  0
   -8.3963   -7.9261   16.2366 C   0  0  0  0  0  0  0  0  0  0  0  0
   -7.3630   -6.8831   16.6055 C   0  0  0  0  0  0  0  0  0  0  0  0
   -7.9395   -6.0696   17.5789 O   0  0  0  0  0  0  0  0  0  0  0  0
   -9.3251   -5.9574   17.3621 C   0  0  0  0  0  0  0  0  0  0  0  0
   -1.3841   -5.6437   15.4807 C   0  0  0  0  0  0  0  0  0  0  0  0
   -1.1765   -5.2617   16.6854 O   0  0  0  0  0  0  0  0  0  0  0  0
   -1.0144   -4.7311   14.4677 N   0  0  0  0  0  0  0  0  0  0  0  0
   -0.8625   -5.0121   13.0661 C   0  0  0  0  0  0  0  0  0  0  0  0
   -1.1187   -3.7236   12.2421 C   0  0  0  0  0  0  0  0  0  0  0  0
    0.0627   -2.8571   12.6169 C   0  0  0  0  0  0  0  0  0  0  0  0
    0.2112   -2.7012   13.9886 C   0  0  0  0  0  0  0  0  0  0  0  0
   -0.7627   -3.3378   14.8724 C   0  0  0  0  0  0  0  0  0  0  0  0
    1.2807   -1.9329   14.4033 C   0  0  0  0  0  0  0  0  0  0  0  0
    2.1442   -1.3587   13.4923 C   0  0  0  0  0  0  0  0  0  0  0  0
    1.9344   -1.5568   12.1287 C   0  0  0  0  0  0  0  0  0  0  0  0
    0.8811   -2.3141   11.7073 N   0  0  0  0  0  0  0  0  0  0  0  0
    3.2939   -0.5329   13.9484 C   0  0  0  0  0  0  0  0  0  0  0  0
    4.0450   -0.0578   12.8914 F   0  0  0  0  0  0  0  0  0  0  0  0
    4.1339   -1.3282   14.7139 F   0  0  0  0  0  0  0  0  0  0  0  0
    2.8644    0.5418   14.7314 F   0  0  0  0  0  0  0  0  0  0  0  0
  1  2  1  0
  2  3  1  0
  2  4  1  0
  4  5  1  0
  5  6  1  0
  6  7  1  0
  7  8  1  0
  7  9  1  0
  9 10  1  0
 10 11  1  0
 11 12  1  0
 12 13  1  0
 13 14  1  0
 14 15  1  0
 15 16  1  0
 16 17  1  0
  4 18  1  0
 18 19  2  0
 18 20  1  0
 20 21  1  0
 21 22  1  0
 22 23  1  0
 23 24  2  0
 24 25  1  0
 24 26  1  0
 26 27  2  0
 27 28  1  0
 28 29  2  0
 27 30  1  0
 30 31  1  0
 30 32  1  0
 30 33  1  0
  8  4  1  0
 15 10  1  0
 25 20  1  0
 29 23  1  0
M  CHG  1   9   1
M  END
$$$$
