
     RDKit          3D

 33 36  0  0  0  0  0  0  0  0999 V2000
   -1.6559   -2.2474   11.6755 C   0  0  0  0  0  0  0  0  0  0  0  0
   -2.1359   -2.6176   13.0594 C   0  0  0  0  0  0  0  0  0  0  0  0
   -3.4527   -3.3380   12.8701 C   0  0  0  0  0  0  0  0  0  0  0  0
   -1.1175   -3.4634   13.7820 C   0  0  0  0  0  0  0  0  0  0  0  0
   -1.0854   -4.8698   13.2185 C   0  0  0  0  0  0  0  0  0  0  0  0
   -1.9220   -5.6703   14.1587 C   0  0  0  0  0  0  0  0  0  0  0  0
   -1.6584   -5.0199   15.5018 C   0  0  0  0  0  0  0  0  0  0  0  0
   -1.3534   -3.5915   15.2312 C   0  0  0  0  0  0  0  0  0  0  0  0
   -0.5655   -5.7405   16.1282 N   0  0  0  0  0  4  0  0  0  0  0  0
   -1.1512   -6.8645   16.8270 C   0  0  0  0  0  0  0  0  0  0  0  0
   -0.3258   -7.2374   18.0558 C   0  0  0  0  0  0  0  0  0  0  0  0
   -1.2321   -8.1532   18.8875 C   0  0  0  0  0  0  0  0  0  0  0  0
   -1.8038   -9.1178   18.0957 O   0  0  0  0  0  0  0  0  0  0  0  0
   -1.1721   -9.2941   16.8698 C   0  0  0  0  0  0  0  0  0  0  0  0
   -1.3145   -8.0823   15.9739 C   0  0  0  0  0  0  0  0  0  0  0  0
   -2.5684   -8.1694   15.3723 O   0  0  0  0  0  0  0  0  0  0  0  0
   -2.5060   -8.9921   14.2327 C   0  0  0  0  0  0  0  0  0  0  0  0
    0.2285   -2.8802   13.4953 C   0  0  0  0  0  0  0  0  0  0  0  0
    1.2741   -3.5882   13.7086 O   0  0  0  0  0  0  0  0  0  0  0  0
    0.4519   -1.5776   12.9964 N   0  0  0  0  0  0  0  0  0  0  0  0
   -0.5256   -0.6935   12.4224 C   0  0  0  0  0  0  0  0  0  0  0  0
   -0.0840    0.7792   12.6251 C   0  0  0  0  0  0  0  0  0  0  0  0
    1.1334    0.8797   11.7336 C   0  0  0  0  0  0  0  0  0  0  0  0
    2.0836   -0.0982   11.9957 C   0  0  0  0  0  0  0  0  0  0  0  0
    1.8249   -1.0510   13.0729 C   0  0  0  0  0  0  0  0  0  0  0  0
    3.2166   -0.0754   11.2072 C   0  0  0  0  0  0  0  0  0  0  0  0
    3.3802    0.8736   10.2183 C   0  0  0  0  0  0  0  0  0  0  0  0
    2.3849    1.8268   10.0104 C   0  0  0  0  0  0  0  0  0  0  0  0
    1.2610    1.8138   10.7832 N   0  0  0  0  0  0  0  0  0  0  0  0
    4.6041    0.8901    9.3735 C   0  0  0  0  0  0  0  0  0  0  0  0
    4.7205    2.0602    8.6493 F   0  0  0  0  0  0  0  0  0  0  0  0
    4.5215   -0.1456    8.4545 F   0  0  0  0  0  0  0  0  0  0  0  0
    5.7537    0.7075   10.1465 F   0  0  0  0  0  0  0  0  0  0  0  0
  1  2  1  0
  2  3  1  0
  2  4  1  0
  4  5  1  0
  5  6  1  0
  6  7  1  0
  7  8  1  0
  7  9  1  0
  9 10  1  0
 10 11  1  0
 11 12  1  0
 12 13  1  0
 13 14  1  0
 14 15  1  0
 15 16  1  0
 16 17  1  0
  4 18  1  0
 18 19  2  0
 18 20  1  0
 20 21  1  0
 21 22  1  0
 22 23  1  0
 23 24  2  0
 24 25  1  0
 24 26  1  0
 26 27  2  0
 27 28  1  0
 28 29  2  0
 27 30  1  0
 30 31  1  0
 30 32  1  0
 30 33  1  0
  8  4  1  0
 15 10  1  0
 25 20  1  0
 29 23  1  0
M  CHG  1   9   1
M  END
$$$$
