
     RDKit          3D

 33 36  0  0  0  0  0  0  0  0999 V2000
   -5.5843   -4.2043   15.0752 C   0  0  0  0  0  0  0  0  0  0  0  0
   -4.3943   -5.1017   15.3232 C   0  0  0  0  0  0  0  0  0  0  0  0
   -4.7484   -6.4457   14.7259 C   0  0  0  0  0  0  0  0  0  0  0  0
   -3.1383   -4.5201   14.7241 C   0  0  0  0  0  0  0  0  0  0  0  0
   -2.4082   -3.6564   15.7328 C   0  0  0  0  0  0  0  0  0  0  0  0
   -2.8133   -2.2612   15.3957 C   0  0  0  0  0  0  0  0  0  0  0  0
   -2.9675   -2.2961   13.8887 C   0  0  0  0  0  0  0  0  0  0  0  0
   -3.3656   -3.6824   13.5329 C   0  0  0  0  0  0  0  0  0  0  0  0
   -1.7004   -1.8874   13.3111 N   0  0  0  0  0  4  0  0  0  0  0  0
   -1.8334   -2.0169   11.8758 C   0  0  0  0  0  0  0  0  0  0  0  0
   -1.9769   -3.4808   11.4676 C   0  0  0  0  0  0  0  0  0  0  0  0
   -2.4804   -3.4479   10.0195 C   0  0  0  0  0  0  0  0  0  0  0  0
   -1.7391   -2.5701    9.2685 O   0  0  0  0  0  0  0  0  0  0  0  0
   -0.5210   -2.2211    9.8408 C   0  0  0  0  0  0  0  0  0  0  0  0
   -0.6958   -1.4173   11.1115 C   0  0  0  0  0  0  0  0  0  0  0  0
   -0.9253   -0.0978   10.7269 O   0  0  0  0  0  0  0  0  0  0  0  0
   -1.3116   -0.0445    9.3749 C   0  0  0  0  0  0  0  0  0  0  0  0
   -2.2194   -5.6603   14.4249 C   0  0  0  0  0  0  0  0  0  0  0  0
   -2.6686   -6.6717   13.7804 O   0  0  0  0  0  0  0  0  0  0  0  0
   -0.8600   -5.7197   14.8042 N   0  0  0  0  0  0  0  0  0  0  0  0
    0.1859   -4.8144   14.4128 C   0  0  0  0  0  0  0  0  0  0  0  0
    1.2933   -4.7916   15.4982 C   0  0  0  0  0  0  0  0  0  0  0  0
    1.8876   -6.1778   15.3861 C   0  0  0  0  0  0  0  0  0  0  0  0
    0.9392   -7.1872   15.4835 C   0  0  0  0  0  0  0  0  0  0  0  0
   -0.4564   -6.8142   15.7028 C   0  0  0  0  0  0  0  0  0  0  0  0
    1.4107   -8.4803   15.3743 C   0  0  0  0  0  0  0  0  0  0  0  0
    2.7528   -8.7377   15.1799 C   0  0  0  0  0  0  0  0  0  0  0  0
    3.6499   -7.6746   15.0919 C   0  0  0  0  0  0  0  0  0  0  0  0
    3.1955   -6.3929   15.1981 N   0  0  0  0  0  0  0  0  0  0  0  0
    3.2515  -10.1339   15.0630 C   0  0  0  0  0  0  0  0  0  0  0  0
    2.6958  -10.9662   16.0147 F   0  0  0  0  0  0  0  0  0  0  0  0
    4.6217  -10.1340   15.2788 F   0  0  0  0  0  0  0  0  0  0  0  0
    3.0022  -10.6542   13.7904 F   0  0  0  0  0  0  0  0  0  0  0  0
  1  2  1  0
  2  3  1  0
  2  4  1  0
  4  5  1  0
  5  6  1  0
  6  7  1  0
  7  8  1  0
  7  9  1  0
  9 10  1  0
 10 11  1  0
 11 12  1  0
 12 13  1  0
 13 14  1  0
 14 15  1  0
 15 16  1  0
 16 17  1  0
  4 18  1  0
 18 19  2  0
 18 20  1  0
 20 21  1  0
 21 22  1  0
 22 23  1  0
 23 24  2  0
 24 25  1  0
 24 26  1  0
 26 27  2  0
 27 28  1  0
 28 29  2  0
 27 30  1  0
 30 31  1  0
 30 32  1  0
 30 33  1  0
  8  4  1  0
 15 10  1  0
 25 20  1  0
 29 23  1  0
M  CHG  1   9   1
M  END
$$$$
