
     RDKit          3D

 33 36  0  0  0  0  0  0  0  0999 V2000
   -4.7609   -2.1526   15.5347 C   0  0  0  0  0  0  0  0  0  0  0  0
   -3.2862   -1.8529   15.4008 C   0  0  0  0  0  0  0  0  0  0  0  0
   -2.6613   -2.2086   16.7318 C   0  0  0  0  0  0  0  0  0  0  0  0
   -2.6751   -2.6213   14.2559 C   0  0  0  0  0  0  0  0  0  0  0  0
   -1.3360   -2.0308   13.8625 C   0  0  0  0  0  0  0  0  0  0  0  0
   -1.6374   -1.1694   12.6827 C   0  0  0  0  0  0  0  0  0  0  0  0
   -2.7568   -1.9137   11.9831 C   0  0  0  0  0  0  0  0  0  0  0  0
   -3.5012   -2.6516   13.0357 C   0  0  0  0  0  0  0  0  0  0  0  0
   -2.1503   -2.7757   10.9855 N   0  0  0  0  0  4  0  0  0  0  0  0
   -2.1997   -2.0604    9.7284 C   0  0  0  0  0  0  0  0  0  0  0  0
   -3.6371   -1.9153    9.2354 C   0  0  0  0  0  0  0  0  0  0  0  0
   -3.5812   -0.8440    8.1395 C   0  0  0  0  0  0  0  0  0  0  0  0
   -2.5525   -1.0970    7.2666 O   0  0  0  0  0  0  0  0  0  0  0  0
   -2.0645   -2.3975    7.3255 C   0  0  0  0  0  0  0  0  0  0  0  0
   -1.3851   -2.6938    8.6454 C   0  0  0  0  0  0  0  0  0  0  0  0
   -0.0918   -2.1823    8.5581 O   0  0  0  0  0  0  0  0  0  0  0  0
    0.8012   -3.1845    8.1364 C   0  0  0  0  0  0  0  0  0  0  0  0
   -2.3809   -3.9999   14.7528 C   0  0  0  0  0  0  0  0  0  0  0  0
   -3.3412   -4.8387   14.8725 O   0  0  0  0  0  0  0  0  0  0  0  0
   -1.0981   -4.4693   15.1129 N   0  0  0  0  0  0  0  0  0  0  0  0
    0.1628   -3.8407   14.8273 C   0  0  0  0  0  0  0  0  0  0  0  0
    1.2064   -4.2473   15.8999 C   0  0  0  0  0  0  0  0  0  0  0  0
    1.4083   -5.7191   15.6163 C   0  0  0  0  0  0  0  0  0  0  0  0
    0.2210   -6.4386   15.5967 C   0  0  0  0  0  0  0  0  0  0  0  0
   -1.0280   -5.7309   15.8691 C   0  0  0  0  0  0  0  0  0  0  0  0
    0.3297   -7.7884   15.3281 C   0  0  0  0  0  0  0  0  0  0  0  0
    1.5576   -8.3742   15.0948 C   0  0  0  0  0  0  0  0  0  0  0  0
    2.7097   -7.5907   15.1306 C   0  0  0  0  0  0  0  0  0  0  0  0
    2.6145   -6.2559   15.3948 N   0  0  0  0  0  0  0  0  0  0  0  0
    1.6648   -9.8291   14.8058 C   0  0  0  0  0  0  0  0  0  0  0  0
    2.9394  -10.3115   15.0297 F   0  0  0  0  0  0  0  0  0  0  0  0
    1.3866  -10.0352   13.4626 F   0  0  0  0  0  0  0  0  0  0  0  0
    0.7514  -10.5636   15.5664 F   0  0  0  0  0  0  0  0  0  0  0  0
  1  2  1  0
  2  3  1  0
  2  4  1  0
  4  5  1  0
  5  6  1  0
  6  7  1  0
  7  8  1  0
  7  9  1  0
  9 10  1  0
 10 11  1  0
 11 12  1  0
 12 13  1  0
 13 14  1  0
 14 15  1  0
 15 16  1  0
 16 17  1  0
  4 18  1  0
 18 19  2  0
 18 20  1  0
 20 21  1  0
 21 22  1  0
 22 23  1  0
 23 24  2  0
 24 25  1  0
 24 26  1  0
 26 27  2  0
 27 28  1  0
 28 29  2  0
 27 30  1  0
 30 31  1  0
 30 32  1  0
 30 33  1  0
  8  4  1  0
 15 10  1  0
 25 20  1  0
 29 23  1  0
M  CHG  1   9   1
M  END
$$$$
