
     RDKit          3D

 33 36  0  0  0  0  0  0  0  0999 V2000
    1.9402   -6.2765   13.1418 C   0  0  0  0  0  0  0  0  0  0  0  0
    1.8580   -5.2369   14.2350 C   0  0  0  0  0  0  0  0  0  0  0  0
    2.6244   -4.0339   13.7311 C   0  0  0  0  0  0  0  0  0  0  0  0
    0.4244   -4.9065   14.5670 C   0  0  0  0  0  0  0  0  0  0  0  0
    0.2938   -4.4536   16.0073 C   0  0  0  0  0  0  0  0  0  0  0  0
   -0.1675   -5.6668   16.7421 C   0  0  0  0  0  0  0  0  0  0  0  0
   -1.0456   -6.3756   15.7307 C   0  0  0  0  0  0  0  0  0  0  0  0
   -0.5142   -6.0287   14.3876 C   0  0  0  0  0  0  0  0  0  0  0  0
   -2.4096   -5.9313   15.9502 N   0  0  0  0  0  4  0  0  0  0  0  0
   -3.2757   -6.9953   15.4897 C   0  0  0  0  0  0  0  0  0  0  0  0
   -4.0628   -6.5664   14.2540 C   0  0  0  0  0  0  0  0  0  0  0  0
   -4.6258   -7.8650   13.6638 C   0  0  0  0  0  0  0  0  0  0  0  0
   -5.2043   -8.6320   14.6442 O   0  0  0  0  0  0  0  0  0  0  0  0
   -5.4926   -7.9368   15.8132 C   0  0  0  0  0  0  0  0  0  0  0  0
   -4.2403   -7.4754   16.5274 C   0  0  0  0  0  0  0  0  0  0  0  0
   -3.7671   -8.5637   17.2577 O   0  0  0  0  0  0  0  0  0  0  0  0
   -4.5549   -8.7587   18.4071 C   0  0  0  0  0  0  0  0  0  0  0  0
    0.0354   -3.7282   13.7338 C   0  0  0  0  0  0  0  0  0  0  0  0
   -1.2067   -3.4745   13.5523 O   0  0  0  0  0  0  0  0  0  0  0  0
    0.9466   -2.8466   13.1110 N   0  0  0  0  0  0  0  0  0  0  0  0
    2.1477   -2.3009   13.6823 C   0  0  0  0  0  0  0  0  0  0  0  0
    3.1615   -1.9713   12.5560 C   0  0  0  0  0  0  0  0  0  0  0  0
    2.4894   -0.8218   11.8391 C   0  0  0  0  0  0  0  0  0  0  0  0
    1.1900   -1.1104   11.4440 C   0  0  0  0  0  0  0  0  0  0  0  0
    0.6543   -2.4402   11.7261 C   0  0  0  0  0  0  0  0  0  0  0  0
    0.5101   -0.0986   10.7959 C   0  0  0  0  0  0  0  0  0  0  0  0
    1.1037    1.1253   10.5613 C   0  0  0  0  0  0  0  0  0  0  0  0
    2.4130    1.3457   10.9855 C   0  0  0  0  0  0  0  0  0  0  0  0
    3.0944    0.3534   11.6270 N   0  0  0  0  0  0  0  0  0  0  0  0
    0.3634    2.2096    9.8626 C   0  0  0  0  0  0  0  0  0  0  0  0
   -0.9650    1.8882    9.6640 F   0  0  0  0  0  0  0  0  0  0  0  0
    0.9255    2.3917    8.6076 F   0  0  0  0  0  0  0  0  0  0  0  0
    0.4484    3.4137   10.5664 F   0  0  0  0  0  0  0  0  0  0  0  0
  1  2  1  0
  2  3  1  0
  2  4  1  0
  4  5  1  0
  5  6  1  0
  6  7  1  0
  7  8  1  0
  7  9  1  0
  9 10  1  0
 10 11  1  0
 11 12  1  0
 12 13  1  0
 13 14  1  0
 14 15  1  0
 15 16  1  0
 16 17  1  0
  4 18  1  0
 18 19  2  0
 18 20  1  0
 20 21  1  0
 21 22  1  0
 22 23  1  0
 23 24  2  0
 24 25  1  0
 24 26  1  0
 26 27  2  0
 27 28  1  0
 28 29  2  0
 27 30  1  0
 30 31  1  0
 30 32  1  0
 30 33  1  0
  8  4  1  0
 15 10  1  0
 25 20  1  0
 29 23  1  0
M  CHG  1   9   1
M  END
$$$$
