
     RDKit          3D

 33 36  0  0  0  0  0  0  0  0999 V2000
    2.7956   -5.7321   15.6720 C   0  0  0  0  0  0  0  0  0  0  0  0
    2.1415   -4.9170   14.5809 C   0  0  0  0  0  0  0  0  0  0  0  0
    2.7404   -5.3992   13.2781 C   0  0  0  0  0  0  0  0  0  0  0  0
    0.6411   -5.0667   14.6132 C   0  0  0  0  0  0  0  0  0  0  0  0
   -0.0094   -3.8541   15.2481 C   0  0  0  0  0  0  0  0  0  0  0  0
   -0.2744   -4.2647   16.6573 C   0  0  0  0  0  0  0  0  0  0  0  0
   -0.5886   -5.7423   16.5379 C   0  0  0  0  0  0  0  0  0  0  0  0
    0.1646   -6.2446   15.3602 C   0  0  0  0  0  0  0  0  0  0  0  0
   -2.0281   -5.8728   16.4078 N   0  0  0  0  0  4  0  0  0  0  0  0
   -2.3188   -7.2902   16.3755 C   0  0  0  0  0  0  0  0  0  0  0  0
   -2.9860   -7.6839   15.0602 C   0  0  0  0  0  0  0  0  0  0  0  0
   -2.8887   -9.2132   15.0008 C   0  0  0  0  0  0  0  0  0  0  0  0
   -3.2821   -9.7704   16.1920 O   0  0  0  0  0  0  0  0  0  0  0  0
   -4.0142   -8.9132   17.0057 C   0  0  0  0  0  0  0  0  0  0  0  0
   -3.1830   -7.7512   17.5061 C   0  0  0  0  0  0  0  0  0  0  0  0
   -2.4566   -8.2157   18.6008 O   0  0  0  0  0  0  0  0  0  0  0  0
   -3.2619   -8.2179   19.7545 C   0  0  0  0  0  0  0  0  0  0  0  0
    0.1659   -5.0874   13.1963 C   0  0  0  0  0  0  0  0  0  0  0  0
    0.3182   -6.1528   12.5021 O   0  0  0  0  0  0  0  0  0  0  0  0
   -0.4530   -4.0011   12.5387 N   0  0  0  0  0  0  0  0  0  0  0  0
   -1.5608   -4.0630   11.6246 C   0  0  0  0  0  0  0  0  0  0  0  0
   -2.3441   -2.7250   11.6586 C   0  0  0  0  0  0  0  0  0  0  0  0
   -1.3594   -1.7555   11.0443 C   0  0  0  0  0  0  0  0  0  0  0  0
   -0.1194   -1.7685   11.6690 C   0  0  0  0  0  0  0  0  0  0  0  0
    0.0752   -2.6545   12.8144 C   0  0  0  0  0  0  0  0  0  0  0  0
    0.8349   -0.9169   11.1492 C   0  0  0  0  0  0  0  0  0  0  0  0
    0.5554   -0.1044   10.0689 C   0  0  0  0  0  0  0  0  0  0  0  0
   -0.7123   -0.1427    9.4910 C   0  0  0  0  0  0  0  0  0  0  0  0
   -1.6631   -0.9803    9.9960 N   0  0  0  0  0  0  0  0  0  0  0  0
    1.5900    0.8096    9.5154 C   0  0  0  0  0  0  0  0  0  0  0  0
    1.9843    1.7646   10.4317 F   0  0  0  0  0  0  0  0  0  0  0  0
    1.0478    1.4886    8.4342 F   0  0  0  0  0  0  0  0  0  0  0  0
    2.7098    0.0981    9.0770 F   0  0  0  0  0  0  0  0  0  0  0  0
  1  2  1  0
  2  3  1  0
  2  4  1  0
  4  5  1  0
  5  6  1  0
  6  7  1  0
  7  8  1  0
  7  9  1  0
  9 10  1  0
 10 11  1  0
 11 12  1  0
 12 13  1  0
 13 14  1  0
 14 15  1  0
 15 16  1  0
 16 17  1  0
  4 18  1  0
 18 19  2  0
 18 20  1  0
 20 21  1  0
 21 22  1  0
 22 23  1  0
 23 24  2  0
 24 25  1  0
 24 26  1  0
 26 27  2  0
 27 28  1  0
 28 29  2  0
 27 30  1  0
 30 31  1  0
 30 32  1  0
 30 33  1  0
  8  4  1  0
 15 10  1  0
 25 20  1  0
 29 23  1  0
M  CHG  1   9   1
M  END
$$$$
