
     RDKit          3D

 33 36  0  0  0  0  0  0  0  0999 V2000
    1.2942   -8.1392   15.4704 C   0  0  0  0  0  0  0  0  0  0  0  0
   -0.1974   -8.3606   15.5629 C   0  0  0  0  0  0  0  0  0  0  0  0
   -0.3923   -9.5320   16.5002 C   0  0  0  0  0  0  0  0  0  0  0  0
   -0.9048   -7.1178   16.0423 C   0  0  0  0  0  0  0  0  0  0  0  0
   -1.6151   -7.3733   17.3563 C   0  0  0  0  0  0  0  0  0  0  0  0
   -3.0341   -7.6271   16.9731 C   0  0  0  0  0  0  0  0  0  0  0  0
   -3.2386   -6.7260   15.7721 C   0  0  0  0  0  0  0  0  0  0  0  0
   -1.9170   -6.5964   15.1063 C   0  0  0  0  0  0  0  0  0  0  0  0
   -3.7723   -5.4668   16.2576 N   0  0  0  0  0  4  0  0  0  0  0  0
   -4.8739   -5.1156   15.3872 C   0  0  0  0  0  0  0  0  0  0  0  0
   -4.4772   -4.0012   14.4222 C   0  0  0  0  0  0  0  0  0  0  0  0
   -5.5664   -3.9962   13.3426 C   0  0  0  0  0  0  0  0  0  0  0  0
   -6.8143   -4.0316   13.9132 O   0  0  0  0  0  0  0  0  0  0  0  0
   -6.8335   -3.6841   15.2592 C   0  0  0  0  0  0  0  0  0  0  0  0
   -6.1078   -4.6951   16.1210 C   0  0  0  0  0  0  0  0  0  0  0  0
   -6.9967   -5.7435   16.3497 O   0  0  0  0  0  0  0  0  0  0  0  0
   -8.3077   -5.2504   16.4836 C   0  0  0  0  0  0  0  0  0  0  0  0
    0.1445   -6.0959   16.3397 C   0  0  0  0  0  0  0  0  0  0  0  0
    0.4746   -5.8760   17.5574 O   0  0  0  0  0  0  0  0  0  0  0  0
    0.8213   -5.3296   15.3649 N   0  0  0  0  0  0  0  0  0  0  0  0
    1.7779   -4.2827   15.6009 C   0  0  0  0  0  0  0  0  0  0  0  0
    2.7438   -4.1726   14.3927 C   0  0  0  0  0  0  0  0  0  0  0  0
    1.8368   -3.6599   13.2965 C   0  0  0  0  0  0  0  0  0  0  0  0
    0.7016   -4.4393   13.1187 C   0  0  0  0  0  0  0  0  0  0  0  0
    0.5343   -5.6280   13.9517 C   0  0  0  0  0  0  0  0  0  0  0  0
   -0.1800   -4.0200   12.1425 C   0  0  0  0  0  0  0  0  0  0  0  0
    0.0685   -2.8873   11.3937 C   0  0  0  0  0  0  0  0  0  0  0  0
    1.2298   -2.1523   11.6258 C   0  0  0  0  0  0  0  0  0  0  0  0
    2.1079   -2.5569   12.5879 N   0  0  0  0  0  0  0  0  0  0  0  0
   -0.8872   -2.4431   10.3444 C   0  0  0  0  0  0  0  0  0  0  0  0
   -0.4309   -1.3328    9.6615 F   0  0  0  0  0  0  0  0  0  0  0  0
   -2.0777   -2.0785   10.9558 F   0  0  0  0  0  0  0  0  0  0  0  0
   -1.1515   -3.4702    9.4346 F   0  0  0  0  0  0  0  0  0  0  0  0
  1  2  1  0
  2  3  1  0
  2  4  1  0
  4  5  1  0
  5  6  1  0
  6  7  1  0
  7  8  1  0
  7  9  1  0
  9 10  1  0
 10 11  1  0
 11 12  1  0
 12 13  1  0
 13 14  1  0
 14 15  1  0
 15 16  1  0
 16 17  1  0
  4 18  1  0
 18 19  2  0
 18 20  1  0
 20 21  1  0
 21 22  1  0
 22 23  1  0
 23 24  2  0
 24 25  1  0
 24 26  1  0
 26 27  2  0
 27 28  1  0
 28 29  2  0
 27 30  1  0
 30 31  1  0
 30 32  1  0
 30 33  1  0
  8  4  1  0
 15 10  1  0
 25 20  1  0
 29 23  1  0
M  CHG  1   9   1
M  END
$$$$
