
     RDKit          3D

 33 36  0  0  0  0  0  0  0  0999 V2000
    1.9754   -4.4707   13.7075 C   0  0  0  0  0  0  0  0  0  0  0  0
    1.4792   -4.2502   12.2976 C   0  0  0  0  0  0  0  0  0  0  0  0
    0.9235   -5.5787   11.8338 C   0  0  0  0  0  0  0  0  0  0  0  0
    0.4504   -3.1486   12.2473 C   0  0  0  0  0  0  0  0  0  0  0  0
   -0.5154   -3.3631   11.0994 C   0  0  0  0  0  0  0  0  0  0  0  0
   -0.0067   -2.4798   10.0105 C   0  0  0  0  0  0  0  0  0  0  0  0
    0.5599   -1.2911   10.7603 C   0  0  0  0  0  0  0  0  0  0  0  0
    1.0155   -1.7976   12.0804 C   0  0  0  0  0  0  0  0  0  0  0  0
   -0.4887   -0.2919   10.8500 N   0  0  0  0  0  4  0  0  0  0  0  0
    0.1598    1.0010   10.8028 C   0  0  0  0  0  0  0  0  0  0  0  0
    1.4841    0.9789   11.5618 C   0  0  0  0  0  0  0  0  0  0  0  0
    2.2227    2.2484   11.1208 C   0  0  0  0  0  0  0  0  0  0  0  0
    1.3896    3.3378   11.1767 O   0  0  0  0  0  0  0  0  0  0  0  0
    0.2498    3.1423   11.9485 C   0  0  0  0  0  0  0  0  0  0  0  0
   -0.6813    2.1141   11.3425 C   0  0  0  0  0  0  0  0  0  0  0  0
   -1.4234    2.7691   10.3616 O   0  0  0  0  0  0  0  0  0  0  0  0
   -1.7857    1.8692    9.3425 C   0  0  0  0  0  0  0  0  0  0  0  0
   -0.3700   -3.2494   13.4926 C   0  0  0  0  0  0  0  0  0  0  0  0
   -1.3462   -2.4385   13.6646 O   0  0  0  0  0  0  0  0  0  0  0  0
   -0.1535   -4.1884   14.5255 N   0  0  0  0  0  0  0  0  0  0  0  0
    1.1009   -4.7774   14.9079 C   0  0  0  0  0  0  0  0  0  0  0  0
    1.0559   -5.1820   16.4043 C   0  0  0  0  0  0  0  0  0  0  0  0
    0.0537   -6.3146   16.4054 C   0  0  0  0  0  0  0  0  0  0  0  0
   -1.1556   -5.9733   15.8148 C   0  0  0  0  0  0  0  0  0  0  0  0
   -1.3256   -4.6129   15.3093 C   0  0  0  0  0  0  0  0  0  0  0  0
   -2.1136   -6.9663   15.7675 C   0  0  0  0  0  0  0  0  0  0  0  0
   -1.8669   -8.2226   16.2836 C   0  0  0  0  0  0  0  0  0  0  0  0
   -0.6291   -8.4955   16.8633 C   0  0  0  0  0  0  0  0  0  0  0  0
    0.3251   -7.5222   16.9154 N   0  0  0  0  0  0  0  0  0  0  0  0
   -2.9049   -9.2862   16.2279 C   0  0  0  0  0  0  0  0  0  0  0  0
   -4.0705   -8.8450   15.6330 F   0  0  0  0  0  0  0  0  0  0  0  0
   -3.2297   -9.6559   17.5248 F   0  0  0  0  0  0  0  0  0  0  0  0
   -2.4363  -10.4139   15.5488 F   0  0  0  0  0  0  0  0  0  0  0  0
  1  2  1  0
  2  3  1  0
  2  4  1  0
  4  5  1  0
  5  6  1  0
  6  7  1  0
  7  8  1  0
  7  9  1  0
  9 10  1  0
 10 11  1  0
 11 12  1  0
 12 13  1  0
 13 14  1  0
 14 15  1  0
 15 16  1  0
 16 17  1  0
  4 18  1  0
 18 19  2  0
 18 20  1  0
 20 21  1  0
 21 22  1  0
 22 23  1  0
 23 24  2  0
 24 25  1  0
 24 26  1  0
 26 27  2  0
 27 28  1  0
 28 29  2  0
 27 30  1  0
 30 31  1  0
 30 32  1  0
 30 33  1  0
  8  4  1  0
 15 10  1  0
 25 20  1  0
 29 23  1  0
M  CHG  1   9   1
M  END
$$$$
