
     RDKit          3D

 33 36  0  0  0  0  0  0  0  0999 V2000
    3.6544   -6.5004   14.5078 C   0  0  0  0  0  0  0  0  0  0  0  0
    2.4975   -7.2619   15.1112 C   0  0  0  0  0  0  0  0  0  0  0  0
    2.8571   -7.4948   16.5620 C   0  0  0  0  0  0  0  0  0  0  0  0
    1.2038   -6.5025   14.9551 C   0  0  0  0  0  0  0  0  0  0  0  0
    0.9346   -5.6382   16.1705 C   0  0  0  0  0  0  0  0  0  0  0  0
   -0.0218   -6.4341   16.9930 C   0  0  0  0  0  0  0  0  0  0  0  0
   -0.8552   -7.1597   15.9561 C   0  0  0  0  0  0  0  0  0  0  0  0
    0.0171   -7.3568   14.7699 C   0  0  0  0  0  0  0  0  0  0  0  0
   -2.0259   -6.3446   15.6894 N   0  0  0  0  0  4  0  0  0  0  0  0
   -3.1256   -7.2556   15.4543 C   0  0  0  0  0  0  0  0  0  0  0  0
   -3.0296   -7.8856   14.0672 C   0  0  0  0  0  0  0  0  0  0  0  0
   -3.9986   -9.0740   14.0963 C   0  0  0  0  0  0  0  0  0  0  0  0
   -5.2088   -8.6996   14.6247 O   0  0  0  0  0  0  0  0  0  0  0  0
   -5.4173   -7.3252   14.6488 C   0  0  0  0  0  0  0  0  0  0  0  0
   -4.4722   -6.6202   15.5981 C   0  0  0  0  0  0  0  0  0  0  0  0
   -5.0101   -6.7528   16.8767 O   0  0  0  0  0  0  0  0  0  0  0  0
   -6.4138   -6.8235   16.8098 C   0  0  0  0  0  0  0  0  0  0  0  0
    1.3800   -5.5543   13.8133 C   0  0  0  0  0  0  0  0  0  0  0  0
    2.2415   -5.8240   12.9049 O   0  0  0  0  0  0  0  0  0  0  0  0
    0.6579   -4.3516   13.6467 N   0  0  0  0  0  0  0  0  0  0  0  0
   -0.6413   -4.0438   14.1793 C   0  0  0  0  0  0  0  0  0  0  0  0
   -0.7831   -2.5105   14.3629 C   0  0  0  0  0  0  0  0  0  0  0  0
   -0.7964   -2.0114   12.9354 C   0  0  0  0  0  0  0  0  0  0  0  0
    0.2908   -2.4529   12.1932 C   0  0  0  0  0  0  0  0  0  0  0  0
    1.2933   -3.2865   12.8528 C   0  0  0  0  0  0  0  0  0  0  0  0
    0.3349   -2.0469   10.8744 C   0  0  0  0  0  0  0  0  0  0  0  0
   -0.6543   -1.2464   10.3395 C   0  0  0  0  0  0  0  0  0  0  0  0
   -1.7176   -0.8396   11.1435 C   0  0  0  0  0  0  0  0  0  0  0  0
   -1.7718   -1.2349   12.4479 N   0  0  0  0  0  0  0  0  0  0  0  0
   -0.5985   -0.8142    8.9175 C   0  0  0  0  0  0  0  0  0  0  0  0
   -1.4631    0.2307    8.6571 F   0  0  0  0  0  0  0  0  0  0  0  0
   -0.9959   -1.8748    8.1168 F   0  0  0  0  0  0  0  0  0  0  0  0
    0.6986   -0.4440    8.5529 F   0  0  0  0  0  0  0  0  0  0  0  0
  1  2  1  0
  2  3  1  0
  2  4  1  0
  4  5  1  0
  5  6  1  0
  6  7  1  0
  7  8  1  0
  7  9  1  0
  9 10  1  0
 10 11  1  0
 11 12  1  0
 12 13  1  0
 13 14  1  0
 14 15  1  0
 15 16  1  0
 16 17  1  0
  4 18  1  0
 18 19  2  0
 18 20  1  0
 20 21  1  0
 21 22  1  0
 22 23  1  0
 23 24  2  0
 24 25  1  0
 24 26  1  0
 26 27  2  0
 27 28  1  0
 28 29  2  0
 27 30  1  0
 30 31  1  0
 30 32  1  0
 30 33  1  0
  8  4  1  0
 15 10  1  0
 25 20  1  0
 29 23  1  0
M  CHG  1   9   1
M  END
$$$$
