
     RDKit          3D

 33 36  0  0  0  0  0  0  0  0999 V2000
   -0.7075   -9.2281   16.0176 C   0  0  0  0  0  0  0  0  0  0  0  0
   -0.4564   -7.8685   16.6268 C   0  0  0  0  0  0  0  0  0  0  0  0
    0.8553   -7.3839   16.0497 C   0  0  0  0  0  0  0  0  0  0  0  0
   -1.5951   -6.9226   16.3379 C   0  0  0  0  0  0  0  0  0  0  0  0
   -1.4891   -5.6734   17.1894 C   0  0  0  0  0  0  0  0  0  0  0  0
   -2.4217   -5.9149   18.3281 C   0  0  0  0  0  0  0  0  0  0  0  0
   -3.5389   -6.7233   17.6999 C   0  0  0  0  0  0  0  0  0  0  0  0
   -2.9329   -7.4909   16.5817 C   0  0  0  0  0  0  0  0  0  0  0  0
   -4.5671   -5.7907   17.2766 N   0  0  0  0  0  4  0  0  0  0  0  0
   -5.4246   -6.5035   16.3539 C   0  0  0  0  0  0  0  0  0  0  0  0
   -5.2195   -6.0125   14.9231 C   0  0  0  0  0  0  0  0  0  0  0  0
   -5.8768   -7.0754   14.0342 C   0  0  0  0  0  0  0  0  0  0  0  0
   -7.1264   -7.3945   14.5039 O   0  0  0  0  0  0  0  0  0  0  0  0
   -7.6551   -6.4629   15.3903 C   0  0  0  0  0  0  0  0  0  0  0  0
   -6.8792   -6.4050   16.6887 C   0  0  0  0  0  0  0  0  0  0  0  0
   -7.3349   -7.4580   17.4794 O   0  0  0  0  0  0  0  0  0  0  0  0
   -8.1054   -8.3480   16.7087 C   0  0  0  0  0  0  0  0  0  0  0  0
   -1.4440   -6.4640   14.9234 C   0  0  0  0  0  0  0  0  0  0  0  0
   -2.1428   -7.0235   14.0076 O   0  0  0  0  0  0  0  0  0  0  0  0
   -0.5706   -5.4382   14.4985 N   0  0  0  0  0  0  0  0  0  0  0  0
    0.0227   -4.4156   15.3163 C   0  0  0  0  0  0  0  0  0  0  0  0
    1.3591   -3.9478   14.6838 C   0  0  0  0  0  0  0  0  0  0  0  0
    0.8965   -3.2490   13.4249 C   0  0  0  0  0  0  0  0  0  0  0  0
    0.0746   -4.0397   12.6330 C   0  0  0  0  0  0  0  0  0  0  0  0
   -0.2129   -5.4039   13.0705 C   0  0  0  0  0  0  0  0  0  0  0  0
   -0.3978   -3.4588   11.4730 C   0  0  0  0  0  0  0  0  0  0  0  0
   -0.0618   -2.1635   11.1341 C   0  0  0  0  0  0  0  0  0  0  0  0
    0.7693   -1.4272   11.9767 C   0  0  0  0  0  0  0  0  0  0  0  0
    1.2417   -1.9908   13.1254 N   0  0  0  0  0  0  0  0  0  0  0  0
   -0.5757   -1.5459    9.8826 C   0  0  0  0  0  0  0  0  0  0  0  0
   -0.2706   -2.3002    8.7668 F   0  0  0  0  0  0  0  0  0  0  0  0
    0.0360   -0.3124    9.7143 F   0  0  0  0  0  0  0  0  0  0  0  0
   -1.9579   -1.3512    9.9464 F   0  0  0  0  0  0  0  0  0  0  0  0
  1  2  1  0
  2  3  1  0
  2  4  1  0
  4  5  1  0
  5  6  1  0
  6  7  1  0
  7  8  1  0
  7  9  1  0
  9 10  1  0
 10 11  1  0
 11 12  1  0
 12 13  1  0
 13 14  1  0
 14 15  1  0
 15 16  1  0
 16 17  1  0
  4 18  1  0
 18 19  2  0
 18 20  1  0
 20 21  1  0
 21 22  1  0
 22 23  1  0
 23 24  2  0
 24 25  1  0
 24 26  1  0
 26 27  2  0
 27 28  1  0
 28 29  2  0
 27 30  1  0
 30 31  1  0
 30 32  1  0
 30 33  1  0
  8  4  1  0
 15 10  1  0
 25 20  1  0
 29 23  1  0
M  CHG  1   9   1
M  END
$$$$
