
     RDKit          3D

 33 36  0  0  0  0  0  0  0  0999 V2000
    2.2710   -7.4900   15.3472 C   0  0  0  0  0  0  0  0  0  0  0  0
    0.7989   -7.7550   15.1344 C   0  0  0  0  0  0  0  0  0  0  0  0
    0.5595   -9.1821   15.5756 C   0  0  0  0  0  0  0  0  0  0  0  0
   -0.0489   -6.7682   15.8975 C   0  0  0  0  0  0  0  0  0  0  0  0
   -0.4188   -7.3151   17.2616 C   0  0  0  0  0  0  0  0  0  0  0  0
   -1.7983   -7.8551   17.0883 C   0  0  0  0  0  0  0  0  0  0  0  0
   -2.4195   -6.9104   16.0793 C   0  0  0  0  0  0  0  0  0  0  0  0
   -1.3112   -6.4073   15.2277 C   0  0  0  0  0  0  0  0  0  0  0  0
   -3.1033   -5.8677   16.8217 N   0  0  0  0  0  4  0  0  0  0  0  0
   -3.8679   -5.1021   15.8606 C   0  0  0  0  0  0  0  0  0  0  0  0
   -4.0119   -3.6491   16.3060 C   0  0  0  0  0  0  0  0  0  0  0  0
   -4.4883   -2.8911   15.0608 C   0  0  0  0  0  0  0  0  0  0  0  0
   -5.5265   -3.5556   14.4568 O   0  0  0  0  0  0  0  0  0  0  0  0
   -6.1464   -4.4986   15.2689 C   0  0  0  0  0  0  0  0  0  0  0  0
   -5.2315   -5.6586   15.5988 C   0  0  0  0  0  0  0  0  0  0  0  0
   -5.2721   -6.5277   14.5103 O   0  0  0  0  0  0  0  0  0  0  0  0
   -6.2893   -7.4835   14.6875 C   0  0  0  0  0  0  0  0  0  0  0  0
    0.7969   -5.5639   16.1584 C   0  0  0  0  0  0  0  0  0  0  0  0
    1.3620   -5.4332   17.3002 O   0  0  0  0  0  0  0  0  0  0  0  0
    1.0317   -4.5279   15.2272 N   0  0  0  0  0  0  0  0  0  0  0  0
    1.3170   -3.1502   15.5224 C   0  0  0  0  0  0  0  0  0  0  0  0
    2.1422   -2.5263   14.3670 C   0  0  0  0  0  0  0  0  0  0  0  0
    1.1454   -2.5042   13.2299 C   0  0  0  0  0  0  0  0  0  0  0  0
    0.5685   -3.7434   12.9862 C   0  0  0  0  0  0  0  0  0  0  0  0
    0.9921   -4.8817   13.7984 C   0  0  0  0  0  0  0  0  0  0  0  0
   -0.3641   -3.7932   11.9694 C   0  0  0  0  0  0  0  0  0  0  0  0
   -0.6927   -2.6650   11.2451 C   0  0  0  0  0  0  0  0  0  0  0  0
   -0.0731   -1.4528   11.5440 C   0  0  0  0  0  0  0  0  0  0  0  0
    0.8496   -1.3916   12.5466 N   0  0  0  0  0  0  0  0  0  0  0  0
   -1.6988   -2.7281   10.1516 C   0  0  0  0  0  0  0  0  0  0  0  0
   -1.8409   -1.5163    9.5048 F   0  0  0  0  0  0  0  0  0  0  0  0
   -2.9334   -3.0371   10.7035 F   0  0  0  0  0  0  0  0  0  0  0  0
   -1.3697   -3.7152    9.2190 F   0  0  0  0  0  0  0  0  0  0  0  0
  1  2  1  0
  2  3  1  0
  2  4  1  0
  4  5  1  0
  5  6  1  0
  6  7  1  0
  7  8  1  0
  7  9  1  0
  9 10  1  0
 10 11  1  0
 11 12  1  0
 12 13  1  0
 13 14  1  0
 14 15  1  0
 15 16  1  0
 16 17  1  0
  4 18  1  0
 18 19  2  0
 18 20  1  0
 20 21  1  0
 21 22  1  0
 22 23  1  0
 23 24  2  0
 24 25  1  0
 24 26  1  0
 26 27  2  0
 27 28  1  0
 28 29  2  0
 27 30  1  0
 30 31  1  0
 30 32  1  0
 30 33  1  0
  8  4  1  0
 15 10  1  0
 25 20  1  0
 29 23  1  0
M  CHG  1   9   1
M  END
$$$$
