
     RDKit          3D

 33 36  0  0  0  0  0  0  0  0999 V2000
   -2.4770   -0.5551   13.4916 C   0  0  0  0  0  0  0  0  0  0  0  0
   -2.5545   -1.8414   12.7029 C   0  0  0  0  0  0  0  0  0  0  0  0
   -1.5245   -1.7229   11.6012 C   0  0  0  0  0  0  0  0  0  0  0  0
   -2.3139   -3.0390   13.5874 C   0  0  0  0  0  0  0  0  0  0  0  0
   -2.1547   -4.2986   12.7600 C   0  0  0  0  0  0  0  0  0  0  0  0
   -3.4944   -4.9524   12.8096 C   0  0  0  0  0  0  0  0  0  0  0  0
   -4.0015   -4.6062   14.1950 C   0  0  0  0  0  0  0  0  0  0  0  0
   -3.3906   -3.3020   14.5590 C   0  0  0  0  0  0  0  0  0  0  0  0
   -3.6262   -5.6928   15.0807 N   0  0  0  0  0  4  0  0  0  0  0  0
   -4.8242   -6.4676   15.3238 C   0  0  0  0  0  0  0  0  0  0  0  0
   -5.8349   -5.6722   16.1460 C   0  0  0  0  0  0  0  0  0  0  0  0
   -7.1584   -6.4340   16.0045 C   0  0  0  0  0  0  0  0  0  0  0  0
   -6.9695   -7.7770   16.2162 O   0  0  0  0  0  0  0  0  0  0  0  0
   -5.7786   -8.0880   16.8629 C   0  0  0  0  0  0  0  0  0  0  0  0
   -4.5669   -7.7699   16.0133 C   0  0  0  0  0  0  0  0  0  0  0  0
   -4.3998   -8.8362   15.1320 O   0  0  0  0  0  0  0  0  0  0  0  0
   -3.5825   -9.8240   15.7116 C   0  0  0  0  0  0  0  0  0  0  0  0
   -0.9998   -2.8316   14.2686 C   0  0  0  0  0  0  0  0  0  0  0  0
   -0.9597   -2.1553   15.3554 O   0  0  0  0  0  0  0  0  0  0  0  0
    0.2366   -3.3308   13.8020 N   0  0  0  0  0  0  0  0  0  0  0  0
    0.5925   -3.6188   12.4393 C   0  0  0  0  0  0  0  0  0  0  0  0
    2.1271   -3.4872   12.2590 C   0  0  0  0  0  0  0  0  0  0  0  0
    2.6515   -4.6483   13.0739 C   0  0  0  0  0  0  0  0  0  0  0  0
    2.1751   -4.6584   14.3781 C   0  0  0  0  0  0  0  0  0  0  0  0
    1.2862   -3.5799   14.8043 C   0  0  0  0  0  0  0  0  0  0  0  0
    2.6021   -5.7012   15.1758 C   0  0  0  0  0  0  0  0  0  0  0  0
    3.4552   -6.6709   14.6886 C   0  0  0  0  0  0  0  0  0  0  0  0
    3.8946   -6.5978   13.3679 C   0  0  0  0  0  0  0  0  0  0  0  0
    3.4792   -5.5721   12.5705 N   0  0  0  0  0  0  0  0  0  0  0  0
    3.9095   -7.7909   15.5552 C   0  0  0  0  0  0  0  0  0  0  0  0
    4.7908   -8.6297   14.9019 F   0  0  0  0  0  0  0  0  0  0  0  0
    2.8067   -8.5572   15.9025 F   0  0  0  0  0  0  0  0  0  0  0  0
    4.5053   -7.3139   16.7257 F   0  0  0  0  0  0  0  0  0  0  0  0
  1  2  1  0
  2  3  1  0
  2  4  1  0
  4  5  1  0
  5  6  1  0
  6  7  1  0
  7  8  1  0
  7  9  1  0
  9 10  1  0
 10 11  1  0
 11 12  1  0
 12 13  1  0
 13 14  1  0
 14 15  1  0
 15 16  1  0
 16 17  1  0
  4 18  1  0
 18 19  2  0
 18 20  1  0
 20 21  1  0
 21 22  1  0
 22 23  1  0
 23 24  2  0
 24 25  1  0
 24 26  1  0
 26 27  2  0
 27 28  1  0
 28 29  2  0
 27 30  1  0
 30 31  1  0
 30 32  1  0
 30 33  1  0
  8  4  1  0
 15 10  1  0
 25 20  1  0
 29 23  1  0
M  CHG  1   9   1
M  END
$$$$
