
     RDKit          3D

 33 36  0  0  0  0  0  0  0  0999 V2000
    1.4276   -5.3463   15.0896 C   0  0  0  0  0  0  0  0  0  0  0  0
    1.7970   -4.8887   13.6979 C   0  0  0  0  0  0  0  0  0  0  0  0
    1.9305   -6.1434   12.8633 C   0  0  0  0  0  0  0  0  0  0  0  0
    0.7652   -3.9380   13.1444 C   0  0  0  0  0  0  0  0  0  0  0  0
    0.8696   -3.8461   11.6353 C   0  0  0  0  0  0  0  0  0  0  0  0
    1.6576   -2.6041   11.3883 C   0  0  0  0  0  0  0  0  0  0  0  0
    1.2290   -1.6877   12.5165 C   0  0  0  0  0  0  0  0  0  0  0  0
    0.8683   -2.5619   13.6621 C   0  0  0  0  0  0  0  0  0  0  0  0
    0.1252   -0.8819   12.0284 N   0  0  0  0  0  4  0  0  0  0  0  0
    0.7045    0.2068   11.2709 C   0  0  0  0  0  0  0  0  0  0  0  0
    1.6217    1.0572   12.1460 C   0  0  0  0  0  0  0  0  0  0  0  0
    2.4398    1.9068   11.1659 C   0  0  0  0  0  0  0  0  0  0  0  0
    1.6232    2.4811   10.2239 O   0  0  0  0  0  0  0  0  0  0  0  0
    0.2770    2.4945   10.5714 C   0  0  0  0  0  0  0  0  0  0  0  0
   -0.3111    1.1010   10.6333 C   0  0  0  0  0  0  0  0  0  0  0  0
   -0.6232    0.7355    9.3254 O   0  0  0  0  0  0  0  0  0  0  0  0
   -0.7167    1.8778    8.5093 C   0  0  0  0  0  0  0  0  0  0  0  0
   -0.5788   -4.5292   13.4233 C   0  0  0  0  0  0  0  0  0  0  0  0
   -1.4261   -4.6322   12.4685 O   0  0  0  0  0  0  0  0  0  0  0  0
   -1.0068   -4.9959   14.6861 N   0  0  0  0  0  0  0  0  0  0  0  0
   -0.3696   -4.7638   15.9536 C   0  0  0  0  0  0  0  0  0  0  0  0
   -1.4231   -4.8286   17.0899 C   0  0  0  0  0  0  0  0  0  0  0  0
   -1.8138   -6.2896   17.0887 C   0  0  0  0  0  0  0  0  0  0  0  0
   -2.2141   -6.7461   15.8401 C   0  0  0  0  0  0  0  0  0  0  0  0
   -2.2398   -5.8000   14.7269 C   0  0  0  0  0  0  0  0  0  0  0  0
   -2.5710   -8.0775   15.7625 C   0  0  0  0  0  0  0  0  0  0  0  0
   -2.5271   -8.8952   16.8738 C   0  0  0  0  0  0  0  0  0  0  0  0
   -2.1154   -8.3692   18.0971 C   0  0  0  0  0  0  0  0  0  0  0  0
   -1.7602   -7.0552   18.1856 N   0  0  0  0  0  0  0  0  0  0  0  0
   -2.9131  -10.3284   16.7806 C   0  0  0  0  0  0  0  0  0  0  0  0
   -4.1116  -10.5023   16.1169 F   0  0  0  0  0  0  0  0  0  0  0  0
   -3.0882  -10.8239   18.0643 F   0  0  0  0  0  0  0  0  0  0  0  0
   -1.9194  -11.0787   16.1466 F   0  0  0  0  0  0  0  0  0  0  0  0
  1  2  1  0
  2  3  1  0
  2  4  1  0
  4  5  1  0
  5  6  1  0
  6  7  1  0
  7  8  1  0
  7  9  1  0
  9 10  1  0
 10 11  1  0
 11 12  1  0
 12 13  1  0
 13 14  1  0
 14 15  1  0
 15 16  1  0
 16 17  1  0
  4 18  1  0
 18 19  2  0
 18 20  1  0
 20 21  1  0
 21 22  1  0
 22 23  1  0
 23 24  2  0
 24 25  1  0
 24 26  1  0
 26 27  2  0
 27 28  1  0
 28 29  2  0
 27 30  1  0
 30 31  1  0
 30 32  1  0
 30 33  1  0
  8  4  1  0
 15 10  1  0
 25 20  1  0
 29 23  1  0
M  CHG  1   9   1
M  END
$$$$
