
     RDKit          3D

 33 36  0  0  0  0  0  0  0  0999 V2000
   -4.4759   -2.7142   14.7718 C   0  0  0  0  0  0  0  0  0  0  0  0
   -3.4283   -3.6104   15.3899 C   0  0  0  0  0  0  0  0  0  0  0  0
   -3.1904   -3.0796   16.7864 C   0  0  0  0  0  0  0  0  0  0  0  0
   -3.8749   -5.0510   15.3917 C   0  0  0  0  0  0  0  0  0  0  0  0
   -4.0986   -5.5491   13.9780 C   0  0  0  0  0  0  0  0  0  0  0  0
   -5.5718   -5.4428   13.7710 C   0  0  0  0  0  0  0  0  0  0  0  0
   -6.1404   -5.7431   15.1432 C   0  0  0  0  0  0  0  0  0  0  0  0
   -5.1252   -5.2978   16.1321 C   0  0  0  0  0  0  0  0  0  0  0  0
   -6.4214   -7.1658   15.1970 N   0  0  0  0  0  4  0  0  0  0  0  0
   -7.8474   -7.3035   15.4024 C   0  0  0  0  0  0  0  0  0  0  0  0
   -8.5181   -7.9394   14.1874 C   0  0  0  0  0  0  0  0  0  0  0  0
   -9.9085   -8.3674   14.6725 C   0  0  0  0  0  0  0  0  0  0  0  0
  -10.5137   -7.3499   15.3672 O   0  0  0  0  0  0  0  0  0  0  0  0
   -9.9438   -6.0997   15.1548 C   0  0  0  0  0  0  0  0  0  0  0  0
   -8.5371   -6.0116   15.7069 C   0  0  0  0  0  0  0  0  0  0  0  0
   -8.6538   -5.7579   17.0721 O   0  0  0  0  0  0  0  0  0  0  0  0
   -9.2659   -6.8469   17.7195 C   0  0  0  0  0  0  0  0  0  0  0  0
   -2.7460   -5.8656   15.9356 C   0  0  0  0  0  0  0  0  0  0  0  0
   -2.9931   -6.7734   16.8045 O   0  0  0  0  0  0  0  0  0  0  0  0
   -1.3917   -5.7146   15.5634 N   0  0  0  0  0  0  0  0  0  0  0  0
   -0.8678   -4.8443   14.5462 C   0  0  0  0  0  0  0  0  0  0  0  0
    0.5974   -4.4649   14.8842 C   0  0  0  0  0  0  0  0  0  0  0  0
    1.3226   -5.7807   14.7115 C   0  0  0  0  0  0  0  0  0  0  0  0
    0.7599   -6.8143   15.4483 C   0  0  0  0  0  0  0  0  0  0  0  0
   -0.3971   -6.5207   16.2909 C   0  0  0  0  0  0  0  0  0  0  0  0
    1.3635   -8.0500   15.3260 C   0  0  0  0  0  0  0  0  0  0  0  0
    2.4642   -8.2305   14.5129 C   0  0  0  0  0  0  0  0  0  0  0  0
    2.9771   -7.1471   13.8017 C   0  0  0  0  0  0  0  0  0  0  0  0
    2.3889   -5.9217   13.9145 N   0  0  0  0  0  0  0  0  0  0  0  0
    3.1076   -9.5654   14.3871 C   0  0  0  0  0  0  0  0  0  0  0  0
    4.3624   -9.4865   13.8158 F   0  0  0  0  0  0  0  0  0  0  0  0
    2.3324  -10.3531   13.5488 F   0  0  0  0  0  0  0  0  0  0  0  0
    3.2030  -10.1989   15.6289 F   0  0  0  0  0  0  0  0  0  0  0  0
  1  2  1  0
  2  3  1  0
  2  4  1  0
  4  5  1  0
  5  6  1  0
  6  7  1  0
  7  8  1  0
  7  9  1  0
  9 10  1  0
 10 11  1  0
 11 12  1  0
 12 13  1  0
 13 14  1  0
 14 15  1  0
 15 16  1  0
 16 17  1  0
  4 18  1  0
 18 19  2  0
 18 20  1  0
 20 21  1  0
 21 22  1  0
 22 23  1  0
 23 24  2  0
 24 25  1  0
 24 26  1  0
 26 27  2  0
 27 28  1  0
 28 29  2  0
 27 30  1  0
 30 31  1  0
 30 32  1  0
 30 33  1  0
  8  4  1  0
 15 10  1  0
 25 20  1  0
 29 23  1  0
M  CHG  1   9   1
M  END
$$$$
