
     RDKit          3D

 33 36  0  0  0  0  0  0  0  0999 V2000
   -1.7148   -5.0214   19.5887 C   0  0  0  0  0  0  0  0  0  0  0  0
   -2.5133   -6.2594   19.2535 C   0  0  0  0  0  0  0  0  0  0  0  0
   -3.0078   -6.8118   20.5721 C   0  0  0  0  0  0  0  0  0  0  0  0
   -3.6419   -5.9404   18.3052 C   0  0  0  0  0  0  0  0  0  0  0  0
   -4.4234   -4.7328   18.7821 C   0  0  0  0  0  0  0  0  0  0  0  0
   -5.6140   -5.3053   19.4745 C   0  0  0  0  0  0  0  0  0  0  0  0
   -5.9110   -6.5606   18.6793 C   0  0  0  0  0  0  0  0  0  0  0  0
   -4.6145   -7.0339   18.1298 C   0  0  0  0  0  0  0  0  0  0  0  0
   -6.8831   -6.2112   17.6600 N   0  0  0  0  0  4  0  0  0  0  0  0
   -7.5310   -7.4420   17.2601 C   0  0  0  0  0  0  0  0  0  0  0  0
   -6.5751   -8.3350   16.4734 C   0  0  0  0  0  0  0  0  0  0  0  0
   -7.2417   -9.7159   16.4488 C   0  0  0  0  0  0  0  0  0  0  0  0
   -8.5648   -9.6091   16.0991 O   0  0  0  0  0  0  0  0  0  0  0  0
   -8.8967   -8.4021   15.4941 C   0  0  0  0  0  0  0  0  0  0  0  0
   -8.7677   -7.2315   16.4451 C   0  0  0  0  0  0  0  0  0  0  0  0
   -9.9325   -7.2013   17.2094 O   0  0  0  0  0  0  0  0  0  0  0  0
  -11.0446   -6.9277   16.3920 C   0  0  0  0  0  0  0  0  0  0  0  0
   -3.0282   -5.5388   17.0030 C   0  0  0  0  0  0  0  0  0  0  0  0
   -3.4658   -4.4961   16.4017 O   0  0  0  0  0  0  0  0  0  0  0  0
   -1.9781   -6.2313   16.3601 N   0  0  0  0  0  0  0  0  0  0  0  0
   -1.0378   -7.1320   16.9694 C   0  0  0  0  0  0  0  0  0  0  0  0
   -0.5299   -8.1510   15.9165 C   0  0  0  0  0  0  0  0  0  0  0  0
    0.2819   -7.2793   14.9848 C   0  0  0  0  0  0  0  0  0  0  0  0
   -0.4272   -6.1866   14.5041 C   0  0  0  0  0  0  0  0  0  0  0  0
   -1.8216   -6.0266   14.9103 C   0  0  0  0  0  0  0  0  0  0  0  0
    0.2587   -5.3380   13.6582 C   0  0  0  0  0  0  0  0  0  0  0  0
    1.5752   -5.5772   13.3191 C   0  0  0  0  0  0  0  0  0  0  0  0
    2.2256   -6.6950   13.8389 C   0  0  0  0  0  0  0  0  0  0  0  0
    1.5580   -7.5402   14.6757 N   0  0  0  0  0  0  0  0  0  0  0  0
    2.3061   -4.6572   12.4075 C   0  0  0  0  0  0  0  0  0  0  0  0
    1.7226   -4.5911   11.1575 F   0  0  0  0  0  0  0  0  0  0  0  0
    3.5925   -5.1436   12.2261 F   0  0  0  0  0  0  0  0  0  0  0  0
    2.3896   -3.3715   12.9482 F   0  0  0  0  0  0  0  0  0  0  0  0
  1  2  1  0
  2  3  1  0
  2  4  1  0
  4  5  1  0
  5  6  1  0
  6  7  1  0
  7  8  1  0
  7  9  1  0
  9 10  1  0
 10 11  1  0
 11 12  1  0
 12 13  1  0
 13 14  1  0
 14 15  1  0
 15 16  1  0
 16 17  1  0
  4 18  1  0
 18 19  2  0
 18 20  1  0
 20 21  1  0
 21 22  1  0
 22 23  1  0
 23 24  2  0
 24 25  1  0
 24 26  1  0
 26 27  2  0
 27 28  1  0
 28 29  2  0
 27 30  1  0
 30 31  1  0
 30 32  1  0
 30 33  1  0
  8  4  1  0
 15 10  1  0
 25 20  1  0
 29 23  1  0
M  CHG  1   9   1
M  END
$$$$
