
     RDKit          3D

 33 36  0  0  0  0  0  0  0  0999 V2000
   -1.3289   -8.9930   15.1583 C   0  0  0  0  0  0  0  0  0  0  0  0
   -2.1459   -9.1083   16.4240 C   0  0  0  0  0  0  0  0  0  0  0  0
   -1.1521   -9.2506   17.5556 C   0  0  0  0  0  0  0  0  0  0  0  0
   -3.0498   -7.9139   16.6005 C   0  0  0  0  0  0  0  0  0  0  0  0
   -3.6618   -7.8996   17.9868 C   0  0  0  0  0  0  0  0  0  0  0  0
   -5.0232   -8.4803   17.8024 C   0  0  0  0  0  0  0  0  0  0  0  0
   -5.4233   -8.0021   16.4212 C   0  0  0  0  0  0  0  0  0  0  0  0
   -4.1676   -7.8518   15.6418 C   0  0  0  0  0  0  0  0  0  0  0  0
   -6.1592   -6.7621   16.5853 N   0  0  0  0  0  4  0  0  0  0  0  0
   -7.5626   -7.1119   16.6377 C   0  0  0  0  0  0  0  0  0  0  0  0
   -7.7705   -8.5939   16.3363 C   0  0  0  0  0  0  0  0  0  0  0  0
   -9.2030   -8.9003   16.7900 C   0  0  0  0  0  0  0  0  0  0  0  0
  -10.0743   -7.9501   16.3188 O   0  0  0  0  0  0  0  0  0  0  0  0
   -9.5706   -7.1874   15.2711 C   0  0  0  0  0  0  0  0  0  0  0  0
   -8.4157   -6.3108   15.7059 C   0  0  0  0  0  0  0  0  0  0  0  0
   -8.9690   -5.1790   16.3013 O   0  0  0  0  0  0  0  0  0  0  0  0
  -10.3406   -5.3774   16.5442 C   0  0  0  0  0  0  0  0  0  0  0  0
   -2.1924   -6.6922   16.5223 C   0  0  0  0  0  0  0  0  0  0  0  0
   -1.4900   -6.3562   17.5392 O   0  0  0  0  0  0  0  0  0  0  0  0
   -2.0888   -5.8523   15.3913 N   0  0  0  0  0  0  0  0  0  0  0  0
   -2.5274   -6.1466   14.0543 C   0  0  0  0  0  0  0  0  0  0  0  0
   -2.8602   -4.8279   13.3092 C   0  0  0  0  0  0  0  0  0  0  0  0
   -1.4994   -4.1846   13.1621 C   0  0  0  0  0  0  0  0  0  0  0  0
   -0.8192   -4.0660   14.3667 C   0  0  0  0  0  0  0  0  0  0  0  0
   -1.4766   -4.5274   15.5873 C   0  0  0  0  0  0  0  0  0  0  0  0
    0.4386   -3.5002   14.3042 C   0  0  0  0  0  0  0  0  0  0  0  0
    0.9748   -3.0807   13.1035 C   0  0  0  0  0  0  0  0  0  0  0  0
    0.2349   -3.2301   11.9318 C   0  0  0  0  0  0  0  0  0  0  0  0
   -1.0088   -3.7880   11.9814 N   0  0  0  0  0  0  0  0  0  0  0  0
    2.3308   -2.4725   13.0459 C   0  0  0  0  0  0  0  0  0  0  0  0
    2.4485   -1.3831   13.8864 F   0  0  0  0  0  0  0  0  0  0  0  0
    2.5550   -2.0124   11.7566 F   0  0  0  0  0  0  0  0  0  0  0  0
    3.3182   -3.4096   13.3611 F   0  0  0  0  0  0  0  0  0  0  0  0
  1  2  1  0
  2  3  1  0
  2  4  1  0
  4  5  1  0
  5  6  1  0
  6  7  1  0
  7  8  1  0
  7  9  1  0
  9 10  1  0
 10 11  1  0
 11 12  1  0
 12 13  1  0
 13 14  1  0
 14 15  1  0
 15 16  1  0
 16 17  1  0
  4 18  1  0
 18 19  2  0
 18 20  1  0
 20 21  1  0
 21 22  1  0
 22 23  1  0
 23 24  2  0
 24 25  1  0
 24 26  1  0
 26 27  2  0
 27 28  1  0
 28 29  2  0
 27 30  1  0
 30 31  1  0
 30 32  1  0
 30 33  1  0
  8  4  1  0
 15 10  1  0
 25 20  1  0
 29 23  1  0
M  CHG  1   9   1
M  END
$$$$
