
     RDKit          3D

 33 36  0  0  0  0  0  0  0  0999 V2000
   -2.5030   -3.8168  -18.3631 C   0  0  0  0  0  0  0  0  0  0  0  0
   -1.0969   -4.3487  -18.5134 C   0  0  0  0  0  0  0  0  0  0  0  0
   -0.7294   -4.1631  -19.9691 C   0  0  0  0  0  0  0  0  0  0  0  0
   -0.1430   -3.6389  -17.5855 C   0  0  0  0  0  0  0  0  0  0  0  0
   -0.8913   -2.9673  -16.4517 C   0  0  0  0  0  0  0  0  0  0  0  0
   -1.0125   -1.5419  -16.8739 C   0  0  0  0  0  0  0  0  0  0  0  0
    0.2709   -1.2940  -17.6405 C   0  0  0  0  0  0  0  0  0  0  0  0
    0.6711   -2.5955  -18.2342 C   0  0  0  0  0  0  0  0  0  0  0  0
    1.2414   -0.7577  -16.7042 N   0  0  0  0  0  4  0  0  0  0  0  0
    1.6215    0.5487  -17.1976 C   0  0  0  0  0  0  0  0  0  0  0  0
    2.4953    0.4320  -18.4438 C   0  0  0  0  0  0  0  0  0  0  0  0
    2.5031    1.8348  -19.0635 C   0  0  0  0  0  0  0  0  0  0  0  0
    2.7539    2.7859  -18.1061 O   0  0  0  0  0  0  0  0  0  0  0  0
    3.3057    2.2807  -16.9343 C   0  0  0  0  0  0  0  0  0  0  0  0
    2.3401    1.3858  -16.1873 C   0  0  0  0  0  0  0  0  0  0  0  0
    1.4933    2.2214  -15.4617 O   0  0  0  0  0  0  0  0  0  0  0  0
    1.0538    1.5735  -14.2926 C   0  0  0  0  0  0  0  0  0  0  0  0
    0.7134   -4.6829  -16.9448 C   0  0  0  0  0  0  0  0  0  0  0  0
    1.2540   -4.4370  -15.8102 O   0  0  0  0  0  0  0  0  0  0  0  0
    0.9860   -5.9528  -17.5003 N   0  0  0  0  0  0  0  0  0  0  0  0
    0.6227   -6.4178  -18.8111 C   0  0  0  0  0  0  0  0  0  0  0  0
    1.6223   -7.5083  -19.2766 C   0  0  0  0  0  0  0  0  0  0  0  0
    1.3169   -8.6527  -18.3363 C   0  0  0  0  0  0  0  0  0  0  0  0
    1.3704   -8.2878  -16.9977 C   0  0  0  0  0  0  0  0  0  0  0  0
    1.7282   -6.9110  -16.6639 C   0  0  0  0  0  0  0  0  0  0  0  0
    1.0868   -9.2816  -16.0823 C   0  0  0  0  0  0  0  0  0  0  0  0
    0.7701  -10.5612  -16.4917 C   0  0  0  0  0  0  0  0  0  0  0  0
    0.7355  -10.8575  -17.8532 C   0  0  0  0  0  0  0  0  0  0  0  0
    1.0137   -9.8835  -18.7667 N   0  0  0  0  0  0  0  0  0  0  0  0
    0.4657  -11.6253  -15.4983 C   0  0  0  0  0  0  0  0  0  0  0  0
    0.7689  -12.8851  -15.9759 F   0  0  0  0  0  0  0  0  0  0  0  0
   -0.8966  -11.6107  -15.2376 F   0  0  0  0  0  0  0  0  0  0  0  0
    1.1497  -11.4075  -14.2994 F   0  0  0  0  0  0  0  0  0  0  0  0
  1  2  1  0
  2  3  1  0
  2  4  1  0
  4  5  1  0
  5  6  1  0
  6  7  1  0
  7  8  1  0
  7  9  1  0
  9 10  1  0
 10 11  1  0
 11 12  1  0
 12 13  1  0
 13 14  1  0
 14 15  1  0
 15 16  1  0
 16 17  1  0
  4 18  1  0
 18 19  2  0
 18 20  1  0
 20 21  1  0
 21 22  1  0
 22 23  1  0
 23 24  2  0
 24 25  1  0
 24 26  1  0
 26 27  2  0
 27 28  1  0
 28 29  2  0
 27 30  1  0
 30 31  1  0
 30 32  1  0
 30 33  1  0
  8  4  1  0
 15 10  1  0
 25 20  1  0
 29 23  1  0
M  CHG  1   9   1
M  END
$$$$
