
     RDKit          3D

 33 36  0  0  0  0  0  0  0  0999 V2000
   -1.6201   -2.8334   17.8909 C   0  0  0  0  0  0  0  0  0  0  0  0
   -2.3480   -2.6904   16.5747 C   0  0  0  0  0  0  0  0  0  0  0  0
   -1.4075   -1.9473   15.6516 C   0  0  0  0  0  0  0  0  0  0  0  0
   -2.7488   -4.0360   16.0239 C   0  0  0  0  0  0  0  0  0  0  0  0
   -2.8711   -3.9873   14.5142 C   0  0  0  0  0  0  0  0  0  0  0  0
   -4.3318   -3.8233   14.2608 C   0  0  0  0  0  0  0  0  0  0  0  0
   -4.9726   -4.6061   15.3891 C   0  0  0  0  0  0  0  0  0  0  0  0
   -4.0333   -4.5440   16.5382 C   0  0  0  0  0  0  0  0  0  0  0  0
   -5.2119   -5.9529   14.9043 N   0  0  0  0  0  4  0  0  0  0  0  0
   -4.9360   -6.8497   16.0062 C   0  0  0  0  0  0  0  0  0  0  0  0
   -4.0728   -8.0249   15.5545 C   0  0  0  0  0  0  0  0  0  0  0  0
   -3.5517   -8.6629   16.8481 C   0  0  0  0  0  0  0  0  0  0  0  0
   -4.5730   -8.8359   17.7487 O   0  0  0  0  0  0  0  0  0  0  0  0
   -5.8430   -8.7704   17.1867 C   0  0  0  0  0  0  0  0  0  0  0  0
   -6.1667   -7.3866   16.6654 C   0  0  0  0  0  0  0  0  0  0  0  0
   -6.5808   -6.6292   17.7593 O   0  0  0  0  0  0  0  0  0  0  0  0
   -7.4217   -5.5831   17.3372 C   0  0  0  0  0  0  0  0  0  0  0  0
   -1.6301   -4.9847   16.3105 C   0  0  0  0  0  0  0  0  0  0  0  0
   -1.7718   -5.8549   17.2395 O   0  0  0  0  0  0  0  0  0  0  0  0
   -0.3947   -5.0032   15.6258 N   0  0  0  0  0  0  0  0  0  0  0  0
   -0.0573   -4.2739   14.4338 C   0  0  0  0  0  0  0  0  0  0  0  0
    1.4721   -4.0215   14.3885 C   0  0  0  0  0  0  0  0  0  0  0  0
    2.0262   -5.4143   14.1877 C   0  0  0  0  0  0  0  0  0  0  0  0
    1.5717   -6.3236   15.1334 C   0  0  0  0  0  0  0  0  0  0  0  0
    0.6748   -5.8475   16.1841 C   0  0  0  0  0  0  0  0  0  0  0  0
    2.0264   -7.6204   15.0012 C   0  0  0  0  0  0  0  0  0  0  0  0
    2.8849   -7.9762   13.9805 C   0  0  0  0  0  0  0  0  0  0  0  0
    3.3014   -7.0105   13.0659 C   0  0  0  0  0  0  0  0  0  0  0  0
    2.8584   -5.7261   13.1866 N   0  0  0  0  0  0  0  0  0  0  0  0
    3.3692   -9.3759   13.8457 C   0  0  0  0  0  0  0  0  0  0  0  0
    4.4078   -9.4823   12.9417 F   0  0  0  0  0  0  0  0  0  0  0  0
    2.3317  -10.1585   13.3609 F   0  0  0  0  0  0  0  0  0  0  0  0
    3.7748   -9.8909   15.0798 F   0  0  0  0  0  0  0  0  0  0  0  0
  1  2  1  0
  2  3  1  0
  2  4  1  0
  4  5  1  0
  5  6  1  0
  6  7  1  0
  7  8  1  0
  7  9  1  0
  9 10  1  0
 10 11  1  0
 11 12  1  0
 12 13  1  0
 13 14  1  0
 14 15  1  0
 15 16  1  0
 16 17  1  0
  4 18  1  0
 18 19  2  0
 18 20  1  0
 20 21  1  0
 21 22  1  0
 22 23  1  0
 23 24  2  0
 24 25  1  0
 24 26  1  0
 26 27  2  0
 27 28  1  0
 28 29  2  0
 27 30  1  0
 30 31  1  0
 30 32  1  0
 30 33  1  0
  8  4  1  0
 15 10  1  0
 25 20  1  0
 29 23  1  0
M  CHG  1   9   1
M  END
$$$$
