
     RDKit          3D

 33 36  0  0  0  0  0  0  0  0999 V2000
    3.4893   -6.3496  -17.2502 C   0  0  0  0  0  0  0  0  0  0  0  0
    2.5064   -7.0491  -18.1598 C   0  0  0  0  0  0  0  0  0  0  0  0
    1.2549   -7.2686  -17.3386 C   0  0  0  0  0  0  0  0  0  0  0  0
    2.2420   -6.2385  -19.4038 C   0  0  0  0  0  0  0  0  0  0  0  0
    1.9282   -7.1408  -20.5802 C   0  0  0  0  0  0  0  0  0  0  0  0
    3.2149   -7.2451  -21.3272 C   0  0  0  0  0  0  0  0  0  0  0  0
    3.8469   -5.8825  -21.1273 C   0  0  0  0  0  0  0  0  0  0  0  0
    3.3642   -5.3768  -19.8166 C   0  0  0  0  0  0  0  0  0  0  0  0
    3.4570   -5.0518  -22.2516 N   0  0  0  0  0  4  0  0  0  0  0  0
    3.4708   -5.9006  -23.4238 C   0  0  0  0  0  0  0  0  0  0  0  0
    4.8653   -5.9601  -24.0421 C   0  0  0  0  0  0  0  0  0  0  0  0
    4.8282   -7.1522  -25.0061 C   0  0  0  0  0  0  0  0  0  0  0  0
    3.7038   -7.1051  -25.7919 O   0  0  0  0  0  0  0  0  0  0  0  0
    3.0840   -5.8609  -25.8226 C   0  0  0  0  0  0  0  0  0  0  0  0
    2.4978   -5.4810  -24.4797 C   0  0  0  0  0  0  0  0  0  0  0  0
    1.2656   -6.1240  -24.3800 O   0  0  0  0  0  0  0  0  0  0  0  0
    0.8699   -6.6167  -25.6371 C   0  0  0  0  0  0  0  0  0  0  0  0
    1.0007   -5.4424  -19.1600 C   0  0  0  0  0  0  0  0  0  0  0  0
   -0.1406   -5.9914  -19.3501 O   0  0  0  0  0  0  0  0  0  0  0  0
    0.9785   -4.0980  -18.7269 N   0  0  0  0  0  0  0  0  0  0  0  0
    2.0271   -3.3951  -18.0392 C   0  0  0  0  0  0  0  0  0  0  0  0
    1.9223   -1.8764  -18.3352 C   0  0  0  0  0  0  0  0  0  0  0  0
    0.6408   -1.4947  -17.6286 C   0  0  0  0  0  0  0  0  0  0  0  0
   -0.4423   -2.2792  -18.0018 C   0  0  0  0  0  0  0  0  0  0  0  0
   -0.2373   -3.3169  -19.0098 C   0  0  0  0  0  0  0  0  0  0  0  0
   -1.6435   -1.9952  -17.3835 C   0  0  0  0  0  0  0  0  0  0  0  0
   -1.7450   -0.9843  -16.4491 C   0  0  0  0  0  0  0  0  0  0  0  0
   -0.6157   -0.2355  -16.1227 C   0  0  0  0  0  0  0  0  0  0  0  0
    0.5765   -0.5072  -16.7270 N   0  0  0  0  0  0  0  0  0  0  0  0
   -3.0433   -0.6858  -15.7878 C   0  0  0  0  0  0  0  0  0  0  0  0
   -3.9933   -0.2384  -16.6848 F   0  0  0  0  0  0  0  0  0  0  0  0
   -2.8471    0.3332  -14.8674 F   0  0  0  0  0  0  0  0  0  0  0  0
   -3.5351   -1.8058  -15.1124 F   0  0  0  0  0  0  0  0  0  0  0  0
  1  2  1  0
  2  3  1  0
  2  4  1  0
  4  5  1  0
  5  6  1  0
  6  7  1  0
  7  8  1  0
  7  9  1  0
  9 10  1  0
 10 11  1  0
 11 12  1  0
 12 13  1  0
 13 14  1  0
 14 15  1  0
 15 16  1  0
 16 17  1  0
  4 18  1  0
 18 19  2  0
 18 20  1  0
 20 21  1  0
 21 22  1  0
 22 23  1  0
 23 24  2  0
 24 25  1  0
 24 26  1  0
 26 27  2  0
 27 28  1  0
 28 29  2  0
 27 30  1  0
 30 31  1  0
 30 32  1  0
 30 33  1  0
  8  4  1  0
 15 10  1  0
 25 20  1  0
 29 23  1  0
M  CHG  1   9   1
M  END
$$$$
