
     RDKit          3D

 33 36  0  0  0  0  0  0  0  0999 V2000
    1.2968   -6.3924   14.9440 C   0  0  0  0  0  0  0  0  0  0  0  0
    0.2676   -7.3097   15.5619 C   0  0  0  0  0  0  0  0  0  0  0  0
    0.8556   -7.7796   16.8742 C   0  0  0  0  0  0  0  0  0  0  0  0
   -1.0527   -6.6040   15.7444 C   0  0  0  0  0  0  0  0  0  0  0  0
   -1.4513   -6.5728   17.2061 C   0  0  0  0  0  0  0  0  0  0  0  0
   -2.4155   -7.7008   17.3567 C   0  0  0  0  0  0  0  0  0  0  0  0
   -3.1351   -7.7262   16.0233 C   0  0  0  0  0  0  0  0  0  0  0  0
   -2.1748   -7.2167   15.0109 C   0  0  0  0  0  0  0  0  0  0  0  0
   -4.3285   -6.9113   16.1563 N   0  0  0  0  0  4  0  0  0  0  0  0
   -5.4574   -7.7741   15.8811 C   0  0  0  0  0  0  0  0  0  0  0  0
   -5.3985   -8.3173   14.4557 C   0  0  0  0  0  0  0  0  0  0  0  0
   -6.4012   -9.4772   14.4246 C   0  0  0  0  0  0  0  0  0  0  0  0
   -7.5928   -9.1030   14.9939 O   0  0  0  0  0  0  0  0  0  0  0  0
   -7.7607   -7.7275   15.1077 C   0  0  0  0  0  0  0  0  0  0  0  0
   -6.7828   -7.1113   16.0851 C   0  0  0  0  0  0  0  0  0  0  0  0
   -7.3072   -7.3094   17.3608 O   0  0  0  0  0  0  0  0  0  0  0  0
   -8.6933   -7.5394   17.2876 C   0  0  0  0  0  0  0  0  0  0  0  0
   -0.8526   -5.1771   15.3474 C   0  0  0  0  0  0  0  0  0  0  0  0
   -1.0253   -4.2559   16.2203 O   0  0  0  0  0  0  0  0  0  0  0  0
   -0.4799   -4.7455   14.0549 N   0  0  0  0  0  0  0  0  0  0  0  0
    0.7621   -5.0103   13.3811 C   0  0  0  0  0  0  0  0  0  0  0  0
    0.5431   -4.9786   11.8462 C   0  0  0  0  0  0  0  0  0  0  0  0
    0.2408   -3.5190   11.5904 C   0  0  0  0  0  0  0  0  0  0  0  0
   -0.7927   -3.0300   12.3782 C   0  0  0  0  0  0  0  0  0  0  0  0
   -1.4598   -3.9458   13.3009 C   0  0  0  0  0  0  0  0  0  0  0  0
   -1.1124   -1.6978   12.2076 C   0  0  0  0  0  0  0  0  0  0  0  0
   -0.4332   -0.9103   11.2999 C   0  0  0  0  0  0  0  0  0  0  0  0
    0.5942   -1.4681   10.5410 C   0  0  0  0  0  0  0  0  0  0  0  0
    0.9190   -2.7831   10.7013 N   0  0  0  0  0  0  0  0  0  0  0  0
   -0.7844    0.5240   11.1231 C   0  0  0  0  0  0  0  0  0  0  0  0
   -1.0936    1.1355   12.3221 F   0  0  0  0  0  0  0  0  0  0  0  0
   -1.9160    0.6074   10.3251 F   0  0  0  0  0  0  0  0  0  0  0  0
    0.2515    1.2243   10.4995 F   0  0  0  0  0  0  0  0  0  0  0  0
  1  2  1  0
  2  3  1  0
  2  4  1  0
  4  5  1  0
  5  6  1  0
  6  7  1  0
  7  8  1  0
  7  9  1  0
  9 10  1  0
 10 11  1  0
 11 12  1  0
 12 13  1  0
 13 14  1  0
 14 15  1  0
 15 16  1  0
 16 17  1  0
  4 18  1  0
 18 19  2  0
 18 20  1  0
 20 21  1  0
 21 22  1  0
 22 23  1  0
 23 24  2  0
 24 25  1  0
 24 26  1  0
 26 27  2  0
 27 28  1  0
 28 29  2  0
 27 30  1  0
 30 31  1  0
 30 32  1  0
 30 33  1  0
  8  4  1  0
 15 10  1  0
 25 20  1  0
 29 23  1  0
M  CHG  1   9   1
M  END
$$$$
