
     RDKit          3D

 33 36  0  0  0  0  0  0  0  0999 V2000
   -0.2371   -8.6151   14.1993 C   0  0  0  0  0  0  0  0  0  0  0  0
   -0.2234   -7.1110   14.0565 C   0  0  0  0  0  0  0  0  0  0  0  0
   -0.8738   -6.8083   12.7246 C   0  0  0  0  0  0  0  0  0  0  0  0
   -0.9366   -6.4472   15.2077 C   0  0  0  0  0  0  0  0  0  0  0  0
   -0.7941   -7.2650   16.4756 C   0  0  0  0  0  0  0  0  0  0  0  0
   -2.0671   -8.0365   16.5700 C   0  0  0  0  0  0  0  0  0  0  0  0
   -3.0947   -7.0887   15.9852 C   0  0  0  0  0  0  0  0  0  0  0  0
   -2.3807   -6.2458   14.9920 C   0  0  0  0  0  0  0  0  0  0  0  0
   -3.6678   -6.3346   17.0846 N   0  0  0  0  0  4  0  0  0  0  0  0
   -4.0890   -5.0601   16.5435 C   0  0  0  0  0  0  0  0  0  0  0  0
   -3.8643   -3.9350   17.5504 C   0  0  0  0  0  0  0  0  0  0  0  0
   -3.9843   -2.6387   16.7398 C   0  0  0  0  0  0  0  0  0  0  0  0
   -5.1018   -2.6670   15.9433 O   0  0  0  0  0  0  0  0  0  0  0  0
   -6.0378   -3.6269   16.3117 C   0  0  0  0  0  0  0  0  0  0  0  0
   -5.5210   -5.0355   16.1116 C   0  0  0  0  0  0  0  0  0  0  0  0
   -5.6950   -5.3423   14.7635 O   0  0  0  0  0  0  0  0  0  0  0  0
   -6.4086   -6.5471   14.6262 C   0  0  0  0  0  0  0  0  0  0  0  0
   -0.2373   -5.1541   15.4776 C   0  0  0  0  0  0  0  0  0  0  0  0
   -0.5453   -4.4844   16.5249 O   0  0  0  0  0  0  0  0  0  0  0  0
    0.7614   -4.5913   14.6522 N   0  0  0  0  0  0  0  0  0  0  0  0
    2.0883   -4.2025   15.0454 C   0  0  0  0  0  0  0  0  0  0  0  0
    3.0411   -4.2800   13.8242 C   0  0  0  0  0  0  0  0  0  0  0  0
    2.5309   -3.1628   12.9418 C   0  0  0  0  0  0  0  0  0  0  0  0
    1.1707   -3.2535   12.6785 C   0  0  0  0  0  0  0  0  0  0  0  0
    0.4267   -4.3820   13.2335 C   0  0  0  0  0  0  0  0  0  0  0  0
    0.6337   -2.2557   11.8898 C   0  0  0  0  0  0  0  0  0  0  0  0
    1.4191   -1.2327   11.3982 C   0  0  0  0  0  0  0  0  0  0  0  0
    2.7790   -1.2046   11.7023 C   0  0  0  0  0  0  0  0  0  0  0  0
    3.3205   -2.1849   12.4808 N   0  0  0  0  0  0  0  0  0  0  0  0
    0.8317   -0.1618   10.5496 C   0  0  0  0  0  0  0  0  0  0  0  0
    1.7824    0.7450   10.1241 F   0  0  0  0  0  0  0  0  0  0  0  0
   -0.0902    0.5466   11.3061 F   0  0  0  0  0  0  0  0  0  0  0  0
    0.1755   -0.7002    9.4396 F   0  0  0  0  0  0  0  0  0  0  0  0
  1  2  1  0
  2  3  1  0
  2  4  1  0
  4  5  1  0
  5  6  1  0
  6  7  1  0
  7  8  1  0
  7  9  1  0
  9 10  1  0
 10 11  1  0
 11 12  1  0
 12 13  1  0
 13 14  1  0
 14 15  1  0
 15 16  1  0
 16 17  1  0
  4 18  1  0
 18 19  2  0
 18 20  1  0
 20 21  1  0
 21 22  1  0
 22 23  1  0
 23 24  2  0
 24 25  1  0
 24 26  1  0
 26 27  2  0
 27 28  1  0
 28 29  2  0
 27 30  1  0
 30 31  1  0
 30 32  1  0
 30 33  1  0
  8  4  1  0
 15 10  1  0
 25 20  1  0
 29 23  1  0
M  CHG  1   9   1
M  END
$$$$
