
     RDKit          3D

 33 36  0  0  0  0  0  0  0  0999 V2000
   -4.0692   -4.1691   19.5357 C   0  0  0  0  0  0  0  0  0  0  0  0
   -3.0767   -4.0988   18.3987 C   0  0  0  0  0  0  0  0  0  0  0  0
   -1.7448   -4.5261   18.9749 C   0  0  0  0  0  0  0  0  0  0  0  0
   -3.5078   -4.9675   17.2436 C   0  0  0  0  0  0  0  0  0  0  0  0
   -3.5839   -4.1631   15.9615 C   0  0  0  0  0  0  0  0  0  0  0  0
   -5.0299   -3.8288   15.8131 C   0  0  0  0  0  0  0  0  0  0  0  0
   -5.7305   -5.0420   16.3906 C   0  0  0  0  0  0  0  0  0  0  0  0
   -4.8238   -5.6066   17.4231 C   0  0  0  0  0  0  0  0  0  0  0  0
   -6.0022   -5.9521   15.2933 N   0  0  0  0  0  4  0  0  0  0  0  0
   -7.0313   -6.8619   15.7490 C   0  0  0  0  0  0  0  0  0  0  0  0
   -6.7273   -8.2946   15.3186 C   0  0  0  0  0  0  0  0  0  0  0  0
   -7.6547   -9.1752   16.1650 C   0  0  0  0  0  0  0  0  0  0  0  0
   -8.9367   -8.6849   16.1482 O   0  0  0  0  0  0  0  0  0  0  0  0
   -9.1879   -7.7868   15.1171 C   0  0  0  0  0  0  0  0  0  0  0  0
   -8.4035   -6.5018   15.2745 C   0  0  0  0  0  0  0  0  0  0  0  0
   -9.1072   -5.7065   16.1767 O   0  0  0  0  0  0  0  0  0  0  0  0
  -10.4873   -5.7723   15.9107 C   0  0  0  0  0  0  0  0  0  0  0  0
   -2.4317   -5.9812   17.0240 C   0  0  0  0  0  0  0  0  0  0  0  0
   -2.6438   -7.1993   17.3579 O   0  0  0  0  0  0  0  0  0  0  0  0
   -1.1647   -5.7022   16.4652 N   0  0  0  0  0  0  0  0  0  0  0  0
   -0.7938   -4.5407   15.7035 C   0  0  0  0  0  0  0  0  0  0  0  0
    0.7271   -4.2781   15.8546 C   0  0  0  0  0  0  0  0  0  0  0  0
    1.3348   -5.4566   15.1274 C   0  0  0  0  0  0  0  0  0  0  0  0
    0.8647   -6.6807   15.5840 C   0  0  0  0  0  0  0  0  0  0  0  0
   -0.0968   -6.6921   16.6842 C   0  0  0  0  0  0  0  0  0  0  0  0
    1.3669   -7.8013   14.9531 C   0  0  0  0  0  0  0  0  0  0  0  0
    2.2848   -7.6933   13.9278 C   0  0  0  0  0  0  0  0  0  0  0  0
    2.7136   -6.4312   13.5207 C   0  0  0  0  0  0  0  0  0  0  0  0
    2.2241   -5.3170   14.1366 N   0  0  0  0  0  0  0  0  0  0  0  0
    2.8200   -8.9062   13.2537 C   0  0  0  0  0  0  0  0  0  0  0  0
    2.8865   -9.9894   14.1077 F   0  0  0  0  0  0  0  0  0  0  0  0
    4.1159   -8.6439   12.8344 F   0  0  0  0  0  0  0  0  0  0  0  0
    2.0514   -9.2436   12.1366 F   0  0  0  0  0  0  0  0  0  0  0  0
  1  2  1  0
  2  3  1  0
  2  4  1  0
  4  5  1  0
  5  6  1  0
  6  7  1  0
  7  8  1  0
  7  9  1  0
  9 10  1  0
 10 11  1  0
 11 12  1  0
 12 13  1  0
 13 14  1  0
 14 15  1  0
 15 16  1  0
 16 17  1  0
  4 18  1  0
 18 19  2  0
 18 20  1  0
 20 21  1  0
 21 22  1  0
 22 23  1  0
 23 24  2  0
 24 25  1  0
 24 26  1  0
 26 27  2  0
 27 28  1  0
 28 29  2  0
 27 30  1  0
 30 31  1  0
 30 32  1  0
 30 33  1  0
  8  4  1  0
 15 10  1  0
 25 20  1  0
 29 23  1  0
M  CHG  1   9   1
M  END
$$$$
