
     RDKit          3D

 33 36  0  0  0  0  0  0  0  0999 V2000
    2.9311   -2.3544   15.5610 C   0  0  0  0  0  0  0  0  0  0  0  0
    1.6380   -3.1342   15.5117 C   0  0  0  0  0  0  0  0  0  0  0  0
    0.6792   -2.4195   16.4383 C   0  0  0  0  0  0  0  0  0  0  0  0
    1.1110   -3.2283   14.1017 C   0  0  0  0  0  0  0  0  0  0  0  0
    2.2370   -3.1061   13.0947 C   0  0  0  0  0  0  0  0  0  0  0  0
    2.1964   -1.6808   12.6571 C   0  0  0  0  0  0  0  0  0  0  0  0
    0.7195   -1.3442   12.6980 C   0  0  0  0  0  0  0  0  0  0  0  0
    0.1172   -2.1965   13.7552 C   0  0  0  0  0  0  0  0  0  0  0  0
    0.1794   -1.5897   11.3736 N   0  0  0  0  0  4  0  0  0  0  0  0
    0.1941   -0.3229   10.6740 C   0  0  0  0  0  0  0  0  0  0  0  0
   -0.7894    0.6619   11.3011 C   0  0  0  0  0  0  0  0  0  0  0  0
   -0.4058    2.0329   10.7311 C   0  0  0  0  0  0  0  0  0  0  0  0
   -0.2405    1.9628    9.3702 O   0  0  0  0  0  0  0  0  0  0  0  0
   -0.8070    0.8352    8.7866 C   0  0  0  0  0  0  0  0  0  0  0  0
   -0.1125   -0.4400    9.2146 C   0  0  0  0  0  0  0  0  0  0  0  0
    1.0258   -0.5663    8.4210 O   0  0  0  0  0  0  0  0  0  0  0  0
    0.7074   -1.2102    7.2112 C   0  0  0  0  0  0  0  0  0  0  0  0
    0.5561   -4.6048   13.9255 C   0  0  0  0  0  0  0  0  0  0  0  0
    1.1003   -5.3934   13.0758 O   0  0  0  0  0  0  0  0  0  0  0  0
   -0.5494   -5.1242   14.6352 N   0  0  0  0  0  0  0  0  0  0  0  0
   -1.0340   -4.6894   15.9168 C   0  0  0  0  0  0  0  0  0  0  0  0
   -2.5509   -4.9901   16.0336 C   0  0  0  0  0  0  0  0  0  0  0  0
   -2.5810   -6.5016   16.0750 C   0  0  0  0  0  0  0  0  0  0  0  0
   -1.9083   -7.0898   15.0123 C   0  0  0  0  0  0  0  0  0  0  0  0
   -1.3013   -6.2224   14.0052 C   0  0  0  0  0  0  0  0  0  0  0  0
   -1.8826   -8.4700   14.9949 C   0  0  0  0  0  0  0  0  0  0  0  0
   -2.4968   -9.2088   15.9861 C   0  0  0  0  0  0  0  0  0  0  0  0
   -3.1552   -8.5516   17.0239 C   0  0  0  0  0  0  0  0  0  0  0  0
   -3.1868   -7.1882   17.0515 N   0  0  0  0  0  0  0  0  0  0  0  0
   -2.4636  -10.6955   15.9593 C   0  0  0  0  0  0  0  0  0  0  0  0
   -1.1732  -11.1873   15.9676 F   0  0  0  0  0  0  0  0  0  0  0  0
   -3.0525  -11.1301   14.7810 F   0  0  0  0  0  0  0  0  0  0  0  0
   -3.1722  -11.2358   17.0356 F   0  0  0  0  0  0  0  0  0  0  0  0
  1  2  1  0
  2  3  1  0
  2  4  1  0
  4  5  1  0
  5  6  1  0
  6  7  1  0
  7  8  1  0
  7  9  1  0
  9 10  1  0
 10 11  1  0
 11 12  1  0
 12 13  1  0
 13 14  1  0
 14 15  1  0
 15 16  1  0
 16 17  1  0
  4 18  1  0
 18 19  2  0
 18 20  1  0
 20 21  1  0
 21 22  1  0
 22 23  1  0
 23 24  2  0
 24 25  1  0
 24 26  1  0
 26 27  2  0
 27 28  1  0
 28 29  2  0
 27 30  1  0
 30 31  1  0
 30 32  1  0
 30 33  1  0
  8  4  1  0
 15 10  1  0
 25 20  1  0
 29 23  1  0
M  CHG  1   9   1
M  END
$$$$
