
     RDKit          3D

 15 15  0  0  0  0  0  0  0  0999 V2000
   -0.4625    1.9864    6.1743 O   0  0  0  0  0  0  0  0  0  0  0  0
   -1.1764    2.5803    7.2129 C   0  0  2  0  0  0  0  0  0  0  0  0
   -1.6831    3.9031    6.7414 C   0  0  0  0  0  0  0  0  0  0  0  0
   -1.1817    4.4885    5.5948 C   0  0  0  0  0  0  0  0  0  0  0  0
   -1.6309    5.7091    5.1357 C   0  0  0  0  0  0  0  0  0  0  0  0
   -2.6111    6.4080    5.8070 C   0  0  0  0  0  0  0  0  0  0  0  0
   -3.1197    5.8348    6.9525 C   0  0  0  0  0  0  0  0  0  0  0  0
   -2.6659    4.6060    7.4127 C   0  0  0  0  0  0  0  0  0  0  0  0
   -4.1051    6.5030    7.6568 O   0  0  0  0  0  0  0  0  0  0  0  0
   -3.0676    7.6470    5.3417 O   0  0  0  0  0  0  0  0  0  0  0  0
   -0.2821    2.7373    8.4220 C   0  0  0  0  0  0  0  0  0  0  0  0
    0.2900    1.5468    8.9197 N   0  0  0  0  0  4  0  0  0  0  0  0
    0.8205    1.5228   10.2255 C   0  0  0  0  0  0  0  0  0  0  0  0
    1.9893    2.5194   10.2780 C   0  0  0  0  0  0  0  0  0  0  0  0
    1.3033    0.2050   10.7234 C   0  0  0  0  0  0  0  0  0  0  0  0
  2  1  1  6
  2  3  1  0
  3  4  2  0
  4  5  1  0
  5  6  2  0
  6  7  1  0
  7  8  2  0
  7  9  1  0
  6 10  1  0
  2 11  1  0
 11 12  1  0
 12 13  1  0
 13 14  1  0
 13 15  1  0
  8  3  1  0
M  CHG  1  12   1
M  END
$$$$
