
     RDKit          3D

 15 15  0  0  0  0  0  0  0  0999 V2000
   -0.2381    2.0915    6.4117 O   0  0  0  0  0  0  0  0  0  0  0  0
   -0.9421    2.7466    7.4199 C   0  0  2  0  0  0  0  0  0  0  0  0
   -1.4464    4.0429    6.8776 C   0  0  0  0  0  0  0  0  0  0  0  0
   -0.9480    4.5620    5.6983 C   0  0  0  0  0  0  0  0  0  0  0  0
   -1.3953    5.7568    5.1739 C   0  0  0  0  0  0  0  0  0  0  0  0
   -2.3703    6.4953    5.8093 C   0  0  0  0  0  0  0  0  0  0  0  0
   -2.8759    5.9883    6.9870 C   0  0  0  0  0  0  0  0  0  0  0  0
   -2.4241    4.7854    7.5129 C   0  0  0  0  0  0  0  0  0  0  0  0
   -3.8562    6.6980    7.6570 O   0  0  0  0  0  0  0  0  0  0  0  0
   -2.8248    7.7080    5.2778 O   0  0  0  0  0  0  0  0  0  0  0  0
   -0.0385    2.9676    8.6119 C   0  0  0  0  0  0  0  0  0  0  0  0
    0.5737    1.8106    9.1397 N   0  0  0  0  0  4  0  0  0  0  0  0
    1.1205    1.8437   10.4386 C   0  0  0  0  0  0  0  0  0  0  0  0
    2.6088    2.2064   10.3145 C   0  0  0  0  0  0  0  0  0  0  0  0
    1.0061    0.5942   11.2406 C   0  0  0  0  0  0  0  0  0  0  0  0
  2  1  1  6
  2  3  1  0
  3  4  2  0
  4  5  1  0
  5  6  2  0
  6  7  1  0
  7  8  2  0
  7  9  1  0
  6 10  1  0
  2 11  1  0
 11 12  1  0
 12 13  1  0
 13 14  1  0
 13 15  1  0
  8  3  1  0
M  CHG  1  12   1
M  END
$$$$
