
     RDKit          3D

 15 15  0  0  0  0  0  0  0  0999 V2000
   -0.1450    2.3337    6.2623 O   0  0  0  0  0  0  0  0  0  0  0  0
   -1.0126    2.8430    7.2262 C   0  0  2  0  0  0  0  0  0  0  0  0
   -1.5105    4.1706    6.7589 C   0  0  0  0  0  0  0  0  0  0  0  0
   -0.9958    4.7624    5.6215 C   0  0  0  0  0  0  0  0  0  0  0  0
   -1.4368    5.9875    5.1665 C   0  0  0  0  0  0  0  0  0  0  0  0
   -2.4215    6.6847    5.8328 C   0  0  0  0  0  0  0  0  0  0  0  0
   -2.9433    6.1052    6.9691 C   0  0  0  0  0  0  0  0  0  0  0  0
   -2.4979    4.8718    7.4252 C   0  0  0  0  0  0  0  0  0  0  0  0
   -3.9338    6.7715    7.6681 O   0  0  0  0  0  0  0  0  0  0  0  0
   -2.8696    7.9283    5.3716 O   0  0  0  0  0  0  0  0  0  0  0  0
   -0.2902    2.9652    8.5489 C   0  0  0  0  0  0  0  0  0  0  0  0
    0.3241    1.7861    9.0229 N   0  0  0  0  0  4  0  0  0  0  0  0
    0.7867    1.7291   10.3532 C   0  0  0  0  0  0  0  0  0  0  0  0
    2.0790    2.5565   10.4390 C   0  0  0  0  0  0  0  0  0  0  0  0
    1.0589    0.3732   10.9055 C   0  0  0  0  0  0  0  0  0  0  0  0
  2  1  1  6
  2  3  1  0
  3  4  2  0
  4  5  1  0
  5  6  2  0
  6  7  1  0
  7  8  2  0
  7  9  1  0
  6 10  1  0
  2 11  1  0
 11 12  1  0
 12 13  1  0
 13 14  1  0
 13 15  1  0
  8  3  1  0
M  CHG  1  12   1
M  END
$$$$
