
     RDKit          3D

 15 15  0  0  0  0  0  0  0  0999 V2000
    1.3625    4.3597    8.5531 O   0  0  0  0  0  0  0  0  0  0  0  0
    0.3617    3.6326    7.9121 C   0  0  2  0  0  0  0  0  0  0  0  0
   -0.6717    4.5887    7.4153 C   0  0  0  0  0  0  0  0  0  0  0  0
   -0.8457    4.8072    6.0623 C   0  0  0  0  0  0  0  0  0  0  0  0
   -1.7923    5.6842    5.5751 C   0  0  0  0  0  0  0  0  0  0  0  0
   -2.6167    6.3899    6.4248 C   0  0  0  0  0  0  0  0  0  0  0  0
   -2.4533    6.1809    7.7772 C   0  0  0  0  0  0  0  0  0  0  0  0
   -1.4997    5.2976    8.2654 C   0  0  0  0  0  0  0  0  0  0  0  0
   -3.2603    6.8693    8.6651 O   0  0  0  0  0  0  0  0  0  0  0  0
   -3.5778    7.2802    5.9310 O   0  0  0  0  0  0  0  0  0  0  0  0
   -0.2374    2.6319    8.8744 C   0  0  0  0  0  0  0  0  0  0  0  0
    0.6570    1.6738    9.3978 N   0  0  0  0  0  4  0  0  0  0  0  0
    0.1831    0.6987   10.2988 C   0  0  0  0  0  0  0  0  0  0  0  0
    1.1882    0.5989   11.4572 C   0  0  0  0  0  0  0  0  0  0  0  0
   -0.0355   -0.6670    9.7468 C   0  0  0  0  0  0  0  0  0  0  0  0
  2  1  1  1
  2  3  1  0
  3  4  2  0
  4  5  1  0
  5  6  2  0
  6  7  1  0
  7  8  2  0
  7  9  1  0
  6 10  1  0
  2 11  1  0
 11 12  1  0
 12 13  1  0
 13 14  1  0
 13 15  1  0
  8  3  1  0
M  CHG  1  12   1
M  END
$$$$
