
     RDKit          3D

 15 15  0  0  0  0  0  0  0  0999 V2000
   -0.0774    2.1006    5.9552 O   0  0  0  0  0  0  0  0  0  0  0  0
   -0.7524    2.6759    7.0297 C   0  0  2  0  0  0  0  0  0  0  0  0
   -1.2796    4.0045    6.5991 C   0  0  0  0  0  0  0  0  0  0  0  0
   -0.9226    4.5499    5.3809 C   0  0  0  0  0  0  0  0  0  0  0  0
   -1.3944    5.7749    4.9574 C   0  0  0  0  0  0  0  0  0  0  0  0
   -2.2527    6.5187    5.7383 C   0  0  0  0  0  0  0  0  0  0  0  0
   -2.6167    5.9857    6.9560 C   0  0  0  0  0  0  0  0  0  0  0  0
   -2.1405    4.7524    7.3803 C   0  0  0  0  0  0  0  0  0  0  0  0
   -3.4766    6.6997    7.7711 O   0  0  0  0  0  0  0  0  0  0  0  0
   -2.7320    7.7621    5.3091 O   0  0  0  0  0  0  0  0  0  0  0  0
    0.1872    2.8162    8.2060 C   0  0  0  0  0  0  0  0  0  0  0  0
    0.5787    1.6096    8.8250 N   0  0  0  0  0  4  0  0  0  0  0  0
    1.4340    1.6477    9.9448 C   0  0  0  0  0  0  0  0  0  0  0  0
    1.8566    0.2051   10.2647 C   0  0  0  0  0  0  0  0  0  0  0  0
    0.8811    2.2615   11.1838 C   0  0  0  0  0  0  0  0  0  0  0  0
  2  1  1  6
  2  3  1  0
  3  4  2  0
  4  5  1  0
  5  6  2  0
  6  7  1  0
  7  8  2  0
  7  9  1  0
  6 10  1  0
  2 11  1  0
 11 12  1  0
 12 13  1  0
 13 14  1  0
 13 15  1  0
  8  3  1  0
M  CHG  1  12   1
M  END
$$$$
