
     RDKit          3D

 15 15  0  0  0  0  0  0  0  0999 V2000
   -1.9776    1.9950    7.7137 O   0  0  0  0  0  0  0  0  0  0  0  0
   -1.6202    3.1294    8.4393 C   0  0  2  0  0  0  0  0  0  0  0  0
   -1.8252    4.3278    7.5729 C   0  0  0  0  0  0  0  0  0  0  0  0
   -1.0493    4.5329    6.4484 C   0  0  0  0  0  0  0  0  0  0  0  0
   -1.2167    5.6305    5.6299 C   0  0  0  0  0  0  0  0  0  0  0  0
   -2.1759    6.5829    5.8994 C   0  0  0  0  0  0  0  0  0  0  0  0
   -2.9567    6.3900    7.0186 C   0  0  0  0  0  0  0  0  0  0  0  0
   -2.7864    5.2844    7.8410 C   0  0  0  0  0  0  0  0  0  0  0  0
   -3.9315    7.3222    7.3256 O   0  0  0  0  0  0  0  0  0  0  0  0
   -2.3464    7.6972    5.0692 O   0  0  0  0  0  0  0  0  0  0  0  0
   -0.1795    3.0171    8.8844 C   0  0  0  0  0  0  0  0  0  0  0  0
    0.1377    1.8754    9.6512 N   0  0  0  0  0  4  0  0  0  0  0  0
    1.3679    1.8179   10.3372 C   0  0  0  0  0  0  0  0  0  0  0  0
    2.4879    1.7201    9.2894 C   0  0  0  0  0  0  0  0  0  0  0  0
    1.5355    0.7033   11.3104 C   0  0  0  0  0  0  0  0  0  0  0  0
  2  1  1  6
  2  3  1  0
  3  4  2  0
  4  5  1  0
  5  6  2  0
  6  7  1  0
  7  8  2  0
  7  9  1  0
  6 10  1  0
  2 11  1  0
 11 12  1  0
 12 13  1  0
 13 14  1  0
 13 15  1  0
  8  3  1  0
M  CHG  1  12   1
M  END
$$$$
