
     RDKit          3D

 15 15  0  0  0  0  0  0  0  0999 V2000
    0.9025    3.0667    6.3751 O   0  0  0  0  0  0  0  0  0  0  0  0
   -0.3287    3.0212    7.0257 C   0  0  2  0  0  0  0  0  0  0  0  0
   -1.0738    4.2768    6.7144 C   0  0  0  0  0  0  0  0  0  0  0  0
   -1.3567    4.6301    5.4091 C   0  0  0  0  0  0  0  0  0  0  0  0
   -2.0433    5.7837    5.0921 C   0  0  0  0  0  0  0  0  0  0  0  0
   -2.4832    6.6457    6.0735 C   0  0  0  0  0  0  0  0  0  0  0  0
   -2.2073    6.3046    7.3800 C   0  0  0  0  0  0  0  0  0  0  0  0
   -1.5160    5.1429    7.6967 C   0  0  0  0  0  0  0  0  0  0  0  0
   -2.6310    7.1423    8.3961 O   0  0  0  0  0  0  0  0  0  0  0  0
   -3.1802    7.8167    5.7526 O   0  0  0  0  0  0  0  0  0  0  0  0
   -0.1132    2.8687    8.5146 C   0  0  0  0  0  0  0  0  0  0  0  0
   -0.7406    1.7552    9.1137 N   0  0  0  0  0  4  0  0  0  0  0  0
   -0.5323    1.4927   10.4829 C   0  0  0  0  0  0  0  0  0  0  0  0
    0.7860    0.7143   10.6186 C   0  0  0  0  0  0  0  0  0  0  0  0
   -1.6025    0.7312   11.1847 C   0  0  0  0  0  0  0  0  0  0  0  0
  2  1  1  6
  2  3  1  0
  3  4  2  0
  4  5  1  0
  5  6  2  0
  6  7  1  0
  7  8  2  0
  7  9  1  0
  6 10  1  0
  2 11  1  0
 11 12  1  0
 12 13  1  0
 13 14  1  0
 13 15  1  0
  8  3  1  0
M  CHG  1  12   1
M  END
$$$$
