
     RDKit          3D

 15 15  0  0  0  0  0  0  0  0999 V2000
    0.2623    2.3860    5.9516 O   0  0  0  0  0  0  0  0  0  0  0  0
   -0.7848    2.6967    6.8165 C   0  0  2  0  0  0  0  0  0  0  0  0
   -1.3578    4.0139    6.4099 C   0  0  0  0  0  0  0  0  0  0  0  0
   -1.1717    4.5059    5.1324 C   0  0  0  0  0  0  0  0  0  0  0  0
   -1.6895    5.7192    4.7293 C   0  0  0  0  0  0  0  0  0  0  0  0
   -2.4241    6.5044    5.5916 C   0  0  0  0  0  0  0  0  0  0  0  0
   -2.6170    6.0248    6.8693 C   0  0  0  0  0  0  0  0  0  0  0  0
   -2.0948    4.8032    7.2728 C   0  0  0  0  0  0  0  0  0  0  0  0
   -3.3485    6.7815    7.7669 O   0  0  0  0  0  0  0  0  0  0  0  0
   -2.9500    7.7359    5.1833 O   0  0  0  0  0  0  0  0  0  0  0  0
   -0.2755    2.7383    8.2396 C   0  0  0  0  0  0  0  0  0  0  0  0
    0.4173    1.5888    8.6764 N   0  0  0  0  0  4  0  0  0  0  0  0
    0.8156    1.4870   10.0248 C   0  0  0  0  0  0  0  0  0  0  0  0
    2.1653    2.2068   10.1734 C   0  0  0  0  0  0  0  0  0  0  0  0
    0.9535    0.1103   10.5757 C   0  0  0  0  0  0  0  0  0  0  0  0
  2  1  1  6
  2  3  1  0
  3  4  2  0
  4  5  1  0
  5  6  2  0
  6  7  1  0
  7  8  2  0
  7  9  1  0
  6 10  1  0
  2 11  1  0
 11 12  1  0
 12 13  1  0
 13 14  1  0
 13 15  1  0
  8  3  1  0
M  CHG  1  12   1
M  END
$$$$
