
     RDKit          3D

 15 15  0  0  0  0  0  0  0  0999 V2000
   -0.0989    2.2559    6.1559 O   0  0  0  0  0  0  0  0  0  0  0  0
   -0.9447    2.7541    7.1446 C   0  0  2  0  0  0  0  0  0  0  0  0
   -1.4830    4.0691    6.6865 C   0  0  0  0  0  0  0  0  0  0  0  0
   -1.0067    4.6707    5.5376 C   0  0  0  0  0  0  0  0  0  0  0  0
   -1.4855    5.8846    5.0907 C   0  0  0  0  0  0  0  0  0  0  0  0
   -2.4716    6.5601    5.7772 C   0  0  0  0  0  0  0  0  0  0  0  0
   -2.9554    5.9705    6.9252 C   0  0  0  0  0  0  0  0  0  0  0  0
   -2.4719    4.7485    7.3731 C   0  0  0  0  0  0  0  0  0  0  0  0
   -3.9457    6.6149    7.6445 O   0  0  0  0  0  0  0  0  0  0  0  0
   -2.9581    7.7922    5.3243 O   0  0  0  0  0  0  0  0  0  0  0  0
   -0.1825    2.8981    8.4425 C   0  0  0  0  0  0  0  0  0  0  0  0
    0.4878    1.7399    8.8913 N   0  0  0  0  0  4  0  0  0  0  0  0
    0.9084    1.6558   10.2340 C   0  0  0  0  0  0  0  0  0  0  0  0
    2.1761    2.5114   10.3855 C   0  0  0  0  0  0  0  0  0  0  0  0
    1.1966    0.2915   10.7568 C   0  0  0  0  0  0  0  0  0  0  0  0
  2  1  1  6
  2  3  1  0
  3  4  2  0
  4  5  1  0
  5  6  2  0
  6  7  1  0
  7  8  2  0
  7  9  1  0
  6 10  1  0
  2 11  1  0
 11 12  1  0
 12 13  1  0
 13 14  1  0
 13 15  1  0
  8  3  1  0
M  CHG  1  12   1
M  END
$$$$
