
     RDKit          3D

 15 15  0  0  0  0  0  0  0  0999 V2000
   -2.0034    3.4710    9.7556 O   0  0  0  0  0  0  0  0  0  0  0  0
   -0.9480    3.7985    8.9072 C   0  0  2  0  0  0  0  0  0  0  0  0
   -1.4663    4.6989    7.8350 C   0  0  0  0  0  0  0  0  0  0  0  0
   -0.7927    4.8382    6.6369 C   0  0  0  0  0  0  0  0  0  0  0  0
   -1.2482    5.6624    5.6290 C   0  0  0  0  0  0  0  0  0  0  0  0
   -2.4085    6.3923    5.7727 C   0  0  0  0  0  0  0  0  0  0  0  0
   -3.0900    6.2621    6.9635 C   0  0  0  0  0  0  0  0  0  0  0  0
   -2.6296    5.4319    7.9766 C   0  0  0  0  0  0  0  0  0  0  0  0
   -4.2596    6.9772    7.1490 O   0  0  0  0  0  0  0  0  0  0  0  0
   -2.8715    7.2290    4.7502 O   0  0  0  0  0  0  0  0  0  0  0  0
   -0.3541    2.5372    8.3216 C   0  0  0  0  0  0  0  0  0  0  0  0
    0.0119    1.5423    9.2535 N   0  0  0  0  0  4  0  0  0  0  0  0
    1.2000    0.8093    9.0579 C   0  0  0  0  0  0  0  0  0  0  0  0
    0.8592   -0.4217    8.2033 C   0  0  0  0  0  0  0  0  0  0  0  0
    1.9073    0.3489   10.2849 C   0  0  0  0  0  0  0  0  0  0  0  0
  2  1  1  1
  2  3  1  0
  3  4  2  0
  4  5  1  0
  5  6  2  0
  6  7  1  0
  7  8  2  0
  7  9  1  0
  6 10  1  0
  2 11  1  0
 11 12  1  0
 12 13  1  0
 13 14  1  0
 13 15  1  0
  8  3  1  0
M  CHG  1  12   1
M  END
$$$$
