
     RDKit          3D

 15 15  0  0  0  0  0  0  0  0999 V2000
    0.9484    3.2206    6.6321 O   0  0  0  0  0  0  0  0  0  0  0  0
   -0.3668    2.8824    6.9437 C   0  0  2  0  0  0  0  0  0  0  0  0
   -1.2243    4.0878    6.7427 C   0  0  0  0  0  0  0  0  0  0  0  0
   -1.4291    4.6118    5.4808 C   0  0  0  0  0  0  0  0  0  0  0  0
   -2.2163    5.7239    5.2655 C   0  0  0  0  0  0  0  0  0  0  0  0
   -2.8410    6.3700    6.3105 C   0  0  0  0  0  0  0  0  0  0  0  0
   -2.6447    5.8571    7.5746 C   0  0  0  0  0  0  0  0  0  0  0  0
   -1.8519    4.7376    7.7889 C   0  0  0  0  0  0  0  0  0  0  0  0
   -3.2536    6.4755    8.6518 O   0  0  0  0  0  0  0  0  0  0  0  0
   -3.6401    7.4987    6.0928 O   0  0  0  0  0  0  0  0  0  0  0  0
   -0.4422    2.3903    8.3714 C   0  0  0  0  0  0  0  0  0  0  0  0
    0.4260    1.3270    8.6997 N   0  0  0  0  0  4  0  0  0  0  0  0
    0.3248    0.7111    9.9636 C   0  0  0  0  0  0  0  0  0  0  0  0
    0.9610    1.6520   10.9990 C   0  0  0  0  0  0  0  0  0  0  0  0
    0.9518   -0.6326   10.1012 C   0  0  0  0  0  0  0  0  0  0  0  0
  2  1  1  1
  2  3  1  0
  3  4  2  0
  4  5  1  0
  5  6  2  0
  6  7  1  0
  7  8  2  0
  7  9  1  0
  6 10  1  0
  2 11  1  0
 11 12  1  0
 12 13  1  0
 13 14  1  0
 13 15  1  0
  8  3  1  0
M  CHG  1  12   1
M  END
$$$$
