
     RDKit          3D

 15 15  0  0  0  0  0  0  0  0999 V2000
   -0.5816    4.4483    9.9405 O   0  0  0  0  0  0  0  0  0  0  0  0
   -0.3287    3.9780    8.6537 C   0  0  2  0  0  0  0  0  0  0  0  0
   -1.2677    4.6547    7.7108 C   0  0  0  0  0  0  0  0  0  0  0  0
   -1.1092    4.5372    6.3434 C   0  0  0  0  0  0  0  0  0  0  0  0
   -1.9614    5.1509    5.4491 C   0  0  0  0  0  0  0  0  0  0  0  0
   -3.0213    5.9175    5.8835 C   0  0  0  0  0  0  0  0  0  0  0  0
   -3.1905    6.0427    7.2455 C   0  0  0  0  0  0  0  0  0  0  0  0
   -2.3314    5.4240    8.1438 C   0  0  0  0  0  0  0  0  0  0  0  0
   -4.2421    6.8034    7.7241 O   0  0  0  0  0  0  0  0  0  0  0  0
   -3.8867    6.5407    4.9765 O   0  0  0  0  0  0  0  0  0  0  0  0
   -0.5039    2.4766    8.6158 C   0  0  0  0  0  0  0  0  0  0  0  0
    0.3451    1.7389    9.4684 N   0  0  0  0  0  4  0  0  0  0  0  0
    0.3304    0.3303    9.4159 C   0  0  0  0  0  0  0  0  0  0  0  0
   -0.3046   -0.1836   10.7177 C   0  0  0  0  0  0  0  0  0  0  0  0
    1.6468   -0.3426    9.2371 C   0  0  0  0  0  0  0  0  0  0  0  0
  2  1  1  1
  2  3  1  0
  3  4  2  0
  4  5  1  0
  5  6  2  0
  6  7  1  0
  7  8  2  0
  7  9  1  0
  6 10  1  0
  2 11  1  0
 11 12  1  0
 12 13  1  0
 13 14  1  0
 13 15  1  0
  8  3  1  0
M  CHG  1  12   1
M  END
$$$$
