
     RDKit          3D

 15 15  0  0  0  0  0  0  0  0999 V2000
   -0.2265    2.1219    5.8541 O   0  0  0  0  0  0  0  0  0  0  0  0
   -0.8524    2.7043    6.9542 C   0  0  2  0  0  0  0  0  0  0  0  0
   -1.3671    4.0458    6.5488 C   0  0  0  0  0  0  0  0  0  0  0  0
   -0.9134    4.6634    5.3993 C   0  0  0  0  0  0  0  0  0  0  0  0
   -1.3712    5.9019    5.0005 C   0  0  0  0  0  0  0  0  0  0  0  0
   -2.3123    6.5872    5.7384 C   0  0  0  0  0  0  0  0  0  0  0  0
   -2.7732    5.9818    6.8876 C   0  0  0  0  0  0  0  0  0  0  0  0
   -2.3108    4.7350    7.2871 C   0  0  0  0  0  0  0  0  0  0  0  0
   -3.7183    6.6354    7.6578 O   0  0  0  0  0  0  0  0  0  0  0  0
   -2.7775    7.8443    5.3344 O   0  0  0  0  0  0  0  0  0  0  0  0
    0.1296    2.8187    8.0982 C   0  0  0  0  0  0  0  0  0  0  0  0
    0.7216    1.6092    8.5209 N   0  0  0  0  0  4  0  0  0  0  0  0
    1.5476    1.6009    9.6632 C   0  0  0  0  0  0  0  0  0  0  0  0
    2.5925    0.4886    9.4814 C   0  0  0  0  0  0  0  0  0  0  0  0
    0.8692    1.3993   10.9734 C   0  0  0  0  0  0  0  0  0  0  0  0
  2  1  1  6
  2  3  1  0
  3  4  2  0
  4  5  1  0
  5  6  2  0
  6  7  1  0
  7  8  2  0
  7  9  1  0
  6 10  1  0
  2 11  1  0
 11 12  1  0
 12 13  1  0
 13 14  1  0
 13 15  1  0
  8  3  1  0
M  CHG  1  12   1
M  END
$$$$
