
     RDKit          3D

 15 15  0  0  0  0  0  0  0  0999 V2000
   -0.6930    1.9867    6.1376 O   0  0  0  0  0  0  0  0  0  0  0  0
   -1.0443    2.7546    7.2457 C   0  0  2  0  0  0  0  0  0  0  0  0
   -1.5310    4.0816    6.7651 C   0  0  0  0  0  0  0  0  0  0  0  0
   -0.9773    4.6803    5.6499 C   0  0  0  0  0  0  0  0  0  0  0  0
   -1.4070    5.9052    5.1833 C   0  0  0  0  0  0  0  0  0  0  0  0
   -2.4192    6.5951    5.8151 C   0  0  0  0  0  0  0  0  0  0  0  0
   -2.9802    6.0086    6.9291 C   0  0  0  0  0  0  0  0  0  0  0  0
   -2.5459    4.7755    7.3968 C   0  0  0  0  0  0  0  0  0  0  0  0
   -3.9992    6.6674    7.5932 O   0  0  0  0  0  0  0  0  0  0  0  0
   -2.8560    7.8383    5.3422 O   0  0  0  0  0  0  0  0  0  0  0  0
    0.1509    2.9090    8.1588 C   0  0  0  0  0  0  0  0  0  0  0  0
    0.6330    1.7185    8.7439 N   0  0  0  0  0  4  0  0  0  0  0  0
    1.4761    1.7891    9.8713 C   0  0  0  0  0  0  0  0  0  0  0  0
    2.9159    1.5299    9.4003 C   0  0  0  0  0  0  0  0  0  0  0  0
    1.1715    0.8541   10.9896 C   0  0  0  0  0  0  0  0  0  0  0  0
  2  1  1  6
  2  3  1  0
  3  4  2  0
  4  5  1  0
  5  6  2  0
  6  7  1  0
  7  8  2  0
  7  9  1  0
  6 10  1  0
  2 11  1  0
 11 12  1  0
 12 13  1  0
 13 14  1  0
 13 15  1  0
  8  3  1  0
M  CHG  1  12   1
M  END
$$$$
