
     RDKit          3D

 15 15  0  0  0  0  0  0  0  0999 V2000
   -0.5749    2.2989    5.7703 O   0  0  0  0  0  0  0  0  0  0  0  0
   -1.0346    2.8416    6.9683 C   0  0  2  0  0  0  0  0  0  0  0  0
   -1.6103    4.1897    6.6855 C   0  0  0  0  0  0  0  0  0  0  0  0
   -2.4768    4.7935    7.5762 C   0  0  0  0  0  0  0  0  0  0  0  0
   -3.0235    6.0379    7.3411 C   0  0  0  0  0  0  0  0  0  0  0  0
   -2.7271    6.7433    6.1947 C   0  0  0  0  0  0  0  0  0  0  0  0
   -1.8637    6.1519    5.2979 C   0  0  0  0  0  0  0  0  0  0  0  0
   -1.3146    4.8992    5.5366 C   0  0  0  0  0  0  0  0  0  0  0  0
   -1.5395    6.8259    4.1341 O   0  0  0  0  0  0  0  0  0  0  0  0
   -3.2814    8.0064    5.9553 O   0  0  0  0  0  0  0  0  0  0  0  0
    0.1049    2.9309    7.9582 C   0  0  0  0  0  0  0  0  0  0  0  0
    0.6611    1.6991    8.3651 N   0  0  0  0  0  4  0  0  0  0  0  0
    1.6735    1.6830    9.3457 C   0  0  0  0  0  0  0  0  0  0  0  0
    2.2221    0.2501    9.4336 C   0  0  0  0  0  0  0  0  0  0  0  0
    1.2817    2.1214   10.7139 C   0  0  0  0  0  0  0  0  0  0  0  0
  2  1  1  6
  2  3  1  0
  3  4  2  0
  4  5  1  0
  5  6  2  0
  6  7  1  0
  7  8  2  0
  7  9  1  0
  6 10  1  0
  2 11  1  0
 11 12  1  0
 12 13  1  0
 13 14  1  0
 13 15  1  0
  8  3  1  0
M  CHG  1  12   1
M  END
$$$$
