
     RDKit          3D

 15 15  0  0  0  0  0  0  0  0999 V2000
   -0.4309    1.8693    6.0778 O   0  0  0  0  0  0  0  0  0  0  0  0
   -1.0533    2.5073    7.1487 C   0  0  2  0  0  0  0  0  0  0  0  0
   -1.5836    3.8192    6.6728 C   0  0  0  0  0  0  0  0  0  0  0  0
   -1.1006    4.4044    5.5183 C   0  0  0  0  0  0  0  0  0  0  0  0
   -1.5719    5.6151    5.0551 C   0  0  0  0  0  0  0  0  0  0  0  0
   -2.5568    6.3037    5.7301 C   0  0  0  0  0  0  0  0  0  0  0  0
   -3.0473    5.7306    6.8835 C   0  0  0  0  0  0  0  0  0  0  0  0
   -2.5713    4.5117    7.3479 C   0  0  0  0  0  0  0  0  0  0  0  0
   -4.0367    6.3886    7.5917 O   0  0  0  0  0  0  0  0  0  0  0  0
   -3.0358    7.5326    5.2606 O   0  0  0  0  0  0  0  0  0  0  0  0
   -0.0631    2.6947    8.2760 C   0  0  0  0  0  0  0  0  0  0  0  0
    0.5037    1.5117    8.7967 N   0  0  0  0  0  4  0  0  0  0  0  0
    1.0907    1.5270   10.0783 C   0  0  0  0  0  0  0  0  0  0  0  0
    2.2758    2.5049   10.0424 C   0  0  0  0  0  0  0  0  0  0  0  0
    1.5747    0.2205   10.6041 C   0  0  0  0  0  0  0  0  0  0  0  0
  2  1  1  6
  2  3  1  0
  3  4  2  0
  4  5  1  0
  5  6  2  0
  6  7  1  0
  7  8  2  0
  7  9  1  0
  6 10  1  0
  2 11  1  0
 11 12  1  0
 12 13  1  0
 13 14  1  0
 13 15  1  0
  8  3  1  0
M  CHG  1  12   1
M  END
$$$$
