
     RDKit          3D

 15 15  0  0  0  0  0  0  0  0999 V2000
   -0.6107    2.0137    6.1626 O   0  0  0  0  0  0  0  0  0  0  0  0
   -1.2215    2.6523    7.2397 C   0  0  2  0  0  0  0  0  0  0  0  0
   -1.7303    3.9771    6.7763 C   0  0  0  0  0  0  0  0  0  0  0  0
   -1.2113    4.5826    5.6482 C   0  0  0  0  0  0  0  0  0  0  0  0
   -1.6621    5.8056    5.1970 C   0  0  0  0  0  0  0  0  0  0  0  0
   -2.6615    6.4867    5.8580 C   0  0  0  0  0  0  0  0  0  0  0  0
   -3.1878    5.8933    6.9852 C   0  0  0  0  0  0  0  0  0  0  0  0
   -2.7324    4.6622    7.4375 C   0  0  0  0  0  0  0  0  0  0  0  0
   -4.1929    6.5433    7.6787 O   0  0  0  0  0  0  0  0  0  0  0  0
   -3.1196    7.7281    5.4007 O   0  0  0  0  0  0  0  0  0  0  0  0
   -0.2274    2.8129    8.3677 C   0  0  0  0  0  0  0  0  0  0  0  0
    0.3244    1.6163    8.8733 N   0  0  0  0  0  4  0  0  0  0  0  0
    0.8939    1.6031   10.1627 C   0  0  0  0  0  0  0  0  0  0  0  0
    2.0685    2.5941   10.1696 C   0  0  0  0  0  0  0  0  0  0  0  0
    1.3851    0.2881   10.6597 C   0  0  0  0  0  0  0  0  0  0  0  0
  2  1  1  6
  2  3  1  0
  3  4  2  0
  4  5  1  0
  5  6  2  0
  6  7  1  0
  7  8  2  0
  7  9  1  0
  6 10  1  0
  2 11  1  0
 11 12  1  0
 12 13  1  0
 13 14  1  0
 13 15  1  0
  8  3  1  0
M  CHG  1  12   1
M  END
$$$$
