
     RDKit          3D

 15 15  0  0  0  0  0  0  0  0999 V2000
    0.5903    2.7369    6.4260 O   0  0  0  0  0  0  0  0  0  0  0  0
   -0.6751    2.7338    7.0091 C   0  0  2  0  0  0  0  0  0  0  0  0
   -1.3422    4.0322    6.6961 C   0  0  0  0  0  0  0  0  0  0  0  0
   -1.3590    4.5300    5.4075 C   0  0  0  0  0  0  0  0  0  0  0  0
   -1.9678    5.7262    5.0894 C   0  0  0  0  0  0  0  0  0  0  0  0
   -2.5937    6.4875    6.0529 C   0  0  0  0  0  0  0  0  0  0  0  0
   -2.5840    6.0019    7.3427 C   0  0  0  0  0  0  0  0  0  0  0  0
   -1.9706    4.7976    7.6605 C   0  0  0  0  0  0  0  0  0  0  0  0
   -3.2011    6.7349    8.3404 O   0  0  0  0  0  0  0  0  0  0  0  0
   -3.2118    7.7017    5.7309 O   0  0  0  0  0  0  0  0  0  0  0  0
   -0.5481    2.5307    8.5020 C   0  0  0  0  0  0  0  0  0  0  0  0
    0.2885    1.4686    8.9070 N   0  0  0  0  0  4  0  0  0  0  0  0
    0.0036    0.7749   10.1007 C   0  0  0  0  0  0  0  0  0  0  0  0
    0.3605    1.6961   11.2780 C   0  0  0  0  0  0  0  0  0  0  0  0
    0.6986   -0.5277   10.2953 C   0  0  0  0  0  0  0  0  0  0  0  0
  2  1  1  6
  2  3  1  0
  3  4  2  0
  4  5  1  0
  5  6  2  0
  6  7  1  0
  7  8  2  0
  7  9  1  0
  6 10  1  0
  2 11  1  0
 11 12  1  0
 12 13  1  0
 13 14  1  0
 13 15  1  0
  8  3  1  0
M  CHG  1  12   1
M  END
$$$$
