
     RDKit          3D

 15 15  0  0  0  0  0  0  0  0999 V2000
   -0.5469    2.0115    6.0532 O   0  0  0  0  0  0  0  0  0  0  0  0
   -1.1820    2.6909    7.0906 C   0  0  2  0  0  0  0  0  0  0  0  0
   -1.6888    3.9920    6.5621 C   0  0  0  0  0  0  0  0  0  0  0  0
   -1.1825    4.5305    5.3949 C   0  0  0  0  0  0  0  0  0  0  0  0
   -1.6318    5.7302    4.8835 C   0  0  0  0  0  0  0  0  0  0  0  0
   -2.6168    6.4541    5.5202 C   0  0  0  0  0  0  0  0  0  0  0  0
   -3.1303    5.9276    6.6858 C   0  0  0  0  0  0  0  0  0  0  0  0
   -2.6765    4.7199    7.1988 C   0  0  0  0  0  0  0  0  0  0  0  0
   -4.1208    6.6222    7.3567 O   0  0  0  0  0  0  0  0  0  0  0  0
   -3.0734    7.6717    5.0017 O   0  0  0  0  0  0  0  0  0  0  0  0
   -0.2110    2.9050    8.2297 C   0  0  0  0  0  0  0  0  0  0  0  0
    0.3163    1.7332    8.8138 N   0  0  0  0  0  4  0  0  0  0  0  0
    0.9207    1.8012   10.0855 C   0  0  0  0  0  0  0  0  0  0  0  0
    2.4180    2.0817    9.8815 C   0  0  0  0  0  0  0  0  0  0  0  0
    0.7815    0.5991   10.9534 C   0  0  0  0  0  0  0  0  0  0  0  0
  2  1  1  6
  2  3  1  0
  3  4  2  0
  4  5  1  0
  5  6  2  0
  6  7  1  0
  7  8  2  0
  7  9  1  0
  6 10  1  0
  2 11  1  0
 11 12  1  0
 12 13  1  0
 13 14  1  0
 13 15  1  0
  8  3  1  0
M  CHG  1  12   1
M  END
$$$$
