
     RDKit          3D

 15 15  0  0  0  0  0  0  0  0999 V2000
    0.9284    3.0913    6.6188 O   0  0  0  0  0  0  0  0  0  0  0  0
   -0.3918    2.7988    6.9544 C   0  0  2  0  0  0  0  0  0  0  0  0
   -1.2266    4.0061    6.6818 C   0  0  0  0  0  0  0  0  0  0  0  0
   -1.4849    4.4141    5.3874 C   0  0  0  0  0  0  0  0  0  0  0  0
   -2.2526    5.5249    5.1060 C   0  0  0  0  0  0  0  0  0  0  0  0
   -2.8030    6.2868    6.1141 C   0  0  0  0  0  0  0  0  0  0  0  0
   -2.5528    5.8904    7.4102 C   0  0  0  0  0  0  0  0  0  0  0  0
   -1.7797    4.7719    7.6910 C   0  0  0  0  0  0  0  0  0  0  0  0
   -3.0865    6.6273    8.4522 O   0  0  0  0  0  0  0  0  0  0  0  0
   -3.5824    7.4144    5.8294 O   0  0  0  0  0  0  0  0  0  0  0  0
   -0.4709    2.3972    8.4100 C   0  0  0  0  0  0  0  0  0  0  0  0
    0.3525    1.3169    8.7933 N   0  0  0  0  0  4  0  0  0  0  0  0
    0.3039    0.8413   10.1194 C   0  0  0  0  0  0  0  0  0  0  0  0
    1.3141    1.6506   10.9479 C   0  0  0  0  0  0  0  0  0  0  0  0
    0.5863   -0.6074   10.3175 C   0  0  0  0  0  0  0  0  0  0  0  0
  2  1  1  1
  2  3  1  0
  3  4  2  0
  4  5  1  0
  5  6  2  0
  6  7  1  0
  7  8  2  0
  7  9  1  0
  6 10  1  0
  2 11  1  0
 11 12  1  0
 12 13  1  0
 13 14  1  0
 13 15  1  0
  8  3  1  0
M  CHG  1  12   1
M  END
$$$$
