
     RDKit          3D

 15 15  0  0  0  0  0  0  0  0999 V2000
   -0.2190    2.1576    6.1221 O   0  0  0  0  0  0  0  0  0  0  0  0
   -1.0170    2.7111    7.1210 C   0  0  2  0  0  0  0  0  0  0  0  0
   -1.5382    4.0233    6.6358 C   0  0  0  0  0  0  0  0  0  0  0  0
   -1.0364    4.6069    5.4885 C   0  0  0  0  0  0  0  0  0  0  0  0
   -1.4990    5.8177    5.0169 C   0  0  0  0  0  0  0  0  0  0  0  0
   -2.4935    6.5081    5.6758 C   0  0  0  0  0  0  0  0  0  0  0  0
   -3.0026    5.9366    6.8219 C   0  0  0  0  0  0  0  0  0  0  0  0
   -2.5354    4.7176    7.2947 C   0  0  0  0  0  0  0  0  0  0  0  0
   -4.0022    6.5965    7.5140 O   0  0  0  0  0  0  0  0  0  0  0  0
   -2.9635    7.7372    5.1978 O   0  0  0  0  0  0  0  0  0  0  0  0
   -0.2065    2.8794    8.3864 C   0  0  0  0  0  0  0  0  0  0  0  0
    0.4328    1.7152    8.8640 N   0  0  0  0  0  4  0  0  0  0  0  0
    0.9178    1.6809   10.1872 C   0  0  0  0  0  0  0  0  0  0  0  0
    2.1858    2.5473   10.2472 C   0  0  0  0  0  0  0  0  0  0  0  0
    1.2393    0.3374   10.7433 C   0  0  0  0  0  0  0  0  0  0  0  0
  2  1  1  6
  2  3  1  0
  3  4  2  0
  4  5  1  0
  5  6  2  0
  6  7  1  0
  7  8  2  0
  7  9  1  0
  6 10  1  0
  2 11  1  0
 11 12  1  0
 12 13  1  0
 13 14  1  0
 13 15  1  0
  8  3  1  0
M  CHG  1  12   1
M  END
$$$$
