
     RDKit          3D

 15 15  0  0  0  0  0  0  0  0999 V2000
    0.8357    3.2984    6.6202 O   0  0  0  0  0  0  0  0  0  0  0  0
   -0.4758    3.1796    7.0752 C   0  0  2  0  0  0  0  0  0  0  0  0
   -1.1932    4.4564    6.7857 C   0  0  0  0  0  0  0  0  0  0  0  0
   -1.3056    4.9312    5.4932 C   0  0  0  0  0  0  0  0  0  0  0  0
   -1.9627    6.1071    5.1964 C   0  0  0  0  0  0  0  0  0  0  0  0
   -2.5434    6.8703    6.1864 C   0  0  0  0  0  0  0  0  0  0  0  0
   -2.4384    6.4076    7.4803 C   0  0  0  0  0  0  0  0  0  0  0  0
   -1.7765    5.2237    7.7767 C   0  0  0  0  0  0  0  0  0  0  0  0
   -3.0073    7.1434    8.5044 O   0  0  0  0  0  0  0  0  0  0  0  0
   -3.2105    8.0639    5.8860 O   0  0  0  0  0  0  0  0  0  0  0  0
   -0.4761    2.8766    8.5566 C   0  0  0  0  0  0  0  0  0  0  0  0
    0.2637    1.7407    8.9498 N   0  0  0  0  0  4  0  0  0  0  0  0
    0.2608    1.3425   10.3020 C   0  0  0  0  0  0  0  0  0  0  0  0
    1.3854    2.1047   11.0205 C   0  0  0  0  0  0  0  0  0  0  0  0
    0.4346   -0.1125   10.5675 C   0  0  0  0  0  0  0  0  0  0  0  0
  2  1  1  1
  2  3  1  0
  3  4  2  0
  4  5  1  0
  5  6  2  0
  6  7  1  0
  7  8  2  0
  7  9  1  0
  6 10  1  0
  2 11  1  0
 11 12  1  0
 12 13  1  0
 13 14  1  0
 13 15  1  0
  8  3  1  0
M  CHG  1  12   1
M  END
$$$$
