
     RDKit          3D

 15 15  0  0  0  0  0  0  0  0999 V2000
   -0.2403    2.1953    6.0648 O   0  0  0  0  0  0  0  0  0  0  0  0
   -0.9443    2.7787    7.1160 C   0  0  2  0  0  0  0  0  0  0  0  0
   -1.4523    4.1077    6.6637 C   0  0  0  0  0  0  0  0  0  0  0  0
   -0.9247    4.7279    5.5476 C   0  0  0  0  0  0  0  0  0  0  0  0
   -1.3745    5.9550    5.1068 C   0  0  0  0  0  0  0  0  0  0  0  0
   -2.3818    6.6257    5.7666 C   0  0  0  0  0  0  0  0  0  0  0  0
   -2.9168    6.0176    6.8818 C   0  0  0  0  0  0  0  0  0  0  0  0
   -2.4623    4.7823    7.3236 C   0  0  0  0  0  0  0  0  0  0  0  0
   -3.9299    6.6567    7.5736 O   0  0  0  0  0  0  0  0  0  0  0  0
   -2.8390    7.8712    5.3199 O   0  0  0  0  0  0  0  0  0  0  0  0
   -0.0395    2.9204    8.3191 C   0  0  0  0  0  0  0  0  0  0  0  0
    0.5173    1.7207    8.8118 N   0  0  0  0  0  4  0  0  0  0  0  0
    1.0222    1.6767   10.1272 C   0  0  0  0  0  0  0  0  0  0  0  0
    2.3285    2.4858   10.1582 C   0  0  0  0  0  0  0  0  0  0  0  0
    1.2925    0.3253   10.6913 C   0  0  0  0  0  0  0  0  0  0  0  0
  2  1  1  6
  2  3  1  0
  3  4  2  0
  4  5  1  0
  5  6  2  0
  6  7  1  0
  7  8  2  0
  7  9  1  0
  6 10  1  0
  2 11  1  0
 11 12  1  0
 12 13  1  0
 13 14  1  0
 13 15  1  0
  8  3  1  0
M  CHG  1  12   1
M  END
$$$$
