
     RDKit          3D

 15 15  0  0  0  0  0  0  0  0999 V2000
   -0.3285    2.2688    6.0364 O   0  0  0  0  0  0  0  0  0  0  0  0
   -0.9561    2.8727    7.1239 C   0  0  2  0  0  0  0  0  0  0  0  0
   -1.4672    4.2074    6.6924 C   0  0  0  0  0  0  0  0  0  0  0  0
   -1.0009    4.8079    5.5389 C   0  0  0  0  0  0  0  0  0  0  0  0
   -1.4552    6.0398    5.1162 C   0  0  0  0  0  0  0  0  0  0  0  0
   -2.4051    6.7353    5.8329 C   0  0  0  0  0  0  0  0  0  0  0  0
   -2.8785    6.1470    6.9858 C   0  0  0  0  0  0  0  0  0  0  0  0
   -2.4198    4.9068    7.4093 C   0  0  0  0  0  0  0  0  0  0  0  0
   -3.8329    6.8112    7.7352 O   0  0  0  0  0  0  0  0  0  0  0  0
   -2.8667    7.9856    5.4045 O   0  0  0  0  0  0  0  0  0  0  0  0
    0.0232    3.0065    8.2681 C   0  0  0  0  0  0  0  0  0  0  0  0
    0.5870    1.8003    8.7364 N   0  0  0  0  0  4  0  0  0  0  0  0
    1.1829    1.7605   10.0133 C   0  0  0  0  0  0  0  0  0  0  0  0
    2.5214    2.5115    9.9326 C   0  0  0  0  0  0  0  0  0  0  0  0
    1.4352    0.4100   10.5880 C   0  0  0  0  0  0  0  0  0  0  0  0
  2  1  1  6
  2  3  1  0
  3  4  2  0
  4  5  1  0
  5  6  2  0
  6  7  1  0
  7  8  2  0
  7  9  1  0
  6 10  1  0
  2 11  1  0
 11 12  1  0
 12 13  1  0
 13 14  1  0
 13 15  1  0
  8  3  1  0
M  CHG  1  12   1
M  END
$$$$
