
     RDKit          3D

 15 15  0  0  0  0  0  0  0  0999 V2000
   -0.3660    1.9518    5.8839 O   0  0  0  0  0  0  0  0  0  0  0  0
   -1.0234    2.5389    6.9629 C   0  0  2  0  0  0  0  0  0  0  0  0
   -1.5225    3.8803    6.5384 C   0  0  0  0  0  0  0  0  0  0  0  0
   -1.0363    4.4914    5.3986 C   0  0  0  0  0  0  0  0  0  0  0  0
   -1.4791    5.7297    4.9826 C   0  0  0  0  0  0  0  0  0  0  0  0
   -2.4369    6.4213    5.6924 C   0  0  0  0  0  0  0  0  0  0  0  0
   -2.9302    5.8226    6.8315 C   0  0  0  0  0  0  0  0  0  0  0  0
   -2.4830    4.5760    7.2484 C   0  0  0  0  0  0  0  0  0  0  0  0
   -3.8930    6.4828    7.5736 O   0  0  0  0  0  0  0  0  0  0  0  0
   -2.8869    7.6782    5.2707 O   0  0  0  0  0  0  0  0  0  0  0  0
   -0.0760    2.6545    8.1356 C   0  0  0  0  0  0  0  0  0  0  0  0
    0.4660    1.4397    8.6076 N   0  0  0  0  0  4  0  0  0  0  0  0
    1.0606    1.3930    9.8849 C   0  0  0  0  0  0  0  0  0  0  0  0
    2.3819    2.1752    9.8188 C   0  0  0  0  0  0  0  0  0  0  0  0
    1.3425    0.0395   10.4384 C   0  0  0  0  0  0  0  0  0  0  0  0
  2  1  1  6
  2  3  1  0
  3  4  2  0
  4  5  1  0
  5  6  2  0
  6  7  1  0
  7  8  2  0
  7  9  1  0
  6 10  1  0
  2 11  1  0
 11 12  1  0
 12 13  1  0
 13 14  1  0
 13 15  1  0
  8  3  1  0
M  CHG  1  12   1
M  END
$$$$
