
     RDKit          3D

 15 15  0  0  0  0  0  0  0  0999 V2000
   -2.3916    1.9586    8.0678 O   0  0  0  0  0  0  0  0  0  0  0  0
   -1.5720    3.0035    8.4891 C   0  0  2  0  0  0  0  0  0  0  0  0
   -1.8300    4.1870    7.6163 C   0  0  0  0  0  0  0  0  0  0  0  0
   -1.0484    4.4336    6.5041 C   0  0  0  0  0  0  0  0  0  0  0  0
   -1.2639    5.5187    5.6802 C   0  0  0  0  0  0  0  0  0  0  0  0
   -2.2795    6.4159    5.9315 C   0  0  0  0  0  0  0  0  0  0  0  0
   -3.0666    6.1811    7.0383 C   0  0  0  0  0  0  0  0  0  0  0  0
   -2.8479    5.0882    7.8662 C   0  0  0  0  0  0  0  0  0  0  0  0
   -4.0974    7.0574    7.3269 O   0  0  0  0  0  0  0  0  0  0  0  0
   -2.4989    7.5174    5.0958 O   0  0  0  0  0  0  0  0  0  0  0  0
   -0.1233    2.5764    8.4163 C   0  0  0  0  0  0  0  0  0  0  0  0
    0.3205    1.7348    9.4588 N   0  0  0  0  0  4  0  0  0  0  0  0
    1.6858    1.3946    9.5448 C   0  0  0  0  0  0  0  0  0  0  0  0
    1.8476   -0.0419    9.0231 C   0  0  0  0  0  0  0  0  0  0  0  0
    2.3084    1.4777   10.8950 C   0  0  0  0  0  0  0  0  0  0  0  0
  2  1  1  6
  2  3  1  0
  3  4  2  0
  4  5  1  0
  5  6  2  0
  6  7  1  0
  7  8  2  0
  7  9  1  0
  6 10  1  0
  2 11  1  0
 11 12  1  0
 12 13  1  0
 13 14  1  0
 13 15  1  0
  8  3  1  0
M  CHG  1  12   1
M  END
$$$$
