
     RDKit          3D

 15 15  0  0  0  0  0  0  0  0999 V2000
   -0.5596    2.1659    6.4116 O   0  0  0  0  0  0  0  0  0  0  0  0
   -1.1425    2.8255    7.4915 C   0  0  2  0  0  0  0  0  0  0  0  0
   -1.6318    4.1560    7.0235 C   0  0  0  0  0  0  0  0  0  0  0  0
   -1.1180    4.7409    5.8822 C   0  0  0  0  0  0  0  0  0  0  0  0
   -1.5511    5.9686    5.4265 C   0  0  0  0  0  0  0  0  0  0  0  0
   -2.5266    6.6756    6.0961 C   0  0  0  0  0  0  0  0  0  0  0  0
   -3.0475    6.1030    7.2364 C   0  0  0  0  0  0  0  0  0  0  0  0
   -2.6100    4.8670    7.6932 C   0  0  0  0  0  0  0  0  0  0  0  0
   -4.0288    6.7791    7.9389 O   0  0  0  0  0  0  0  0  0  0  0  0
   -2.9668    7.9217    5.6343 O   0  0  0  0  0  0  0  0  0  0  0  0
   -0.1298    2.9762    8.6041 C   0  0  0  0  0  0  0  0  0  0  0  0
    0.4145    1.7738    9.1043 N   0  0  0  0  0  4  0  0  0  0  0  0
    1.3211    1.8163   10.1829 C   0  0  0  0  0  0  0  0  0  0  0  0
    1.4331    0.3966   10.7609 C   0  0  0  0  0  0  0  0  0  0  0  0
    0.9905    2.7516   11.2936 C   0  0  0  0  0  0  0  0  0  0  0  0
  2  1  1  6
  2  3  1  0
  3  4  2  0
  4  5  1  0
  5  6  2  0
  6  7  1  0
  7  8  2  0
  7  9  1  0
  6 10  1  0
  2 11  1  0
 11 12  1  0
 12 13  1  0
 13 14  1  0
 13 15  1  0
  8  3  1  0
M  CHG  1  12   1
M  END
$$$$
