
     RDKit          3D

 15 15  0  0  0  0  0  0  0  0999 V2000
   -0.3547    2.2499    6.2905 O   0  0  0  0  0  0  0  0  0  0  0  0
   -0.9748    2.8887    7.3622 C   0  0  2  0  0  0  0  0  0  0  0  0
   -1.4803    4.2130    6.8938 C   0  0  0  0  0  0  0  0  0  0  0  0
   -0.9418    4.8253    5.7786 C   0  0  0  0  0  0  0  0  0  0  0  0
   -1.3892    6.0481    5.3232 C   0  0  0  0  0  0  0  0  0  0  0  0
   -2.4046    6.7220    5.9668 C   0  0  0  0  0  0  0  0  0  0  0  0
   -2.9505    6.1219    7.0809 C   0  0  0  0  0  0  0  0  0  0  0  0
   -2.4986    4.8910    7.5375 C   0  0  0  0  0  0  0  0  0  0  0  0
   -3.9722    6.7645    7.7568 O   0  0  0  0  0  0  0  0  0  0  0  0
   -2.8593    7.9631    5.5053 O   0  0  0  0  0  0  0  0  0  0  0  0
    0.0098    3.0505    8.4984 C   0  0  0  0  0  0  0  0  0  0  0  0
    0.6183    1.8620    8.9558 N   0  0  0  0  0  4  0  0  0  0  0  0
    1.0276    1.7631   10.3011 C   0  0  0  0  0  0  0  0  0  0  0  0
    2.1824    2.7541   10.5167 C   0  0  0  0  0  0  0  0  0  0  0  0
    1.4687    0.4187   10.7653 C   0  0  0  0  0  0  0  0  0  0  0  0
  2  1  1  6
  2  3  1  0
  3  4  2  0
  4  5  1  0
  5  6  2  0
  6  7  1  0
  7  8  2  0
  7  9  1  0
  6 10  1  0
  2 11  1  0
 11 12  1  0
 12 13  1  0
 13 14  1  0
 13 15  1  0
  8  3  1  0
M  CHG  1  12   1
M  END
$$$$
