
     RDKit          3D

 15 15  0  0  0  0  0  0  0  0999 V2000
   -0.5316    2.1034    6.1989 O   0  0  0  0  0  0  0  0  0  0  0  0
   -1.2974    2.6805    7.2095 C   0  0  2  0  0  0  0  0  0  0  0  0
   -1.8021    3.9992    6.7246 C   0  0  0  0  0  0  0  0  0  0  0  0
   -1.2942    4.5760    5.5766 C   0  0  0  0  0  0  0  0  0  0  0  0
   -1.7415    5.7927    5.1053 C   0  0  0  0  0  0  0  0  0  0  0  0
   -2.7263    6.4960    5.7652 C   0  0  0  0  0  0  0  0  0  0  0  0
   -3.2415    5.9314    6.9120 C   0  0  0  0  0  0  0  0  0  0  0  0
   -2.7896    4.7065    7.3845 C   0  0  0  0  0  0  0  0  0  0  0  0
   -4.2317    6.6043    7.6050 O   0  0  0  0  0  0  0  0  0  0  0  0
   -3.1809    7.7310    5.2875 O   0  0  0  0  0  0  0  0  0  0  0  0
   -0.4577    2.8420    8.4566 C   0  0  0  0  0  0  0  0  0  0  0  0
    0.1248    1.6592    8.9605 N   0  0  0  0  0  4  0  0  0  0  0  0
    0.6723    1.6521   10.2595 C   0  0  0  0  0  0  0  0  0  0  0  0
    1.9745    2.4676   10.2268 C   0  0  0  0  0  0  0  0  0  0  0  0
    0.9680    0.3172   10.8496 C   0  0  0  0  0  0  0  0  0  0  0  0
  2  1  1  6
  2  3  1  0
  3  4  2  0
  4  5  1  0
  5  6  2  0
  6  7  1  0
  7  8  2  0
  7  9  1  0
  6 10  1  0
  2 11  1  0
 11 12  1  0
 12 13  1  0
 13 14  1  0
 13 15  1  0
  8  3  1  0
M  CHG  1  12   1
M  END
$$$$
