
     RDKit          3D

 15 15  0  0  0  0  0  0  0  0999 V2000
   -0.5305    2.0484    5.8922 O   0  0  0  0  0  0  0  0  0  0  0  0
   -1.1708    2.6495    6.9738 C   0  0  2  0  0  0  0  0  0  0  0  0
   -1.6877    3.9800    6.5364 C   0  0  0  0  0  0  0  0  0  0  0  0
   -1.1771    4.6075    5.4165 C   0  0  0  0  0  0  0  0  0  0  0  0
   -1.6355    5.8363    4.9891 C   0  0  0  0  0  0  0  0  0  0  0  0
   -2.6345    6.5012    5.6670 C   0  0  0  0  0  0  0  0  0  0  0  0
   -3.1525    5.8858    6.7862 C   0  0  0  0  0  0  0  0  0  0  0  0
   -2.6895    4.6489    7.2144 C   0  0  0  0  0  0  0  0  0  0  0  0
   -4.1569    6.5190    7.4960 O   0  0  0  0  0  0  0  0  0  0  0  0
   -3.1003    7.7484    5.2339 O   0  0  0  0  0  0  0  0  0  0  0  0
   -0.2014    2.7918    8.1255 C   0  0  0  0  0  0  0  0  0  0  0  0
    0.2740    1.5836    8.6791 N   0  0  0  0  0  4  0  0  0  0  0  0
    0.8544    1.5879    9.9637 C   0  0  0  0  0  0  0  0  0  0  0  0
    2.1851    2.3518    9.8774 C   0  0  0  0  0  0  0  0  0  0  0  0
    1.1148    0.2577   10.5806 C   0  0  0  0  0  0  0  0  0  0  0  0
  2  1  1  6
  2  3  1  0
  3  4  2  0
  4  5  1  0
  5  6  2  0
  6  7  1  0
  7  8  2  0
  7  9  1  0
  6 10  1  0
  2 11  1  0
 11 12  1  0
 12 13  1  0
 13 14  1  0
 13 15  1  0
  8  3  1  0
M  CHG  1  12   1
M  END
$$$$
