
     RDKit          3D

 15 15  0  0  0  0  0  0  0  0999 V2000
    0.7032    4.2067    8.5084 O   0  0  0  0  0  0  0  0  0  0  0  0
   -0.1901    3.4435    7.7597 C   0  0  2  0  0  0  0  0  0  0  0  0
   -1.2552    4.3465    7.2315 C   0  0  0  0  0  0  0  0  0  0  0  0
   -1.4425    4.5053    5.8720 C   0  0  0  0  0  0  0  0  0  0  0  0
   -2.4183    5.3325    5.3560 C   0  0  0  0  0  0  0  0  0  0  0  0
   -3.2600    6.0459    6.1820 C   0  0  0  0  0  0  0  0  0  0  0  0
   -3.0835    5.8963    7.5407 C   0  0  0  0  0  0  0  0  0  0  0  0
   -2.1005    5.0631    8.0577 C   0  0  0  0  0  0  0  0  0  0  0  0
   -3.9072    6.5944    8.4054 O   0  0  0  0  0  0  0  0  0  0  0  0
   -4.2507    6.8856    5.6591 O   0  0  0  0  0  0  0  0  0  0  0  0
   -0.7787    2.3523    8.6253 C   0  0  0  0  0  0  0  0  0  0  0  0
    0.1445    1.4256    9.1552 N   0  0  0  0  0  4  0  0  0  0  0  0
   -0.3262    0.3094    9.8761 C   0  0  0  0  0  0  0  0  0  0  0  0
   -0.5876    0.7583   11.3226 C   0  0  0  0  0  0  0  0  0  0  0  0
    0.5623   -0.8853    9.9077 C   0  0  0  0  0  0  0  0  0  0  0  0
  2  1  1  1
  2  3  1  0
  3  4  2  0
  4  5  1  0
  5  6  2  0
  6  7  1  0
  7  8  2  0
  7  9  1  0
  6 10  1  0
  2 11  1  0
 11 12  1  0
 12 13  1  0
 13 14  1  0
 13 15  1  0
  8  3  1  0
M  CHG  1  12   1
M  END
$$$$
