
     RDKit          3D

 25 28  0  0  0  0  0  0  0  0999 V2000
    2.1310    0.3080    6.2180 C   0  0  0  0  0  0  0  0  0  0  0  0
    3.2145   -0.1828    6.9036 C   0  0  0  0  0  0  0  0  0  0  0  0
    3.3448    0.5357    7.9941 O   0  0  0  0  0  0  0  0  0  0  0  0
    2.4273    1.4616    8.0768 C   0  0  0  0  0  0  0  0  0  0  0  0
    1.6364    1.3500    6.9671 C   0  0  0  0  0  0  0  0  0  0  0  0
    2.2710    2.4407    9.1612 C   0  0  0  0  0  0  0  0  0  0  0  0
    3.0328    2.5288   10.2672 N   0  0  0  0  0  0  0  0  0  0  0  0
    2.5853    3.5385   10.9937 N   0  0  0  0  0  0  0  0  0  0  0  0
    2.9372    4.1127   12.1810 C   0  0  0  0  0  0  0  0  0  0  0  0
    2.2954    5.1685   12.7018 N   0  0  0  0  0  0  0  0  0  0  0  0
    1.2602    5.7101   12.0565 C   0  0  0  0  0  0  0  0  0  0  0  0
    0.8829    5.1691   10.8801 N   0  0  0  0  0  0  0  0  0  0  0  0
    1.5374    4.1211   10.3860 C   0  0  0  0  0  0  0  0  0  0  0  0
    1.3649    3.4072    9.2360 N   0  0  0  0  0  0  0  0  0  0  0  0
    0.5809    6.8395   12.5881 N   0  0  0  0  0  0  0  0  0  0  0  0
    0.9562    7.5866   13.7405 C   0  0  0  0  0  0  0  0  0  0  0  0
    2.1802    8.4248   13.6508 C   0  0  0  0  0  0  0  0  0  0  0  0
    2.8348    8.6351   14.9747 C   0  0  0  0  0  0  0  0  0  0  0  0
    4.0594    8.0631   15.2851 C   0  0  0  0  0  0  0  0  0  0  0  0
    4.7020    8.2308   16.4875 C   0  0  0  0  0  0  0  0  0  0  0  0
    4.1097    9.0208   17.4808 C   0  0  0  0  0  0  0  0  0  0  0  0
    2.9006    9.5894   17.1820 C   0  0  0  0  0  0  0  0  0  0  0  0
    2.2729    9.4056   15.9592 C   0  0  0  0  0  0  0  0  0  0  0  0
    4.7754    9.1732   18.6805 O   0  0  0  0  0  0  0  0  0  0  0  0
    4.0447    3.5740   12.8953 N   0  0  0  0  0  0  0  0  0  0  0  0
  1  2  2  0
  2  3  1  0
  3  4  1  0
  4  5  2  0
  4  6  1  0
  6  7  2  0
  7  8  1  0
  8  9  1  0
  9 10  2  0
 10 11  1  0
 11 12  2  0
 12 13  1  0
 13 14  2  0
 11 15  1  0
 15 16  1  0
 16 17  1  0
 17 18  1  0
 18 19  2  0
 19 20  1  0
 20 21  2  0
 21 22  1  0
 22 23  2  0
 21 24  1  0
  9 25  1  0
  5  1  1  0
 14  6  1  0
 13  8  1  0
 23 18  1  0
M  END
$$$$
