
     RDKit          3D

 25 28  0  0  0  0  0  0  0  0999 V2000
    3.2086    0.5545    6.6580 C   0  0  0  0  0  0  0  0  0  0  0  0
    2.1008    1.1125    6.0695 C   0  0  0  0  0  0  0  0  0  0  0  0
    1.5881    1.9618    6.9288 O   0  0  0  0  0  0  0  0  0  0  0  0
    2.2767    2.0040    8.0379 C   0  0  0  0  0  0  0  0  0  0  0  0
    3.3147    1.1240    7.9054 C   0  0  0  0  0  0  0  0  0  0  0  0
    1.9919    2.8426    9.2103 C   0  0  0  0  0  0  0  0  0  0  0  0
    2.7284    2.9121   10.3347 N   0  0  0  0  0  0  0  0  0  0  0  0
    2.1535    3.7811   11.1481 N   0  0  0  0  0  0  0  0  0  0  0  0
    2.4223    4.2719   12.3932 C   0  0  0  0  0  0  0  0  0  0  0  0
    1.6506    5.1834   13.0027 N   0  0  0  0  0  0  0  0  0  0  0  0
    0.5612    5.6559   12.3934 C   0  0  0  0  0  0  0  0  0  0  0  0
    0.2629    5.1937   11.1620 N   0  0  0  0  0  0  0  0  0  0  0  0
    1.0462    4.2888   10.5801 C   0  0  0  0  0  0  0  0  0  0  0  0
    0.9723    3.6783    9.3620 N   0  0  0  0  0  0  0  0  0  0  0  0
   -0.2571    6.6343   13.0201 N   0  0  0  0  0  0  0  0  0  0  0  0
   -0.3538    8.0095   12.6640 C   0  0  0  0  0  0  0  0  0  0  0  0
   -0.5430    8.9944   13.7608 C   0  0  0  0  0  0  0  0  0  0  0  0
    0.5294   10.0307   13.7980 C   0  0  0  0  0  0  0  0  0  0  0  0
    1.5343   10.0792   12.8435 C   0  0  0  0  0  0  0  0  0  0  0  0
    2.5395   11.0154   12.8343 C   0  0  0  0  0  0  0  0  0  0  0  0
    2.5798   11.9927   13.8367 C   0  0  0  0  0  0  0  0  0  0  0  0
    1.5911   11.9518   14.7828 C   0  0  0  0  0  0  0  0  0  0  0  0
    0.5860   10.9965   14.7691 C   0  0  0  0  0  0  0  0  0  0  0  0
    3.6003   12.9217   13.8054 O   0  0  0  0  0  0  0  0  0  0  0  0
    3.5826    3.8041   13.0728 N   0  0  0  0  0  0  0  0  0  0  0  0
  1  2  2  0
  2  3  1  0
  3  4  1  0
  4  5  2  0
  4  6  1  0
  6  7  2  0
  7  8  1  0
  8  9  1  0
  9 10  2  0
 10 11  1  0
 11 12  2  0
 12 13  1  0
 13 14  2  0
 11 15  1  0
 15 16  1  0
 16 17  1  0
 17 18  1  0
 18 19  2  0
 19 20  1  0
 20 21  2  0
 21 22  1  0
 22 23  2  0
 21 24  1  0
  9 25  1  0
  5  1  1  0
 14  6  1  0
 13  8  1  0
 23 18  1  0
M  END
$$$$
