
     RDKit          3D

 25 28  0  0  0  0  0  0  0  0999 V2000
    1.5890    0.4805    6.1776 C   0  0  0  0  0  0  0  0  0  0  0  0
    2.7960    0.0573    6.6767 C   0  0  0  0  0  0  0  0  0  0  0  0
    3.0561    0.7839    7.7383 O   0  0  0  0  0  0  0  0  0  0  0  0
    2.1098    1.6526    7.9745 C   0  0  0  0  0  0  0  0  0  0  0  0
    1.1593    1.4917    7.0049 C   0  0  0  0  0  0  0  0  0  0  0  0
    2.0709    2.6220    9.0780 C   0  0  0  0  0  0  0  0  0  0  0  0
    2.8795    2.6332   10.1538 N   0  0  0  0  0  0  0  0  0  0  0  0
    2.5389    3.6612   10.9118 N   0  0  0  0  0  0  0  0  0  0  0  0
    2.9794    4.1867   12.0922 C   0  0  0  0  0  0  0  0  0  0  0  0
    2.4409    5.2790   12.6531 N   0  0  0  0  0  0  0  0  0  0  0  0
    1.4258    5.9085   12.0574 C   0  0  0  0  0  0  0  0  0  0  0  0
    0.9630    5.4179   10.8895 N   0  0  0  0  0  0  0  0  0  0  0  0
    1.5159    4.3319   10.3548 C   0  0  0  0  0  0  0  0  0  0  0  0
    1.2448    3.6530    9.2026 N   0  0  0  0  0  0  0  0  0  0  0  0
    0.8559    7.0768   12.6316 N   0  0  0  0  0  0  0  0  0  0  0  0
    1.2574    7.7048   13.8447 C   0  0  0  0  0  0  0  0  0  0  0  0
    2.6220    8.2910   13.8991 C   0  0  0  0  0  0  0  0  0  0  0  0
    3.0148    8.7135   15.2749 C   0  0  0  0  0  0  0  0  0  0  0  0
    2.4641    8.1292   16.4056 C   0  0  0  0  0  0  0  0  0  0  0  0
    2.7965    8.4817   17.6910 C   0  0  0  0  0  0  0  0  0  0  0  0
    3.7451    9.4895   17.9054 C   0  0  0  0  0  0  0  0  0  0  0  0
    4.2938   10.0713   16.7942 C   0  0  0  0  0  0  0  0  0  0  0  0
    3.9420    9.6962   15.5063 C   0  0  0  0  0  0  0  0  0  0  0  0
    4.0614    9.8256   19.2064 O   0  0  0  0  0  0  0  0  0  0  0  0
    4.0694    3.5534   12.7539 N   0  0  0  0  0  0  0  0  0  0  0  0
  1  2  2  0
  2  3  1  0
  3  4  1  0
  4  5  2  0
  4  6  1  0
  6  7  2  0
  7  8  1  0
  8  9  1  0
  9 10  2  0
 10 11  1  0
 11 12  2  0
 12 13  1  0
 13 14  2  0
 11 15  1  0
 15 16  1  0
 16 17  1  0
 17 18  1  0
 18 19  2  0
 19 20  1  0
 20 21  2  0
 21 22  1  0
 22 23  2  0
 21 24  1  0
  9 25  1  0
  5  1  1  0
 14  6  1  0
 13  8  1  0
 23 18  1  0
M  END
$$$$
