
     RDKit          3D

 25 28  0  0  0  0  0  0  0  0999 V2000
    6.5945    4.5279   14.7503 C   0  0  0  0  0  0  0  0  0  0  0  0
    6.6240    3.5165   13.8223 C   0  0  0  0  0  0  0  0  0  0  0  0
    5.5138    3.5925   13.1265 O   0  0  0  0  0  0  0  0  0  0  0  0
    4.7572    4.5788   13.5275 C   0  0  0  0  0  0  0  0  0  0  0  0
    5.4088    5.1977   14.5579 C   0  0  0  0  0  0  0  0  0  0  0  0
    3.4495    4.9562   12.9738 C   0  0  0  0  0  0  0  0  0  0  0  0
    2.7176    6.0291   13.3267 N   0  0  0  0  0  0  0  0  0  0  0  0
    1.6132    6.0287   12.6003 N   0  0  0  0  0  0  0  0  0  0  0  0
    0.5174    6.8361   12.4972 C   0  0  0  0  0  0  0  0  0  0  0  0
   -0.4884    6.5990   11.6428 N   0  0  0  0  0  0  0  0  0  0  0  0
   -0.4500    5.5336   10.8398 C   0  0  0  0  0  0  0  0  0  0  0  0
    0.6171    4.7121   10.9138 N   0  0  0  0  0  0  0  0  0  0  0  0
    1.6016    4.9710   11.7710 C   0  0  0  0  0  0  0  0  0  0  0  0
    2.7703    4.3163   12.0304 N   0  0  0  0  0  0  0  0  0  0  0  0
   -1.5007    5.2785    9.9176 N   0  0  0  0  0  0  0  0  0  0  0  0
   -1.4930    4.3100    8.8740 C   0  0  0  0  0  0  0  0  0  0  0  0
   -0.9555    4.7247    7.5519 C   0  0  0  0  0  0  0  0  0  0  0  0
   -0.1142    3.6709    6.9139 C   0  0  0  0  0  0  0  0  0  0  0  0
    0.9977    3.9861    6.1473 C   0  0  0  0  0  0  0  0  0  0  0  0
    1.8038    3.0518    5.5439 C   0  0  0  0  0  0  0  0  0  0  0  0
    1.5106    1.6903    5.6923 C   0  0  0  0  0  0  0  0  0  0  0  0
    0.4146    1.3707    6.4479 C   0  0  0  0  0  0  0  0  0  0  0  0
   -0.3829    2.3335    7.0481 C   0  0  0  0  0  0  0  0  0  0  0  0
    2.3357    0.7713    5.0756 O   0  0  0  0  0  0  0  0  0  0  0  0
    0.4430    7.9910   13.3265 N   0  0  0  0  0  0  0  0  0  0  0  0
  1  2  2  0
  2  3  1  0
  3  4  1  0
  4  5  2  0
  4  6  1  0
  6  7  2  0
  7  8  1  0
  8  9  1  0
  9 10  2  0
 10 11  1  0
 11 12  2  0
 12 13  1  0
 13 14  2  0
 11 15  1  0
 15 16  1  0
 16 17  1  0
 17 18  1  0
 18 19  2  0
 19 20  1  0
 20 21  2  0
 21 22  1  0
 22 23  2  0
 21 24  1  0
  9 25  1  0
  5  1  1  0
 14  6  1  0
 13  8  1  0
 23 18  1  0
M  END
$$$$
