
     RDKit          3D

 25 28  0  0  0  0  0  0  0  0999 V2000
    1.9538    0.4269    6.3464 C   0  0  0  0  0  0  0  0  0  0  0  0
    3.1580    0.0785    6.9064 C   0  0  0  0  0  0  0  0  0  0  0  0
    3.3315    0.8373    7.9631 O   0  0  0  0  0  0  0  0  0  0  0  0
    2.3308    1.6580    8.1398 C   0  0  0  0  0  0  0  0  0  0  0  0
    1.4345    1.4284    7.1331 C   0  0  0  0  0  0  0  0  0  0  0  0
    2.1913    2.6438    9.2204 C   0  0  0  0  0  0  0  0  0  0  0  0
    2.9879    2.7574   10.2992 N   0  0  0  0  0  0  0  0  0  0  0  0
    2.5447    3.7646   11.0316 N   0  0  0  0  0  0  0  0  0  0  0  0
    2.9246    4.3568   12.2014 C   0  0  0  0  0  0  0  0  0  0  0  0
    2.2795    5.4044   12.7345 N   0  0  0  0  0  0  0  0  0  0  0  0
    1.2124    5.9192   12.1199 C   0  0  0  0  0  0  0  0  0  0  0  0
    0.8068    5.3599   10.9616 N   0  0  0  0  0  0  0  0  0  0  0  0
    1.4654    4.3205   10.4547 C   0  0  0  0  0  0  0  0  0  0  0  0
    1.2688    3.5927    9.3174 N   0  0  0  0  0  0  0  0  0  0  0  0
    0.5286    7.0397   12.6643 N   0  0  0  0  0  0  0  0  0  0  0  0
    0.9483    7.8299   13.7718 C   0  0  0  0  0  0  0  0  0  0  0  0
    2.2931    8.4587   13.7004 C   0  0  0  0  0  0  0  0  0  0  0  0
    2.8531    8.7795   15.0454 C   0  0  0  0  0  0  0  0  0  0  0  0
    2.0769    9.3456   16.0457 C   0  0  0  0  0  0  0  0  0  0  0  0
    2.5465    9.6549   17.2989 C   0  0  0  0  0  0  0  0  0  0  0  0
    3.8858    9.3957   17.6160 C   0  0  0  0  0  0  0  0  0  0  0  0
    4.6587    8.8367   16.6340 C   0  0  0  0  0  0  0  0  0  0  0  0
    4.1600    8.5324   15.3763 C   0  0  0  0  0  0  0  0  0  0  0  0
    4.3332    9.7161   18.8821 O   0  0  0  0  0  0  0  0  0  0  0  0
    4.0662    3.8469   12.8825 N   0  0  0  0  0  0  0  0  0  0  0  0
  1  2  2  0
  2  3  1  0
  3  4  1  0
  4  5  2  0
  4  6  1  0
  6  7  2  0
  7  8  1  0
  8  9  1  0
  9 10  2  0
 10 11  1  0
 11 12  2  0
 12 13  1  0
 13 14  2  0
 11 15  1  0
 15 16  1  0
 16 17  1  0
 17 18  1  0
 18 19  2  0
 19 20  1  0
 20 21  2  0
 21 22  1  0
 22 23  2  0
 21 24  1  0
  9 25  1  0
  5  1  1  0
 14  6  1  0
 13  8  1  0
 23 18  1  0
M  END
$$$$
