
     RDKit          3D

 25 28  0  0  0  0  0  0  0  0999 V2000
    1.5313    0.7377    6.2892 C   0  0  0  0  0  0  0  0  0  0  0  0
    2.7802    0.3491    6.7065 C   0  0  0  0  0  0  0  0  0  0  0  0
    3.0748    1.0587    7.7706 O   0  0  0  0  0  0  0  0  0  0  0  0
    2.1124    1.8842    8.0841 C   0  0  0  0  0  0  0  0  0  0  0  0
    1.1134    1.7108    7.1668 C   0  0  0  0  0  0  0  0  0  0  0  0
    2.1022    2.8237    9.2138 C   0  0  0  0  0  0  0  0  0  0  0  0
    3.0532    2.9390   10.1592 N   0  0  0  0  0  0  0  0  0  0  0  0
    2.6876    3.8969   10.9935 N   0  0  0  0  0  0  0  0  0  0  0  0
    3.2210    4.4661   12.1137 C   0  0  0  0  0  0  0  0  0  0  0  0
    2.6231    5.4613   12.7844 N   0  0  0  0  0  0  0  0  0  0  0  0
    1.4511    5.9437   12.3659 C   0  0  0  0  0  0  0  0  0  0  0  0
    0.8927    5.4056   11.2624 N   0  0  0  0  0  0  0  0  0  0  0  0
    1.5078    4.4185   10.6157 C   0  0  0  0  0  0  0  0  0  0  0  0
    1.1662    3.7218    9.4933 N   0  0  0  0  0  0  0  0  0  0  0  0
    0.8136    7.0094   13.0569 N   0  0  0  0  0  0  0  0  0  0  0  0
    1.4538    8.0142   13.8364 C   0  0  0  0  0  0  0  0  0  0  0  0
    2.5541    7.5892   14.7405 C   0  0  0  0  0  0  0  0  0  0  0  0
    2.8258    8.5777   15.8244 C   0  0  0  0  0  0  0  0  0  0  0  0
    2.7247    8.2398   17.1656 C   0  0  0  0  0  0  0  0  0  0  0  0
    2.9682    9.1133   18.1975 C   0  0  0  0  0  0  0  0  0  0  0  0
    3.3420   10.4320   17.9099 C   0  0  0  0  0  0  0  0  0  0  0  0
    3.4443   10.7735   16.5880 C   0  0  0  0  0  0  0  0  0  0  0  0
    3.1942    9.8720   15.5643 C   0  0  0  0  0  0  0  0  0  0  0  0
    3.5806   11.2903   18.9645 O   0  0  0  0  0  0  0  0  0  0  0  0
    4.4767    3.9900   12.5865 N   0  0  0  0  0  0  0  0  0  0  0  0
  1  2  2  0
  2  3  1  0
  3  4  1  0
  4  5  2  0
  4  6  1  0
  6  7  2  0
  7  8  1  0
  8  9  1  0
  9 10  2  0
 10 11  1  0
 11 12  2  0
 12 13  1  0
 13 14  2  0
 11 15  1  0
 15 16  1  0
 16 17  1  0
 17 18  1  0
 18 19  2  0
 19 20  1  0
 20 21  2  0
 21 22  1  0
 22 23  2  0
 21 24  1  0
  9 25  1  0
  5  1  1  0
 14  6  1  0
 13  8  1  0
 23 18  1  0
M  END
$$$$
