
     RDKit          3D

 25 28  0  0  0  0  0  0  0  0999 V2000
    3.5155   -0.3050    8.5807 C   0  0  0  0  0  0  0  0  0  0  0  0
    2.9465   -0.0926    7.3493 C   0  0  0  0  0  0  0  0  0  0  0  0
    2.2239    0.9995    7.4361 O   0  0  0  0  0  0  0  0  0  0  0  0
    2.2760    1.5212    8.6324 C   0  0  0  0  0  0  0  0  0  0  0  0
    3.0866    0.7216    9.3893 C   0  0  0  0  0  0  0  0  0  0  0  0
    1.5930    2.7417    9.0825 C   0  0  0  0  0  0  0  0  0  0  0  0
    0.7765    3.5138    8.3417 N   0  0  0  0  0  0  0  0  0  0  0  0
    0.3541    4.5100    9.1010 N   0  0  0  0  0  0  0  0  0  0  0  0
   -0.4739    5.5812    8.9270 C   0  0  0  0  0  0  0  0  0  0  0  0
   -0.7444    6.4627    9.9006 N   0  0  0  0  0  0  0  0  0  0  0  0
   -0.1971    6.3170   11.1091 C   0  0  0  0  0  0  0  0  0  0  0  0
    0.6272    5.2703   11.3185 N   0  0  0  0  0  0  0  0  0  0  0  0
    0.8787    4.4104   10.3345 C   0  0  0  0  0  0  0  0  0  0  0  0
    1.6533    3.2879   10.2904 N   0  0  0  0  0  0  0  0  0  0  0  0
   -0.4876    7.2337   12.1554 N   0  0  0  0  0  0  0  0  0  0  0  0
    0.1103    7.2592   13.4473 C   0  0  0  0  0  0  0  0  0  0  0  0
    1.2624    8.1745   13.6563 C   0  0  0  0  0  0  0  0  0  0  0  0
    2.5161    7.4519   14.0191 C   0  0  0  0  0  0  0  0  0  0  0  0
    3.0985    7.5794   15.2713 C   0  0  0  0  0  0  0  0  0  0  0  0
    4.2487    6.9322   15.6521 C   0  0  0  0  0  0  0  0  0  0  0  0
    4.8963    6.0862   14.7430 C   0  0  0  0  0  0  0  0  0  0  0  0
    4.3275    5.9547   13.5047 C   0  0  0  0  0  0  0  0  0  0  0  0
    3.1642    6.6185   13.1450 C   0  0  0  0  0  0  0  0  0  0  0  0
    6.0507    5.4479   15.1499 O   0  0  0  0  0  0  0  0  0  0  0  0
   -1.0892    5.7661    7.6565 N   0  0  0  0  0  0  0  0  0  0  0  0
  1  2  2  0
  2  3  1  0
  3  4  1  0
  4  5  2  0
  4  6  1  0
  6  7  2  0
  7  8  1  0
  8  9  1  0
  9 10  2  0
 10 11  1  0
 11 12  2  0
 12 13  1  0
 13 14  2  0
 11 15  1  0
 15 16  1  0
 16 17  1  0
 17 18  1  0
 18 19  2  0
 19 20  1  0
 20 21  2  0
 21 22  1  0
 22 23  2  0
 21 24  1  0
  9 25  1  0
  5  1  1  0
 14  6  1  0
 13  8  1  0
 23 18  1  0
M  END
$$$$
