
     RDKit          3D

 25 28  0  0  0  0  0  0  0  0999 V2000
    1.5739    0.3110    6.3793 C   0  0  0  0  0  0  0  0  0  0  0  0
    2.7276   -0.1261    6.9817 C   0  0  0  0  0  0  0  0  0  0  0  0
    2.9278    0.6290    8.0363 O   0  0  0  0  0  0  0  0  0  0  0  0
    1.9914    1.5293    8.1724 C   0  0  0  0  0  0  0  0  0  0  0  0
    1.1120    1.3603    7.1391 C   0  0  0  0  0  0  0  0  0  0  0  0
    1.8973    2.5360    9.2385 C   0  0  0  0  0  0  0  0  0  0  0  0
    2.6657    2.5984   10.3417 N   0  0  0  0  0  0  0  0  0  0  0  0
    2.2819    3.6467   11.0497 N   0  0  0  0  0  0  0  0  0  0  0  0
    2.6708    4.2205   12.2256 C   0  0  0  0  0  0  0  0  0  0  0  0
    2.0954    5.3227   12.7274 N   0  0  0  0  0  0  0  0  0  0  0  0
    1.0933    5.9140   12.0735 C   0  0  0  0  0  0  0  0  0  0  0  0
    0.6811    5.3751   10.9079 N   0  0  0  0  0  0  0  0  0  0  0  0
    1.2698    4.2803   10.4326 C   0  0  0  0  0  0  0  0  0  0  0  0
    1.0515    3.5570    9.2964 N   0  0  0  0  0  0  0  0  0  0  0  0
    0.4849    7.0922   12.5846 N   0  0  0  0  0  0  0  0  0  0  0  0
    0.9174    7.8459   13.7125 C   0  0  0  0  0  0  0  0  0  0  0  0
    2.3045    8.3792   13.6949 C   0  0  0  0  0  0  0  0  0  0  0  0
    2.8464    8.6251   15.0629 C   0  0  0  0  0  0  0  0  0  0  0  0
    4.1742    8.9649   15.2744 C   0  0  0  0  0  0  0  0  0  0  0  0
    4.7172    9.2040   16.5133 C   0  0  0  0  0  0  0  0  0  0  0  0
    3.9067    9.1057   17.6512 C   0  0  0  0  0  0  0  0  0  0  0  0
    2.5944    8.7708   17.4509 C   0  0  0  0  0  0  0  0  0  0  0  0
    2.0700    8.5356   16.1889 C   0  0  0  0  0  0  0  0  0  0  0  0
    4.4764    9.3503   18.8846 O   0  0  0  0  0  0  0  0  0  0  0  0
    3.7453    3.6290   12.9485 N   0  0  0  0  0  0  0  0  0  0  0  0
  1  2  2  0
  2  3  1  0
  3  4  1  0
  4  5  2  0
  4  6  1  0
  6  7  2  0
  7  8  1  0
  8  9  1  0
  9 10  2  0
 10 11  1  0
 11 12  2  0
 12 13  1  0
 13 14  2  0
 11 15  1  0
 15 16  1  0
 16 17  1  0
 17 18  1  0
 18 19  2  0
 19 20  1  0
 20 21  2  0
 21 22  1  0
 22 23  2  0
 21 24  1  0
  9 25  1  0
  5  1  1  0
 14  6  1  0
 13  8  1  0
 23 18  1  0
M  END
$$$$
