
     RDKit          3D

 25 28  0  0  0  0  0  0  0  0999 V2000
    3.8714    0.0048    8.2126 C   0  0  0  0  0  0  0  0  0  0  0  0
    2.7821   -0.2887    7.4302 C   0  0  0  0  0  0  0  0  0  0  0  0
    1.8719    0.6261    7.6689 O   0  0  0  0  0  0  0  0  0  0  0  0
    2.2819    1.4994    8.5495 C   0  0  0  0  0  0  0  0  0  0  0  0
    3.5480    1.1394    8.9194 C   0  0  0  0  0  0  0  0  0  0  0  0
    1.5256    2.6558    9.0491 C   0  0  0  0  0  0  0  0  0  0  0  0
    0.2401    2.9433    8.7726 N   0  0  0  0  0  0  0  0  0  0  0  0
   -0.0782    4.0546    9.4137 N   0  0  0  0  0  0  0  0  0  0  0  0
   -1.2020    4.8205    9.5322 C   0  0  0  0  0  0  0  0  0  0  0  0
   -1.2541    5.9326   10.2794 N   0  0  0  0  0  0  0  0  0  0  0  0
   -0.1764    6.3397   10.9533 C   0  0  0  0  0  0  0  0  0  0  0  0
    0.9531    5.6085   10.8600 N   0  0  0  0  0  0  0  0  0  0  0  0
    0.9773    4.5088   10.1110 C   0  0  0  0  0  0  0  0  0  0  0  0
    1.9701    3.6068    9.8607 N   0  0  0  0  0  0  0  0  0  0  0  0
   -0.2214    7.5071   11.7625 N   0  0  0  0  0  0  0  0  0  0  0  0
    0.7862    7.9485   12.6664 C   0  0  0  0  0  0  0  0  0  0  0  0
    0.7703    7.3898   14.0435 C   0  0  0  0  0  0  0  0  0  0  0  0
    1.9603    7.7966   14.8458 C   0  0  0  0  0  0  0  0  0  0  0  0
    2.9234    8.6581   14.3420 C   0  0  0  0  0  0  0  0  0  0  0  0
    4.0327    9.0636   15.0433 C   0  0  0  0  0  0  0  0  0  0  0  0
    4.2319    8.5952   16.3482 C   0  0  0  0  0  0  0  0  0  0  0  0
    3.2854    7.7445   16.8530 C   0  0  0  0  0  0  0  0  0  0  0  0
    2.1729    7.3511   16.1245 C   0  0  0  0  0  0  0  0  0  0  0  0
    5.3547    9.0171   17.0315 O   0  0  0  0  0  0  0  0  0  0  0  0
   -2.3780    4.4143    8.8401 N   0  0  0  0  0  0  0  0  0  0  0  0
  1  2  2  0
  2  3  1  0
  3  4  1  0
  4  5  2  0
  4  6  1  0
  6  7  2  0
  7  8  1  0
  8  9  1  0
  9 10  2  0
 10 11  1  0
 11 12  2  0
 12 13  1  0
 13 14  2  0
 11 15  1  0
 15 16  1  0
 16 17  1  0
 17 18  1  0
 18 19  2  0
 19 20  1  0
 20 21  2  0
 21 22  1  0
 22 23  2  0
 21 24  1  0
  9 25  1  0
  5  1  1  0
 14  6  1  0
 13  8  1  0
 23 18  1  0
M  END
$$$$
