
     RDKit          3D

 25 28  0  0  0  0  0  0  0  0999 V2000
    1.2461    1.9917    5.9280 C   0  0  0  0  0  0  0  0  0  0  0  0
    2.5242    1.5986    6.2395 C   0  0  0  0  0  0  0  0  0  0  0  0
    2.7976    2.0699    7.4335 O   0  0  0  0  0  0  0  0  0  0  0  0
    1.7944    2.7428    7.9302 C   0  0  0  0  0  0  0  0  0  0  0  0
    0.7891    2.7164    7.0039 C   0  0  0  0  0  0  0  0  0  0  0  0
    1.7513    3.4040    9.2417 C   0  0  0  0  0  0  0  0  0  0  0  0
    2.6957    3.3331   10.1980 N   0  0  0  0  0  0  0  0  0  0  0  0
    2.2976    4.0678   11.2223 N   0  0  0  0  0  0  0  0  0  0  0  0
    2.8097    4.3870   12.4467 C   0  0  0  0  0  0  0  0  0  0  0  0
    2.1786    5.1875   13.3177 N   0  0  0  0  0  0  0  0  0  0  0  0
    0.9930    5.7157   13.0066 C   0  0  0  0  0  0  0  0  0  0  0  0
    0.4549    5.4223   11.8052 N   0  0  0  0  0  0  0  0  0  0  0  0
    1.1027    4.6246   10.9596 C   0  0  0  0  0  0  0  0  0  0  0  0
    0.7864    4.1876    9.7063 N   0  0  0  0  0  0  0  0  0  0  0  0
    0.3200    6.5792   13.9128 N   0  0  0  0  0  0  0  0  0  0  0  0
    0.9130    7.6075   14.6990 C   0  0  0  0  0  0  0  0  0  0  0  0
    1.6899    8.6571   13.9894 C   0  0  0  0  0  0  0  0  0  0  0  0
    2.2959    9.6547   14.9185 C   0  0  0  0  0  0  0  0  0  0  0  0
    2.8690    9.2788   16.1241 C   0  0  0  0  0  0  0  0  0  0  0  0
    3.4416   10.1594   17.0093 C   0  0  0  0  0  0  0  0  0  0  0  0
    3.4625   11.5263   16.7048 C   0  0  0  0  0  0  0  0  0  0  0  0
    2.8989   11.9056   15.5162 C   0  0  0  0  0  0  0  0  0  0  0  0
    2.3280   10.9961   14.6386 C   0  0  0  0  0  0  0  0  0  0  0  0
    4.0433   12.3907   17.6110 O   0  0  0  0  0  0  0  0  0  0  0  0
    4.0786    3.8553   12.8129 N   0  0  0  0  0  0  0  0  0  0  0  0
  1  2  2  0
  2  3  1  0
  3  4  1  0
  4  5  2  0
  4  6  1  0
  6  7  2  0
  7  8  1  0
  8  9  1  0
  9 10  2  0
 10 11  1  0
 11 12  2  0
 12 13  1  0
 13 14  2  0
 11 15  1  0
 15 16  1  0
 16 17  1  0
 17 18  1  0
 18 19  2  0
 19 20  1  0
 20 21  2  0
 21 22  1  0
 22 23  2  0
 21 24  1  0
  9 25  1  0
  5  1  1  0
 14  6  1  0
 13  8  1  0
 23 18  1  0
M  END
$$$$
