
     RDKit          3D

 25 28  0  0  0  0  0  0  0  0999 V2000
    1.4381    0.3734    6.5017 C   0  0  0  0  0  0  0  0  0  0  0  0
    2.6086   -0.0959    7.0446 C   0  0  0  0  0  0  0  0  0  0  0  0
    2.8847    0.6542    8.0855 O   0  0  0  0  0  0  0  0  0  0  0  0
    1.9827    1.5812    8.2677 C   0  0  0  0  0  0  0  0  0  0  0  0
    1.0465    1.4363    7.2818 C   0  0  0  0  0  0  0  0  0  0  0  0
    1.9727    2.5914    9.3346 C   0  0  0  0  0  0  0  0  0  0  0  0
    2.8373    2.6682   10.3633 N   0  0  0  0  0  0  0  0  0  0  0  0
    2.5059    3.7147   11.0998 N   0  0  0  0  0  0  0  0  0  0  0  0
    2.9924    4.2985   12.2337 C   0  0  0  0  0  0  0  0  0  0  0  0
    2.4508    5.3956   12.7821 N   0  0  0  0  0  0  0  0  0  0  0  0
    1.3860    5.9714   12.2199 C   0  0  0  0  0  0  0  0  0  0  0  0
    0.8767    5.4223   11.0983 N   0  0  0  0  0  0  0  0  0  0  0  0
    1.4338    4.3329   10.5751 C   0  0  0  0  0  0  0  0  0  0  0  0
    1.1227    3.6019    9.4657 N   0  0  0  0  0  0  0  0  0  0  0  0
    0.8114    7.1441   12.7803 N   0  0  0  0  0  0  0  0  0  0  0  0
    1.4928    8.1434   13.5316 C   0  0  0  0  0  0  0  0  0  0  0  0
    2.9616    7.9953   13.7037 C   0  0  0  0  0  0  0  0  0  0  0  0
    3.3718    7.9313   15.1366 C   0  0  0  0  0  0  0  0  0  0  0  0
    4.0975    6.8637   15.6435 C   0  0  0  0  0  0  0  0  0  0  0  0
    4.5005    6.7624   16.9528 C   0  0  0  0  0  0  0  0  0  0  0  0
    4.1732    7.7824   17.8551 C   0  0  0  0  0  0  0  0  0  0  0  0
    3.4571    8.8401   17.3624 C   0  0  0  0  0  0  0  0  0  0  0  0
    3.0632    8.9193   16.0351 C   0  0  0  0  0  0  0  0  0  0  0  0
    4.5894    7.6566   19.1653 O   0  0  0  0  0  0  0  0  0  0  0  0
    4.1357    3.7237   12.8579 N   0  0  0  0  0  0  0  0  0  0  0  0
  1  2  2  0
  2  3  1  0
  3  4  1  0
  4  5  2  0
  4  6  1  0
  6  7  2  0
  7  8  1  0
  8  9  1  0
  9 10  2  0
 10 11  1  0
 11 12  2  0
 12 13  1  0
 13 14  2  0
 11 15  1  0
 15 16  1  0
 16 17  1  0
 17 18  1  0
 18 19  2  0
 19 20  1  0
 20 21  2  0
 21 22  1  0
 22 23  2  0
 21 24  1  0
  9 25  1  0
  5  1  1  0
 14  6  1  0
 13  8  1  0
 23 18  1  0
M  END
$$$$
