
     RDKit          3D

 25 28  0  0  0  0  0  0  0  0999 V2000
    3.6026   -0.2247    7.9590 C   0  0  0  0  0  0  0  0  0  0  0  0
    2.5157   -0.2765    7.1218 C   0  0  0  0  0  0  0  0  0  0  0  0
    1.7589    0.7591    7.3999 O   0  0  0  0  0  0  0  0  0  0  0  0
    2.2677    1.4880    8.3569 C   0  0  0  0  0  0  0  0  0  0  0  0
    3.4395    0.8961    8.7391 C   0  0  0  0  0  0  0  0  0  0  0  0
    1.6908    2.7172    8.9182 C   0  0  0  0  0  0  0  0  0  0  0  0
    0.4785    3.2275    8.6330 N   0  0  0  0  0  0  0  0  0  0  0  0
    0.3215    4.3319    9.3423 N   0  0  0  0  0  0  0  0  0  0  0  0
   -0.6677    5.2612    9.4879 C   0  0  0  0  0  0  0  0  0  0  0  0
   -0.5655    6.3161   10.3092 N   0  0  0  0  0  0  0  0  0  0  0  0
    0.5402    6.4977   11.0343 C   0  0  0  0  0  0  0  0  0  0  0  0
    1.5398    5.6000   10.9164 N   0  0  0  0  0  0  0  0  0  0  0  0
    1.4122    4.5619   10.0935 C   0  0  0  0  0  0  0  0  0  0  0  0
    2.2548    3.5285    9.8040 N   0  0  0  0  0  0  0  0  0  0  0  0
    0.6562    7.6019   11.9214 N   0  0  0  0  0  0  0  0  0  0  0  0
    1.6436    7.7737   12.9327 C   0  0  0  0  0  0  0  0  0  0  0  0
    1.4823    7.0019   14.1925 C   0  0  0  0  0  0  0  0  0  0  0  0
    2.5992    7.2276   15.1554 C   0  0  0  0  0  0  0  0  0  0  0  0
    3.9209    7.2957   14.7408 C   0  0  0  0  0  0  0  0  0  0  0  0
    4.9812    7.5052   15.5885 C   0  0  0  0  0  0  0  0  0  0  0  0
    4.7459    7.6622   16.9602 C   0  0  0  0  0  0  0  0  0  0  0  0
    3.4437    7.5965   17.3776 C   0  0  0  0  0  0  0  0  0  0  0  0
    2.3902    7.3852   16.5008 C   0  0  0  0  0  0  0  0  0  0  0  0
    5.8284    7.8710   17.7910 O   0  0  0  0  0  0  0  0  0  0  0  0
   -1.8696    5.0977    8.7425 N   0  0  0  0  0  0  0  0  0  0  0  0
  1  2  2  0
  2  3  1  0
  3  4  1  0
  4  5  2  0
  4  6  1  0
  6  7  2  0
  7  8  1  0
  8  9  1  0
  9 10  2  0
 10 11  1  0
 11 12  2  0
 12 13  1  0
 13 14  2  0
 11 15  1  0
 15 16  1  0
 16 17  1  0
 17 18  1  0
 18 19  2  0
 19 20  1  0
 20 21  2  0
 21 22  1  0
 22 23  2  0
 21 24  1  0
  9 25  1  0
  5  1  1  0
 14  6  1  0
 13  8  1  0
 23 18  1  0
M  END
$$$$
