
     RDKit          3D

 25 28  0  0  0  0  0  0  0  0999 V2000
    1.1236    1.4938    6.6214 C   0  0  0  0  0  0  0  0  0  0  0  0
    2.3900    1.0270    6.8731 C   0  0  0  0  0  0  0  0  0  0  0  0
    2.8119    1.6138    7.9686 O   0  0  0  0  0  0  0  0  0  0  0  0
    1.9171    2.4309    8.4560 C   0  0  0  0  0  0  0  0  0  0  0  0
    0.8297    2.3831    7.6285 C   0  0  0  0  0  0  0  0  0  0  0  0
    2.0512    3.2486    9.6694 C   0  0  0  0  0  0  0  0  0  0  0  0
    3.0703    3.2052   10.5475 N   0  0  0  0  0  0  0  0  0  0  0  0
    2.8320    4.0943   11.4962 N   0  0  0  0  0  0  0  0  0  0  0  0
    3.4799    4.5104   12.6233 C   0  0  0  0  0  0  0  0  0  0  0  0
    3.0018    5.4682   13.4307 N   0  0  0  0  0  0  0  0  0  0  0  0
    1.8416    6.0653   13.1502 C   0  0  0  0  0  0  0  0  0  0  0  0
    1.1722    5.6800   12.0446 N   0  0  0  0  0  0  0  0  0  0  0  0
    1.6695    4.7266   11.2605 C   0  0  0  0  0  0  0  0  0  0  0  0
    1.2031    4.1719   10.1044 N   0  0  0  0  0  0  0  0  0  0  0  0
    1.3307    7.0936   13.9875 N   0  0  0  0  0  0  0  0  0  0  0  0
    0.2660    7.9863   13.6764 C   0  0  0  0  0  0  0  0  0  0  0  0
    0.6191    9.3898   13.3384 C   0  0  0  0  0  0  0  0  0  0  0  0
    0.0074    9.8469   12.0569 C   0  0  0  0  0  0  0  0  0  0  0  0
   -1.3460    9.6932   11.7957 C   0  0  0  0  0  0  0  0  0  0  0  0
   -1.9545   10.1010   10.6337 C   0  0  0  0  0  0  0  0  0  0  0  0
   -1.1884   10.7113    9.6325 C   0  0  0  0  0  0  0  0  0  0  0  0
    0.1485   10.8670    9.8827 C   0  0  0  0  0  0  0  0  0  0  0  0
    0.7388   10.4476   11.0655 C   0  0  0  0  0  0  0  0  0  0  0  0
   -1.8235   11.1116    8.4740 O   0  0  0  0  0  0  0  0  0  0  0  0
    4.7276    3.9085   12.9520 N   0  0  0  0  0  0  0  0  0  0  0  0
  1  2  2  0
  2  3  1  0
  3  4  1  0
  4  5  2  0
  4  6  1  0
  6  7  2  0
  7  8  1  0
  8  9  1  0
  9 10  2  0
 10 11  1  0
 11 12  2  0
 12 13  1  0
 13 14  2  0
 11 15  1  0
 15 16  1  0
 16 17  1  0
 17 18  1  0
 18 19  2  0
 19 20  1  0
 20 21  2  0
 21 22  1  0
 22 23  2  0
 21 24  1  0
  9 25  1  0
  5  1  1  0
 14  6  1  0
 13  8  1  0
 23 18  1  0
M  END
$$$$
