
     RDKit          3D

 25 28  0  0  0  0  0  0  0  0999 V2000
    2.5070    9.3560   16.6905 C   0  0  0  0  0  0  0  0  0  0  0  0
    3.5836    8.5388   16.9317 C   0  0  0  0  0  0  0  0  0  0  0  0
    3.6317    7.6590   15.9591 O   0  0  0  0  0  0  0  0  0  0  0  0
    2.6674    7.8373   15.0963 C   0  0  0  0  0  0  0  0  0  0  0  0
    1.9308    8.9062   15.5256 C   0  0  0  0  0  0  0  0  0  0  0  0
    2.4201    7.0400   13.8871 C   0  0  0  0  0  0  0  0  0  0  0  0
    3.0763    5.9221   13.5252 N   0  0  0  0  0  0  0  0  0  0  0  0
    2.5602    5.4946   12.3858 N   0  0  0  0  0  0  0  0  0  0  0  0
    2.7894    4.4400   11.5500 C   0  0  0  0  0  0  0  0  0  0  0  0
    2.0907    4.2331   10.4244 N   0  0  0  0  0  0  0  0  0  0  0  0
    1.1177    5.0766   10.0736 C   0  0  0  0  0  0  0  0  0  0  0  0
    0.8627    6.1312   10.8747 N   0  0  0  0  0  0  0  0  0  0  0  0
    1.5716    6.3130   11.9862 C   0  0  0  0  0  0  0  0  0  0  0  0
    1.5084    7.2749   12.9519 N   0  0  0  0  0  0  0  0  0  0  0  0
    0.3577    4.8610    8.8923 N   0  0  0  0  0  0  0  0  0  0  0  0
    0.5347    3.8046    7.9543 C   0  0  0  0  0  0  0  0  0  0  0  0
    0.0255    2.4589    8.3267 C   0  0  0  0  0  0  0  0  0  0  0  0
    0.8839    1.3532    7.8109 C   0  0  0  0  0  0  0  0  0  0  0  0
    2.2649    1.3793    7.9355 C   0  0  0  0  0  0  0  0  0  0  0  0
    3.0954    0.3844    7.4802 C   0  0  0  0  0  0  0  0  0  0  0  0
    2.5445   -0.7366    6.8466 C   0  0  0  0  0  0  0  0  0  0  0  0
    1.1818   -0.7701    6.7199 C   0  0  0  0  0  0  0  0  0  0  0  0
    0.3647    0.2472    7.1896 C   0  0  0  0  0  0  0  0  0  0  0  0
    3.4005   -1.7222    6.3977 O   0  0  0  0  0  0  0  0  0  0  0  0
    3.8098    3.5086   11.8941 N   0  0  0  0  0  0  0  0  0  0  0  0
  1  2  2  0
  2  3  1  0
  3  4  1  0
  4  5  2  0
  4  6  1  0
  6  7  2  0
  7  8  1  0
  8  9  1  0
  9 10  2  0
 10 11  1  0
 11 12  2  0
 12 13  1  0
 13 14  2  0
 11 15  1  0
 15 16  1  0
 16 17  1  0
 17 18  1  0
 18 19  2  0
 19 20  1  0
 20 21  2  0
 21 22  1  0
 22 23  2  0
 21 24  1  0
  9 25  1  0
  5  1  1  0
 14  6  1  0
 13  8  1  0
 23 18  1  0
M  END
$$$$
