
     RDKit          3D

 25 28  0  0  0  0  0  0  0  0999 V2000
    0.0803    0.5497    7.5328 C   0  0  0  0  0  0  0  0  0  0  0  0
    1.3414    0.0339    7.7019 C   0  0  0  0  0  0  0  0  0  0  0  0
    1.9869    0.8388    8.5130 O   0  0  0  0  0  0  0  0  0  0  0  0
    1.2440    1.8448    8.8900 C   0  0  0  0  0  0  0  0  0  0  0  0
    0.0250    1.6973    8.2887 C   0  0  0  0  0  0  0  0  0  0  0  0
    1.6417    2.9325    9.7943 C   0  0  0  0  0  0  0  0  0  0  0  0
    2.7285    2.9477   10.5880 N   0  0  0  0  0  0  0  0  0  0  0  0
    2.7443    4.0980   11.2392 N   0  0  0  0  0  0  0  0  0  0  0  0
    3.5701    4.6863   12.1532 C   0  0  0  0  0  0  0  0  0  0  0  0
    3.3469    5.9065   12.6623 N   0  0  0  0  0  0  0  0  0  0  0  0
    2.2778    6.6081   12.2800 C   0  0  0  0  0  0  0  0  0  0  0  0
    1.4384    6.0589   11.3785 N   0  0  0  0  0  0  0  0  0  0  0  0
    1.6836    4.8459   10.8893 C   0  0  0  0  0  0  0  0  0  0  0  0
    1.0098    4.0846    9.9791 N   0  0  0  0  0  0  0  0  0  0  0  0
    2.0372    7.9092   12.7984 N   0  0  0  0  0  0  0  0  0  0  0  0
    1.2899    8.2286   13.9674 C   0  0  0  0  0  0  0  0  0  0  0  0
    1.9189    7.9520   15.2852 C   0  0  0  0  0  0  0  0  0  0  0  0
    1.2072    8.6160   16.4158 C   0  0  0  0  0  0  0  0  0  0  0  0
    0.0958    9.4197   16.2105 C   0  0  0  0  0  0  0  0  0  0  0  0
   -0.5937   10.0480   17.2187 C   0  0  0  0  0  0  0  0  0  0  0  0
   -0.1728    9.8877   18.5449 C   0  0  0  0  0  0  0  0  0  0  0  0
    0.9236    9.0955   18.7561 C   0  0  0  0  0  0  0  0  0  0  0  0
    1.6018    8.4707   17.7204 C   0  0  0  0  0  0  0  0  0  0  0  0
   -0.8823   10.5300   19.5397 O   0  0  0  0  0  0  0  0  0  0  0  0
    4.7294    3.9773   12.5779 N   0  0  0  0  0  0  0  0  0  0  0  0
  1  2  2  0
  2  3  1  0
  3  4  1  0
  4  5  2  0
  4  6  1  0
  6  7  2  0
  7  8  1  0
  8  9  1  0
  9 10  2  0
 10 11  1  0
 11 12  2  0
 12 13  1  0
 13 14  2  0
 11 15  1  0
 15 16  1  0
 16 17  1  0
 17 18  1  0
 18 19  2  0
 19 20  1  0
 20 21  2  0
 21 22  1  0
 22 23  2  0
 21 24  1  0
  9 25  1  0
  5  1  1  0
 14  6  1  0
 13  8  1  0
 23 18  1  0
M  END
$$$$
