
     RDKit          3D

 25 28  0  0  0  0  0  0  0  0999 V2000
    2.5277    0.0197    6.6533 C   0  0  0  0  0  0  0  0  0  0  0  0
    1.4682    0.6892    6.0928 C   0  0  0  0  0  0  0  0  0  0  0  0
    1.1504    1.6686    6.9067 O   0  0  0  0  0  0  0  0  0  0  0  0
    1.9224    1.6931    7.9600 C   0  0  0  0  0  0  0  0  0  0  0  0
    2.8109    0.6612    7.8365 C   0  0  0  0  0  0  0  0  0  0  0  0
    1.8523    2.6520    9.0710 C   0  0  0  0  0  0  0  0  0  0  0  0
    2.6180    2.6422   10.1778 N   0  0  0  0  0  0  0  0  0  0  0  0
    2.2608    3.6671   10.9323 N   0  0  0  0  0  0  0  0  0  0  0  0
    2.6610    4.1753   12.1344 C   0  0  0  0  0  0  0  0  0  0  0  0
    2.1146    5.2690   12.6849 N   0  0  0  0  0  0  0  0  0  0  0  0
    1.1318    5.9174   12.0563 C   0  0  0  0  0  0  0  0  0  0  0  0
    0.7092    5.4443   10.8662 N   0  0  0  0  0  0  0  0  0  0  0  0
    1.2690    4.3564   10.3425 C   0  0  0  0  0  0  0  0  0  0  0  0
    1.0350    3.6924    9.1737 N   0  0  0  0  0  0  0  0  0  0  0  0
    0.5544    7.0874   12.6196 N   0  0  0  0  0  0  0  0  0  0  0  0
    1.0006    7.7735   13.7847 C   0  0  0  0  0  0  0  0  0  0  0  0
    2.4088    8.2483   13.8087 C   0  0  0  0  0  0  0  0  0  0  0  0
    2.8500    8.6795   15.1670 C   0  0  0  0  0  0  0  0  0  0  0  0
    3.2185    9.9891   15.4358 C   0  0  0  0  0  0  0  0  0  0  0  0
    3.6276   10.4335   16.6695 C   0  0  0  0  0  0  0  0  0  0  0  0
    3.6875    9.5332   17.7408 C   0  0  0  0  0  0  0  0  0  0  0  0
    3.3250    8.2383   17.4837 C   0  0  0  0  0  0  0  0  0  0  0  0
    2.9141    7.8149   16.2287 C   0  0  0  0  0  0  0  0  0  0  0  0
    4.1022   10.0045   18.9702 O   0  0  0  0  0  0  0  0  0  0  0  0
    3.7160    3.5215   12.8319 N   0  0  0  0  0  0  0  0  0  0  0  0
  1  2  2  0
  2  3  1  0
  3  4  1  0
  4  5  2  0
  4  6  1  0
  6  7  2  0
  7  8  1  0
  8  9  1  0
  9 10  2  0
 10 11  1  0
 11 12  2  0
 12 13  1  0
 13 14  2  0
 11 15  1  0
 15 16  1  0
 16 17  1  0
 17 18  1  0
 18 19  2  0
 19 20  1  0
 20 21  2  0
 21 22  1  0
 22 23  2  0
 21 24  1  0
  9 25  1  0
  5  1  1  0
 14  6  1  0
 13  8  1  0
 23 18  1  0
M  END
$$$$
