
     RDKit          3D

 25 28  0  0  0  0  0  0  0  0999 V2000
    1.4631   -0.0097    6.7380 C   0  0  0  0  0  0  0  0  0  0  0  0
    2.7342   -0.2904    7.1743 C   0  0  0  0  0  0  0  0  0  0  0  0
    3.0309    0.5874    8.1038 O   0  0  0  0  0  0  0  0  0  0  0  0
    2.0492    1.4236    8.3115 C   0  0  0  0  0  0  0  0  0  0  0  0
    1.0344    1.0776    7.4630 C   0  0  0  0  0  0  0  0  0  0  0  0
    2.0352    2.5298    9.2785 C   0  0  0  0  0  0  0  0  0  0  0  0
    2.9035    2.7104   10.2909 N   0  0  0  0  0  0  0  0  0  0  0  0
    2.5663    3.8189   10.9271 N   0  0  0  0  0  0  0  0  0  0  0  0
    3.0527    4.5110   11.9985 C   0  0  0  0  0  0  0  0  0  0  0  0
    2.5040    5.6505   12.4437 N   0  0  0  0  0  0  0  0  0  0  0  0
    1.4319    6.1620   11.8351 C   0  0  0  0  0  0  0  0  0  0  0  0
    0.9225    5.5054   10.7729 N   0  0  0  0  0  0  0  0  0  0  0  0
    1.4867    4.3761   10.3519 C   0  0  0  0  0  0  0  0  0  0  0  0
    1.1771    3.5412    9.3180 N   0  0  0  0  0  0  0  0  0  0  0  0
    0.8497    7.3776   12.2855 N   0  0  0  0  0  0  0  0  0  0  0  0
    1.2885    8.1689   13.3848 C   0  0  0  0  0  0  0  0  0  0  0  0
    1.0186    7.6576   14.7539 C   0  0  0  0  0  0  0  0  0  0  0  0
    2.0646    8.0612   15.7380 C   0  0  0  0  0  0  0  0  0  0  0  0
    3.1641    8.8210   15.3677 C   0  0  0  0  0  0  0  0  0  0  0  0
    4.1497    9.2194   16.2376 C   0  0  0  0  0  0  0  0  0  0  0  0
    4.0681    8.8511   17.5864 C   0  0  0  0  0  0  0  0  0  0  0  0
    2.9854    8.1012   17.9601 C   0  0  0  0  0  0  0  0  0  0  0  0
    2.0026    7.7127   17.0622 C   0  0  0  0  0  0  0  0  0  0  0  0
    5.0715    9.2636   18.4401 O   0  0  0  0  0  0  0  0  0  0  0  0
    4.2035    4.0070   12.6682 N   0  0  0  0  0  0  0  0  0  0  0  0
  1  2  2  0
  2  3  1  0
  3  4  1  0
  4  5  2  0
  4  6  1  0
  6  7  2  0
  7  8  1  0
  8  9  1  0
  9 10  2  0
 10 11  1  0
 11 12  2  0
 12 13  1  0
 13 14  2  0
 11 15  1  0
 15 16  1  0
 16 17  1  0
 17 18  1  0
 18 19  2  0
 19 20  1  0
 20 21  2  0
 21 22  1  0
 22 23  2  0
 21 24  1  0
  9 25  1  0
  5  1  1  0
 14  6  1  0
 13  8  1  0
 23 18  1  0
M  END
$$$$
