
     RDKit          3D

 25 28  0  0  0  0  0  0  0  0999 V2000
    0.7248    1.5433    6.4497 C   0  0  0  0  0  0  0  0  0  0  0  0
    1.9209    0.8954    6.6356 C   0  0  0  0  0  0  0  0  0  0  0  0
    2.5303    1.4809    7.6397 O   0  0  0  0  0  0  0  0  0  0  0  0
    1.8236    2.4649    8.1281 C   0  0  0  0  0  0  0  0  0  0  0  0
    0.6692    2.5369    7.3991 C   0  0  0  0  0  0  0  0  0  0  0  0
    2.1971    3.3327    9.2534 C   0  0  0  0  0  0  0  0  0  0  0  0
    3.1179    3.0586   10.1960 N   0  0  0  0  0  0  0  0  0  0  0  0
    3.1723    4.0854   11.0266 N   0  0  0  0  0  0  0  0  0  0  0  0
    3.8943    4.3954   12.1429 C   0  0  0  0  0  0  0  0  0  0  0  0
    3.7503    5.5494   12.8103 N   0  0  0  0  0  0  0  0  0  0  0  0
    2.8701    6.4614   12.3922 C   0  0  0  0  0  0  0  0  0  0  0  0
    2.1379    6.1900   11.2926 N   0  0  0  0  0  0  0  0  0  0  0  0
    2.3008    5.0366   10.6491 C   0  0  0  0  0  0  0  0  0  0  0  0
    1.7031    4.5327    9.5308 N   0  0  0  0  0  0  0  0  0  0  0  0
    2.7185    7.6959   13.0797 N   0  0  0  0  0  0  0  0  0  0  0  0
    1.4987    8.3963   13.3003 C   0  0  0  0  0  0  0  0  0  0  0  0
    0.7621    8.1186   14.5609 C   0  0  0  0  0  0  0  0  0  0  0  0
    0.3418    9.3619   15.2704 C   0  0  0  0  0  0  0  0  0  0  0  0
   -0.9852    9.7610   15.3245 C   0  0  0  0  0  0  0  0  0  0  0  0
   -1.4202   10.8940   15.9679 C   0  0  0  0  0  0  0  0  0  0  0  0
   -0.4913   11.7171   16.6169 C   0  0  0  0  0  0  0  0  0  0  0  0
    0.8210   11.3299   16.5683 C   0  0  0  0  0  0  0  0  0  0  0  0
    1.2345   10.1799   15.9129 C   0  0  0  0  0  0  0  0  0  0  0  0
   -0.9537   12.8502   17.2557 O   0  0  0  0  0  0  0  0  0  0  0  0
    4.8539    3.4556   12.6150 N   0  0  0  0  0  0  0  0  0  0  0  0
  1  2  2  0
  2  3  1  0
  3  4  1  0
  4  5  2  0
  4  6  1  0
  6  7  2  0
  7  8  1  0
  8  9  1  0
  9 10  2  0
 10 11  1  0
 11 12  2  0
 12 13  1  0
 13 14  2  0
 11 15  1  0
 15 16  1  0
 16 17  1  0
 17 18  1  0
 18 19  2  0
 19 20  1  0
 20 21  2  0
 21 22  1  0
 22 23  2  0
 21 24  1  0
  9 25  1  0
  5  1  1  0
 14  6  1  0
 13  8  1  0
 23 18  1  0
M  END
$$$$
