
     RDKit          3D

 25 28  0  0  0  0  0  0  0  0999 V2000
    1.7765    0.3029    6.5946 C   0  0  0  0  0  0  0  0  0  0  0  0
    2.9795   -0.0316    7.1653 C   0  0  0  0  0  0  0  0  0  0  0  0
    3.1397    0.7364    8.2174 O   0  0  0  0  0  0  0  0  0  0  0  0
    2.1312    1.5503    8.3812 C   0  0  0  0  0  0  0  0  0  0  0  0
    1.2437    1.3060    7.3702 C   0  0  0  0  0  0  0  0  0  0  0  0
    1.9764    2.5429    9.4534 C   0  0  0  0  0  0  0  0  0  0  0  0
    2.7415    2.6468   10.5558 N   0  0  0  0  0  0  0  0  0  0  0  0
    2.2942    3.6649   11.2706 N   0  0  0  0  0  0  0  0  0  0  0  0
    2.6487    4.2550   12.4493 C   0  0  0  0  0  0  0  0  0  0  0  0
    2.0065    5.3162   12.9585 N   0  0  0  0  0  0  0  0  0  0  0  0
    0.9682    5.8475   12.3095 C   0  0  0  0  0  0  0  0  0  0  0  0
    0.5883    5.2907   11.1413 N   0  0  0  0  0  0  0  0  0  0  0  0
    1.2434    4.2376   10.6587 C   0  0  0  0  0  0  0  0  0  0  0  0
    1.0686    3.5087    9.5185 N   0  0  0  0  0  0  0  0  0  0  0  0
    0.2883    6.9824   12.8285 N   0  0  0  0  0  0  0  0  0  0  0  0
    0.6535    7.7319   13.9826 C   0  0  0  0  0  0  0  0  0  0  0  0
    1.9399    8.4752   13.9438 C   0  0  0  0  0  0  0  0  0  0  0  0
    2.3681    8.9594   15.2884 C   0  0  0  0  0  0  0  0  0  0  0  0
    1.5248    8.9074   16.3882 C   0  0  0  0  0  0  0  0  0  0  0  0
    1.8752    9.3372   17.6449 C   0  0  0  0  0  0  0  0  0  0  0  0
    3.1542    9.8657   17.8604 C   0  0  0  0  0  0  0  0  0  0  0  0
    3.9929    9.9202   16.7797 C   0  0  0  0  0  0  0  0  0  0  0  0
    3.6153    9.4783   15.5207 C   0  0  0  0  0  0  0  0  0  0  0  0
    3.4816   10.2911   19.1322 O   0  0  0  0  0  0  0  0  0  0  0  0
    3.7594    3.7276   13.1671 N   0  0  0  0  0  0  0  0  0  0  0  0
  1  2  2  0
  2  3  1  0
  3  4  1  0
  4  5  2  0
  4  6  1  0
  6  7  2  0
  7  8  1  0
  8  9  1  0
  9 10  2  0
 10 11  1  0
 11 12  2  0
 12 13  1  0
 13 14  2  0
 11 15  1  0
 15 16  1  0
 16 17  1  0
 17 18  1  0
 18 19  2  0
 19 20  1  0
 20 21  2  0
 21 22  1  0
 22 23  2  0
 21 24  1  0
  9 25  1  0
  5  1  1  0
 14  6  1  0
 13  8  1  0
 23 18  1  0
M  END
$$$$
