
     RDKit          3D

 25 28  0  0  0  0  0  0  0  0999 V2000
    1.5740    0.0072    6.7150 C   0  0  0  0  0  0  0  0  0  0  0  0
    2.7709   -0.3659    7.2748 C   0  0  0  0  0  0  0  0  0  0  0  0
    3.0468    0.5010    8.2207 O   0  0  0  0  0  0  0  0  0  0  0  0
    2.1203    1.4158    8.3248 C   0  0  0  0  0  0  0  0  0  0  0  0
    1.1669    1.1371    7.3853 C   0  0  0  0  0  0  0  0  0  0  0  0
    2.1028    2.5356    9.2759 C   0  0  0  0  0  0  0  0  0  0  0  0
    2.9473    2.7135   10.3086 N   0  0  0  0  0  0  0  0  0  0  0  0
    2.6156    3.8373   10.9204 N   0  0  0  0  0  0  0  0  0  0  0  0
    3.0872    4.5349   11.9948 C   0  0  0  0  0  0  0  0  0  0  0  0
    2.5499    5.6912   12.4096 N   0  0  0  0  0  0  0  0  0  0  0  0
    1.5047    6.2149   11.7656 C   0  0  0  0  0  0  0  0  0  0  0  0
    1.0106    5.5534   10.6992 N   0  0  0  0  0  0  0  0  0  0  0  0
    1.5631    4.4074   10.3090 C   0  0  0  0  0  0  0  0  0  0  0  0
    1.2643    3.5642    9.2786 N   0  0  0  0  0  0  0  0  0  0  0  0
    0.9352    7.4480   12.1836 N   0  0  0  0  0  0  0  0  0  0  0  0
    1.3688    8.2525   13.2753 C   0  0  0  0  0  0  0  0  0  0  0  0
    0.9452    7.8479   14.6412 C   0  0  0  0  0  0  0  0  0  0  0  0
    1.9803    8.1360   15.6762 C   0  0  0  0  0  0  0  0  0  0  0  0
    1.8102    9.1340   16.6240 C   0  0  0  0  0  0  0  0  0  0  0  0
    2.7321    9.4332   17.5973 C   0  0  0  0  0  0  0  0  0  0  0  0
    3.9266    8.7048   17.6620 C   0  0  0  0  0  0  0  0  0  0  0  0
    4.1021    7.7175   16.7299 C   0  0  0  0  0  0  0  0  0  0  0  0
    3.1547    7.4340   15.7577 C   0  0  0  0  0  0  0  0  0  0  0  0
    4.8369    9.0252   18.6490 O   0  0  0  0  0  0  0  0  0  0  0  0
    4.2096    4.0179   12.7020 N   0  0  0  0  0  0  0  0  0  0  0  0
  1  2  2  0
  2  3  1  0
  3  4  1  0
  4  5  2  0
  4  6  1  0
  6  7  2  0
  7  8  1  0
  8  9  1  0
  9 10  2  0
 10 11  1  0
 11 12  2  0
 12 13  1  0
 13 14  2  0
 11 15  1  0
 15 16  1  0
 16 17  1  0
 17 18  1  0
 18 19  2  0
 19 20  1  0
 20 21  2  0
 21 22  1  0
 22 23  2  0
 21 24  1  0
  9 25  1  0
  5  1  1  0
 14  6  1  0
 13  8  1  0
 23 18  1  0
M  END
$$$$
