
     RDKit          3D

 25 28  0  0  0  0  0  0  0  0999 V2000
    1.6337    0.0723    6.5766 C   0  0  0  0  0  0  0  0  0  0  0  0
    2.7999   -0.2978    7.1995 C   0  0  0  0  0  0  0  0  0  0  0  0
    2.9433    0.4747    8.2508 O   0  0  0  0  0  0  0  0  0  0  0  0
    1.9580    1.3245    8.3657 C   0  0  0  0  0  0  0  0  0  0  0  0
    1.1048    1.1008    7.3209 C   0  0  0  0  0  0  0  0  0  0  0  0
    1.7939    2.3325    9.4220 C   0  0  0  0  0  0  0  0  0  0  0  0
    2.5462    2.4493   10.5318 N   0  0  0  0  0  0  0  0  0  0  0  0
    2.0940    3.4787   11.2270 N   0  0  0  0  0  0  0  0  0  0  0  0
    2.4365    4.0841   12.4015 C   0  0  0  0  0  0  0  0  0  0  0  0
    1.7920    5.1544   12.8882 N   0  0  0  0  0  0  0  0  0  0  0  0
    0.7633    5.6799   12.2195 C   0  0  0  0  0  0  0  0  0  0  0  0
    0.3954    5.1081   11.0548 N   0  0  0  0  0  0  0  0  0  0  0  0
    1.0525    4.0462   10.5947 C   0  0  0  0  0  0  0  0  0  0  0  0
    0.8887    3.3020    9.4628 N   0  0  0  0  0  0  0  0  0  0  0  0
    0.0813    6.8242   12.7146 N   0  0  0  0  0  0  0  0  0  0  0  0
    0.4349    7.5881   13.8628 C   0  0  0  0  0  0  0  0  0  0  0  0
    1.6229    8.4755   13.7619 C   0  0  0  0  0  0  0  0  0  0  0  0
    2.3258    8.6504   15.0661 C   0  0  0  0  0  0  0  0  0  0  0  0
    3.6547    8.2915   15.2356 C   0  0  0  0  0  0  0  0  0  0  0  0
    4.3444    8.4369   16.4145 C   0  0  0  0  0  0  0  0  0  0  0  0
    3.6937    8.9764   17.5313 C   0  0  0  0  0  0  0  0  0  0  0  0
    2.3817    9.3335   17.3721 C   0  0  0  0  0  0  0  0  0  0  0  0
    1.7078    9.1776   16.1701 C   0  0  0  0  0  0  0  0  0  0  0  0
    4.4087    9.1117   18.7043 O   0  0  0  0  0  0  0  0  0  0  0  0
    3.5368    3.5631   13.1397 N   0  0  0  0  0  0  0  0  0  0  0  0
  1  2  2  0
  2  3  1  0
  3  4  1  0
  4  5  2  0
  4  6  1  0
  6  7  2  0
  7  8  1  0
  8  9  1  0
  9 10  2  0
 10 11  1  0
 11 12  2  0
 12 13  1  0
 13 14  2  0
 11 15  1  0
 15 16  1  0
 16 17  1  0
 17 18  1  0
 18 19  2  0
 19 20  1  0
 20 21  2  0
 21 22  1  0
 22 23  2  0
 21 24  1  0
  9 25  1  0
  5  1  1  0
 14  6  1  0
 13  8  1  0
 23 18  1  0
M  END
$$$$
