
     RDKit          3D

 25 28  0  0  0  0  0  0  0  0999 V2000
    3.9879   -0.2799    8.3183 C   0  0  0  0  0  0  0  0  0  0  0  0
    3.2132   -0.1828    7.1889 C   0  0  0  0  0  0  0  0  0  0  0  0
    2.4286    0.8581    7.3419 O   0  0  0  0  0  0  0  0  0  0  0  0
    2.6303    1.4527    8.4873 C   0  0  0  0  0  0  0  0  0  0  0  0
    3.6137    0.7598    9.1371 C   0  0  0  0  0  0  0  0  0  0  0  0
    1.9327    2.6461    8.9856 C   0  0  0  0  0  0  0  0  0  0  0  0
    0.9600    3.3219    8.3465 N   0  0  0  0  0  0  0  0  0  0  0  0
    0.5821    4.3252    9.1197 N   0  0  0  0  0  0  0  0  0  0  0  0
   -0.3401    5.3277    9.0299 C   0  0  0  0  0  0  0  0  0  0  0  0
   -0.5278    6.2380    9.9964 N   0  0  0  0  0  0  0  0  0  0  0  0
    0.2025    6.1923   11.1126 C   0  0  0  0  0  0  0  0  0  0  0  0
    1.1244    5.2158   11.2370 N   0  0  0  0  0  0  0  0  0  0  0  0
    1.2902    4.3251   10.2622 C   0  0  0  0  0  0  0  0  0  0  0  0
    2.1311    3.2567   10.1469 N   0  0  0  0  0  0  0  0  0  0  0  0
    0.0032    7.1402   12.1525 N   0  0  0  0  0  0  0  0  0  0  0  0
    0.7980    7.2889   13.3245 C   0  0  0  0  0  0  0  0  0  0  0  0
    2.2076    7.7267   13.1510 C   0  0  0  0  0  0  0  0  0  0  0  0
    2.9679    7.7484   14.4344 C   0  0  0  0  0  0  0  0  0  0  0  0
    4.3283    8.0152   14.4751 C   0  0  0  0  0  0  0  0  0  0  0  0
    5.0692    8.0497   15.6312 C   0  0  0  0  0  0  0  0  0  0  0  0
    4.4419    7.8038   16.8590 C   0  0  0  0  0  0  0  0  0  0  0  0
    3.0989    7.5398   16.8274 C   0  0  0  0  0  0  0  0  0  0  0  0
    2.3728    7.5121   15.6463 C   0  0  0  0  0  0  0  0  0  0  0  0
    5.2087    7.8438   18.0062 O   0  0  0  0  0  0  0  0  0  0  0  0
   -1.1495    5.4046    7.8612 N   0  0  0  0  0  0  0  0  0  0  0  0
  1  2  2  0
  2  3  1  0
  3  4  1  0
  4  5  2  0
  4  6  1  0
  6  7  2  0
  7  8  1  0
  8  9  1  0
  9 10  2  0
 10 11  1  0
 11 12  2  0
 12 13  1  0
 13 14  2  0
 11 15  1  0
 15 16  1  0
 16 17  1  0
 17 18  1  0
 18 19  2  0
 19 20  1  0
 20 21  2  0
 21 22  1  0
 22 23  2  0
 21 24  1  0
  9 25  1  0
  5  1  1  0
 14  6  1  0
 13  8  1  0
 23 18  1  0
M  END
$$$$
