
     RDKit          3D

 25 28  0  0  0  0  0  0  0  0999 V2000
    1.7928    0.2966    6.6553 C   0  0  0  0  0  0  0  0  0  0  0  0
    2.9292   -0.1129    7.3080 C   0  0  0  0  0  0  0  0  0  0  0  0
    3.1051    0.6930    8.3288 O   0  0  0  0  0  0  0  0  0  0  0  0
    2.1688    1.6011    8.3962 C   0  0  0  0  0  0  0  0  0  0  0  0
    1.3155    1.3832    7.3502 C   0  0  0  0  0  0  0  0  0  0  0  0
    2.0511    2.6596    9.4084 C   0  0  0  0  0  0  0  0  0  0  0  0
    2.7909    2.7744   10.5269 N   0  0  0  0  0  0  0  0  0  0  0  0
    2.3931    3.8574   11.1720 N   0  0  0  0  0  0  0  0  0  0  0  0
    2.7537    4.4876   12.3279 C   0  0  0  0  0  0  0  0  0  0  0  0
    2.1699    5.6149   12.7595 N   0  0  0  0  0  0  0  0  0  0  0  0
    1.1874    6.1758   12.0512 C   0  0  0  0  0  0  0  0  0  0  0  0
    0.8034    5.5810   10.9033 N   0  0  0  0  0  0  0  0  0  0  0  0
    1.3998    4.4625   10.4982 C   0  0  0  0  0  0  0  0  0  0  0  0
    1.2082    3.6844    9.3937 N   0  0  0  0  0  0  0  0  0  0  0  0
    0.5707    7.3794   12.4876 N   0  0  0  0  0  0  0  0  0  0  0  0
    0.9113    8.1315   13.6476 C   0  0  0  0  0  0  0  0  0  0  0  0
    2.2990    8.6538   13.7481 C   0  0  0  0  0  0  0  0  0  0  0  0
    2.8395    8.5943   15.1373 C   0  0  0  0  0  0  0  0  0  0  0  0
    4.1934    8.7353   15.4030 C   0  0  0  0  0  0  0  0  0  0  0  0
    4.7367    8.6915   16.6638 C   0  0  0  0  0  0  0  0  0  0  0  0
    3.8987    8.4927   17.7684 C   0  0  0  0  0  0  0  0  0  0  0  0
    2.5607    8.3528   17.5146 C   0  0  0  0  0  0  0  0  0  0  0  0
    2.0367    8.4023   16.2316 C   0  0  0  0  0  0  0  0  0  0  0  0
    4.4693    8.4520   19.0247 O   0  0  0  0  0  0  0  0  0  0  0  0
    3.8068    3.9297   13.1069 N   0  0  0  0  0  0  0  0  0  0  0  0
  1  2  2  0
  2  3  1  0
  3  4  1  0
  4  5  2  0
  4  6  1  0
  6  7  2  0
  7  8  1  0
  8  9  1  0
  9 10  2  0
 10 11  1  0
 11 12  2  0
 12 13  1  0
 13 14  2  0
 11 15  1  0
 15 16  1  0
 16 17  1  0
 17 18  1  0
 18 19  2  0
 19 20  1  0
 20 21  2  0
 21 22  1  0
 22 23  2  0
 21 24  1  0
  9 25  1  0
  5  1  1  0
 14  6  1  0
 13  8  1  0
 23 18  1  0
M  END
$$$$
