
     RDKit          3D

 25 28  0  0  0  0  0  0  0  0999 V2000
    1.6773    1.0134    6.1221 C   0  0  0  0  0  0  0  0  0  0  0  0
    2.8837    0.5391    6.5744 C   0  0  0  0  0  0  0  0  0  0  0  0
    3.2041    1.2380    7.6381 O   0  0  0  0  0  0  0  0  0  0  0  0
    2.2980    2.1359    7.9190 C   0  0  0  0  0  0  0  0  0  0  0  0
    1.3114    2.0252    6.9789 C   0  0  0  0  0  0  0  0  0  0  0  0
    2.3299    3.0873    9.0382 C   0  0  0  0  0  0  0  0  0  0  0  0
    3.1368    3.0215   10.1134 N   0  0  0  0  0  0  0  0  0  0  0  0
    2.8723    4.0592   10.8884 N   0  0  0  0  0  0  0  0  0  0  0  0
    3.3497    4.5315   12.0768 C   0  0  0  0  0  0  0  0  0  0  0  0
    2.8926    5.6511   12.6559 N   0  0  0  0  0  0  0  0  0  0  0  0
    1.9267    6.3630   12.0714 C   0  0  0  0  0  0  0  0  0  0  0  0
    1.4296    5.9270   10.8960 N   0  0  0  0  0  0  0  0  0  0  0  0
    1.9015    4.8122   10.3432 C   0  0  0  0  0  0  0  0  0  0  0  0
    1.5818    4.1740    9.1803 N   0  0  0  0  0  0  0  0  0  0  0  0
    1.4439    7.5605   12.6651 N   0  0  0  0  0  0  0  0  0  0  0  0
    1.5614    7.9323   14.0344 C   0  0  0  0  0  0  0  0  0  0  0  0
    0.3952    8.5985   14.6708 C   0  0  0  0  0  0  0  0  0  0  0  0
    0.6658   10.0220   15.0259 C   0  0  0  0  0  0  0  0  0  0  0  0
    1.5747   10.3702   16.0138 C   0  0  0  0  0  0  0  0  0  0  0  0
    1.8594   11.6651   16.3727 C   0  0  0  0  0  0  0  0  0  0  0  0
    1.2081   12.7197   15.7206 C   0  0  0  0  0  0  0  0  0  0  0  0
    0.3095   12.3844   14.7438 C   0  0  0  0  0  0  0  0  0  0  0  0
    0.0406   11.0683   14.3990 C   0  0  0  0  0  0  0  0  0  0  0  0
    1.5115   14.0119   16.1000 O   0  0  0  0  0  0  0  0  0  0  0  0
    4.3899    3.8092   12.7273 N   0  0  0  0  0  0  0  0  0  0  0  0
  1  2  2  0
  2  3  1  0
  3  4  1  0
  4  5  2  0
  4  6  1  0
  6  7  2  0
  7  8  1  0
  8  9  1  0
  9 10  2  0
 10 11  1  0
 11 12  2  0
 12 13  1  0
 13 14  2  0
 11 15  1  0
 15 16  1  0
 16 17  1  0
 17 18  1  0
 18 19  2  0
 19 20  1  0
 20 21  2  0
 21 22  1  0
 22 23  2  0
 21 24  1  0
  9 25  1  0
  5  1  1  0
 14  6  1  0
 13  8  1  0
 23 18  1  0
M  END
$$$$
