
     RDKit          3D

 25 28  0  0  0  0  0  0  0  0999 V2000
    2.5017   -0.2669    6.8736 C   0  0  0  0  0  0  0  0  0  0  0  0
    1.4942    0.4392    6.2641 C   0  0  0  0  0  0  0  0  0  0  0  0
    1.1933    1.4469    7.0493 O   0  0  0  0  0  0  0  0  0  0  0  0
    1.9283    1.4562    8.1290 C   0  0  0  0  0  0  0  0  0  0  0  0
    2.7723    0.3831    8.0551 C   0  0  0  0  0  0  0  0  0  0  0  0
    1.8634    2.4380    9.2202 C   0  0  0  0  0  0  0  0  0  0  0  0
    2.6301    2.4475   10.3263 N   0  0  0  0  0  0  0  0  0  0  0  0
    2.2780    3.4892   11.0601 N   0  0  0  0  0  0  0  0  0  0  0  0
    2.6815    4.0200   12.2511 C   0  0  0  0  0  0  0  0  0  0  0  0
    2.1404    5.1271   12.7796 N   0  0  0  0  0  0  0  0  0  0  0  0
    1.1598    5.7668   12.1387 C   0  0  0  0  0  0  0  0  0  0  0  0
    0.7340    5.2713   10.9588 N   0  0  0  0  0  0  0  0  0  0  0  0
    1.2886    4.1706   10.4571 C   0  0  0  0  0  0  0  0  0  0  0  0
    1.0507    3.4838    9.3022 N   0  0  0  0  0  0  0  0  0  0  0  0
    0.5880    6.9506   12.6784 N   0  0  0  0  0  0  0  0  0  0  0  0
    0.9746    7.6027   13.8836 C   0  0  0  0  0  0  0  0  0  0  0  0
    2.2298    8.3983   13.8654 C   0  0  0  0  0  0  0  0  0  0  0  0
    2.7260    8.7260   15.2336 C   0  0  0  0  0  0  0  0  0  0  0  0
    3.6086    7.8975   15.9103 C   0  0  0  0  0  0  0  0  0  0  0  0
    4.0953    8.1587   17.1680 C   0  0  0  0  0  0  0  0  0  0  0  0
    3.6939    9.3237   17.8337 C   0  0  0  0  0  0  0  0  0  0  0  0
    2.8228   10.1472   17.1722 C   0  0  0  0  0  0  0  0  0  0  0  0
    2.3469    9.8613   15.9015 C   0  0  0  0  0  0  0  0  0  0  0  0
    4.1968    9.5630   19.0968 O   0  0  0  0  0  0  0  0  0  0  0  0
    3.7343    3.3761   12.9610 N   0  0  0  0  0  0  0  0  0  0  0  0
  1  2  2  0
  2  3  1  0
  3  4  1  0
  4  5  2  0
  4  6  1  0
  6  7  2  0
  7  8  1  0
  8  9  1  0
  9 10  2  0
 10 11  1  0
 11 12  2  0
 12 13  1  0
 13 14  2  0
 11 15  1  0
 15 16  1  0
 16 17  1  0
 17 18  1  0
 18 19  2  0
 19 20  1  0
 20 21  2  0
 21 22  1  0
 22 23  2  0
 21 24  1  0
  9 25  1  0
  5  1  1  0
 14  6  1  0
 13  8  1  0
 23 18  1  0
M  END
$$$$
