
     RDKit          3D

 25 28  0  0  0  0  0  0  0  0999 V2000
    2.5283   -1.0924    8.2083 C   0  0  0  0  0  0  0  0  0  0  0  0
    3.1517   -0.3495    7.2365 C   0  0  0  0  0  0  0  0  0  0  0  0
    3.1171    0.9047    7.6213 O   0  0  0  0  0  0  0  0  0  0  0  0
    2.5180    1.0415    8.7739 C   0  0  0  0  0  0  0  0  0  0  0  0
    2.1291   -0.2048    9.1800 C   0  0  0  0  0  0  0  0  0  0  0  0
    2.3030    2.2998    9.5016 C   0  0  0  0  0  0  0  0  0  0  0  0
    2.5844    3.5361    9.0502 N   0  0  0  0  0  0  0  0  0  0  0  0
    2.2418    4.4025    9.9879 N   0  0  0  0  0  0  0  0  0  0  0  0
    2.2750    5.7612   10.1147 C   0  0  0  0  0  0  0  0  0  0  0  0
    1.8428    6.4048   11.2087 N   0  0  0  0  0  0  0  0  0  0  0  0
    1.3499    5.7174   12.2412 C   0  0  0  0  0  0  0  0  0  0  0  0
    1.3017    4.3725   12.1525 N   0  0  0  0  0  0  0  0  0  0  0  0
    1.7376    3.7591   11.0549 C   0  0  0  0  0  0  0  0  0  0  0  0
    1.7898    2.4380   10.7175 N   0  0  0  0  0  0  0  0  0  0  0  0
    0.8727    6.3867   13.4004 N   0  0  0  0  0  0  0  0  0  0  0  0
    0.7083    7.7922   13.5576 C   0  0  0  0  0  0  0  0  0  0  0  0
   -0.2912    8.4708   12.6920 C   0  0  0  0  0  0  0  0  0  0  0  0
   -0.3006    9.9517   12.8720 C   0  0  0  0  0  0  0  0  0  0  0  0
   -1.0291   10.7861   12.0374 C   0  0  0  0  0  0  0  0  0  0  0  0
   -1.0715   12.1531   12.1659 C   0  0  0  0  0  0  0  0  0  0  0  0
   -0.3451   12.7714   13.1913 C   0  0  0  0  0  0  0  0  0  0  0  0
    0.3765   11.9546   14.0198 C   0  0  0  0  0  0  0  0  0  0  0  0
    0.4018   10.5762   13.8697 C   0  0  0  0  0  0  0  0  0  0  0  0
   -0.4039   14.1464   13.2988 O   0  0  0  0  0  0  0  0  0  0  0  0
    2.7810    6.5334    9.0309 N   0  0  0  0  0  0  0  0  0  0  0  0
  1  2  2  0
  2  3  1  0
  3  4  1  0
  4  5  2  0
  4  6  1  0
  6  7  2  0
  7  8  1  0
  8  9  1  0
  9 10  2  0
 10 11  1  0
 11 12  2  0
 12 13  1  0
 13 14  2  0
 11 15  1  0
 15 16  1  0
 16 17  1  0
 17 18  1  0
 18 19  2  0
 19 20  1  0
 20 21  2  0
 21 22  1  0
 22 23  2  0
 21 24  1  0
  9 25  1  0
  5  1  1  0
 14  6  1  0
 13  8  1  0
 23 18  1  0
M  END
$$$$
