
     RDKit          3D

 25 28  0  0  0  0  0  0  0  0999 V2000
    2.1112    0.7748    6.1650 C   0  0  0  0  0  0  0  0  0  0  0  0
    3.2945    0.4031    6.7538 C   0  0  0  0  0  0  0  0  0  0  0  0
    3.3819    1.0459    7.8947 O   0  0  0  0  0  0  0  0  0  0  0  0
    2.3440    1.8119    8.1000 C   0  0  0  0  0  0  0  0  0  0  0  0
    1.5135    1.6677    7.0235 C   0  0  0  0  0  0  0  0  0  0  0  0
    2.1095    2.6682    9.2707 C   0  0  0  0  0  0  0  0  0  0  0  0
    2.8442    2.6903   10.3982 N   0  0  0  0  0  0  0  0  0  0  0  0
    2.3239    3.5957   11.2087 N   0  0  0  0  0  0  0  0  0  0  0  0
    2.6189    4.0690   12.4546 C   0  0  0  0  0  0  0  0  0  0  0  0
    1.9057    5.0293   13.0603 N   0  0  0  0  0  0  0  0  0  0  0  0
    0.8521    5.5716   12.4461 C   0  0  0  0  0  0  0  0  0  0  0  0
    0.5296    5.1288   11.2137 N   0  0  0  0  0  0  0  0  0  0  0  0
    1.2545    4.1742   10.6356 C   0  0  0  0  0  0  0  0  0  0  0  0
    1.1461    3.5689    9.4175 N   0  0  0  0  0  0  0  0  0  0  0  0
    0.0969    6.6019   13.0687 N   0  0  0  0  0  0  0  0  0  0  0  0
    0.1771    7.9957   12.7892 C   0  0  0  0  0  0  0  0  0  0  0  0
    0.1637    8.9324   13.9429 C   0  0  0  0  0  0  0  0  0  0  0  0
    1.5209    9.1582   14.5196 C   0  0  0  0  0  0  0  0  0  0  0  0
    1.7743   10.1868   15.4147 C   0  0  0  0  0  0  0  0  0  0  0  0
    3.0047   10.4315   15.9742 C   0  0  0  0  0  0  0  0  0  0  0  0
    4.0891    9.6105   15.6397 C   0  0  0  0  0  0  0  0  0  0  0  0
    3.8471    8.5925   14.7568 C   0  0  0  0  0  0  0  0  0  0  0  0
    2.5945    8.3656   14.2067 C   0  0  0  0  0  0  0  0  0  0  0  0
    5.3151    9.8776   16.2152 O   0  0  0  0  0  0  0  0  0  0  0  0
    3.7432    3.5269   13.1395 N   0  0  0  0  0  0  0  0  0  0  0  0
  1  2  2  0
  2  3  1  0
  3  4  1  0
  4  5  2  0
  4  6  1  0
  6  7  2  0
  7  8  1  0
  8  9  1  0
  9 10  2  0
 10 11  1  0
 11 12  2  0
 12 13  1  0
 13 14  2  0
 11 15  1  0
 15 16  1  0
 16 17  1  0
 17 18  1  0
 18 19  2  0
 19 20  1  0
 20 21  2  0
 21 22  1  0
 22 23  2  0
 21 24  1  0
  9 25  1  0
  5  1  1  0
 14  6  1  0
 13  8  1  0
 23 18  1  0
M  END
$$$$
