
     RDKit          3D

 25 28  0  0  0  0  0  0  0  0999 V2000
    1.4333    0.4119    5.9970 C   0  0  0  0  0  0  0  0  0  0  0  0
    0.7777    1.4803    5.4371 C   0  0  0  0  0  0  0  0  0  0  0  0
    0.8504    2.4743    6.2911 O   0  0  0  0  0  0  0  0  0  0  0  0
    1.5055    2.1390    7.3702 C   0  0  0  0  0  0  0  0  0  0  0  0
    1.8925    0.8360    7.2221 C   0  0  0  0  0  0  0  0  0  0  0  0
    1.7789    3.0011    8.5281 C   0  0  0  0  0  0  0  0  0  0  0  0
    1.2668    4.2269    8.7439 N   0  0  0  0  0  0  0  0  0  0  0  0
    1.7426    4.6733    9.8935 N   0  0  0  0  0  0  0  0  0  0  0  0
    1.5908    5.8112   10.6321 C   0  0  0  0  0  0  0  0  0  0  0  0
    2.2058    6.0083   11.8072 N   0  0  0  0  0  0  0  0  0  0  0  0
    3.0107    5.0696   12.3094 C   0  0  0  0  0  0  0  0  0  0  0  0
    3.1858    3.9315   11.6073 N   0  0  0  0  0  0  0  0  0  0  0  0
    2.5633    3.7618   10.4434 C   0  0  0  0  0  0  0  0  0  0  0  0
    2.5649    2.7217    9.5602 N   0  0  0  0  0  0  0  0  0  0  0  0
    3.6561    5.2575   13.5615 N   0  0  0  0  0  0  0  0  0  0  0  0
    3.6818    6.4572   14.3277 C   0  0  0  0  0  0  0  0  0  0  0  0
    2.3780    7.0601   14.7091 C   0  0  0  0  0  0  0  0  0  0  0  0
    2.5312    8.3302   15.4766 C   0  0  0  0  0  0  0  0  0  0  0  0
    3.6843    8.6197   16.1906 C   0  0  0  0  0  0  0  0  0  0  0  0
    3.8727    9.7757   16.9082 C   0  0  0  0  0  0  0  0  0  0  0  0
    2.8569   10.7393   16.9410 C   0  0  0  0  0  0  0  0  0  0  0  0
    1.7153   10.4612   16.2384 C   0  0  0  0  0  0  0  0  0  0  0  0
    1.5502    9.2864   15.5202 C   0  0  0  0  0  0  0  0  0  0  0  0
    3.0706   11.8921   17.6697 O   0  0  0  0  0  0  0  0  0  0  0  0
    0.7301    6.8325   10.1389 N   0  0  0  0  0  0  0  0  0  0  0  0
  1  2  2  0
  2  3  1  0
  3  4  1  0
  4  5  2  0
  4  6  1  0
  6  7  2  0
  7  8  1  0
  8  9  1  0
  9 10  2  0
 10 11  1  0
 11 12  2  0
 12 13  1  0
 13 14  2  0
 11 15  1  0
 15 16  1  0
 16 17  1  0
 17 18  1  0
 18 19  2  0
 19 20  1  0
 20 21  2  0
 21 22  1  0
 22 23  2  0
 21 24  1  0
  9 25  1  0
  5  1  1  0
 14  6  1  0
 13  8  1  0
 23 18  1  0
M  END
$$$$
