
     RDKit          3D

 25 28  0  0  0  0  0  0  0  0999 V2000
    1.6630    0.1262    6.5903 C   0  0  0  0  0  0  0  0  0  0  0  0
    2.8051   -0.2970    7.2241 C   0  0  0  0  0  0  0  0  0  0  0  0
    3.0141    0.5137    8.2348 O   0  0  0  0  0  0  0  0  0  0  0  0
    2.0942    1.4377    8.3131 C   0  0  0  0  0  0  0  0  0  0  0  0
    1.2173    1.2259    7.2857 C   0  0  0  0  0  0  0  0  0  0  0  0
    2.0137    2.5057    9.3190 C   0  0  0  0  0  0  0  0  0  0  0  0
    2.7223    2.5758   10.4611 N   0  0  0  0  0  0  0  0  0  0  0  0
    2.3761    3.6853   11.0907 N   0  0  0  0  0  0  0  0  0  0  0  0
    2.7394    4.2949   12.2568 C   0  0  0  0  0  0  0  0  0  0  0  0
    2.2177    5.4600   12.6668 N   0  0  0  0  0  0  0  0  0  0  0  0
    1.2984    6.0818   11.9254 C   0  0  0  0  0  0  0  0  0  0  0  0
    0.9138    5.5092   10.7665 N   0  0  0  0  0  0  0  0  0  0  0  0
    1.4478    4.3520   10.3833 C   0  0  0  0  0  0  0  0  0  0  0  0
    1.2415    3.5839    9.2746 N   0  0  0  0  0  0  0  0  0  0  0  0
    0.7488    7.3254   12.3389 N   0  0  0  0  0  0  0  0  0  0  0  0
    0.4249    7.7049   13.6724 C   0  0  0  0  0  0  0  0  0  0  0  0
    1.1075    6.9855   14.7794 C   0  0  0  0  0  0  0  0  0  0  0  0
    2.3748    7.6482   15.2042 C   0  0  0  0  0  0  0  0  0  0  0  0
    2.4483    9.0156   15.4234 C   0  0  0  0  0  0  0  0  0  0  0  0
    3.5901    9.6693   15.8182 C   0  0  0  0  0  0  0  0  0  0  0  0
    4.7678    8.9384   16.0188 C   0  0  0  0  0  0  0  0  0  0  0  0
    4.7036    7.5877   15.8047 C   0  0  0  0  0  0  0  0  0  0  0  0
    3.5374    6.9511   15.4074 C   0  0  0  0  0  0  0  0  0  0  0  0
    5.9018    9.6187   16.4149 O   0  0  0  0  0  0  0  0  0  0  0  0
    3.7271    3.6717   13.0711 N   0  0  0  0  0  0  0  0  0  0  0  0
  1  2  2  0
  2  3  1  0
  3  4  1  0
  4  5  2  0
  4  6  1  0
  6  7  2  0
  7  8  1  0
  8  9  1  0
  9 10  2  0
 10 11  1  0
 11 12  2  0
 12 13  1  0
 13 14  2  0
 11 15  1  0
 15 16  1  0
 16 17  1  0
 17 18  1  0
 18 19  2  0
 19 20  1  0
 20 21  2  0
 21 22  1  0
 22 23  2  0
 21 24  1  0
  9 25  1  0
  5  1  1  0
 14  6  1  0
 13  8  1  0
 23 18  1  0
M  END
$$$$
