
     RDKit          3D

 25 28  0  0  0  0  0  0  0  0999 V2000
    2.6765   -0.1305    6.7385 C   0  0  0  0  0  0  0  0  0  0  0  0
    1.7989    0.6592    6.0376 C   0  0  0  0  0  0  0  0  0  0  0  0
    1.4671    1.6615    6.8172 O   0  0  0  0  0  0  0  0  0  0  0  0
    2.0617    1.5898    7.9781 C   0  0  0  0  0  0  0  0  0  0  0  0
    2.8390    0.4651    7.9675 C   0  0  0  0  0  0  0  0  0  0  0  0
    1.9239    2.5414    9.0891 C   0  0  0  0  0  0  0  0  0  0  0  0
    2.6480    2.5475   10.2236 N   0  0  0  0  0  0  0  0  0  0  0  0
    2.2349    3.5588   10.9679 N   0  0  0  0  0  0  0  0  0  0  0  0
    2.5761    4.0722   12.1859 C   0  0  0  0  0  0  0  0  0  0  0  0
    1.9796    5.1480   12.7196 N   0  0  0  0  0  0  0  0  0  0  0  0
    1.0033    5.7720   12.0572 C   0  0  0  0  0  0  0  0  0  0  0  0
    0.6383    5.2929   10.8504 N   0  0  0  0  0  0  0  0  0  0  0  0
    1.2470    4.2233   10.3441 C   0  0  0  0  0  0  0  0  0  0  0  0
    1.0750    3.5584    9.1650 N   0  0  0  0  0  0  0  0  0  0  0  0
    0.3733    6.9231   12.6027 N   0  0  0  0  0  0  0  0  0  0  0  0
    0.7782    7.6369   13.7662 C   0  0  0  0  0  0  0  0  0  0  0  0
    1.9961    8.4830   13.6673 C   0  0  0  0  0  0  0  0  0  0  0  0
    2.7627    8.5438   14.9457 C   0  0  0  0  0  0  0  0  0  0  0  0
    3.2423    9.7410   15.4556 C   0  0  0  0  0  0  0  0  0  0  0  0
    3.9490    9.8473   16.6287 C   0  0  0  0  0  0  0  0  0  0  0  0
    4.2182    8.6947   17.3774 C   0  0  0  0  0  0  0  0  0  0  0  0
    3.7479    7.5087   16.8809 C   0  0  0  0  0  0  0  0  0  0  0  0
    3.0353    7.4283   15.6939 C   0  0  0  0  0  0  0  0  0  0  0  0
    4.9306    8.8281   18.5523 O   0  0  0  0  0  0  0  0  0  0  0  0
    3.6221    3.4445   12.9198 N   0  0  0  0  0  0  0  0  0  0  0  0
  1  2  2  0
  2  3  1  0
  3  4  1  0
  4  5  2  0
  4  6  1  0
  6  7  2  0
  7  8  1  0
  8  9  1  0
  9 10  2  0
 10 11  1  0
 11 12  2  0
 12 13  1  0
 13 14  2  0
 11 15  1  0
 15 16  1  0
 16 17  1  0
 17 18  1  0
 18 19  2  0
 19 20  1  0
 20 21  2  0
 21 22  1  0
 22 23  2  0
 21 24  1  0
  9 25  1  0
  5  1  1  0
 14  6  1  0
 13  8  1  0
 23 18  1  0
M  END
$$$$
