
     RDKit          3D

 25 28  0  0  0  0  0  0  0  0999 V2000
    1.5110    0.2286    6.5386 C   0  0  0  0  0  0  0  0  0  0  0  0
    2.6915   -0.1795    7.1085 C   0  0  0  0  0  0  0  0  0  0  0  0
    2.9015    0.5798    8.1582 O   0  0  0  0  0  0  0  0  0  0  0  0
    1.9467    1.4561    8.3211 C   0  0  0  0  0  0  0  0  0  0  0  0
    1.0439    1.2655    7.3121 C   0  0  0  0  0  0  0  0  0  0  0  0
    1.8565    2.4595    9.3906 C   0  0  0  0  0  0  0  0  0  0  0  0
    2.6363    2.5251   10.4856 N   0  0  0  0  0  0  0  0  0  0  0  0
    2.2523    3.5687   11.2003 N   0  0  0  0  0  0  0  0  0  0  0  0
    2.6495    4.1426   12.3734 C   0  0  0  0  0  0  0  0  0  0  0  0
    2.0713    5.2393   12.8841 N   0  0  0  0  0  0  0  0  0  0  0  0
    1.0578    5.8245   12.2424 C   0  0  0  0  0  0  0  0  0  0  0  0
    0.6371    5.2853   11.0800 N   0  0  0  0  0  0  0  0  0  0  0  0
    1.2289    4.1962   10.5957 C   0  0  0  0  0  0  0  0  0  0  0  0
    1.0038    3.4739    9.4601 N   0  0  0  0  0  0  0  0  0  0  0  0
    0.4461    6.9969   12.7630 N   0  0  0  0  0  0  0  0  0  0  0  0
    0.8970    7.7631   13.8751 C   0  0  0  0  0  0  0  0  0  0  0  0
    2.2687    8.3317   13.8102 C   0  0  0  0  0  0  0  0  0  0  0  0
    2.8349    8.6295   15.1579 C   0  0  0  0  0  0  0  0  0  0  0  0
    3.7131    9.6823   15.3668 C   0  0  0  0  0  0  0  0  0  0  0  0
    4.2570    9.9973   16.5882 C   0  0  0  0  0  0  0  0  0  0  0  0
    3.9246    9.2267   17.7095 C   0  0  0  0  0  0  0  0  0  0  0  0
    3.0579    8.1855   17.5117 C   0  0  0  0  0  0  0  0  0  0  0  0
    2.5213    7.8889   16.2678 C   0  0  0  0  0  0  0  0  0  0  0  0
    4.4848    9.5634   18.9254 O   0  0  0  0  0  0  0  0  0  0  0  0
    3.7362    3.5576   13.0832 N   0  0  0  0  0  0  0  0  0  0  0  0
  1  2  2  0
  2  3  1  0
  3  4  1  0
  4  5  2  0
  4  6  1  0
  6  7  2  0
  7  8  1  0
  8  9  1  0
  9 10  2  0
 10 11  1  0
 11 12  2  0
 12 13  1  0
 13 14  2  0
 11 15  1  0
 15 16  1  0
 16 17  1  0
 17 18  1  0
 18 19  2  0
 19 20  1  0
 20 21  2  0
 21 22  1  0
 22 23  2  0
 21 24  1  0
  9 25  1  0
  5  1  1  0
 14  6  1  0
 13  8  1  0
 23 18  1  0
M  END
$$$$
