
     RDKit          3D

 25 28  0  0  0  0  0  0  0  0999 V2000
    1.7619    0.5266    6.5541 C   0  0  0  0  0  0  0  0  0  0  0  0
    2.9708    0.2192    7.1278 C   0  0  0  0  0  0  0  0  0  0  0  0
    3.1193    1.0034    8.1696 O   0  0  0  0  0  0  0  0  0  0  0  0
    2.0980    1.8029    8.3239 C   0  0  0  0  0  0  0  0  0  0  0  0
    1.2136    1.5310    7.3171 C   0  0  0  0  0  0  0  0  0  0  0  0
    1.9280    2.8068    9.3831 C   0  0  0  0  0  0  0  0  0  0  0  0
    2.6741    2.9193   10.4976 N   0  0  0  0  0  0  0  0  0  0  0  0
    2.2181    3.9460   11.1942 N   0  0  0  0  0  0  0  0  0  0  0  0
    2.5540    4.5469   12.3730 C   0  0  0  0  0  0  0  0  0  0  0  0
    1.9068    5.6153   12.8602 N   0  0  0  0  0  0  0  0  0  0  0  0
    0.8819    6.1434   12.1879 C   0  0  0  0  0  0  0  0  0  0  0  0
    0.5204    5.5761   11.0189 N   0  0  0  0  0  0  0  0  0  0  0  0
    1.1800    4.5160   10.5584 C   0  0  0  0  0  0  0  0  0  0  0  0
    1.0226    3.7762    9.4227 N   0  0  0  0  0  0  0  0  0  0  0  0
    0.1970    7.2857   12.6835 N   0  0  0  0  0  0  0  0  0  0  0  0
    0.3382    7.8601   13.9787 C   0  0  0  0  0  0  0  0  0  0  0  0
    1.6659    7.7559   14.6384 C   0  0  0  0  0  0  0  0  0  0  0  0
    2.0123    8.9692   15.4343 C   0  0  0  0  0  0  0  0  0  0  0  0
    3.2204    9.0843   16.1055 C   0  0  0  0  0  0  0  0  0  0  0  0
    3.5850   10.1818   16.8469 C   0  0  0  0  0  0  0  0  0  0  0  0
    2.7044   11.2659   16.9512 C   0  0  0  0  0  0  0  0  0  0  0  0
    1.5096   11.1602   16.2912 C   0  0  0  0  0  0  0  0  0  0  0  0
    1.1657   10.0412   15.5478 C   0  0  0  0  0  0  0  0  0  0  0  0
    3.0941   12.3565   17.7025 O   0  0  0  0  0  0  0  0  0  0  0  0
    3.6503    4.0231   13.1152 N   0  0  0  0  0  0  0  0  0  0  0  0
  1  2  2  0
  2  3  1  0
  3  4  1  0
  4  5  2  0
  4  6  1  0
  6  7  2  0
  7  8  1  0
  8  9  1  0
  9 10  2  0
 10 11  1  0
 11 12  2  0
 12 13  1  0
 13 14  2  0
 11 15  1  0
 15 16  1  0
 16 17  1  0
 17 18  1  0
 18 19  2  0
 19 20  1  0
 20 21  2  0
 21 22  1  0
 22 23  2  0
 21 24  1  0
  9 25  1  0
  5  1  1  0
 14  6  1  0
 13  8  1  0
 23 18  1  0
M  END
$$$$
