
     RDKit          3D

 25 28  0  0  0  0  0  0  0  0999 V2000
    1.5415    0.5894    6.3306 C   0  0  0  0  0  0  0  0  0  0  0  0
    2.7619    0.1890    6.8155 C   0  0  0  0  0  0  0  0  0  0  0  0
    3.0530    0.9673    7.8314 O   0  0  0  0  0  0  0  0  0  0  0  0
    2.1145    1.8490    8.0507 C   0  0  0  0  0  0  0  0  0  0  0  0
    1.1365    1.6417    7.1180 C   0  0  0  0  0  0  0  0  0  0  0  0
    2.1081    2.8725    9.1048 C   0  0  0  0  0  0  0  0  0  0  0  0
    2.9486    2.9370   10.1540 N   0  0  0  0  0  0  0  0  0  0  0  0
    2.6303    4.0021   10.8693 N   0  0  0  0  0  0  0  0  0  0  0  0
    3.1055    4.5857   12.0080 C   0  0  0  0  0  0  0  0  0  0  0  0
    2.5834    5.7053   12.5293 N   0  0  0  0  0  0  0  0  0  0  0  0
    1.5507    6.3051   11.9333 C   0  0  0  0  0  0  0  0  0  0  0  0
    1.0534    5.7569   10.8058 N   0  0  0  0  0  0  0  0  0  0  0  0
    1.5906    4.6449   10.3101 C   0  0  0  0  0  0  0  0  0  0  0  0
    1.2856    3.9093    9.2021 N   0  0  0  0  0  0  0  0  0  0  0  0
    0.9975    7.5014   12.4649 N   0  0  0  0  0  0  0  0  0  0  0  0
    1.4745    8.2240   13.5951 C   0  0  0  0  0  0  0  0  0  0  0  0
    1.4849    7.5248   14.9066 C   0  0  0  0  0  0  0  0  0  0  0  0
    2.2531    8.2648   15.9497 C   0  0  0  0  0  0  0  0  0  0  0  0
    3.6154    8.4954   15.8301 C   0  0  0  0  0  0  0  0  0  0  0  0
    4.3635    9.1738   16.7612 C   0  0  0  0  0  0  0  0  0  0  0  0
    3.7419    9.6742   17.9122 C   0  0  0  0  0  0  0  0  0  0  0  0
    2.3971    9.4509   18.0377 C   0  0  0  0  0  0  0  0  0  0  0  0
    1.6637    8.7638   17.0821 C   0  0  0  0  0  0  0  0  0  0  0  0
    4.5159   10.3518   18.8328 O   0  0  0  0  0  0  0  0  0  0  0  0
    4.2151    3.9854   12.6679 N   0  0  0  0  0  0  0  0  0  0  0  0
  1  2  2  0
  2  3  1  0
  3  4  1  0
  4  5  2  0
  4  6  1  0
  6  7  2  0
  7  8  1  0
  8  9  1  0
  9 10  2  0
 10 11  1  0
 11 12  2  0
 12 13  1  0
 13 14  2  0
 11 15  1  0
 15 16  1  0
 16 17  1  0
 17 18  1  0
 18 19  2  0
 19 20  1  0
 20 21  2  0
 21 22  1  0
 22 23  2  0
 21 24  1  0
  9 25  1  0
  5  1  1  0
 14  6  1  0
 13  8  1  0
 23 18  1  0
M  END
$$$$
