
     RDKit          3D

 25 28  0  0  0  0  0  0  0  0999 V2000
    3.6514   -0.9466    8.1170 C   0  0  0  0  0  0  0  0  0  0  0  0
    2.9152   -0.7613    6.9731 C   0  0  0  0  0  0  0  0  0  0  0  0
    2.2198    0.3406    7.1304 O   0  0  0  0  0  0  0  0  0  0  0  0
    2.4446    0.8937    8.2922 C   0  0  0  0  0  0  0  0  0  0  0  0
    3.3488    0.1060    8.9490 C   0  0  0  0  0  0  0  0  0  0  0  0
    1.8409    2.1334    8.7998 C   0  0  0  0  0  0  0  0  0  0  0  0
    0.9503    2.9063    8.1511 N   0  0  0  0  0  0  0  0  0  0  0  0
    0.6401    3.9225    8.9376 N   0  0  0  0  0  0  0  0  0  0  0  0
   -0.1871    5.0045    8.8469 C   0  0  0  0  0  0  0  0  0  0  0  0
   -0.3216    5.9071    9.8293 N   0  0  0  0  0  0  0  0  0  0  0  0
    0.3693    5.7730   10.9633 C   0  0  0  0  0  0  0  0  0  0  0  0
    1.1977    4.7162   11.0892 N   0  0  0  0  0  0  0  0  0  0  0  0
    1.3123    3.8353   10.0983 C   0  0  0  0  0  0  0  0  0  0  0  0
    2.0587    2.6992    9.9802 N   0  0  0  0  0  0  0  0  0  0  0  0
    0.2245    6.7125   12.0197 N   0  0  0  0  0  0  0  0  0  0  0  0
    0.8546    6.6543   13.2952 C   0  0  0  0  0  0  0  0  0  0  0  0
    2.3396    6.6026   13.3292 C   0  0  0  0  0  0  0  0  0  0  0  0
    2.9025    7.0291   14.6432 C   0  0  0  0  0  0  0  0  0  0  0  0
    4.1038    6.5284   15.1224 C   0  0  0  0  0  0  0  0  0  0  0  0
    4.6631    6.8933   16.3227 C   0  0  0  0  0  0  0  0  0  0  0  0
    4.0039    7.8246   17.1350 C   0  0  0  0  0  0  0  0  0  0  0  0
    2.8174    8.3239   16.6689 C   0  0  0  0  0  0  0  0  0  0  0  0
    2.2743    7.9401   15.4521 C   0  0  0  0  0  0  0  0  0  0  0  0
    4.5864    8.1743   18.3366 O   0  0  0  0  0  0  0  0  0  0  0  0
   -0.9526    5.1779    7.6590 N   0  0  0  0  0  0  0  0  0  0  0  0
  1  2  2  0
  2  3  1  0
  3  4  1  0
  4  5  2  0
  4  6  1  0
  6  7  2  0
  7  8  1  0
  8  9  1  0
  9 10  2  0
 10 11  1  0
 11 12  2  0
 12 13  1  0
 13 14  2  0
 11 15  1  0
 15 16  1  0
 16 17  1  0
 17 18  1  0
 18 19  2  0
 19 20  1  0
 20 21  2  0
 21 22  1  0
 22 23  2  0
 21 24  1  0
  9 25  1  0
  5  1  1  0
 14  6  1  0
 13  8  1  0
 23 18  1  0
M  END
$$$$
