
     RDKit          3D

 34 37  0  0  0  0  0  0  0  0999 V2000
    0.8063   -5.8969   11.4679 O   0  0  0  0  0  0  0  0  0  0  0  0
    1.0352   -4.7574   10.7147 C   0  0  0  0  0  0  0  0  0  0  0  0
    2.2284   -4.0857   10.8274 C   0  0  0  0  0  0  0  0  0  0  0  0
    2.4474   -2.9571   10.0774 C   0  0  0  0  0  0  0  0  0  0  0  0
    1.5001   -2.4596    9.1977 C   0  0  0  0  0  0  0  0  0  0  0  0
    0.3157   -3.1514    9.1052 C   0  0  0  0  0  0  0  0  0  0  0  0
    0.0584   -4.2858    9.8395 C   0  0  0  0  0  0  0  0  0  0  0  0
   -0.6874   -2.5749    8.1406 C   0  0  0  0  0  0  0  0  0  0  0  0
   -0.7464   -1.1629    8.4658 N   0  0  0  0  0  4  0  0  0  0  0  0
    0.4503   -0.4557    8.1663 C   0  0  2  0  0  0  0  0  0  0  0  0
    1.6945   -1.2583    8.3736 C   0  0  0  0  0  0  0  0  0  0  0  0
    0.4986    0.7756    9.0684 C   0  0  0  0  0  0  0  0  0  0  0  0
    1.0483    0.5777   10.1624 O   0  0  0  0  0  0  0  0  0  0  0  0
   -0.0542    1.9574    8.6028 N   0  0  0  0  0  0  0  0  0  0  0  0
    0.4045    3.3142    8.8637 C   0  0  1  0  0  0  0  0  0  0  0  0
    1.3555    3.7573    7.8332 C   0  0  0  0  0  0  0  0  0  0  0  0
    2.8334    3.6084    8.1039 C   0  0  0  0  0  0  0  0  0  0  0  0
    1.1459    2.7904    6.6158 C   0  0  0  0  0  0  0  0  0  0  0  0
   -0.7657    4.0811    9.2482 C   0  0  0  0  0  0  0  0  0  0  0  0
   -1.8245    3.6236   10.0458 N   0  0  2  0  0  4  0  0  0  0  0  0
   -2.9560    4.5011   10.1819 C   0  0  0  0  0  0  0  0  0  0  0  0
   -3.8890    3.8948   11.2144 C   0  0  0  0  0  0  0  0  0  0  0  0
   -3.2995    4.3101   12.5655 C   0  0  1  0  0  0  0  0  0  0  0  0
   -1.8338    4.1638   12.4496 C   0  0  2  0  0  0  0  0  0  0  0  0
   -1.3453    3.2155   11.3944 C   0  0  0  0  0  0  0  0  0  0  0  0
   -1.2207    3.7713   13.7640 C   0  0  0  0  0  0  0  0  0  0  0  0
   -3.5515    5.8182   12.7784 C   0  0  0  0  0  0  0  0  0  0  0  0
   -4.0101    3.5753   13.5906 C   0  0  0  0  0  0  0  0  0  0  0  0
   -4.6502    2.3863   13.2466 C   0  0  0  0  0  0  0  0  0  0  0  0
   -5.3301    1.6391   14.1844 C   0  0  0  0  0  0  0  0  0  0  0  0
   -5.3975    2.0442   15.4894 C   0  0  0  0  0  0  0  0  0  0  0  0
   -4.7724    3.2145   15.8497 C   0  0  0  0  0  0  0  0  0  0  0  0
   -4.0930    3.9564   14.9011 C   0  0  0  0  0  0  0  0  0  0  0  0
   -4.8526    3.6074   17.1775 O   0  0  0  0  0  0  0  0  0  0  0  0
  1  2  1  0
  2  3  2  0
  3  4  1  0
  4  5  2  0
  5  6  1  0
  6  7  2  0
  6  8  1  0
  8  9  1  0
  9 10  1  0
 10 11  1  0
 10 12  1  1
 12 13  2  0
 12 14  1  0
 14 15  1  0
 15 16  1  0
 16 17  1  0
 16 18  1  0
 15 19  1  6
 20 19  1  1
 20 21  1  0
 21 22  1  0
 22 23  1  0
 23 24  1  0
 24 25  1  0
 24 26  1  1
 23 27  1  1
 23 28  1  0
 28 29  2  0
 29 30  1  0
 30 31  2  0
 31 32  1  0
 32 33  2  0
 32 34  1  0
  7  2  1  0
 25 20  1  0
 33 28  1  0
 11  5  1  0
M  CHG  2   9   1  20   1
M  END
$$$$
