
     RDKit          3D

 34 37  0  0  0  0  0  0  0  0999 V2000
    0.0932   -4.5051    9.6141 O   0  0  0  0  0  0  0  0  0  0  0  0
    0.5565   -3.2187    9.8350 C   0  0  0  0  0  0  0  0  0  0  0  0
    1.3640   -2.9535   10.9144 C   0  0  0  0  0  0  0  0  0  0  0  0
    1.8189   -1.6758   11.1263 C   0  0  0  0  0  0  0  0  0  0  0  0
    1.4923   -0.6263   10.2835 C   0  0  0  0  0  0  0  0  0  0  0  0
    0.6830   -0.9202    9.2116 C   0  0  0  0  0  0  0  0  0  0  0  0
    0.2070   -2.1871    8.9653 C   0  0  0  0  0  0  0  0  0  0  0  0
    0.3495    0.2495    8.3231 C   0  0  0  0  0  0  0  0  0  0  0  0
   -0.0762    1.2966    9.2315 N   0  0  0  0  0  4  0  0  0  0  0  0
    0.9662    1.7935   10.0613 C   0  0  2  0  0  0  0  0  0  0  0  0
    1.9601    0.7544   10.4707 C   0  0  0  0  0  0  0  0  0  0  0  0
    0.3202    2.3823   11.3138 C   0  0  0  0  0  0  0  0  0  0  0  0
    0.2728    1.5974   12.2728 O   0  0  0  0  0  0  0  0  0  0  0  0
   -0.1373    3.6890   11.2686 N   0  0  0  0  0  0  0  0  0  0  0  0
   -0.7467    4.4528   12.3478 C   0  0  1  0  0  0  0  0  0  0  0  0
    0.0388    5.6588   12.6500 C   0  0  0  0  0  0  0  0  0  0  0  0
   -0.3553    6.4959   13.8431 C   0  0  0  0  0  0  0  0  0  0  0  0
    1.4628    5.1473   13.0641 C   0  0  0  0  0  0  0  0  0  0  0  0
   -2.1733    4.4786   12.0837 C   0  0  0  0  0  0  0  0  0  0  0  0
   -3.0292    3.3678   12.0747 N   0  0  2  0  0  4  0  0  0  0  0  0
   -4.4261    3.6276   12.2987 C   0  0  0  0  0  0  0  0  0  0  0  0
   -5.1304    2.2888   12.4245 C   0  0  0  0  0  0  0  0  0  0  0  0
   -4.8931    1.8571   13.8745 C   0  0  1  0  0  0  0  0  0  0  0  0
   -3.4895    2.1930   14.1908 C   0  0  2  0  0  0  0  0  0  0  0  0
   -2.5596    2.3186   13.0200 C   0  0  0  0  0  0  0  0  0  0  0  0
   -2.9010    1.2106   15.1636 C   0  0  0  0  0  0  0  0  0  0  0  0
   -5.7520    2.7396   14.8056 C   0  0  0  0  0  0  0  0  0  0  0  0
   -5.3424    0.4863   13.9958 C   0  0  0  0  0  0  0  0  0  0  0  0
   -5.1684   -0.3781   12.9167 C   0  0  0  0  0  0  0  0  0  0  0  0
   -5.5651   -1.6966   12.9813 C   0  0  0  0  0  0  0  0  0  0  0  0
   -6.1451   -2.2000   14.1135 C   0  0  0  0  0  0  0  0  0  0  0  0
   -6.3257   -1.3638   15.1896 C   0  0  0  0  0  0  0  0  0  0  0  0
   -5.9241   -0.0428   15.1143 C   0  0  0  0  0  0  0  0  0  0  0  0
   -6.9154   -1.8937   16.3277 O   0  0  0  0  0  0  0  0  0  0  0  0
  1  2  1  0
  2  3  2  0
  3  4  1  0
  4  5  2  0
  5  6  1  0
  6  7  2  0
  6  8  1  0
  8  9  1  0
  9 10  1  0
 10 11  1  0
 10 12  1  1
 12 13  2  0
 12 14  1  0
 14 15  1  0
 15 16  1  0
 16 17  1  0
 16 18  1  0
 15 19  1  6
 20 19  1  1
 20 21  1  0
 21 22  1  0
 22 23  1  0
 23 24  1  0
 24 25  1  0
 24 26  1  1
 23 27  1  1
 23 28  1  0
 28 29  2  0
 29 30  1  0
 30 31  2  0
 31 32  1  0
 32 33  2  0
 32 34  1  0
  7  2  1  0
 25 20  1  0
 33 28  1  0
 11  5  1  0
M  CHG  2   9   1  20   1
M  END
$$$$
