
     RDKit          3D

 34 37  0  0  0  0  0  0  0  0999 V2000
    2.3227   -5.8751   11.4314 O   0  0  0  0  0  0  0  0  0  0  0  0
    1.7779   -4.8369   10.6940 C   0  0  0  0  0  0  0  0  0  0  0  0
    2.4683   -4.3135    9.6277 C   0  0  0  0  0  0  0  0  0  0  0  0
    1.9214   -3.2847    8.9020 C   0  0  0  0  0  0  0  0  0  0  0  0
    0.6828   -2.7438    9.2052 C   0  0  0  0  0  0  0  0  0  0  0  0
    0.0144   -3.2866   10.2770 C   0  0  0  0  0  0  0  0  0  0  0  0
    0.5285   -4.3176   11.0285 C   0  0  0  0  0  0  0  0  0  0  0  0
   -1.3261   -2.6673   10.5743 C   0  0  0  0  0  0  0  0  0  0  0  0
   -1.0828   -1.2377   10.5758 N   0  0  0  0  0  4  0  0  0  0  0  0
   -0.7479   -0.7125    9.2975 C   0  0  2  0  0  0  0  0  0  0  0  0
    0.0590   -1.6458    8.4532 C   0  0  0  0  0  0  0  0  0  0  0  0
    0.0498    0.5709    9.5188 C   0  0  0  0  0  0  0  0  0  0  0  0
    0.8453    0.5126   10.4684 O   0  0  0  0  0  0  0  0  0  0  0  0
   -0.1775    1.6438    8.6725 N   0  0  0  0  0  0  0  0  0  0  0  0
    0.3964    2.9789    8.7595 C   0  0  1  0  0  0  0  0  0  0  0  0
    1.3038    3.2380    7.6315 C   0  0  0  0  0  0  0  0  0  0  0  0
    1.9656    4.5916    7.5346 C   0  0  0  0  0  0  0  0  0  0  0  0
    2.5325    2.2866    7.8456 C   0  0  0  0  0  0  0  0  0  0  0  0
   -0.6850    3.8720    9.1314 C   0  0  0  0  0  0  0  0  0  0  0  0
   -1.7611    3.5562    9.9733 N   0  0  2  0  0  4  0  0  0  0  0  0
   -2.8576    4.4868    9.9958 C   0  0  0  0  0  0  0  0  0  0  0  0
   -3.8139    4.0472   11.0897 C   0  0  0  0  0  0  0  0  0  0  0  0
   -3.2092    4.6008   12.3832 C   0  0  1  0  0  0  0  0  0  0  0  0
   -1.7503    4.3851   12.2934 C   0  0  2  0  0  0  0  0  0  0  0  0
   -1.2987    3.2971   11.3640 C   0  0  0  0  0  0  0  0  0  0  0  0
   -1.1534    4.1322   13.6490 C   0  0  0  0  0  0  0  0  0  0  0  0
   -3.4024    6.1322   12.4097 C   0  0  0  0  0  0  0  0  0  0  0  0
   -3.9482    4.0243   13.4864 C   0  0  0  0  0  0  0  0  0  0  0  0
   -4.8701    3.0127   13.2248 C   0  0  0  0  0  0  0  0  0  0  0  0
   -5.5917    2.4188   14.2381 C   0  0  0  0  0  0  0  0  0  0  0  0
   -5.4238    2.8064   15.5393 C   0  0  0  0  0  0  0  0  0  0  0  0
   -4.5187    3.8028   15.8189 C   0  0  0  0  0  0  0  0  0  0  0  0
   -3.8000    4.3919   14.7950 C   0  0  0  0  0  0  0  0  0  0  0  0
   -4.3634    4.1810   17.1443 O   0  0  0  0  0  0  0  0  0  0  0  0
  1  2  1  0
  2  3  2  0
  3  4  1  0
  4  5  2  0
  5  6  1  0
  6  7  2  0
  6  8  1  0
  8  9  1  0
  9 10  1  0
 10 11  1  0
 10 12  1  1
 12 13  2  0
 12 14  1  0
 14 15  1  0
 15 16  1  0
 16 17  1  0
 16 18  1  0
 15 19  1  6
 20 19  1  6
 20 21  1  0
 21 22  1  0
 22 23  1  0
 23 24  1  0
 24 25  1  0
 24 26  1  1
 23 27  1  6
 23 28  1  0
 28 29  2  0
 29 30  1  0
 30 31  2  0
 31 32  1  0
 32 33  2  0
 32 34  1  0
  7  2  1  0
 25 20  1  0
 33 28  1  0
 11  5  1  0
M  CHG  2   9   1  20   1
M  END
$$$$
