
     RDKit          3D

 34 37  0  0  0  0  0  0  0  0999 V2000
    0.5509   -4.7708   10.7040 O   0  0  0  0  0  0  0  0  0  0  0  0
    0.7749   -3.4403   10.3915 C   0  0  0  0  0  0  0  0  0  0  0  0
    1.5446   -2.6589   11.2189 C   0  0  0  0  0  0  0  0  0  0  0  0
    1.7618   -1.3410   10.9021 C   0  0  0  0  0  0  0  0  0  0  0  0
    1.2286   -0.7572    9.7647 C   0  0  0  0  0  0  0  0  0  0  0  0
    0.4626   -1.5623    8.9552 C   0  0  0  0  0  0  0  0  0  0  0  0
    0.2219   -2.8867    9.2381 C   0  0  0  0  0  0  0  0  0  0  0  0
   -0.1005   -0.8875    7.7319 C   0  0  0  0  0  0  0  0  0  0  0  0
   -0.6903    0.3424    8.2243 N   0  0  0  0  0  4  0  0  0  0  0  0
    0.2619    1.2782    8.7138 C   0  0  2  0  0  0  0  0  0  0  0  0
    1.4389    0.6472    9.3859 C   0  0  0  0  0  0  0  0  0  0  0  0
   -0.4522    2.1854    9.7136 C   0  0  0  0  0  0  0  0  0  0  0  0
   -0.1643    1.9554   10.8978 O   0  0  0  0  0  0  0  0  0  0  0  0
   -1.3237    3.1463    9.2278 N   0  0  0  0  0  0  0  0  0  0  0  0
   -1.6658    4.4228    9.8383 C   0  0  1  0  0  0  0  0  0  0  0  0
   -1.4632    5.5312    8.8932 C   0  0  0  0  0  0  0  0  0  0  0  0
   -1.3759    6.9366    9.4380 C   0  0  0  0  0  0  0  0  0  0  0  0
   -0.0291    5.3225    8.2927 C   0  0  0  0  0  0  0  0  0  0  0  0
   -2.9032    4.2156   10.5673 C   0  0  0  0  0  0  0  0  0  0  0  0
   -3.0960    3.3121   11.6223 N   0  0  2  0  0  4  0  0  0  0  0  0
   -4.4367    3.1869   12.1279 C   0  0  0  0  0  0  0  0  0  0  0  0
   -4.3840    2.3058   13.3629 C   0  0  0  0  0  0  0  0  0  0  0  0
   -3.9562    3.2445   14.4948 C   0  0  1  0  0  0  0  0  0  0  0  0
   -2.9021    4.1198   13.9418 C   0  0  2  0  0  0  0  0  0  0  0  0
   -2.1630    3.5914   12.7477 C   0  0  0  0  0  0  0  0  0  0  0  0
   -1.8988    4.4954   14.9955 C   0  0  0  0  0  0  0  0  0  0  0  0
   -5.1346    4.1800   14.8405 C   0  0  0  0  0  0  0  0  0  0  0  0
   -3.6662    2.4227   15.6507 C   0  0  0  0  0  0  0  0  0  0  0  0
   -3.4664    1.0552   15.4726 C   0  0  0  0  0  0  0  0  0  0  0  0
   -3.1743    0.2275   16.5355 C   0  0  0  0  0  0  0  0  0  0  0  0
   -3.0708    0.7262   17.8052 C   0  0  0  0  0  0  0  0  0  0  0  0
   -3.2642    2.0729   18.0025 C   0  0  0  0  0  0  0  0  0  0  0  0
   -3.5567    2.8944   16.9294 C   0  0  0  0  0  0  0  0  0  0  0  0
   -3.1549    2.5584   19.2972 O   0  0  0  0  0  0  0  0  0  0  0  0
  1  2  1  0
  2  3  2  0
  3  4  1  0
  4  5  2  0
  5  6  1  0
  6  7  2  0
  6  8  1  0
  8  9  1  0
  9 10  1  0
 10 11  1  0
 10 12  1  1
 12 13  2  0
 12 14  1  0
 14 15  1  0
 15 16  1  0
 16 17  1  0
 16 18  1  0
 15 19  1  6
 20 19  1  6
 20 21  1  0
 21 22  1  0
 22 23  1  0
 23 24  1  0
 24 25  1  0
 24 26  1  1
 23 27  1  1
 23 28  1  0
 28 29  2  0
 29 30  1  0
 30 31  2  0
 31 32  1  0
 32 33  2  0
 32 34  1  0
  7  2  1  0
 25 20  1  0
 33 28  1  0
 11  5  1  0
M  CHG  2   9   1  20   1
M  END
$$$$
