
     RDKit          3D

 34 37  0  0  0  0  0  0  0  0999 V2000
    3.9464   -5.5858    8.6991 O   0  0  0  0  0  0  0  0  0  0  0  0
    2.8970   -4.7998    9.1453 C   0  0  0  0  0  0  0  0  0  0  0  0
    1.6003   -5.1627    8.8722 C   0  0  0  0  0  0  0  0  0  0  0  0
    0.5659   -4.3782    9.3180 C   0  0  0  0  0  0  0  0  0  0  0  0
    0.7787   -3.2175   10.0433 C   0  0  0  0  0  0  0  0  0  0  0  0
    2.0857   -2.8784   10.3019 C   0  0  0  0  0  0  0  0  0  0  0  0
    3.1492   -3.6379    9.8726 C   0  0  0  0  0  0  0  0  0  0  0  0
    2.2724   -1.6082   11.0896 C   0  0  0  0  0  0  0  0  0  0  0  0
    1.4340   -0.6308   10.4227 N   0  0  0  0  0  4  0  0  0  0  0  0
    0.0418   -0.8955   10.5400 C   0  0  2  0  0  0  0  0  0  0  0  0
   -0.2985   -2.3512   10.5427 C   0  0  0  0  0  0  0  0  0  0  0  0
   -0.6581   -0.2250    9.3596 C   0  0  0  0  0  0  0  0  0  0  0  0
   -0.6228   -0.8862    8.3110 O   0  0  0  0  0  0  0  0  0  0  0  0
   -1.2467    1.0133    9.5577 N   0  0  0  0  0  0  0  0  0  0  0  0
   -0.7029    2.3188    9.2127 C   0  0  1  0  0  0  0  0  0  0  0  0
   -0.4281    2.4121    7.7710 C   0  0  0  0  0  0  0  0  0  0  0  0
   -0.4020    3.7782    7.1287 C   0  0  0  0  0  0  0  0  0  0  0  0
    1.0551    1.9351    7.5880 C   0  0  0  0  0  0  0  0  0  0  0  0
   -1.4884    3.3002    9.9375 C   0  0  0  0  0  0  0  0  0  0  0  0
   -1.7502    3.2907   11.3152 N   0  0  2  0  0  4  0  0  0  0  0  0
   -2.9132    2.5623   11.7461 C   0  0  0  0  0  0  0  0  0  0  0  0
   -3.1030    2.8304   13.2281 C   0  0  0  0  0  0  0  0  0  0  0  0
   -3.8229    4.1806   13.2919 C   0  0  1  0  0  0  0  0  0  0  0  0
   -3.1916    5.0443   12.2728 C   0  0  2  0  0  0  0  0  0  0  0  0
   -1.7964    4.6733   11.8640 C   0  0  0  0  0  0  0  0  0  0  0  0
   -3.1955    6.4843   12.7022 C   0  0  0  0  0  0  0  0  0  0  0  0
   -5.2835    3.9906   12.8291 C   0  0  0  0  0  0  0  0  0  0  0  0
   -3.8298    4.6011   14.6771 C   0  0  0  0  0  0  0  0  0  0  0  0
   -2.6730    5.1586   15.2181 C   0  0  0  0  0  0  0  0  0  0  0  0
   -2.6270    5.5885   16.5270 C   0  0  0  0  0  0  0  0  0  0  0  0
   -3.7221    5.4804   17.3398 C   0  0  0  0  0  0  0  0  0  0  0  0
   -4.8736    4.9332   16.8253 C   0  0  0  0  0  0  0  0  0  0  0  0
   -4.9091    4.5053   15.5110 C   0  0  0  0  0  0  0  0  0  0  0  0
   -5.9725    4.8327   17.6657 O   0  0  0  0  0  0  0  0  0  0  0  0
  1  2  1  0
  2  3  2  0
  3  4  1  0
  4  5  2  0
  5  6  1  0
  6  7  2  0
  6  8  1  0
  8  9  1  0
  9 10  1  0
 10 11  1  0
 10 12  1  6
 12 13  2  0
 12 14  1  0
 14 15  1  0
 15 16  1  0
 16 17  1  0
 16 18  1  0
 15 19  1  6
 20 19  1  6
 20 21  1  0
 21 22  1  0
 22 23  1  0
 23 24  1  0
 24 25  1  0
 24 26  1  1
 23 27  1  6
 23 28  1  0
 28 29  2  0
 29 30  1  0
 30 31  2  0
 31 32  1  0
 32 33  2  0
 32 34  1  0
  7  2  1  0
 25 20  1  0
 33 28  1  0
 11  5  1  0
M  CHG  2   9   1  20   1
M  END
$$$$
