
     RDKit          3D

 34 37  0  0  0  0  0  0  0  0999 V2000
    2.4678   -5.8326   11.2934 O   0  0  0  0  0  0  0  0  0  0  0  0
    1.8663   -4.8320   10.5482 C   0  0  0  0  0  0  0  0  0  0  0  0
    2.5519   -4.2332    9.5192 C   0  0  0  0  0  0  0  0  0  0  0  0
    1.9486   -3.2422    8.7854 C   0  0  0  0  0  0  0  0  0  0  0  0
    0.6568   -2.8143    9.0438 C   0  0  0  0  0  0  0  0  0  0  0  0
   -0.0055   -3.4308   10.0790 C   0  0  0  0  0  0  0  0  0  0  0  0
    0.5644   -4.4271   10.8371 C   0  0  0  0  0  0  0  0  0  0  0  0
   -1.4053   -2.9333   10.3282 C   0  0  0  0  0  0  0  0  0  0  0  0
   -1.2860   -1.4884   10.3597 N   0  0  0  0  0  4  0  0  0  0  0  0
   -0.9458   -0.9144    9.1041 C   0  0  2  0  0  0  0  0  0  0  0  0
   -0.0279   -1.7607    8.2816 C   0  0  0  0  0  0  0  0  0  0  0  0
   -0.2710    0.4284    9.3764 C   0  0  0  0  0  0  0  0  0  0  0  0
    0.6017    0.3846   10.2565 O   0  0  0  0  0  0  0  0  0  0  0  0
   -0.6779    1.5322    8.6450 N   0  0  0  0  0  0  0  0  0  0  0  0
   -0.2594    2.9154    8.8204 C   0  0  1  0  0  0  0  0  0  0  0  0
    0.5737    3.3619    7.6938 C   0  0  0  0  0  0  0  0  0  0  0  0
    1.0672    4.7887    7.6828 C   0  0  0  0  0  0  0  0  0  0  0  0
    1.9127    2.5525    7.8069 C   0  0  0  0  0  0  0  0  0  0  0  0
   -1.4238    3.6453    9.2865 C   0  0  0  0  0  0  0  0  0  0  0  0
   -2.1767    3.3496   10.4320 N   0  0  2  0  0  4  0  0  0  0  0  0
   -3.4011    4.0839   10.6067 C   0  0  0  0  0  0  0  0  0  0  0  0
   -3.9543    3.7397   11.9777 C   0  0  0  0  0  0  0  0  0  0  0  0
   -3.1807    4.6372   12.9479 C   0  0  1  0  0  0  0  0  0  0  0  0
   -1.7744    4.6353   12.4948 C   0  0  2  0  0  0  0  0  0  0  0  0
   -1.3490    3.4606   11.6639 C   0  0  0  0  0  0  0  0  0  0  0  0
   -0.8288    4.7656   13.6553 C   0  0  0  0  0  0  0  0  0  0  0  0
   -3.6696    6.0920   12.7808 C   0  0  0  0  0  0  0  0  0  0  0  0
   -3.4976    4.1962   14.2899 C   0  0  0  0  0  0  0  0  0  0  0  0
   -3.2478    5.0552   15.3583 C   0  0  0  0  0  0  0  0  0  0  0  0
   -3.5422    4.6928   16.6553 C   0  0  0  0  0  0  0  0  0  0  0  0
   -4.0918    3.4716   16.9349 C   0  0  0  0  0  0  0  0  0  0  0  0
   -4.3463    2.6093   15.8949 C   0  0  0  0  0  0  0  0  0  0  0  0
   -4.0473    2.9827   14.5976 C   0  0  0  0  0  0  0  0  0  0  0  0
   -4.9038    1.3764   16.1997 O   0  0  0  0  0  0  0  0  0  0  0  0
  1  2  1  0
  2  3  2  0
  3  4  1  0
  4  5  2  0
  5  6  1  0
  6  7  2  0
  6  8  1  0
  8  9  1  0
  9 10  1  0
 10 11  1  0
 10 12  1  1
 12 13  2  0
 12 14  1  0
 14 15  1  0
 15 16  1  0
 16 17  1  0
 16 18  1  0
 15 19  1  6
 20 19  1  6
 20 21  1  0
 21 22  1  0
 22 23  1  0
 23 24  1  0
 24 25  1  0
 24 26  1  1
 23 27  1  1
 23 28  1  0
 28 29  2  0
 29 30  1  0
 30 31  2  0
 31 32  1  0
 32 33  2  0
 32 34  1  0
  7  2  1  0
 25 20  1  0
 33 28  1  0
 11  5  1  0
M  CHG  2   9   1  20   1
M  END
$$$$
