
     RDKit          3D

 34 37  0  0  0  0  0  0  0  0999 V2000
   -0.1437   -5.5994   11.8321 O   0  0  0  0  0  0  0  0  0  0  0  0
    0.4149   -4.4868   11.2251 C   0  0  0  0  0  0  0  0  0  0  0  0
    1.4241   -3.7953   11.8503 C   0  0  0  0  0  0  0  0  0  0  0  0
    1.9723   -2.6936   11.2420 C   0  0  0  0  0  0  0  0  0  0  0  0
    1.5433   -2.2433   10.0044 C   0  0  0  0  0  0  0  0  0  0  0  0
    0.5324   -2.9541    9.4019 C   0  0  0  0  0  0  0  0  0  0  0  0
   -0.0425   -4.0626    9.9787 C   0  0  0  0  0  0  0  0  0  0  0  0
    0.0939   -2.4288    8.0600 C   0  0  0  0  0  0  0  0  0  0  0  0
   -0.1007   -1.0062    8.2635 N   0  0  0  0  0  4  0  0  0  0  0  0
    1.1028   -0.2951    8.5238 C   0  0  2  0  0  0  0  0  0  0  0  0
    2.1045   -1.0722    9.3161 C   0  0  0  0  0  0  0  0  0  0  0  0
    0.7350    0.9708    9.2952 C   0  0  0  0  0  0  0  0  0  0  0  0
    1.1322    0.9784   10.4700 O   0  0  0  0  0  0  0  0  0  0  0  0
    0.0185    1.9587    8.6396 N   0  0  0  0  0  0  0  0  0  0  0  0
    0.2202    3.3984    8.7153 C   0  0  1  0  0  0  0  0  0  0  0  0
    0.9313    3.8950    7.5276 C   0  0  0  0  0  0  0  0  0  0  0  0
    1.2062    5.3756    7.4182 C   0  0  0  0  0  0  0  0  0  0  0  0
    2.3792    3.2982    7.6171 C   0  0  0  0  0  0  0  0  0  0  0  0
   -1.0267    3.9677    9.1913 C   0  0  0  0  0  0  0  0  0  0  0  0
   -1.8622    3.4155   10.1729 N   0  0  2  0  0  4  0  0  0  0  0  0
   -3.1599    4.0161   10.3281 C   0  0  0  0  0  0  0  0  0  0  0  0
   -3.8160    3.3897   11.5453 C   0  0  0  0  0  0  0  0  0  0  0  0
   -3.2303    4.1491   12.7392 C   0  0  1  0  0  0  0  0  0  0  0  0
   -1.7909    4.3304   12.4594 C   0  0  2  0  0  0  0  0  0  0  0  0
   -1.1777    3.3598   11.4933 C   0  0  0  0  0  0  0  0  0  0  0  0
   -0.9842    4.3150   13.7270 C   0  0  0  0  0  0  0  0  0  0  0  0
   -3.8304    5.5711   12.7702 C   0  0  0  0  0  0  0  0  0  0  0  0
   -3.6404    3.4500   13.9387 C   0  0  0  0  0  0  0  0  0  0  0  0
   -2.6619    2.9497   14.7954 C   0  0  0  0  0  0  0  0  0  0  0  0
   -2.9949    2.2877   15.9577 C   0  0  0  0  0  0  0  0  0  0  0  0
   -4.3041    2.1006   16.3080 C   0  0  0  0  0  0  0  0  0  0  0  0
   -5.2851    2.5868   15.4765 C   0  0  0  0  0  0  0  0  0  0  0  0
   -4.9401    3.2494   14.3130 C   0  0  0  0  0  0  0  0  0  0  0  0
   -6.6059    2.3867   15.8498 O   0  0  0  0  0  0  0  0  0  0  0  0
  1  2  1  0
  2  3  2  0
  3  4  1  0
  4  5  2  0
  5  6  1  0
  6  7  2  0
  6  8  1  0
  8  9  1  0
  9 10  1  0
 10 11  1  0
 10 12  1  1
 12 13  2  0
 12 14  1  0
 14 15  1  0
 15 16  1  0
 16 17  1  0
 16 18  1  0
 15 19  1  6
 20 19  1  6
 20 21  1  0
 21 22  1  0
 22 23  1  0
 23 24  1  0
 24 25  1  0
 24 26  1  1
 23 27  1  1
 23 28  1  0
 28 29  2  0
 29 30  1  0
 30 31  2  0
 31 32  1  0
 32 33  2  0
 32 34  1  0
  7  2  1  0
 25 20  1  0
 33 28  1  0
 11  5  1  0
M  CHG  2   9   1  20   1
M  END
$$$$
