
     RDKit          3D

 34 37  0  0  0  0  0  0  0  0999 V2000
    1.8451   -6.0209   10.9822 O   0  0  0  0  0  0  0  0  0  0  0  0
    1.5925   -4.9007   10.2078 C   0  0  0  0  0  0  0  0  0  0  0  0
    2.6223   -4.2700    9.5527 C   0  0  0  0  0  0  0  0  0  0  0  0
    2.3636   -3.1603    8.7872 C   0  0  0  0  0  0  0  0  0  0  0  0
    1.0869   -2.6420    8.6458 C   0  0  0  0  0  0  0  0  0  0  0  0
    0.0758   -3.2928    9.3123 C   0  0  0  0  0  0  0  0  0  0  0  0
    0.2945   -4.4071   10.0886 C   0  0  0  0  0  0  0  0  0  0  0  0
   -1.2951   -2.6947    9.1345 C   0  0  0  0  0  0  0  0  0  0  0  0
   -1.1171   -1.2772    9.3831 N   0  0  0  0  0  4  0  0  0  0  0  0
   -0.3338   -0.6168    8.3970 C   0  0  2  0  0  0  0  0  0  0  0  0
    0.7651   -1.4598    7.8340 C   0  0  0  0  0  0  0  0  0  0  0  0
    0.2760    0.6245    9.0449 C   0  0  0  0  0  0  0  0  0  0  0  0
    1.0444    0.3759    9.9861 O   0  0  0  0  0  0  0  0  0  0  0  0
   -0.0699    1.8686    8.5433 N   0  0  0  0  0  0  0  0  0  0  0  0
    0.3793    3.1707    9.0145 C   0  0  1  0  0  0  0  0  0  0  0  0
    1.5869    3.6044    8.2958 C   0  0  0  0  0  0  0  0  0  0  0  0
    1.5115    4.8491    7.4447 C   0  0  0  0  0  0  0  0  0  0  0  0
    2.6139    4.0263    9.4040 C   0  0  0  0  0  0  0  0  0  0  0  0
   -0.8069    3.9960    9.1466 C   0  0  0  0  0  0  0  0  0  0  0  0
   -1.9132    3.7228    9.9638 N   0  0  2  0  0  4  0  0  0  0  0  0
   -2.8655    4.7867   10.1376 C   0  0  0  0  0  0  0  0  0  0  0  0
   -3.8699    4.3409   11.1848 C   0  0  0  0  0  0  0  0  0  0  0  0
   -3.1865    4.6218   12.5263 C   0  0  1  0  0  0  0  0  0  0  0  0
   -1.7737    4.2171   12.3734 C   0  0  2  0  0  0  0  0  0  0  0  0
   -1.4863    3.2137   11.2955 C   0  0  0  0  0  0  0  0  0  0  0  0
   -1.2130    3.6998   13.6680 C   0  0  0  0  0  0  0  0  0  0  0  0
   -3.1589    6.1471   12.7633 C   0  0  0  0  0  0  0  0  0  0  0  0
   -3.9953    4.0099   13.5592 C   0  0  0  0  0  0  0  0  0  0  0  0
   -4.8067    2.9269   13.2270 C   0  0  0  0  0  0  0  0  0  0  0  0
   -5.5873    2.2973   14.1727 C   0  0  0  0  0  0  0  0  0  0  0  0
   -5.5892    2.7189   15.4742 C   0  0  0  0  0  0  0  0  0  0  0  0
   -4.7954    3.7858   15.8229 C   0  0  0  0  0  0  0  0  0  0  0  0
   -4.0161    4.4101   14.8665 C   0  0  0  0  0  0  0  0  0  0  0  0
   -4.8117    4.1974   17.1474 O   0  0  0  0  0  0  0  0  0  0  0  0
  1  2  1  0
  2  3  2  0
  3  4  1  0
  4  5  2  0
  5  6  1  0
  6  7  2  0
  6  8  1  0
  8  9  1  0
  9 10  1  0
 10 11  1  0
 10 12  1  1
 12 13  2  0
 12 14  1  0
 14 15  1  0
 15 16  1  0
 16 17  1  0
 16 18  1  0
 15 19  1  6
 20 19  1  1
 20 21  1  0
 21 22  1  0
 22 23  1  0
 23 24  1  0
 24 25  1  0
 24 26  1  1
 23 27  1  1
 23 28  1  0
 28 29  2  0
 29 30  1  0
 30 31  2  0
 31 32  1  0
 32 33  2  0
 32 34  1  0
  7  2  1  0
 25 20  1  0
 33 28  1  0
 11  5  1  0
M  CHG  2   9   1  20   1
M  END
$$$$
