
     RDKit          3D

 34 37  0  0  0  0  0  0  0  0999 V2000
    1.8462   -5.7537   11.0192 O   0  0  0  0  0  0  0  0  0  0  0  0
    1.5789   -4.6236   10.2645 C   0  0  0  0  0  0  0  0  0  0  0  0
    2.5892   -4.0064    9.5674 C   0  0  0  0  0  0  0  0  0  0  0  0
    2.3161   -2.8867    8.8218 C   0  0  0  0  0  0  0  0  0  0  0  0
    1.0438   -2.3449    8.7419 C   0  0  0  0  0  0  0  0  0  0  0  0
    0.0524   -2.9827    9.4493 C   0  0  0  0  0  0  0  0  0  0  0  0
    0.2859   -4.1064   10.2076 C   0  0  0  0  0  0  0  0  0  0  0  0
   -1.3143   -2.3592    9.3379 C   0  0  0  0  0  0  0  0  0  0  0  0
   -1.0997   -0.9469    9.5873 N   0  0  0  0  0  4  0  0  0  0  0  0
   -0.3502   -0.2932    8.5710 C   0  0  2  0  0  0  0  0  0  0  0  0
    0.7068   -1.1513    7.9532 C   0  0  0  0  0  0  0  0  0  0  0  0
    0.3106    0.9323    9.1987 C   0  0  0  0  0  0  0  0  0  0  0  0
    0.9224    0.6920   10.2503 O   0  0  0  0  0  0  0  0  0  0  0  0
    0.1729    2.1552    8.5625 N   0  0  0  0  0  0  0  0  0  0  0  0
    0.4588    3.4748    9.1066 C   0  0  1  0  0  0  0  0  0  0  0  0
    1.5685    4.1146    8.3841 C   0  0  0  0  0  0  0  0  0  0  0  0
    2.6566    4.7889    9.1846 C   0  0  0  0  0  0  0  0  0  0  0  0
    2.3506    2.9483    7.6848 C   0  0  0  0  0  0  0  0  0  0  0  0
   -0.8225    4.1190    9.3275 C   0  0  0  0  0  0  0  0  0  0  0  0
   -1.8100    3.6999   10.2306 N   0  0  2  0  0  4  0  0  0  0  0  0
   -3.0693    4.3928   10.1773 C   0  0  0  0  0  0  0  0  0  0  0  0
   -3.9135    3.9066   11.3414 C   0  0  0  0  0  0  0  0  0  0  0  0
   -3.4239    4.7175   12.5448 C   0  0  1  0  0  0  0  0  0  0  0  0
   -1.9517    4.7836   12.4387 C   0  0  2  0  0  0  0  0  0  0  0  0
   -1.2980    3.7034   11.6281 C   0  0  0  0  0  0  0  0  0  0  0  0
   -1.3093    4.8153   13.7967 C   0  0  0  0  0  0  0  0  0  0  0  0
   -3.9172    6.1732   12.4006 C   0  0  0  0  0  0  0  0  0  0  0  0
   -4.0279    4.1417   13.7278 C   0  0  0  0  0  0  0  0  0  0  0  0
   -4.2634    4.9601   14.8307 C   0  0  0  0  0  0  0  0  0  0  0  0
   -4.8479    4.4685   15.9783 C   0  0  0  0  0  0  0  0  0  0  0  0
   -5.2170    3.1543   16.0699 C   0  0  0  0  0  0  0  0  0  0  0  0
   -4.9936    2.3300   14.9926 C   0  0  0  0  0  0  0  0  0  0  0  0
   -4.4066    2.8333   13.8463 C   0  0  0  0  0  0  0  0  0  0  0  0
   -5.3750    1.0013   15.1059 O   0  0  0  0  0  0  0  0  0  0  0  0
  1  2  1  0
  2  3  2  0
  3  4  1  0
  4  5  2  0
  5  6  1  0
  6  7  2  0
  6  8  1  0
  8  9  1  0
  9 10  1  0
 10 11  1  0
 10 12  1  1
 12 13  2  0
 12 14  1  0
 14 15  1  0
 15 16  1  0
 16 17  1  0
 16 18  1  0
 15 19  1  6
 20 19  1  6
 20 21  1  0
 21 22  1  0
 22 23  1  0
 23 24  1  0
 24 25  1  0
 24 26  1  1
 23 27  1  6
 23 28  1  0
 28 29  2  0
 29 30  1  0
 30 31  2  0
 31 32  1  0
 32 33  2  0
 32 34  1  0
  7  2  1  0
 25 20  1  0
 33 28  1  0
 11  5  1  0
M  CHG  2   9   1  20   1
M  END
$$$$
