
     RDKit          3D

 34 37  0  0  0  0  0  0  0  0999 V2000
    2.0596   -6.1357   11.2376 O   0  0  0  0  0  0  0  0  0  0  0  0
    1.8237   -5.0227   10.4478 C   0  0  0  0  0  0  0  0  0  0  0  0
    2.8673   -4.3982    9.8087 C   0  0  0  0  0  0  0  0  0  0  0  0
    2.6250   -3.2956    9.0278 C   0  0  0  0  0  0  0  0  0  0  0  0
    1.3517   -2.7785    8.8546 C   0  0  0  0  0  0  0  0  0  0  0  0
    0.3266   -3.4232    9.5056 C   0  0  0  0  0  0  0  0  0  0  0  0
    0.5286   -4.5303   10.2966 C   0  0  0  0  0  0  0  0  0  0  0  0
   -1.0401   -2.8267    9.2934 C   0  0  0  0  0  0  0  0  0  0  0  0
   -0.8671   -1.4069    9.5325 N   0  0  0  0  0  4  0  0  0  0  0  0
   -0.0630   -0.7557    8.5571 C   0  0  2  0  0  0  0  0  0  0  0  0
    1.0474   -1.6039    8.0253 C   0  0  0  0  0  0  0  0  0  0  0  0
    0.5333    0.4915    9.2063 C   0  0  0  0  0  0  0  0  0  0  0  0
    1.1206    0.2711   10.2761 O   0  0  0  0  0  0  0  0  0  0  0  0
    0.3713    1.7099    8.5674 N   0  0  0  0  0  0  0  0  0  0  0  0
    0.6579    3.0347    9.0988 C   0  0  1  0  0  0  0  0  0  0  0  0
    1.8415    3.6188    8.4503 C   0  0  0  0  0  0  0  0  0  0  0  0
    3.1757    2.9368    8.6357 C   0  0  0  0  0  0  0  0  0  0  0  0
    1.6040    3.4609    6.9078 C   0  0  0  0  0  0  0  0  0  0  0  0
   -0.6144    3.7247    9.2013 C   0  0  0  0  0  0  0  0  0  0  0  0
   -1.6614    3.3960   10.0745 N   0  0  2  0  0  4  0  0  0  0  0  0
   -2.8069    4.2658   10.0647 C   0  0  0  0  0  0  0  0  0  0  0  0
   -3.7245    3.8335   11.1941 C   0  0  0  0  0  0  0  0  0  0  0  0
   -3.1356    4.4867   12.4478 C   0  0  1  0  0  0  0  0  0  0  0  0
   -1.6682    4.3459   12.3477 C   0  0  2  0  0  0  0  0  0  0  0  0
   -1.1688    3.2364   11.4697 C   0  0  0  0  0  0  0  0  0  0  0  0
   -1.0421    4.1977   13.7057 C   0  0  0  0  0  0  0  0  0  0  0  0
   -3.4122    6.0047   12.3973 C   0  0  0  0  0  0  0  0  0  0  0  0
   -3.8285    3.9302   13.5905 C   0  0  0  0  0  0  0  0  0  0  0  0
   -4.5327    2.7376   13.4366 C   0  0  0  0  0  0  0  0  0  0  0  0
   -5.1996    2.1557   14.4934 C   0  0  0  0  0  0  0  0  0  0  0  0
   -5.1903    2.7344   15.7330 C   0  0  0  0  0  0  0  0  0  0  0  0
   -4.5011    3.9113   15.9061 C   0  0  0  0  0  0  0  0  0  0  0  0
   -3.8355    4.4867   14.8394 C   0  0  0  0  0  0  0  0  0  0  0  0
   -4.5041    4.4817   17.1705 O   0  0  0  0  0  0  0  0  0  0  0  0
  1  2  1  0
  2  3  2  0
  3  4  1  0
  4  5  2  0
  5  6  1  0
  6  7  2  0
  6  8  1  0
  8  9  1  0
  9 10  1  0
 10 11  1  0
 10 12  1  1
 12 13  2  0
 12 14  1  0
 14 15  1  0
 15 16  1  0
 16 17  1  0
 16 18  1  0
 15 19  1  6
 20 19  1  6
 20 21  1  0
 21 22  1  0
 22 23  1  0
 23 24  1  0
 24 25  1  0
 24 26  1  1
 23 27  1  6
 23 28  1  0
 28 29  2  0
 29 30  1  0
 30 31  2  0
 31 32  1  0
 32 33  2  0
 32 34  1  0
  7  2  1  0
 25 20  1  0
 33 28  1  0
 11  5  1  0
M  CHG  2   9   1  20   1
M  END
$$$$
