
     RDKit          3D

 34 37  0  0  0  0  0  0  0  0999 V2000
    2.9748   -5.8230   11.3886 O   0  0  0  0  0  0  0  0  0  0  0  0
    2.2445   -4.8320   10.7539 C   0  0  0  0  0  0  0  0  0  0  0  0
    2.7378   -4.2320    9.6207 C   0  0  0  0  0  0  0  0  0  0  0  0
    2.0078   -3.2506    8.9976 C   0  0  0  0  0  0  0  0  0  0  0  0
    0.7749   -2.8337    9.4717 C   0  0  0  0  0  0  0  0  0  0  0  0
    0.3057   -3.4511   10.6070 C   0  0  0  0  0  0  0  0  0  0  0  0
    1.0070   -4.4380   11.2599 C   0  0  0  0  0  0  0  0  0  0  0  0
   -1.0358   -2.9658   11.0903 C   0  0  0  0  0  0  0  0  0  0  0  0
   -0.9278   -1.5196   11.0960 N   0  0  0  0  0  4  0  0  0  0  0  0
   -0.8132   -0.9488    9.7987 C   0  0  2  0  0  0  0  0  0  0  0  0
   -0.0410   -1.7906    8.8342 C   0  0  0  0  0  0  0  0  0  0  0  0
   -0.1156    0.4017    9.9469 C   0  0  0  0  0  0  0  0  0  0  0  0
    0.6116    0.4861   10.9479 O   0  0  0  0  0  0  0  0  0  0  0  0
   -0.3483    1.3738    8.9878 N   0  0  0  0  0  0  0  0  0  0  0  0
   -0.3392    2.8182    9.1691 C   0  0  1  0  0  0  0  0  0  0  0  0
    0.4608    3.4763    8.1252 C   0  0  0  0  0  0  0  0  0  0  0  0
    1.3680    4.6157    8.5228 C   0  0  0  0  0  0  0  0  0  0  0  0
    1.4867    2.3973    7.6308 C   0  0  0  0  0  0  0  0  0  0  0  0
   -1.7006    3.2047    9.4896 C   0  0  0  0  0  0  0  0  0  0  0  0
   -2.3221    3.0706   10.7394 N   0  0  2  0  0  4  0  0  0  0  0  0
   -3.6988    3.4789   10.8228 C   0  0  0  0  0  0  0  0  0  0  0  0
   -4.1110    3.4177   12.2824 C   0  0  0  0  0  0  0  0  0  0  0  0
   -3.5995    4.7279   12.8882 C   0  0  1  0  0  0  0  0  0  0  0  0
   -2.2558    4.9599   12.3193 C   0  0  2  0  0  0  0  0  0  0  0  0
   -1.5362    3.7470   11.8069 C   0  0  0  0  0  0  0  0  0  0  0  0
   -1.3632    5.6640   13.3018 C   0  0  0  0  0  0  0  0  0  0  0  0
   -4.4751    5.8912   12.3750 C   0  0  0  0  0  0  0  0  0  0  0  0
   -3.7583    4.6306   14.3238 C   0  0  0  0  0  0  0  0  0  0  0  0
   -3.5678    5.7708   15.1019 C   0  0  0  0  0  0  0  0  0  0  0  0
   -3.7190    5.7392   16.4717 C   0  0  0  0  0  0  0  0  0  0  0  0
   -4.0629    4.5808   17.1130 C   0  0  0  0  0  0  0  0  0  0  0  0
   -4.2558    3.4444   16.3635 C   0  0  0  0  0  0  0  0  0  0  0  0
   -4.1016    3.4871   14.9901 C   0  0  0  0  0  0  0  0  0  0  0  0
   -4.6040    2.2806   17.0328 O   0  0  0  0  0  0  0  0  0  0  0  0
  1  2  1  0
  2  3  2  0
  3  4  1  0
  4  5  2  0
  5  6  1  0
  6  7  2  0
  6  8  1  0
  8  9  1  0
  9 10  1  0
 10 11  1  0
 10 12  1  1
 12 13  2  0
 12 14  1  0
 14 15  1  0
 15 16  1  0
 16 17  1  0
 16 18  1  0
 15 19  1  6
 20 19  1  6
 20 21  1  0
 21 22  1  0
 22 23  1  0
 23 24  1  0
 24 25  1  0
 24 26  1  1
 23 27  1  6
 23 28  1  0
 28 29  2  0
 29 30  1  0
 30 31  2  0
 31 32  1  0
 32 33  2  0
 32 34  1  0
  7  2  1  0
 25 20  1  0
 33 28  1  0
 11  5  1  0
M  CHG  2   9   1  20   1
M  END
$$$$
