
     RDKit          3D

 34 37  0  0  0  0  0  0  0  0999 V2000
    0.3141   -5.7623   11.7458 O   0  0  0  0  0  0  0  0  0  0  0  0
    0.6350   -4.6728   10.9532 C   0  0  0  0  0  0  0  0  0  0  0  0
    1.8386   -4.0314   11.1190 C   0  0  0  0  0  0  0  0  0  0  0  0
    2.1490   -2.9522   10.3294 C   0  0  0  0  0  0  0  0  0  0  0  0
    1.2852   -2.4758    9.3570 C   0  0  0  0  0  0  0  0  0  0  0  0
    0.0882   -3.1365    9.2130 C   0  0  0  0  0  0  0  0  0  0  0  0
   -0.2594   -4.2211    9.9843 C   0  0  0  0  0  0  0  0  0  0  0  0
   -0.8224   -2.5842    8.1477 C   0  0  0  0  0  0  0  0  0  0  0  0
   -0.8578   -1.1555    8.3935 N   0  0  0  0  0  4  0  0  0  0  0  0
    0.3804   -0.5012    8.1471 C   0  0  2  0  0  0  0  0  0  0  0  0
    1.5788   -1.3275    8.4880 C   0  0  0  0  0  0  0  0  0  0  0  0
    0.4041    0.7756    8.9848 C   0  0  0  0  0  0  0  0  0  0  0  0
    0.9225    0.6355   10.1027 O   0  0  0  0  0  0  0  0  0  0  0  0
   -0.1344    1.9311    8.4427 N   0  0  0  0  0  0  0  0  0  0  0  0
    0.3388    3.2967    8.6175 C   0  0  1  0  0  0  0  0  0  0  0  0
    1.1447    3.7276    7.4652 C   0  0  0  0  0  0  0  0  0  0  0  0
    1.8336    5.0696    7.5286 C   0  0  0  0  0  0  0  0  0  0  0  0
    2.3599    2.7377    7.4009 C   0  0  0  0  0  0  0  0  0  0  0  0
   -0.7809    4.0608    9.1350 C   0  0  0  0  0  0  0  0  0  0  0  0
   -1.7976    3.5709    9.9674 N   0  0  2  0  0  4  0  0  0  0  0  0
   -2.9346    4.4281   10.1703 C   0  0  0  0  0  0  0  0  0  0  0  0
   -3.8135    3.7866   11.2288 C   0  0  0  0  0  0  0  0  0  0  0  0
   -3.1722    4.1828   12.5619 C   0  0  1  0  0  0  0  0  0  0  0  0
   -1.7110    4.0614   12.3802 C   0  0  2  0  0  0  0  0  0  0  0  0
   -1.2549    3.1425   11.2853 C   0  0  0  0  0  0  0  0  0  0  0  0
   -1.0362    3.6512   13.6586 C   0  0  0  0  0  0  0  0  0  0  0  0
   -3.4365    5.6823   12.8173 C   0  0  0  0  0  0  0  0  0  0  0  0
   -3.8273    3.4164   13.6006 C   0  0  0  0  0  0  0  0  0  0  0  0
   -4.7087    2.4009   13.2350 C   0  0  0  0  0  0  0  0  0  0  0  0
   -5.3499    1.6308   14.1816 C   0  0  0  0  0  0  0  0  0  0  0  0
   -5.1392    1.8411   15.5169 C   0  0  0  0  0  0  0  0  0  0  0  0
   -4.2731    2.8380   15.8988 C   0  0  0  0  0  0  0  0  0  0  0  0
   -3.6350    3.6046   14.9412 C   0  0  0  0  0  0  0  0  0  0  0  0
   -4.0734    3.0348   17.2572 O   0  0  0  0  0  0  0  0  0  0  0  0
  1  2  1  0
  2  3  2  0
  3  4  1  0
  4  5  2  0
  5  6  1  0
  6  7  2  0
  6  8  1  0
  8  9  1  0
  9 10  1  0
 10 11  1  0
 10 12  1  1
 12 13  2  0
 12 14  1  0
 14 15  1  0
 15 16  1  0
 16 17  1  0
 16 18  1  0
 15 19  1  6
 20 19  1  1
 20 21  1  0
 21 22  1  0
 22 23  1  0
 23 24  1  0
 24 25  1  0
 24 26  1  1
 23 27  1  1
 23 28  1  0
 28 29  2  0
 29 30  1  0
 30 31  2  0
 31 32  1  0
 32 33  2  0
 32 34  1  0
  7  2  1  0
 25 20  1  0
 33 28  1  0
 11  5  1  0
M  CHG  2   9   1  20   1
M  END
$$$$
