
     RDKit          3D

 34 37  0  0  0  0  0  0  0  0999 V2000
   -6.6832    1.7337   16.3057 O   0  0  0  0  0  0  0  0  0  0  0  0
   -5.6759    2.4691   15.7034 C   0  0  0  0  0  0  0  0  0  0  0  0
   -5.9613    3.6810   15.1224 C   0  0  0  0  0  0  0  0  0  0  0  0
   -4.9572    4.4037   14.5275 C   0  0  0  0  0  0  0  0  0  0  0  0
   -3.6475    3.9545   14.4882 C   0  0  0  0  0  0  0  0  0  0  0  0
   -3.3906    2.7390   15.0771 C   0  0  0  0  0  0  0  0  0  0  0  0
   -4.3689    1.9853   15.6830 C   0  0  0  0  0  0  0  0  0  0  0  0
   -1.9556    2.2865   15.0088 C   0  0  0  0  0  0  0  0  0  0  0  0
   -1.5753    2.4653   13.6208 N   0  0  0  0  0  4  0  0  0  0  0  0
   -1.5163    3.8266   13.2141 C   0  0  2  0  0  0  0  0  0  0  0  0
   -2.5422    4.6970   13.8660 C   0  0  0  0  0  0  0  0  0  0  0  0
   -1.7211    3.8670   11.7011 C   0  0  0  0  0  0  0  0  0  0  0  0
   -2.9001    3.7152   11.3478 O   0  0  0  0  0  0  0  0  0  0  0  0
   -0.6150    4.0618   10.8902 N   0  0  0  0  0  0  0  0  0  0  0  0
   -0.5484    3.9520    9.4401 C   0  0  1  0  0  0  0  0  0  0  0  0
   -0.7242    5.2656    8.8026 C   0  0  0  0  0  0  0  0  0  0  0  0
   -0.9443    5.3191    7.3098 C   0  0  0  0  0  0  0  0  0  0  0  0
   -2.0802    5.8292    9.3544 C   0  0  0  0  0  0  0  0  0  0  0  0
    0.5608    3.0654    9.1416 C   0  0  0  0  0  0  0  0  0  0  0  0
    0.8409    1.8515    9.7853 N   0  0  2  0  0  4  0  0  0  0  0  0
    2.1286    1.2656    9.5259 C   0  0  0  0  0  0  0  0  0  0  0  0
    2.1490   -0.1086   10.1706 C   0  0  0  0  0  0  0  0  0  0  0  0
    1.4391   -1.0217    9.1667 C   0  0  1  0  0  0  0  0  0  0  0  0
    0.2809   -0.2629    8.6513 C   0  0  2  0  0  0  0  0  0  0  0  0
   -0.2254    0.8461    9.5261 C   0  0  0  0  0  0  0  0  0  0  0  0
   -0.8673   -1.1764    8.3273 C   0  0  0  0  0  0  0  0  0  0  0  0
    2.3651   -1.2437    7.9515 C   0  0  0  0  0  0  0  0  0  0  0  0
    1.2230   -2.2955    9.8197 C   0  0  0  0  0  0  0  0  0  0  0  0
    0.4419   -2.3379   10.9729 C   0  0  0  0  0  0  0  0  0  0  0  0
    0.1921   -3.5247   11.6281 C   0  0  0  0  0  0  0  0  0  0  0  0
    0.7063   -4.7042   11.1635 C   0  0  0  0  0  0  0  0  0  0  0  0
    1.4794   -4.6842   10.0269 C   0  0  0  0  0  0  0  0  0  0  0  0
    1.7238   -3.4883    9.3772 C   0  0  0  0  0  0  0  0  0  0  0  0
    1.9911   -5.8907    9.5724 O   0  0  0  0  0  0  0  0  0  0  0  0
  1  2  1  0
  2  3  2  0
  3  4  1  0
  4  5  2  0
  5  6  1  0
  6  7  2  0
  6  8  1  0
  8  9  1  0
  9 10  1  0
 10 11  1  0
 10 12  1  6
 12 13  2  0
 12 14  1  0
 14 15  1  0
 15 16  1  0
 16 17  1  0
 16 18  1  0
 15 19  1  1
 20 19  1  6
 20 21  1  0
 21 22  1  0
 22 23  1  0
 23 24  1  0
 24 25  1  0
 24 26  1  1
 23 27  1  6
 23 28  1  0
 28 29  2  0
 29 30  1  0
 30 31  2  0
 31 32  1  0
 32 33  2  0
 32 34  1  0
  7  2  1  0
 25 20  1  0
 33 28  1  0
 11  5  1  0
M  CHG  2   9   1  20   1
M  END
$$$$
