
     RDKit          3D

 34 37  0  0  0  0  0  0  0  0999 V2000
    0.8146   -2.5928   18.0036 O   0  0  0  0  0  0  0  0  0  0  0  0
    0.1804   -1.3844   17.7674 C   0  0  0  0  0  0  0  0  0  0  0  0
   -1.1563   -1.2414   18.0509 C   0  0  0  0  0  0  0  0  0  0  0  0
   -1.7774   -0.0404   17.8139 C   0  0  0  0  0  0  0  0  0  0  0  0
   -1.1015    1.0504   17.2924 C   0  0  0  0  0  0  0  0  0  0  0  0
    0.2347    0.8790   17.0181 C   0  0  0  0  0  0  0  0  0  0  0  0
    0.8928   -0.3081   17.2415 C   0  0  0  0  0  0  0  0  0  0  0  0
    0.9305    2.0879   16.4494 C   0  0  0  0  0  0  0  0  0  0  0  0
    0.0674    2.5428   15.3765 N   0  0  0  0  0  4  0  0  0  0  0  0
   -1.1811    3.0553   15.8242 C   0  0  2  0  0  0  0  0  0  0  0  0
   -1.7259    2.3542   17.0270 C   0  0  0  0  0  0  0  0  0  0  0  0
   -2.1777    2.9157   14.6754 C   0  0  0  0  0  0  0  0  0  0  0  0
   -2.9843    1.9845   14.8181 O   0  0  0  0  0  0  0  0  0  0  0  0
   -2.0951    3.8066   13.6177 N   0  0  0  0  0  0  0  0  0  0  0  0
   -2.9143    3.8328   12.4146 C   0  0  1  0  0  0  0  0  0  0  0  0
   -3.9113    4.9120   12.4782 C   0  0  0  0  0  0  0  0  0  0  0  0
   -4.9713    4.9786   11.4051 C   0  0  0  0  0  0  0  0  0  0  0  0
   -4.7639    4.6293   13.7643 C   0  0  0  0  0  0  0  0  0  0  0  0
   -2.0112    3.6497   11.2937 C   0  0  0  0  0  0  0  0  0  0  0  0
   -1.0149    2.6682   11.1907 N   0  0  2  0  0  4  0  0  0  0  0  0
   -0.1117    2.7799   10.0769 C   0  0  0  0  0  0  0  0  0  0  0  0
    0.7568    1.5350   10.0601 C   0  0  0  0  0  0  0  0  0  0  0  0
   -0.0987    0.4710    9.3663 C   0  0  1  0  0  0  0  0  0  0  0  0
   -1.4727    0.6289    9.8862 C   0  0  2  0  0  0  0  0  0  0  0  0
   -1.6012    1.3007   11.2217 C   0  0  0  0  0  0  0  0  0  0  0  0
   -2.1867   -0.6918    9.9464 C   0  0  0  0  0  0  0  0  0  0  0  0
   -0.1831    0.8014    7.8607 C   0  0  0  0  0  0  0  0  0  0  0  0
    0.5805   -0.7979    9.5219 C   0  0  0  0  0  0  0  0  0  0  0  0
    1.4678   -0.9618   10.5838 C   0  0  0  0  0  0  0  0  0  0  0  0
    2.1319   -2.1524   10.7878 C   0  0  0  0  0  0  0  0  0  0  0  0
    1.9389   -3.2159    9.9492 C   0  0  0  0  0  0  0  0  0  0  0  0
    1.0673   -3.0751    8.8954 C   0  0  0  0  0  0  0  0  0  0  0  0
    0.4062   -1.8764    8.6998 C   0  0  0  0  0  0  0  0  0  0  0  0
    0.8857   -4.1651    8.0572 O   0  0  0  0  0  0  0  0  0  0  0  0
  1  2  1  0
  2  3  2  0
  3  4  1  0
  4  5  2  0
  5  6  1  0
  6  7  2  0
  6  8  1  0
  8  9  1  0
  9 10  1  0
 10 11  1  0
 10 12  1  6
 12 13  2  0
 12 14  1  0
 14 15  1  0
 15 16  1  0
 16 17  1  0
 16 18  1  0
 15 19  1  6
 20 19  1  6
 20 21  1  0
 21 22  1  0
 22 23  1  0
 23 24  1  0
 24 25  1  0
 24 26  1  1
 23 27  1  6
 23 28  1  0
 28 29  2  0
 29 30  1  0
 30 31  2  0
 31 32  1  0
 32 33  2  0
 32 34  1  0
  7  2  1  0
 25 20  1  0
 33 28  1  0
 11  5  1  0
M  CHG  2   9   1  20   1
M  END
$$$$
