
     RDKit          3D

 34 37  0  0  0  0  0  0  0  0999 V2000
    2.8690   -2.2530    8.5039 O   0  0  0  0  0  0  0  0  0  0  0  0
    2.3444   -0.9831    8.6786 C   0  0  0  0  0  0  0  0  0  0  0  0
    3.1152    0.0101    9.2327 C   0  0  0  0  0  0  0  0  0  0  0  0
    2.5878    1.2660    9.4025 C   0  0  0  0  0  0  0  0  0  0  0  0
    1.2901    1.5783    9.0324 C   0  0  0  0  0  0  0  0  0  0  0  0
    0.5416    0.5655    8.4808 C   0  0  0  0  0  0  0  0  0  0  0  0
    1.0338   -0.7054    8.2943 C   0  0  0  0  0  0  0  0  0  0  0  0
   -0.8640    0.9465    8.0961 C   0  0  0  0  0  0  0  0  0  0  0  0
   -1.3950    1.6306    9.2592 N   0  0  0  0  0  4  0  0  0  0  0  0
   -0.7703    2.8804    9.5233 C   0  0  2  0  0  0  0  0  0  0  0  0
    0.6874    2.9092    9.1924 C   0  0  0  0  0  0  0  0  0  0  0  0
   -0.9471    3.1814   11.0101 C   0  0  0  0  0  0  0  0  0  0  0  0
    0.0692    2.9756   11.6904 O   0  0  0  0  0  0  0  0  0  0  0  0
   -2.1786    3.6394   11.4492 N   0  0  0  0  0  0  0  0  0  0  0  0
   -2.5416    4.0529   12.7969 C   0  0  1  0  0  0  0  0  0  0  0  0
   -3.5174    5.1528   12.7668 C   0  0  0  0  0  0  0  0  0  0  0  0
   -3.7845    5.9150   14.0425 C   0  0  0  0  0  0  0  0  0  0  0  0
   -2.8856    6.2581   11.8504 C   0  0  0  0  0  0  0  0  0  0  0  0
   -2.7368    2.8377   13.5654 C   0  0  0  0  0  0  0  0  0  0  0  0
   -3.1163    1.5898   13.0504 N   0  0  2  0  0  4  0  0  0  0  0  0
   -3.6835    0.6524   13.9824 C   0  0  0  0  0  0  0  0  0  0  0  0
   -3.8524   -0.6720   13.2601 C   0  0  0  0  0  0  0  0  0  0  0  0
   -2.4692   -1.3268   13.3159 C   0  0  1  0  0  0  0  0  0  0  0  0
   -1.4843   -0.2559   13.0583 C   0  0  2  0  0  0  0  0  0  0  0  0
   -1.9927    0.9456   12.3172 C   0  0  0  0  0  0  0  0  0  0  0  0
   -0.2795   -0.7876   12.3347 C   0  0  0  0  0  0  0  0  0  0  0  0
   -2.1990   -1.8018   14.7598 C   0  0  0  0  0  0  0  0  0  0  0  0
   -2.5049   -2.4856   12.4491 C   0  0  0  0  0  0  0  0  0  0  0  0
   -3.1857   -2.3995   11.2363 C   0  0  0  0  0  0  0  0  0  0  0  0
   -3.2410   -3.4672   10.3661 C   0  0  0  0  0  0  0  0  0  0  0  0
   -2.6254   -4.6510   10.6682 C   0  0  0  0  0  0  0  0  0  0  0  0
   -1.9480   -4.7567   11.8599 C   0  0  0  0  0  0  0  0  0  0  0  0
   -1.8987   -3.6796   12.7256 C   0  0  0  0  0  0  0  0  0  0  0  0
   -1.3308   -5.9651   12.1471 O   0  0  0  0  0  0  0  0  0  0  0  0
  1  2  1  0
  2  3  2  0
  3  4  1  0
  4  5  2  0
  5  6  1  0
  6  7  2  0
  6  8  1  0
  8  9  1  0
  9 10  1  0
 10 11  1  0
 10 12  1  1
 12 13  2  0
 12 14  1  0
 14 15  1  0
 15 16  1  0
 16 17  1  0
 16 18  1  0
 15 19  1  1
 20 19  1  1
 20 21  1  0
 21 22  1  0
 22 23  1  0
 23 24  1  0
 24 25  1  0
 24 26  1  6
 23 27  1  1
 23 28  1  0
 28 29  2  0
 29 30  1  0
 30 31  2  0
 31 32  1  0
 32 33  2  0
 32 34  1  0
  7  2  1  0
 25 20  1  0
 33 28  1  0
 11  5  1  0
M  CHG  2   9   1  20   1
M  END
$$$$
