
     RDKit          3D

 34 37  0  0  0  0  0  0  0  0999 V2000
    0.8713   -5.7543   11.8775 O   0  0  0  0  0  0  0  0  0  0  0  0
    0.9213   -4.7110   10.9680 C   0  0  0  0  0  0  0  0  0  0  0  0
    2.1274   -4.1408   10.6400 C   0  0  0  0  0  0  0  0  0  0  0  0
    2.1684   -3.1071    9.7377 C   0  0  0  0  0  0  0  0  0  0  0  0
    1.0258   -2.6073    9.1348 C   0  0  0  0  0  0  0  0  0  0  0  0
   -0.1670   -3.1965    9.4816 C   0  0  0  0  0  0  0  0  0  0  0  0
   -0.2494   -4.2339   10.3812 C   0  0  0  0  0  0  0  0  0  0  0  0
   -1.3841   -2.6209    8.8063 C   0  0  0  0  0  0  0  0  0  0  0  0
   -1.2585   -1.1860    8.9744 N   0  0  0  0  0  4  0  0  0  0  0  0
   -0.1745   -0.6174    8.2509 C   0  0  2  0  0  0  0  0  0  0  0  0
    1.0246   -1.5059    8.1617 C   0  0  0  0  0  0  0  0  0  0  0  0
    0.2210    0.6799    8.9530 C   0  0  0  0  0  0  0  0  0  0  0  0
    0.8081    0.5103   10.0322 O   0  0  0  0  0  0  0  0  0  0  0  0
   -0.0988    1.8833    8.3459 N   0  0  0  0  0  0  0  0  0  0  0  0
    0.4477    3.1994    8.6435 C   0  0  1  0  0  0  0  0  0  0  0  0
    1.3873    3.6298    7.5972 C   0  0  0  0  0  0  0  0  0  0  0  0
    1.9726    5.0191    7.6807 C   0  0  0  0  0  0  0  0  0  0  0  0
    2.6589    2.7273    7.7688 C   0  0  0  0  0  0  0  0  0  0  0  0
   -0.6615    4.0155    9.1008 C   0  0  0  0  0  0  0  0  0  0  0  0
   -1.6990    3.5960    9.9458 N   0  0  2  0  0  4  0  0  0  0  0  0
   -2.8141    4.4925   10.0927 C   0  0  0  0  0  0  0  0  0  0  0  0
   -3.7200    3.9295   11.1728 C   0  0  0  0  0  0  0  0  0  0  0  0
   -3.0808    4.3762   12.4909 C   0  0  1  0  0  0  0  0  0  0  0  0
   -1.6218    4.2067   12.3314 C   0  0  2  0  0  0  0  0  0  0  0  0
   -1.1805    3.2212   11.2896 C   0  0  0  0  0  0  0  0  0  0  0  0
   -0.9705    3.8446   13.6363 C   0  0  0  0  0  0  0  0  0  0  0  0
   -3.3066    5.8932   12.6670 C   0  0  0  0  0  0  0  0  0  0  0  0
   -3.7663    3.6815   13.5602 C   0  0  0  0  0  0  0  0  0  0  0  0
   -4.5560    2.5765   13.2487 C   0  0  0  0  0  0  0  0  0  0  0  0
   -5.2204    1.8694   14.2279 C   0  0  0  0  0  0  0  0  0  0  0  0
   -5.1242    2.2330   15.5432 C   0  0  0  0  0  0  0  0  0  0  0  0
   -4.3497    3.3203   15.8719 C   0  0  0  0  0  0  0  0  0  0  0  0
   -3.6874    4.0226   14.8819 C   0  0  0  0  0  0  0  0  0  0  0  0
   -4.2654    3.6723   17.2108 O   0  0  0  0  0  0  0  0  0  0  0  0
  1  2  1  0
  2  3  2  0
  3  4  1  0
  4  5  2  0
  5  6  1  0
  6  7  2  0
  6  8  1  0
  8  9  1  0
  9 10  1  0
 10 11  1  0
 10 12  1  1
 12 13  2  0
 12 14  1  0
 14 15  1  0
 15 16  1  0
 16 17  1  0
 16 18  1  0
 15 19  1  6
 20 19  1  6
 20 21  1  0
 21 22  1  0
 22 23  1  0
 23 24  1  0
 24 25  1  0
 24 26  1  1
 23 27  1  1
 23 28  1  0
 28 29  2  0
 29 30  1  0
 30 31  2  0
 31 32  1  0
 32 33  2  0
 32 34  1  0
  7  2  1  0
 25 20  1  0
 33 28  1  0
 11  5  1  0
M  CHG  2   9   1  20   1
M  END
$$$$
