
     RDKit          3D

 34 37  0  0  0  0  0  0  0  0999 V2000
    1.0645   -5.8123   11.5632 O   0  0  0  0  0  0  0  0  0  0  0  0
    1.1445   -4.7362   10.6948 C   0  0  0  0  0  0  0  0  0  0  0  0
    2.3598   -4.1510   10.4339 C   0  0  0  0  0  0  0  0  0  0  0  0
    2.4305   -3.0849    9.5720 C   0  0  0  0  0  0  0  0  0  0  0  0
    1.3095   -2.5666    8.9447 C   0  0  0  0  0  0  0  0  0  0  0  0
    0.1070   -3.1716    9.2242 C   0  0  0  0  0  0  0  0  0  0  0  0
   -0.0051   -4.2414   10.0816 C   0  0  0  0  0  0  0  0  0  0  0  0
   -1.0861   -2.5751    8.5245 C   0  0  0  0  0  0  0  0  0  0  0  0
   -0.9731   -1.1470    8.7493 N   0  0  0  0  0  4  0  0  0  0  0  0
    0.1352   -0.5493    8.0888 C   0  0  2  0  0  0  0  0  0  0  0  0
    1.3406   -1.4304    8.0130 C   0  0  0  0  0  0  0  0  0  0  0  0
    0.4983    0.7227    8.8522 C   0  0  0  0  0  0  0  0  0  0  0  0
    1.3933    0.5658    9.6962 O   0  0  0  0  0  0  0  0  0  0  0  0
   -0.1780    1.8923    8.5461 N   0  0  0  0  0  0  0  0  0  0  0  0
    0.3394    3.2524    8.5873 C   0  0  1  0  0  0  0  0  0  0  0  0
    0.9251    3.6338    7.2934 C   0  0  0  0  0  0  0  0  0  0  0  0
    1.4188    5.0494    7.1145 C   0  0  0  0  0  0  0  0  0  0  0  0
    2.2510    2.8053    7.1648 C   0  0  0  0  0  0  0  0  0  0  0  0
   -0.6542    4.0536    9.2774 C   0  0  0  0  0  0  0  0  0  0  0  0
   -1.6357    3.5714   10.1553 N   0  0  2  0  0  4  0  0  0  0  0  0
   -2.8830    4.2871   10.1847 C   0  0  0  0  0  0  0  0  0  0  0  0
   -3.7186    3.7123   11.3142 C   0  0  0  0  0  0  0  0  0  0  0  0
   -3.1970    4.4038   12.5772 C   0  0  1  0  0  0  0  0  0  0  0  0
   -1.7255    4.4549   12.4535 C   0  0  2  0  0  0  0  0  0  0  0  0
   -1.1032    3.4411   11.5390 C   0  0  0  0  0  0  0  0  0  0  0  0
   -1.0628    4.3540   13.7983 C   0  0  0  0  0  0  0  0  0  0  0  0
   -3.6662    5.8745   12.5717 C   0  0  0  0  0  0  0  0  0  0  0  0
   -3.7937    3.7343   13.7135 C   0  0  0  0  0  0  0  0  0  0  0  0
   -4.9820    3.0292   13.5329 C   0  0  0  0  0  0  0  0  0  0  0  0
   -5.5871    2.3620   14.5763 C   0  0  0  0  0  0  0  0  0  0  0  0
   -5.0364    2.3716   15.8286 C   0  0  0  0  0  0  0  0  0  0  0  0
   -3.8639    3.0613   16.0280 C   0  0  0  0  0  0  0  0  0  0  0  0
   -3.2651    3.7271   14.9745 C   0  0  0  0  0  0  0  0  0  0  0  0
   -3.3221    3.0586   17.3048 O   0  0  0  0  0  0  0  0  0  0  0  0
  1  2  1  0
  2  3  2  0
  3  4  1  0
  4  5  2  0
  5  6  1  0
  6  7  2  0
  6  8  1  0
  8  9  1  0
  9 10  1  0
 10 11  1  0
 10 12  1  1
 12 13  2  0
 12 14  1  0
 14 15  1  0
 15 16  1  0
 16 17  1  0
 16 18  1  0
 15 19  1  6
 20 19  1  6
 20 21  1  0
 21 22  1  0
 22 23  1  0
 23 24  1  0
 24 25  1  0
 24 26  1  1
 23 27  1  6
 23 28  1  0
 28 29  2  0
 29 30  1  0
 30 31  2  0
 31 32  1  0
 32 33  2  0
 32 34  1  0
  7  2  1  0
 25 20  1  0
 33 28  1  0
 11  5  1  0
M  CHG  2   9   1  20   1
M  END
$$$$
