
     RDKit          3D

 34 37  0  0  0  0  0  0  0  0999 V2000
    1.5382   -6.2164   11.2112 O   0  0  0  0  0  0  0  0  0  0  0  0
    1.4244   -5.0239   10.5161 C   0  0  0  0  0  0  0  0  0  0  0  0
    2.5527   -4.3532   10.1101 C   0  0  0  0  0  0  0  0  0  0  0  0
    2.4313   -3.1718    9.4217 C   0  0  0  0  0  0  0  0  0  0  0  0
    1.1988   -2.6192    9.1147 C   0  0  0  0  0  0  0  0  0  0  0  0
    0.0871   -3.3114    9.5332 C   0  0  0  0  0  0  0  0  0  0  0  0
    0.1671   -4.4977   10.2249 C   0  0  0  0  0  0  0  0  0  0  0  0
   -1.2319   -2.6743    9.1821 C   0  0  0  0  0  0  0  0  0  0  0  0
   -1.0966   -1.2899    9.5922 N   0  0  0  0  0  4  0  0  0  0  0  0
   -0.1544   -0.5541    8.8223 C   0  0  2  0  0  0  0  0  0  0  0  0
    1.0233   -1.3602    8.3770 C   0  0  0  0  0  0  0  0  0  0  0  0
    0.3374    0.6094    9.6809 C   0  0  0  0  0  0  0  0  0  0  0  0
    1.4077    0.3866   10.2663 O   0  0  0  0  0  0  0  0  0  0  0  0
   -0.4260    1.7644    9.7275 N   0  0  0  0  0  0  0  0  0  0  0  0
   -0.0956    3.0686    9.1715 C   0  0  1  0  0  0  0  0  0  0  0  0
    0.3736    2.9471    7.7830 C   0  0  0  0  0  0  0  0  0  0  0  0
    0.4683    4.1973    6.9418 C   0  0  0  0  0  0  0  0  0  0  0  0
    1.8746    2.5011    7.8779 C   0  0  0  0  0  0  0  0  0  0  0  0
   -1.1557    3.9729    9.5763 C   0  0  0  0  0  0  0  0  0  0  0  0
   -1.4680    4.3384   10.8937 N   0  0  2  0  0  4  0  0  0  0  0  0
   -0.8556    3.5650   11.9404 C   0  0  0  0  0  0  0  0  0  0  0  0
   -1.4626    4.0099   13.2587 C   0  0  0  0  0  0  0  0  0  0  0  0
   -2.7869    3.2471   13.3564 C   0  0  1  0  0  0  0  0  0  0  0  0
   -3.3907    3.2749   12.0082 C   0  0  2  0  0  0  0  0  0  0  0  0
   -2.9405    4.3851   11.1048 C   0  0  0  0  0  0  0  0  0  0  0  0
   -4.8911    3.3014   12.0846 C   0  0  0  0  0  0  0  0  0  0  0  0
   -2.4873    1.7609   13.6475 C   0  0  0  0  0  0  0  0  0  0  0  0
   -3.5201    3.7970   14.4770 C   0  0  0  0  0  0  0  0  0  0  0  0
   -3.8245    5.1568   14.4814 C   0  0  0  0  0  0  0  0  0  0  0  0
   -4.5317    5.7313   15.5158 C   0  0  0  0  0  0  0  0  0  0  0  0
   -4.9591    4.9796   16.5759 C   0  0  0  0  0  0  0  0  0  0  0  0
   -4.6693    3.6358   16.5908 C   0  0  0  0  0  0  0  0  0  0  0  0
   -3.9594    3.0695   15.5481 C   0  0  0  0  0  0  0  0  0  0  0  0
   -5.1116    2.8916   17.6745 O   0  0  0  0  0  0  0  0  0  0  0  0
  1  2  1  0
  2  3  2  0
  3  4  1  0
  4  5  2  0
  5  6  1  0
  6  7  2  0
  6  8  1  0
  8  9  1  0
  9 10  1  0
 10 11  1  0
 10 12  1  1
 12 13  2  0
 12 14  1  0
 14 15  1  0
 15 16  1  0
 16 17  1  0
 16 18  1  0
 15 19  1  6
 20 19  1  6
 20 21  1  0
 21 22  1  0
 22 23  1  0
 23 24  1  0
 24 25  1  0
 24 26  1  1
 23 27  1  1
 23 28  1  0
 28 29  2  0
 29 30  1  0
 30 31  2  0
 31 32  1  0
 32 33  2  0
 32 34  1  0
  7  2  1  0
 25 20  1  0
 33 28  1  0
 11  5  1  0
M  CHG  2   9   1  20   1
M  END
$$$$
