
     RDKit          3D

 34 37  0  0  0  0  0  0  0  0999 V2000
    3.0662   -5.6599   10.7028 O   0  0  0  0  0  0  0  0  0  0  0  0
    2.2576   -4.6628   10.1827 C   0  0  0  0  0  0  0  0  0  0  0  0
    2.5068   -4.1580    8.9295 C   0  0  0  0  0  0  0  0  0  0  0  0
    1.7007   -3.1699    8.4213 C   0  0  0  0  0  0  0  0  0  0  0  0
    0.6295   -2.6527    9.1311 C   0  0  0  0  0  0  0  0  0  0  0  0
    0.4035   -3.1763   10.3821 C   0  0  0  0  0  0  0  0  0  0  0  0
    1.1882   -4.1664   10.9260 C   0  0  0  0  0  0  0  0  0  0  0  0
   -0.7680   -2.5837   11.1206 C   0  0  0  0  0  0  0  0  0  0  0  0
   -0.5937   -1.1488   11.0035 N   0  0  0  0  0  4  0  0  0  0  0  0
   -0.7517   -0.6590    9.6779 C   0  0  2  0  0  0  0  0  0  0  0  0
   -0.2604   -1.5987    8.6240 C   0  0  0  0  0  0  0  0  0  0  0  0
    0.0239    0.6524    9.5734 C   0  0  0  0  0  0  0  0  0  0  0  0
    1.0969    0.6544   10.1952 O   0  0  0  0  0  0  0  0  0  0  0  0
   -0.5189    1.6826    8.8229 N   0  0  0  0  0  0  0  0  0  0  0  0
   -0.0449    3.0558    8.7283 C   0  0  1  0  0  0  0  0  0  0  0  0
    0.7618    3.2533    7.5147 C   0  0  0  0  0  0  0  0  0  0  0  0
    1.0305    4.6642    7.0491 C   0  0  0  0  0  0  0  0  0  0  0  0
    2.2024    2.7463    7.8733 C   0  0  0  0  0  0  0  0  0  0  0  0
   -1.1644    3.9067    9.0862 C   0  0  0  0  0  0  0  0  0  0  0  0
   -2.0735    3.6765   10.1288 N   0  0  2  0  0  4  0  0  0  0  0  0
   -3.2808    4.4582   10.1168 C   0  0  0  0  0  0  0  0  0  0  0  0
   -4.0237    4.1802   11.4110 C   0  0  0  0  0  0  0  0  0  0  0  0
   -3.3512    5.0829   12.4494 C   0  0  1  0  0  0  0  0  0  0  0  0
   -1.8984    5.0169   12.1886 C   0  0  2  0  0  0  0  0  0  0  0  0
   -1.4126    3.8006   11.4565 C   0  0  0  0  0  0  0  0  0  0  0  0
   -1.1106    5.1538   13.4608 C   0  0  0  0  0  0  0  0  0  0  0  0
   -3.7568    6.5472   12.1761 C   0  0  0  0  0  0  0  0  0  0  0  0
   -3.8600    4.6990   13.7492 C   0  0  0  0  0  0  0  0  0  0  0  0
   -3.3686    5.3436   14.8826 C   0  0  0  0  0  0  0  0  0  0  0  0
   -3.8266    5.0280   16.1439 C   0  0  0  0  0  0  0  0  0  0  0  0
   -4.7834    4.0666   16.3225 C   0  0  0  0  0  0  0  0  0  0  0  0
   -5.2816    3.4187   15.2170 C   0  0  0  0  0  0  0  0  0  0  0  0
   -4.8153    3.7431   13.9564 C   0  0  0  0  0  0  0  0  0  0  0  0
   -6.2509    2.4475   15.4197 O   0  0  0  0  0  0  0  0  0  0  0  0
  1  2  1  0
  2  3  2  0
  3  4  1  0
  4  5  2  0
  5  6  1  0
  6  7  2  0
  6  8  1  0
  8  9  1  0
  9 10  1  0
 10 11  1  0
 10 12  1  1
 12 13  2  0
 12 14  1  0
 14 15  1  0
 15 16  1  0
 16 17  1  0
 16 18  1  0
 15 19  1  6
 20 19  1  6
 20 21  1  0
 21 22  1  0
 22 23  1  0
 23 24  1  0
 24 25  1  0
 24 26  1  1
 23 27  1  6
 23 28  1  0
 28 29  2  0
 29 30  1  0
 30 31  2  0
 31 32  1  0
 32 33  2  0
 32 34  1  0
  7  2  1  0
 25 20  1  0
 33 28  1  0
 11  5  1  0
M  CHG  2   9   1  20   1
M  END
$$$$
