
     RDKit          3D

 34 37  0  0  0  0  0  0  0  0999 V2000
    2.4610   -6.3536   10.2138 O   0  0  0  0  0  0  0  0  0  0  0  0
    1.8250   -5.2050    9.7728 C   0  0  0  0  0  0  0  0  0  0  0  0
    2.2468   -4.5827    8.6229 C   0  0  0  0  0  0  0  0  0  0  0  0
    1.6112   -3.4447    8.1926 C   0  0  0  0  0  0  0  0  0  0  0  0
    0.5452   -2.8891    8.8809 C   0  0  0  0  0  0  0  0  0  0  0  0
    0.1443   -3.5324   10.0279 C   0  0  0  0  0  0  0  0  0  0  0  0
    0.7553   -4.6743   10.4915 C   0  0  0  0  0  0  0  0  0  0  0  0
   -1.0149   -2.8936   10.7469 C   0  0  0  0  0  0  0  0  0  0  0  0
   -0.6661   -1.4890   10.8396 N   0  0  0  0  0  4  0  0  0  0  0  0
   -0.6419   -0.8209    9.5846 C   0  0  2  0  0  0  0  0  0  0  0  0
   -0.1659   -1.6756    8.4541 C   0  0  0  0  0  0  0  0  0  0  0  0
    0.2862    0.3845    9.7196 C   0  0  0  0  0  0  0  0  0  0  0  0
    1.3800    0.1224   10.2420 O   0  0  0  0  0  0  0  0  0  0  0  0
   -0.1590    1.6148    9.2645 N   0  0  0  0  0  0  0  0  0  0  0  0
    0.6191    2.8342    9.1009 C   0  0  1  0  0  0  0  0  0  0  0  0
    0.5375    3.3311    7.7192 C   0  0  0  0  0  0  0  0  0  0  0  0
    1.4995    4.4099    7.2828 C   0  0  0  0  0  0  0  0  0  0  0  0
    0.9600    2.1265    6.8074 C   0  0  0  0  0  0  0  0  0  0  0  0
    0.3434    3.6612   10.2609 C   0  0  0  0  0  0  0  0  0  0  0  0
   -0.9274    3.9904   10.7541 N   0  0  2  0  0  4  0  0  0  0  0  0
   -1.0278    5.2036   11.5202 C   0  0  0  0  0  0  0  0  0  0  0  0
   -2.4303    5.2706   12.0971 C   0  0  0  0  0  0  0  0  0  0  0  0
   -2.3813    4.3873   13.3472 C   0  0  1  0  0  0  0  0  0  0  0  0
   -1.5883    3.1931   12.9896 C   0  0  2  0  0  0  0  0  0  0  0  0
   -1.5135    2.8623   11.5279 C   0  0  0  0  0  0  0  0  0  0  0  0
   -2.0717    1.9776   13.7291 C   0  0  0  0  0  0  0  0  0  0  0  0
   -1.5692    5.1137   14.4409 C   0  0  0  0  0  0  0  0  0  0  0  0
   -3.7417    4.2254   13.8149 C   0  0  0  0  0  0  0  0  0  0  0  0
   -4.6467    3.5195   13.0247 C   0  0  0  0  0  0  0  0  0  0  0  0
   -5.9506    3.3233   13.4265 C   0  0  0  0  0  0  0  0  0  0  0  0
   -6.3988    3.8185   14.6205 C   0  0  0  0  0  0  0  0  0  0  0  0
   -5.5217    4.5178   15.4153 C   0  0  0  0  0  0  0  0  0  0  0  0
   -4.2158    4.7088   15.0028 C   0  0  0  0  0  0  0  0  0  0  0  0
   -5.9958    5.0113   16.6217 O   0  0  0  0  0  0  0  0  0  0  0  0
  1  2  1  0
  2  3  2  0
  3  4  1  0
  4  5  2  0
  5  6  1  0
  6  7  2  0
  6  8  1  0
  8  9  1  0
  9 10  1  0
 10 11  1  0
 10 12  1  1
 12 13  2  0
 12 14  1  0
 14 15  1  0
 15 16  1  0
 16 17  1  0
 16 18  1  0
 15 19  1  1
 20 19  1  1
 20 21  1  0
 21 22  1  0
 22 23  1  0
 23 24  1  0
 24 25  1  0
 24 26  1  1
 23 27  1  1
 23 28  1  0
 28 29  2  0
 29 30  1  0
 30 31  2  0
 31 32  1  0
 32 33  2  0
 32 34  1  0
  7  2  1  0
 25 20  1  0
 33 28  1  0
 11  5  1  0
M  CHG  2   9   1  20   1
M  END
$$$$
