
     RDKit          3D

 34 37  0  0  0  0  0  0  0  0999 V2000
    1.0324   -5.4442   11.8497 O   0  0  0  0  0  0  0  0  0  0  0  0
    1.0527   -4.3722   10.9730 C   0  0  0  0  0  0  0  0  0  0  0  0
    2.2242   -3.6918   10.7443 C   0  0  0  0  0  0  0  0  0  0  0  0
    2.2358   -2.6304    9.8740 C   0  0  0  0  0  0  0  0  0  0  0  0
    1.0973   -2.2104    9.2061 C   0  0  0  0  0  0  0  0  0  0  0  0
   -0.0605   -2.9092    9.4538 C   0  0  0  0  0  0  0  0  0  0  0  0
   -0.1129   -3.9777   10.3185 C   0  0  0  0  0  0  0  0  0  0  0  0
   -1.2749   -2.4177    8.7105 C   0  0  0  0  0  0  0  0  0  0  0  0
   -1.2857   -0.9833    8.9237 N   0  0  0  0  0  4  0  0  0  0  0  0
   -0.2088   -0.3024    8.2922 C   0  0  2  0  0  0  0  0  0  0  0  0
    1.0660   -1.0828    8.2639 C   0  0  0  0  0  0  0  0  0  0  0  0
    0.0247    1.0010    9.0533 C   0  0  0  0  0  0  0  0  0  0  0  0
    0.7814    0.8862   10.0292 O   0  0  0  0  0  0  0  0  0  0  0  0
   -0.6048    2.1501    8.6036 N   0  0  0  0  0  0  0  0  0  0  0  0
   -0.3751    3.5179    9.0459 C   0  0  1  0  0  0  0  0  0  0  0  0
    0.1555    4.3445    7.9514 C   0  0  0  0  0  0  0  0  0  0  0  0
    0.8748    5.6257    8.2987 C   0  0  0  0  0  0  0  0  0  0  0  0
    1.2978    3.4956    7.2913 C   0  0  0  0  0  0  0  0  0  0  0  0
   -1.5286    3.8962    9.8408 C   0  0  0  0  0  0  0  0  0  0  0  0
   -1.9583    3.2687   11.0189 N   0  0  2  0  0  4  0  0  0  0  0  0
   -3.3797    3.1624   11.2120 C   0  0  0  0  0  0  0  0  0  0  0  0
   -3.6165    2.6213   12.6103 C   0  0  0  0  0  0  0  0  0  0  0  0
   -3.4998    3.8426   13.5269 C   0  0  1  0  0  0  0  0  0  0  0  0
   -2.3589    4.6378   13.0277 C   0  0  2  0  0  0  0  0  0  0  0  0
   -1.3377    3.8934   12.2188 C   0  0  0  0  0  0  0  0  0  0  0  0
   -1.6544    5.3434   14.1518 C   0  0  0  0  0  0  0  0  0  0  0  0
   -4.7450    4.7342   13.3325 C   0  0  0  0  0  0  0  0  0  0  0  0
   -3.4884    3.3588   14.8913 C   0  0  0  0  0  0  0  0  0  0  0  0
   -2.2975    2.8671   15.4222 C   0  0  0  0  0  0  0  0  0  0  0  0
   -2.2256    2.4061   16.7193 C   0  0  0  0  0  0  0  0  0  0  0  0
   -3.3275    2.4174   17.5299 C   0  0  0  0  0  0  0  0  0  0  0  0
   -4.5124    2.8987   17.0254 C   0  0  0  0  0  0  0  0  0  0  0  0
   -4.5736    3.3588   15.7230 C   0  0  0  0  0  0  0  0  0  0  0  0
   -5.6176    2.9015   17.8635 O   0  0  0  0  0  0  0  0  0  0  0  0
  1  2  1  0
  2  3  2  0
  3  4  1  0
  4  5  2  0
  5  6  1  0
  6  7  2  0
  6  8  1  0
  8  9  1  0
  9 10  1  0
 10 11  1  0
 10 12  1  1
 12 13  2  0
 12 14  1  0
 14 15  1  0
 15 16  1  0
 16 17  1  0
 16 18  1  0
 15 19  1  6
 20 19  1  6
 20 21  1  0
 21 22  1  0
 22 23  1  0
 23 24  1  0
 24 25  1  0
 24 26  1  1
 23 27  1  1
 23 28  1  0
 28 29  2  0
 29 30  1  0
 30 31  2  0
 31 32  1  0
 32 33  2  0
 32 34  1  0
  7  2  1  0
 25 20  1  0
 33 28  1  0
 11  5  1  0
M  CHG  2   9   1  20   1
M  END
$$$$
