
     RDKit          3D

 34 37  0  0  0  0  0  0  0  0999 V2000
   -0.1235   -5.8777   12.9891 O   0  0  0  0  0  0  0  0  0  0  0  0
   -0.1685   -4.9981   11.9202 C   0  0  0  0  0  0  0  0  0  0  0  0
    0.8646   -4.9609   11.0153 C   0  0  0  0  0  0  0  0  0  0  0  0
    0.8124   -4.0862    9.9586 C   0  0  0  0  0  0  0  0  0  0  0  0
   -0.2556   -3.2259    9.7641 C   0  0  0  0  0  0  0  0  0  0  0  0
   -1.2750   -3.2845   10.6848 C   0  0  0  0  0  0  0  0  0  0  0  0
   -1.2598   -4.1468   11.7564 C   0  0  0  0  0  0  0  0  0  0  0  0
   -2.4143   -2.3305   10.4382 C   0  0  0  0  0  0  0  0  0  0  0  0
   -1.7804   -1.0474   10.2039 N   0  0  0  0  0  4  0  0  0  0  0  0
   -1.0300   -0.9912    8.9974 C   0  0  2  0  0  0  0  0  0  0  0  0
   -0.3539   -2.2774    8.6457 C   0  0  0  0  0  0  0  0  0  0  0  0
    0.0290    0.0970    9.1610 C   0  0  0  0  0  0  0  0  0  0  0  0
    1.0789   -0.2970    9.6906 O   0  0  0  0  0  0  0  0  0  0  0  0
   -0.2659    1.3769    8.7207 N   0  0  0  0  0  0  0  0  0  0  0  0
    0.5511    2.5735    8.8622 C   0  0  1  0  0  0  0  0  0  0  0  0
    1.1497    2.9592    7.5755 C   0  0  0  0  0  0  0  0  0  0  0  0
    2.3467    3.8794    7.5840 C   0  0  0  0  0  0  0  0  0  0  0  0
    1.7528    1.6419    6.9741 C   0  0  0  0  0  0  0  0  0  0  0  0
   -0.2001    3.4924    9.6970 C   0  0  0  0  0  0  0  0  0  0  0  0
   -0.9793    3.1448   10.8098 N   0  0  2  0  0  4  0  0  0  0  0  0
   -1.8587    4.1600   11.3244 C   0  0  0  0  0  0  0  0  0  0  0  0
   -2.4627    3.6368   12.6151 C   0  0  0  0  0  0  0  0  0  0  0  0
   -1.3964    3.9028   13.6816 C   0  0  1  0  0  0  0  0  0  0  0  0
   -0.0943    3.5651   13.0704 C   0  0  2  0  0  0  0  0  0  0  0  0
   -0.1348    2.6111   11.9130 C   0  0  0  0  0  0  0  0  0  0  0  0
    0.8654    3.0303   14.0955 C   0  0  0  0  0  0  0  0  0  0  0  0
   -1.3416    5.4192   13.9661 C   0  0  0  0  0  0  0  0  0  0  0  0
   -1.8146    3.2227   14.8891 C   0  0  0  0  0  0  0  0  0  0  0  0
   -1.5168    1.8696   15.0383 C   0  0  0  0  0  0  0  0  0  0  0  0
   -1.8789    1.1751   16.1726 C   0  0  0  0  0  0  0  0  0  0  0  0
   -2.5455    1.7967   17.1928 C   0  0  0  0  0  0  0  0  0  0  0  0
   -2.8488    3.1316   17.0656 C   0  0  0  0  0  0  0  0  0  0  0  0
   -2.4809    3.8189   15.9236 C   0  0  0  0  0  0  0  0  0  0  0  0
   -3.5249    3.7429   18.1111 O   0  0  0  0  0  0  0  0  0  0  0  0
  1  2  1  0
  2  3  2  0
  3  4  1  0
  4  5  2  0
  5  6  1  0
  6  7  2  0
  6  8  1  0
  8  9  1  0
  9 10  1  0
 10 11  1  0
 10 12  1  1
 12 13  2  0
 12 14  1  0
 14 15  1  0
 15 16  1  0
 16 17  1  0
 16 18  1  0
 15 19  1  6
 20 19  1  6
 20 21  1  0
 21 22  1  0
 22 23  1  0
 23 24  1  0
 24 25  1  0
 24 26  1  1
 23 27  1  1
 23 28  1  0
 28 29  2  0
 29 30  1  0
 30 31  2  0
 31 32  1  0
 32 33  2  0
 32 34  1  0
  7  2  1  0
 25 20  1  0
 33 28  1  0
 11  5  1  0
M  CHG  2   9   1  20   1
M  END
$$$$
