
     RDKit          3D

 34 37  0  0  0  0  0  0  0  0999 V2000
    2.0992   -5.7994   11.5227 O   0  0  0  0  0  0  0  0  0  0  0  0
    1.6734   -4.7876   10.6782 C   0  0  0  0  0  0  0  0  0  0  0  0
    2.5351   -4.2589    9.7479 C   0  0  0  0  0  0  0  0  0  0  0  0
    2.1053   -3.2562    8.9146 C   0  0  0  0  0  0  0  0  0  0  0  0
    0.8184   -2.7474    8.9740 C   0  0  0  0  0  0  0  0  0  0  0  0
   -0.0223   -3.2948    9.9141 C   0  0  0  0  0  0  0  0  0  0  0  0
    0.3706   -4.3002   10.7667 C   0  0  0  0  0  0  0  0  0  0  0  0
   -1.4103   -2.7107    9.9474 C   0  0  0  0  0  0  0  0  0  0  0  0
   -1.2088   -1.2748    9.9670 N   0  0  0  0  0  4  0  0  0  0  0  0
   -0.6571   -0.7575    8.7629 C   0  0  2  0  0  0  0  0  0  0  0  0
    0.3160   -1.6784    8.0995 C   0  0  0  0  0  0  0  0  0  0  0  0
    0.0523    0.5515    9.1035 C   0  0  0  0  0  0  0  0  0  0  0  0
    0.8617    0.4576   10.0384 O   0  0  0  0  0  0  0  0  0  0  0  0
   -0.2594    1.6825    8.3668 N   0  0  0  0  0  0  0  0  0  0  0  0
    0.1057    3.0607    8.6610 C   0  0  1  0  0  0  0  0  0  0  0  0
    0.8488    3.6602    7.5425 C   0  0  0  0  0  0  0  0  0  0  0  0
    1.4962    5.0088    7.7472 C   0  0  0  0  0  0  0  0  0  0  0  0
    2.0916    2.7316    7.3100 C   0  0  0  0  0  0  0  0  0  0  0  0
   -1.0606    3.6793    9.2632 C   0  0  0  0  0  0  0  0  0  0  0  0
   -1.7725    3.1923   10.3689 N   0  0  2  0  0  4  0  0  0  0  0  0
   -3.1814    3.4792   10.4065 C   0  0  0  0  0  0  0  0  0  0  0  0
   -3.7098    3.0222   11.7542 C   0  0  0  0  0  0  0  0  0  0  0  0
   -3.3674    4.1639   12.7158 C   0  0  1  0  0  0  0  0  0  0  0  0
   -2.0052    4.6167   12.3656 C   0  0  2  0  0  0  0  0  0  0  0  0
   -1.1421    3.6219   11.6467 C   0  0  0  0  0  0  0  0  0  0  0  0
   -1.2642    5.1013   13.5796 C   0  0  0  0  0  0  0  0  0  0  0  0
   -4.2936    5.3626   12.4182 C   0  0  0  0  0  0  0  0  0  0  0  0
   -3.6391    3.6941   14.0578 C   0  0  0  0  0  0  0  0  0  0  0  0
   -3.9018    4.6275   15.0585 C   0  0  0  0  0  0  0  0  0  0  0  0
   -4.1801    4.2362   16.3507 C   0  0  0  0  0  0  0  0  0  0  0  0
   -4.2070    2.9118   16.6922 C   0  0  0  0  0  0  0  0  0  0  0  0
   -3.9507    1.9746   15.7195 C   0  0  0  0  0  0  0  0  0  0  0  0
   -3.6728    2.3778   14.4264 C   0  0  0  0  0  0  0  0  0  0  0  0
   -3.9829    0.6374   16.0864 O   0  0  0  0  0  0  0  0  0  0  0  0
  1  2  1  0
  2  3  2  0
  3  4  1  0
  4  5  2  0
  5  6  1  0
  6  7  2  0
  6  8  1  0
  8  9  1  0
  9 10  1  0
 10 11  1  0
 10 12  1  1
 12 13  2  0
 12 14  1  0
 14 15  1  0
 15 16  1  0
 16 17  1  0
 16 18  1  0
 15 19  1  6
 20 19  1  6
 20 21  1  0
 21 22  1  0
 22 23  1  0
 23 24  1  0
 24 25  1  0
 24 26  1  1
 23 27  1  6
 23 28  1  0
 28 29  2  0
 29 30  1  0
 30 31  2  0
 31 32  1  0
 32 33  2  0
 32 34  1  0
  7  2  1  0
 25 20  1  0
 33 28  1  0
 11  5  1  0
M  CHG  2   9   1  20   1
M  END
$$$$
