
     RDKit          3D

 34 37  0  0  0  0  0  0  0  0999 V2000
    2.9227   -5.6097   11.6516 O   0  0  0  0  0  0  0  0  0  0  0  0
    2.4095   -4.6197   10.8301 C   0  0  0  0  0  0  0  0  0  0  0  0
    3.2091   -4.0285    9.8822 C   0  0  0  0  0  0  0  0  0  0  0  0
    2.6928   -3.0480    9.0720 C   0  0  0  0  0  0  0  0  0  0  0  0
    1.3782   -2.6234    9.1723 C   0  0  0  0  0  0  0  0  0  0  0  0
    0.6010   -3.2320   10.1292 C   0  0  0  0  0  0  0  0  0  0  0  0
    1.0812   -4.2177   10.9598 C   0  0  0  0  0  0  0  0  0  0  0  0
   -0.8200   -2.7385   10.2070 C   0  0  0  0  0  0  0  0  0  0  0  0
   -0.7101   -1.2928   10.2366 N   0  0  0  0  0  4  0  0  0  0  0  0
   -0.2267   -0.7303    9.0233 C   0  0  2  0  0  0  0  0  0  0  0  0
    0.7841   -1.5809    8.3235 C   0  0  0  0  0  0  0  0  0  0  0  0
    0.4069    0.6183    9.3583 C   0  0  0  0  0  0  0  0  0  0  0  0
    1.4091    0.5379   10.0844 O   0  0  0  0  0  0  0  0  0  0  0  0
   -0.1716    1.7661    8.8417 N   0  0  0  0  0  0  0  0  0  0  0  0
    0.2579    3.1427    9.0417 C   0  0  1  0  0  0  0  0  0  0  0  0
    1.1551    3.5781    7.9608 C   0  0  0  0  0  0  0  0  0  0  0  0
    2.6460    3.5007    8.1860 C   0  0  0  0  0  0  0  0  0  0  0  0
    0.9458    2.5512    6.7936 C   0  0  0  0  0  0  0  0  0  0  0  0
   -0.9180    3.8893    9.4483 C   0  0  0  0  0  0  0  0  0  0  0  0
   -1.7996    3.5387   10.4810 N   0  0  2  0  0  4  0  0  0  0  0  0
   -3.0615    4.2281   10.5140 C   0  0  0  0  0  0  0  0  0  0  0  0
   -3.7721    3.8294   11.7948 C   0  0  0  0  0  0  0  0  0  0  0  0
   -3.1604    4.7249   12.8761 C   0  0  1  0  0  0  0  0  0  0  0  0
   -1.7087    4.7806   12.6069 C   0  0  2  0  0  0  0  0  0  0  0  0
   -1.1397    3.6430   11.8109 C   0  0  0  0  0  0  0  0  0  0  0  0
   -0.9237    4.9099   13.8816 C   0  0  0  0  0  0  0  0  0  0  0  0
   -3.6754    6.1671   12.6808 C   0  0  0  0  0  0  0  0  0  0  0  0
   -3.6296    4.2379   14.1561 C   0  0  0  0  0  0  0  0  0  0  0  0
   -3.1663    4.8475   15.3203 C   0  0  0  0  0  0  0  0  0  0  0  0
   -3.5895    4.4338   16.5652 C   0  0  0  0  0  0  0  0  0  0  0  0
   -4.4827    3.4060   16.6968 C   0  0  0  0  0  0  0  0  0  0  0  0
   -4.9524    2.7910   15.5604 C   0  0  0  0  0  0  0  0  0  0  0  0
   -4.5214    3.2139   14.3164 C   0  0  0  0  0  0  0  0  0  0  0  0
   -5.8572    1.7513   15.7155 O   0  0  0  0  0  0  0  0  0  0  0  0
  1  2  1  0
  2  3  2  0
  3  4  1  0
  4  5  2  0
  5  6  1  0
  6  7  2  0
  6  8  1  0
  8  9  1  0
  9 10  1  0
 10 11  1  0
 10 12  1  1
 12 13  2  0
 12 14  1  0
 14 15  1  0
 15 16  1  0
 16 17  1  0
 16 18  1  0
 15 19  1  6
 20 19  1  6
 20 21  1  0
 21 22  1  0
 22 23  1  0
 23 24  1  0
 24 25  1  0
 24 26  1  1
 23 27  1  6
 23 28  1  0
 28 29  2  0
 29 30  1  0
 30 31  2  0
 31 32  1  0
 32 33  2  0
 32 34  1  0
  7  2  1  0
 25 20  1  0
 33 28  1  0
 11  5  1  0
M  CHG  2   9   1  20   1
M  END
$$$$
