
     RDKit          3D

 34 37  0  0  0  0  0  0  0  0999 V2000
    1.7884   -3.8800    8.8012 O   0  0  0  0  0  0  0  0  0  0  0  0
    1.8596   -2.4994    8.8868 C   0  0  0  0  0  0  0  0  0  0  0  0
    2.8670   -1.9053    9.6076 C   0  0  0  0  0  0  0  0  0  0  0  0
    2.9305   -0.5364    9.6875 C   0  0  0  0  0  0  0  0  0  0  0  0
    2.0060    0.2836    9.0616 C   0  0  0  0  0  0  0  0  0  0  0  0
    1.0090   -0.3377    8.3475 C   0  0  0  0  0  0  0  0  0  0  0  0
    0.9113   -1.7059    8.2436 C   0  0  0  0  0  0  0  0  0  0  0  0
    0.0235    0.5899    7.6861 C   0  0  0  0  0  0  0  0  0  0  0  0
   -0.3633    1.5237    8.7261 N   0  0  0  0  0  4  0  0  0  0  0  0
    0.6868    2.3896    9.1377 C   0  0  2  0  0  0  0  0  0  0  0  0
    2.0388    1.7519    9.1178 C   0  0  0  0  0  0  0  0  0  0  0  0
    0.3766    2.8496   10.5607 C   0  0  0  0  0  0  0  0  0  0  0  0
    0.9230    2.1681   11.4410 O   0  0  0  0  0  0  0  0  0  0  0  0
   -0.4548    3.9439   10.7344 N   0  0  0  0  0  0  0  0  0  0  0  0
   -0.9303    4.5056   11.9904 C   0  0  1  0  0  0  0  0  0  0  0  0
   -0.3633    5.8432   12.2188 C   0  0  0  0  0  0  0  0  0  0  0  0
   -0.7244    6.5720   13.4908 C   0  0  0  0  0  0  0  0  0  0  0  0
    1.1810    5.6276   12.3914 C   0  0  0  0  0  0  0  0  0  0  0  0
   -2.3517    4.2221   12.0600 C   0  0  0  0  0  0  0  0  0  0  0  0
   -2.9322    2.9541   12.2074 N   0  0  2  0  0  4  0  0  0  0  0  0
   -4.3693    2.9017   12.2371 C   0  0  0  0  0  0  0  0  0  0  0  0
   -4.7725    1.4787   12.5786 C   0  0  0  0  0  0  0  0  0  0  0  0
   -4.6553    1.3945   14.1032 C   0  0  1  0  0  0  0  0  0  0  0  0
   -3.4197    2.1158   14.4722 C   0  0  2  0  0  0  0  0  0  0  0  0
   -2.3830    2.2454   13.3953 C   0  0  0  0  0  0  0  0  0  0  0  0
   -2.7744    1.5047   15.6839 C   0  0  0  0  0  0  0  0  0  0  0  0
   -5.8110    2.1972   14.7384 C   0  0  0  0  0  0  0  0  0  0  0  0
   -4.8047    0.0025   14.4714 C   0  0  0  0  0  0  0  0  0  0  0  0
   -5.2936   -0.3111   15.7381 C   0  0  0  0  0  0  0  0  0  0  0  0
   -5.4688   -1.6188   16.1370 C   0  0  0  0  0  0  0  0  0  0  0  0
   -5.1664   -2.6551   15.2966 C   0  0  0  0  0  0  0  0  0  0  0  0
   -4.6828   -2.3673   14.0422 C   0  0  0  0  0  0  0  0  0  0  0  0
   -4.5110   -1.0520   13.6520 C   0  0  0  0  0  0  0  0  0  0  0  0
   -4.3824   -3.4321   13.2057 O   0  0  0  0  0  0  0  0  0  0  0  0
  1  2  1  0
  2  3  2  0
  3  4  1  0
  4  5  2  0
  5  6  1  0
  6  7  2  0
  6  8  1  0
  8  9  1  0
  9 10  1  0
 10 11  1  0
 10 12  1  1
 12 13  2  0
 12 14  1  0
 14 15  1  0
 15 16  1  0
 16 17  1  0
 16 18  1  0
 15 19  1  6
 20 19  1  1
 20 21  1  0
 21 22  1  0
 22 23  1  0
 23 24  1  0
 24 25  1  0
 24 26  1  1
 23 27  1  1
 23 28  1  0
 28 29  2  0
 29 30  1  0
 30 31  2  0
 31 32  1  0
 32 33  2  0
 32 34  1  0
  7  2  1  0
 25 20  1  0
 33 28  1  0
 11  5  1  0
M  CHG  2   9   1  20   1
M  END
$$$$
