
     RDKit          3D

 34 37  0  0  0  0  0  0  0  0999 V2000
    1.8167   -5.9984   11.6899 O   0  0  0  0  0  0  0  0  0  0  0  0
    1.6023   -4.9109   10.8595 C   0  0  0  0  0  0  0  0  0  0  0  0
    2.6630   -4.3053   10.2303 C   0  0  0  0  0  0  0  0  0  0  0  0
    2.4421   -3.2279    9.4090 C   0  0  0  0  0  0  0  0  0  0  0  0
    1.1739   -2.7180    9.1847 C   0  0  0  0  0  0  0  0  0  0  0  0
    0.1314   -3.3432    9.8269 C   0  0  0  0  0  0  0  0  0  0  0  0
    0.3118   -4.4248   10.6574 C   0  0  0  0  0  0  0  0  0  0  0  0
   -1.2292   -2.7552    9.5586 C   0  0  0  0  0  0  0  0  0  0  0  0
   -1.0632   -1.3284    9.7580 N   0  0  0  0  0  4  0  0  0  0  0  0
   -0.2326   -0.7071    8.7853 C   0  0  2  0  0  0  0  0  0  0  0  0
    0.8922   -1.5701    8.3111 C   0  0  0  0  0  0  0  0  0  0  0  0
    0.3451    0.5605    9.4115 C   0  0  0  0  0  0  0  0  0  0  0  0
    1.2618    0.3506   10.2200 O   0  0  0  0  0  0  0  0  0  0  0  0
   -0.1855    1.7836    9.0354 N   0  0  0  0  0  0  0  0  0  0  0  0
    0.5222    3.0458    8.8762 C   0  0  1  0  0  0  0  0  0  0  0  0
    0.9724    3.2272    7.4879 C   0  0  0  0  0  0  0  0  0  0  0  0
    1.5346    4.5682    7.0815 C   0  0  0  0  0  0  0  0  0  0  0  0
    2.2148    2.2849    7.3162 C   0  0  0  0  0  0  0  0  0  0  0  0
   -0.2415    4.0441    9.6012 C   0  0  0  0  0  0  0  0  0  0  0  0
   -1.4504    3.8250   10.2774 N   0  0  2  0  0  4  0  0  0  0  0  0
   -2.2152    4.9920   10.6266 C   0  0  0  0  0  0  0  0  0  0  0  0
   -3.3757    4.5408   11.4948 C   0  0  0  0  0  0  0  0  0  0  0  0
   -2.7830    4.4068   12.9006 C   0  0  1  0  0  0  0  0  0  0  0  0
   -1.4542    3.7810   12.7407 C   0  0  2  0  0  0  0  0  0  0  0  0
   -1.2456    2.9830   11.4873 C   0  0  0  0  0  0  0  0  0  0  0  0
   -1.1161    2.9133   13.9200 C   0  0  0  0  0  0  0  0  0  0  0  0
   -2.5131    5.8179   13.4657 C   0  0  0  0  0  0  0  0  0  0  0  0
   -3.7794    3.7617   13.7294 C   0  0  0  0  0  0  0  0  0  0  0  0
   -4.5588    2.7460   13.1793 C   0  0  0  0  0  0  0  0  0  0  0  0
   -5.5129    2.0884   13.9259 C   0  0  0  0  0  0  0  0  0  0  0  0
   -5.7250    2.4146   15.2374 C   0  0  0  0  0  0  0  0  0  0  0  0
   -4.9664    3.4139   15.7994 C   0  0  0  0  0  0  0  0  0  0  0  0
   -4.0119    4.0672   15.0417 C   0  0  0  0  0  0  0  0  0  0  0  0
   -5.1970    3.7293   17.1302 O   0  0  0  0  0  0  0  0  0  0  0  0
  1  2  1  0
  2  3  2  0
  3  4  1  0
  4  5  2  0
  5  6  1  0
  6  7  2  0
  6  8  1  0
  8  9  1  0
  9 10  1  0
 10 11  1  0
 10 12  1  1
 12 13  2  0
 12 14  1  0
 14 15  1  0
 15 16  1  0
 16 17  1  0
 16 18  1  0
 15 19  1  6
 20 19  1  1
 20 21  1  0
 21 22  1  0
 22 23  1  0
 23 24  1  0
 24 25  1  0
 24 26  1  1
 23 27  1  1
 23 28  1  0
 28 29  2  0
 29 30  1  0
 30 31  2  0
 31 32  1  0
 32 33  2  0
 32 34  1  0
  7  2  1  0
 25 20  1  0
 33 28  1  0
 11  5  1  0
M  CHG  2   9   1  20   1
M  END
$$$$
