
     RDKit          3D

 34 37  0  0  0  0  0  0  0  0999 V2000
    2.0711   -5.7251   11.9516 O   0  0  0  0  0  0  0  0  0  0  0  0
    1.7503   -4.6724   11.1105 C   0  0  0  0  0  0  0  0  0  0  0  0
    2.7107   -4.1262   10.2940 C   0  0  0  0  0  0  0  0  0  0  0  0
    2.3846   -3.0831    9.4634 C   0  0  0  0  0  0  0  0  0  0  0  0
    1.1071   -2.5501    9.4137 C   0  0  0  0  0  0  0  0  0  0  0  0
    0.1663   -3.1159   10.2414 C   0  0  0  0  0  0  0  0  0  0  0  0
    0.4537   -4.1617   11.0874 C   0  0  0  0  0  0  0  0  0  0  0  0
   -1.2078   -2.5045   10.1587 C   0  0  0  0  0  0  0  0  0  0  0  0
   -0.9850   -1.0749   10.2571 N   0  0  0  0  0  4  0  0  0  0  0  0
   -0.3054   -0.5228    9.1366 C   0  0  2  0  0  0  0  0  0  0  0  0
    0.7142   -1.4375    8.5375 C   0  0  0  0  0  0  0  0  0  0  0  0
    0.3880    0.7567    9.6000 C   0  0  0  0  0  0  0  0  0  0  0  0
    1.2301    0.5786   10.4928 O   0  0  0  0  0  0  0  0  0  0  0  0
    0.0284    1.9550    9.0052 N   0  0  0  0  0  0  0  0  0  0  0  0
    0.7607    3.2129    9.0318 C   0  0  1  0  0  0  0  0  0  0  0  0
    1.4106    3.4728    7.7385 C   0  0  0  0  0  0  0  0  0  0  0  0
    2.2599    4.7128    7.5944 C   0  0  0  0  0  0  0  0  0  0  0  0
    2.4675    2.3282    7.5549 C   0  0  0  0  0  0  0  0  0  0  0  0
   -0.0939    4.1765    9.7001 C   0  0  0  0  0  0  0  0  0  0  0  0
   -1.2849    3.8875   10.3816 N   0  0  2  0  0  4  0  0  0  0  0  0
   -2.1981    4.9814   10.5776 C   0  0  0  0  0  0  0  0  0  0  0  0
   -3.3178    4.4925   11.4784 C   0  0  0  0  0  0  0  0  0  0  0  0
   -2.7531    4.6010   12.8978 C   0  0  1  0  0  0  0  0  0  0  0  0
   -1.3529    4.1338   12.8321 C   0  0  2  0  0  0  0  0  0  0  0  0
   -1.0116    3.2265   11.6868 C   0  0  0  0  0  0  0  0  0  0  0  0
   -0.9434    3.4608   14.1117 C   0  0  0  0  0  0  0  0  0  0  0  0
   -2.6762    6.0915   13.2925 C   0  0  0  0  0  0  0  0  0  0  0  0
   -3.6848    3.9372   13.7849 C   0  0  0  0  0  0  0  0  0  0  0  0
   -4.4956    2.9247   13.2759 C   0  0  0  0  0  0  0  0  0  0  0  0
   -5.3909    2.2498   14.0778 C   0  0  0  0  0  0  0  0  0  0  0  0
   -5.5117    2.5552   15.4059 C   0  0  0  0  0  0  0  0  0  0  0  0
   -4.7207    3.5511   15.9280 C   0  0  0  0  0  0  0  0  0  0  0  0
   -3.8257    4.2217   15.1149 C   0  0  0  0  0  0  0  0  0  0  0  0
   -4.8585    3.8452   17.2765 O   0  0  0  0  0  0  0  0  0  0  0  0
  1  2  1  0
  2  3  2  0
  3  4  1  0
  4  5  2  0
  5  6  1  0
  6  7  2  0
  6  8  1  0
  8  9  1  0
  9 10  1  0
 10 11  1  0
 10 12  1  1
 12 13  2  0
 12 14  1  0
 14 15  1  0
 15 16  1  0
 16 17  1  0
 16 18  1  0
 15 19  1  6
 20 19  1  1
 20 21  1  0
 21 22  1  0
 22 23  1  0
 23 24  1  0
 24 25  1  0
 24 26  1  1
 23 27  1  1
 23 28  1  0
 28 29  2  0
 29 30  1  0
 30 31  2  0
 31 32  1  0
 32 33  2  0
 32 34  1  0
  7  2  1  0
 25 20  1  0
 33 28  1  0
 11  5  1  0
M  CHG  2   9   1  20   1
M  END
$$$$
