
     RDKit          3D

 34 37  0  0  0  0  0  0  0  0999 V2000
    1.7442   -5.8126   11.4228 O   0  0  0  0  0  0  0  0  0  0  0  0
    1.4294   -4.7227   10.6282 C   0  0  0  0  0  0  0  0  0  0  0  0
    2.3530   -4.2296    9.7387 C   0  0  0  0  0  0  0  0  0  0  0  0
    2.0332   -3.1491    8.9548 C   0  0  0  0  0  0  0  0  0  0  0  0
    0.7983   -2.5256    9.0247 C   0  0  0  0  0  0  0  0  0  0  0  0
   -0.1063   -3.0399    9.9232 C   0  0  0  0  0  0  0  0  0  0  0  0
    0.1762   -4.1207   10.7259 C   0  0  0  0  0  0  0  0  0  0  0  0
   -1.4343   -2.3307    9.9698 C   0  0  0  0  0  0  0  0  0  0  0  0
   -1.1005   -0.9230   10.0688 N   0  0  0  0  0  4  0  0  0  0  0  0
   -0.4817   -0.3977    8.9012 C   0  0  2  0  0  0  0  0  0  0  0  0
    0.4132   -1.3701    8.2021 C   0  0  0  0  0  0  0  0  0  0  0  0
    0.3401    0.8194    9.3204 C   0  0  0  0  0  0  0  0  0  0  0  0
    1.3473    0.5417    9.9885 O   0  0  0  0  0  0  0  0  0  0  0  0
   -0.0957    2.0758    8.9322 N   0  0  0  0  0  0  0  0  0  0  0  0
    0.5458    3.3564    9.1928 C   0  0  1  0  0  0  0  0  0  0  0  0
    1.3997    3.7583    8.0650 C   0  0  0  0  0  0  0  0  0  0  0  0
    2.5243    2.8408    7.6491 C   0  0  0  0  0  0  0  0  0  0  0  0
    0.4729    3.7357    6.7995 C   0  0  0  0  0  0  0  0  0  0  0  0
   -0.4688    4.2191    9.7689 C   0  0  0  0  0  0  0  0  0  0  0  0
   -1.5813    3.7992   10.5123 N   0  0  2  0  0  4  0  0  0  0  0  0
   -2.7350    4.6578   10.4880 C   0  0  0  0  0  0  0  0  0  0  0  0
   -3.7389    4.1107   11.4866 C   0  0  0  0  0  0  0  0  0  0  0  0
   -3.2692    4.6420   12.8439 C   0  0  1  0  0  0  0  0  0  0  0  0
   -1.7966    4.5219   12.8578 C   0  0  2  0  0  0  0  0  0  0  0  0
   -1.2071    3.5071   11.9229 C   0  0  0  0  0  0  0  0  0  0  0  0
   -1.2865    4.2458   14.2440 C   0  0  0  0  0  0  0  0  0  0  0  0
   -3.5637    6.1557   12.9171 C   0  0  0  0  0  0  0  0  0  0  0  0
   -4.0485    3.9715   13.8631 C   0  0  0  0  0  0  0  0  0  0  0  0
   -4.6814    4.7371   14.8404 C   0  0  0  0  0  0  0  0  0  0  0  0
   -5.4468    4.1527   15.8267 C   0  0  0  0  0  0  0  0  0  0  0  0
   -5.6097    2.7953   15.8766 C   0  0  0  0  0  0  0  0  0  0  0  0
   -4.9938    2.0218   14.9214 C   0  0  0  0  0  0  0  0  0  0  0  0
   -4.2282    2.6180   13.9363 C   0  0  0  0  0  0  0  0  0  0  0  0
   -5.1715    0.6479   14.9897 O   0  0  0  0  0  0  0  0  0  0  0  0
  1  2  1  0
  2  3  2  0
  3  4  1  0
  4  5  2  0
  5  6  1  0
  6  7  2  0
  6  8  1  0
  8  9  1  0
  9 10  1  0
 10 11  1  0
 10 12  1  1
 12 13  2  0
 12 14  1  0
 14 15  1  0
 15 16  1  0
 16 17  1  0
 16 18  1  0
 15 19  1  6
 20 19  1  1
 20 21  1  0
 21 22  1  0
 22 23  1  0
 23 24  1  0
 24 25  1  0
 24 26  1  1
 23 27  1  6
 23 28  1  0
 28 29  2  0
 29 30  1  0
 30 31  2  0
 31 32  1  0
 32 33  2  0
 32 34  1  0
  7  2  1  0
 25 20  1  0
 33 28  1  0
 11  5  1  0
M  CHG  2   9   1  20   1
M  END
$$$$
