
     RDKit          3D

 34 37  0  0  0  0  0  0  0  0999 V2000
   -6.7436    3.2317   15.6340 O   0  0  0  0  0  0  0  0  0  0  0  0
   -5.5733    3.5904   14.9858 C   0  0  0  0  0  0  0  0  0  0  0  0
   -5.5410    4.7127   14.1940 C   0  0  0  0  0  0  0  0  0  0  0  0
   -4.3772    5.0613   13.5550 C   0  0  0  0  0  0  0  0  0  0  0  0
   -3.2158    4.3165   13.6775 C   0  0  0  0  0  0  0  0  0  0  0  0
   -3.2768    3.1989   14.4757 C   0  0  0  0  0  0  0  0  0  0  0  0
   -4.4235    2.8165   15.1324 C   0  0  0  0  0  0  0  0  0  0  0  0
   -1.9940    2.4162   14.5785 C   0  0  0  0  0  0  0  0  0  0  0  0
   -1.5483    2.2517   13.2084 N   0  0  0  0  0  4  0  0  0  0  0  0
   -1.1499    3.4665   12.5859 C   0  0  2  0  0  0  0  0  0  0  0  0
   -1.9483    4.6554   13.0150 C   0  0  0  0  0  0  0  0  0  0  0  0
   -1.3023    3.2854   11.0771 C   0  0  0  0  0  0  0  0  0  0  0  0
   -2.4697    3.3909   10.6721 O   0  0  0  0  0  0  0  0  0  0  0  0
   -0.1675    3.0292   10.3250 N   0  0  0  0  0  0  0  0  0  0  0  0
   -0.0354    3.0745    8.8759 C   0  0  1  0  0  0  0  0  0  0  0  0
    0.5551    4.3486    8.4392 C   0  0  0  0  0  0  0  0  0  0  0  0
    0.6331    4.6376    6.9594 C   0  0  0  0  0  0  0  0  0  0  0  0
   -0.4246    5.4665    8.9406 C   0  0  0  0  0  0  0  0  0  0  0  0
    0.4745    1.7796    8.4651 C   0  0  0  0  0  0  0  0  0  0  0  0
    0.7915    0.7115    9.3167 N   0  0  2  0  0  4  0  0  0  0  0  0
    1.9959   -0.0161    9.0186 C   0  0  0  0  0  0  0  0  0  0  0  0
    2.0489   -1.2195    9.9423 C   0  0  0  0  0  0  0  0  0  0  0  0
    1.1527   -2.2656    9.2732 C   0  0  1  0  0  0  0  0  0  0  0  0
   -0.0332   -1.5441    8.7671 C   0  0  2  0  0  0  0  0  0  0  0  0
   -0.3480   -0.2384    9.4360 C   0  0  0  0  0  0  0  0  0  0  0  0
   -1.2591   -2.4118    8.8148 C   0  0  0  0  0  0  0  0  0  0  0  0
    1.8720   -2.8128    8.0216 C   0  0  0  0  0  0  0  0  0  0  0  0
    0.9783   -3.3507   10.2153 C   0  0  0  0  0  0  0  0  0  0  0  0
    1.1721   -4.6599    9.7791 C   0  0  0  0  0  0  0  0  0  0  0  0
    1.0325   -5.7306   10.6360 C   0  0  0  0  0  0  0  0  0  0  0  0
    0.6977   -5.5397   11.9486 C   0  0  0  0  0  0  0  0  0  0  0  0
    0.5022   -4.2556   12.3992 C   0  0  0  0  0  0  0  0  0  0  0  0
    0.6448   -3.1887   11.5314 C   0  0  0  0  0  0  0  0  0  0  0  0
    0.1634   -4.0837   13.7332 O   0  0  0  0  0  0  0  0  0  0  0  0
  1  2  1  0
  2  3  2  0
  3  4  1  0
  4  5  2  0
  5  6  1  0
  6  7  2  0
  6  8  1  0
  8  9  1  0
  9 10  1  0
 10 11  1  0
 10 12  1  6
 12 13  2  0
 12 14  1  0
 14 15  1  0
 15 16  1  0
 16 17  1  0
 16 18  1  0
 15 19  1  1
 20 19  1  6
 20 21  1  0
 21 22  1  0
 22 23  1  0
 23 24  1  0
 24 25  1  0
 24 26  1  1
 23 27  1  6
 23 28  1  0
 28 29  2  0
 29 30  1  0
 30 31  2  0
 31 32  1  0
 32 33  2  0
 32 34  1  0
  7  2  1  0
 25 20  1  0
 33 28  1  0
 11  5  1  0
M  CHG  2   9   1  20   1
M  END
$$$$
