
     RDKit          3D

 34 37  0  0  0  0  0  0  0  0999 V2000
    2.1771   -5.6716   11.3630 O   0  0  0  0  0  0  0  0  0  0  0  0
    1.6547   -4.6319   10.6118 C   0  0  0  0  0  0  0  0  0  0  0  0
    2.3905   -4.0838    9.5891 C   0  0  0  0  0  0  0  0  0  0  0  0
    1.8655   -3.0536    8.8493 C   0  0  0  0  0  0  0  0  0  0  0  0
    0.6046   -2.5356    9.0952 C   0  0  0  0  0  0  0  0  0  0  0  0
   -0.1093   -3.1028   10.1241 C   0  0  0  0  0  0  0  0  0  0  0  0
    0.3817   -4.1360   10.8880 C   0  0  0  0  0  0  0  0  0  0  0  0
   -1.4729   -2.5078   10.3598 C   0  0  0  0  0  0  0  0  0  0  0  0
   -1.2525   -1.0749   10.3919 N   0  0  0  0  0  4  0  0  0  0  0  0
   -0.8608   -0.5275    9.1394 C   0  0  2  0  0  0  0  0  0  0  0  0
    0.0030   -1.4371    8.3260 C   0  0  0  0  0  0  0  0  0  0  0  0
   -0.0957    0.7647    9.4177 C   0  0  0  0  0  0  0  0  0  0  0  0
    0.6346    0.7125   10.4187 O   0  0  0  0  0  0  0  0  0  0  0  0
   -0.2787    1.8379    8.5610 N   0  0  0  0  0  0  0  0  0  0  0  0
    0.1230    3.2208    8.7740 C   0  0  1  0  0  0  0  0  0  0  0  0
    1.0930    3.6516    7.7559 C   0  0  0  0  0  0  0  0  0  0  0  0
    1.8510    4.9378    7.9806 C   0  0  0  0  0  0  0  0  0  0  0  0
    2.2423    2.5843    7.7836 C   0  0  0  0  0  0  0  0  0  0  0  0
   -1.0859    3.9610    9.0839 C   0  0  0  0  0  0  0  0  0  0  0  0
   -2.0734    3.5776   10.0028 N   0  0  2  0  0  4  0  0  0  0  0  0
   -3.2711    4.3735   10.0327 C   0  0  0  0  0  0  0  0  0  0  0  0
   -4.1125    3.8979   11.2032 C   0  0  0  0  0  0  0  0  0  0  0  0
   -3.5153    4.6015   12.4253 C   0  0  1  0  0  0  0  0  0  0  0  0
   -2.0473    4.5520   12.2656 C   0  0  2  0  0  0  0  0  0  0  0  0
   -1.5150    3.4657   11.3778 C   0  0  0  0  0  0  0  0  0  0  0  0
   -1.3580    4.4595   13.5976 C   0  0  0  0  0  0  0  0  0  0  0  0
   -3.8892    6.0985   12.3723 C   0  0  0  0  0  0  0  0  0  0  0  0
   -4.1243    4.0161   13.6009 C   0  0  0  0  0  0  0  0  0  0  0  0
   -5.0351    2.9739   13.4401 C   0  0  0  0  0  0  0  0  0  0  0  0
   -5.6351    2.3705   14.5246 C   0  0  0  0  0  0  0  0  0  0  0  0
   -5.3530    2.7788   15.7995 C   0  0  0  0  0  0  0  0  0  0  0  0
   -4.4568    3.8055   15.9799 C   0  0  0  0  0  0  0  0  0  0  0  0
   -3.8605    4.4039   14.8852 C   0  0  0  0  0  0  0  0  0  0  0  0
   -4.1845    4.2043   17.2802 O   0  0  0  0  0  0  0  0  0  0  0  0
  1  2  1  0
  2  3  2  0
  3  4  1  0
  4  5  2  0
  5  6  1  0
  6  7  2  0
  6  8  1  0
  8  9  1  0
  9 10  1  0
 10 11  1  0
 10 12  1  1
 12 13  2  0
 12 14  1  0
 14 15  1  0
 15 16  1  0
 16 17  1  0
 16 18  1  0
 15 19  1  6
 20 19  1  6
 20 21  1  0
 21 22  1  0
 22 23  1  0
 23 24  1  0
 24 25  1  0
 24 26  1  1
 23 27  1  6
 23 28  1  0
 28 29  2  0
 29 30  1  0
 30 31  2  0
 31 32  1  0
 32 33  2  0
 32 34  1  0
  7  2  1  0
 25 20  1  0
 33 28  1  0
 11  5  1  0
M  CHG  2   9   1  20   1
M  END
$$$$
