
     RDKit          3D

 34 37  0  0  0  0  0  0  0  0999 V2000
    1.9454   -5.9742   11.4077 O   0  0  0  0  0  0  0  0  0  0  0  0
    1.5520   -4.9201   10.5999 C   0  0  0  0  0  0  0  0  0  0  0  0
    2.4226   -4.4017    9.6721 C   0  0  0  0  0  0  0  0  0  0  0  0
    2.0250   -3.3570    8.8753 C   0  0  0  0  0  0  0  0  0  0  0  0
    0.7625   -2.7951    8.9696 C   0  0  0  0  0  0  0  0  0  0  0  0
   -0.0877   -3.3335    9.9064 C   0  0  0  0  0  0  0  0  0  0  0  0
    0.2732   -4.3799   10.7230 C   0  0  0  0  0  0  0  0  0  0  0  0
   -1.4483   -2.6912    9.9784 C   0  0  0  0  0  0  0  0  0  0  0  0
   -1.1840   -1.2665   10.0368 N   0  0  0  0  0  4  0  0  0  0  0  0
   -0.6276   -0.7378    8.8398 C   0  0  2  0  0  0  0  0  0  0  0  0
    0.2948   -1.6797    8.1346 C   0  0  0  0  0  0  0  0  0  0  0  0
    0.1431    0.5285    9.2073 C   0  0  0  0  0  0  0  0  0  0  0  0
    0.9487    0.3761   10.1377 O   0  0  0  0  0  0  0  0  0  0  0  0
   -0.1165    1.6890    8.4967 N   0  0  0  0  0  0  0  0  0  0  0  0
    0.5113    2.9915    8.6660 C   0  0  1  0  0  0  0  0  0  0  0  0
    1.3758    3.3137    7.5208 C   0  0  0  0  0  0  0  0  0  0  0  0
    2.4374    4.3732    7.6942 C   0  0  0  0  0  0  0  0  0  0  0  0
    2.2354    2.0276    7.2604 C   0  0  0  0  0  0  0  0  0  0  0  0
   -0.5173    3.8865    9.1625 C   0  0  0  0  0  0  0  0  0  0  0  0
   -1.5951    3.5269    9.9844 N   0  0  2  0  0  4  0  0  0  0  0  0
   -2.7335    4.4060    9.9772 C   0  0  0  0  0  0  0  0  0  0  0  0
   -3.6913    3.9299   11.0544 C   0  0  0  0  0  0  0  0  0  0  0  0
   -3.1399    4.5195   12.3559 C   0  0  1  0  0  0  0  0  0  0  0  0
   -1.6710    4.3709   12.2978 C   0  0  2  0  0  0  0  0  0  0  0  0
   -1.1504    3.2988   11.3862 C   0  0  0  0  0  0  0  0  0  0  0  0
   -1.0916    4.1548   13.6673 C   0  0  0  0  0  0  0  0  0  0  0  0
   -3.4040    6.0405   12.3668 C   0  0  0  0  0  0  0  0  0  0  0  0
   -3.8745    3.9168   13.4480 C   0  0  0  0  0  0  0  0  0  0  0  0
   -4.4039    4.7401   14.4398 C   0  0  0  0  0  0  0  0  0  0  0  0
   -5.1232    4.2218   15.4953 C   0  0  0  0  0  0  0  0  0  0  0  0
   -5.3408    2.8754   15.6021 C   0  0  0  0  0  0  0  0  0  0  0  0
   -4.8271    2.0456   14.6338 C   0  0  0  0  0  0  0  0  0  0  0  0
   -4.1071    2.5758   13.5791 C   0  0  0  0  0  0  0  0  0  0  0  0
   -5.0590    0.6840   14.7605 O   0  0  0  0  0  0  0  0  0  0  0  0
  1  2  1  0
  2  3  2  0
  3  4  1  0
  4  5  2  0
  5  6  1  0
  6  7  2  0
  6  8  1  0
  8  9  1  0
  9 10  1  0
 10 11  1  0
 10 12  1  1
 12 13  2  0
 12 14  1  0
 14 15  1  0
 15 16  1  0
 16 17  1  0
 16 18  1  0
 15 19  1  6
 20 19  1  6
 20 21  1  0
 21 22  1  0
 22 23  1  0
 23 24  1  0
 24 25  1  0
 24 26  1  1
 23 27  1  6
 23 28  1  0
 28 29  2  0
 29 30  1  0
 30 31  2  0
 31 32  1  0
 32 33  2  0
 32 34  1  0
  7  2  1  0
 25 20  1  0
 33 28  1  0
 11  5  1  0
M  CHG  2   9   1  20   1
M  END
$$$$
