
     RDKit          3D

 34 37  0  0  0  0  0  0  0  0999 V2000
    2.1773   -5.7550   11.7106 O   0  0  0  0  0  0  0  0  0  0  0  0
    1.8746   -4.7418   10.8162 C   0  0  0  0  0  0  0  0  0  0  0  0
    2.8758   -4.1391   10.0938 C   0  0  0  0  0  0  0  0  0  0  0  0
    2.5674   -3.1356    9.2094 C   0  0  0  0  0  0  0  0  0  0  0  0
    1.2679   -2.6987    9.0121 C   0  0  0  0  0  0  0  0  0  0  0  0
    0.2863   -3.3193    9.7479 C   0  0  0  0  0  0  0  0  0  0  0  0
    0.5549   -4.3281   10.6437 C   0  0  0  0  0  0  0  0  0  0  0  0
   -1.1111   -2.8118    9.5057 C   0  0  0  0  0  0  0  0  0  0  0  0
   -1.0027   -1.3684    9.5941 N   0  0  0  0  0  4  0  0  0  0  0  0
   -0.2477   -0.7851    8.5398 C   0  0  2  0  0  0  0  0  0  0  0  0
    0.8931   -1.6315    8.0736 C   0  0  0  0  0  0  0  0  0  0  0  0
    0.2987    0.5488    9.0445 C   0  0  0  0  0  0  0  0  0  0  0  0
    1.1631    0.4380    9.9268 O   0  0  0  0  0  0  0  0  0  0  0  0
   -0.2005    1.7176    8.4935 N   0  0  0  0  0  0  0  0  0  0  0  0
    0.3374    3.0633    8.6316 C   0  0  1  0  0  0  0  0  0  0  0  0
    1.1197    3.4434    7.4457 C   0  0  0  0  0  0  0  0  0  0  0  0
    1.6997    4.8358    7.3802 C   0  0  0  0  0  0  0  0  0  0  0  0
    2.4099    2.5519    7.4824 C   0  0  0  0  0  0  0  0  0  0  0  0
   -0.7289    3.8825    9.1768 C   0  0  0  0  0  0  0  0  0  0  0  0
   -1.6806    3.4732   10.1219 N   0  0  2  0  0  4  0  0  0  0  0  0
   -2.8390    4.3118   10.2761 C   0  0  0  0  0  0  0  0  0  0  0  0
   -3.6354    3.7866   11.4569 C   0  0  0  0  0  0  0  0  0  0  0  0
   -2.9422    4.3757   12.6889 C   0  0  1  0  0  0  0  0  0  0  0  0
   -1.4887    4.2796   12.4420 C   0  0  2  0  0  0  0  0  0  0  0  0
   -1.0536    3.2401   11.4513 C   0  0  0  0  0  0  0  0  0  0  0  0
   -0.7326    4.0637   13.7224 C   0  0  0  0  0  0  0  0  0  0  0  0
   -3.2526    5.8862   12.7624 C   0  0  0  0  0  0  0  0  0  0  0  0
   -3.5113    3.7315   13.8537 C   0  0  0  0  0  0  0  0  0  0  0  0
   -2.6711    3.3832   14.9093 C   0  0  0  0  0  0  0  0  0  0  0  0
   -3.1605    2.7800   16.0481 C   0  0  0  0  0  0  0  0  0  0  0  0
   -4.4940    2.5033   16.1775 C   0  0  0  0  0  0  0  0  0  0  0  0
   -5.3402    2.8391   15.1474 C   0  0  0  0  0  0  0  0  0  0  0  0
   -4.8389    3.4440   14.0095 C   0  0  0  0  0  0  0  0  0  0  0  0
   -6.6883    2.5501   15.2985 O   0  0  0  0  0  0  0  0  0  0  0  0
  1  2  1  0
  2  3  2  0
  3  4  1  0
  4  5  2  0
  5  6  1  0
  6  7  2  0
  6  8  1  0
  8  9  1  0
  9 10  1  0
 10 11  1  0
 10 12  1  1
 12 13  2  0
 12 14  1  0
 14 15  1  0
 15 16  1  0
 16 17  1  0
 16 18  1  0
 15 19  1  6
 20 19  1  6
 20 21  1  0
 21 22  1  0
 22 23  1  0
 23 24  1  0
 24 25  1  0
 24 26  1  1
 23 27  1  1
 23 28  1  0
 28 29  2  0
 29 30  1  0
 30 31  2  0
 31 32  1  0
 32 33  2  0
 32 34  1  0
  7  2  1  0
 25 20  1  0
 33 28  1  0
 11  5  1  0
M  CHG  2   9   1  20   1
M  END
$$$$
