
     RDKit          3D

 33 36  0  0  0  0  0  0  0  0999 V2000
   -1.6923   -0.6328    5.0278 C   0  0  0  0  0  0  0  0  0  0  0  0
   -2.1260   -0.9595    6.3121 O   0  0  0  0  0  0  0  0  0  0  0  0
   -2.1132   -0.1187    7.3946 C   0  0  0  0  0  0  0  0  0  0  0  0
   -3.1269   -0.1838    8.3269 C   0  0  0  0  0  0  0  0  0  0  0  0
   -3.0706    0.6610    9.3710 N   0  0  0  0  0  0  0  0  0  0  0  0
   -2.0873    1.5586    9.5538 C   0  0  0  0  0  0  0  0  0  0  0  0
   -1.0584    1.6510    8.6417 C   0  0  0  0  0  0  0  0  0  0  0  0
   -1.0947    0.7946    7.5625 C   0  0  0  0  0  0  0  0  0  0  0  0
    0.0082    2.5887    8.7917 N   0  0  0  0  0  0  0  0  0  0  0  0
    0.8826    2.4601    9.9026 C   0  0  0  0  0  0  0  0  0  0  0  0
    0.6933    1.5038   10.7450 O   0  0  0  0  0  0  0  0  0  0  0  0
    1.9491    3.3591   10.0957 N   0  0  0  0  0  0  0  0  0  0  0  0
    2.2626    4.4509    9.2420 C   0  0  0  0  0  0  0  0  0  0  0  0
    1.5842    4.7988    8.1071 C   0  0  0  0  0  0  0  0  0  0  0  0
    0.1914    3.8311    7.6273 S   0  0  0  0  0  6  0  0  0  0  0  0
    0.5027    3.2853    6.2607 O   0  0  0  0  0  0  0  0  0  0  0  0
   -0.9923    4.7579    7.6005 O   0  0  0  0  0  0  0  0  0  0  0  0
    1.9659    5.8683    7.3538 C   0  0  0  0  0  0  0  0  0  0  0  0
    3.0488    6.6220    7.7252 C   0  0  0  0  0  0  0  0  0  0  0  0
    3.7411    6.2839    8.8648 C   0  0  0  0  0  0  0  0  0  0  0  0
    3.3382    5.2305    9.5769 N   0  0  0  0  0  0  0  0  0  0  0  0
    2.8097    3.1509   11.2771 C   0  0  0  0  0  0  0  0  0  0  0  0
    3.6413    1.9525   11.1260 C   0  0  0  0  0  0  0  0  0  0  0  0
    4.6598    1.6467   11.9966 C   0  0  0  0  0  0  0  0  0  0  0  0
    5.3986    0.4978   11.7860 C   0  0  0  0  0  0  0  0  0  0  0  0
    5.1698   -0.3702   10.7396 C   0  0  0  0  0  0  0  0  0  0  0  0
    4.1397   -0.0452    9.8735 C   0  0  0  0  0  0  0  0  0  0  0  0
    3.3928    1.0999   10.0715 C   0  0  0  0  0  0  0  0  0  0  0  0
    2.3888    1.3847    9.1983 F   0  0  0  0  0  0  0  0  0  0  0  0
    5.9200   -1.5017   10.5578 F   0  0  0  0  0  0  0  0  0  0  0  0
    4.9515    2.4525   13.0570 F   0  0  0  0  0  0  0  0  0  0  0  0
   -4.1824   -1.1023    8.1893 O   0  0  0  0  0  0  0  0  0  0  0  0
   -5.4974   -0.5902    8.0808 C   0  0  0  0  0  0  0  0  0  0  0  0
  1  2  1  0
  2  3  1  0
  3  4  2  0
  4  5  1  0
  5  6  2  0
  6  7  1  0
  7  8  2  0
  7  9  1  0
  9 10  1  0
 10 11  2  0
 10 12  1  0
 12 13  1  0
 13 14  2  0
 14 15  1  0
 15 16  2  0
 15 17  2  0
 14 18  1  0
 18 19  2  0
 19 20  1  0
 20 21  2  0
 12 22  1  0
 22 23  1  0
 23 24  2  0
 24 25  1  0
 25 26  2  0
 26 27  1  0
 27 28  2  0
 28 29  1  0
 26 30  1  0
 24 31  1  0
  4 32  1  0
 32 33  1  0
  8  3  1  0
 15  9  1  0
 21 13  1  0
 28 23  1  0
M  END
$$$$
