
     RDKit          3D

 33 36  0  0  0  0  0  0  0  0999 V2000
    3.9142   -2.3535    9.8537 C   0  0  0  0  0  0  0  0  0  0  0  0
    4.1665   -1.7153   11.0674 O   0  0  0  0  0  0  0  0  0  0  0  0
    3.4545   -0.6595   11.5748 C   0  0  0  0  0  0  0  0  0  0  0  0
    3.0136   -0.6926   12.8808 C   0  0  0  0  0  0  0  0  0  0  0  0
    2.3195    0.3661   13.3328 N   0  0  0  0  0  0  0  0  0  0  0  0
    2.0343    1.4466   12.5864 C   0  0  0  0  0  0  0  0  0  0  0  0
    2.4594    1.5132   11.2771 C   0  0  0  0  0  0  0  0  0  0  0  0
    3.1731    0.4391   10.7913 C   0  0  0  0  0  0  0  0  0  0  0  0
    2.1807    2.6392   10.4441 N   0  0  0  0  0  0  0  0  0  0  0  0
    0.8665    2.8053    9.9334 C   0  0  0  0  0  0  0  0  0  0  0  0
   -0.0392    1.9394   10.2332 O   0  0  0  0  0  0  0  0  0  0  0  0
    0.5408    3.8984    9.1076 N   0  0  0  0  0  0  0  0  0  0  0  0
    1.4458    4.9175    8.7057 C   0  0  0  0  0  0  0  0  0  0  0  0
    2.7653    4.9978    9.0542 C   0  0  0  0  0  0  0  0  0  0  0  0
    3.4408    3.7447   10.0933 S   0  0  0  0  0  6  0  0  0  0  0  0
    3.9436    4.4409   11.3281 O   0  0  0  0  0  0  0  0  0  0  0  0
    4.5593    3.0989    9.3235 O   0  0  0  0  0  0  0  0  0  0  0  0
    3.5528    6.0195    8.6147 C   0  0  0  0  0  0  0  0  0  0  0  0
    3.0294    6.9950    7.8065 C   0  0  0  0  0  0  0  0  0  0  0  0
    1.7031    6.9273    7.4476 C   0  0  0  0  0  0  0  0  0  0  0  0
    0.9633    5.9125    7.8971 N   0  0  0  0  0  0  0  0  0  0  0  0
   -0.8501    3.9939    8.6217 C   0  0  0  0  0  0  0  0  0  0  0  0
   -1.0459    3.1967    7.4065 C   0  0  0  0  0  0  0  0  0  0  0  0
   -0.9782    3.7427    6.1470 C   0  0  0  0  0  0  0  0  0  0  0  0
   -1.1743    2.9242    5.0508 C   0  0  0  0  0  0  0  0  0  0  0  0
   -1.4373    1.5745    5.1491 C   0  0  0  0  0  0  0  0  0  0  0  0
   -1.5016    1.0429    6.4259 C   0  0  0  0  0  0  0  0  0  0  0  0
   -1.3077    1.8488    7.5309 C   0  0  0  0  0  0  0  0  0  0  0  0
   -1.3788    1.2889    8.7691 F   0  0  0  0  0  0  0  0  0  0  0  0
   -1.6272    0.7895    4.0428 F   0  0  0  0  0  0  0  0  0  0  0  0
   -0.7225    5.0691    5.9626 F   0  0  0  0  0  0  0  0  0  0  0  0
    3.2813   -1.7959   13.7099 O   0  0  0  0  0  0  0  0  0  0  0  0
    2.1839   -2.4470   14.3224 C   0  0  0  0  0  0  0  0  0  0  0  0
  1  2  1  0
  2  3  1  0
  3  4  2  0
  4  5  1  0
  5  6  2  0
  6  7  1  0
  7  8  2  0
  7  9  1  0
  9 10  1  0
 10 11  2  0
 10 12  1  0
 12 13  1  0
 13 14  2  0
 14 15  1  0
 15 16  2  0
 15 17  2  0
 14 18  1  0
 18 19  2  0
 19 20  1  0
 20 21  2  0
 12 22  1  0
 22 23  1  0
 23 24  2  0
 24 25  1  0
 25 26  2  0
 26 27  1  0
 27 28  2  0
 28 29  1  0
 26 30  1  0
 24 31  1  0
  4 32  1  0
 32 33  1  0
  8  3  1  0
 15  9  1  0
 21 13  1  0
 28 23  1  0
M  END
$$$$
