
     RDKit          3D

 33 36  0  0  0  0  0  0  0  0999 V2000
    3.1653    1.0598   14.2545 C   0  0  0  0  0  0  0  0  0  0  0  0
    3.5143   -0.1054   13.5730 O   0  0  0  0  0  0  0  0  0  0  0  0
    3.4239   -0.2926   12.2181 C   0  0  0  0  0  0  0  0  0  0  0  0
    4.2385   -1.2151   11.5962 C   0  0  0  0  0  0  0  0  0  0  0  0
    4.1130   -1.3630   10.2661 N   0  0  0  0  0  0  0  0  0  0  0  0
    3.2432   -0.6659    9.5155 C   0  0  0  0  0  0  0  0  0  0  0  0
    2.4139    0.2642   10.1040 C   0  0  0  0  0  0  0  0  0  0  0  0
    2.5245    0.4334   11.4673 C   0  0  0  0  0  0  0  0  0  0  0  0
    1.4742    1.0300    9.3491 N   0  0  0  0  0  0  0  0  0  0  0  0
    1.5680    2.4463    9.3724 C   0  0  0  0  0  0  0  0  0  0  0  0
    2.4955    3.0040   10.0714 O   0  0  0  0  0  0  0  0  0  0  0  0
    0.6655    3.2462    8.6454 N   0  0  0  0  0  0  0  0  0  0  0  0
   -0.3967    2.7547    7.8397 C   0  0  0  0  0  0  0  0  0  0  0  0
   -0.7084    1.4380    7.6441 C   0  0  0  0  0  0  0  0  0  0  0  0
    0.2714    0.2115    8.4455 S   0  0  0  0  0  6  0  0  0  0  0  0
    0.8628   -0.6398    7.3556 O   0  0  0  0  0  0  0  0  0  0  0  0
   -0.6567   -0.5775    9.3269 O   0  0  0  0  0  0  0  0  0  0  0  0
   -1.7515    1.0678    6.8491 C   0  0  0  0  0  0  0  0  0  0  0  0
   -2.5146    2.0201    6.2250 C   0  0  0  0  0  0  0  0  0  0  0  0
   -2.2128    3.3491    6.4126 C   0  0  0  0  0  0  0  0  0  0  0  0
   -1.1844    3.6734    7.1977 N   0  0  0  0  0  0  0  0  0  0  0  0
    0.8365    4.7105    8.7257 C   0  0  0  0  0  0  0  0  0  0  0  0
    1.4737    5.2397    7.5155 C   0  0  0  0  0  0  0  0  0  0  0  0
    1.9015    6.5420    7.4162 C   0  0  0  0  0  0  0  0  0  0  0  0
    2.4933    6.9648    6.2409 C   0  0  0  0  0  0  0  0  0  0  0  0
    2.6815    6.1450    5.1486 C   0  0  0  0  0  0  0  0  0  0  0  0
    2.2442    4.8367    5.2678 C   0  0  0  0  0  0  0  0  0  0  0  0
    1.6509    4.4001    6.4364 C   0  0  0  0  0  0  0  0  0  0  0  0
    1.2343    3.1071    6.5146 F   0  0  0  0  0  0  0  0  0  0  0  0
    3.2718    6.5942    3.9971 F   0  0  0  0  0  0  0  0  0  0  0  0
    1.7527    7.4176    8.4506 F   0  0  0  0  0  0  0  0  0  0  0  0
    5.1678   -1.9740   12.3291 O   0  0  0  0  0  0  0  0  0  0  0  0
    5.5056   -3.2593   11.8421 C   0  0  0  0  0  0  0  0  0  0  0  0
  1  2  1  0
  2  3  1  0
  3  4  2  0
  4  5  1  0
  5  6  2  0
  6  7  1  0
  7  8  2  0
  7  9  1  0
  9 10  1  0
 10 11  2  0
 10 12  1  0
 12 13  1  0
 13 14  2  0
 14 15  1  0
 15 16  2  0
 15 17  2  0
 14 18  1  0
 18 19  2  0
 19 20  1  0
 20 21  2  0
 12 22  1  0
 22 23  1  0
 23 24  2  0
 24 25  1  0
 25 26  2  0
 26 27  1  0
 27 28  2  0
 28 29  1  0
 26 30  1  0
 24 31  1  0
  4 32  1  0
 32 33  1  0
  8  3  1  0
 15  9  1  0
 21 13  1  0
 28 23  1  0
M  END
$$$$
