
     RDKit          3D

 33 36  0  0  0  0  0  0  0  0999 V2000
   -1.7519   -1.2933    6.8844 C   0  0  0  0  0  0  0  0  0  0  0  0
   -1.1714   -1.8626    8.0171 O   0  0  0  0  0  0  0  0  0  0  0  0
   -0.0924   -1.3599    8.6968 C   0  0  0  0  0  0  0  0  0  0  0  0
    0.8150   -2.2201    9.2780 C   0  0  0  0  0  0  0  0  0  0  0  0
    1.8566   -1.6797    9.9337 N   0  0  0  0  0  0  0  0  0  0  0  0
    2.0597   -0.3566   10.0525 C   0  0  0  0  0  0  0  0  0  0  0  0
    1.1728    0.5319    9.4840 C   0  0  0  0  0  0  0  0  0  0  0  0
    0.0966    0.0010    8.8063 C   0  0  0  0  0  0  0  0  0  0  0  0
    1.3451    1.9461    9.5835 N   0  0  0  0  0  0  0  0  0  0  0  0
    1.8024    2.6625    8.4463 C   0  0  0  0  0  0  0  0  0  0  0  0
    2.0496    2.0215    7.3564 O   0  0  0  0  0  0  0  0  0  0  0  0
    1.9887    4.0574    8.4931 N   0  0  0  0  0  0  0  0  0  0  0  0
    1.7524    4.8761    9.6302 C   0  0  0  0  0  0  0  0  0  0  0  0
    1.3103    4.4429   10.8492 C   0  0  0  0  0  0  0  0  0  0  0  0
    0.9940    2.7230   11.0689 S   0  0  0  0  0  6  0  0  0  0  0  0
   -0.4579    2.6015   11.4424 O   0  0  0  0  0  0  0  0  0  0  0  0
    1.8954    2.2541   12.1772 O   0  0  0  0  0  0  0  0  0  0  0  0
    1.1142    5.3114   11.8809 C   0  0  0  0  0  0  0  0  0  0  0  0
    1.3596    6.6493   11.7120 C   0  0  0  0  0  0  0  0  0  0  0  0
    1.8048    7.0998   10.4909 C   0  0  0  0  0  0  0  0  0  0  0  0
    1.9852    6.2202    9.5044 N   0  0  0  0  0  0  0  0  0  0  0  0
    2.4662    4.7221    7.2642 C   0  0  0  0  0  0  0  0  0  0  0  0
    1.3468    5.1199    6.4043 C   0  0  0  0  0  0  0  0  0  0  0  0
    0.3923    4.2285    5.9762 C   0  0  0  0  0  0  0  0  0  0  0  0
   -0.6324    4.6817    5.1669 C   0  0  0  0  0  0  0  0  0  0  0  0
   -0.7537    5.9931    4.7593 C   0  0  0  0  0  0  0  0  0  0  0  0
    0.2173    6.8759    5.2007 C   0  0  0  0  0  0  0  0  0  0  0  0
    1.2473    6.4372    6.0100 C   0  0  0  0  0  0  0  0  0  0  0  0
    2.1822    7.3355    6.4231 F   0  0  0  0  0  0  0  0  0  0  0  0
   -1.7816    6.4115    3.9565 F   0  0  0  0  0  0  0  0  0  0  0  0
    0.4394    2.9137    6.3340 F   0  0  0  0  0  0  0  0  0  0  0  0
    0.6552   -3.6139    9.1873 O   0  0  0  0  0  0  0  0  0  0  0  0
    0.6972   -4.3658   10.3857 C   0  0  0  0  0  0  0  0  0  0  0  0
  1  2  1  0
  2  3  1  0
  3  4  2  0
  4  5  1  0
  5  6  2  0
  6  7  1  0
  7  8  2  0
  7  9  1  0
  9 10  1  0
 10 11  2  0
 10 12  1  0
 12 13  1  0
 13 14  2  0
 14 15  1  0
 15 16  2  0
 15 17  2  0
 14 18  1  0
 18 19  2  0
 19 20  1  0
 20 21  2  0
 12 22  1  0
 22 23  1  0
 23 24  2  0
 24 25  1  0
 25 26  2  0
 26 27  1  0
 27 28  2  0
 28 29  1  0
 26 30  1  0
 24 31  1  0
  4 32  1  0
 32 33  1  0
  8  3  1  0
 15  9  1  0
 21 13  1  0
 28 23  1  0
M  END
$$$$
