
     RDKit          3D

 33 36  0  0  0  0  0  0  0  0999 V2000
   -1.9131    1.1390    5.0173 C   0  0  0  0  0  0  0  0  0  0  0  0
   -1.8871    1.8222    6.2324 O   0  0  0  0  0  0  0  0  0  0  0  0
   -1.0441    2.8564    6.5465 C   0  0  0  0  0  0  0  0  0  0  0  0
   -1.0057    3.9786    5.7463 C   0  0  0  0  0  0  0  0  0  0  0  0
   -0.1631    4.9661    6.0952 N   0  0  0  0  0  0  0  0  0  0  0  0
    0.6377    4.9191    7.1734 C   0  0  0  0  0  0  0  0  0  0  0  0
    0.6252    3.8128    7.9951 C   0  0  0  0  0  0  0  0  0  0  0  0
   -0.2311    2.7871    7.6574 C   0  0  0  0  0  0  0  0  0  0  0  0
    1.4578    3.7155    9.1513 N   0  0  0  0  0  0  0  0  0  0  0  0
    2.2622    2.5582    9.3212 C   0  0  0  0  0  0  0  0  0  0  0  0
    2.2217    1.6275    8.4311 O   0  0  0  0  0  0  0  0  0  0  0  0
    3.0999    2.4141   10.4438 N   0  0  0  0  0  0  0  0  0  0  0  0
    3.2338    3.3650   11.4912 C   0  0  0  0  0  0  0  0  0  0  0  0
    2.5761    4.5606   11.5745 C   0  0  0  0  0  0  0  0  0  0  0  0
    1.4541    4.9971   10.2873 S   0  0  0  0  0  6  0  0  0  0  0  0
    1.9653    6.2813    9.6943 O   0  0  0  0  0  0  0  0  0  0  0  0
    0.1064    5.1777   10.9292 O   0  0  0  0  0  0  0  0  0  0  0  0
    2.7744    5.4062   12.6246 C   0  0  0  0  0  0  0  0  0  0  0  0
    3.6466    5.0686   13.6266 C   0  0  0  0  0  0  0  0  0  0  0  0
    4.3156    3.8687   13.5562 C   0  0  0  0  0  0  0  0  0  0  0  0
    4.0960    3.0667   12.5133 N   0  0  0  0  0  0  0  0  0  0  0  0
    3.9028    1.1789   10.5401 C   0  0  0  0  0  0  0  0  0  0  0  0
    3.2252    0.1651   11.3547 C   0  0  0  0  0  0  0  0  0  0  0  0
    1.9172    0.2947   11.7562 C   0  0  0  0  0  0  0  0  0  0  0  0
    1.3497   -0.7054   12.5230 C   0  0  0  0  0  0  0  0  0  0  0  0
    2.0288   -1.8398   12.9134 C   0  0  0  0  0  0  0  0  0  0  0  0
    3.3451   -1.9524   12.4993 C   0  0  0  0  0  0  0  0  0  0  0  0
    3.9256   -0.9607   11.7325 C   0  0  0  0  0  0  0  0  0  0  0  0
    5.2217   -1.1081   11.3452 F   0  0  0  0  0  0  0  0  0  0  0  0
    1.4380   -2.8138   13.6740 F   0  0  0  0  0  0  0  0  0  0  0  0
    1.1755    1.3860   11.4129 F   0  0  0  0  0  0  0  0  0  0  0  0
   -1.8201    4.0851    4.6053 O   0  0  0  0  0  0  0  0  0  0  0  0
   -2.3040    5.3678    4.2531 C   0  0  0  0  0  0  0  0  0  0  0  0
  1  2  1  0
  2  3  1  0
  3  4  2  0
  4  5  1  0
  5  6  2  0
  6  7  1  0
  7  8  2  0
  7  9  1  0
  9 10  1  0
 10 11  2  0
 10 12  1  0
 12 13  1  0
 13 14  2  0
 14 15  1  0
 15 16  2  0
 15 17  2  0
 14 18  1  0
 18 19  2  0
 19 20  1  0
 20 21  2  0
 12 22  1  0
 22 23  1  0
 23 24  2  0
 24 25  1  0
 25 26  2  0
 26 27  1  0
 27 28  2  0
 28 29  1  0
 26 30  1  0
 24 31  1  0
  4 32  1  0
 32 33  1  0
  8  3  1  0
 15  9  1  0
 21 13  1  0
 28 23  1  0
M  END
$$$$
