
     RDKit          3D

 33 36  0  0  0  0  0  0  0  0999 V2000
    1.2067    3.3275    4.1184 C   0  0  0  0  0  0  0  0  0  0  0  0
   -0.0149    2.9218    4.6541 O   0  0  0  0  0  0  0  0  0  0  0  0
   -0.2060    2.4336    5.9206 C   0  0  0  0  0  0  0  0  0  0  0  0
   -1.2010    1.5090    6.1575 C   0  0  0  0  0  0  0  0  0  0  0  0
   -1.3496    1.0597    7.4156 N   0  0  0  0  0  0  0  0  0  0  0  0
   -0.5867    1.4598    8.4471 C   0  0  0  0  0  0  0  0  0  0  0  0
    0.4170    2.3827    8.2463 C   0  0  0  0  0  0  0  0  0  0  0  0
    0.5883    2.8579    6.9641 C   0  0  0  0  0  0  0  0  0  0  0  0
    1.2532    2.8393    9.3100 N   0  0  0  0  0  0  0  0  0  0  0  0
    2.4083    2.0853    9.6457 C   0  0  0  0  0  0  0  0  0  0  0  0
    2.6729    1.0116    8.9846 O   0  0  0  0  0  0  0  0  0  0  0  0
    3.2648    2.4929   10.6864 N   0  0  0  0  0  0  0  0  0  0  0  0
    3.0839    3.6527   11.4871 C   0  0  0  0  0  0  0  0  0  0  0  0
    2.0581    4.5496   11.3751 C   0  0  0  0  0  0  0  0  0  0  0  0
    0.8314    4.2773   10.1392 S   0  0  0  0  0  6  0  0  0  0  0  0
    0.8611    5.4807    9.2374 O   0  0  0  0  0  0  0  0  0  0  0  0
   -0.4848    4.1500   10.8549 O   0  0  0  0  0  0  0  0  0  0  0  0
    1.9738    5.6350   12.1947 C   0  0  0  0  0  0  0  0  0  0  0  0
    2.9269    5.8485   13.1563 C   0  0  0  0  0  0  0  0  0  0  0  0
    3.9649    4.9545   13.2808 C   0  0  0  0  0  0  0  0  0  0  0  0
    4.0144    3.9037   12.4608 N   0  0  0  0  0  0  0  0  0  0  0  0
    4.4438    1.6498   10.9675 C   0  0  0  0  0  0  0  0  0  0  0  0
    4.0470    0.3130   11.4212 C   0  0  0  0  0  0  0  0  0  0  0  0
    4.0064   -0.7708   10.5770 C   0  0  0  0  0  0  0  0  0  0  0  0
    3.6216   -1.9987   11.0815 C   0  0  0  0  0  0  0  0  0  0  0  0
    3.2717   -2.2015   12.3995 C   0  0  0  0  0  0  0  0  0  0  0  0
    3.3188   -1.0979   13.2343 C   0  0  0  0  0  0  0  0  0  0  0  0
    3.7015    0.1356   12.7440 C   0  0  0  0  0  0  0  0  0  0  0  0
    3.7351    1.1959   13.5961 F   0  0  0  0  0  0  0  0  0  0  0  0
    2.8945   -3.4316   12.8693 F   0  0  0  0  0  0  0  0  0  0  0  0
    4.3371   -0.6554    9.2594 F   0  0  0  0  0  0  0  0  0  0  0  0
   -2.0308    1.0528    5.1184 O   0  0  0  0  0  0  0  0  0  0  0  0
   -3.4262    1.0144    5.3521 C   0  0  0  0  0  0  0  0  0  0  0  0
  1  2  1  0
  2  3  1  0
  3  4  2  0
  4  5  1  0
  5  6  2  0
  6  7  1  0
  7  8  2  0
  7  9  1  0
  9 10  1  0
 10 11  2  0
 10 12  1  0
 12 13  1  0
 13 14  2  0
 14 15  1  0
 15 16  2  0
 15 17  2  0
 14 18  1  0
 18 19  2  0
 19 20  1  0
 20 21  2  0
 12 22  1  0
 22 23  1  0
 23 24  2  0
 24 25  1  0
 25 26  2  0
 26 27  1  0
 27 28  2  0
 28 29  1  0
 26 30  1  0
 24 31  1  0
  4 32  1  0
 32 33  1  0
  8  3  1  0
 15  9  1  0
 21 13  1  0
 28 23  1  0
M  END
$$$$
