
     RDKit          3D

 33 36  0  0  0  0  0  0  0  0999 V2000
   -2.2461    5.0020    5.5525 C   0  0  0  0  0  0  0  0  0  0  0  0
   -2.2339    3.6081    5.5221 O   0  0  0  0  0  0  0  0  0  0  0  0
   -1.4180    2.8025    6.2734 C   0  0  0  0  0  0  0  0  0  0  0  0
   -1.4958    1.4322    6.1419 C   0  0  0  0  0  0  0  0  0  0  0  0
   -0.6755    0.6843    6.8999 N   0  0  0  0  0  0  0  0  0  0  0  0
    0.2096    1.1961    7.7722 C   0  0  0  0  0  0  0  0  0  0  0  0
    0.3140    2.5612    7.9291 C   0  0  0  0  0  0  0  0  0  0  0  0
   -0.5173    3.3488    7.1622 C   0  0  0  0  0  0  0  0  0  0  0  0
    1.2381    3.1525    8.8433 N   0  0  0  0  0  0  0  0  0  0  0  0
    2.2194    2.3287    9.4547 C   0  0  0  0  0  0  0  0  0  0  0  0
    2.2522    1.0725    9.1706 O   0  0  0  0  0  0  0  0  0  0  0  0
    3.1531    2.8632   10.3632 N   0  0  0  0  0  0  0  0  0  0  0  0
    3.2214    4.2266   10.7579 C   0  0  0  0  0  0  0  0  0  0  0  0
    2.3984    5.2273   10.3219 C   0  0  0  0  0  0  0  0  0  0  0  0
    1.1275    4.8307    9.1669 S   0  0  0  0  0  6  0  0  0  0  0  0
    1.3909    5.6624    7.9417 O   0  0  0  0  0  0  0  0  0  0  0  0
   -0.1786    5.1946    9.8169 O   0  0  0  0  0  0  0  0  0  0  0  0
    2.5463    6.5083   10.7625 C   0  0  0  0  0  0  0  0  0  0  0  0
    3.5341    6.8188   11.6606 C   0  0  0  0  0  0  0  0  0  0  0  0
    4.3699    5.8222   12.1082 C   0  0  0  0  0  0  0  0  0  0  0  0
    4.1948    4.5800   11.6547 N   0  0  0  0  0  0  0  0  0  0  0  0
    4.1391    1.9349   10.9513 C   0  0  0  0  0  0  0  0  0  0  0  0
    3.5162    1.0565   11.9468 C   0  0  0  0  0  0  0  0  0  0  0  0
    3.8522    1.0961   13.2789 C   0  0  0  0  0  0  0  0  0  0  0  0
    3.2191    0.2350   14.1552 C   0  0  0  0  0  0  0  0  0  0  0  0
    2.2578   -0.6729   13.7651 C   0  0  0  0  0  0  0  0  0  0  0  0
    1.9329   -0.6979   12.4194 C   0  0  0  0  0  0  0  0  0  0  0  0
    2.5573    0.1570   11.5319 C   0  0  0  0  0  0  0  0  0  0  0  0
    2.2104    0.1020   10.2173 F   0  0  0  0  0  0  0  0  0  0  0  0
    1.6483   -1.5136   14.6583 F   0  0  0  0  0  0  0  0  0  0  0  0
    4.7932    1.9647   13.7468 F   0  0  0  0  0  0  0  0  0  0  0  0
   -2.4022    0.8389    5.2458 O   0  0  0  0  0  0  0  0  0  0  0  0
   -2.0261   -0.3794    4.6314 C   0  0  0  0  0  0  0  0  0  0  0  0
  1  2  1  0
  2  3  1  0
  3  4  2  0
  4  5  1  0
  5  6  2  0
  6  7  1  0
  7  8  2  0
  7  9  1  0
  9 10  1  0
 10 11  2  0
 10 12  1  0
 12 13  1  0
 13 14  2  0
 14 15  1  0
 15 16  2  0
 15 17  2  0
 14 18  1  0
 18 19  2  0
 19 20  1  0
 20 21  2  0
 12 22  1  0
 22 23  1  0
 23 24  2  0
 24 25  1  0
 25 26  2  0
 26 27  1  0
 27 28  2  0
 28 29  1  0
 26 30  1  0
 24 31  1  0
  4 32  1  0
 32 33  1  0
  8  3  1  0
 15  9  1  0
 21 13  1  0
 28 23  1  0
M  END
$$$$
