
     RDKit          3D

 33 36  0  0  0  0  0  0  0  0999 V2000
    4.5018   -1.8819   12.2796 C   0  0  0  0  0  0  0  0  0  0  0  0
    3.2700   -2.0588   11.6507 O   0  0  0  0  0  0  0  0  0  0  0  0
    2.2565   -1.1368   11.6115 C   0  0  0  0  0  0  0  0  0  0  0  0
    1.0330   -1.4366   12.1719 C   0  0  0  0  0  0  0  0  0  0  0  0
    0.0705   -0.5004   12.1086 N   0  0  0  0  0  0  0  0  0  0  0  0
    0.2351    0.7028   11.5330 C   0  0  0  0  0  0  0  0  0  0  0  0
    1.4449    1.0359   10.9630 C   0  0  0  0  0  0  0  0  0  0  0  0
    2.4472    0.0915   11.0158 C   0  0  0  0  0  0  0  0  0  0  0  0
    1.6683    2.3009   10.3392 N   0  0  0  0  0  0  0  0  0  0  0  0
    1.7761    2.3581    8.9248 C   0  0  0  0  0  0  0  0  0  0  0  0
    1.6698    1.2712    8.2412 O   0  0  0  0  0  0  0  0  0  0  0  0
    1.9965    3.5806    8.2618 N   0  0  0  0  0  0  0  0  0  0  0  0
    2.1310    4.8435    8.8991 C   0  0  0  0  0  0  0  0  0  0  0  0
    2.0683    5.0701   10.2459 C   0  0  0  0  0  0  0  0  0  0  0  0
    1.7975    3.6991   11.3198 S   0  0  0  0  0  6  0  0  0  0  0  0
    0.5237    3.9876   12.0657 O   0  0  0  0  0  0  0  0  0  0  0  0
    2.9813    3.6317   12.2445 O   0  0  0  0  0  0  0  0  0  0  0  0
    2.2104    6.3240   10.7604 C   0  0  0  0  0  0  0  0  0  0  0  0
    2.4209    7.3915    9.9268 C   0  0  0  0  0  0  0  0  0  0  0  0
    2.4864    7.1787    8.5693 C   0  0  0  0  0  0  0  0  0  0  0  0
    2.3428    5.9376    8.1023 N   0  0  0  0  0  0  0  0  0  0  0  0
    2.0948    3.5484    6.7890 C   0  0  0  0  0  0  0  0  0  0  0  0
    0.9995    4.2981    6.1654 C   0  0  0  0  0  0  0  0  0  0  0  0
    1.1876    5.5245    5.5744 C   0  0  0  0  0  0  0  0  0  0  0  0
    0.1038    6.1683    5.0077 C   0  0  0  0  0  0  0  0  0  0  0  0
   -1.1714    5.6443    5.0011 C   0  0  0  0  0  0  0  0  0  0  0  0
   -1.3410    4.4081    5.6012 C   0  0  0  0  0  0  0  0  0  0  0  0
   -0.2668    3.7530    6.1716 C   0  0  0  0  0  0  0  0  0  0  0  0
   -0.4741    2.5397    6.7517 F   0  0  0  0  0  0  0  0  0  0  0  0
   -2.2256    6.3074    4.4310 F   0  0  0  0  0  0  0  0  0  0  0  0
    2.4172    6.1125    5.5382 F   0  0  0  0  0  0  0  0  0  0  0  0
    0.8012   -2.6789   12.7880 O   0  0  0  0  0  0  0  0  0  0  0  0
   -0.2979   -3.4482   12.3369 C   0  0  0  0  0  0  0  0  0  0  0  0
  1  2  1  0
  2  3  1  0
  3  4  2  0
  4  5  1  0
  5  6  2  0
  6  7  1  0
  7  8  2  0
  7  9  1  0
  9 10  1  0
 10 11  2  0
 10 12  1  0
 12 13  1  0
 13 14  2  0
 14 15  1  0
 15 16  2  0
 15 17  2  0
 14 18  1  0
 18 19  2  0
 19 20  1  0
 20 21  2  0
 12 22  1  0
 22 23  1  0
 23 24  2  0
 24 25  1  0
 25 26  2  0
 26 27  1  0
 27 28  2  0
 28 29  1  0
 26 30  1  0
 24 31  1  0
  4 32  1  0
 32 33  1  0
  8  3  1  0
 15  9  1  0
 21 13  1  0
 28 23  1  0
M  END
$$$$
