
     RDKit          3D

 33 36  0  0  0  0  0  0  0  0999 V2000
   -1.3744   -1.1210    6.9992 C   0  0  0  0  0  0  0  0  0  0  0  0
   -0.9792   -1.5410    8.2685 O   0  0  0  0  0  0  0  0  0  0  0  0
    0.0611   -1.0182    8.9920 C   0  0  0  0  0  0  0  0  0  0  0  0
    0.8842   -1.8554    9.7151 C   0  0  0  0  0  0  0  0  0  0  0  0
    1.8907   -1.2960   10.4085 N   0  0  0  0  0  0  0  0  0  0  0  0
    2.1362    0.0250   10.4350 C   0  0  0  0  0  0  0  0  0  0  0  0
    1.3336    0.8909    9.7240 C   0  0  0  0  0  0  0  0  0  0  0  0
    0.2948    0.3401    9.0050 C   0  0  0  0  0  0  0  0  0  0  0  0
    1.5535    2.3019    9.7212 N   0  0  0  0  0  0  0  0  0  0  0  0
    1.9300    2.9345    8.5073 C   0  0  0  0  0  0  0  0  0  0  0  0
    2.0633    2.2226    7.4418 O   0  0  0  0  0  0  0  0  0  0  0  0
    2.1587    4.3228    8.4521 N   0  0  0  0  0  0  0  0  0  0  0  0
    2.0454    5.2144    9.5527 C   0  0  0  0  0  0  0  0  0  0  0  0
    1.6992    4.8686   10.8293 C   0  0  0  0  0  0  0  0  0  0  0  0
    1.3550    3.1761   11.1805 S   0  0  0  0  0  6  0  0  0  0  0  0
   -0.0617    3.1251   11.6831 O   0  0  0  0  0  0  0  0  0  0  0  0
    2.3359    2.7436   12.2348 O   0  0  0  0  0  0  0  0  0  0  0  0
    1.6180    5.8024   11.8186 C   0  0  0  0  0  0  0  0  0  0  0  0
    1.8852    7.1191   11.5474 C   0  0  0  0  0  0  0  0  0  0  0  0
    2.2349    7.4819   10.2674 C   0  0  0  0  0  0  0  0  0  0  0  0
    2.3040    6.5403    9.3252 N   0  0  0  0  0  0  0  0  0  0  0  0
    2.5458    4.8977    7.1485 C   0  0  0  0  0  0  0  0  0  0  0  0
    1.3735    5.1263    6.2978 C   0  0  0  0  0  0  0  0  0  0  0  0
    0.8387    4.1441    5.4990 C   0  0  0  0  0  0  0  0  0  0  0  0
   -0.2683    4.4385    4.7255 C   0  0  0  0  0  0  0  0  0  0  0  0
   -0.8746    5.6766    4.7089 C   0  0  0  0  0  0  0  0  0  0  0  0
   -0.3215    6.6529    5.5200 C   0  0  0  0  0  0  0  0  0  0  0  0
    0.7848    6.3730    6.2985 C   0  0  0  0  0  0  0  0  0  0  0  0
    1.2990    7.3593    7.0824 F   0  0  0  0  0  0  0  0  0  0  0  0
   -1.9713    5.9373    3.9309 F   0  0  0  0  0  0  0  0  0  0  0  0
    1.3785    2.8928    5.4572 F   0  0  0  0  0  0  0  0  0  0  0  0
    0.6769   -3.2459    9.7259 O   0  0  0  0  0  0  0  0  0  0  0  0
    0.6306   -3.8999   10.9803 C   0  0  0  0  0  0  0  0  0  0  0  0
  1  2  1  0
  2  3  1  0
  3  4  2  0
  4  5  1  0
  5  6  2  0
  6  7  1  0
  7  8  2  0
  7  9  1  0
  9 10  1  0
 10 11  2  0
 10 12  1  0
 12 13  1  0
 13 14  2  0
 14 15  1  0
 15 16  2  0
 15 17  2  0
 14 18  1  0
 18 19  2  0
 19 20  1  0
 20 21  2  0
 12 22  1  0
 22 23  1  0
 23 24  2  0
 24 25  1  0
 25 26  2  0
 26 27  1  0
 27 28  2  0
 28 29  1  0
 26 30  1  0
 24 31  1  0
  4 32  1  0
 32 33  1  0
  8  3  1  0
 15  9  1  0
 21 13  1  0
 28 23  1  0
M  END
$$$$
