
     RDKit          3D

 33 36  0  0  0  0  0  0  0  0999 V2000
   -1.7187   -1.5529    5.7825 C   0  0  0  0  0  0  0  0  0  0  0  0
   -2.1536   -1.3918    7.0974 O   0  0  0  0  0  0  0  0  0  0  0  0
   -1.6065   -0.5356    8.0175 C   0  0  0  0  0  0  0  0  0  0  0  0
   -1.5719   -0.8895    9.3497 C   0  0  0  0  0  0  0  0  0  0  0  0
   -1.0256   -0.0169   10.2139 N   0  0  0  0  0  0  0  0  0  0  0  0
   -0.5152    1.1726    9.8525 C   0  0  0  0  0  0  0  0  0  0  0  0
   -0.5332    1.5585    8.5296 C   0  0  0  0  0  0  0  0  0  0  0  0
   -1.0886    0.6799    7.6248 C   0  0  0  0  0  0  0  0  0  0  0  0
   -0.0040    2.8123    8.0966 N   0  0  0  0  0  0  0  0  0  0  0  0
    0.9411    3.4785    8.9202 C   0  0  0  0  0  0  0  0  0  0  0  0
    1.2970    2.9375   10.0340 O   0  0  0  0  0  0  0  0  0  0  0  0
    1.4922    4.7168    8.5384 N   0  0  0  0  0  0  0  0  0  0  0  0
    1.1830    5.4144    7.3398 C   0  0  0  0  0  0  0  0  0  0  0  0
    0.3085    4.9976    6.3750 C   0  0  0  0  0  0  0  0  0  0  0  0
   -0.5289    3.4635    6.6021 S   0  0  0  0  0  6  0  0  0  0  0  0
   -0.1442    2.5921    5.4381 O   0  0  0  0  0  0  0  0  0  0  0  0
   -2.0011    3.7692    6.6064 O   0  0  0  0  0  0  0  0  0  0  0  0
    0.0800    5.7424    5.2569 C   0  0  0  0  0  0  0  0  0  0  0  0
    0.7303    6.9356    5.0785 C   0  0  0  0  0  0  0  0  0  0  0  0
    1.6131    7.3679    6.0408 C   0  0  0  0  0  0  0  0  0  0  0  0
    1.8113    6.6121    7.1219 N   0  0  0  0  0  0  0  0  0  0  0  0
    2.4686    5.3389    9.4546 C   0  0  0  0  0  0  0  0  0  0  0  0
    3.3249    4.3297   10.0860 C   0  0  0  0  0  0  0  0  0  0  0  0
    3.2364    4.0181   11.4217 C   0  0  0  0  0  0  0  0  0  0  0  0
    4.0795    3.0545   11.9420 C   0  0  0  0  0  0  0  0  0  0  0  0
    5.0160    2.3791   11.1888 C   0  0  0  0  0  0  0  0  0  0  0  0
    5.0902    2.7066    9.8456 C   0  0  0  0  0  0  0  0  0  0  0  0
    4.2539    3.6678    9.3117 C   0  0  0  0  0  0  0  0  0  0  0  0
    4.3575    3.9617    7.9871 F   0  0  0  0  0  0  0  0  0  0  0  0
    5.8377    1.4286   11.7343 F   0  0  0  0  0  0  0  0  0  0  0  0
    2.3369    4.6398   12.2361 F   0  0  0  0  0  0  0  0  0  0  0  0
   -2.0905   -2.1207    9.7877 O   0  0  0  0  0  0  0  0  0  0  0  0
   -1.4585   -2.7542   10.8842 C   0  0  0  0  0  0  0  0  0  0  0  0
  1  2  1  0
  2  3  1  0
  3  4  2  0
  4  5  1  0
  5  6  2  0
  6  7  1  0
  7  8  2  0
  7  9  1  0
  9 10  1  0
 10 11  2  0
 10 12  1  0
 12 13  1  0
 13 14  2  0
 14 15  1  0
 15 16  2  0
 15 17  2  0
 14 18  1  0
 18 19  2  0
 19 20  1  0
 20 21  2  0
 12 22  1  0
 22 23  1  0
 23 24  2  0
 24 25  1  0
 25 26  2  0
 26 27  1  0
 27 28  2  0
 28 29  1  0
 26 30  1  0
 24 31  1  0
  4 32  1  0
 32 33  1  0
  8  3  1  0
 15  9  1  0
 21 13  1  0
 28 23  1  0
M  END
$$$$
