
     RDKit          3D

 33 36  0  0  0  0  0  0  0  0999 V2000
    2.9104   -2.6265    7.8266 C   0  0  0  0  0  0  0  0  0  0  0  0
    1.5716   -2.5503    8.2084 O   0  0  0  0  0  0  0  0  0  0  0  0
    0.9845   -1.4877    8.8449 C   0  0  0  0  0  0  0  0  0  0  0  0
   -0.2170   -1.6575    9.4995 C   0  0  0  0  0  0  0  0  0  0  0  0
   -0.7534   -0.5861   10.1088 N   0  0  0  0  0  0  0  0  0  0  0  0
   -0.1862    0.6323   10.1143 C   0  0  0  0  0  0  0  0  0  0  0  0
    1.0145    0.8378    9.4700 C   0  0  0  0  0  0  0  0  0  0  0  0
    1.5838   -0.2465    8.8379 C   0  0  0  0  0  0  0  0  0  0  0  0
    1.6559    2.1136    9.4471 N   0  0  0  0  0  0  0  0  0  0  0  0
    1.9040    2.7336    8.1944 C   0  0  0  0  0  0  0  0  0  0  0  0
    1.5454    2.1324    7.1128 O   0  0  0  0  0  0  0  0  0  0  0  0
    2.5337    3.9908    8.1180 N   0  0  0  0  0  0  0  0  0  0  0  0
    2.9751    4.7530    9.2330 C   0  0  0  0  0  0  0  0  0  0  0  0
    2.8595    4.3898   10.5459 C   0  0  0  0  0  0  0  0  0  0  0  0
    2.1009    2.8460   10.9299 S   0  0  0  0  0  6  0  0  0  0  0  0
    0.9059    3.1604   11.7875 O   0  0  0  0  0  0  0  0  0  0  0  0
    3.1232    2.0337   11.6755 O   0  0  0  0  0  0  0  0  0  0  0  0
    3.3166    5.1946   11.5461 C   0  0  0  0  0  0  0  0  0  0  0  0
    3.9068    6.3956   11.2495 C   0  0  0  0  0  0  0  0  0  0  0  0
    4.0300    6.7743    9.9328 C   0  0  0  0  0  0  0  0  0  0  0  0
    3.5709    5.9606    8.9809 N   0  0  0  0  0  0  0  0  0  0  0  0
    2.7517    4.5625    6.7744 C   0  0  0  0  0  0  0  0  0  0  0  0
    1.4810    4.9135    6.1320 C   0  0  0  0  0  0  0  0  0  0  0  0
    0.8143    4.0508    5.2952 C   0  0  0  0  0  0  0  0  0  0  0  0
   -0.3792    4.4561    4.7281 C   0  0  0  0  0  0  0  0  0  0  0  0
   -0.9466    5.6916    4.9564 C   0  0  0  0  0  0  0  0  0  0  0  0
   -0.2604    6.5466    5.8020 C   0  0  0  0  0  0  0  0  0  0  0  0
    0.9336    6.1551    6.3760 C   0  0  0  0  0  0  0  0  0  0  0  0
    1.5780    7.0239    7.2016 F   0  0  0  0  0  0  0  0  0  0  0  0
   -2.1316    6.0640    4.3791 F   0  0  0  0  0  0  0  0  0  0  0  0
    1.3075    2.8105    5.0172 F   0  0  0  0  0  0  0  0  0  0  0  0
   -0.8580   -2.9084    9.5281 O   0  0  0  0  0  0  0  0  0  0  0  0
   -2.1757   -2.9903    9.0178 C   0  0  0  0  0  0  0  0  0  0  0  0
  1  2  1  0
  2  3  1  0
  3  4  2  0
  4  5  1  0
  5  6  2  0
  6  7  1  0
  7  8  2  0
  7  9  1  0
  9 10  1  0
 10 11  2  0
 10 12  1  0
 12 13  1  0
 13 14  2  0
 14 15  1  0
 15 16  2  0
 15 17  2  0
 14 18  1  0
 18 19  2  0
 19 20  1  0
 20 21  2  0
 12 22  1  0
 22 23  1  0
 23 24  2  0
 24 25  1  0
 25 26  2  0
 26 27  1  0
 27 28  2  0
 28 29  1  0
 26 30  1  0
 24 31  1  0
  4 32  1  0
 32 33  1  0
  8  3  1  0
 15  9  1  0
 21 13  1  0
 28 23  1  0
M  END
$$$$
