
     RDKit          3D

 33 36  0  0  0  0  0  0  0  0999 V2000
   -1.0725   -1.2754   12.4578 C   0  0  0  0  0  0  0  0  0  0  0  0
   -1.3016   -1.1789   11.0859 O   0  0  0  0  0  0  0  0  0  0  0  0
   -0.3780   -0.7922   10.1498 C   0  0  0  0  0  0  0  0  0  0  0  0
   -0.0147   -1.6615    9.1431 C   0  0  0  0  0  0  0  0  0  0  0  0
    0.8946   -1.2368    8.2489 N   0  0  0  0  0  0  0  0  0  0  0  0
    1.4644   -0.0201    8.2828 C   0  0  0  0  0  0  0  0  0  0  0  0
    1.1247    0.8740    9.2750 C   0  0  0  0  0  0  0  0  0  0  0  0
    0.1940    0.4607   10.2036 C   0  0  0  0  0  0  0  0  0  0  0  0
    1.7029    2.1774    9.3537 N   0  0  0  0  0  0  0  0  0  0  0  0
    0.9270    3.2967    8.9530 C   0  0  0  0  0  0  0  0  0  0  0  0
   -0.2755    3.1097    8.5300 O   0  0  0  0  0  0  0  0  0  0  0  0
    1.4511    4.6024    9.0113 N   0  0  0  0  0  0  0  0  0  0  0  0
    2.7575    4.9397    9.4571 C   0  0  0  0  0  0  0  0  0  0  0  0
    3.7050    4.0574    9.8965 C   0  0  0  0  0  0  0  0  0  0  0  0
    3.3083    2.3404    9.9277 S   0  0  0  0  0  6  0  0  0  0  0  0
    3.4459    1.8976   11.3585 O   0  0  0  0  0  0  0  0  0  0  0  0
    4.2998    1.6497    9.0330 O   0  0  0  0  0  0  0  0  0  0  0  0
    4.9336    4.4828   10.3045 C   0  0  0  0  0  0  0  0  0  0  0  0
    5.2440    5.8176   10.2810 C   0  0  0  0  0  0  0  0  0  0  0  0
    4.3006    6.7171    9.8413 C   0  0  0  0  0  0  0  0  0  0  0  0
    3.1089    6.2638    9.4498 N   0  0  0  0  0  0  0  0  0  0  0  0
    0.5747    5.7079    8.5761 C   0  0  0  0  0  0  0  0  0  0  0  0
    0.6585    5.9154    7.1268 C   0  0  0  0  0  0  0  0  0  0  0  0
   -0.0714    6.8814    6.4763 C   0  0  0  0  0  0  0  0  0  0  0  0
    0.0634    7.0142    5.1072 C   0  0  0  0  0  0  0  0  0  0  0  0
    0.8983    6.2235    4.3468 C   0  0  0  0  0  0  0  0  0  0  0  0
    1.6251    5.2561    5.0199 C   0  0  0  0  0  0  0  0  0  0  0  0
    1.5007    5.1118    6.3881 C   0  0  0  0  0  0  0  0  0  0  0  0
    2.2319    4.1494    7.0132 F   0  0  0  0  0  0  0  0  0  0  0  0
    1.0099    6.3799    2.9907 F   0  0  0  0  0  0  0  0  0  0  0  0
   -0.9202    7.7049    7.1547 F   0  0  0  0  0  0  0  0  0  0  0  0
   -0.5766   -2.9472    9.0560 O   0  0  0  0  0  0  0  0  0  0  0  0
   -0.8259   -3.4762    7.7671 C   0  0  0  0  0  0  0  0  0  0  0  0
  1  2  1  0
  2  3  1  0
  3  4  2  0
  4  5  1  0
  5  6  2  0
  6  7  1  0
  7  8  2  0
  7  9  1  0
  9 10  1  0
 10 11  2  0
 10 12  1  0
 12 13  1  0
 13 14  2  0
 14 15  1  0
 15 16  2  0
 15 17  2  0
 14 18  1  0
 18 19  2  0
 19 20  1  0
 20 21  2  0
 12 22  1  0
 22 23  1  0
 23 24  2  0
 24 25  1  0
 25 26  2  0
 26 27  1  0
 27 28  2  0
 28 29  1  0
 26 30  1  0
 24 31  1  0
  4 32  1  0
 32 33  1  0
  8  3  1  0
 15  9  1  0
 21 13  1  0
 28 23  1  0
M  END
$$$$
