
     RDKit          3D

 33 36  0  0  0  0  0  0  0  0999 V2000
   -1.3730   -1.3780    6.6592 C   0  0  0  0  0  0  0  0  0  0  0  0
   -1.2834   -1.7343    8.0042 O   0  0  0  0  0  0  0  0  0  0  0  0
   -1.0354   -0.8729    9.0412 C   0  0  0  0  0  0  0  0  0  0  0  0
   -1.7239   -1.0100   10.2279 C   0  0  0  0  0  0  0  0  0  0  0  0
   -1.4458   -0.1414   11.2154 N   0  0  0  0  0  0  0  0  0  0  0  0
   -0.5401    0.8457   11.1094 C   0  0  0  0  0  0  0  0  0  0  0  0
    0.1663    1.0118    9.9378 C   0  0  0  0  0  0  0  0  0  0  0  0
   -0.1018    0.1327    8.9107 C   0  0  0  0  0  0  0  0  0  0  0  0
    1.1381    2.0457    9.7764 N   0  0  0  0  0  0  0  0  0  0  0  0
    0.7139    3.3186    9.3124 C   0  0  0  0  0  0  0  0  0  0  0  0
   -0.5329    3.5090    9.0494 O   0  0  0  0  0  0  0  0  0  0  0  0
    1.6329    4.3709    9.1364 N   0  0  0  0  0  0  0  0  0  0  0  0
    3.0285    4.2884    9.3903 C   0  0  0  0  0  0  0  0  0  0  0  0
    3.6951    3.1835    9.8419 C   0  0  0  0  0  0  0  0  0  0  0  0
    2.7760    1.7111   10.1484 S   0  0  0  0  0  6  0  0  0  0  0  0
    2.9708    1.3827   11.6032 O   0  0  0  0  0  0  0  0  0  0  0  0
    3.3509    0.6469    9.2553 O   0  0  0  0  0  0  0  0  0  0  0  0
    5.0409    3.2062   10.0548 C   0  0  0  0  0  0  0  0  0  0  0  0
    5.7573    4.3502    9.8171 C   0  0  0  0  0  0  0  0  0  0  0  0
    5.1001    5.4699    9.3625 C   0  0  0  0  0  0  0  0  0  0  0  0
    3.7822    5.4101    9.1656 N   0  0  0  0  0  0  0  0  0  0  0  0
    1.1052    5.6615    8.6509 C   0  0  0  0  0  0  0  0  0  0  0  0
    0.6615    5.5651    7.2566 C   0  0  0  0  0  0  0  0  0  0  0  0
   -0.6176    5.8814    6.8658 C   0  0  0  0  0  0  0  0  0  0  0  0
   -0.9586    5.7644    5.5315 C   0  0  0  0  0  0  0  0  0  0  0  0
   -0.0784    5.3433    4.5577 C   0  0  0  0  0  0  0  0  0  0  0  0
    1.2053    5.0292    4.9706 C   0  0  0  0  0  0  0  0  0  0  0  0
    1.5604    5.1414    6.3009 C   0  0  0  0  0  0  0  0  0  0  0  0
    2.8317    4.8234    6.6672 F   0  0  0  0  0  0  0  0  0  0  0  0
   -0.4470    5.2376    3.2427 F   0  0  0  0  0  0  0  0  0  0  0  0
   -1.5491    6.3057    7.7664 F   0  0  0  0  0  0  0  0  0  0  0  0
   -2.6833   -2.0235   10.3980 O   0  0  0  0  0  0  0  0  0  0  0  0
   -2.5805   -2.8487   11.5432 C   0  0  0  0  0  0  0  0  0  0  0  0
  1  2  1  0
  2  3  1  0
  3  4  2  0
  4  5  1  0
  5  6  2  0
  6  7  1  0
  7  8  2  0
  7  9  1  0
  9 10  1  0
 10 11  2  0
 10 12  1  0
 12 13  1  0
 13 14  2  0
 14 15  1  0
 15 16  2  0
 15 17  2  0
 14 18  1  0
 18 19  2  0
 19 20  1  0
 20 21  2  0
 12 22  1  0
 22 23  1  0
 23 24  2  0
 24 25  1  0
 25 26  2  0
 26 27  1  0
 27 28  2  0
 28 29  1  0
 26 30  1  0
 24 31  1  0
  4 32  1  0
 32 33  1  0
  8  3  1  0
 15  9  1  0
 21 13  1  0
 28 23  1  0
M  END
$$$$
