
     RDKit          3D

 33 36  0  0  0  0  0  0  0  0999 V2000
   -1.6054    1.2626    5.4107 C   0  0  0  0  0  0  0  0  0  0  0  0
   -0.7163    2.3282    5.2769 O   0  0  0  0  0  0  0  0  0  0  0  0
   -0.3303    3.1742    6.2839 C   0  0  0  0  0  0  0  0  0  0  0  0
   -0.2020    4.5244    6.0355 C   0  0  0  0  0  0  0  0  0  0  0  0
    0.1789    5.3137    7.0547 N   0  0  0  0  0  0  0  0  0  0  0  0
    0.4394    4.8615    8.2931 C   0  0  0  0  0  0  0  0  0  0  0  0
    0.3213    3.5181    8.5767 C   0  0  0  0  0  0  0  0  0  0  0  0
   -0.0681    2.6889    7.5471 C   0  0  0  0  0  0  0  0  0  0  0  0
    0.5878    2.9895    9.8764 N   0  0  0  0  0  0  0  0  0  0  0  0
    1.9284    2.6857   10.2311 C   0  0  0  0  0  0  0  0  0  0  0  0
    2.8684    2.8938    9.3749 O   0  0  0  0  0  0  0  0  0  0  0  0
    2.2435    2.1625   11.4998 N   0  0  0  0  0  0  0  0  0  0  0  0
    1.3017    1.8891   12.5281 C   0  0  0  0  0  0  0  0  0  0  0  0
   -0.0485    2.0889   12.4495 C   0  0  0  0  0  0  0  0  0  0  0  0
   -0.7185    2.7426   10.9561 S   0  0  0  0  0  6  0  0  0  0  0  0
   -1.4007    4.0316   11.3240 O   0  0  0  0  0  0  0  0  0  0  0  0
   -1.6949    1.7242   10.4363 O   0  0  0  0  0  0  0  0  0  0  0  0
   -0.8701    1.7933   13.4957 C   0  0  0  0  0  0  0  0  0  0  0  0
   -0.3510    1.2849   14.6579 C   0  0  0  0  0  0  0  0  0  0  0  0
    1.0058    1.0786   14.7516 C   0  0  0  0  0  0  0  0  0  0  0  0
    1.7787    1.3796   13.7070 N   0  0  0  0  0  0  0  0  0  0  0  0
    3.6635    1.8764   11.7848 C   0  0  0  0  0  0  0  0  0  0  0  0
    3.9379    0.4367   11.7325 C   0  0  0  0  0  0  0  0  0  0  0  0
    4.3076   -0.2847   12.8423 C   0  0  0  0  0  0  0  0  0  0  0  0
    4.5488   -1.6392   12.7109 C   0  0  0  0  0  0  0  0  0  0  0  0
    4.4385   -2.3170   11.5155 C   0  0  0  0  0  0  0  0  0  0  0  0
    4.0651   -1.5733   10.4090 C   0  0  0  0  0  0  0  0  0  0  0  0
    3.8207   -0.2187   10.5252 C   0  0  0  0  0  0  0  0  0  0  0  0
    3.4558    0.4775    9.4145 F   0  0  0  0  0  0  0  0  0  0  0  0
    4.6845   -3.6609   11.4177 F   0  0  0  0  0  0  0  0  0  0  0  0
    4.4395    0.3098   14.0622 F   0  0  0  0  0  0  0  0  0  0  0  0
   -0.4609    5.0559    4.7599 O   0  0  0  0  0  0  0  0  0  0  0  0
   -1.2387    6.2355    4.6783 C   0  0  0  0  0  0  0  0  0  0  0  0
  1  2  1  0
  2  3  1  0
  3  4  2  0
  4  5  1  0
  5  6  2  0
  6  7  1  0
  7  8  2  0
  7  9  1  0
  9 10  1  0
 10 11  2  0
 10 12  1  0
 12 13  1  0
 13 14  2  0
 14 15  1  0
 15 16  2  0
 15 17  2  0
 14 18  1  0
 18 19  2  0
 19 20  1  0
 20 21  2  0
 12 22  1  0
 22 23  1  0
 23 24  2  0
 24 25  1  0
 25 26  2  0
 26 27  1  0
 27 28  2  0
 28 29  1  0
 26 30  1  0
 24 31  1  0
  4 32  1  0
 32 33  1  0
  8  3  1  0
 15  9  1  0
 21 13  1  0
 28 23  1  0
M  END
$$$$
