
     RDKit          3D

 33 36  0  0  0  0  0  0  0  0999 V2000
   -2.2415   -0.8396   10.1326 C   0  0  0  0  0  0  0  0  0  0  0  0
   -1.2967   -1.1386    9.1518 O   0  0  0  0  0  0  0  0  0  0  0  0
   -0.0137   -0.6580    9.1095 C   0  0  0  0  0  0  0  0  0  0  0  0
    1.0434   -1.5327    8.9728 C   0  0  0  0  0  0  0  0  0  0  0  0
    2.2828   -1.0139    8.9363 N   0  0  0  0  0  0  0  0  0  0  0  0
    2.5455    0.3011    9.0252 C   0  0  0  0  0  0  0  0  0  0  0  0
    1.5131    1.2036    9.1626 C   0  0  0  0  0  0  0  0  0  0  0  0
    0.2329    0.6949    9.2024 C   0  0  0  0  0  0  0  0  0  0  0  0
    1.7414    2.6099    9.2617 N   0  0  0  0  0  0  0  0  0  0  0  0
    0.7988    3.4997    8.6828 C   0  0  0  0  0  0  0  0  0  0  0  0
   -0.2358    3.0184    8.0846 O   0  0  0  0  0  0  0  0  0  0  0  0
    0.9783    4.8945    8.7531 N   0  0  0  0  0  0  0  0  0  0  0  0
    2.0725    5.5473    9.3821 C   0  0  0  0  0  0  0  0  0  0  0  0
    3.1160    4.9298   10.0137 C   0  0  0  0  0  0  0  0  0  0  0  0
    3.1418    3.1685   10.0742 S   0  0  0  0  0  6  0  0  0  0  0  0
    3.1397    2.7925   11.5305 O   0  0  0  0  0  0  0  0  0  0  0  0
    4.4051    2.7292    9.3873 O   0  0  0  0  0  0  0  0  0  0  0  0
    4.1212    5.6484   10.5883 C   0  0  0  0  0  0  0  0  0  0  0  0
    4.1029    7.0182   10.5424 C   0  0  0  0  0  0  0  0  0  0  0  0
    3.0593    7.6534    9.9103 C   0  0  0  0  0  0  0  0  0  0  0  0
    2.0933    6.9169    9.3593 N   0  0  0  0  0  0  0  0  0  0  0  0
   -0.0514    5.7460    8.1249 C   0  0  0  0  0  0  0  0  0  0  0  0
    0.1086    5.7883    6.6678 C   0  0  0  0  0  0  0  0  0  0  0  0
   -0.8978    5.4276    5.8042 C   0  0  0  0  0  0  0  0  0  0  0  0
   -0.6687    5.4952    4.4429 C   0  0  0  0  0  0  0  0  0  0  0  0
    0.5266    5.9088    3.8944 C   0  0  0  0  0  0  0  0  0  0  0  0
    1.5283    6.2679    4.7802 C   0  0  0  0  0  0  0  0  0  0  0  0
    1.3135    6.2055    6.1434 C   0  0  0  0  0  0  0  0  0  0  0  0
    2.3228    6.5669    6.9815 F   0  0  0  0  0  0  0  0  0  0  0  0
    0.7229    5.9648    2.5400 F   0  0  0  0  0  0  0  0  0  0  0  0
   -2.1102    5.0072    6.2651 F   0  0  0  0  0  0  0  0  0  0  0  0
    0.8308   -2.9190    8.8750 O   0  0  0  0  0  0  0  0  0  0  0  0
    1.5080   -3.6233    7.8510 C   0  0  0  0  0  0  0  0  0  0  0  0
  1  2  1  0
  2  3  1  0
  3  4  2  0
  4  5  1  0
  5  6  2  0
  6  7  1  0
  7  8  2  0
  7  9  1  0
  9 10  1  0
 10 11  2  0
 10 12  1  0
 12 13  1  0
 13 14  2  0
 14 15  1  0
 15 16  2  0
 15 17  2  0
 14 18  1  0
 18 19  2  0
 19 20  1  0
 20 21  2  0
 12 22  1  0
 22 23  1  0
 23 24  2  0
 24 25  1  0
 25 26  2  0
 26 27  1  0
 27 28  2  0
 28 29  1  0
 26 30  1  0
 24 31  1  0
  4 32  1  0
 32 33  1  0
  8  3  1  0
 15  9  1  0
 21 13  1  0
 28 23  1  0
M  END
$$$$
