
     RDKit          3D

 33 36  0  0  0  0  0  0  0  0999 V2000
   -0.9309   -2.3760   11.9440 C   0  0  0  0  0  0  0  0  0  0  0  0
   -1.4085   -2.0625   10.6721 O   0  0  0  0  0  0  0  0  0  0  0  0
   -0.6734   -1.4970    9.6628 C   0  0  0  0  0  0  0  0  0  0  0  0
   -0.4999   -2.1763    8.4755 C   0  0  0  0  0  0  0  0  0  0  0  0
    0.2288   -1.5808    7.5157 N   0  0  0  0  0  0  0  0  0  0  0  0
    0.7930   -0.3684    7.6497 C   0  0  0  0  0  0  0  0  0  0  0  0
    0.6400    0.3385    8.8228 C   0  0  0  0  0  0  0  0  0  0  0  0
   -0.1034   -0.2521    9.8217 C   0  0  0  0  0  0  0  0  0  0  0  0
    1.2206    1.6293    9.0133 N   0  0  0  0  0  0  0  0  0  0  0  0
    0.4742    2.7782    8.6413 C   0  0  0  0  0  0  0  0  0  0  0  0
   -0.7045    2.6286    8.1429 O   0  0  0  0  0  0  0  0  0  0  0  0
    1.0018    4.0729    8.8086 N   0  0  0  0  0  0  0  0  0  0  0  0
    2.2838    4.3702    9.3445 C   0  0  0  0  0  0  0  0  0  0  0  0
    3.2008    3.4539    9.7791 C   0  0  0  0  0  0  0  0  0  0  0  0
    2.7930    1.7420    9.6824 S   0  0  0  0  0  6  0  0  0  0  0  0
    2.8498    1.2108   11.0884 O   0  0  0  0  0  0  0  0  0  0  0  0
    3.8279    1.0985    8.8017 O   0  0  0  0  0  0  0  0  0  0  0  0
    4.4078    3.8422   10.2786 C   0  0  0  0  0  0  0  0  0  0  0  0
    4.7267    5.1730   10.3547 C   0  0  0  0  0  0  0  0  0  0  0  0
    3.8140    6.1064    9.9211 C   0  0  0  0  0  0  0  0  0  0  0  0
    2.6427    5.6890    9.4383 N   0  0  0  0  0  0  0  0  0  0  0  0
    0.1569    5.2111    8.3959 C   0  0  0  0  0  0  0  0  0  0  0  0
    0.2821    5.4740    6.9586 C   0  0  0  0  0  0  0  0  0  0  0  0
   -0.5607    6.3282    6.2886 C   0  0  0  0  0  0  0  0  0  0  0  0
   -0.3774    6.5233    4.9327 C   0  0  0  0  0  0  0  0  0  0  0  0
    0.6148    5.9025    4.2043 C   0  0  0  0  0  0  0  0  0  0  0  0
    1.4537    5.0457    4.8965 C   0  0  0  0  0  0  0  0  0  0  0  0
    1.2824    4.8410    6.2519 C   0  0  0  0  0  0  0  0  0  0  0  0
    2.1274    3.9913    6.8967 F   0  0  0  0  0  0  0  0  0  0  0  0
    0.7708    6.1167    2.8604 F   0  0  0  0  0  0  0  0  0  0  0  0
   -1.5676    6.9817    6.9351 F   0  0  0  0  0  0  0  0  0  0  0  0
   -1.0660   -3.4478    8.2769 O   0  0  0  0  0  0  0  0  0  0  0  0
   -0.2939   -4.4184    7.5949 C   0  0  0  0  0  0  0  0  0  0  0  0
  1  2  1  0
  2  3  1  0
  3  4  2  0
  4  5  1  0
  5  6  2  0
  6  7  1  0
  7  8  2  0
  7  9  1  0
  9 10  1  0
 10 11  2  0
 10 12  1  0
 12 13  1  0
 13 14  2  0
 14 15  1  0
 15 16  2  0
 15 17  2  0
 14 18  1  0
 18 19  2  0
 19 20  1  0
 20 21  2  0
 12 22  1  0
 22 23  1  0
 23 24  2  0
 24 25  1  0
 25 26  2  0
 26 27  1  0
 27 28  2  0
 28 29  1  0
 26 30  1  0
 24 31  1  0
  4 32  1  0
 32 33  1  0
  8  3  1  0
 15  9  1  0
 21 13  1  0
 28 23  1  0
M  END
$$$$
