
     RDKit          3D

 33 36  0  0  0  0  0  0  0  0999 V2000
   -1.4792   -1.3843   11.8416 C   0  0  0  0  0  0  0  0  0  0  0  0
   -1.2823   -1.5702   10.4739 O   0  0  0  0  0  0  0  0  0  0  0  0
   -0.2198   -1.0939    9.7505 C   0  0  0  0  0  0  0  0  0  0  0  0
    0.4224   -1.9172    8.8500 C   0  0  0  0  0  0  0  0  0  0  0  0
    1.4589   -1.4049    8.1643 N   0  0  0  0  0  0  0  0  0  0  0  0
    1.8996   -0.1435    8.3079 C   0  0  0  0  0  0  0  0  0  0  0  0
    1.2812    0.7067    9.1990 C   0  0  0  0  0  0  0  0  0  0  0  0
    0.2157    0.2036    9.9137 C   0  0  0  0  0  0  0  0  0  0  0  0
    1.7130    2.0549    9.3875 N   0  0  0  0  0  0  0  0  0  0  0  0
    1.9612    2.8610    8.2456 C   0  0  0  0  0  0  0  0  0  0  0  0
    1.7912    2.3584    7.0715 O   0  0  0  0  0  0  0  0  0  0  0  0
    2.3887    4.1962    8.3779 N   0  0  0  0  0  0  0  0  0  0  0  0
    2.6121    4.8645    9.6118 C   0  0  0  0  0  0  0  0  0  0  0  0
    2.4488    4.3219   10.8560 C   0  0  0  0  0  0  0  0  0  0  0  0
    1.9146    2.6470   10.9818 S   0  0  0  0  0  6  0  0  0  0  0  0
    0.6192    2.6696   11.7457 O   0  0  0  0  0  0  0  0  0  0  0  0
    2.9881    1.9040   11.7276 O   0  0  0  0  0  0  0  0  0  0  0  0
    2.6902    5.0490   11.9829 C   0  0  0  0  0  0  0  0  0  0  0  0
    3.1056    6.3517   11.8871 C   0  0  0  0  0  0  0  0  0  0  0  0
    3.2743    6.9112   10.6418 C   0  0  0  0  0  0  0  0  0  0  0  0
    3.0284    6.1687    9.5613 N   0  0  0  0  0  0  0  0  0  0  0  0
    2.6224    4.9623    7.1376 C   0  0  0  0  0  0  0  0  0  0  0  0
    1.3637    5.2423    6.4392 C   0  0  0  0  0  0  0  0  0  0  0  0
    0.5718    6.3217    6.7500 C   0  0  0  0  0  0  0  0  0  0  0  0
   -0.6008    6.5172    6.0450 C   0  0  0  0  0  0  0  0  0  0  0  0
   -1.0271    5.6813    5.0350 C   0  0  0  0  0  0  0  0  0  0  0  0
   -0.2161    4.5997    4.7363 C   0  0  0  0  0  0  0  0  0  0  0  0
    0.9588    4.3916    5.4327 C   0  0  0  0  0  0  0  0  0  0  0  0
    1.7287    3.3172    5.1096 F   0  0  0  0  0  0  0  0  0  0  0  0
   -2.1951    5.9023    4.3544 F   0  0  0  0  0  0  0  0  0  0  0  0
    0.9213    7.1965    7.7356 F   0  0  0  0  0  0  0  0  0  0  0  0
    0.0068   -3.2462    8.6566 O   0  0  0  0  0  0  0  0  0  0  0  0
   -0.0792   -3.7277    7.3285 C   0  0  0  0  0  0  0  0  0  0  0  0
  1  2  1  0
  2  3  1  0
  3  4  2  0
  4  5  1  0
  5  6  2  0
  6  7  1  0
  7  8  2  0
  7  9  1  0
  9 10  1  0
 10 11  2  0
 10 12  1  0
 12 13  1  0
 13 14  2  0
 14 15  1  0
 15 16  2  0
 15 17  2  0
 14 18  1  0
 18 19  2  0
 19 20  1  0
 20 21  2  0
 12 22  1  0
 22 23  1  0
 23 24  2  0
 24 25  1  0
 25 26  2  0
 26 27  1  0
 27 28  2  0
 28 29  1  0
 26 30  1  0
 24 31  1  0
  4 32  1  0
 32 33  1  0
  8  3  1  0
 15  9  1  0
 21 13  1  0
 28 23  1  0
M  END
$$$$
