
     RDKit          3D

 33 36  0  0  0  0  0  0  0  0999 V2000
   -1.1797   -1.0657    6.6304 C   0  0  0  0  0  0  0  0  0  0  0  0
   -0.7318   -1.5618    7.8540 O   0  0  0  0  0  0  0  0  0  0  0  0
   -0.4131   -0.8048    8.9514 C   0  0  0  0  0  0  0  0  0  0  0  0
   -0.8144   -1.2113   10.2064 C   0  0  0  0  0  0  0  0  0  0  0  0
   -0.4780   -0.4358   11.2515 N   0  0  0  0  0  0  0  0  0  0  0  0
    0.2229    0.7054   11.1402 C   0  0  0  0  0  0  0  0  0  0  0  0
    0.6399    1.1416    9.9012 C   0  0  0  0  0  0  0  0  0  0  0  0
    0.3067    0.3626    8.8143 C   0  0  0  0  0  0  0  0  0  0  0  0
    1.3860    2.3474    9.7317 N   0  0  0  0  0  0  0  0  0  0  0  0
    0.7232    3.4988    9.2313 C   0  0  0  0  0  0  0  0  0  0  0  0
   -0.5307    3.4278    8.9437 O   0  0  0  0  0  0  0  0  0  0  0  0
    1.4141    4.7117    9.0458 N   0  0  0  0  0  0  0  0  0  0  0  0
    2.7922    4.9183    9.3241 C   0  0  0  0  0  0  0  0  0  0  0  0
    3.6586    3.9801    9.8121 C   0  0  0  0  0  0  0  0  0  0  0  0
    3.0497    2.3585   10.1379 S   0  0  0  0  0  6  0  0  0  0  0  0
    3.2769    2.1048   11.6029 O   0  0  0  0  0  0  0  0  0  0  0  0
    3.8461    1.4154    9.2793 O   0  0  0  0  0  0  0  0  0  0  0  0
    4.9674    4.2789   10.0463 C   0  0  0  0  0  0  0  0  0  0  0  0
    5.4428    5.5393    9.7937 C   0  0  0  0  0  0  0  0  0  0  0  0
    4.5826    6.4938    9.3024 C   0  0  0  0  0  0  0  0  0  0  0  0
    3.3083    6.1647    9.0856 N   0  0  0  0  0  0  0  0  0  0  0  0
    0.6469    5.8591    8.5218 C   0  0  0  0  0  0  0  0  0  0  0  0
    0.5790    5.8306    7.0572 C   0  0  0  0  0  0  0  0  0  0  0  0
   -0.2667    6.6441    6.3418 C   0  0  0  0  0  0  0  0  0  0  0  0
   -0.2717    6.5574    4.9624 C   0  0  0  0  0  0  0  0  0  0  0  0
    0.5330    5.6909    4.2538 C   0  0  0  0  0  0  0  0  0  0  0  0
    1.3780    4.8796    4.9919 C   0  0  0  0  0  0  0  0  0  0  0  0
    1.3938    4.9552    6.3712 C   0  0  0  0  0  0  0  0  0  0  0  0
    2.2383    4.1412    7.0609 F   0  0  0  0  0  0  0  0  0  0  0  0
    0.5047    5.6286    2.8858 F   0  0  0  0  0  0  0  0  0  0  0  0
   -1.0950    7.5290    6.9661 F   0  0  0  0  0  0  0  0  0  0  0  0
   -1.5499   -2.3960   10.3854 O   0  0  0  0  0  0  0  0  0  0  0  0
   -1.0584   -3.3486   11.3097 C   0  0  0  0  0  0  0  0  0  0  0  0
  1  2  1  0
  2  3  1  0
  3  4  2  0
  4  5  1  0
  5  6  2  0
  6  7  1  0
  7  8  2  0
  7  9  1  0
  9 10  1  0
 10 11  2  0
 10 12  1  0
 12 13  1  0
 13 14  2  0
 14 15  1  0
 15 16  2  0
 15 17  2  0
 14 18  1  0
 18 19  2  0
 19 20  1  0
 20 21  2  0
 12 22  1  0
 22 23  1  0
 23 24  2  0
 24 25  1  0
 25 26  2  0
 26 27  1  0
 27 28  2  0
 28 29  1  0
 26 30  1  0
 24 31  1  0
  4 32  1  0
 32 33  1  0
  8  3  1  0
 15  9  1  0
 21 13  1  0
 28 23  1  0
M  END
$$$$
