
     RDKit          3D

 33 36  0  0  0  0  0  0  0  0999 V2000
   -1.5314   -1.1238   11.1274 C   0  0  0  0  0  0  0  0  0  0  0  0
   -1.9690   -1.4358    9.8409 O   0  0  0  0  0  0  0  0  0  0  0  0
   -1.5670   -0.8100    8.6895 C   0  0  0  0  0  0  0  0  0  0  0  0
   -1.6381   -1.4764    7.4846 C   0  0  0  0  0  0  0  0  0  0  0  0
   -1.2325   -0.8210    6.3833 N   0  0  0  0  0  0  0  0  0  0  0  0
   -0.7650    0.4389    6.3932 C   0  0  0  0  0  0  0  0  0  0  0  0
   -0.6804    1.1347    7.5797 C   0  0  0  0  0  0  0  0  0  0  0  0
   -1.0907    0.4830    8.7226 C   0  0  0  0  0  0  0  0  0  0  0  0
   -0.1901    2.4746    7.6416 N   0  0  0  0  0  0  0  0  0  0  0  0
    0.4337    2.9217    8.8359 C   0  0  0  0  0  0  0  0  0  0  0  0
    0.5419    2.1105    9.8310 O   0  0  0  0  0  0  0  0  0  0  0  0
    0.9334    4.2334    8.9475 N   0  0  0  0  0  0  0  0  0  0  0  0
    0.8758    5.2197    7.9262 C   0  0  0  0  0  0  0  0  0  0  0  0
    0.3306    5.0530    6.6836 C   0  0  0  0  0  0  0  0  0  0  0  0
   -0.3730    3.4897    6.2744 S   0  0  0  0  0  6  0  0  0  0  0  0
    0.3896    2.9783    5.0831 O   0  0  0  0  0  0  0  0  0  0  0  0
   -1.8191    3.7374    5.9455 O   0  0  0  0  0  0  0  0  0  0  0  0
    0.3246    6.0653    5.7713 C   0  0  0  0  0  0  0  0  0  0  0  0
    0.8713    7.2818    6.0876 C   0  0  0  0  0  0  0  0  0  0  0  0
    1.4235    7.4642    7.3342 C   0  0  0  0  0  0  0  0  0  0  0  0
    1.4111    6.4504    8.2010 N   0  0  0  0  0  0  0  0  0  0  0  0
    1.5678    4.6140   10.2252 C   0  0  0  0  0  0  0  0  0  0  0  0
    2.9560    4.1460   10.2910 C   0  0  0  0  0  0  0  0  0  0  0  0
    3.5924    3.5707    9.2172 C   0  0  0  0  0  0  0  0  0  0  0  0
    4.9029    3.1552    9.3592 C   0  0  0  0  0  0  0  0  0  0  0  0
    5.6175    3.2861   10.5309 C   0  0  0  0  0  0  0  0  0  0  0  0
    4.9595    3.8678   11.6012 C   0  0  0  0  0  0  0  0  0  0  0  0
    3.6497    4.2880   11.4739 C   0  0  0  0  0  0  0  0  0  0  0  0
    3.0377    4.8550   12.5488 F   0  0  0  0  0  0  0  0  0  0  0  0
    6.9160    2.8640   10.6401 F   0  0  0  0  0  0  0  0  0  0  0  0
    2.9566    3.4044    8.0226 F   0  0  0  0  0  0  0  0  0  0  0  0
   -2.1182   -2.7958    7.4116 O   0  0  0  0  0  0  0  0  0  0  0  0
   -2.7998   -3.1894    6.2353 C   0  0  0  0  0  0  0  0  0  0  0  0
  1  2  1  0
  2  3  1  0
  3  4  2  0
  4  5  1  0
  5  6  2  0
  6  7  1  0
  7  8  2  0
  7  9  1  0
  9 10  1  0
 10 11  2  0
 10 12  1  0
 12 13  1  0
 13 14  2  0
 14 15  1  0
 15 16  2  0
 15 17  2  0
 14 18  1  0
 18 19  2  0
 19 20  1  0
 20 21  2  0
 12 22  1  0
 22 23  1  0
 23 24  2  0
 24 25  1  0
 25 26  2  0
 26 27  1  0
 27 28  2  0
 28 29  1  0
 26 30  1  0
 24 31  1  0
  4 32  1  0
 32 33  1  0
  8  3  1  0
 15  9  1  0
 21 13  1  0
 28 23  1  0
M  END
$$$$
