
     RDKit          3D

 33 36  0  0  0  0  0  0  0  0999 V2000
    2.5776   -0.8240   13.8926 C   0  0  0  0  0  0  0  0  0  0  0  0
    2.8614   -1.4889   12.7004 O   0  0  0  0  0  0  0  0  0  0  0  0
    2.5595   -1.0332   11.4433 C   0  0  0  0  0  0  0  0  0  0  0  0
    2.2393   -1.9298   10.4461 C   0  0  0  0  0  0  0  0  0  0  0  0
    1.9507   -1.4350    9.2301 N   0  0  0  0  0  0  0  0  0  0  0  0
    1.9574   -0.1236    8.9361 C   0  0  0  0  0  0  0  0  0  0  0  0
    2.2729    0.8004    9.9086 C   0  0  0  0  0  0  0  0  0  0  0  0
    2.5724    0.3165   11.1637 C   0  0  0  0  0  0  0  0  0  0  0  0
    2.2942    2.2038    9.6450 N   0  0  0  0  0  0  0  0  0  0  0  0
    1.1167    2.8270    9.1545 C   0  0  0  0  0  0  0  0  0  0  0  0
    0.0616    2.1137    8.9601 O   0  0  0  0  0  0  0  0  0  0  0  0
    1.0864    4.2075    8.8787 N   0  0  0  0  0  0  0  0  0  0  0  0
    2.1790    5.0996    9.0503 C   0  0  0  0  0  0  0  0  0  0  0  0
    3.4227    4.7620    9.5066 C   0  0  0  0  0  0  0  0  0  0  0  0
    3.7376    3.0804    9.9302 S   0  0  0  0  0  6  0  0  0  0  0  0
    4.1271    3.0731   11.3830 O   0  0  0  0  0  0  0  0  0  0  0  0
    4.8636    2.6145    9.0494 O   0  0  0  0  0  0  0  0  0  0  0  0
    4.4070    5.6955    9.6360 C   0  0  0  0  0  0  0  0  0  0  0  0
    4.1641    7.0038    9.3071 C   0  0  0  0  0  0  0  0  0  0  0  0
    2.9173    7.3583    8.8466 C   0  0  0  0  0  0  0  0  0  0  0  0
    1.9789    6.4172    8.7331 N   0  0  0  0  0  0  0  0  0  0  0  0
   -0.1800    4.7730    8.3723 C   0  0  0  0  0  0  0  0  0  0  0  0
   -0.1683    4.8806    6.9099 C   0  0  0  0  0  0  0  0  0  0  0  0
   -0.2160    3.7797    6.0886 C   0  0  0  0  0  0  0  0  0  0  0  0
   -0.2012    3.9646    4.7190 C   0  0  0  0  0  0  0  0  0  0  0  0
   -0.1407    5.2056    4.1216 C   0  0  0  0  0  0  0  0  0  0  0  0
   -0.0934    6.3024    4.9653 C   0  0  0  0  0  0  0  0  0  0  0  0
   -0.1075    6.1328    6.3362 C   0  0  0  0  0  0  0  0  0  0  0  0
   -0.0596    7.2357    7.1319 F   0  0  0  0  0  0  0  0  0  0  0  0
   -0.1276    5.3559    2.7602 F   0  0  0  0  0  0  0  0  0  0  0  0
   -0.2770    2.5169    6.5992 F   0  0  0  0  0  0  0  0  0  0  0  0
    2.2158   -3.3136   10.6937 O   0  0  0  0  0  0  0  0  0  0  0  0
    1.1274   -4.0604   10.1829 C   0  0  0  0  0  0  0  0  0  0  0  0
  1  2  1  0
  2  3  1  0
  3  4  2  0
  4  5  1  0
  5  6  2  0
  6  7  1  0
  7  8  2  0
  7  9  1  0
  9 10  1  0
 10 11  2  0
 10 12  1  0
 12 13  1  0
 13 14  2  0
 14 15  1  0
 15 16  2  0
 15 17  2  0
 14 18  1  0
 18 19  2  0
 19 20  1  0
 20 21  2  0
 12 22  1  0
 22 23  1  0
 23 24  2  0
 24 25  1  0
 25 26  2  0
 26 27  1  0
 27 28  2  0
 28 29  1  0
 26 30  1  0
 24 31  1  0
  4 32  1  0
 32 33  1  0
  8  3  1  0
 15  9  1  0
 21 13  1  0
 28 23  1  0
M  END
$$$$
