
     RDKit          3D

 33 36  0  0  0  0  0  0  0  0999 V2000
   -2.9329    3.1392    5.1793 C   0  0  0  0  0  0  0  0  0  0  0  0
   -2.7905    1.8263    5.6265 O   0  0  0  0  0  0  0  0  0  0  0  0
   -1.7299    1.3412    6.3467 C   0  0  0  0  0  0  0  0  0  0  0  0
   -1.5241   -0.0193    6.4348 C   0  0  0  0  0  0  0  0  0  0  0  0
   -0.4709   -0.4467    7.1523 N   0  0  0  0  0  0  0  0  0  0  0  0
    0.3858    0.3741    7.7835 C   0  0  0  0  0  0  0  0  0  0  0  0
    0.2102    1.7394    7.7167 C   0  0  0  0  0  0  0  0  0  0  0  0
   -0.8634    2.2013    6.9865 C   0  0  0  0  0  0  0  0  0  0  0  0
    1.0928    2.6519    8.3707 N   0  0  0  0  0  0  0  0  0  0  0  0
    1.3418    2.4888    9.7588 C   0  0  0  0  0  0  0  0  0  0  0  0
    0.7676    1.5249   10.3921 O   0  0  0  0  0  0  0  0  0  0  0  0
    2.2037    3.3621   10.4498 N   0  0  0  0  0  0  0  0  0  0  0  0
    2.8945    4.4589    9.8678 C   0  0  0  0  0  0  0  0  0  0  0  0
    2.8325    4.8374    8.5556 C   0  0  0  0  0  0  0  0  0  0  0  0
    1.8164    3.9066    7.4567 S   0  0  0  0  0  6  0  0  0  0  0  0
    2.7261    3.3738    6.3840 O   0  0  0  0  0  0  0  0  0  0  0  0
    0.7951    4.8586    6.8988 O   0  0  0  0  0  0  0  0  0  0  0  0
    3.5362    5.9091    8.0937 C   0  0  0  0  0  0  0  0  0  0  0  0
    4.3271    6.6342    8.9466 C   0  0  0  0  0  0  0  0  0  0  0  0
    4.3993    6.2651   10.2699 C   0  0  0  0  0  0  0  0  0  0  0  0
    3.6964    5.2105   10.6857 N   0  0  0  0  0  0  0  0  0  0  0  0
    2.4064    3.1188   11.8919 C   0  0  0  0  0  0  0  0  0  0  0  0
    3.0894    1.8424   12.1260 C   0  0  0  0  0  0  0  0  0  0  0  0
    2.4074    0.6748   12.3717 C   0  0  0  0  0  0  0  0  0  0  0  0
    3.1241   -0.4880   12.5827 C   0  0  0  0  0  0  0  0  0  0  0  0
    4.5014   -0.5447   12.5605 C   0  0  0  0  0  0  0  0  0  0  0  0
    5.1707    0.6415   12.3115 C   0  0  0  0  0  0  0  0  0  0  0  0
    4.4675    1.8113   12.0988 C   0  0  0  0  0  0  0  0  0  0  0  0
    5.1615    2.9566   11.8571 F   0  0  0  0  0  0  0  0  0  0  0  0
    5.1832   -1.7134   12.7735 F   0  0  0  0  0  0  0  0  0  0  0  0
    1.0448    0.6449   12.4107 F   0  0  0  0  0  0  0  0  0  0  0  0
   -2.3868   -0.9271    5.7959 O   0  0  0  0  0  0  0  0  0  0  0  0
   -1.8236   -2.1051    5.2497 C   0  0  0  0  0  0  0  0  0  0  0  0
  1  2  1  0
  2  3  1  0
  3  4  2  0
  4  5  1  0
  5  6  2  0
  6  7  1  0
  7  8  2  0
  7  9  1  0
  9 10  1  0
 10 11  2  0
 10 12  1  0
 12 13  1  0
 13 14  2  0
 14 15  1  0
 15 16  2  0
 15 17  2  0
 14 18  1  0
 18 19  2  0
 19 20  1  0
 20 21  2  0
 12 22  1  0
 22 23  1  0
 23 24  2  0
 24 25  1  0
 25 26  2  0
 26 27  1  0
 27 28  2  0
 28 29  1  0
 26 30  1  0
 24 31  1  0
  4 32  1  0
 32 33  1  0
  8  3  1  0
 15  9  1  0
 21 13  1  0
 28 23  1  0
M  END
$$$$
