
     RDKit          3D

 33 36  0  0  0  0  0  0  0  0999 V2000
   -0.3058    5.4633    4.3356 C   0  0  0  0  0  0  0  0  0  0  0  0
   -1.1316    4.4186    4.7488 O   0  0  0  0  0  0  0  0  0  0  0  0
   -0.8941    3.5900    5.8146 C   0  0  0  0  0  0  0  0  0  0  0  0
   -1.5659    2.3900    5.9148 C   0  0  0  0  0  0  0  0  0  0  0  0
   -1.2992    1.6117    6.9778 N   0  0  0  0  0  0  0  0  0  0  0  0
   -0.4201    1.9373    7.9407 C   0  0  0  0  0  0  0  0  0  0  0  0
    0.2689    3.1289    7.8724 C   0  0  0  0  0  0  0  0  0  0  0  0
    0.0121    3.9438    6.7911 C   0  0  0  0  0  0  0  0  0  0  0  0
    1.2123    3.5195    8.8708 N   0  0  0  0  0  0  0  0  0  0  0  0
    2.3227    2.6746    9.1325 C   0  0  0  0  0  0  0  0  0  0  0  0
    2.4517    1.5802    8.4650 O   0  0  0  0  0  0  0  0  0  0  0  0
    3.2805    3.0145   10.1071 N   0  0  0  0  0  0  0  0  0  0  0  0
    3.2515    4.1884   10.9072 C   0  0  0  0  0  0  0  0  0  0  0  0
    2.2970    5.1660   10.8582 C   0  0  0  0  0  0  0  0  0  0  0  0
    0.9684    4.9905    9.7134 S   0  0  0  0  0  6  0  0  0  0  0  0
    1.0329    6.1838    8.8002 O   0  0  0  0  0  0  0  0  0  0  0  0
   -0.3002    4.9744   10.5202 O   0  0  0  0  0  0  0  0  0  0  0  0
    2.3593    6.2579   11.6712 C   0  0  0  0  0  0  0  0  0  0  0  0
    3.3917    6.3962   12.5620 C   0  0  0  0  0  0  0  0  0  0  0  0
    4.3595    5.4205   12.6226 C   0  0  0  0  0  0  0  0  0  0  0  0
    4.2654    4.3660   11.8113 N   0  0  0  0  0  0  0  0  0  0  0  0
    4.4036    2.0786   10.3135 C   0  0  0  0  0  0  0  0  0  0  0  0
    3.9916    0.9198   11.1121 C   0  0  0  0  0  0  0  0  0  0  0  0
    4.5807    0.6043   12.3130 C   0  0  0  0  0  0  0  0  0  0  0  0
    4.1354   -0.5052   13.0065 C   0  0  0  0  0  0  0  0  0  0  0  0
    3.1215   -1.3241   12.5572 C   0  0  0  0  0  0  0  0  0  0  0  0
    2.5404   -0.9902   11.3457 C   0  0  0  0  0  0  0  0  0  0  0  0
    2.9752    0.1159   10.6415 C   0  0  0  0  0  0  0  0  0  0  0  0
    2.3788    0.4111    9.4545 F   0  0  0  0  0  0  0  0  0  0  0  0
    2.7025   -2.4173   13.2682 F   0  0  0  0  0  0  0  0  0  0  0  0
    5.5901    1.3625   12.8279 F   0  0  0  0  0  0  0  0  0  0  0  0
   -2.4973    1.9954    4.9384 O   0  0  0  0  0  0  0  0  0  0  0  0
   -3.0126    0.6790    5.0071 C   0  0  0  0  0  0  0  0  0  0  0  0
  1  2  1  0
  2  3  1  0
  3  4  2  0
  4  5  1  0
  5  6  2  0
  6  7  1  0
  7  8  2  0
  7  9  1  0
  9 10  1  0
 10 11  2  0
 10 12  1  0
 12 13  1  0
 13 14  2  0
 14 15  1  0
 15 16  2  0
 15 17  2  0
 14 18  1  0
 18 19  2  0
 19 20  1  0
 20 21  2  0
 12 22  1  0
 22 23  1  0
 23 24  2  0
 24 25  1  0
 25 26  2  0
 26 27  1  0
 27 28  2  0
 28 29  1  0
 26 30  1  0
 24 31  1  0
  4 32  1  0
 32 33  1  0
  8  3  1  0
 15  9  1  0
 21 13  1  0
 28 23  1  0
M  END
$$$$
