
     RDKit          3D

 33 36  0  0  0  0  0  0  0  0999 V2000
   -1.7353   -0.7220    6.7506 C   0  0  0  0  0  0  0  0  0  0  0  0
   -1.3777   -1.2401    7.9946 O   0  0  0  0  0  0  0  0  0  0  0  0
   -0.3170   -0.8226    8.7559 C   0  0  0  0  0  0  0  0  0  0  0  0
    0.4152   -1.7418    9.4769 C   0  0  0  0  0  0  0  0  0  0  0  0
    1.4459   -1.2842   10.2083 N   0  0  0  0  0  0  0  0  0  0  0  0
    1.7987    0.0109   10.2742 C   0  0  0  0  0  0  0  0  0  0  0  0
    1.0889    0.9567    9.5665 C   0  0  0  0  0  0  0  0  0  0  0  0
    0.0273    0.5110    8.8090 C   0  0  0  0  0  0  0  0  0  0  0  0
    1.4244    2.3443    9.6049 N   0  0  0  0  0  0  0  0  0  0  0  0
    1.8435    2.9815    8.4075 C   0  0  0  0  0  0  0  0  0  0  0  0
    1.9104    2.2947    7.3195 O   0  0  0  0  0  0  0  0  0  0  0  0
    2.1854    4.3474    8.3927 N   0  0  0  0  0  0  0  0  0  0  0  0
    2.1534    5.2104    9.5211 C   0  0  0  0  0  0  0  0  0  0  0  0
    1.7885    4.8545   10.7897 C   0  0  0  0  0  0  0  0  0  0  0  0
    1.3085    3.1858   11.0921 S   0  0  0  0  0  6  0  0  0  0  0  0
   -0.1042    3.2357   11.6061 O   0  0  0  0  0  0  0  0  0  0  0  0
    2.2575    2.6413   12.1234 O   0  0  0  0  0  0  0  0  0  0  0  0
    1.7913    5.7603   11.8078 C   0  0  0  0  0  0  0  0  0  0  0  0
    2.1642    7.0585   11.5746 C   0  0  0  0  0  0  0  0  0  0  0  0
    2.5339    7.4312   10.3031 C   0  0  0  0  0  0  0  0  0  0  0  0
    2.5189    6.5171    9.3318 N   0  0  0  0  0  0  0  0  0  0  0  0
    2.6097    4.9291    7.1037 C   0  0  0  0  0  0  0  0  0  0  0  0
    1.4554    5.2491    6.2578 C   0  0  0  0  0  0  0  0  0  0  0  0
    0.8108    4.3011    5.4998 C   0  0  0  0  0  0  0  0  0  0  0  0
   -0.2706    4.6825    4.7281 C   0  0  0  0  0  0  0  0  0  0  0  0
   -0.7459    5.9755    4.6743 C   0  0  0  0  0  0  0  0  0  0  0  0
   -0.0836    6.9161    5.4448 C   0  0  0  0  0  0  0  0  0  0  0  0
    0.9988    6.5495    6.2209 C   0  0  0  0  0  0  0  0  0  0  0  0
    1.6232    7.5031    6.9642 F   0  0  0  0  0  0  0  0  0  0  0  0
   -1.8207    6.3221    3.8992 F   0  0  0  0  0  0  0  0  0  0  0  0
    1.2177    2.9999    5.4964 F   0  0  0  0  0  0  0  0  0  0  0  0
    0.0938   -3.1102    9.4474 O   0  0  0  0  0  0  0  0  0  0  0  0
   -0.0458   -3.7856   10.6834 C   0  0  0  0  0  0  0  0  0  0  0  0
  1  2  1  0
  2  3  1  0
  3  4  2  0
  4  5  1  0
  5  6  2  0
  6  7  1  0
  7  8  2  0
  7  9  1  0
  9 10  1  0
 10 11  2  0
 10 12  1  0
 12 13  1  0
 13 14  2  0
 14 15  1  0
 15 16  2  0
 15 17  2  0
 14 18  1  0
 18 19  2  0
 19 20  1  0
 20 21  2  0
 12 22  1  0
 22 23  1  0
 23 24  2  0
 24 25  1  0
 25 26  2  0
 26 27  1  0
 27 28  2  0
 28 29  1  0
 26 30  1  0
 24 31  1  0
  4 32  1  0
 32 33  1  0
  8  3  1  0
 15  9  1  0
 21 13  1  0
 28 23  1  0
M  END
$$$$
