
     RDKit          3D

 33 36  0  0  0  0  0  0  0  0999 V2000
   -1.6670   -1.4500    9.2436 C   0  0  0  0  0  0  0  0  0  0  0  0
   -0.3631   -1.7914    8.8870 O   0  0  0  0  0  0  0  0  0  0  0  0
    0.7701   -1.1315    9.2860 C   0  0  0  0  0  0  0  0  0  0  0  0
    1.8829   -1.8486    9.6715 C   0  0  0  0  0  0  0  0  0  0  0  0
    2.9700   -1.1569   10.0546 N   0  0  0  0  0  0  0  0  0  0  0  0
    3.0304    0.1854   10.0819 C   0  0  0  0  0  0  0  0  0  0  0  0
    1.9368    0.9336    9.7032 C   0  0  0  0  0  0  0  0  0  0  0  0
    0.8102    0.2461    9.3064 C   0  0  0  0  0  0  0  0  0  0  0  0
    1.9518    2.3616    9.7159 N   0  0  0  0  0  0  0  0  0  0  0  0
    2.2107    3.0550    8.5045 C   0  0  0  0  0  0  0  0  0  0  0  0
    2.4247    2.3814    7.4273 O   0  0  0  0  0  0  0  0  0  0  0  0
    2.2368    4.4623    8.4642 N   0  0  0  0  0  0  0  0  0  0  0  0
    2.0174    5.3161    9.5786 C   0  0  0  0  0  0  0  0  0  0  0  0
    1.7484    4.9102   10.8561 C   0  0  0  0  0  0  0  0  0  0  0  0
    1.6574    3.1820   11.1901 S   0  0  0  0  0  6  0  0  0  0  0  0
    0.2724    2.9224   11.7160 O   0  0  0  0  0  0  0  0  0  0  0  0
    2.7099    2.8834   12.2215 O   0  0  0  0  0  0  0  0  0  0  0  0
    1.5527    5.8117   11.8592 C   0  0  0  0  0  0  0  0  0  0  0  0
    1.6230    7.1560   11.6014 C   0  0  0  0  0  0  0  0  0  0  0  0
    1.8929    7.5794   10.3207 C   0  0  0  0  0  0  0  0  0  0  0  0
    2.0787    6.6679    9.3647 N   0  0  0  0  0  0  0  0  0  0  0  0
    2.5128    5.1012    7.1621 C   0  0  0  0  0  0  0  0  0  0  0  0
    1.2843    5.2657    6.3783 C   0  0  0  0  0  0  0  0  0  0  0  0
    0.0336    5.1000    6.9234 C   0  0  0  0  0  0  0  0  0  0  0  0
   -1.0763    5.2729    6.1181 C   0  0  0  0  0  0  0  0  0  0  0  0
   -1.0000    5.6062    4.7825 C   0  0  0  0  0  0  0  0  0  0  0  0
    0.2683    5.7688    4.2516 C   0  0  0  0  0  0  0  0  0  0  0  0
    1.3867    5.5992    5.0445 C   0  0  0  0  0  0  0  0  0  0  0  0
    2.6159    5.7678    4.4857 F   0  0  0  0  0  0  0  0  0  0  0  0
   -2.1194    5.7706    4.0104 F   0  0  0  0  0  0  0  0  0  0  0  0
   -0.1292    4.7702    8.2363 F   0  0  0  0  0  0  0  0  0  0  0  0
    1.8794   -3.2544    9.6639 O   0  0  0  0  0  0  0  0  0  0  0  0
    2.4597   -3.9252   10.7669 C   0  0  0  0  0  0  0  0  0  0  0  0
  1  2  1  0
  2  3  1  0
  3  4  2  0
  4  5  1  0
  5  6  2  0
  6  7  1  0
  7  8  2  0
  7  9  1  0
  9 10  1  0
 10 11  2  0
 10 12  1  0
 12 13  1  0
 13 14  2  0
 14 15  1  0
 15 16  2  0
 15 17  2  0
 14 18  1  0
 18 19  2  0
 19 20  1  0
 20 21  2  0
 12 22  1  0
 22 23  1  0
 23 24  2  0
 24 25  1  0
 25 26  2  0
 26 27  1  0
 27 28  2  0
 28 29  1  0
 26 30  1  0
 24 31  1  0
  4 32  1  0
 32 33  1  0
  8  3  1  0
 15  9  1  0
 21 13  1  0
 28 23  1  0
M  END
$$$$
