
     RDKit          3D

 33 36  0  0  0  0  0  0  0  0999 V2000
   -0.5639   -1.6053    8.7499 C   0  0  0  0  0  0  0  0  0  0  0  0
    0.1204   -1.7438    9.9567 O   0  0  0  0  0  0  0  0  0  0  0  0
    1.1933   -0.9892   10.3547 C   0  0  0  0  0  0  0  0  0  0  0  0
    2.2094   -1.5704   11.0833 C   0  0  0  0  0  0  0  0  0  0  0  0
    3.2403   -0.7898   11.4505 N   0  0  0  0  0  0  0  0  0  0  0  0
    3.3334    0.5163   11.1481 C   0  0  0  0  0  0  0  0  0  0  0  0
    2.3360    1.1296   10.4213 C   0  0  0  0  0  0  0  0  0  0  0  0
    1.2685    0.3490   10.0335 C   0  0  0  0  0  0  0  0  0  0  0  0
    2.3892    2.5143   10.0760 N   0  0  0  0  0  0  0  0  0  0  0  0
    2.5922    2.8747    8.7180 C   0  0  0  0  0  0  0  0  0  0  0  0
    2.7227    1.9470    7.8335 O   0  0  0  0  0  0  0  0  0  0  0  0
    2.6525    4.2258    8.3261 N   0  0  0  0  0  0  0  0  0  0  0  0
    2.5235    5.3375    9.2018 C   0  0  0  0  0  0  0  0  0  0  0  0
    2.3221    5.2721   10.5524 C   0  0  0  0  0  0  0  0  0  0  0  0
    2.2063    3.6858   11.3118 S   0  0  0  0  0  6  0  0  0  0  0  0
    0.8494    3.6210   11.9575 O   0  0  0  0  0  0  0  0  0  0  0  0
    3.3112    3.6099   12.3287 O   0  0  0  0  0  0  0  0  0  0  0  0
    2.2112    6.4012   11.3073 C   0  0  0  0  0  0  0  0  0  0  0  0
    2.3009    7.6358   10.7185 C   0  0  0  0  0  0  0  0  0  0  0  0
    2.5035    7.7171    9.3604 C   0  0  0  0  0  0  0  0  0  0  0  0
    2.6071    6.5904    8.6540 N   0  0  0  0  0  0  0  0  0  0  0  0
    2.8656    4.5103    6.8931 C   0  0  0  0  0  0  0  0  0  0  0  0
    1.5958    4.5338    6.1600 C   0  0  0  0  0  0  0  0  0  0  0  0
    0.8984    5.6954    5.9292 C   0  0  0  0  0  0  0  0  0  0  0  0
   -0.2919    5.6343    5.2295 C   0  0  0  0  0  0  0  0  0  0  0  0
   -0.8267    4.4603    4.7434 C   0  0  0  0  0  0  0  0  0  0  0  0
   -0.1099    3.3008    4.9858 C   0  0  0  0  0  0  0  0  0  0  0  0
    1.0814    3.3466    5.6838 C   0  0  0  0  0  0  0  0  0  0  0  0
    1.7565    2.1854    5.9017 F   0  0  0  0  0  0  0  0  0  0  0  0
   -2.0094    4.4326    4.0531 F   0  0  0  0  0  0  0  0  0  0  0  0
    1.3583    6.8985    6.3762 F   0  0  0  0  0  0  0  0  0  0  0  0
    2.1676   -2.9323   11.4297 O   0  0  0  0  0  0  0  0  0  0  0  0
    3.3945   -3.5892   11.6874 C   0  0  0  0  0  0  0  0  0  0  0  0
  1  2  1  0
  2  3  1  0
  3  4  2  0
  4  5  1  0
  5  6  2  0
  6  7  1  0
  7  8  2  0
  7  9  1  0
  9 10  1  0
 10 11  2  0
 10 12  1  0
 12 13  1  0
 13 14  2  0
 14 15  1  0
 15 16  2  0
 15 17  2  0
 14 18  1  0
 18 19  2  0
 19 20  1  0
 20 21  2  0
 12 22  1  0
 22 23  1  0
 23 24  2  0
 24 25  1  0
 25 26  2  0
 26 27  1  0
 27 28  2  0
 28 29  1  0
 26 30  1  0
 24 31  1  0
  4 32  1  0
 32 33  1  0
  8  3  1  0
 15  9  1  0
 21 13  1  0
 28 23  1  0
M  END
$$$$
