
     RDKit          3D

 33 36  0  0  0  0  0  0  0  0999 V2000
   -1.7711    0.8015    6.5613 C   0  0  0  0  0  0  0  0  0  0  0  0
   -1.9680    2.1487    6.2613 O   0  0  0  0  0  0  0  0  0  0  0  0
   -1.1027    3.1671    6.5666 C   0  0  0  0  0  0  0  0  0  0  0  0
   -1.0075    4.2609    5.7325 C   0  0  0  0  0  0  0  0  0  0  0  0
   -0.1450    5.2337    6.0740 N   0  0  0  0  0  0  0  0  0  0  0  0
    0.6235    5.1981    7.1759 C   0  0  0  0  0  0  0  0  0  0  0  0
    0.5540    4.1201    8.0317 C   0  0  0  0  0  0  0  0  0  0  0  0
   -0.3236    3.1099    7.7022 C   0  0  0  0  0  0  0  0  0  0  0  0
    1.3505    4.0360    9.2140 N   0  0  0  0  0  0  0  0  0  0  0  0
    2.3923    3.0733    9.2715 C   0  0  0  0  0  0  0  0  0  0  0  0
    2.5929    2.3021    8.2591 O   0  0  0  0  0  0  0  0  0  0  0  0
    3.2055    2.9502   10.4144 N   0  0  0  0  0  0  0  0  0  0  0  0
    3.0863    3.7377   11.5912 C   0  0  0  0  0  0  0  0  0  0  0  0
    2.1706    4.7315   11.7987 C   0  0  0  0  0  0  0  0  0  0  0  0
    1.0190    5.0983   10.5159 S   0  0  0  0  0  6  0  0  0  0  0  0
    1.2417    6.5382   10.1428 O   0  0  0  0  0  0  0  0  0  0  0  0
   -0.3535    4.8771   11.0886 O   0  0  0  0  0  0  0  0  0  0  0  0
    2.1380    5.4314   12.9675 C   0  0  0  0  0  0  0  0  0  0  0  0
    3.0327    5.1478   13.9663 C   0  0  0  0  0  0  0  0  0  0  0  0
    3.9599    4.1503   13.7717 C   0  0  0  0  0  0  0  0  0  0  0  0
    3.9616    3.4867   12.6147 N   0  0  0  0  0  0  0  0  0  0  0  0
    4.2659    1.9232   10.3882 C   0  0  0  0  0  0  0  0  0  0  0  0
    3.7882    0.6500   10.9369 C   0  0  0  0  0  0  0  0  0  0  0  0
    4.1268    0.2159   12.1962 C   0  0  0  0  0  0  0  0  0  0  0  0
    3.6355   -0.9969   12.6413 C   0  0  0  0  0  0  0  0  0  0  0  0
    2.8148   -1.8064   11.8852 C   0  0  0  0  0  0  0  0  0  0  0  0
    2.4848   -1.3522   10.6196 C   0  0  0  0  0  0  0  0  0  0  0  0
    2.9685   -0.1421   10.1614 C   0  0  0  0  0  0  0  0  0  0  0  0
    2.6215    0.2697    8.9117 F   0  0  0  0  0  0  0  0  0  0  0  0
    2.3439   -3.0038   12.3550 F   0  0  0  0  0  0  0  0  0  0  0  0
    4.9339    0.9567   13.0078 F   0  0  0  0  0  0  0  0  0  0  0  0
   -1.7860    4.3543    4.5656 O   0  0  0  0  0  0  0  0  0  0  0  0
   -1.1507    4.7878    3.3774 C   0  0  0  0  0  0  0  0  0  0  0  0
  1  2  1  0
  2  3  1  0
  3  4  2  0
  4  5  1  0
  5  6  2  0
  6  7  1  0
  7  8  2  0
  7  9  1  0
  9 10  1  0
 10 11  2  0
 10 12  1  0
 12 13  1  0
 13 14  2  0
 14 15  1  0
 15 16  2  0
 15 17  2  0
 14 18  1  0
 18 19  2  0
 19 20  1  0
 20 21  2  0
 12 22  1  0
 22 23  1  0
 23 24  2  0
 24 25  1  0
 25 26  2  0
 26 27  1  0
 27 28  2  0
 28 29  1  0
 26 30  1  0
 24 31  1  0
  4 32  1  0
 32 33  1  0
  8  3  1  0
 15  9  1  0
 21 13  1  0
 28 23  1  0
M  END
$$$$
