
     RDKit          3D

 33 36  0  0  0  0  0  0  0  0999 V2000
    5.8650    4.1563   11.9382 C   0  0  0  0  0  0  0  0  0  0  0  0
    5.0571    3.2078   12.5639 O   0  0  0  0  0  0  0  0  0  0  0  0
    3.7615    2.9168   12.2238 C   0  0  0  0  0  0  0  0  0  0  0  0
    2.9828    2.1573   13.0711 C   0  0  0  0  0  0  0  0  0  0  0  0
    1.7188    1.8985   12.6942 N   0  0  0  0  0  0  0  0  0  0  0  0
    1.1771    2.3367   11.5450 C   0  0  0  0  0  0  0  0  0  0  0  0
    1.9267    3.0982   10.6746 C   0  0  0  0  0  0  0  0  0  0  0  0
    3.2260    3.3766   11.0399 C   0  0  0  0  0  0  0  0  0  0  0  0
    1.3963    3.5862    9.4417 N   0  0  0  0  0  0  0  0  0  0  0  0
    1.3710    2.7212    8.3163 C   0  0  0  0  0  0  0  0  0  0  0  0
    1.8253    1.5214    8.4346 O   0  0  0  0  0  0  0  0  0  0  0  0
    0.8586    3.1544    7.0784 N   0  0  0  0  0  0  0  0  0  0  0  0
    0.3306    4.4481    6.8198 C   0  0  0  0  0  0  0  0  0  0  0  0
    0.2370    5.4688    7.7245 C   0  0  0  0  0  0  0  0  0  0  0  0
    0.8117    5.1943    9.3679 S   0  0  0  0  0  6  0  0  0  0  0  0
   -0.3697    5.4097   10.2735 O   0  0  0  0  0  0  0  0  0  0  0  0
    1.8988    6.2016    9.6213 O   0  0  0  0  0  0  0  0  0  0  0  0
   -0.2873    6.6776    7.3764 C   0  0  0  0  0  0  0  0  0  0  0  0
   -0.7348    6.8930    6.0989 C   0  0  0  0  0  0  0  0  0  0  0  0
   -0.6470    5.8751    5.1778 C   0  0  0  0  0  0  0  0  0  0  0  0
   -0.1280    4.7056    5.5549 N   0  0  0  0  0  0  0  0  0  0  0  0
    0.8699    2.1890    5.9614 C   0  0  0  0  0  0  0  0  0  0  0  0
    0.0730    0.9992    6.2774 C   0  0  0  0  0  0  0  0  0  0  0  0
    0.6204   -0.1256    6.8466 C   0  0  0  0  0  0  0  0  0  0  0  0
   -0.1979   -1.2068    7.1143 C   0  0  0  0  0  0  0  0  0  0  0  0
   -1.5489   -1.2221    6.8397 C   0  0  0  0  0  0  0  0  0  0  0  0
   -2.0819   -0.0800    6.2666 C   0  0  0  0  0  0  0  0  0  0  0  0
   -1.2761    1.0083    5.9934 C   0  0  0  0  0  0  0  0  0  0  0  0
   -1.8374    2.1124    5.4298 F   0  0  0  0  0  0  0  0  0  0  0  0
   -2.3336   -2.3099    7.1170 F   0  0  0  0  0  0  0  0  0  0  0  0
    1.9481   -0.1921    7.1493 F   0  0  0  0  0  0  0  0  0  0  0  0
    3.4944    1.6708   14.2869 O   0  0  0  0  0  0  0  0  0  0  0  0
    3.3030    0.3008   14.5863 C   0  0  0  0  0  0  0  0  0  0  0  0
  1  2  1  0
  2  3  1  0
  3  4  2  0
  4  5  1  0
  5  6  2  0
  6  7  1  0
  7  8  2  0
  7  9  1  0
  9 10  1  0
 10 11  2  0
 10 12  1  0
 12 13  1  0
 13 14  2  0
 14 15  1  0
 15 16  2  0
 15 17  2  0
 14 18  1  0
 18 19  2  0
 19 20  1  0
 20 21  2  0
 12 22  1  0
 22 23  1  0
 23 24  2  0
 24 25  1  0
 25 26  2  0
 26 27  1  0
 27 28  2  0
 28 29  1  0
 26 30  1  0
 24 31  1  0
  4 32  1  0
 32 33  1  0
  8  3  1  0
 15  9  1  0
 21 13  1  0
 28 23  1  0
M  END
$$$$
