
     RDKit          3D

 33 36  0  0  0  0  0  0  0  0999 V2000
   -0.9883   -1.5186    7.4243 C   0  0  0  0  0  0  0  0  0  0  0  0
   -0.0400   -2.0043    8.3235 O   0  0  0  0  0  0  0  0  0  0  0  0
    0.6445   -1.2520    9.2425 C   0  0  0  0  0  0  0  0  0  0  0  0
    1.1809   -1.8543   10.3608 C   0  0  0  0  0  0  0  0  0  0  0  0
    1.8433   -1.0750   11.2330 N   0  0  0  0  0  0  0  0  0  0  0  0
    2.0097    0.2492   11.0752 C   0  0  0  0  0  0  0  0  0  0  0  0
    1.4868    0.8838    9.9693 C   0  0  0  0  0  0  0  0  0  0  0  0
    0.8032    0.1051    9.0607 C   0  0  0  0  0  0  0  0  0  0  0  0
    1.6364    2.2882    9.7576 N   0  0  0  0  0  0  0  0  0  0  0  0
    1.9900    2.7524    8.4635 C   0  0  0  0  0  0  0  0  0  0  0  0
    2.1663    1.8983    7.5151 O   0  0  0  0  0  0  0  0  0  0  0  0
    2.1499    4.1270    8.2033 N   0  0  0  0  0  0  0  0  0  0  0  0
    1.9844    5.1647    9.1597 C   0  0  0  0  0  0  0  0  0  0  0  0
    1.6463    4.9946   10.4735 C   0  0  0  0  0  0  0  0  0  0  0  0
    1.3840    3.3575   11.0714 S   0  0  0  0  0  6  0  0  0  0  0  0
   -0.0321    3.3104   11.5761 O   0  0  0  0  0  0  0  0  0  0  0  0
    2.3774    3.1354   12.1780 O   0  0  0  0  0  0  0  0  0  0  0  0
    1.5116    6.0591   11.3135 C   0  0  0  0  0  0  0  0  0  0  0  0
    1.7151    7.3330   10.8504 C   0  0  0  0  0  0  0  0  0  0  0  0
    2.0558    7.5196    9.5308 C   0  0  0  0  0  0  0  0  0  0  0  0
    2.1785    6.4537    8.7383 N   0  0  0  0  0  0  0  0  0  0  0  0
    2.5176    4.5215    6.8289 C   0  0  0  0  0  0  0  0  0  0  0  0
    1.3486    4.9921    6.0788 C   0  0  0  0  0  0  0  0  0  0  0  0
    1.3677    6.1438    5.3292 C   0  0  0  0  0  0  0  0  0  0  0  0
    0.2240    6.5203    4.6505 C   0  0  0  0  0  0  0  0  0  0  0  0
   -0.9496    5.7977    4.6825 C   0  0  0  0  0  0  0  0  0  0  0  0
   -0.9493    4.6407    5.4430 C   0  0  0  0  0  0  0  0  0  0  0  0
    0.1864    4.2520    6.1267 C   0  0  0  0  0  0  0  0  0  0  0  0
    0.1469    3.1085    6.8632 F   0  0  0  0  0  0  0  0  0  0  0  0
   -2.0670    6.1974    3.9985 F   0  0  0  0  0  0  0  0  0  0  0  0
    2.4883    6.9158    5.2447 F   0  0  0  0  0  0  0  0  0  0  0  0
    1.0392   -3.2358   10.5801 O   0  0  0  0  0  0  0  0  0  0  0  0
    2.1770   -3.9590   11.0111 C   0  0  0  0  0  0  0  0  0  0  0  0
  1  2  1  0
  2  3  1  0
  3  4  2  0
  4  5  1  0
  5  6  2  0
  6  7  1  0
  7  8  2  0
  7  9  1  0
  9 10  1  0
 10 11  2  0
 10 12  1  0
 12 13  1  0
 13 14  2  0
 14 15  1  0
 15 16  2  0
 15 17  2  0
 14 18  1  0
 18 19  2  0
 19 20  1  0
 20 21  2  0
 12 22  1  0
 22 23  1  0
 23 24  2  0
 24 25  1  0
 25 26  2  0
 26 27  1  0
 27 28  2  0
 28 29  1  0
 26 30  1  0
 24 31  1  0
  4 32  1  0
 32 33  1  0
  8  3  1  0
 15  9  1  0
 21 13  1  0
 28 23  1  0
M  END
$$$$
