
     RDKit          3D

 33 36  0  0  0  0  0  0  0  0999 V2000
    3.7305   -1.6116   11.9783 C   0  0  0  0  0  0  0  0  0  0  0  0
    2.7482   -1.8673   11.0224 O   0  0  0  0  0  0  0  0  0  0  0  0
    1.8090   -0.9692   10.5861 C   0  0  0  0  0  0  0  0  0  0  0  0
    0.5531   -1.4093   10.2255 C   0  0  0  0  0  0  0  0  0  0  0  0
   -0.3336   -0.4911    9.8041 N   0  0  0  0  0  0  0  0  0  0  0  0
   -0.0642    0.8225    9.7160 C   0  0  0  0  0  0  0  0  0  0  0  0
    1.1808    1.2972   10.0682 C   0  0  0  0  0  0  0  0  0  0  0  0
    2.1068    0.3740   10.5035 C   0  0  0  0  0  0  0  0  0  0  0  0
    1.5151    2.6835    9.9912 N   0  0  0  0  0  0  0  0  0  0  0  0
    1.9016    3.2266    8.7378 C   0  0  0  0  0  0  0  0  0  0  0  0
    1.9408    2.4584    7.7043 O   0  0  0  0  0  0  0  0  0  0  0  0
    2.2412    4.5871    8.6092 N   0  0  0  0  0  0  0  0  0  0  0  0
    2.2377    5.5342    9.6686 C   0  0  0  0  0  0  0  0  0  0  0  0
    1.9069    5.2769   10.9699 C   0  0  0  0  0  0  0  0  0  0  0  0
    1.4373    3.6366   11.4120 S   0  0  0  0  0  6  0  0  0  0  0  0
    0.0386    3.7267   11.9578 O   0  0  0  0  0  0  0  0  0  0  0  0
    2.4140    3.1723   12.4566 O   0  0  0  0  0  0  0  0  0  0  0  0
    1.9352    6.2582   11.9151 C   0  0  0  0  0  0  0  0  0  0  0  0
    2.3000    7.5344   11.5732 C   0  0  0  0  0  0  0  0  0  0  0  0
    2.6356    7.8082   10.2676 C   0  0  0  0  0  0  0  0  0  0  0  0
    2.5962    6.8223    9.3701 N   0  0  0  0  0  0  0  0  0  0  0  0
    2.6305    5.0679    7.2687 C   0  0  0  0  0  0  0  0  0  0  0  0
    1.4814    5.0959    6.3581 C   0  0  0  0  0  0  0  0  0  0  0  0
    1.2490    4.1066    5.4328 C   0  0  0  0  0  0  0  0  0  0  0  0
    0.1429    4.2055    4.6100 C   0  0  0  0  0  0  0  0  0  0  0  0
   -0.7522    5.2526    4.6647 C   0  0  0  0  0  0  0  0  0  0  0  0
   -0.5013    6.2392    5.6031 C   0  0  0  0  0  0  0  0  0  0  0  0
    0.6003    6.1537    6.4322 C   0  0  0  0  0  0  0  0  0  0  0  0
    0.8125    7.1435    7.3416 F   0  0  0  0  0  0  0  0  0  0  0  0
   -1.8397    5.3219    3.8350 F   0  0  0  0  0  0  0  0  0  0  0  0
    2.0859    3.0369    5.3139 F   0  0  0  0  0  0  0  0  0  0  0  0
    0.2128   -2.7716   10.2965 O   0  0  0  0  0  0  0  0  0  0  0  0
   -1.0839   -3.1085   10.7530 C   0  0  0  0  0  0  0  0  0  0  0  0
  1  2  1  0
  2  3  1  0
  3  4  2  0
  4  5  1  0
  5  6  2  0
  6  7  1  0
  7  8  2  0
  7  9  1  0
  9 10  1  0
 10 11  2  0
 10 12  1  0
 12 13  1  0
 13 14  2  0
 14 15  1  0
 15 16  2  0
 15 17  2  0
 14 18  1  0
 18 19  2  0
 19 20  1  0
 20 21  2  0
 12 22  1  0
 22 23  1  0
 23 24  2  0
 24 25  1  0
 25 26  2  0
 26 27  1  0
 27 28  2  0
 28 29  1  0
 26 30  1  0
 24 31  1  0
  4 32  1  0
 32 33  1  0
  8  3  1  0
 15  9  1  0
 21 13  1  0
 28 23  1  0
M  END
$$$$
