
     RDKit          3D

 22 24  0  0  0  0  0  0  0  0999 V2000
   -3.0895   -2.1348    3.2660 C   0  0  0  0  0  0  0  0  0  0  0  0
   -2.8649   -1.8999    4.7438 C   0  0  0  0  0  0  0  0  0  0  0  0
   -2.7597   -0.4592    5.0202 N   0  0  0  0  0  0  0  0  0  0  0  0
   -1.6242    0.0857    5.6588 C   0  0  0  0  0  0  0  0  0  0  0  0
   -0.5415   -0.5499    5.5882 O   0  0  0  0  0  0  0  0  0  0  0  0
   -1.6202    1.3618    6.4105 C   0  0  1  0  0  0  0  0  0  0  0  0
   -1.4157    1.1646    7.7733 O   0  0  0  0  0  0  0  0  0  0  0  0
   -1.0146    2.4013    8.2109 C   0  0  2  0  0  0  0  0  0  0  0  0
    0.1384    2.6980    7.2427 C   0  0  1  0  0  0  0  0  0  0  0  0
   -0.5200    2.2882    5.9408 C   0  0  2  0  0  0  0  0  0  0  0  0
   -1.1225    3.4092    5.3698 O   0  0  0  0  0  0  0  0  0  0  0  0
    0.4170    4.0596    7.2735 O   0  0  0  0  0  0  0  0  0  0  0  0
   -0.5761    2.4303    9.5771 N   0  0  0  0  0  0  0  0  0  0  0  0
   -1.3579    2.1028   10.6219 C   0  0  0  0  0  0  0  0  0  0  0  0
   -0.6771    2.2254   11.7640 N   0  0  0  0  0  0  0  0  0  0  0  0
    0.5545    2.6385   11.4153 C   0  0  0  0  0  0  0  0  0  0  0  0
    0.6154    2.7658   10.0491 C   0  0  0  0  0  0  0  0  0  0  0  0
    1.7582    3.1691    9.4722 N   0  0  0  0  0  0  0  0  0  0  0  0
    2.8098    3.4350   10.2692 C   0  0  0  0  0  0  0  0  0  0  0  0
    2.7650    3.3146   11.6123 N   0  0  0  0  0  0  0  0  0  0  0  0
    1.6463    2.9147   12.2410 C   0  0  0  0  0  0  0  0  0  0  0  0
    1.5463    2.7716   13.6515 N   0  0  0  0  0  0  0  0  0  0  0  0
  1  2  1  0
  2  3  1  0
  3  4  1  0
  4  5  2  0
  6  4  1  6
  6  7  1  0
  7  8  1  0
  8  9  1  0
  9 10  1  0
 10 11  1  1
  9 12  1  6
  8 13  1  1
 13 14  1  0
 14 15  2  0
 15 16  1  0
 16 17  2  0
 17 18  1  0
 18 19  2  0
 19 20  1  0
 20 21  2  0
 21 22  1  0
 10  6  1  0
 17 13  1  0
 21 16  1  0
M  END
$$$$
