
     RDKit          3D

 22 24  0  0  0  0  0  0  0  0999 V2000
   -3.7339   -2.2178    4.0953 C   0  0  0  0  0  0  0  0  0  0  0  0
   -2.3537   -1.7278    4.4754 C   0  0  0  0  0  0  0  0  0  0  0  0
   -2.3772   -0.2774    4.7184 N   0  0  0  0  0  0  0  0  0  0  0  0
   -1.2617    0.3945    5.2644 C   0  0  0  0  0  0  0  0  0  0  0  0
   -0.1149    0.0495    4.8809 O   0  0  0  0  0  0  0  0  0  0  0  0
   -1.3494    1.4841    6.2637 C   0  0  1  0  0  0  0  0  0  0  0  0
   -0.8111    1.1110    7.4921 O   0  0  0  0  0  0  0  0  0  0  0  0
   -0.5821    2.3137    8.1107 C   0  0  2  0  0  0  0  0  0  0  0  0
    0.2417    3.0442    7.0418 C   0  0  1  0  0  0  0  0  0  0  0  0
   -0.5929    2.7170    5.8199 C   0  0  2  0  0  0  0  0  0  0  0  0
   -1.5220    3.7388    5.6238 O   0  0  0  0  0  0  0  0  0  0  0  0
    0.2379    4.4063    7.3192 O   0  0  0  0  0  0  0  0  0  0  0  0
    0.1343    2.2128    9.3502 N   0  0  0  0  0  0  0  0  0  0  0  0
    0.4969    1.0458    9.9131 C   0  0  0  0  0  0  0  0  0  0  0  0
    1.1479    1.2681   11.0575 N   0  0  0  0  0  0  0  0  0  0  0  0
    1.1879    2.6044   11.2042 C   0  0  0  0  0  0  0  0  0  0  0  0
    0.5544    3.1925   10.1369 C   0  0  0  0  0  0  0  0  0  0  0  0
    0.4722    4.5305   10.0711 N   0  0  0  0  0  0  0  0  0  0  0  0
    1.0222    5.2480   11.0684 C   0  0  0  0  0  0  0  0  0  0  0  0
    1.6475    4.6846   12.1229 N   0  0  0  0  0  0  0  0  0  0  0  0
    1.7581    3.3500   12.2382 C   0  0  0  0  0  0  0  0  0  0  0  0
    2.4060    2.7066   13.3274 N   0  0  0  0  0  0  0  0  0  0  0  0
  1  2  1  0
  2  3  1  0
  3  4  1  0
  4  5  2  0
  6  4  1  6
  6  7  1  0
  7  8  1  0
  8  9  1  0
  9 10  1  0
 10 11  1  1
  9 12  1  1
  8 13  1  1
 13 14  1  0
 14 15  2  0
 15 16  1  0
 16 17  2  0
 17 18  1  0
 18 19  2  0
 19 20  1  0
 20 21  2  0
 21 22  1  0
 10  6  1  0
 17 13  1  0
 21 16  1  0
M  END
$$$$
