
     RDKit          3D

 22 24  0  0  0  0  0  0  0  0999 V2000
   -3.5895   -1.8831    3.4159 C   0  0  0  0  0  0  0  0  0  0  0  0
   -2.2451   -1.4730    3.9761 C   0  0  0  0  0  0  0  0  0  0  0  0
   -2.3628   -0.1990    4.7016 N   0  0  0  0  0  0  0  0  0  0  0  0
   -1.2284    0.4497    5.2365 C   0  0  0  0  0  0  0  0  0  0  0  0
   -0.0914    0.0405    4.8883 O   0  0  0  0  0  0  0  0  0  0  0  0
   -1.2852    1.5857    6.1851 C   0  0  1  0  0  0  0  0  0  0  0  0
   -0.8053    1.2388    7.4449 O   0  0  0  0  0  0  0  0  0  0  0  0
   -0.5284    2.4536    8.0188 C   0  0  2  0  0  0  0  0  0  0  0  0
    0.3662    3.0902    6.9468 C   0  0  1  0  0  0  0  0  0  0  0  0
   -0.4484    2.7549    5.7138 C   0  0  2  0  0  0  0  0  0  0  0  0
   -1.3130    3.8158    5.4443 O   0  0  0  0  0  0  0  0  0  0  0  0
    0.4299    4.4615    7.1657 O   0  0  0  0  0  0  0  0  0  0  0  0
    0.1439    2.3690    9.2839 N   0  0  0  0  0  0  0  0  0  0  0  0
    0.5769    1.2166    9.8267 C   0  0  0  0  0  0  0  0  0  0  0  0
    1.1618    1.4519   11.0037 N   0  0  0  0  0  0  0  0  0  0  0  0
    1.0878    2.7816   11.1917 C   0  0  0  0  0  0  0  0  0  0  0  0
    0.4518    3.3525   10.1165 C   0  0  0  0  0  0  0  0  0  0  0  0
    0.2644    4.6812   10.0872 N   0  0  0  0  0  0  0  0  0  0  0  0
    0.7145    5.4067   11.1278 C   0  0  0  0  0  0  0  0  0  0  0  0
    1.3409    4.8603   12.1905 N   0  0  0  0  0  0  0  0  0  0  0  0
    1.5543    3.5355   12.2706 C   0  0  0  0  0  0  0  0  0  0  0  0
    2.2082    2.9101   13.3666 N   0  0  0  0  0  0  0  0  0  0  0  0
  1  2  1  0
  2  3  1  0
  3  4  1  0
  4  5  2  0
  6  4  1  6
  6  7  1  0
  7  8  1  0
  8  9  1  0
  9 10  1  0
 10 11  1  1
  9 12  1  1
  8 13  1  1
 13 14  1  0
 14 15  2  0
 15 16  1  0
 16 17  2  0
 17 18  1  0
 18 19  2  0
 19 20  1  0
 20 21  2  0
 21 22  1  0
 10  6  1  0
 17 13  1  0
 21 16  1  0
M  END
$$$$
