
     RDKit          3D

 22 24  0  0  0  0  0  0  0  0999 V2000
   -3.0474   -2.2782    4.8557 C   0  0  0  0  0  0  0  0  0  0  0  0
   -2.5074   -1.2225    3.9159 C   0  0  0  0  0  0  0  0  0  0  0  0
   -2.4607    0.0839    4.5902 N   0  0  0  0  0  0  0  0  0  0  0  0
   -1.2792    0.5511    5.2063 C   0  0  0  0  0  0  0  0  0  0  0  0
   -0.1909    0.0035    4.8950 O   0  0  0  0  0  0  0  0  0  0  0  0
   -1.2328    1.6483    6.2002 C   0  0  1  0  0  0  0  0  0  0  0  0
   -0.7325    1.2211    7.4269 O   0  0  0  0  0  0  0  0  0  0  0  0
   -0.3611    2.3921    8.0374 C   0  0  2  0  0  0  0  0  0  0  0  0
    0.5340    3.0170    6.9590 C   0  0  1  0  0  0  0  0  0  0  0  0
   -0.3417    2.7830    5.7445 C   0  0  2  0  0  0  0  0  0  0  0  0
   -1.1474    3.9047    5.5488 O   0  0  0  0  0  0  0  0  0  0  0  0
    0.6902    4.3717    7.2288 O   0  0  0  0  0  0  0  0  0  0  0  0
    0.3476    2.2146    9.2726 N   0  0  0  0  0  0  0  0  0  0  0  0
    0.6844    1.0138    9.7774 C   0  0  0  0  0  0  0  0  0  0  0  0
    1.3346    1.1652   10.9337 N   0  0  0  0  0  0  0  0  0  0  0  0
    1.4007    2.4914   11.1476 C   0  0  0  0  0  0  0  0  0  0  0  0
    0.7837    3.1450   10.1090 C   0  0  0  0  0  0  0  0  0  0  0  0
    0.7285    4.4860   10.1103 N   0  0  0  0  0  0  0  0  0  0  0  0
    1.2883    5.1413   11.1443 C   0  0  0  0  0  0  0  0  0  0  0  0
    1.8976    4.5132   12.1712 N   0  0  0  0  0  0  0  0  0  0  0  0
    1.9810    3.1725   12.2197 C   0  0  0  0  0  0  0  0  0  0  0  0
    2.6112    2.4624   13.2773 N   0  0  0  0  0  0  0  0  0  0  0  0
  1  2  1  0
  2  3  1  0
  3  4  1  0
  4  5  2  0
  6  4  1  6
  6  7  1  0
  7  8  1  0
  8  9  1  0
  9 10  1  0
 10 11  1  1
  9 12  1  1
  8 13  1  1
 13 14  1  0
 14 15  2  0
 15 16  1  0
 16 17  2  0
 17 18  1  0
 18 19  2  0
 19 20  1  0
 20 21  2  0
 21 22  1  0
 10  6  1  0
 17 13  1  0
 21 16  1  0
M  END
$$$$
