
     RDKit          3D

 22 24  0  0  0  0  0  0  0  0999 V2000
   -3.5650   -1.8772    3.6687 C   0  0  0  0  0  0  0  0  0  0  0  0
   -2.6716   -1.5345    4.8408 C   0  0  0  0  0  0  0  0  0  0  0  0
   -2.6087   -0.0765    5.0241 N   0  0  0  0  0  0  0  0  0  0  0  0
   -1.4301    0.5575    5.4743 C   0  0  0  0  0  0  0  0  0  0  0  0
   -0.3274    0.1393    5.0380 O   0  0  0  0  0  0  0  0  0  0  0  0
   -1.4025    1.6880    6.4308 C   0  0  1  0  0  0  0  0  0  0  0  0
   -0.9008    1.3093    7.6728 O   0  0  0  0  0  0  0  0  0  0  0  0
   -0.5479    2.5052    8.2447 C   0  0  2  0  0  0  0  0  0  0  0  0
    0.3422    3.1061    7.1487 C   0  0  1  0  0  0  0  0  0  0  0  0
   -0.5257    2.8192    5.9401 C   0  0  2  0  0  0  0  0  0  0  0  0
   -1.3463    3.9222    5.7042 O   0  0  0  0  0  0  0  0  0  0  0  0
    0.4786    4.4712    7.3733 O   0  0  0  0  0  0  0  0  0  0  0  0
    0.1588    2.3794    9.4874 N   0  0  0  0  0  0  0  0  0  0  0  0
    0.5968    1.2086    9.9850 C   0  0  0  0  0  0  0  0  0  0  0  0
    1.2164    1.4057   11.1512 N   0  0  0  0  0  0  0  0  0  0  0  0
    1.1593    2.7301   11.3787 C   0  0  0  0  0  0  0  0  0  0  0  0
    0.4984    3.3363   10.3384 C   0  0  0  0  0  0  0  0  0  0  0  0
    0.3218    4.6667   10.3520 N   0  0  0  0  0  0  0  0  0  0  0  0
    0.8070    5.3588   11.3995 C   0  0  0  0  0  0  0  0  0  0  0  0
    1.4582    4.7773   12.4284 N   0  0  0  0  0  0  0  0  0  0  0  0
    1.6622    3.4492   12.4649 C   0  0  0  0  0  0  0  0  0  0  0  0
    2.3412    2.7877   13.5239 N   0  0  0  0  0  0  0  0  0  0  0  0
  1  2  1  0
  2  3  1  0
  3  4  1  0
  4  5  2  0
  6  4  1  6
  6  7  1  0
  7  8  1  0
  8  9  1  0
  9 10  1  0
 10 11  1  1
  9 12  1  1
  8 13  1  1
 13 14  1  0
 14 15  2  0
 15 16  1  0
 16 17  2  0
 17 18  1  0
 18 19  2  0
 19 20  1  0
 20 21  2  0
 21 22  1  0
 10  6  1  0
 17 13  1  0
 21 16  1  0
M  END
$$$$
