
     RDKit          3D

 22 24  0  0  0  0  0  0  0  0999 V2000
   -3.7588   -1.9396    4.0890 C   0  0  0  0  0  0  0  0  0  0  0  0
   -2.3227   -1.5149    4.3051 C   0  0  0  0  0  0  0  0  0  0  0  0
   -2.2625   -0.0929    4.6761 N   0  0  0  0  0  0  0  0  0  0  0  0
   -1.1109    0.4619    5.2761 C   0  0  0  0  0  0  0  0  0  0  0  0
    0.0087   -0.0238    4.9733 O   0  0  0  0  0  0  0  0  0  0  0  0
   -1.1306    1.5833    6.2434 C   0  0  1  0  0  0  0  0  0  0  0  0
   -0.6145    1.2137    7.4823 O   0  0  0  0  0  0  0  0  0  0  0  0
   -0.3117    2.4176    8.0661 C   0  0  2  0  0  0  0  0  0  0  0  0
    0.5537    3.0651    6.9768 C   0  0  1  0  0  0  0  0  0  0  0  0
   -0.3008    2.7543    5.7645 C   0  0  2  0  0  0  0  0  0  0  0  0
   -1.1660    3.8249    5.5384 O   0  0  0  0  0  0  0  0  0  0  0  0
    0.6335    4.4324    7.2147 O   0  0  0  0  0  0  0  0  0  0  0  0
    0.3987    2.3089    9.3083 N   0  0  0  0  0  0  0  0  0  0  0  0
    0.7981    1.1409    9.8433 C   0  0  0  0  0  0  0  0  0  0  0  0
    1.4325    1.3553   10.9985 N   0  0  0  0  0  0  0  0  0  0  0  0
    1.4243    2.6879   11.1805 C   0  0  0  0  0  0  0  0  0  0  0  0
    0.7783    3.2816   10.1238 C   0  0  0  0  0  0  0  0  0  0  0  0
    0.6495    4.6171   10.0926 N   0  0  0  0  0  0  0  0  0  0  0  0
    1.1665    5.3267   11.1129 C   0  0  0  0  0  0  0  0  0  0  0  0
    1.8036    4.7578   12.1573 N   0  0  0  0  0  0  0  0  0  0  0  0
    1.9603    3.4252   12.2384 C   0  0  0  0  0  0  0  0  0  0  0  0
    2.6225    2.7763   13.3156 N   0  0  0  0  0  0  0  0  0  0  0  0
  1  2  1  0
  2  3  1  0
  3  4  1  0
  4  5  2  0
  6  4  1  6
  6  7  1  0
  7  8  1  0
  8  9  1  0
  9 10  1  0
 10 11  1  1
  9 12  1  1
  8 13  1  1
 13 14  1  0
 14 15  2  0
 15 16  1  0
 16 17  2  0
 17 18  1  0
 18 19  2  0
 19 20  1  0
 20 21  2  0
 21 22  1  0
 10  6  1  0
 17 13  1  0
 21 16  1  0
M  END
$$$$
