
     RDKit          3D

 22 24  0  0  0  0  0  0  0  0999 V2000
   -3.4362   -2.2037    4.4262 C   0  0  0  0  0  0  0  0  0  0  0  0
   -2.0591   -1.6309    4.6810 C   0  0  0  0  0  0  0  0  0  0  0  0
   -2.1306   -0.1667    4.8003 N   0  0  0  0  0  0  0  0  0  0  0  0
   -1.0016    0.5965    5.1703 C   0  0  0  0  0  0  0  0  0  0  0  0
    0.1365    0.1630    4.8570 O   0  0  0  0  0  0  0  0  0  0  0  0
   -1.0655    1.8801    5.9064 C   0  0  1  0  0  0  0  0  0  0  0  0
   -0.9735    1.6978    7.2834 O   0  0  0  0  0  0  0  0  0  0  0  0
   -0.6155    2.9410    7.7396 C   0  0  2  0  0  0  0  0  0  0  0  0
    0.6122    3.2341    6.8670 C   0  0  1  0  0  0  0  0  0  0  0  0
    0.0655    2.8077    5.5195 C   0  0  2  0  0  0  0  0  0  0  0  0
   -0.4928    3.9196    4.8889 O   0  0  0  0  0  0  0  0  0  0  0  0
    0.8811    4.5974    6.9064 O   0  0  0  0  0  0  0  0  0  0  0  0
   -0.2916    2.9860    9.1370 N   0  0  0  0  0  0  0  0  0  0  0  0
   -1.1885    3.2443   10.1060 C   0  0  0  0  0  0  0  0  0  0  0  0
   -0.5957    3.2190   11.3022 N   0  0  0  0  0  0  0  0  0  0  0  0
    0.6982    2.9383   11.0655 C   0  0  0  0  0  0  0  0  0  0  0  0
    0.8860    2.7932    9.7126 C   0  0  0  0  0  0  0  0  0  0  0  0
    2.1098    2.5080    9.2411 N   0  0  0  0  0  0  0  0  0  0  0  0
    3.1141    2.3748   10.1272 C   0  0  0  0  0  0  0  0  0  0  0  0
    2.9451    2.5145   11.4585 N   0  0  0  0  0  0  0  0  0  0  0  0
    1.7411    2.7998   11.9838 C   0  0  0  0  0  0  0  0  0  0  0  0
    1.5093    2.9571   13.3771 N   0  0  0  0  0  0  0  0  0  0  0  0
  1  2  1  0
  2  3  1  0
  3  4  1  0
  4  5  2  0
  6  4  1  6
  6  7  1  0
  7  8  1  0
  8  9  1  0
  9 10  1  0
 10 11  1  1
  9 12  1  6
  8 13  1  1
 13 14  1  0
 14 15  2  0
 15 16  1  0
 16 17  2  0
 17 18  1  0
 18 19  2  0
 19 20  1  0
 20 21  2  0
 21 22  1  0
 10  6  1  0
 17 13  1  0
 21 16  1  0
M  END
$$$$
