
     RDKit          3D

 22 24  0  0  0  0  0  0  0  0999 V2000
   -3.8222   -2.0180    3.8989 C   0  0  0  0  0  0  0  0  0  0  0  0
   -2.4308   -1.6438    4.3609 C   0  0  0  0  0  0  0  0  0  0  0  0
   -2.3321   -0.1890    4.5533 N   0  0  0  0  0  0  0  0  0  0  0  0
   -1.1868    0.3996    5.1327 C   0  0  0  0  0  0  0  0  0  0  0  0
   -0.0583   -0.0439    4.7992 O   0  0  0  0  0  0  0  0  0  0  0  0
   -1.2228    1.5101    6.1121 C   0  0  1  0  0  0  0  0  0  0  0  0
   -0.6731    1.1439    7.3375 O   0  0  0  0  0  0  0  0  0  0  0  0
   -0.3963    2.3505    7.9285 C   0  0  2  0  0  0  0  0  0  0  0  0
    0.4290    3.0351    6.8308 C   0  0  1  0  0  0  0  0  0  0  0  0
   -0.4377    2.7107    5.6309 C   0  0  2  0  0  0  0  0  0  0  0  0
   -1.3390    3.7565    5.4318 O   0  0  0  0  0  0  0  0  0  0  0  0
    0.4716    4.4018    7.0818 O   0  0  0  0  0  0  0  0  0  0  0  0
    0.3398    2.2511    9.1565 N   0  0  0  0  0  0  0  0  0  0  0  0
    0.7690    1.0887    9.6807 C   0  0  0  0  0  0  0  0  0  0  0  0
    1.4219    1.3113   10.8240 N   0  0  0  0  0  0  0  0  0  0  0  0
    1.3948    2.6431   11.0096 C   0  0  0  0  0  0  0  0  0  0  0  0
    0.7185    3.2281    9.9671 C   0  0  0  0  0  0  0  0  0  0  0  0
    0.5667    4.5614    9.9418 N   0  0  0  0  0  0  0  0  0  0  0  0
    1.0913    5.2773   10.9537 C   0  0  0  0  0  0  0  0  0  0  0  0
    1.7579    4.7169   11.9842 N   0  0  0  0  0  0  0  0  0  0  0  0
    1.9386    3.3870   12.0589 C   0  0  0  0  0  0  0  0  0  0  0  0
    2.6324    2.7469   13.1214 N   0  0  0  0  0  0  0  0  0  0  0  0
  1  2  1  0
  2  3  1  0
  3  4  1  0
  4  5  2  0
  6  4  1  6
  6  7  1  0
  7  8  1  0
  8  9  1  0
  9 10  1  0
 10 11  1  1
  9 12  1  1
  8 13  1  1
 13 14  1  0
 14 15  2  0
 15 16  1  0
 16 17  2  0
 17 18  1  0
 18 19  2  0
 19 20  1  0
 20 21  2  0
 21 22  1  0
 10  6  1  0
 17 13  1  0
 21 16  1  0
M  END
$$$$
