
     RDKit          3D

 22 24  0  0  0  0  0  0  0  0999 V2000
   -3.0109   -2.2844    4.9018 C   0  0  0  0  0  0  0  0  0  0  0  0
   -2.6724   -1.1514    3.9578 C   0  0  0  0  0  0  0  0  0  0  0  0
   -2.6195    0.1231    4.6901 N   0  0  0  0  0  0  0  0  0  0  0  0
   -1.4763    0.4995    5.4285 C   0  0  0  0  0  0  0  0  0  0  0  0
   -0.4111   -0.1420    5.2414 O   0  0  0  0  0  0  0  0  0  0  0  0
   -1.4447    1.6045    6.4143 C   0  0  1  0  0  0  0  0  0  0  0  0
   -0.9441    1.1917    7.6458 O   0  0  0  0  0  0  0  0  0  0  0  0
   -0.5871    2.3710    8.2488 C   0  0  2  0  0  0  0  0  0  0  0  0
    0.3050    2.9973    7.1687 C   0  0  1  0  0  0  0  0  0  0  0  0
   -0.5641    2.7451    5.9531 C   0  0  2  0  0  0  0  0  0  0  0  0
   -1.3810    3.8568    5.7465 O   0  0  0  0  0  0  0  0  0  0  0  0
    0.4460    4.3556    7.4290 O   0  0  0  0  0  0  0  0  0  0  0  0
    0.1194    2.2102    9.4876 N   0  0  0  0  0  0  0  0  0  0  0  0
    0.4210    1.0158   10.0285 C   0  0  0  0  0  0  0  0  0  0  0  0
    1.0787    1.1828   11.1784 N   0  0  0  0  0  0  0  0  0  0  0  0
    1.1854    2.5124   11.3512 C   0  0  0  0  0  0  0  0  0  0  0  0
    0.5856    3.1522   10.2941 C   0  0  0  0  0  0  0  0  0  0  0  0
    0.5710    4.4936   10.2543 N   0  0  0  0  0  0  0  0  0  0  0  0
    1.1531    5.1631   11.2665 C   0  0  0  0  0  0  0  0  0  0  0  0
    1.7460    4.5487   12.3113 N   0  0  0  0  0  0  0  0  0  0  0  0
    1.7890    3.2081   12.4008 C   0  0  0  0  0  0  0  0  0  0  0  0
    2.4003    2.5121   13.4786 N   0  0  0  0  0  0  0  0  0  0  0  0
  1  2  1  0
  2  3  1  0
  3  4  1  0
  4  5  2  0
  6  4  1  6
  6  7  1  0
  7  8  1  0
  8  9  1  0
  9 10  1  0
 10 11  1  1
  9 12  1  1
  8 13  1  1
 13 14  1  0
 14 15  2  0
 15 16  1  0
 16 17  2  0
 17 18  1  0
 18 19  2  0
 19 20  1  0
 20 21  2  0
 21 22  1  0
 10  6  1  0
 17 13  1  0
 21 16  1  0
M  END
$$$$
