
     RDKit          3D

 22 24  0  0  0  0  0  0  0  0999 V2000
   -3.4084   -1.8980    3.4582 C   0  0  0  0  0  0  0  0  0  0  0  0
   -2.3578   -1.7129    4.5313 C   0  0  0  0  0  0  0  0  0  0  0  0
   -2.3830   -0.3315    5.0358 N   0  0  0  0  0  0  0  0  0  0  0  0
   -1.2513    0.2470    5.6509 C   0  0  0  0  0  0  0  0  0  0  0  0
   -0.1336   -0.3008    5.4721 O   0  0  0  0  0  0  0  0  0  0  0  0
   -1.2898    1.4618    6.4974 C   0  0  1  0  0  0  0  0  0  0  0  0
   -0.8313    1.2138    7.7882 O   0  0  0  0  0  0  0  0  0  0  0  0
   -0.5305    2.4668    8.2586 C   0  0  2  0  0  0  0  0  0  0  0  0
    0.3902    2.9871    7.1467 C   0  0  1  0  0  0  0  0  0  0  0  0
   -0.4198    2.5657    5.9373 C   0  0  2  0  0  0  0  0  0  0  0  0
   -1.2554    3.6195    5.5670 O   0  0  0  0  0  0  0  0  0  0  0  0
    0.4853    4.3703    7.2473 O   0  0  0  0  0  0  0  0  0  0  0  0
    0.1268    2.4760    9.5344 N   0  0  0  0  0  0  0  0  0  0  0  0
    0.3746    1.3689   10.2576 C   0  0  0  0  0  0  0  0  0  0  0  0
    0.9957    1.6902   11.3951 N   0  0  0  0  0  0  0  0  0  0  0  0
    1.1345    3.0278   11.3731 C   0  0  0  0  0  0  0  0  0  0  0  0
    0.5912    3.5166   10.2102 C   0  0  0  0  0  0  0  0  0  0  0  0
    0.6167    4.8371    9.9716 N   0  0  0  0  0  0  0  0  0  0  0  0
    1.1817    5.6363   10.8956 C   0  0  0  0  0  0  0  0  0  0  0  0
    1.7193    5.1708   12.0423 N   0  0  0  0  0  0  0  0  0  0  0  0
    1.7204    3.8580   12.3310 C   0  0  0  0  0  0  0  0  0  0  0  0
    2.2729    3.3163   13.5232 N   0  0  0  0  0  0  0  0  0  0  0  0
  1  2  1  0
  2  3  1  0
  3  4  1  0
  4  5  2  0
  6  4  1  6
  6  7  1  0
  7  8  1  0
  8  9  1  0
  9 10  1  0
 10 11  1  1
  9 12  1  1
  8 13  1  1
 13 14  1  0
 14 15  2  0
 15 16  1  0
 16 17  2  0
 17 18  1  0
 18 19  2  0
 19 20  1  0
 20 21  2  0
 21 22  1  0
 10  6  1  0
 17 13  1  0
 21 16  1  0
M  END
$$$$
