
     RDKit          3D

 22 24  0  0  0  0  0  0  0  0999 V2000
   -3.6147   -2.1735    4.4379 C   0  0  0  0  0  0  0  0  0  0  0  0
   -2.5772   -1.2188    3.8887 C   0  0  0  0  0  0  0  0  0  0  0  0
   -2.5404    0.0115    4.6939 N   0  0  0  0  0  0  0  0  0  0  0  0
   -1.4758    0.2764    5.5829 C   0  0  0  0  0  0  0  0  0  0  0  0
   -0.5053   -0.5230    5.6017 O   0  0  0  0  0  0  0  0  0  0  0  0
   -1.4227    1.4378    6.5005 C   0  0  1  0  0  0  0  0  0  0  0  0
   -0.9040    1.0961    7.7463 O   0  0  0  0  0  0  0  0  0  0  0  0
   -0.5314    2.3071    8.2721 C   0  0  2  0  0  0  0  0  0  0  0  0
    0.3459    2.8629    7.1424 C   0  0  1  0  0  0  0  0  0  0  0  0
   -0.5442    2.5439    5.9581 C   0  0  2  0  0  0  0  0  0  0  0  0
   -1.3589    3.6460    5.6988 O   0  0  0  0  0  0  0  0  0  0  0  0
    0.4977    4.2333    7.3190 O   0  0  0  0  0  0  0  0  0  0  0  0
    0.1944    2.2161    9.5068 N   0  0  0  0  0  0  0  0  0  0  0  0
    0.6510    1.0611   10.0241 C   0  0  0  0  0  0  0  0  0  0  0  0
    1.2855    1.2905   11.1764 N   0  0  0  0  0  0  0  0  0  0  0  0
    1.2188    2.6191   11.3747 C   0  0  0  0  0  0  0  0  0  0  0  0
    0.5370    3.1953   10.3309 C   0  0  0  0  0  0  0  0  0  0  0  0
    0.3477    4.5239   10.3170 N   0  0  0  0  0  0  0  0  0  0  0  0
    0.8413    5.2441   11.3414 C   0  0  0  0  0  0  0  0  0  0  0  0
    1.5129    4.6924   12.3734 N   0  0  0  0  0  0  0  0  0  0  0  0
    1.7304    3.3674   12.4369 C   0  0  0  0  0  0  0  0  0  0  0  0
    2.4310    2.7365   13.5004 N   0  0  0  0  0  0  0  0  0  0  0  0
  1  2  1  0
  2  3  1  0
  3  4  1  0
  4  5  2  0
  6  4  1  6
  6  7  1  0
  7  8  1  0
  8  9  1  0
  9 10  1  0
 10 11  1  1
  9 12  1  1
  8 13  1  1
 13 14  1  0
 14 15  2  0
 15 16  1  0
 16 17  2  0
 17 18  1  0
 18 19  2  0
 19 20  1  0
 20 21  2  0
 21 22  1  0
 10  6  1  0
 17 13  1  0
 21 16  1  0
M  END
$$$$
