
     RDKit          3D

 22 24  0  0  0  0  0  0  0  0999 V2000
   -2.7961   -1.9747    3.0356 C   0  0  0  0  0  0  0  0  0  0  0  0
   -2.4686   -1.6269    4.4713 C   0  0  0  0  0  0  0  0  0  0  0  0
   -2.2913   -0.1739    4.6156 N   0  0  0  0  0  0  0  0  0  0  0  0
   -1.1183    0.3706    5.1825 C   0  0  0  0  0  0  0  0  0  0  0  0
   -0.0146   -0.1476    4.8750 O   0  0  0  0  0  0  0  0  0  0  0  0
   -1.0978    1.5170    6.1201 C   0  0  1  0  0  0  0  0  0  0  0  0
   -0.6025    1.1599    7.3711 O   0  0  0  0  0  0  0  0  0  0  0  0
   -0.2547    2.3658    7.9249 C   0  0  2  0  0  0  0  0  0  0  0  0
    0.6408    2.9496    6.8240 C   0  0  1  0  0  0  0  0  0  0  0  0
   -0.2198    2.6412    5.6154 C   0  0  2  0  0  0  0  0  0  0  0  0
   -1.0407    3.7388    5.3566 O   0  0  0  0  0  0  0  0  0  0  0  0
    0.7739    4.3184    7.0265 O   0  0  0  0  0  0  0  0  0  0  0  0
    0.4452    2.2618    9.1735 N   0  0  0  0  0  0  0  0  0  0  0  0
    0.8119    1.0939    9.7318 C   0  0  0  0  0  0  0  0  0  0  0  0
    1.4443    1.3132   10.8872 N   0  0  0  0  0  0  0  0  0  0  0  0
    1.4685    2.6486   11.0454 C   0  0  0  0  0  0  0  0  0  0  0  0
    0.8440    3.2392    9.9740 C   0  0  0  0  0  0  0  0  0  0  0  0
    0.7489    4.5768    9.9182 N   0  0  0  0  0  0  0  0  0  0  0  0
    1.2773    5.2914   10.9290 C   0  0  0  0  0  0  0  0  0  0  0  0
    1.8935    4.7257   11.9876 N   0  0  0  0  0  0  0  0  0  0  0  0
    2.0163    3.3913   12.0935 C   0  0  0  0  0  0  0  0  0  0  0  0
    2.6554    2.7455   13.1863 N   0  0  0  0  0  0  0  0  0  0  0  0
  1  2  1  0
  2  3  1  0
  3  4  1  0
  4  5  2  0
  6  4  1  6
  6  7  1  0
  7  8  1  0
  8  9  1  0
  9 10  1  0
 10 11  1  1
  9 12  1  1
  8 13  1  1
 13 14  1  0
 14 15  2  0
 15 16  1  0
 16 17  2  0
 17 18  1  0
 18 19  2  0
 19 20  1  0
 20 21  2  0
 21 22  1  0
 10  6  1  0
 17 13  1  0
 21 16  1  0
M  END
$$$$
