
     RDKit          3D

 22 24  0  0  0  0  0  0  0  0999 V2000
   -2.9317   -1.9453    3.0521 C   0  0  0  0  0  0  0  0  0  0  0  0
   -2.4446   -1.8193    4.4791 C   0  0  0  0  0  0  0  0  0  0  0  0
   -2.3717   -0.4030    4.8692 N   0  0  0  0  0  0  0  0  0  0  0  0
   -1.1735    0.1647    5.3550 C   0  0  0  0  0  0  0  0  0  0  0  0
   -0.0872   -0.3895    5.0485 O   0  0  0  0  0  0  0  0  0  0  0  0
   -1.1074    1.3753    6.2057 C   0  0  1  0  0  0  0  0  0  0  0  0
   -0.6132    1.0944    7.4764 O   0  0  0  0  0  0  0  0  0  0  0  0
   -0.2212    2.3252    7.9381 C   0  0  2  0  0  0  0  0  0  0  0  0
    0.6833    2.7968    6.7917 C   0  0  1  0  0  0  0  0  0  0  0  0
   -0.1974    2.4296    5.6145 C   0  0  2  0  0  0  0  0  0  0  0  0
   -0.9841    3.5322    5.2809 O   0  0  0  0  0  0  0  0  0  0  0  0
    0.8629    4.1716    6.8924 O   0  0  0  0  0  0  0  0  0  0  0  0
    0.4857    2.2896    9.1865 N   0  0  0  0  0  0  0  0  0  0  0  0
    0.7743    1.1565    9.8520 C   0  0  0  0  0  0  0  0  0  0  0  0
    1.4361    1.4378   10.9770 N   0  0  0  0  0  0  0  0  0  0  0  0
    1.5588    2.7769   11.0064 C   0  0  0  0  0  0  0  0  0  0  0  0
    0.9645    3.3069    9.8872 C   0  0  0  0  0  0  0  0  0  0  0  0
    0.9656    4.6365    9.7040 N   0  0  0  0  0  0  0  0  0  0  0  0
    1.5575    5.4035   10.6384 C   0  0  0  0  0  0  0  0  0  0  0  0
    2.1451    4.8974   11.7425 N   0  0  0  0  0  0  0  0  0  0  0  0
    2.1725    3.5738   11.9750 C   0  0  0  0  0  0  0  0  0  0  0  0
    2.7776    2.9899   13.1208 N   0  0  0  0  0  0  0  0  0  0  0  0
  1  2  1  0
  2  3  1  0
  3  4  1  0
  4  5  2  0
  6  4  1  6
  6  7  1  0
  7  8  1  0
  8  9  1  0
  9 10  1  0
 10 11  1  1
  9 12  1  1
  8 13  1  1
 13 14  1  0
 14 15  2  0
 15 16  1  0
 16 17  2  0
 17 18  1  0
 18 19  2  0
 19 20  1  0
 20 21  2  0
 21 22  1  0
 10  6  1  0
 17 13  1  0
 21 16  1  0
M  END
$$$$
