
     RDKit          3D

 22 24  0  0  0  0  0  0  0  0999 V2000
   -2.6560   -2.0232    3.1191 C   0  0  0  0  0  0  0  0  0  0  0  0
   -2.4860   -1.5692    4.5524 C   0  0  0  0  0  0  0  0  0  0  0  0
   -2.2314   -0.1214    4.6013 N   0  0  0  0  0  0  0  0  0  0  0  0
   -1.0587    0.3991    5.1908 C   0  0  0  0  0  0  0  0  0  0  0  0
    0.0383   -0.1506    4.9156 O   0  0  0  0  0  0  0  0  0  0  0  0
   -1.0309    1.5548    6.1166 C   0  0  1  0  0  0  0  0  0  0  0  0
   -0.5707    1.2000    7.3815 O   0  0  0  0  0  0  0  0  0  0  0  0
   -0.2063    2.4034    7.9300 C   0  0  2  0  0  0  0  0  0  0  0  0
    0.7257    2.9541    6.8425 C   0  0  1  0  0  0  0  0  0  0  0  0
   -0.1162    2.6526    5.6191 C   0  0  2  0  0  0  0  0  0  0  0  0
   -0.9054    3.7663    5.3314 O   0  0  0  0  0  0  0  0  0  0  0  0
    0.8867    4.3216    7.0335 O   0  0  0  0  0  0  0  0  0  0  0  0
    0.4644    2.2967    9.1943 N   0  0  0  0  0  0  0  0  0  0  0  0
    0.6803    1.1319    9.8320 C   0  0  0  0  0  0  0  0  0  0  0  0
    1.3245    1.3475   10.9815 N   0  0  0  0  0  0  0  0  0  0  0  0
    1.5107    2.6775   11.0547 C   0  0  0  0  0  0  0  0  0  0  0  0
    0.9728    3.2685    9.9376 C   0  0  0  0  0  0  0  0  0  0  0  0
    1.0427    4.6012    9.7951 N   0  0  0  0  0  0  0  0  0  0  0  0
    1.6456    5.3107   10.7671 C   0  0  0  0  0  0  0  0  0  0  0  0
    2.1784    4.7445   11.8698 N   0  0  0  0  0  0  0  0  0  0  0  0
    2.1359    3.4148   12.0625 C   0  0  0  0  0  0  0  0  0  0  0  0
    2.6814    2.7688   13.2048 N   0  0  0  0  0  0  0  0  0  0  0  0
  1  2  1  0
  2  3  1  0
  3  4  1  0
  4  5  2  0
  6  4  1  6
  6  7  1  0
  7  8  1  0
  8  9  1  0
  9 10  1  0
 10 11  1  1
  9 12  1  1
  8 13  1  1
 13 14  1  0
 14 15  2  0
 15 16  1  0
 16 17  2  0
 17 18  1  0
 18 19  2  0
 19 20  1  0
 20 21  2  0
 21 22  1  0
 10  6  1  0
 17 13  1  0
 21 16  1  0
M  END
$$$$
