
     RDKit          3D

 22 24  0  0  0  0  0  0  0  0999 V2000
   -2.4496   -2.1271    3.5627 C   0  0  0  0  0  0  0  0  0  0  0  0
   -3.3191   -1.2257    4.4118 C   0  0  0  0  0  0  0  0  0  0  0  0
   -2.7833    0.1440    4.4140 N   0  0  0  0  0  0  0  0  0  0  0  0
   -1.6157    0.4753    5.1357 C   0  0  0  0  0  0  0  0  0  0  0  0
   -0.5869   -0.2246    4.9539 O   0  0  0  0  0  0  0  0  0  0  0  0
   -1.5182    1.5970    6.0980 C   0  0  1  0  0  0  0  0  0  0  0  0
   -0.9748    1.1954    7.3151 O   0  0  0  0  0  0  0  0  0  0  0  0
   -0.5669    2.3771    7.8799 C   0  0  2  0  0  0  0  0  0  0  0  0
    0.2918    2.9635    6.7514 C   0  0  1  0  0  0  0  0  0  0  0  0
   -0.6334    2.7089    5.5786 C   0  0  2  0  0  0  0  0  0  0  0  0
   -1.4339    3.8347    5.3853 O   0  0  0  0  0  0  0  0  0  0  0  0
    0.4733    4.3227    6.9796 O   0  0  0  0  0  0  0  0  0  0  0  0
    0.1879    2.2229    9.0907 N   0  0  0  0  0  0  0  0  0  0  0  0
    0.5857    1.0341    9.5793 C   0  0  0  0  0  0  0  0  0  0  0  0
    1.2672    1.2066   10.7145 N   0  0  0  0  0  0  0  0  0  0  0  0
    1.2904    2.5337   10.9316 C   0  0  0  0  0  0  0  0  0  0  0  0
    0.6157    3.1666    9.9163 C   0  0  0  0  0  0  0  0  0  0  0  0
    0.5103    4.5045    9.9250 N   0  0  0  0  0  0  0  0  0  0  0  0
    1.0785    5.1775   10.9429 C   0  0  0  0  0  0  0  0  0  0  0  0
    1.7441    4.5698   11.9469 N   0  0  0  0  0  0  0  0  0  0  0  0
    1.8794    3.2330   11.9871 C   0  0  0  0  0  0  0  0  0  0  0  0
    2.5699    2.5441   13.0207 N   0  0  0  0  0  0  0  0  0  0  0  0
  1  2  1  0
  2  3  1  0
  3  4  1  0
  4  5  2  0
  6  4  1  6
  6  7  1  0
  7  8  1  0
  8  9  1  0
  9 10  1  0
 10 11  1  1
  9 12  1  1
  8 13  1  1
 13 14  1  0
 14 15  2  0
 15 16  1  0
 16 17  2  0
 17 18  1  0
 18 19  2  0
 19 20  1  0
 20 21  2  0
 21 22  1  0
 10  6  1  0
 17 13  1  0
 21 16  1  0
M  END
$$$$
