
     RDKit          3D

 22 24  0  0  0  0  0  0  0  0999 V2000
   -2.3074    6.8048    3.7934 C   0  0  0  0  0  0  0  0  0  0  0  0
   -1.0937    6.6386    4.6815 C   0  0  0  0  0  0  0  0  0  0  0  0
   -0.6152    5.2486    4.6352 N   0  0  0  0  0  0  0  0  0  0  0  0
   -0.9402    4.3252    5.6528 C   0  0  0  0  0  0  0  0  0  0  0  0
   -2.0047    4.5034    6.2982 O   0  0  0  0  0  0  0  0  0  0  0  0
   -0.1090    3.1540    6.0150 C   0  0  1  0  0  0  0  0  0  0  0  0
    0.0508    3.0328    7.3926 O   0  0  0  0  0  0  0  0  0  0  0  0
    0.4383    1.7261    7.5480 C   0  0  2  0  0  0  0  0  0  0  0  0
   -0.6734    0.9950    6.7836 C   0  0  1  0  0  0  0  0  0  0  0  0
   -0.7258    1.8572    5.5385 C   0  0  2  0  0  0  0  0  0  0  0  0
    0.1238    1.3099    4.5770 O   0  0  0  0  0  0  0  0  0  0  0  0
   -0.2516   -0.2984    6.4978 O   0  0  0  0  0  0  0  0  0  0  0  0
    0.5126    1.2912    8.9137 N   0  0  0  0  0  0  0  0  0  0  0  0
   -0.1835    0.2513    9.4077 C   0  0  0  0  0  0  0  0  0  0  0  0
    0.0905    0.0867   10.7041 N   0  0  0  0  0  0  0  0  0  0  0  0
    0.9771    1.0483   11.0175 C   0  0  0  0  0  0  0  0  0  0  0  0
    1.2394    1.7994    9.8979 C   0  0  0  0  0  0  0  0  0  0  0  0
    2.1031    2.8238    9.9755 N   0  0  0  0  0  0  0  0  0  0  0  0
    2.6829    3.0739   11.1641 C   0  0  0  0  0  0  0  0  0  0  0  0
    2.4353    2.3451   12.2723 N   0  0  0  0  0  0  0  0  0  0  0  0
    1.5794    1.3089   12.2502 C   0  0  0  0  0  0  0  0  0  0  0  0
    1.2836    0.5100   13.3878 N   0  0  0  0  0  0  0  0  0  0  0  0
  1  2  1  0
  2  3  1  0
  3  4  1  0
  4  5  2  0
  6  4  1  1
  6  7  1  0
  7  8  1  0
  8  9  1  0
  9 10  1  0
 10 11  1  6
  9 12  1  6
  8 13  1  1
 13 14  1  0
 14 15  2  0
 15 16  1  0
 16 17  2  0
 17 18  1  0
 18 19  2  0
 19 20  1  0
 20 21  2  0
 21 22  1  0
 10  6  1  0
 17 13  1  0
 21 16  1  0
M  END
$$$$
