
     RDKit          3D

 22 24  0  0  0  0  0  0  0  0999 V2000
   -3.5861   -1.9177    3.9366 C   0  0  0  0  0  0  0  0  0  0  0  0
   -2.1950   -1.5065    4.3667 C   0  0  0  0  0  0  0  0  0  0  0  0
   -2.1739   -0.0806    4.7268 N   0  0  0  0  0  0  0  0  0  0  0  0
   -1.0111    0.5290    5.2467 C   0  0  0  0  0  0  0  0  0  0  0  0
    0.1064    0.1098    4.8508 O   0  0  0  0  0  0  0  0  0  0  0  0
   -1.0166    1.6347    6.2321 C   0  0  1  0  0  0  0  0  0  0  0  0
   -0.5242    1.2331    7.4707 O   0  0  0  0  0  0  0  0  0  0  0  0
   -0.2007    2.4200    8.0777 C   0  0  2  0  0  0  0  0  0  0  0  0
    0.6926    3.0647    7.0095 C   0  0  1  0  0  0  0  0  0  0  0  0
   -0.1541    2.7936    5.7823 C   0  0  2  0  0  0  0  0  0  0  0  0
   -0.9915    3.8876    5.5637 O   0  0  0  0  0  0  0  0  0  0  0  0
    0.8011    4.4258    7.2708 O   0  0  0  0  0  0  0  0  0  0  0  0
    0.4919    2.2747    9.3262 N   0  0  0  0  0  0  0  0  0  0  0  0
    0.8317    1.0877    9.8608 C   0  0  0  0  0  0  0  0  0  0  0  0
    1.4641    1.2690   11.0227 N   0  0  0  0  0  0  0  0  0  0  0  0
    1.5158    2.5999   11.2095 C   0  0  0  0  0  0  0  0  0  0  0  0
    0.9080    3.2262   10.1488 C   0  0  0  0  0  0  0  0  0  0  0  0
    0.8413    4.5664   10.1212 N   0  0  0  0  0  0  0  0  0  0  0  0
    1.3807    5.2481   11.1489 C   0  0  0  0  0  0  0  0  0  0  0  0
    1.9807    4.6470   12.1973 N   0  0  0  0  0  0  0  0  0  0  0  0
    2.0749    3.3084   12.2751 C   0  0  0  0  0  0  0  0  0  0  0  0
    2.6961    2.6261   13.3561 N   0  0  0  0  0  0  0  0  0  0  0  0
  1  2  1  0
  2  3  1  0
  3  4  1  0
  4  5  2  0
  6  4  1  6
  6  7  1  0
  7  8  1  0
  8  9  1  0
  9 10  1  0
 10 11  1  1
  9 12  1  1
  8 13  1  1
 13 14  1  0
 14 15  2  0
 15 16  1  0
 16 17  2  0
 17 18  1  0
 18 19  2  0
 19 20  1  0
 20 21  2  0
 21 22  1  0
 10  6  1  0
 17 13  1  0
 21 16  1  0
M  END
$$$$
