
     RDKit          3D

 22 24  0  0  0  0  0  0  0  0999 V2000
   -3.3950   -2.2276    4.6071 C   0  0  0  0  0  0  0  0  0  0  0  0
   -2.6132   -1.1837    3.8400 C   0  0  0  0  0  0  0  0  0  0  0  0
   -2.6282    0.0971    4.5630 N   0  0  0  0  0  0  0  0  0  0  0  0
   -1.4676    0.6005    5.1903 C   0  0  0  0  0  0  0  0  0  0  0  0
   -0.3569    0.1071    4.8675 O   0  0  0  0  0  0  0  0  0  0  0  0
   -1.4679    1.6761    6.2085 C   0  0  1  0  0  0  0  0  0  0  0  0
   -0.9695    1.2374    7.4320 O   0  0  0  0  0  0  0  0  0  0  0  0
   -0.6426    2.4054    8.0728 C   0  0  2  0  0  0  0  0  0  0  0  0
    0.2455    3.0819    7.0201 C   0  0  1  0  0  0  0  0  0  0  0  0
   -0.6074    2.8479    5.7895 C   0  0  2  0  0  0  0  0  0  0  0  0
   -1.4456    3.9481    5.6081 O   0  0  0  0  0  0  0  0  0  0  0  0
    0.3557    4.4344    7.3216 O   0  0  0  0  0  0  0  0  0  0  0  0
    0.0562    2.2225    9.3129 N   0  0  0  0  0  0  0  0  0  0  0  0
    0.4815    1.0286    9.7642 C   0  0  0  0  0  0  0  0  0  0  0  0
    1.0963    1.1723   10.9407 N   0  0  0  0  0  0  0  0  0  0  0  0
    1.0493    2.4867   11.2221 C   0  0  0  0  0  0  0  0  0  0  0  0
    0.3992    3.1408   10.2042 C   0  0  0  0  0  0  0  0  0  0  0  0
    0.2339    4.4710   10.2714 N   0  0  0  0  0  0  0  0  0  0  0  0
    0.7193    5.1153   11.3489 C   0  0  0  0  0  0  0  0  0  0  0  0
    1.3598    4.4865   12.3563 N   0  0  0  0  0  0  0  0  0  0  0  0
    1.5524    3.1563   12.3394 C   0  0  0  0  0  0  0  0  0  0  0  0
    2.2198    2.4461   13.3738 N   0  0  0  0  0  0  0  0  0  0  0  0
  1  2  1  0
  2  3  1  0
  3  4  1  0
  4  5  2  0
  6  4  1  6
  6  7  1  0
  7  8  1  0
  8  9  1  0
  9 10  1  0
 10 11  1  1
  9 12  1  1
  8 13  1  1
 13 14  1  0
 14 15  2  0
 15 16  1  0
 16 17  2  0
 17 18  1  0
 18 19  2  0
 19 20  1  0
 20 21  2  0
 21 22  1  0
 10  6  1  0
 17 13  1  0
 21 16  1  0
M  END
$$$$
