
     RDKit          3D

 22 24  0  0  0  0  0  0  0  0999 V2000
   -2.9980   -1.7981    3.0423 C   0  0  0  0  0  0  0  0  0  0  0  0
   -2.6948   -1.7611    4.5243 C   0  0  0  0  0  0  0  0  0  0  0  0
   -2.5070   -0.3724    4.9712 N   0  0  0  0  0  0  0  0  0  0  0  0
   -1.3059    0.0462    5.5842 C   0  0  0  0  0  0  0  0  0  0  0  0
   -0.2914   -0.6871    5.4645 O   0  0  0  0  0  0  0  0  0  0  0  0
   -1.1572    1.2970    6.3634 C   0  0  1  0  0  0  0  0  0  0  0  0
   -0.6432    1.0620    7.6356 O   0  0  0  0  0  0  0  0  0  0  0  0
   -0.1788    2.2950    8.0172 C   0  0  2  0  0  0  0  0  0  0  0  0
    0.7164    2.6563    6.8245 C   0  0  1  0  0  0  0  0  0  0  0  0
   -0.2129    2.2697    5.6916 C   0  0  2  0  0  0  0  0  0  0  0  0
   -0.9532    3.3905    5.3155 O   0  0  0  0  0  0  0  0  0  0  0  0
    0.9660    4.0237    6.8429 O   0  0  0  0  0  0  0  0  0  0  0  0
    0.5590    2.2926    9.2482 N   0  0  0  0  0  0  0  0  0  0  0  0
    1.0055    1.1762    9.8519 C   0  0  0  0  0  0  0  0  0  0  0  0
    1.6555    1.4879   10.9758 N   0  0  0  0  0  0  0  0  0  0  0  0
    1.6089    2.8289   11.0678 C   0  0  0  0  0  0  0  0  0  0  0  0
    0.9237    3.3295    9.9879 C   0  0  0  0  0  0  0  0  0  0  0  0
    0.7522    4.6554    9.8695 N   0  0  0  0  0  0  0  0  0  0  0  0
    1.2666    5.4480   10.8281 C   0  0  0  0  0  0  0  0  0  0  0  0
    1.9418    4.9709   11.8944 N   0  0  0  0  0  0  0  0  0  0  0  0
    2.1421    3.6523   12.0617 C   0  0  0  0  0  0  0  0  0  0  0  0
    2.8455    3.0984   13.1654 N   0  0  0  0  0  0  0  0  0  0  0  0
  1  2  1  0
  2  3  1  0
  3  4  1  0
  4  5  2  0
  6  4  1  6
  6  7  1  0
  7  8  1  0
  8  9  1  0
  9 10  1  0
 10 11  1  1
  9 12  1  6
  8 13  1  1
 13 14  1  0
 14 15  2  0
 15 16  1  0
 16 17  2  0
 17 18  1  0
 18 19  2  0
 19 20  1  0
 20 21  2  0
 21 22  1  0
 10  6  1  0
 17 13  1  0
 21 16  1  0
M  END
$$$$
