
     RDKit          3D

 22 24  0  0  0  0  0  0  0  0999 V2000
   -2.6355   -1.8707    3.0979 C   0  0  0  0  0  0  0  0  0  0  0  0
   -2.6489   -1.5243    4.5706 C   0  0  0  0  0  0  0  0  0  0  0  0
   -2.5097   -0.0715    4.7534 N   0  0  0  0  0  0  0  0  0  0  0  0
   -1.3214    0.4943    5.2651 C   0  0  0  0  0  0  0  0  0  0  0  0
   -0.2233    0.0163    4.8815 O   0  0  0  0  0  0  0  0  0  0  0  0
   -1.2786    1.6187    6.2281 C   0  0  1  0  0  0  0  0  0  0  0  0
   -0.7813    1.2262    7.4677 O   0  0  0  0  0  0  0  0  0  0  0  0
   -0.4126    2.4140    8.0464 C   0  0  2  0  0  0  0  0  0  0  0  0
    0.4850    3.0095    6.9535 C   0  0  1  0  0  0  0  0  0  0  0  0
   -0.3871    2.7411    5.7436 C   0  0  2  0  0  0  0  0  0  0  0  0
   -1.1932    3.8562    5.5146 O   0  0  0  0  0  0  0  0  0  0  0  0
    0.6394    4.3713    7.1860 O   0  0  0  0  0  0  0  0  0  0  0  0
    0.2930    2.2715    9.2880 N   0  0  0  0  0  0  0  0  0  0  0  0
    0.6308    1.0855    9.8259 C   0  0  0  0  0  0  0  0  0  0  0  0
    1.2773    1.2695   10.9796 N   0  0  0  0  0  0  0  0  0  0  0  0
    1.3398    2.6011   11.1578 C   0  0  0  0  0  0  0  0  0  0  0  0
    0.7245    3.2251   10.1002 C   0  0  0  0  0  0  0  0  0  0  0  0
    0.6664    4.5655   10.0653 N   0  0  0  0  0  0  0  0  0  0  0  0
    1.2216    5.2497   11.0828 C   0  0  0  0  0  0  0  0  0  0  0  0
    1.8293    4.6509   12.1281 N   0  0  0  0  0  0  0  0  0  0  0  0
    1.9155    3.3121   12.2129 C   0  0  0  0  0  0  0  0  0  0  0  0
    2.5441    2.6322   13.2911 N   0  0  0  0  0  0  0  0  0  0  0  0
  1  2  1  0
  2  3  1  0
  3  4  1  0
  4  5  2  0
  6  4  1  6
  6  7  1  0
  7  8  1  0
  8  9  1  0
  9 10  1  0
 10 11  1  1
  9 12  1  1
  8 13  1  1
 13 14  1  0
 14 15  2  0
 15 16  1  0
 16 17  2  0
 17 18  1  0
 18 19  2  0
 19 20  1  0
 20 21  2  0
 21 22  1  0
 10  6  1  0
 17 13  1  0
 21 16  1  0
M  END
$$$$
