
     RDKit          3D

 22 24  0  0  0  0  0  0  0  0999 V2000
   -3.7571   -2.0001    4.2654 C   0  0  0  0  0  0  0  0  0  0  0  0
   -2.3393   -1.5711    4.5736 C   0  0  0  0  0  0  0  0  0  0  0  0
   -2.3103   -0.1546    4.9685 N   0  0  0  0  0  0  0  0  0  0  0  0
   -1.1469    0.4334    5.5112 C   0  0  0  0  0  0  0  0  0  0  0  0
   -0.0310   -0.0395    5.1758 O   0  0  0  0  0  0  0  0  0  0  0  0
   -1.1498    1.5757    6.4540 C   0  0  1  0  0  0  0  0  0  0  0  0
   -0.6259    1.2291    7.6963 O   0  0  0  0  0  0  0  0  0  0  0  0
   -0.3090    2.4429    8.2511 C   0  0  2  0  0  0  0  0  0  0  0  0
    0.5520    3.0600    7.1408 C   0  0  1  0  0  0  0  0  0  0  0  0
   -0.3152    2.7295    5.9428 C   0  0  2  0  0  0  0  0  0  0  0  0
   -1.1742    3.8016    5.7007 O   0  0  0  0  0  0  0  0  0  0  0  0
    0.6442    4.4314    7.3481 O   0  0  0  0  0  0  0  0  0  0  0  0
    0.4113    2.3558    9.4894 N   0  0  0  0  0  0  0  0  0  0  0  0
    0.8495    1.2004   10.0215 C   0  0  0  0  0  0  0  0  0  0  0  0
    1.4832    1.4339   11.1733 N   0  0  0  0  0  0  0  0  0  0  0  0
    1.4348    2.7655   11.3563 C   0  0  0  0  0  0  0  0  0  0  0  0
    0.7649    3.3394   10.3035 C   0  0  0  0  0  0  0  0  0  0  0  0
    0.5946    4.6703   10.2738 N   0  0  0  0  0  0  0  0  0  0  0  0
    1.0949    5.3951   11.2916 C   0  0  0  0  0  0  0  0  0  0  0  0
    1.7550    4.8457   12.3323 N   0  0  0  0  0  0  0  0  0  0  0  0
    1.9534    3.5186   12.4117 C   0  0  0  0  0  0  0  0  0  0  0  0
    2.6413    2.8900   13.4848 N   0  0  0  0  0  0  0  0  0  0  0  0
  1  2  1  0
  2  3  1  0
  3  4  1  0
  4  5  2  0
  6  4  1  6
  6  7  1  0
  7  8  1  0
  8  9  1  0
  9 10  1  0
 10 11  1  1
  9 12  1  1
  8 13  1  1
 13 14  1  0
 14 15  2  0
 15 16  1  0
 16 17  2  0
 17 18  1  0
 18 19  2  0
 19 20  1  0
 20 21  2  0
 21 22  1  0
 10  6  1  0
 17 13  1  0
 21 16  1  0
M  END
$$$$
