
     RDKit          3D

 22 24  0  0  0  0  0  0  0  0999 V2000
   -3.8579   -2.0248    3.6277 C   0  0  0  0  0  0  0  0  0  0  0  0
   -2.4392   -1.6199    3.9632 C   0  0  0  0  0  0  0  0  0  0  0  0
   -2.3918   -0.2010    4.3474 N   0  0  0  0  0  0  0  0  0  0  0  0
   -1.2526    0.3541    4.9703 C   0  0  0  0  0  0  0  0  0  0  0  0
   -0.1285   -0.1412    4.7013 O   0  0  0  0  0  0  0  0  0  0  0  0
   -1.2902    1.4864    5.9243 C   0  0  1  0  0  0  0  0  0  0  0  0
   -0.7807    1.1358    7.1715 O   0  0  0  0  0  0  0  0  0  0  0  0
   -0.4934    2.3491    7.7436 C   0  0  2  0  0  0  0  0  0  0  0  0
    0.3748    2.9919    6.6538 C   0  0  1  0  0  0  0  0  0  0  0  0
   -0.4672    2.6594    5.4384 C   0  0  2  0  0  0  0  0  0  0  0  0
   -1.3402    3.7192    5.1931 O   0  0  0  0  0  0  0  0  0  0  0  0
    0.4402    4.3626    6.8764 O   0  0  0  0  0  0  0  0  0  0  0  0
    0.2080    2.2613    8.9925 N   0  0  0  0  0  0  0  0  0  0  0  0
    0.7237    1.1198    9.4836 C   0  0  0  0  0  0  0  0  0  0  0  0
    1.3159    1.3487   10.6582 N   0  0  0  0  0  0  0  0  0  0  0  0
    1.1619    2.6632   10.8976 C   0  0  0  0  0  0  0  0  0  0  0  0
    0.4697    3.2312    9.8562 C   0  0  0  0  0  0  0  0  0  0  0  0
    0.1982    4.5454    9.8805 N   0  0  0  0  0  0  0  0  0  0  0  0
    0.6222    5.2596   10.9397 C   0  0  0  0  0  0  0  0  0  0  0  0
    1.3030    4.7157   11.9699 N   0  0  0  0  0  0  0  0  0  0  0  0
    1.6012    3.4053   11.9960 C   0  0  0  0  0  0  0  0  0  0  0  0
    2.3151    2.7831   13.0558 N   0  0  0  0  0  0  0  0  0  0  0  0
  1  2  1  0
  2  3  1  0
  3  4  1  0
  4  5  2  0
  6  4  1  6
  6  7  1  0
  7  8  1  0
  8  9  1  0
  9 10  1  0
 10 11  1  1
  9 12  1  1
  8 13  1  1
 13 14  1  0
 14 15  2  0
 15 16  1  0
 16 17  2  0
 17 18  1  0
 18 19  2  0
 19 20  1  0
 20 21  2  0
 21 22  1  0
 10  6  1  0
 17 13  1  0
 21 16  1  0
M  END
$$$$
