
     RDKit          3D

 22 24  0  0  0  0  0  0  0  0999 V2000
   -3.3690   -2.2748    4.3327 C   0  0  0  0  0  0  0  0  0  0  0  0
   -2.4273   -1.2674    3.7101 C   0  0  0  0  0  0  0  0  0  0  0  0
   -2.4586   -0.0060    4.4660 N   0  0  0  0  0  0  0  0  0  0  0  0
   -1.3016    0.5022    5.0960 C   0  0  0  0  0  0  0  0  0  0  0  0
   -0.1904   -0.0018    4.7919 O   0  0  0  0  0  0  0  0  0  0  0  0
   -1.3063    1.5944    6.0963 C   0  0  1  0  0  0  0  0  0  0  0  0
   -0.8044    1.1785    7.3263 O   0  0  0  0  0  0  0  0  0  0  0  0
   -0.4828    2.3585    7.9474 C   0  0  2  0  0  0  0  0  0  0  0  0
    0.4009    3.0220    6.8826 C   0  0  1  0  0  0  0  0  0  0  0  0
   -0.4521    2.7635    5.6570 C   0  0  2  0  0  0  0  0  0  0  0  0
   -1.2960    3.8562    5.4584 O   0  0  0  0  0  0  0  0  0  0  0  0
    0.5046    4.3799    7.1617 O   0  0  0  0  0  0  0  0  0  0  0  0
    0.2182    2.1997    9.1896 N   0  0  0  0  0  0  0  0  0  0  0  0
    0.6140    1.0109    9.6798 C   0  0  0  0  0  0  0  0  0  0  0  0
    1.2394    1.1785   10.8475 N   0  0  0  0  0  0  0  0  0  0  0  0
    1.2293    2.5025   11.0834 C   0  0  0  0  0  0  0  0  0  0  0  0
    0.5911    3.1385   10.0468 C   0  0  0  0  0  0  0  0  0  0  0  0
    0.4619    4.4742   10.0687 N   0  0  0  0  0  0  0  0  0  0  0  0
    0.9708    5.1419   11.1209 C   0  0  0  0  0  0  0  0  0  0  0  0
    1.6002    4.5312   12.1462 N   0  0  0  0  0  0  0  0  0  0  0  0
    1.7569    3.1964   12.1744 C   0  0  0  0  0  0  0  0  0  0  0  0
    2.4111    2.5045   13.2294 N   0  0  0  0  0  0  0  0  0  0  0  0
  1  2  1  0
  2  3  1  0
  3  4  1  0
  4  5  2  0
  6  4  1  6
  6  7  1  0
  7  8  1  0
  8  9  1  0
  9 10  1  0
 10 11  1  1
  9 12  1  1
  8 13  1  1
 13 14  1  0
 14 15  2  0
 15 16  1  0
 16 17  2  0
 17 18  1  0
 18 19  2  0
 19 20  1  0
 20 21  2  0
 21 22  1  0
 10  6  1  0
 17 13  1  0
 21 16  1  0
M  END
$$$$
