
     RDKit          3D

 22 24  0  0  0  0  0  0  0  0999 V2000
   -3.4528   -2.1692    3.8080 C   0  0  0  0  0  0  0  0  0  0  0  0
   -2.0641   -1.5885    3.9619 C   0  0  0  0  0  0  0  0  0  0  0  0
   -2.1429   -0.2005    4.4423 N   0  0  0  0  0  0  0  0  0  0  0  0
   -1.0580    0.4088    5.1098 C   0  0  0  0  0  0  0  0  0  0  0  0
    0.1032    0.0030    4.8486 O   0  0  0  0  0  0  0  0  0  0  0  0
   -1.1939    1.4994    6.1026 C   0  0  1  0  0  0  0  0  0  0  0  0
   -0.7069    1.1309    7.3535 O   0  0  0  0  0  0  0  0  0  0  0  0
   -0.5106    2.3357    7.9794 C   0  0  2  0  0  0  0  0  0  0  0  0
    0.3545    3.0688    6.9455 C   0  0  1  0  0  0  0  0  0  0  0  0
   -0.4253    2.7355    5.6896 C   0  0  2  0  0  0  0  0  0  0  0  0
   -1.3503    3.7522    5.4521 O   0  0  0  0  0  0  0  0  0  0  0  0
    0.3319    4.4313    7.2202 O   0  0  0  0  0  0  0  0  0  0  0  0
    0.1525    2.2402    9.2486 N   0  0  0  0  0  0  0  0  0  0  0  0
    0.5505    1.0796    9.8006 C   0  0  0  0  0  0  0  0  0  0  0  0
    1.1355    1.3058   10.9793 N   0  0  0  0  0  0  0  0  0  0  0  0
    1.0976    2.6382   11.1589 C   0  0  0  0  0  0  0  0  0  0  0  0
    0.4833    3.2199   10.0769 C   0  0  0  0  0  0  0  0  0  0  0  0
    0.3331    4.5530   10.0386 N   0  0  0  0  0  0  0  0  0  0  0  0
    0.7977    5.2722   11.0772 C   0  0  0  0  0  0  0  0  0  0  0  0
    1.4031    4.7151   12.1466 N   0  0  0  0  0  0  0  0  0  0  0  0
    1.5792    3.3855   12.2358 C   0  0  0  0  0  0  0  0  0  0  0  0
    2.2098    2.7489   13.3390 N   0  0  0  0  0  0  0  0  0  0  0  0
  1  2  1  0
  2  3  1  0
  3  4  1  0
  4  5  2  0
  6  4  1  6
  6  7  1  0
  7  8  1  0
  8  9  1  0
  9 10  1  0
 10 11  1  1
  9 12  1  1
  8 13  1  1
 13 14  1  0
 14 15  2  0
 15 16  1  0
 16 17  2  0
 17 18  1  0
 18 19  2  0
 19 20  1  0
 20 21  2  0
 21 22  1  0
 10  6  1  0
 17 13  1  0
 21 16  1  0
M  END
$$$$
