
     RDKit          3D

 24 27  0  0  0  0  0  0  0  0999 V2000
   -2.0920    1.7692    7.4981 C   0  0  0  0  0  0  0  0  0  0  0  0
   -0.7396    1.3416    8.0408 C   0  0  0  0  0  0  0  0  0  0  0  0
   -0.7201   -0.0952    8.1188 N   0  0  0  0  0  0  0  0  0  0  0  0
   -1.4417   -0.8383    7.1126 C   0  0  0  0  0  0  0  0  0  0  0  0
   -1.4804   -0.0180    5.8432 C   0  0  0  0  0  0  0  0  0  0  0  0
   -2.2015    1.2759    6.0708 C   0  0  0  0  0  0  0  0  0  0  0  0
   -1.7736    2.2989    5.1659 O   0  0  0  0  0  0  0  0  0  0  0  0
   -2.7074    2.3791    4.1571 C   0  0  0  0  0  0  0  0  0  0  0  0
   -2.6682    3.0388    2.9346 C   0  0  0  0  0  0  0  0  0  0  0  0
   -3.7562    2.9509    2.1051 C   0  0  0  0  0  0  0  0  0  0  0  0
   -4.8524    2.2261    2.4828 C   0  0  0  0  0  0  0  0  0  0  0  0
   -4.8889    1.5819    3.6782 C   0  0  0  0  0  0  0  0  0  0  0  0
   -3.8029    1.6488    4.5460 C   0  0  0  0  0  0  0  0  0  0  0  0
   -3.5757    1.1019    5.7974 O   0  0  0  0  0  0  0  0  0  0  0  0
   -0.0082   -0.7434    9.1595 C   0  0  0  0  0  0  0  0  0  0  0  0
    0.1657   -0.1377   10.2722 O   0  0  0  0  0  0  0  0  0  0  0  0
    0.5134   -2.1034    8.9271 C   0  0  0  0  0  0  0  0  0  0  0  0
    0.4547   -2.9598   10.1149 C   0  0  0  0  0  0  0  0  0  0  0  0
   -0.7460   -3.2435   10.7358 C   0  0  0  0  0  0  0  0  0  0  0  0
   -0.7838   -4.0577   11.8618 C   0  0  0  0  0  0  0  0  0  0  0  0
    0.3622   -4.6075   12.3967 C   0  0  0  0  0  0  0  0  0  0  0  0
    1.5566   -4.3245   11.7779 C   0  0  0  0  0  0  0  0  0  0  0  0
    1.5999   -3.5126   10.6541 C   0  0  0  0  0  0  0  0  0  0  0  0
    0.3103   -5.6382   13.8228 Cl  0  0  0  0  0  0  0  0  0  0  0  0
  1  2  1  0
  2  3  1  0
  3  4  1  0
  4  5  1  0
  5  6  1  0
  6  7  1  0
  7  8  1  0
  8  9  2  0
  9 10  1  0
 10 11  2  0
 11 12  1  0
 12 13  2  0
 13 14  1  0
  3 15  1  0
 15 16  2  0
 15 17  1  0
 17 18  1  0
 18 19  2  0
 19 20  1  0
 20 21  2  0
 21 22  1  0
 22 23  2  0
 21 24  1  0
  6  1  1  0
 14  6  1  0
 13  8  1  0
 23 18  1  0
M  END
$$$$
