
     RDKit          3D

 24 27  0  0  0  0  0  0  0  0999 V2000
   -4.3029    3.1984    7.9005 C   0  0  0  0  0  0  0  0  0  0  0  0
   -4.4745    2.4278    9.1978 C   0  0  0  0  0  0  0  0  0  0  0  0
   -5.6524    1.6092    9.0823 N   0  0  0  0  0  0  0  0  0  0  0  0
   -5.9711    1.0597    7.7854 C   0  0  0  0  0  0  0  0  0  0  0  0
   -4.6863    0.8824    7.0084 C   0  0  0  0  0  0  0  0  0  0  0  0
   -4.0079    2.2021    6.7992 C   0  0  0  0  0  0  0  0  0  0  0  0
   -2.5932    2.0616    6.6333 O   0  0  0  0  0  0  0  0  0  0  0  0
   -2.3243    2.1243    5.2842 C   0  0  0  0  0  0  0  0  0  0  0  0
   -1.1657    1.8307    4.5752 C   0  0  0  0  0  0  0  0  0  0  0  0
   -1.1724    1.9834    3.2127 C   0  0  0  0  0  0  0  0  0  0  0  0
   -2.3016    2.4162    2.5746 C   0  0  0  0  0  0  0  0  0  0  0  0
   -3.4333    2.7027    3.2693 C   0  0  0  0  0  0  0  0  0  0  0  0
   -3.4634    2.5595    4.6534 C   0  0  0  0  0  0  0  0  0  0  0  0
   -4.4593    2.7757    5.5906 O   0  0  0  0  0  0  0  0  0  0  0  0
   -6.4629    1.3611   10.2188 C   0  0  0  0  0  0  0  0  0  0  0  0
   -6.2510    2.0176   11.2956 O   0  0  0  0  0  0  0  0  0  0  0  0
   -7.5314    0.3486   10.1254 C   0  0  0  0  0  0  0  0  0  0  0  0
   -8.7762    0.7540   10.7840 C   0  0  0  0  0  0  0  0  0  0  0  0
   -9.2991    0.0295   11.8373 C   0  0  0  0  0  0  0  0  0  0  0  0
  -10.4810    0.4280   12.4508 C   0  0  0  0  0  0  0  0  0  0  0  0
  -11.1696    1.5489   12.0369 C   0  0  0  0  0  0  0  0  0  0  0  0
  -10.6482    2.2692   10.9887 C   0  0  0  0  0  0  0  0  0  0  0  0
   -9.4691    1.8759   10.3729 C   0  0  0  0  0  0  0  0  0  0  0  0
  -12.6661    2.0504   12.8164 Cl  0  0  0  0  0  0  0  0  0  0  0  0
  1  2  1  0
  2  3  1  0
  3  4  1  0
  4  5  1  0
  5  6  1  0
  6  7  1  0
  7  8  1  0
  8  9  2  0
  9 10  1  0
 10 11  2  0
 11 12  1  0
 12 13  2  0
 13 14  1  0
  3 15  1  0
 15 16  2  0
 15 17  1  0
 17 18  1  0
 18 19  2  0
 19 20  1  0
 20 21  2  0
 21 22  1  0
 22 23  2  0
 21 24  1  0
  6  1  1  0
 14  6  1  0
 13  8  1  0
 23 18  1  0
M  END
$$$$
