
     RDKit          3D

 24 27  0  0  0  0  0  0  0  0999 V2000
   -8.8753    0.8876   10.5117 C   0  0  0  0  0  0  0  0  0  0  0  0
   -7.3838    0.8665   10.7967 C   0  0  0  0  0  0  0  0  0  0  0  0
   -6.8004    2.0529   10.2284 N   0  0  0  0  0  0  0  0  0  0  0  0
   -7.5903    3.2619   10.2257 C   0  0  0  0  0  0  0  0  0  0  0  0
   -8.5466    3.2150   11.3957 C   0  0  0  0  0  0  0  0  0  0  0  0
   -9.4809    2.0501   11.2694 C   0  0  0  0  0  0  0  0  0  0  0  0
   -9.9647    1.6058   12.5411 O   0  0  0  0  0  0  0  0  0  0  0  0
  -11.2267    2.1294   12.7121 C   0  0  0  0  0  0  0  0  0  0  0  0
  -12.0394    2.1895   13.8378 C   0  0  0  0  0  0  0  0  0  0  0  0
  -13.2731    2.7772   13.7273 C   0  0  0  0  0  0  0  0  0  0  0  0
  -13.6856    3.2905   12.5289 C   0  0  0  0  0  0  0  0  0  0  0  0
  -12.8898    3.2308   11.4296 C   0  0  0  0  0  0  0  0  0  0  0  0
  -11.6311    2.6416   11.5043 C   0  0  0  0  0  0  0  0  0  0  0  0
  -10.6355    2.4489   10.5617 O   0  0  0  0  0  0  0  0  0  0  0  0
   -5.4885    2.0161    9.6922 C   0  0  0  0  0  0  0  0  0  0  0  0
   -4.8419    3.1090    9.5410 O   0  0  0  0  0  0  0  0  0  0  0  0
   -4.9054    0.7126    9.3226 C   0  0  0  0  0  0  0  0  0  0  0  0
   -3.4670    0.6225    9.5881 C   0  0  0  0  0  0  0  0  0  0  0  0
   -2.9888    0.1851   10.8078 C   0  0  0  0  0  0  0  0  0  0  0  0
   -1.6212    0.1057   11.0430 C   0  0  0  0  0  0  0  0  0  0  0  0
   -0.6992    0.4564   10.0794 C   0  0  0  0  0  0  0  0  0  0  0  0
   -1.1761    0.8916    8.8659 C   0  0  0  0  0  0  0  0  0  0  0  0
   -2.5399    0.9727    8.6260 C   0  0  0  0  0  0  0  0  0  0  0  0
    1.0321    0.3545   10.3810 Cl  0  0  0  0  0  0  0  0  0  0  0  0
  1  2  1  0
  2  3  1  0
  3  4  1  0
  4  5  1  0
  5  6  1  0
  6  7  1  0
  7  8  1  0
  8  9  2  0
  9 10  1  0
 10 11  2  0
 11 12  1  0
 12 13  2  0
 13 14  1  0
  3 15  1  0
 15 16  2  0
 15 17  1  0
 17 18  1  0
 18 19  2  0
 19 20  1  0
 20 21  2  0
 21 22  1  0
 22 23  2  0
 21 24  1  0
  6  1  1  0
 14  6  1  0
 13  8  1  0
 23 18  1  0
M  END
$$$$
