
     RDKit          3D

 24 27  0  0  0  0  0  0  0  0999 V2000
   -5.4267    2.7913    9.1395 C   0  0  0  0  0  0  0  0  0  0  0  0
   -6.6370    2.6181   10.0403 C   0  0  0  0  0  0  0  0  0  0  0  0
   -7.2321    1.3397    9.7534 N   0  0  0  0  0  0  0  0  0  0  0  0
   -6.3566    0.2524    9.3838 C   0  0  0  0  0  0  0  0  0  0  0  0
   -5.0077    0.4800   10.0277 C   0  0  0  0  0  0  0  0  0  0  0  0
   -4.3952    1.7564    9.5364 C   0  0  0  0  0  0  0  0  0  0  0  0
   -3.4807    2.3164   10.4844 O   0  0  0  0  0  0  0  0  0  0  0  0
   -2.2073    1.9796   10.0829 C   0  0  0  0  0  0  0  0  0  0  0  0
   -0.9903    2.0797   10.7464 C   0  0  0  0  0  0  0  0  0  0  0  0
    0.1459    1.6639   10.1018 C   0  0  0  0  0  0  0  0  0  0  0  0
    0.0719    1.1625    8.8318 C   0  0  0  0  0  0  0  0  0  0  0  0
   -1.1186    1.0655    8.1847 C   0  0  0  0  0  0  0  0  0  0  0  0
   -2.2928    1.4778    8.8079 C   0  0  0  0  0  0  0  0  0  0  0  0
   -3.6130    1.4915    8.3913 O   0  0  0  0  0  0  0  0  0  0  0  0
   -8.6375    1.1724    9.8363 C   0  0  0  0  0  0  0  0  0  0  0  0
   -9.1304   -0.0075    9.8252 O   0  0  0  0  0  0  0  0  0  0  0  0
   -9.4937    2.3696    9.9333 C   0  0  0  0  0  0  0  0  0  0  0  0
  -10.5149    2.2712   10.9798 C   0  0  0  0  0  0  0  0  0  0  0  0
  -10.3141    2.8192   12.2316 C   0  0  0  0  0  0  0  0  0  0  0  0
  -11.2933    2.7167   13.2128 C   0  0  0  0  0  0  0  0  0  0  0  0
  -12.4892    2.0716   12.9778 C   0  0  0  0  0  0  0  0  0  0  0  0
  -12.6880    1.5266   11.7317 C   0  0  0  0  0  0  0  0  0  0  0  0
  -11.7142    1.6260   10.7489 C   0  0  0  0  0  0  0  0  0  0  0  0
  -13.7269    1.9439   14.2230 Cl  0  0  0  0  0  0  0  0  0  0  0  0
  1  2  1  0
  2  3  1  0
  3  4  1  0
  4  5  1  0
  5  6  1  0
  6  7  1  0
  7  8  1  0
  8  9  2  0
  9 10  1  0
 10 11  2  0
 11 12  1  0
 12 13  2  0
 13 14  1  0
  3 15  1  0
 15 16  2  0
 15 17  1  0
 17 18  1  0
 18 19  2  0
 19 20  1  0
 20 21  2  0
 21 22  1  0
 22 23  2  0
 21 24  1  0
  6  1  1  0
 14  6  1  0
 13  8  1  0
 23 18  1  0
M  END
$$$$
