
     RDKit          3D

 24 27  0  0  0  0  0  0  0  0999 V2000
   -1.2420    2.1323    5.9453 C   0  0  0  0  0  0  0  0  0  0  0  0
   -1.8732    0.7713    6.1809 C   0  0  0  0  0  0  0  0  0  0  0  0
   -1.6671    0.4124    7.5591 N   0  0  0  0  0  0  0  0  0  0  0  0
   -1.6720    1.4697    8.5427 C   0  0  0  0  0  0  0  0  0  0  0  0
   -2.5507    2.5922    8.0388 C   0  0  0  0  0  0  0  0  0  0  0  0
   -2.0110    3.1525    6.7579 C   0  0  0  0  0  0  0  0  0  0  0  0
   -3.0360    3.7456    5.9539 O   0  0  0  0  0  0  0  0  0  0  0  0
   -2.9794    5.1080    6.1463 C   0  0  0  0  0  0  0  0  0  0  0  0
   -3.8681    6.1133    5.7846 C   0  0  0  0  0  0  0  0  0  0  0  0
   -3.5598    7.4100    6.1055 C   0  0  0  0  0  0  0  0  0  0  0  0
   -2.3987    7.6972    6.7681 C   0  0  0  0  0  0  0  0  0  0  0  0
   -1.5311    6.7132    7.1209 C   0  0  0  0  0  0  0  0  0  0  0  0
   -1.8110    5.3853    6.8117 C   0  0  0  0  0  0  0  0  0  0  0  0
   -1.1198    4.2089    7.0462 O   0  0  0  0  0  0  0  0  0  0  0  0
   -1.4669   -0.9438    7.9207 C   0  0  0  0  0  0  0  0  0  0  0  0
   -0.8075   -1.7108    7.1383 O   0  0  0  0  0  0  0  0  0  0  0  0
   -2.0277   -1.4324    9.1945 C   0  0  0  0  0  0  0  0  0  0  0  0
   -1.0301   -2.0565   10.0679 C   0  0  0  0  0  0  0  0  0  0  0  0
   -0.7912   -1.5771   11.3410 C   0  0  0  0  0  0  0  0  0  0  0  0
    0.1588   -2.1809   12.1565 C   0  0  0  0  0  0  0  0  0  0  0  0
    0.8912   -3.2693   11.7315 C   0  0  0  0  0  0  0  0  0  0  0  0
    0.6527   -3.7457   10.4644 C   0  0  0  0  0  0  0  0  0  0  0  0
   -0.2942   -3.1468    9.6466 C   0  0  0  0  0  0  0  0  0  0  0  0
    2.0935   -4.0314   12.7672 Cl  0  0  0  0  0  0  0  0  0  0  0  0
  1  2  1  0
  2  3  1  0
  3  4  1  0
  4  5  1  0
  5  6  1  0
  6  7  1  0
  7  8  1  0
  8  9  2  0
  9 10  1  0
 10 11  2  0
 11 12  1  0
 12 13  2  0
 13 14  1  0
  3 15  1  0
 15 16  2  0
 15 17  1  0
 17 18  1  0
 18 19  2  0
 19 20  1  0
 20 21  2  0
 21 22  1  0
 22 23  2  0
 21 24  1  0
  6  1  1  0
 14  6  1  0
 13  8  1  0
 23 18  1  0
M  END
$$$$
