
     RDKit          3D

 24 27  0  0  0  0  0  0  0  0999 V2000
   -4.1511   -0.2471   10.0377 C   0  0  0  0  0  0  0  0  0  0  0  0
   -5.5392   -0.1163    9.4357 C   0  0  0  0  0  0  0  0  0  0  0  0
   -6.1284    1.1024    9.9242 N   0  0  0  0  0  0  0  0  0  0  0  0
   -5.2568    2.2294   10.1599 C   0  0  0  0  0  0  0  0  0  0  0  0
   -4.0738    2.1275    9.2239 C   0  0  0  0  0  0  0  0  0  0  0  0
   -3.2950    0.8751    9.4897 C   0  0  0  0  0  0  0  0  0  0  0  0
   -2.5832    0.4260    8.3319 O   0  0  0  0  0  0  0  0  0  0  0  0
   -1.2739    0.8314    8.4654 C   0  0  0  0  0  0  0  0  0  0  0  0
   -0.2310    0.8483    7.5471 C   0  0  0  0  0  0  0  0  0  0  0  0
    0.9941    1.3113    7.9522 C   0  0  0  0  0  0  0  0  0  0  0  0
    1.1752    1.7453    9.2362 C   0  0  0  0  0  0  0  0  0  0  0  0
    0.1546    1.7281   10.1325 C   0  0  0  0  0  0  0  0  0  0  0  0
   -1.1029    1.2648    9.7568 C   0  0  0  0  0  0  0  0  0  0  0  0
   -2.2946    1.1392   10.4503 O   0  0  0  0  0  0  0  0  0  0  0  0
   -7.5243    1.1748   10.1609 C   0  0  0  0  0  0  0  0  0  0  0  0
   -8.1653    0.1104   10.4632 O   0  0  0  0  0  0  0  0  0  0  0  0
   -8.1994    2.4817   10.0511 C   0  0  0  0  0  0  0  0  0  0  0  0
   -9.5733    2.4715   10.5608 C   0  0  0  0  0  0  0  0  0  0  0  0
  -10.6289    2.0636    9.7690 C   0  0  0  0  0  0  0  0  0  0  0  0
  -11.9262    2.0600   10.2682 C   0  0  0  0  0  0  0  0  0  0  0  0
  -12.2067    2.4589   11.5581 C   0  0  0  0  0  0  0  0  0  0  0  0
  -11.1555    2.8646   12.3453 C   0  0  0  0  0  0  0  0  0  0  0  0
   -9.8590    2.8701   11.8520 C   0  0  0  0  0  0  0  0  0  0  0  0
  -13.8510    2.4530   12.1868 Cl  0  0  0  0  0  0  0  0  0  0  0  0
  1  2  1  0
  2  3  1  0
  3  4  1  0
  4  5  1  0
  5  6  1  0
  6  7  1  0
  7  8  1  0
  8  9  2  0
  9 10  1  0
 10 11  2  0
 11 12  1  0
 12 13  2  0
 13 14  1  0
  3 15  1  0
 15 16  2  0
 15 17  1  0
 17 18  1  0
 18 19  2  0
 19 20  1  0
 20 21  2  0
 21 22  1  0
 22 23  2  0
 21 24  1  0
  6  1  1  0
 14  6  1  0
 13  8  1  0
 23 18  1  0
M  END
$$$$
