
     RDKit          3D

 24 27  0  0  0  0  0  0  0  0999 V2000
   -5.6171    1.8825    6.8422 C   0  0  0  0  0  0  0  0  0  0  0  0
   -6.3580    2.9724    7.5970 C   0  0  0  0  0  0  0  0  0  0  0  0
   -6.7479    2.4465    8.8785 N   0  0  0  0  0  0  0  0  0  0  0  0
   -5.8671    1.4975    9.5180 C   0  0  0  0  0  0  0  0  0  0  0  0
   -4.4515    1.7725    9.0639 C   0  0  0  0  0  0  0  0  0  0  0  0
   -4.3272    1.5947    7.5811 C   0  0  0  0  0  0  0  0  0  0  0  0
   -3.2633    2.3783    7.0307 O   0  0  0  0  0  0  0  0  0  0  0  0
   -2.1821    1.5445    6.8520 C   0  0  0  0  0  0  0  0  0  0  0  0
   -0.8539    1.8307    6.5601 C   0  0  0  0  0  0  0  0  0  0  0  0
    0.0302    0.7906    6.4338 C   0  0  0  0  0  0  0  0  0  0  0  0
   -0.3968   -0.4985    6.5939 C   0  0  0  0  0  0  0  0  0  0  0  0
   -1.6955   -0.7764    6.8792 C   0  0  0  0  0  0  0  0  0  0  0  0
   -2.6213    0.2540    7.0147 C   0  0  0  0  0  0  0  0  0  0  0  0
   -3.9769    0.2570    7.2963 O   0  0  0  0  0  0  0  0  0  0  0  0
   -7.9638    2.8598    9.4791 C   0  0  0  0  0  0  0  0  0  0  0  0
   -8.9703    3.1281    8.7372 O   0  0  0  0  0  0  0  0  0  0  0  0
   -8.0325    2.9688   10.9485 C   0  0  0  0  0  0  0  0  0  0  0  0
   -9.2586    2.4022   11.5171 C   0  0  0  0  0  0  0  0  0  0  0  0
  -10.4949    2.6627   10.9592 C   0  0  0  0  0  0  0  0  0  0  0  0
  -11.6481    2.1172   11.5113 C   0  0  0  0  0  0  0  0  0  0  0  0
  -11.6034    1.3043   12.6244 C   0  0  0  0  0  0  0  0  0  0  0  0
  -10.3725    1.0457   13.1789 C   0  0  0  0  0  0  0  0  0  0  0  0
   -9.2187    1.5876   12.6319 C   0  0  0  0  0  0  0  0  0  0  0  0
  -13.0660    0.6153   13.3208 Cl  0  0  0  0  0  0  0  0  0  0  0  0
  1  2  1  0
  2  3  1  0
  3  4  1  0
  4  5  1  0
  5  6  1  0
  6  7  1  0
  7  8  1  0
  8  9  2  0
  9 10  1  0
 10 11  2  0
 11 12  1  0
 12 13  2  0
 13 14  1  0
  3 15  1  0
 15 16  2  0
 15 17  1  0
 17 18  1  0
 18 19  2  0
 19 20  1  0
 20 21  2  0
 21 22  1  0
 22 23  2  0
 21 24  1  0
  6  1  1  0
 14  6  1  0
 13  8  1  0
 23 18  1  0
M  END
$$$$
