
     RDKit          3D

 24 27  0  0  0  0  0  0  0  0999 V2000
   -4.8333   -0.0355    9.0123 C   0  0  0  0  0  0  0  0  0  0  0  0
   -5.7882    0.8910    8.2800 C   0  0  0  0  0  0  0  0  0  0  0  0
   -6.4021    1.7608    9.2482 N   0  0  0  0  0  0  0  0  0  0  0  0
   -5.6131    2.1729   10.3854 C   0  0  0  0  0  0  0  0  0  0  0  0
   -4.1556    2.1790    9.9837 C   0  0  0  0  0  0  0  0  0  0  0  0
   -3.7109    0.8049    9.5839 C   0  0  0  0  0  0  0  0  0  0  0  0
   -2.6107    0.8383    8.6690 O   0  0  0  0  0  0  0  0  0  0  0  0
   -1.4622    0.6015    9.3909 C   0  0  0  0  0  0  0  0  0  0  0  0
   -0.1247    0.7385    9.0391 C   0  0  0  0  0  0  0  0  0  0  0  0
    0.8345    0.4279    9.9680 C   0  0  0  0  0  0  0  0  0  0  0  0
    0.4715   -0.0070   11.2126 C   0  0  0  0  0  0  0  0  0  0  0  0
   -0.8364   -0.1404   11.5547 C   0  0  0  0  0  0  0  0  0  0  0  0
   -1.8375    0.1657   10.6375 C   0  0  0  0  0  0  0  0  0  0  0  0
   -3.2190    0.1222   10.7176 O   0  0  0  0  0  0  0  0  0  0  0  0
   -7.7421    2.1894    9.0736 C   0  0  0  0  0  0  0  0  0  0  0  0
   -8.4380    1.6993    8.1192 O   0  0  0  0  0  0  0  0  0  0  0  0
   -8.2967    3.1927   10.0019 C   0  0  0  0  0  0  0  0  0  0  0  0
   -9.4787    2.7217   10.7291 C   0  0  0  0  0  0  0  0  0  0  0  0
  -10.7494    2.8806   10.2117 C   0  0  0  0  0  0  0  0  0  0  0  0
  -11.8599    2.4281   10.9147 C   0  0  0  0  0  0  0  0  0  0  0  0
  -11.7378    1.8102   12.1416 C   0  0  0  0  0  0  0  0  0  0  0  0
  -10.4727    1.6527   12.6555 C   0  0  0  0  0  0  0  0  0  0  0  0
   -9.3612    2.1024   11.9580 C   0  0  0  0  0  0  0  0  0  0  0  0
  -13.1465    1.2385   13.0289 Cl  0  0  0  0  0  0  0  0  0  0  0  0
  1  2  1  0
  2  3  1  0
  3  4  1  0
  4  5  1  0
  5  6  1  0
  6  7  1  0
  7  8  1  0
  8  9  2  0
  9 10  1  0
 10 11  2  0
 11 12  1  0
 12 13  2  0
 13 14  1  0
  3 15  1  0
 15 16  2  0
 15 17  1  0
 17 18  1  0
 18 19  2  0
 19 20  1  0
 20 21  2  0
 21 22  1  0
 22 23  2  0
 21 24  1  0
  6  1  1  0
 14  6  1  0
 13  8  1  0
 23 18  1  0
M  END
$$$$
