
     RDKit          3D

 24 27  0  0  0  0  0  0  0  0999 V2000
   -3.7609    1.9443    4.6393 C   0  0  0  0  0  0  0  0  0  0  0  0
   -2.4582    2.3837    5.2844 C   0  0  0  0  0  0  0  0  0  0  0  0
   -1.6549    1.2129    5.5186 N   0  0  0  0  0  0  0  0  0  0  0  0
   -1.7431    0.1294    4.5680 C   0  0  0  0  0  0  0  0  0  0  0  0
   -2.1054    0.7025    3.2166 C   0  0  0  0  0  0  0  0  0  0  0  0
   -3.4398    1.3823    3.2705 C   0  0  0  0  0  0  0  0  0  0  0  0
   -3.5636    2.4079    2.2798 O   0  0  0  0  0  0  0  0  0  0  0  0
   -4.2825    1.8855    1.2279 C   0  0  0  0  0  0  0  0  0  0  0  0
   -4.4961    2.3726   -0.0560 C   0  0  0  0  0  0  0  0  0  0  0  0
   -5.2670    1.6367   -0.9184 C   0  0  0  0  0  0  0  0  0  0  0  0
   -5.8098    0.4489   -0.5132 C   0  0  0  0  0  0  0  0  0  0  0  0
   -5.5999   -0.0257    0.7422 C   0  0  0  0  0  0  0  0  0  0  0  0
   -4.8228    0.6942    1.6449 C   0  0  0  0  0  0  0  0  0  0  0  0
   -4.4540    0.4514    2.9571 O   0  0  0  0  0  0  0  0  0  0  0  0
   -0.8086    1.1440    6.6539 C   0  0  0  0  0  0  0  0  0  0  0  0
   -0.9315    2.0155    7.5816 O   0  0  0  0  0  0  0  0  0  0  0  0
    0.1933    0.0642    6.7321 C   0  0  0  0  0  0  0  0  0  0  0  0
    0.6791   -0.1813    8.0927 C   0  0  0  0  0  0  0  0  0  0  0  0
    1.6962    0.5769    8.6388 C   0  0  0  0  0  0  0  0  0  0  0  0
    2.1451    0.3307    9.9311 C   0  0  0  0  0  0  0  0  0  0  0  0
    1.5990   -0.6683   10.7092 C   0  0  0  0  0  0  0  0  0  0  0  0
    0.5869   -1.4223   10.1648 C   0  0  0  0  0  0  0  0  0  0  0  0
    0.1352   -1.1807    8.8757 C   0  0  0  0  0  0  0  0  0  0  0  0
    2.1702   -0.9772   12.3454 Cl  0  0  0  0  0  0  0  0  0  0  0  0
  1  2  1  0
  2  3  1  0
  3  4  1  0
  4  5  1  0
  5  6  1  0
  6  7  1  0
  7  8  1  0
  8  9  2  0
  9 10  1  0
 10 11  2  0
 11 12  1  0
 12 13  2  0
 13 14  1  0
  3 15  1  0
 15 16  2  0
 15 17  1  0
 17 18  1  0
 18 19  2  0
 19 20  1  0
 20 21  2  0
 21 22  1  0
 22 23  2  0
 21 24  1  0
  6  1  1  0
 14  6  1  0
 13  8  1  0
 23 18  1  0
M  END
$$$$
