
     RDKit          3D

 24 27  0  0  0  0  0  0  0  0999 V2000
   -8.7013    3.2791    9.1427 C   0  0  0  0  0  0  0  0  0  0  0  0
   -7.5238    2.3209    9.1020 C   0  0  0  0  0  0  0  0  0  0  0  0
   -7.0734    2.1042   10.4515 N   0  0  0  0  0  0  0  0  0  0  0  0
   -8.0625    2.1009   11.5036 C   0  0  0  0  0  0  0  0  0  0  0  0
   -9.3817    1.6440   10.9232 C   0  0  0  0  0  0  0  0  0  0  0  0
   -9.8445    2.5868    9.8542 C   0  0  0  0  0  0  0  0  0  0  0  0
  -10.6969    1.9448    8.9002 O   0  0  0  0  0  0  0  0  0  0  0  0
  -11.9973    2.2580    9.2274 C   0  0  0  0  0  0  0  0  0  0  0  0
  -13.1997    1.7311    8.7715 C   0  0  0  0  0  0  0  0  0  0  0  0
  -14.3711    2.2365    9.2736 C   0  0  0  0  0  0  0  0  0  0  0  0
  -14.3453    3.2386   10.2036 C   0  0  0  0  0  0  0  0  0  0  0  0
  -13.1689    3.7524   10.6479 C   0  0  0  0  0  0  0  0  0  0  0  0
  -11.9601    3.2641   10.1607 C   0  0  0  0  0  0  0  0  0  0  0  0
  -10.6439    3.5965   10.4327 O   0  0  0  0  0  0  0  0  0  0  0  0
   -5.6961    1.9020   10.7199 C   0  0  0  0  0  0  0  0  0  0  0  0
   -5.3192    1.6625   11.9182 O   0  0  0  0  0  0  0  0  0  0  0  0
   -4.7339    1.9741    9.6042 C   0  0  0  0  0  0  0  0  0  0  0  0
   -3.4828    1.2580    9.8678 C   0  0  0  0  0  0  0  0  0  0  0  0
   -2.5548    1.7432   10.7684 C   0  0  0  0  0  0  0  0  0  0  0  0
   -1.3729    1.0514   11.0066 C   0  0  0  0  0  0  0  0  0  0  0  0
   -1.0841   -0.1323   10.3607 C   0  0  0  0  0  0  0  0  0  0  0  0
   -2.0083   -0.6143    9.4647 C   0  0  0  0  0  0  0  0  0  0  0  0
   -3.1893    0.0721    9.2233 C   0  0  0  0  0  0  0  0  0  0  0  0
    0.4138   -1.0056   10.6650 Cl  0  0  0  0  0  0  0  0  0  0  0  0
  1  2  1  0
  2  3  1  0
  3  4  1  0
  4  5  1  0
  5  6  1  0
  6  7  1  0
  7  8  1  0
  8  9  2  0
  9 10  1  0
 10 11  2  0
 11 12  1  0
 12 13  2  0
 13 14  1  0
  3 15  1  0
 15 16  2  0
 15 17  1  0
 17 18  1  0
 18 19  2  0
 19 20  1  0
 20 21  2  0
 21 22  1  0
 22 23  2  0
 21 24  1  0
  6  1  1  0
 14  6  1  0
 13  8  1  0
 23 18  1  0
M  END
$$$$
