
     RDKit          3D

 24 27  0  0  0  0  0  0  0  0999 V2000
   -8.4718    2.8832   10.3934 C   0  0  0  0  0  0  0  0  0  0  0  0
   -7.7535    2.0872    9.3179 C   0  0  0  0  0  0  0  0  0  0  0  0
   -7.1274    0.9514    9.9416 N   0  0  0  0  0  0  0  0  0  0  0  0
   -7.7974    0.3408   11.0658 C   0  0  0  0  0  0  0  0  0  0  0  0
   -9.2853    0.5664   10.9203 C   0  0  0  0  0  0  0  0  0  0  0  0
   -9.6021    2.0311   10.9309 C   0  0  0  0  0  0  0  0  0  0  0  0
  -10.8136    2.3265   10.2283 O   0  0  0  0  0  0  0  0  0  0  0  0
  -11.8115    2.4776   11.1651 C   0  0  0  0  0  0  0  0  0  0  0  0
  -13.1912    2.5538   11.0171 C   0  0  0  0  0  0  0  0  0  0  0  0
  -13.9650    2.7073   12.1383 C   0  0  0  0  0  0  0  0  0  0  0  0
  -13.3808    2.7829   13.3723 C   0  0  0  0  0  0  0  0  0  0  0  0
  -12.0320    2.7083   13.5150 C   0  0  0  0  0  0  0  0  0  0  0  0
  -11.2147    2.5525   12.3992 C   0  0  0  0  0  0  0  0  0  0  0  0
   -9.8413    2.4501   12.2577 O   0  0  0  0  0  0  0  0  0  0  0  0
   -5.8902    0.4613    9.4528 C   0  0  0  0  0  0  0  0  0  0  0  0
   -5.6160   -0.7819    9.5743 O   0  0  0  0  0  0  0  0  0  0  0  0
   -4.9513    1.4038    8.8156 C   0  0  0  0  0  0  0  0  0  0  0  0
   -3.5442    1.0915    9.0803 C   0  0  0  0  0  0  0  0  0  0  0  0
   -3.0725   -0.2049    9.0136 C   0  0  0  0  0  0  0  0  0  0  0  0
   -1.7346   -0.4837    9.2677 C   0  0  0  0  0  0  0  0  0  0  0  0
   -0.8366    0.5112    9.5924 C   0  0  0  0  0  0  0  0  0  0  0  0
   -1.3071    1.8010    9.6585 C   0  0  0  0  0  0  0  0  0  0  0  0
   -2.6412    2.0847    9.4059 C   0  0  0  0  0  0  0  0  0  0  0  0
    0.8570    0.1542    9.9135 Cl  0  0  0  0  0  0  0  0  0  0  0  0
  1  2  1  0
  2  3  1  0
  3  4  1  0
  4  5  1  0
  5  6  1  0
  6  7  1  0
  7  8  1  0
  8  9  2  0
  9 10  1  0
 10 11  2  0
 11 12  1  0
 12 13  2  0
 13 14  1  0
  3 15  1  0
 15 16  2  0
 15 17  1  0
 17 18  1  0
 18 19  2  0
 19 20  1  0
 20 21  2  0
 21 22  1  0
 22 23  2  0
 21 24  1  0
  6  1  1  0
 14  6  1  0
 13  8  1  0
 23 18  1  0
M  END
$$$$
