
     RDKit          3D

 24 27  0  0  0  0  0  0  0  0999 V2000
   -9.2691    3.6696    9.2784 C   0  0  0  0  0  0  0  0  0  0  0  0
   -8.0901    2.7722    8.9452 C   0  0  0  0  0  0  0  0  0  0  0  0
   -7.4067    2.4538   10.1709 N   0  0  0  0  0  0  0  0  0  0  0  0
   -8.1979    2.3108   11.3704 C   0  0  0  0  0  0  0  0  0  0  0  0
   -9.5844    1.8506   10.9809 C   0  0  0  0  0  0  0  0  0  0  0  0
  -10.2518    2.8654   10.1031 C   0  0  0  0  0  0  0  0  0  0  0  0
  -11.2383    2.2758    9.2499 O   0  0  0  0  0  0  0  0  0  0  0  0
  -12.4706    2.4999    9.8222 C   0  0  0  0  0  0  0  0  0  0  0  0
  -13.7186    1.9639    9.5283 C   0  0  0  0  0  0  0  0  0  0  0  0
  -14.7989    2.3690   10.2688 C   0  0  0  0  0  0  0  0  0  0  0  0
  -14.6404    3.2825   11.2739 C   0  0  0  0  0  0  0  0  0  0  0  0
  -13.4196    3.8053   11.5598 C   0  0  0  0  0  0  0  0  0  0  0  0
  -12.3003    3.4175   10.8291 C   0  0  0  0  0  0  0  0  0  0  0  0
  -10.9668    3.7818   10.9045 O   0  0  0  0  0  0  0  0  0  0  0  0
   -5.9986    2.2892   10.1804 C   0  0  0  0  0  0  0  0  0  0  0  0
   -5.4301    1.8108   11.2212 O   0  0  0  0  0  0  0  0  0  0  0  0
   -5.2272    2.6765    8.9843 C   0  0  0  0  0  0  0  0  0  0  0  0
   -3.7893    2.4240    9.1124 C   0  0  0  0  0  0  0  0  0  0  0  0
   -2.9579    3.3215    9.7534 C   0  0  0  0  0  0  0  0  0  0  0  0
   -1.5962    3.0665    9.8661 C   0  0  0  0  0  0  0  0  0  0  0  0
   -1.0287    1.9212    9.3484 C   0  0  0  0  0  0  0  0  0  0  0  0
   -1.8570    1.0287    8.7107 C   0  0  0  0  0  0  0  0  0  0  0  0
   -3.2166    1.2783    8.5956 C   0  0  0  0  0  0  0  0  0  0  0  0
    0.6964    1.6018    9.4931 Cl  0  0  0  0  0  0  0  0  0  0  0  0
  1  2  1  0
  2  3  1  0
  3  4  1  0
  4  5  1  0
  5  6  1  0
  6  7  1  0
  7  8  1  0
  8  9  2  0
  9 10  1  0
 10 11  2  0
 11 12  1  0
 12 13  2  0
 13 14  1  0
  3 15  1  0
 15 16  2  0
 15 17  1  0
 17 18  1  0
 18 19  2  0
 19 20  1  0
 20 21  2  0
 21 22  1  0
 22 23  2  0
 21 24  1  0
  6  1  1  0
 14  6  1  0
 13  8  1  0
 23 18  1  0
M  END
$$$$
