
     RDKit          3D

 24 27  0  0  0  0  0  0  0  0999 V2000
    1.0231   -0.8032    7.4783 C   0  0  0  0  0  0  0  0  0  0  0  0
    0.0016    0.2926    7.2289 C   0  0  0  0  0  0  0  0  0  0  0  0
   -1.1479    0.0324    8.0547 N   0  0  0  0  0  0  0  0  0  0  0  0
   -0.9299   -0.5688    9.3495 C   0  0  0  0  0  0  0  0  0  0  0  0
    0.4445   -0.1726    9.8393 C   0  0  0  0  0  0  0  0  0  0  0  0
    1.5044   -0.6785    8.9084 C   0  0  0  0  0  0  0  0  0  0  0  0
    2.6914    0.1198    8.9568 O   0  0  0  0  0  0  0  0  0  0  0  0
    3.6000   -0.5341    9.7586 C   0  0  0  0  0  0  0  0  0  0  0  0
    4.8026   -0.1030   10.3058 C   0  0  0  0  0  0  0  0  0  0  0  0
    5.5220   -0.9752   11.0812 C   0  0  0  0  0  0  0  0  0  0  0  0
    5.0565   -2.2413   11.3052 C   0  0  0  0  0  0  0  0  0  0  0  0
    3.8808   -2.6609   10.7695 C   0  0  0  0  0  0  0  0  0  0  0  0
    3.1236   -1.8029    9.9772 C   0  0  0  0  0  0  0  0  0  0  0  0
    1.9158   -1.9648    9.3201 O   0  0  0  0  0  0  0  0  0  0  0  0
   -2.4470    0.3632    7.5936 C   0  0  0  0  0  0  0  0  0  0  0  0
   -3.4593    0.1025    8.3302 O   0  0  0  0  0  0  0  0  0  0  0  0
   -2.5936    1.0013    6.2718 C   0  0  0  0  0  0  0  0  0  0  0  0
   -3.1124    2.3702    6.3409 C   0  0  0  0  0  0  0  0  0  0  0  0
   -4.4653    2.6189    6.4654 C   0  0  0  0  0  0  0  0  0  0  0  0
   -4.9405    3.9236    6.5296 C   0  0  0  0  0  0  0  0  0  0  0  0
   -4.0902    5.0077    6.4720 C   0  0  0  0  0  0  0  0  0  0  0  0
   -2.7440    4.7590    6.3481 C   0  0  0  0  0  0  0  0  0  0  0  0
   -2.2644    3.4590    6.2837 C   0  0  0  0  0  0  0  0  0  0  0  0
   -4.6958    6.6585    6.5535 Cl  0  0  0  0  0  0  0  0  0  0  0  0
  1  2  1  0
  2  3  1  0
  3  4  1  0
  4  5  1  0
  5  6  1  0
  6  7  1  0
  7  8  1  0
  8  9  2  0
  9 10  1  0
 10 11  2  0
 11 12  1  0
 12 13  2  0
 13 14  1  0
  3 15  1  0
 15 16  2  0
 15 17  1  0
 17 18  1  0
 18 19  2  0
 19 20  1  0
 20 21  2  0
 21 22  1  0
 22 23  2  0
 21 24  1  0
  6  1  1  0
 14  6  1  0
 13  8  1  0
 23 18  1  0
M  END
$$$$
