
     RDKit          3D

 24 27  0  0  0  0  0  0  0  0999 V2000
   -8.4773    0.7492    9.8475 C   0  0  0  0  0  0  0  0  0  0  0  0
   -6.9706    0.6142    9.9812 C   0  0  0  0  0  0  0  0  0  0  0  0
   -6.3662    1.8315    9.5083 N   0  0  0  0  0  0  0  0  0  0  0  0
   -7.0742    3.0704    9.7306 C   0  0  0  0  0  0  0  0  0  0  0  0
   -7.9223    2.9241   10.9736 C   0  0  0  0  0  0  0  0  0  0  0  0
   -8.9367    1.8352   10.7973 C   0  0  0  0  0  0  0  0  0  0  0  0
   -9.3313    1.2576   12.0460 O   0  0  0  0  0  0  0  0  0  0  0  0
  -10.5368    1.8201   12.4019 C   0  0  0  0  0  0  0  0  0  0  0  0
  -11.2393    1.7779   13.6003 C   0  0  0  0  0  0  0  0  0  0  0  0
  -12.4378    2.4383   13.6832 C   0  0  0  0  0  0  0  0  0  0  0  0
  -12.9230    3.1215   12.6026 C   0  0  0  0  0  0  0  0  0  0  0  0
  -12.2349    3.1616   11.4320 C   0  0  0  0  0  0  0  0  0  0  0  0
  -11.0148    2.5030   11.3110 C   0  0  0  0  0  0  0  0  0  0  0  0
  -10.1226    2.3808   10.2595 O   0  0  0  0  0  0  0  0  0  0  0  0
   -5.1130    1.7954    8.8464 C   0  0  0  0  0  0  0  0  0  0  0  0
   -4.5057    2.8919    8.5931 O   0  0  0  0  0  0  0  0  0  0  0  0
   -4.5440    0.4883    8.4677 C   0  0  0  0  0  0  0  0  0  0  0  0
   -3.2801    0.1858    9.1450 C   0  0  0  0  0  0  0  0  0  0  0  0
   -3.2589   -0.4116   10.3902 C   0  0  0  0  0  0  0  0  0  0  0  0
   -2.0512   -0.6917   11.0187 C   0  0  0  0  0  0  0  0  0  0  0  0
   -0.8413   -0.3877   10.4308 C   0  0  0  0  0  0  0  0  0  0  0  0
   -0.8636    0.2067    9.1917 C   0  0  0  0  0  0  0  0  0  0  0  0
   -2.0661    0.4884    8.5600 C   0  0  0  0  0  0  0  0  0  0  0  0
    0.6861   -0.7439   11.2300 Cl  0  0  0  0  0  0  0  0  0  0  0  0
  1  2  1  0
  2  3  1  0
  3  4  1  0
  4  5  1  0
  5  6  1  0
  6  7  1  0
  7  8  1  0
  8  9  2  0
  9 10  1  0
 10 11  2  0
 11 12  1  0
 12 13  2  0
 13 14  1  0
  3 15  1  0
 15 16  2  0
 15 17  1  0
 17 18  1  0
 18 19  2  0
 19 20  1  0
 20 21  2  0
 21 22  1  0
 22 23  2  0
 21 24  1  0
  6  1  1  0
 14  6  1  0
 13  8  1  0
 23 18  1  0
M  END
$$$$
