
     RDKit          3D

 24 27  0  0  0  0  0  0  0  0999 V2000
   -8.4275    3.4975    9.5179 C   0  0  0  0  0  0  0  0  0  0  0  0
   -8.7966    3.3246   10.9808 C   0  0  0  0  0  0  0  0  0  0  0  0
   -9.3310    2.0000   11.1564 N   0  0  0  0  0  0  0  0  0  0  0  0
   -8.7866    0.9367   10.3449 C   0  0  0  0  0  0  0  0  0  0  0  0
   -7.3548    1.2786   10.0002 C   0  0  0  0  0  0  0  0  0  0  0  0
   -7.2901    2.5479    9.2062 C   0  0  0  0  0  0  0  0  0  0  0  0
   -6.0358    3.2195    9.3631 O   0  0  0  0  0  0  0  0  0  0  0  0
   -5.2645    2.9225    8.2617 C   0  0  0  0  0  0  0  0  0  0  0  0
   -3.9125    3.1318    8.0175 C   0  0  0  0  0  0  0  0  0  0  0  0
   -3.3923    2.7320    6.8137 C   0  0  0  0  0  0  0  0  0  0  0  0
   -4.1964    2.1403    5.8794 C   0  0  0  0  0  0  0  0  0  0  0  0
   -5.5178    1.9365    6.1198 C   0  0  0  0  0  0  0  0  0  0  0  0
   -6.0806    2.3294    7.3306 C   0  0  0  0  0  0  0  0  0  0  0  0
   -7.3693    2.2451    7.8295 O   0  0  0  0  0  0  0  0  0  0  0  0
  -10.3606    1.7658   12.1024 C   0  0  0  0  0  0  0  0  0  0  0  0
  -10.4582    0.6148   12.6511 O   0  0  0  0  0  0  0  0  0  0  0  0
  -11.2931    2.8614   12.4275 C   0  0  0  0  0  0  0  0  0  0  0  0
  -11.6752    2.8998   13.8418 C   0  0  0  0  0  0  0  0  0  0  0  0
  -10.7294    3.0558   14.8362 C   0  0  0  0  0  0  0  0  0  0  0  0
  -11.1091    3.0901   16.1729 C   0  0  0  0  0  0  0  0  0  0  0  0
  -12.4290    2.9710   16.5541 C   0  0  0  0  0  0  0  0  0  0  0  0
  -13.3694    2.8158   15.5636 C   0  0  0  0  0  0  0  0  0  0  0  0
  -12.9960    2.7809   14.2282 C   0  0  0  0  0  0  0  0  0  0  0  0
  -12.9059    3.0148   18.2480 Cl  0  0  0  0  0  0  0  0  0  0  0  0
  1  2  1  0
  2  3  1  0
  3  4  1  0
  4  5  1  0
  5  6  1  0
  6  7  1  0
  7  8  1  0
  8  9  2  0
  9 10  1  0
 10 11  2  0
 11 12  1  0
 12 13  2  0
 13 14  1  0
  3 15  1  0
 15 16  2  0
 15 17  1  0
 17 18  1  0
 18 19  2  0
 19 20  1  0
 20 21  2  0
 21 22  1  0
 22 23  2  0
 21 24  1  0
  6  1  1  0
 14  6  1  0
 13  8  1  0
 23 18  1  0
M  END
$$$$
