
     RDKit          3D

 24 27  0  0  0  0  0  0  0  0999 V2000
   -3.5968   -0.2216    8.2516 C   0  0  0  0  0  0  0  0  0  0  0  0
   -4.2794    0.7059    7.2615 C   0  0  0  0  0  0  0  0  0  0  0  0
   -5.0348    1.6796    8.0045 N   0  0  0  0  0  0  0  0  0  0  0  0
   -4.5055    2.1242    9.2724 C   0  0  0  0  0  0  0  0  0  0  0  0
   -2.9983    2.0120    9.2311 C   0  0  0  0  0  0  0  0  0  0  0  0
   -2.5789    0.5879    9.0269 C   0  0  0  0  0  0  0  0  0  0  0  0
   -1.2955    0.4874    8.4012 O   0  0  0  0  0  0  0  0  0  0  0  0
   -0.3700    0.2339    9.3889 C   0  0  0  0  0  0  0  0  0  0  0  0
    1.0191    0.2630    9.3599 C   0  0  0  0  0  0  0  0  0  0  0  0
    1.7069   -0.0374   10.5072 C   0  0  0  0  0  0  0  0  0  0  0  0
    1.0298   -0.3578   11.6512 C   0  0  0  0  0  0  0  0  0  0  0  0
   -0.3281   -0.3858   11.6776 C   0  0  0  0  0  0  0  0  0  0  0  0
   -1.0596   -0.0865   10.5320 C   0  0  0  0  0  0  0  0  0  0  0  0
   -2.4204   -0.0395   10.2817 O   0  0  0  0  0  0  0  0  0  0  0  0
   -6.2595    2.1756    7.4908 C   0  0  0  0  0  0  0  0  0  0  0  0
   -6.7266    1.6896    6.4041 O   0  0  0  0  0  0  0  0  0  0  0  0
   -6.9623    3.2425    8.2281 C   0  0  0  0  0  0  0  0  0  0  0  0
   -8.3243    2.8753    8.6253 C   0  0  0  0  0  0  0  0  0  0  0  0
   -8.6758    2.7561    9.9557 C   0  0  0  0  0  0  0  0  0  0  0  0
   -9.9723    2.4068   10.3151 C   0  0  0  0  0  0  0  0  0  0  0  0
  -10.9467    2.1685    9.3688 C   0  0  0  0  0  0  0  0  0  0  0  0
  -10.5958    2.2873    8.0452 C   0  0  0  0  0  0  0  0  0  0  0  0
   -9.3034    2.6356    7.6810 C   0  0  0  0  0  0  0  0  0  0  0  0
  -12.5876    1.7263    9.8279 Cl  0  0  0  0  0  0  0  0  0  0  0  0
  1  2  1  0
  2  3  1  0
  3  4  1  0
  4  5  1  0
  5  6  1  0
  6  7  1  0
  7  8  1  0
  8  9  2  0
  9 10  1  0
 10 11  2  0
 11 12  1  0
 12 13  2  0
 13 14  1  0
  3 15  1  0
 15 16  2  0
 15 17  1  0
 17 18  1  0
 18 19  2  0
 19 20  1  0
 20 21  2  0
 21 22  1  0
 22 23  2  0
 21 24  1  0
  6  1  1  0
 14  6  1  0
 13  8  1  0
 23 18  1  0
M  END
$$$$
