
     RDKit          3D

 24 27  0  0  0  0  0  0  0  0999 V2000
   -0.8498    1.0241    5.6132 C   0  0  0  0  0  0  0  0  0  0  0  0
   -1.1210   -0.3724    6.1448 C   0  0  0  0  0  0  0  0  0  0  0  0
   -1.3410   -0.2787    7.5638 N   0  0  0  0  0  0  0  0  0  0  0  0
   -1.9959    0.9040    8.0713 C   0  0  0  0  0  0  0  0  0  0  0  0
   -2.9037    1.4519    6.9935 C   0  0  0  0  0  0  0  0  0  0  0  0
   -2.1117    1.8434    5.7830 C   0  0  0  0  0  0  0  0  0  0  0  0
   -2.8939    1.7899    4.5855 O   0  0  0  0  0  0  0  0  0  0  0  0
   -3.2900    3.0752    4.2898 C   0  0  0  0  0  0  0  0  0  0  0  0
   -4.2262    3.5493    3.3787 C   0  0  0  0  0  0  0  0  0  0  0  0
   -4.4271    4.9023    3.2866 C   0  0  0  0  0  0  0  0  0  0  0  0
   -3.7154    5.7590    4.0799 C   0  0  0  0  0  0  0  0  0  0  0  0
   -2.8006    5.2937    4.9700 C   0  0  0  0  0  0  0  0  0  0  0  0
   -2.5701    3.9265    5.0909 C   0  0  0  0  0  0  0  0  0  0  0  0
   -1.7160    3.1938    5.8974 O   0  0  0  0  0  0  0  0  0  0  0  0
   -0.9202   -1.3262    8.4215 C   0  0  0  0  0  0  0  0  0  0  0  0
   -0.1732   -2.2548    7.9578 O   0  0  0  0  0  0  0  0  0  0  0  0
   -1.3583   -1.3142    9.8299 C   0  0  0  0  0  0  0  0  0  0  0  0
   -0.3686   -1.8781   10.7519 C   0  0  0  0  0  0  0  0  0  0  0  0
   -0.3336   -3.2313   11.0265 C   0  0  0  0  0  0  0  0  0  0  0  0
    0.6119   -3.7498   11.9036 C   0  0  0  0  0  0  0  0  0  0  0  0
    1.5408   -2.9431   12.5267 C   0  0  0  0  0  0  0  0  0  0  0  0
    1.5050   -1.5966   12.2528 C   0  0  0  0  0  0  0  0  0  0  0  0
    0.5636   -1.0740   11.3782 C   0  0  0  0  0  0  0  0  0  0  0  0
    2.7366   -3.6034   13.6370 Cl  0  0  0  0  0  0  0  0  0  0  0  0
  1  2  1  0
  2  3  1  0
  3  4  1  0
  4  5  1  0
  5  6  1  0
  6  7  1  0
  7  8  1  0
  8  9  2  0
  9 10  1  0
 10 11  2  0
 11 12  1  0
 12 13  2  0
 13 14  1  0
  3 15  1  0
 15 16  2  0
 15 17  1  0
 17 18  1  0
 18 19  2  0
 19 20  1  0
 20 21  2  0
 21 22  1  0
 22 23  2  0
 21 24  1  0
  6  1  1  0
 14  6  1  0
 13  8  1  0
 23 18  1  0
M  END
$$$$
