
     RDKit          3D

 24 27  0  0  0  0  0  0  0  0999 V2000
   -2.1832    1.3322    4.8935 C   0  0  0  0  0  0  0  0  0  0  0  0
   -2.0752    0.3858    6.0763 C   0  0  0  0  0  0  0  0  0  0  0  0
   -2.2403    1.1529    7.2826 N   0  0  0  0  0  0  0  0  0  0  0  0
   -3.1402    2.2819    7.2499 C   0  0  0  0  0  0  0  0  0  0  0  0
   -4.2076    2.0171    6.2125 C   0  0  0  0  0  0  0  0  0  0  0  0
   -3.5980    1.8701    4.8514 C   0  0  0  0  0  0  0  0  0  0  0  0
   -4.4018    1.0638    3.9840 O   0  0  0  0  0  0  0  0  0  0  0  0
   -5.1165    1.9138    3.1699 C   0  0  0  0  0  0  0  0  0  0  0  0
   -6.1850    1.6676    2.3160 C   0  0  0  0  0  0  0  0  0  0  0  0
   -6.7173    2.7155    1.6102 C   0  0  0  0  0  0  0  0  0  0  0  0
   -6.1998    3.9733    1.7512 C   0  0  0  0  0  0  0  0  0  0  0  0
   -5.1553    4.2120    2.5864 C   0  0  0  0  0  0  0  0  0  0  0  0
   -4.5894    3.1727    3.3188 C   0  0  0  0  0  0  0  0  0  0  0  0
   -3.5419    3.1332    4.2232 O   0  0  0  0  0  0  0  0  0  0  0  0
   -1.5321    0.7955    8.4577 C   0  0  0  0  0  0  0  0  0  0  0  0
   -1.8316    1.3585    9.5661 O   0  0  0  0  0  0  0  0  0  0  0  0
   -0.4660   -0.2198    8.3668 C   0  0  0  0  0  0  0  0  0  0  0  0
    0.1376   -0.5470    9.6615 C   0  0  0  0  0  0  0  0  0  0  0  0
   -0.4843   -1.4064   10.5460 C   0  0  0  0  0  0  0  0  0  0  0  0
    0.1021   -1.7061   11.7701 C   0  0  0  0  0  0  0  0  0  0  0  0
    1.3133   -1.1636   12.1449 C   0  0  0  0  0  0  0  0  0  0  0  0
    1.9314   -0.3085   11.2639 C   0  0  0  0  0  0  0  0  0  0  0  0
    1.3505   -0.0061   10.0411 C   0  0  0  0  0  0  0  0  0  0  0  0
    2.0528   -1.5455   13.6961 Cl  0  0  0  0  0  0  0  0  0  0  0  0
  1  2  1  0
  2  3  1  0
  3  4  1  0
  4  5  1  0
  5  6  1  0
  6  7  1  0
  7  8  1  0
  8  9  2  0
  9 10  1  0
 10 11  2  0
 11 12  1  0
 12 13  2  0
 13 14  1  0
  3 15  1  0
 15 16  2  0
 15 17  1  0
 17 18  1  0
 18 19  2  0
 19 20  1  0
 20 21  2  0
 21 22  1  0
 22 23  2  0
 21 24  1  0
  6  1  1  0
 14  6  1  0
 13  8  1  0
 23 18  1  0
M  END
$$$$
