
     RDKit          3D

 24 27  0  0  0  0  0  0  0  0999 V2000
   -8.1558    3.2832   10.6513 C   0  0  0  0  0  0  0  0  0  0  0  0
   -9.2979    2.7909   11.5227 C   0  0  0  0  0  0  0  0  0  0  0  0
  -10.3749    2.3785   10.6620 N   0  0  0  0  0  0  0  0  0  0  0  0
  -10.0363    1.7862    9.3892 C   0  0  0  0  0  0  0  0  0  0  0  0
   -8.6910    1.1079    9.5163 C   0  0  0  0  0  0  0  0  0  0  0  0
   -7.6265    2.1043    9.8622 C   0  0  0  0  0  0  0  0  0  0  0  0
   -6.5299    1.5029   10.5584 O   0  0  0  0  0  0  0  0  0  0  0  0
   -5.5219    1.2928    9.6442 C   0  0  0  0  0  0  0  0  0  0  0  0
   -4.3484    0.5546    9.7408 C   0  0  0  0  0  0  0  0  0  0  0  0
   -3.5064    0.5141    8.6597 C   0  0  0  0  0  0  0  0  0  0  0  0
   -3.8244    1.1900    7.5144 C   0  0  0  0  0  0  0  0  0  0  0  0
   -4.9718    1.9112    7.4218 C   0  0  0  0  0  0  0  0  0  0  0  0
   -5.8507    1.9752    8.4991 C   0  0  0  0  0  0  0  0  0  0  0  0
   -7.0628    2.6204    8.6752 O   0  0  0  0  0  0  0  0  0  0  0  0
  -11.7213    2.5565   11.0688 C   0  0  0  0  0  0  0  0  0  0  0  0
  -12.6504    1.9283   10.4545 O   0  0  0  0  0  0  0  0  0  0  0  0
  -12.0122    3.4652   12.1937 C   0  0  0  0  0  0  0  0  0  0  0  0
  -11.9057    2.8201   13.5053 C   0  0  0  0  0  0  0  0  0  0  0  0
  -12.6114    1.6694   13.7979 C   0  0  0  0  0  0  0  0  0  0  0  0
  -12.4989    1.0703   15.0471 C   0  0  0  0  0  0  0  0  0  0  0  0
  -11.6881    1.5950   16.0314 C   0  0  0  0  0  0  0  0  0  0  0  0
  -10.9863    2.7401   15.7392 C   0  0  0  0  0  0  0  0  0  0  0  0
  -11.0949    3.3420   14.4942 C   0  0  0  0  0  0  0  0  0  0  0  0
  -11.5483    0.8333   17.6123 Cl  0  0  0  0  0  0  0  0  0  0  0  0
  1  2  1  0
  2  3  1  0
  3  4  1  0
  4  5  1  0
  5  6  1  0
  6  7  1  0
  7  8  1  0
  8  9  2  0
  9 10  1  0
 10 11  2  0
 11 12  1  0
 12 13  2  0
 13 14  1  0
  3 15  1  0
 15 16  2  0
 15 17  1  0
 17 18  1  0
 18 19  2  0
 19 20  1  0
 20 21  2  0
 21 22  1  0
 22 23  2  0
 21 24  1  0
  6  1  1  0
 14  6  1  0
 13  8  1  0
 23 18  1  0
M  END
$$$$
