
     RDKit          3D

 24 27  0  0  0  0  0  0  0  0999 V2000
   -5.7110    4.0474    8.0560 C   0  0  0  0  0  0  0  0  0  0  0  0
   -6.7316    4.0663    9.1805 C   0  0  0  0  0  0  0  0  0  0  0  0
   -6.7665    2.7578    9.7783 N   0  0  0  0  0  0  0  0  0  0  0  0
   -5.5342    2.0072    9.8383 C   0  0  0  0  0  0  0  0  0  0  0  0
   -4.3795    2.9811    9.8990 C   0  0  0  0  0  0  0  0  0  0  0  0
   -4.3426    3.8359    8.6687 C   0  0  0  0  0  0  0  0  0  0  0  0
   -3.7135    5.0992    8.9075 O   0  0  0  0  0  0  0  0  0  0  0  0
   -2.4202    5.0143    8.4423 C   0  0  0  0  0  0  0  0  0  0  0  0
   -1.3344    5.8632    8.6199 C   0  0  0  0  0  0  0  0  0  0  0  0
   -0.1393    5.5331    8.0346 C   0  0  0  0  0  0  0  0  0  0  0  0
   -0.0292    4.3895    7.2932 C   0  0  0  0  0  0  0  0  0  0  0  0
   -1.0917    3.5608    7.1207 C   0  0  0  0  0  0  0  0  0  0  0  0
   -2.3205    3.8637    7.6999 C   0  0  0  0  0  0  0  0  0  0  0  0
   -3.5419    3.2120    7.6874 O   0  0  0  0  0  0  0  0  0  0  0  0
   -7.9835    2.2383   10.2873 C   0  0  0  0  0  0  0  0  0  0  0  0
   -9.0917    2.7522    9.9090 O   0  0  0  0  0  0  0  0  0  0  0  0
   -7.9354    1.1154   11.2425 C   0  0  0  0  0  0  0  0  0  0  0  0
   -9.1003    1.0561   12.1297 C   0  0  0  0  0  0  0  0  0  0  0  0
   -9.7687   -0.1310   12.3574 C   0  0  0  0  0  0  0  0  0  0  0  0
  -10.8721   -0.1696   13.2019 C   0  0  0  0  0  0  0  0  0  0  0  0
  -11.3371    0.9622   13.8379 C   0  0  0  0  0  0  0  0  0  0  0  0
  -10.6712    2.1430   13.6106 C   0  0  0  0  0  0  0  0  0  0  0  0
   -9.5696    2.1871   12.7688 C   0  0  0  0  0  0  0  0  0  0  0  0
  -12.7348    0.9094   14.9067 Cl  0  0  0  0  0  0  0  0  0  0  0  0
  1  2  1  0
  2  3  1  0
  3  4  1  0
  4  5  1  0
  5  6  1  0
  6  7  1  0
  7  8  1  0
  8  9  2  0
  9 10  1  0
 10 11  2  0
 11 12  1  0
 12 13  2  0
 13 14  1  0
  3 15  1  0
 15 16  2  0
 15 17  1  0
 17 18  1  0
 18 19  2  0
 19 20  1  0
 20 21  2  0
 21 22  1  0
 22 23  2  0
 21 24  1  0
  6  1  1  0
 14  6  1  0
 13  8  1  0
 23 18  1  0
M  END
$$$$
