
     RDKit          3D

 24 27  0  0  0  0  0  0  0  0999 V2000
  -10.1957    2.0600   11.7425 C   0  0  0  0  0  0  0  0  0  0  0  0
  -10.4286    1.2254   12.9898 C   0  0  0  0  0  0  0  0  0  0  0  0
  -11.2324    1.9949   13.9023 N   0  0  0  0  0  0  0  0  0  0  0  0
  -12.2251    2.8843   13.3464 C   0  0  0  0  0  0  0  0  0  0  0  0
  -12.6777    2.3291   12.0150 C   0  0  0  0  0  0  0  0  0  0  0  0
  -11.5299    2.2564   11.0542 C   0  0  0  0  0  0  0  0  0  0  0  0
  -11.7210    1.2439   10.0606 O   0  0  0  0  0  0  0  0  0  0  0  0
  -12.1643    1.8646    8.9142 C   0  0  0  0  0  0  0  0  0  0  0  0
  -12.6996    1.3367    7.7454 C   0  0  0  0  0  0  0  0  0  0  0  0
  -13.0647    2.1971    6.7424 C   0  0  0  0  0  0  0  0  0  0  0  0
  -12.9012    3.5456    6.8994 C   0  0  0  0  0  0  0  0  0  0  0  0
  -12.3777    4.0598    8.0427 C   0  0  0  0  0  0  0  0  0  0  0  0
  -11.9959    3.2167    9.0821 C   0  0  0  0  0  0  0  0  0  0  0  0
  -11.4474    3.4648   10.3289 O   0  0  0  0  0  0  0  0  0  0  0  0
  -11.0406    1.8700   15.3014 C   0  0  0  0  0  0  0  0  0  0  0  0
  -12.0165    2.1100   16.0921 O   0  0  0  0  0  0  0  0  0  0  0  0
   -9.7151    1.4652   15.8062 C   0  0  0  0  0  0  0  0  0  0  0  0
   -9.7823    0.5353   16.9369 C   0  0  0  0  0  0  0  0  0  0  0  0
  -10.5032    0.8408   18.0747 C   0  0  0  0  0  0  0  0  0  0  0  0
  -10.5564   -0.0527   19.1382 C   0  0  0  0  0  0  0  0  0  0  0  0
   -9.8995   -1.2645   19.0995 C   0  0  0  0  0  0  0  0  0  0  0  0
   -9.1824   -1.5675   17.9666 C   0  0  0  0  0  0  0  0  0  0  0  0
   -9.1259   -0.6795   16.9025 C   0  0  0  0  0  0  0  0  0  0  0  0
   -9.9692   -2.3934   20.4483 Cl  0  0  0  0  0  0  0  0  0  0  0  0
  1  2  1  0
  2  3  1  0
  3  4  1  0
  4  5  1  0
  5  6  1  0
  6  7  1  0
  7  8  1  0
  8  9  2  0
  9 10  1  0
 10 11  2  0
 11 12  1  0
 12 13  2  0
 13 14  1  0
  3 15  1  0
 15 16  2  0
 15 17  1  0
 17 18  1  0
 18 19  2  0
 19 20  1  0
 20 21  2  0
 21 22  1  0
 22 23  2  0
 21 24  1  0
  6  1  1  0
 14  6  1  0
 13  8  1  0
 23 18  1  0
M  END
$$$$
