
     RDKit          3D

 24 27  0  0  0  0  0  0  0  0999 V2000
   -8.6432    1.3706    8.8367 C   0  0  0  0  0  0  0  0  0  0  0  0
   -9.8438    2.2934    8.7207 C   0  0  0  0  0  0  0  0  0  0  0  0
  -10.3310    2.5664   10.0469 N   0  0  0  0  0  0  0  0  0  0  0  0
   -9.3672    2.6501   11.1190 C   0  0  0  0  0  0  0  0  0  0  0  0
   -8.0471    3.1122   10.5450 C   0  0  0  0  0  0  0  0  0  0  0  0
   -7.5352    2.1289    9.5366 C   0  0  0  0  0  0  0  0  0  0  0  0
   -6.6776    2.7441    8.5697 O   0  0  0  0  0  0  0  0  0  0  0  0
   -5.3775    2.4832    8.9411 C   0  0  0  0  0  0  0  0  0  0  0  0
   -4.1787    3.0184    8.4853 C   0  0  0  0  0  0  0  0  0  0  0  0
   -3.0068    2.5711    9.0384 C   0  0  0  0  0  0  0  0  0  0  0  0
   -3.0284    1.6174   10.0181 C   0  0  0  0  0  0  0  0  0  0  0  0
   -4.2013    1.0954   10.4624 C   0  0  0  0  0  0  0  0  0  0  0  0
   -5.4106    1.5254    9.9241 C   0  0  0  0  0  0  0  0  0  0  0  0
   -6.7237    1.1719   10.1839 O   0  0  0  0  0  0  0  0  0  0  0  0
  -11.7190    2.7448   10.2742 C   0  0  0  0  0  0  0  0  0  0  0  0
  -12.5573    2.2979    9.4180 O   0  0  0  0  0  0  0  0  0  0  0  0
  -12.1574    3.4438   11.4968 C   0  0  0  0  0  0  0  0  0  0  0  0
  -13.5559    3.8790   11.4484 C   0  0  0  0  0  0  0  0  0  0  0  0
  -14.5537    3.1574   12.0741 C   0  0  0  0  0  0  0  0  0  0  0  0
  -15.8753    3.5844   12.0182 C   0  0  0  0  0  0  0  0  0  0  0  0
  -16.2378    4.7315   11.3440 C   0  0  0  0  0  0  0  0  0  0  0  0
  -15.2441    5.4488   10.7217 C   0  0  0  0  0  0  0  0  0  0  0  0
  -13.9236    5.0272   10.7743 C   0  0  0  0  0  0  0  0  0  0  0  0
  -17.9126    5.2690   11.2754 Cl  0  0  0  0  0  0  0  0  0  0  0  0
  1  2  1  0
  2  3  1  0
  3  4  1  0
  4  5  1  0
  5  6  1  0
  6  7  1  0
  7  8  1  0
  8  9  2  0
  9 10  1  0
 10 11  2  0
 11 12  1  0
 12 13  2  0
 13 14  1  0
  3 15  1  0
 15 16  2  0
 15 17  1  0
 17 18  1  0
 18 19  2  0
 19 20  1  0
 20 21  2  0
 21 22  1  0
 22 23  2  0
 21 24  1  0
  6  1  1  0
 14  6  1  0
 13  8  1  0
 23 18  1  0
M  END
$$$$
