
     RDKit          3D

 24 27  0  0  0  0  0  0  0  0999 V2000
  -10.5345    0.9898   10.6034 C   0  0  0  0  0  0  0  0  0  0  0  0
  -11.6958    1.7874   11.1705 C   0  0  0  0  0  0  0  0  0  0  0  0
  -11.2671    2.3904   12.4048 N   0  0  0  0  0  0  0  0  0  0  0  0
   -9.8896    2.8106   12.5111 C   0  0  0  0  0  0  0  0  0  0  0  0
   -9.3845    3.1595   11.1294 C   0  0  0  0  0  0  0  0  0  0  0  0
   -9.4364    1.9627   10.2290 C   0  0  0  0  0  0  0  0  0  0  0  0
   -9.5569    2.3290    8.8506 O   0  0  0  0  0  0  0  0  0  0  0  0
   -8.3040    2.2420    8.2860 C   0  0  0  0  0  0  0  0  0  0  0  0
   -7.8287    2.6878    7.0585 C   0  0  0  0  0  0  0  0  0  0  0  0
   -6.5133    2.4655    6.7429 C   0  0  0  0  0  0  0  0  0  0  0  0
   -5.6942    1.8173    7.6253 C   0  0  0  0  0  0  0  0  0  0  0  0
   -6.1605    1.3822    8.8248 C   0  0  0  0  0  0  0  0  0  0  0  0
   -7.4902    1.5902    9.1792 C   0  0  0  0  0  0  0  0  0  0  0  0
   -8.2149    1.2597   10.3117 O   0  0  0  0  0  0  0  0  0  0  0  0
  -12.1841    2.5583   13.4729 C   0  0  0  0  0  0  0  0  0  0  0  0
  -13.2978    1.9302   13.4479 O   0  0  0  0  0  0  0  0  0  0  0  0
  -11.8252    3.4564   14.5866 C   0  0  0  0  0  0  0  0  0  0  0  0
  -11.7992    2.7860   15.8894 C   0  0  0  0  0  0  0  0  0  0  0  0
  -10.6081    2.5268   16.5390 C   0  0  0  0  0  0  0  0  0  0  0  0
  -10.6014    1.8899   17.7744 C   0  0  0  0  0  0  0  0  0  0  0  0
  -11.7697    1.4965   18.3926 C   0  0  0  0  0  0  0  0  0  0  0  0
  -12.9544    1.7549   17.7454 C   0  0  0  0  0  0  0  0  0  0  0  0
  -12.9667    2.3902   16.5123 C   0  0  0  0  0  0  0  0  0  0  0  0
  -11.7571    0.6900   19.9573 Cl  0  0  0  0  0  0  0  0  0  0  0  0
  1  2  1  0
  2  3  1  0
  3  4  1  0
  4  5  1  0
  5  6  1  0
  6  7  1  0
  7  8  1  0
  8  9  2  0
  9 10  1  0
 10 11  2  0
 11 12  1  0
 12 13  2  0
 13 14  1  0
  3 15  1  0
 15 16  2  0
 15 17  1  0
 17 18  1  0
 18 19  2  0
 19 20  1  0
 20 21  2  0
 21 22  1  0
 22 23  2  0
 21 24  1  0
  6  1  1  0
 14  6  1  0
 13  8  1  0
 23 18  1  0
M  END
$$$$
