
     RDKit          3D

 24 27  0  0  0  0  0  0  0  0999 V2000
   -7.5000    3.5615    9.9285 C   0  0  0  0  0  0  0  0  0  0  0  0
   -8.2238    2.9266   11.1030 C   0  0  0  0  0  0  0  0  0  0  0  0
   -9.5504    2.5700   10.6743 N   0  0  0  0  0  0  0  0  0  0  0  0
   -9.7280    2.1403    9.3072 C   0  0  0  0  0  0  0  0  0  0  0  0
   -8.4402    1.5084    8.8296 C   0  0  0  0  0  0  0  0  0  0  0  0
   -7.3192    2.5025    8.8616 C   0  0  0  0  0  0  0  0  0  0  0  0
   -6.0427    1.8722    9.0098 O   0  0  0  0  0  0  0  0  0  0  0  0
   -5.4628    1.8090    7.7625 C   0  0  0  0  0  0  0  0  0  0  0  0
   -4.3455    1.1138    7.3153 C   0  0  0  0  0  0  0  0  0  0  0  0
   -3.9820    1.2310    5.9987 C   0  0  0  0  0  0  0  0  0  0  0  0
   -4.7109    2.0186    5.1512 C   0  0  0  0  0  0  0  0  0  0  0  0
   -5.8027    2.6973    5.5901 C   0  0  0  0  0  0  0  0  0  0  0  0
   -6.2015    2.6023    6.9201 C   0  0  0  0  0  0  0  0  0  0  0  0
   -7.2506    3.1727    7.6209 O   0  0  0  0  0  0  0  0  0  0  0  0
  -10.6373    2.6449   11.5814 C   0  0  0  0  0  0  0  0  0  0  0  0
  -11.7472    2.0868   11.2778 O   0  0  0  0  0  0  0  0  0  0  0  0
  -10.4554    3.3674   12.8544 C   0  0  0  0  0  0  0  0  0  0  0  0
  -11.1595    2.7481   13.9806 C   0  0  0  0  0  0  0  0  0  0  0  0
  -10.5166    1.8741   14.8352 C   0  0  0  0  0  0  0  0  0  0  0  0
  -11.1994    1.2953   15.8986 C   0  0  0  0  0  0  0  0  0  0  0  0
  -12.5296    1.5680   16.1393 C   0  0  0  0  0  0  0  0  0  0  0  0
  -13.1685    2.4380   15.2882 C   0  0  0  0  0  0  0  0  0  0  0  0
  -12.4918    3.0182   14.2255 C   0  0  0  0  0  0  0  0  0  0  0  0
  -13.3910    0.8331   17.4871 Cl  0  0  0  0  0  0  0  0  0  0  0  0
  1  2  1  0
  2  3  1  0
  3  4  1  0
  4  5  1  0
  5  6  1  0
  6  7  1  0
  7  8  1  0
  8  9  2  0
  9 10  1  0
 10 11  2  0
 11 12  1  0
 12 13  2  0
 13 14  1  0
  3 15  1  0
 15 16  2  0
 15 17  1  0
 17 18  1  0
 18 19  2  0
 19 20  1  0
 20 21  2  0
 21 22  1  0
 22 23  2  0
 21 24  1  0
  6  1  1  0
 14  6  1  0
 13  8  1  0
 23 18  1  0
M  END
$$$$
