
     RDKit          3D

 24 27  0  0  0  0  0  0  0  0999 V2000
   -4.5014    2.4281    8.5280 C   0  0  0  0  0  0  0  0  0  0  0  0
   -5.6555    2.5743    9.5042 C   0  0  0  0  0  0  0  0  0  0  0  0
   -6.2761    1.2858    9.6632 N   0  0  0  0  0  0  0  0  0  0  0  0
   -5.4327    0.1152    9.6020 C   0  0  0  0  0  0  0  0  0  0  0  0
   -4.0453    0.4964   10.0666 C   0  0  0  0  0  0  0  0  0  0  0  0
   -3.4550    1.5412    9.1689 C   0  0  0  0  0  0  0  0  0  0  0  0
   -2.4802    2.3438    9.8429 O   0  0  0  0  0  0  0  0  0  0  0  0
   -1.2362    1.8664    9.4955 C   0  0  0  0  0  0  0  0  0  0  0  0
    0.0198    2.1359   10.0257 C   0  0  0  0  0  0  0  0  0  0  0  0
    1.1115    1.5115    9.4800 C   0  0  0  0  0  0  0  0  0  0  0  0
    0.9563    0.6429    8.4353 C   0  0  0  0  0  0  0  0  0  0  0  0
   -0.2722    0.3807    7.9183 C   0  0  0  0  0  0  0  0  0  0  0  0
   -1.4031    0.9962    8.4468 C   0  0  0  0  0  0  0  0  0  0  0  0
   -2.7462    0.9140    8.1212 O   0  0  0  0  0  0  0  0  0  0  0  0
   -7.6750    1.1888    9.8726 C   0  0  0  0  0  0  0  0  0  0  0  0
   -8.2029    0.0392   10.0596 O   0  0  0  0  0  0  0  0  0  0  0  0
   -8.4839    2.4222    9.8685 C   0  0  0  0  0  0  0  0  0  0  0  0
   -9.6998    2.3232   10.6805 C   0  0  0  0  0  0  0  0  0  0  0  0
   -9.6501    2.3997   12.0587 C   0  0  0  0  0  0  0  0  0  0  0  0
  -10.8131    2.3038   12.8138 C   0  0  0  0  0  0  0  0  0  0  0  0
  -12.0474    2.1305   12.2238 C   0  0  0  0  0  0  0  0  0  0  0  0
  -12.0957    2.0544   10.8522 C   0  0  0  0  0  0  0  0  0  0  0  0
  -10.9382    2.1496   10.0938 C   0  0  0  0  0  0  0  0  0  0  0  0
  -13.5181    2.0094   13.1835 Cl  0  0  0  0  0  0  0  0  0  0  0  0
  1  2  1  0
  2  3  1  0
  3  4  1  0
  4  5  1  0
  5  6  1  0
  6  7  1  0
  7  8  1  0
  8  9  2  0
  9 10  1  0
 10 11  2  0
 11 12  1  0
 12 13  2  0
 13 14  1  0
  3 15  1  0
 15 16  2  0
 15 17  1  0
 17 18  1  0
 18 19  2  0
 19 20  1  0
 20 21  2  0
 21 22  1  0
 22 23  2  0
 21 24  1  0
  6  1  1  0
 14  6  1  0
 13  8  1  0
 23 18  1  0
M  END
$$$$
