
     RDKit          3D

 24 27  0  0  0  0  0  0  0  0999 V2000
   -0.9627    3.2989    6.2587 C   0  0  0  0  0  0  0  0  0  0  0  0
   -2.2642    3.3428    5.4773 C   0  0  0  0  0  0  0  0  0  0  0  0
   -3.1629    2.3732    6.0456 N   0  0  0  0  0  0  0  0  0  0  0  0
   -3.1006    2.1448    7.4701 C   0  0  0  0  0  0  0  0  0  0  0  0
   -2.6216    3.4124    8.1407 C   0  0  0  0  0  0  0  0  0  0  0  0
   -1.2462    3.7739    7.6682 C   0  0  0  0  0  0  0  0  0  0  0  0
   -0.9919    5.1787    7.7710 O   0  0  0  0  0  0  0  0  0  0  0  0
   -0.2550    5.3853    8.9157 C   0  0  0  0  0  0  0  0  0  0  0  0
    0.0659    6.5578    9.5891 C   0  0  0  0  0  0  0  0  0  0  0  0
    0.8284    6.4756   10.7255 C   0  0  0  0  0  0  0  0  0  0  0  0
    1.2591    5.2593   11.1783 C   0  0  0  0  0  0  0  0  0  0  0  0
    0.9445    4.1142   10.5187 C   0  0  0  0  0  0  0  0  0  0  0  0
    0.1723    4.1592    9.3616 C   0  0  0  0  0  0  0  0  0  0  0  0
   -0.2868    3.1695    8.5093 O   0  0  0  0  0  0  0  0  0  0  0  0
   -4.0748    1.6734    5.2157 C   0  0  0  0  0  0  0  0  0  0  0  0
   -3.8800    1.6473    3.9521 O   0  0  0  0  0  0  0  0  0  0  0  0
   -5.2266    0.9928    5.8369 C   0  0  0  0  0  0  0  0  0  0  0  0
   -5.3164   -0.4292    5.4941 C   0  0  0  0  0  0  0  0  0  0  0  0
   -4.8942   -1.4069    6.3735 C   0  0  0  0  0  0  0  0  0  0  0  0
   -4.9863   -2.7512    6.0324 C   0  0  0  0  0  0  0  0  0  0  0  0
   -5.4968   -3.1566    4.8172 C   0  0  0  0  0  0  0  0  0  0  0  0
   -5.9167   -2.1827    3.9427 C   0  0  0  0  0  0  0  0  0  0  0  0
   -5.8269   -0.8398    4.2781 C   0  0  0  0  0  0  0  0  0  0  0  0
   -5.6119   -4.8601    4.3887 Cl  0  0  0  0  0  0  0  0  0  0  0  0
  1  2  1  0
  2  3  1  0
  3  4  1  0
  4  5  1  0
  5  6  1  0
  6  7  1  0
  7  8  1  0
  8  9  2  0
  9 10  1  0
 10 11  2  0
 11 12  1  0
 12 13  2  0
 13 14  1  0
  3 15  1  0
 15 16  2  0
 15 17  1  0
 17 18  1  0
 18 19  2  0
 19 20  1  0
 20 21  2  0
 21 22  1  0
 22 23  2  0
 21 24  1  0
  6  1  1  0
 14  6  1  0
 13  8  1  0
 23 18  1  0
M  END
$$$$
