
     RDKit          3D

 24 27  0  0  0  0  0  0  0  0999 V2000
   -7.4402    3.2506    8.4705 C   0  0  0  0  0  0  0  0  0  0  0  0
   -6.6313    2.4297    7.4815 C   0  0  0  0  0  0  0  0  0  0  0  0
   -5.6645    1.6609    8.2196 N   0  0  0  0  0  0  0  0  0  0  0  0
   -6.0373    1.1818    9.5299 C   0  0  0  0  0  0  0  0  0  0  0  0
   -7.5369    0.9923    9.5648 C   0  0  0  0  0  0  0  0  0  0  0  0
   -8.2405    2.2943    9.3293 C   0  0  0  0  0  0  0  0  0  0  0  0
   -9.5449    2.1095    8.7696 O   0  0  0  0  0  0  0  0  0  0  0  0
  -10.4572    2.2224    9.7948 C   0  0  0  0  0  0  0  0  0  0  0  0
  -11.8125    1.9185    9.8411 C   0  0  0  0  0  0  0  0  0  0  0  0
  -12.4944    2.1319   11.0111 C   0  0  0  0  0  0  0  0  0  0  0  0
  -11.8444    2.6339   12.1044 C   0  0  0  0  0  0  0  0  0  0  0  0
  -10.5195    2.9305   12.0572 C   0  0  0  0  0  0  0  0  0  0  0  0
   -9.7950    2.7269   10.8865 C   0  0  0  0  0  0  0  0  0  0  0  0
   -8.4647    2.9373   10.5660 O   0  0  0  0  0  0  0  0  0  0  0  0
   -4.3896    1.3922    7.6606 C   0  0  0  0  0  0  0  0  0  0  0  0
   -3.7496    2.3333    7.0774 O   0  0  0  0  0  0  0  0  0  0  0  0
   -3.8365    0.0291    7.7683 C   0  0  0  0  0  0  0  0  0  0  0  0
   -2.8092   -0.1016    8.8053 C   0  0  0  0  0  0  0  0  0  0  0  0
   -1.5813    0.5184    8.6805 C   0  0  0  0  0  0  0  0  0  0  0  0
   -0.6181    0.3840    9.6736 C   0  0  0  0  0  0  0  0  0  0  0  0
   -0.8479   -0.3646   10.8087 C   0  0  0  0  0  0  0  0  0  0  0  0
   -2.0702   -0.9812   10.9318 C   0  0  0  0  0  0  0  0  0  0  0  0
   -3.0350   -0.8504    9.9438 C   0  0  0  0  0  0  0  0  0  0  0  0
    0.3746   -0.5325   12.0642 Cl  0  0  0  0  0  0  0  0  0  0  0  0
  1  2  1  0
  2  3  1  0
  3  4  1  0
  4  5  1  0
  5  6  1  0
  6  7  1  0
  7  8  1  0
  8  9  2  0
  9 10  1  0
 10 11  2  0
 11 12  1  0
 12 13  2  0
 13 14  1  0
  3 15  1  0
 15 16  2  0
 15 17  1  0
 17 18  1  0
 18 19  2  0
 19 20  1  0
 20 21  2  0
 21 22  1  0
 22 23  2  0
 21 24  1  0
  6  1  1  0
 14  6  1  0
 13  8  1  0
 23 18  1  0
M  END
$$$$
