
     RDKit          3D

 24 27  0  0  0  0  0  0  0  0999 V2000
   -0.7748    2.0944    6.0034 C   0  0  0  0  0  0  0  0  0  0  0  0
   -1.0866    0.6134    6.1283 C   0  0  0  0  0  0  0  0  0  0  0  0
   -1.1573    0.2851    7.5276 N   0  0  0  0  0  0  0  0  0  0  0  0
   -1.6761    1.2837    8.4326 C   0  0  0  0  0  0  0  0  0  0  0  0
   -2.6470    2.1615    7.6759 C   0  0  0  0  0  0  0  0  0  0  0  0
   -1.9545    2.8695    6.5511 C   0  0  0  0  0  0  0  0  0  0  0  0
   -2.8540    3.2054    5.4895 O   0  0  0  0  0  0  0  0  0  0  0  0
   -3.1887    4.5335    5.6326 C   0  0  0  0  0  0  0  0  0  0  0  0
   -4.1763    5.2919    5.0156 C   0  0  0  0  0  0  0  0  0  0  0  0
   -4.2924    6.6166    5.3494 C   0  0  0  0  0  0  0  0  0  0  0  0
   -3.4484    7.1701    6.2719 C   0  0  0  0  0  0  0  0  0  0  0  0
   -2.4836    6.4271    6.8739 C   0  0  0  0  0  0  0  0  0  0  0  0
   -2.3361    5.0792    6.5600 C   0  0  0  0  0  0  0  0  0  0  0  0
   -1.4580    4.1085    7.0111 O   0  0  0  0  0  0  0  0  0  0  0  0
   -0.7258   -0.9857    7.9848 C   0  0  0  0  0  0  0  0  0  0  0  0
    0.2354   -1.5759    7.3822 O   0  0  0  0  0  0  0  0  0  0  0  0
   -1.4013   -1.5924    9.1473 C   0  0  0  0  0  0  0  0  0  0  0  0
   -0.4724   -2.0826   10.1694 C   0  0  0  0  0  0  0  0  0  0  0  0
    0.1680   -1.2145   11.0319 C   0  0  0  0  0  0  0  0  0  0  0  0
    1.0462   -1.6961   11.9957 C   0  0  0  0  0  0  0  0  0  0  0  0
    1.3093   -3.0435   12.1269 C   0  0  0  0  0  0  0  0  0  0  0  0
    0.6714   -3.9065   11.2680 C   0  0  0  0  0  0  0  0  0  0  0  0
   -0.2059   -3.4311   10.3045 C   0  0  0  0  0  0  0  0  0  0  0  0
    2.4221   -3.6497   13.3487 Cl  0  0  0  0  0  0  0  0  0  0  0  0
  1  2  1  0
  2  3  1  0
  3  4  1  0
  4  5  1  0
  5  6  1  0
  6  7  1  0
  7  8  1  0
  8  9  2  0
  9 10  1  0
 10 11  2  0
 11 12  1  0
 12 13  2  0
 13 14  1  0
  3 15  1  0
 15 16  2  0
 15 17  1  0
 17 18  1  0
 18 19  2  0
 19 20  1  0
 20 21  2  0
 21 22  1  0
 22 23  2  0
 21 24  1  0
  6  1  1  0
 14  6  1  0
 13  8  1  0
 23 18  1  0
M  END
$$$$
