
     RDKit          3D

 24 27  0  0  0  0  0  0  0  0999 V2000
   -2.9374    2.5687    9.4741 C   0  0  0  0  0  0  0  0  0  0  0  0
   -3.9587    2.4156   10.5876 C   0  0  0  0  0  0  0  0  0  0  0  0
   -5.0391    1.6009   10.0980 N   0  0  0  0  0  0  0  0  0  0  0  0
   -4.7233    0.5481    9.1613 C   0  0  0  0  0  0  0  0  0  0  0  0
   -3.3067    0.0854    9.4164 C   0  0  0  0  0  0  0  0  0  0  0  0
   -2.3364    1.2065    9.1988 C   0  0  0  0  0  0  0  0  0  0  0  0
   -1.1371    1.0382    9.9617 O   0  0  0  0  0  0  0  0  0  0  0  0
   -0.1751    0.5301    9.1176 C   0  0  0  0  0  0  0  0  0  0  0  0
    1.0756   -0.0118    9.3887 C   0  0  0  0  0  0  0  0  0  0  0  0
    1.8434   -0.4497    8.3407 C   0  0  0  0  0  0  0  0  0  0  0  0
    1.3783   -0.3507    7.0587 C   0  0  0  0  0  0  0  0  0  0  0  0
    0.1555    0.1793    6.7956 C   0  0  0  0  0  0  0  0  0  0  0  0
   -0.6516    0.6342    7.8342 C   0  0  0  0  0  0  0  0  0  0  0  0
   -1.9124    1.2058    7.8522 O   0  0  0  0  0  0  0  0  0  0  0  0
   -6.3669    1.8400   10.5337 C   0  0  0  0  0  0  0  0  0  0  0  0
   -6.6808    2.9949   10.9842 O   0  0  0  0  0  0  0  0  0  0  0  0
   -7.3517    0.7447   10.4543 C   0  0  0  0  0  0  0  0  0  0  0  0
   -8.7401    1.2122   10.4185 C   0  0  0  0  0  0  0  0  0  0  0  0
   -9.1585    2.1466    9.4914 C   0  0  0  0  0  0  0  0  0  0  0  0
  -10.4793    2.5793    9.4713 C   0  0  0  0  0  0  0  0  0  0  0  0
  -11.4125    2.0983   10.3654 C   0  0  0  0  0  0  0  0  0  0  0  0
  -10.9951    1.1684   11.2876 C   0  0  0  0  0  0  0  0  0  0  0  0
   -9.6782    0.7332   11.3120 C   0  0  0  0  0  0  0  0  0  0  0  0
  -13.0843    2.6487   10.3369 Cl  0  0  0  0  0  0  0  0  0  0  0  0
  1  2  1  0
  2  3  1  0
  3  4  1  0
  4  5  1  0
  5  6  1  0
  6  7  1  0
  7  8  1  0
  8  9  2  0
  9 10  1  0
 10 11  2  0
 11 12  1  0
 12 13  2  0
 13 14  1  0
  3 15  1  0
 15 16  2  0
 15 17  1  0
 17 18  1  0
 18 19  2  0
 19 20  1  0
 20 21  2  0
 21 22  1  0
 22 23  2  0
 21 24  1  0
  6  1  1  0
 14  6  1  0
 13  8  1  0
 23 18  1  0
M  END
$$$$
