
     RDKit          3D

 21 23  0  0  0  0  0  0  0  0999 V2000
    2.4637    0.4733    6.4215 C   0  0  0  0  0  0  0  0  0  0  0  0
    3.0735    0.1686    7.6236 C   0  0  0  0  0  0  0  0  0  0  0  0
    3.1145    1.1412    8.6192 C   0  0  0  0  0  0  0  0  0  0  0  0
    2.5694    2.3877    8.4412 C   0  0  0  0  0  0  0  0  0  0  0  0
    1.9721    2.6418    7.2227 C   0  0  0  0  0  0  0  0  0  0  0  0
    1.9186    1.6964    6.2222 C   0  0  0  0  0  0  0  0  0  0  0  0
    2.6136    3.4004    9.4708 C   0  0  0  0  0  0  0  0  0  0  0  0
    1.8210    4.5236    9.3994 C   0  0  0  0  0  0  0  0  0  0  0  0
    1.8878    5.4749   10.3813 N   0  0  0  0  0  0  0  0  0  0  0  0
    2.7140    5.3028   11.3878 N   0  0  0  0  0  0  0  0  0  0  0  0
    3.5127    4.2229   11.5099 C   0  0  0  0  0  0  0  0  0  0  0  0
    3.4436    3.2954   10.5466 N   0  0  0  0  0  0  0  0  0  0  0  0
    4.3894    4.0942   12.6328 N   0  0  0  0  0  0  0  0  0  0  0  0
    0.9062    4.6807    8.2842 C   0  0  0  0  0  0  0  0  0  0  0  0
   -0.4453    4.8352    8.5348 C   0  0  0  0  0  0  0  0  0  0  0  0
   -1.3743    4.9985    7.5405 C   0  0  0  0  0  0  0  0  0  0  0  0
   -0.9596    5.0111    6.2281 C   0  0  0  0  0  0  0  0  0  0  0  0
    0.3941    4.8580    5.9373 C   0  0  0  0  0  0  0  0  0  0  0  0
    1.3159    4.6941    6.9744 C   0  0  0  0  0  0  0  0  0  0  0  0
   -1.8472    5.1722    5.1672 O   0  0  0  0  0  0  0  0  0  0  0  0
   -3.0689    5.1922    7.9160 Cl  0  0  0  0  0  0  0  0  0  0  0  0
  1  2  2  0
  2  3  1  0
  3  4  2  0
  4  5  1  0
  5  6  2  0
  4  7  1  0
  7  8  1  0
  8  9  2  0
  9 10  1  0
 10 11  2  0
 11 12  1  0
 11 13  1  0
  8 14  1  0
 14 15  2  0
 15 16  1  0
 16 17  2  0
 17 18  1  0
 18 19  2  0
 17 20  1  0
 16 21  1  0
  6  1  1  0
 12  7  2  0
 19 14  1  0
M  END
$$$$
