
     RDKit          3D

 21 23  0  0  0  0  0  0  0  0999 V2000
    2.2817    0.4055    6.6051 C   0  0  0  0  0  0  0  0  0  0  0  0
    1.1339    1.1119    6.9105 C   0  0  0  0  0  0  0  0  0  0  0  0
    1.1898    2.0812    7.9086 C   0  0  0  0  0  0  0  0  0  0  0  0
    2.3467    2.3534    8.5943 C   0  0  0  0  0  0  0  0  0  0  0  0
    3.4651    1.6201    8.2515 C   0  0  0  0  0  0  0  0  0  0  0  0
    3.4354    0.6562    7.2678 C   0  0  0  0  0  0  0  0  0  0  0  0
    2.4071    3.3559    9.6331 C   0  0  0  0  0  0  0  0  0  0  0  0
    1.6403    4.4971    9.5668 C   0  0  0  0  0  0  0  0  0  0  0  0
    1.7223    5.4381   10.5574 N   0  0  0  0  0  0  0  0  0  0  0  0
    2.5382    5.2389   11.5673 N   0  0  0  0  0  0  0  0  0  0  0  0
    3.3118    4.1403   11.6847 C   0  0  0  0  0  0  0  0  0  0  0  0
    3.2280    3.2230   10.7129 N   0  0  0  0  0  0  0  0  0  0  0  0
    4.1785    3.9823   12.8116 N   0  0  0  0  0  0  0  0  0  0  0  0
    0.7362    4.6843    8.4476 C   0  0  0  0  0  0  0  0  0  0  0  0
    1.2444    4.6891    7.1611 C   0  0  0  0  0  0  0  0  0  0  0  0
    0.4591    4.8503    6.0496 C   0  0  0  0  0  0  0  0  0  0  0  0
   -0.8985    5.0166    6.2036 C   0  0  0  0  0  0  0  0  0  0  0  0
   -1.4462    5.0173    7.4845 C   0  0  0  0  0  0  0  0  0  0  0  0
   -0.6180    4.8500    8.5971 C   0  0  0  0  0  0  0  0  0  0  0  0
   -1.7567    5.1859    5.1201 O   0  0  0  0  0  0  0  0  0  0  0  0
    1.1555    4.8452    4.4479 Cl  0  0  0  0  0  0  0  0  0  0  0  0
  1  2  2  0
  2  3  1  0
  3  4  2  0
  4  5  1  0
  5  6  2  0
  4  7  1  0
  7  8  1  0
  8  9  2  0
  9 10  1  0
 10 11  2  0
 11 12  1  0
 11 13  1  0
  8 14  1  0
 14 15  2  0
 15 16  1  0
 16 17  2  0
 17 18  1  0
 18 19  2  0
 17 20  1  0
 16 21  1  0
  6  1  1  0
 12  7  2  0
 19 14  1  0
M  END
$$$$
