
     RDKit          3D

 21 23  0  0  0  0  0  0  0  0999 V2000
    2.1637    0.6663    6.4211 C   0  0  0  0  0  0  0  0  0  0  0  0
    3.3829    0.9557    7.0037 C   0  0  0  0  0  0  0  0  0  0  0  0
    3.4291    1.8990    8.0268 C   0  0  0  0  0  0  0  0  0  0  0  0
    2.3037    2.5464    8.4706 C   0  0  0  0  0  0  0  0  0  0  0  0
    1.1110    2.2217    7.8559 C   0  0  0  0  0  0  0  0  0  0  0  0
    1.0393    1.2920    6.8419 C   0  0  0  0  0  0  0  0  0  0  0  0
    2.3488    3.5285    9.5295 C   0  0  0  0  0  0  0  0  0  0  0  0
    1.5742    4.6652    9.4799 C   0  0  0  0  0  0  0  0  0  0  0  0
    1.6416    5.5870   10.4895 N   0  0  0  0  0  0  0  0  0  0  0  0
    2.4512    5.3736   11.5016 N   0  0  0  0  0  0  0  0  0  0  0  0
    3.2319    4.2784   11.6033 C   0  0  0  0  0  0  0  0  0  0  0  0
    3.1623    3.3800   10.6129 N   0  0  0  0  0  0  0  0  0  0  0  0
    4.0910    4.1043   12.7336 N   0  0  0  0  0  0  0  0  0  0  0  0
    0.6774    4.8682    8.3576 C   0  0  0  0  0  0  0  0  0  0  0  0
    1.1897    4.8616    7.0727 C   0  0  0  0  0  0  0  0  0  0  0  0
    0.4111    5.0362    5.9585 C   0  0  0  0  0  0  0  0  0  0  0  0
   -0.9436    5.2287    6.1079 C   0  0  0  0  0  0  0  0  0  0  0  0
   -1.4953    5.2416    7.3870 C   0  0  0  0  0  0  0  0  0  0  0  0
   -0.6739    5.0600    8.5026 C   0  0  0  0  0  0  0  0  0  0  0  0
   -1.7950    5.4129    5.0215 O   0  0  0  0  0  0  0  0  0  0  0  0
    1.1124    5.0156    4.3590 Cl  0  0  0  0  0  0  0  0  0  0  0  0
  1  2  2  0
  2  3  1  0
  3  4  2  0
  4  5  1  0
  5  6  2  0
  4  7  1  0
  7  8  1  0
  8  9  2  0
  9 10  1  0
 10 11  2  0
 11 12  1  0
 11 13  1  0
  8 14  1  0
 14 15  2  0
 15 16  1  0
 16 17  2  0
 17 18  1  0
 18 19  2  0
 17 20  1  0
 16 21  1  0
  6  1  1  0
 12  7  2  0
 19 14  1  0
M  END
$$$$
