
     RDKit          3D

 21 23  0  0  0  0  0  0  0  0999 V2000
   -0.5277    5.1389    6.0417 C   0  0  0  0  0  0  0  0  0  0  0  0
    0.7685    4.6646    6.1086 C   0  0  0  0  0  0  0  0  0  0  0  0
    1.4044    4.6262    7.3467 C   0  0  0  0  0  0  0  0  0  0  0  0
    0.7834    5.0441    8.4967 C   0  0  0  0  0  0  0  0  0  0  0  0
   -0.5109    5.5090    8.3759 C   0  0  0  0  0  0  0  0  0  0  0  0
   -1.1615    5.5568    7.1627 C   0  0  0  0  0  0  0  0  0  0  0  0
    1.4418    5.0089    9.7824 C   0  0  0  0  0  0  0  0  0  0  0  0
    2.2468    3.9518   10.1415 C   0  0  0  0  0  0  0  0  0  0  0  0
    2.8516    3.9352   11.3693 N   0  0  0  0  0  0  0  0  0  0  0  0
    2.6548    4.9365   12.1964 N   0  0  0  0  0  0  0  0  0  0  0  0
    1.8777    5.9977   11.8978 C   0  0  0  0  0  0  0  0  0  0  0  0
    1.2883    6.0089   10.6956 N   0  0  0  0  0  0  0  0  0  0  0  0
    1.7059    7.0577   12.8428 N   0  0  0  0  0  0  0  0  0  0  0  0
    2.4591    2.8664    9.2025 C   0  0  0  0  0  0  0  0  0  0  0  0
    1.3865    2.3804    8.4768 C   0  0  0  0  0  0  0  0  0  0  0  0
    1.5024    1.3650    7.5638 C   0  0  0  0  0  0  0  0  0  0  0  0
    2.7352    0.7919    7.3481 C   0  0  0  0  0  0  0  0  0  0  0  0
    3.8387    1.2553    8.0610 C   0  0  0  0  0  0  0  0  0  0  0  0
    3.6868    2.2927    8.9844 C   0  0  0  0  0  0  0  0  0  0  0  0
    2.9272   -0.2432    6.4366 O   0  0  0  0  0  0  0  0  0  0  0  0
    0.1131    0.7932    6.6732 Cl  0  0  0  0  0  0  0  0  0  0  0  0
  1  2  2  0
  2  3  1  0
  3  4  2  0
  4  5  1  0
  5  6  2  0
  4  7  1  0
  7  8  1  0
  8  9  2  0
  9 10  1  0
 10 11  2  0
 11 12  1  0
 11 13  1  0
  8 14  1  0
 14 15  2  0
 15 16  1  0
 16 17  2  0
 17 18  1  0
 18 19  2  0
 17 20  1  0
 16 21  1  0
  6  1  1  0
 12  7  2  0
 19 14  1  0
M  END
$$$$
