
     RDKit          3D

 21 23  0  0  0  0  0  0  0  0999 V2000
    2.5884    0.4128    6.3376 C   0  0  0  0  0  0  0  0  0  0  0  0
    1.4304    1.1061    6.6344 C   0  0  0  0  0  0  0  0  0  0  0  0
    1.4587    2.0500    7.6577 C   0  0  0  0  0  0  0  0  0  0  0  0
    2.5982    2.3097    8.3764 C   0  0  0  0  0  0  0  0  0  0  0  0
    3.7278    1.5904    8.0408 C   0  0  0  0  0  0  0  0  0  0  0  0
    3.7254    0.6517    7.0327 C   0  0  0  0  0  0  0  0  0  0  0  0
    2.6299    3.2857    9.4413 C   0  0  0  0  0  0  0  0  0  0  0  0
    1.9821    4.4941    9.3192 C   0  0  0  0  0  0  0  0  0  0  0  0
    2.0351    5.4077   10.3371 N   0  0  0  0  0  0  0  0  0  0  0  0
    2.7088    5.1176   11.4268 N   0  0  0  0  0  0  0  0  0  0  0  0
    3.3613    3.9502   11.6015 C   0  0  0  0  0  0  0  0  0  0  0  0
    3.3065    3.0601   10.6028 N   0  0  0  0  0  0  0  0  0  0  0  0
    4.0755    3.6947   12.8142 N   0  0  0  0  0  0  0  0  0  0  0  0
    1.2326    4.7822    8.1108 C   0  0  0  0  0  0  0  0  0  0  0  0
   -0.0907    5.1719    8.2125 C   0  0  0  0  0  0  0  0  0  0  0  0
   -0.8659    5.4710    7.1227 C   0  0  0  0  0  0  0  0  0  0  0  0
   -0.3178    5.3841    5.8631 C   0  0  0  0  0  0  0  0  0  0  0  0
    1.0122    4.9946    5.7217 C   0  0  0  0  0  0  0  0  0  0  0  0
    1.7758    4.6970    6.8532 C   0  0  0  0  0  0  0  0  0  0  0  0
   -1.0457    5.6726    4.7115 O   0  0  0  0  0  0  0  0  0  0  0  0
   -2.5317    5.9610    7.3111 Cl  0  0  0  0  0  0  0  0  0  0  0  0
  1  2  2  0
  2  3  1  0
  3  4  2  0
  4  5  1  0
  5  6  2  0
  4  7  1  0
  7  8  1  0
  8  9  2  0
  9 10  1  0
 10 11  2  0
 11 12  1  0
 11 13  1  0
  8 14  1  0
 14 15  2  0
 15 16  1  0
 16 17  2  0
 17 18  1  0
 18 19  2  0
 17 20  1  0
 16 21  1  0
  6  1  1  0
 12  7  2  0
 19 14  1  0
M  END
$$$$
