
     RDKit          3D

 21 23  0  0  0  0  0  0  0  0999 V2000
    3.4621    0.4496    6.9154 C   0  0  0  0  0  0  0  0  0  0  0  0
    4.3203    0.6387    7.9820 C   0  0  0  0  0  0  0  0  0  0  0  0
    4.0708    1.6864    8.8646 C   0  0  0  0  0  0  0  0  0  0  0  0
    3.0022    2.5324    8.7059 C   0  0  0  0  0  0  0  0  0  0  0  0
    2.1754    2.3009    7.6248 C   0  0  0  0  0  0  0  0  0  0  0  0
    2.4009    1.2713    6.7378 C   0  0  0  0  0  0  0  0  0  0  0  0
    2.7427    3.6226    9.6178 C   0  0  0  0  0  0  0  0  0  0  0  0
    1.8802    4.6416    9.2823 C   0  0  0  0  0  0  0  0  0  0  0  0
    1.6580    5.6698   10.1582 N   0  0  0  0  0  0  0  0  0  0  0  0
    2.2757    5.6714   11.3174 N   0  0  0  0  0  0  0  0  0  0  0  0
    3.1299    4.6999   11.6992 C   0  0  0  0  0  0  0  0  0  0  0  0
    3.3438    3.6966   10.8387 N   0  0  0  0  0  0  0  0  0  0  0  0
    3.7692    4.7594   12.9774 N   0  0  0  0  0  0  0  0  0  0  0  0
    1.1996    4.6067    8.0014 C   0  0  0  0  0  0  0  0  0  0  0  0
    0.5102    3.4655    7.6328 C   0  0  0  0  0  0  0  0  0  0  0  0
   -0.1663    3.3535    6.4462 C   0  0  0  0  0  0  0  0  0  0  0  0
   -0.1690    4.4156    5.5706 C   0  0  0  0  0  0  0  0  0  0  0  0
    0.5148    5.5815    5.9080 C   0  0  0  0  0  0  0  0  0  0  0  0
    1.1944    5.6637    7.1260 C   0  0  0  0  0  0  0  0  0  0  0  0
   -0.8343    4.3725    4.3481 O   0  0  0  0  0  0  0  0  0  0  0  0
   -1.0227    1.8883    6.0340 Cl  0  0  0  0  0  0  0  0  0  0  0  0
  1  2  2  0
  2  3  1  0
  3  4  2  0
  4  5  1  0
  5  6  2  0
  4  7  1  0
  7  8  1  0
  8  9  2  0
  9 10  1  0
 10 11  2  0
 11 12  1  0
 11 13  1  0
  8 14  1  0
 14 15  2  0
 15 16  1  0
 16 17  2  0
 17 18  1  0
 18 19  2  0
 17 20  1  0
 16 21  1  0
  6  1  1  0
 12  7  2  0
 19 14  1  0
M  END
$$$$
