
     RDKit          3D

 21 23  0  0  0  0  0  0  0  0999 V2000
    2.5782    0.2220    6.3743 C   0  0  0  0  0  0  0  0  0  0  0  0
    1.3940    0.8644    6.6821 C   0  0  0  0  0  0  0  0  0  0  0  0
    1.3886    1.8015    7.7121 C   0  0  0  0  0  0  0  0  0  0  0  0
    2.5203    2.1035    8.4266 C   0  0  0  0  0  0  0  0  0  0  0  0
    3.6770    1.4342    8.0799 C   0  0  0  0  0  0  0  0  0  0  0  0
    3.7080    0.5032    7.0651 C   0  0  0  0  0  0  0  0  0  0  0  0
    2.5173    3.0725    9.4983 C   0  0  0  0  0  0  0  0  0  0  0  0
    1.8673    4.2787    9.3659 C   0  0  0  0  0  0  0  0  0  0  0  0
    1.8872    5.1858   10.3908 N   0  0  0  0  0  0  0  0  0  0  0  0
    2.5313    4.8916   11.4970 N   0  0  0  0  0  0  0  0  0  0  0  0
    3.1843    3.7261   11.6825 C   0  0  0  0  0  0  0  0  0  0  0  0
    3.1620    2.8424   10.6768 N   0  0  0  0  0  0  0  0  0  0  0  0
    3.8654    3.4659   12.9131 N   0  0  0  0  0  0  0  0  0  0  0  0
    1.1507    4.5712    8.1387 C   0  0  0  0  0  0  0  0  0  0  0  0
   -0.0660    5.2258    8.2057 C   0  0  0  0  0  0  0  0  0  0  0  0
   -0.8018    5.5477    7.0953 C   0  0  0  0  0  0  0  0  0  0  0  0
   -0.3223    5.2109    5.8498 C   0  0  0  0  0  0  0  0  0  0  0  0
    0.8997    4.5506    5.7433 C   0  0  0  0  0  0  0  0  0  0  0  0
    1.6257    4.2372    6.8951 C   0  0  0  0  0  0  0  0  0  0  0  0
   -1.0159    5.5060    4.6788 O   0  0  0  0  0  0  0  0  0  0  0  0
   -2.3316    6.3780    7.2396 Cl  0  0  0  0  0  0  0  0  0  0  0  0
  1  2  2  0
  2  3  1  0
  3  4  2  0
  4  5  1  0
  5  6  2  0
  4  7  1  0
  7  8  1  0
  8  9  2  0
  9 10  1  0
 10 11  2  0
 11 12  1  0
 11 13  1  0
  8 14  1  0
 14 15  2  0
 15 16  1  0
 16 17  2  0
 17 18  1  0
 18 19  2  0
 17 20  1  0
 16 21  1  0
  6  1  1  0
 12  7  2  0
 19 14  1  0
M  END
$$$$
