
     RDKit          3D

 21 23  0  0  0  0  0  0  0  0999 V2000
    2.3005    0.5395    6.6336 C   0  0  0  0  0  0  0  0  0  0  0  0
    1.1239    1.1991    6.9337 C   0  0  0  0  0  0  0  0  0  0  0  0
    1.1401    2.1821    7.9198 C   0  0  0  0  0  0  0  0  0  0  0  0
    2.2857    2.5125    8.5988 C   0  0  0  0  0  0  0  0  0  0  0  0
    3.4340    1.8243    8.2616 C   0  0  0  0  0  0  0  0  0  0  0  0
    3.4438    0.8479    7.2899 C   0  0  0  0  0  0  0  0  0  0  0  0
    2.3051    3.5294    9.6250 C   0  0  0  0  0  0  0  0  0  0  0  0
    1.4788    4.6280    9.5546 C   0  0  0  0  0  0  0  0  0  0  0  0
    1.5223    5.5841   10.5332 N   0  0  0  0  0  0  0  0  0  0  0  0
    2.3588    5.4401   11.5356 N   0  0  0  0  0  0  0  0  0  0  0  0
    3.1903    4.3850   11.6566 C   0  0  0  0  0  0  0  0  0  0  0  0
    3.1438    3.4528   10.6966 N   0  0  0  0  0  0  0  0  0  0  0  0
    4.0766    4.2863   12.7749 N   0  0  0  0  0  0  0  0  0  0  0  0
    0.5536    4.7540    8.4441 C   0  0  0  0  0  0  0  0  0  0  0  0
    1.0485    4.7984    7.1532 C   0  0  0  0  0  0  0  0  0  0  0  0
    0.2438    4.9068    6.0493 C   0  0  0  0  0  0  0  0  0  0  0  0
   -1.1208    4.9763    6.2158 C   0  0  0  0  0  0  0  0  0  0  0  0
   -1.6556    4.9348    7.5015 C   0  0  0  0  0  0  0  0  0  0  0  0
   -0.8076    4.8233    8.6062 C   0  0  0  0  0  0  0  0  0  0  0  0
   -1.9986    5.0876    5.1405 O   0  0  0  0  0  0  0  0  0  0  0  0
    0.9243    4.9553    4.4415 Cl  0  0  0  0  0  0  0  0  0  0  0  0
  1  2  2  0
  2  3  1  0
  3  4  2  0
  4  5  1  0
  5  6  2  0
  4  7  1  0
  7  8  1  0
  8  9  2  0
  9 10  1  0
 10 11  2  0
 11 12  1  0
 11 13  1  0
  8 14  1  0
 14 15  2  0
 15 16  1  0
 16 17  2  0
 17 18  1  0
 18 19  2  0
 17 20  1  0
 16 21  1  0
  6  1  1  0
 12  7  2  0
 19 14  1  0
M  END
$$$$
