
     RDKit          3D

 21 23  0  0  0  0  0  0  0  0999 V2000
    0.8332    0.4286    7.1781 C   0  0  0  0  0  0  0  0  0  0  0  0
    0.8916    0.2786    8.5506 C   0  0  0  0  0  0  0  0  0  0  0  0
    1.3808    1.3318    9.3191 C   0  0  0  0  0  0  0  0  0  0  0  0
    1.8046    2.5085    8.7547 C   0  0  0  0  0  0  0  0  0  0  0  0
    1.7257    2.6077    7.3799 C   0  0  0  0  0  0  0  0  0  0  0  0
    1.2455    1.5802    6.5980 C   0  0  0  0  0  0  0  0  0  0  0  0
    2.3161    3.6017    9.5489 C   0  0  0  0  0  0  0  0  0  0  0  0
    2.0183    4.9089    9.2368 C   0  0  0  0  0  0  0  0  0  0  0  0
    2.5232    5.9288    9.9974 N   0  0  0  0  0  0  0  0  0  0  0  0
    3.2919    5.6452   11.0241 N   0  0  0  0  0  0  0  0  0  0  0  0
    3.6160    4.3843   11.3767 C   0  0  0  0  0  0  0  0  0  0  0  0
    3.1196    3.3904   10.6293 N   0  0  0  0  0  0  0  0  0  0  0  0
    4.4567    4.1425   12.5084 N   0  0  0  0  0  0  0  0  0  0  0  0
    1.1543    5.1927    8.1064 C   0  0  0  0  0  0  0  0  0  0  0  0
   -0.2100    5.0026    8.2334 C   0  0  0  0  0  0  0  0  0  0  0  0
   -1.0958    5.2553    7.2188 C   0  0  0  0  0  0  0  0  0  0  0  0
   -0.6224    5.7193    6.0124 C   0  0  0  0  0  0  0  0  0  0  0  0
    0.7459    5.9226    5.8476 C   0  0  0  0  0  0  0  0  0  0  0  0
    1.6226    5.6557    6.9022 C   0  0  0  0  0  0  0  0  0  0  0  0
   -1.4638    5.9969    4.9381 O   0  0  0  0  0  0  0  0  0  0  0  0
   -2.8097    4.9996    7.4367 Cl  0  0  0  0  0  0  0  0  0  0  0  0
  1  2  2  0
  2  3  1  0
  3  4  2  0
  4  5  1  0
  5  6  2  0
  4  7  1  0
  7  8  1  0
  8  9  2  0
  9 10  1  0
 10 11  2  0
 11 12  1  0
 11 13  1  0
  8 14  1  0
 14 15  2  0
 15 16  1  0
 16 17  2  0
 17 18  1  0
 18 19  2  0
 17 20  1  0
 16 21  1  0
  6  1  1  0
 12  7  2  0
 19 14  1  0
M  END
$$$$
