
     RDKit          3D

 21 23  0  0  0  0  0  0  0  0999 V2000
    2.6471    0.3060    6.8520 C   0  0  0  0  0  0  0  0  0  0  0  0
    3.8019    0.7060    7.4970 C   0  0  0  0  0  0  0  0  0  0  0  0
    3.7231    1.7289    8.4385 C   0  0  0  0  0  0  0  0  0  0  0  0
    2.5369    2.3481    8.7422 C   0  0  0  0  0  0  0  0  0  0  0  0
    1.4127    1.9117    8.0700 C   0  0  0  0  0  0  0  0  0  0  0  0
    1.4647    0.9017    7.1347 C   0  0  0  0  0  0  0  0  0  0  0  0
    2.4522    3.4123    9.7158 C   0  0  0  0  0  0  0  0  0  0  0  0
    1.6830    4.5300    9.4840 C   0  0  0  0  0  0  0  0  0  0  0  0
    1.6267    5.5305   10.4165 N   0  0  0  0  0  0  0  0  0  0  0  0
    2.3128    5.4106   11.5301 N   0  0  0  0  0  0  0  0  0  0  0  0
    3.0818    4.3386   11.8107 C   0  0  0  0  0  0  0  0  0  0  0  0
    3.1336    3.3629   10.8952 N   0  0  0  0  0  0  0  0  0  0  0  0
    3.8030    4.2680   13.0439 N   0  0  0  0  0  0  0  0  0  0  0  0
    0.9232    4.6294    8.2520 C   0  0  0  0  0  0  0  0  0  0  0  0
   -0.4585    4.5914    8.3047 C   0  0  0  0  0  0  0  0  0  0  0  0
   -1.2503    4.6882    7.1902 C   0  0  0  0  0  0  0  0  0  0  0  0
   -0.6590    4.8294    5.9553 C   0  0  0  0  0  0  0  0  0  0  0  0
    0.7304    4.8715    5.8633 C   0  0  0  0  0  0  0  0  0  0  0  0
    1.5091    4.7707    7.0189 C   0  0  0  0  0  0  0  0  0  0  0  0
   -1.4004    4.9333    4.7811 O   0  0  0  0  0  0  0  0  0  0  0  0
   -2.9914    4.6370    7.3168 Cl  0  0  0  0  0  0  0  0  0  0  0  0
  1  2  2  0
  2  3  1  0
  3  4  2  0
  4  5  1  0
  5  6  2  0
  4  7  1  0
  7  8  1  0
  8  9  2  0
  9 10  1  0
 10 11  2  0
 11 12  1  0
 11 13  1  0
  8 14  1  0
 14 15  2  0
 15 16  1  0
 16 17  2  0
 17 18  1  0
 18 19  2  0
 17 20  1  0
 16 21  1  0
  6  1  1  0
 12  7  2  0
 19 14  1  0
M  END
$$$$
