
     RDKit          3D

 21 23  0  0  0  0  0  0  0  0999 V2000
    1.9868    0.5382    6.4757 C   0  0  0  0  0  0  0  0  0  0  0  0
    3.2124    0.8199    7.0486 C   0  0  0  0  0  0  0  0  0  0  0  0
    3.2758    1.7785    8.0566 C   0  0  0  0  0  0  0  0  0  0  0  0
    2.1613    2.4482    8.4947 C   0  0  0  0  0  0  0  0  0  0  0  0
    0.9616    2.1302    7.8900 C   0  0  0  0  0  0  0  0  0  0  0  0
    0.8728    1.1857    6.8911 C   0  0  0  0  0  0  0  0  0  0  0  0
    2.2243    3.4461    9.5377 C   0  0  0  0  0  0  0  0  0  0  0  0
    1.4362    4.5737    9.4929 C   0  0  0  0  0  0  0  0  0  0  0  0
    1.5209    5.5108   10.4871 N   0  0  0  0  0  0  0  0  0  0  0  0
    2.3600    5.3208   11.4796 N   0  0  0  0  0  0  0  0  0  0  0  0
    3.1551    4.2356   11.5756 C   0  0  0  0  0  0  0  0  0  0  0  0
    3.0685    3.3221   10.6005 N   0  0  0  0  0  0  0  0  0  0  0  0
    4.0465    4.0872   12.6844 N   0  0  0  0  0  0  0  0  0  0  0  0
    0.5070    4.7507    8.3928 C   0  0  0  0  0  0  0  0  0  0  0  0
    0.9868    4.7483    7.0954 C   0  0  0  0  0  0  0  0  0  0  0  0
    0.1766    4.8996    6.0004 C   0  0  0  0  0  0  0  0  0  0  0  0
   -1.1778    5.0630    6.1832 C   0  0  0  0  0  0  0  0  0  0  0  0
   -1.6971    5.0709    7.4759 C   0  0  0  0  0  0  0  0  0  0  0  0
   -0.8441    4.9136    8.5711 C   0  0  0  0  0  0  0  0  0  0  0  0
   -2.0602    5.2225    5.1178 O   0  0  0  0  0  0  0  0  0  0  0  0
    0.8375    4.8856    4.3838 Cl  0  0  0  0  0  0  0  0  0  0  0  0
  1  2  2  0
  2  3  1  0
  3  4  2  0
  4  5  1  0
  5  6  2  0
  4  7  1  0
  7  8  1  0
  8  9  2  0
  9 10  1  0
 10 11  2  0
 11 12  1  0
 11 13  1  0
  8 14  1  0
 14 15  2  0
 15 16  1  0
 16 17  2  0
 17 18  1  0
 18 19  2  0
 17 20  1  0
 16 21  1  0
  6  1  1  0
 12  7  2  0
 19 14  1  0
M  END
$$$$
