
     RDKit          3D

 21 23  0  0  0  0  0  0  0  0999 V2000
    2.3652    0.5865    6.5131 C   0  0  0  0  0  0  0  0  0  0  0  0
    3.5624    0.7909    7.1724 C   0  0  0  0  0  0  0  0  0  0  0  0
    3.6146    1.7448    8.1854 C   0  0  0  0  0  0  0  0  0  0  0  0
    2.5163    2.4842    8.5456 C   0  0  0  0  0  0  0  0  0  0  0  0
    1.3449    2.2420    7.8563 C   0  0  0  0  0  0  0  0  0  0  0  0
    1.2677    1.3038    6.8506 C   0  0  0  0  0  0  0  0  0  0  0  0
    2.5681    3.4774    9.5937 C   0  0  0  0  0  0  0  0  0  0  0  0
    1.7536    4.5867    9.5644 C   0  0  0  0  0  0  0  0  0  0  0  0
    1.8279    5.5199   10.5630 N   0  0  0  0  0  0  0  0  0  0  0  0
    2.6823    5.3438   11.5450 N   0  0  0  0  0  0  0  0  0  0  0  0
    3.5034    4.2768   11.6257 C   0  0  0  0  0  0  0  0  0  0  0  0
    3.4269    3.3671   10.6462 N   0  0  0  0  0  0  0  0  0  0  0  0
    4.4105    4.1428   12.7235 N   0  0  0  0  0  0  0  0  0  0  0  0
    0.8082    4.7483    8.4758 C   0  0  0  0  0  0  0  0  0  0  0  0
    1.2723    4.7571    7.1727 C   0  0  0  0  0  0  0  0  0  0  0  0
    0.4464    4.8952    6.0879 C   0  0  0  0  0  0  0  0  0  0  0  0
   -0.9086    5.0331    6.2872 C   0  0  0  0  0  0  0  0  0  0  0  0
   -1.4124    5.0290    7.5860 C   0  0  0  0  0  0  0  0  0  0  0  0
   -0.5435    4.8856    8.6706 C   0  0  0  0  0  0  0  0  0  0  0  0
   -1.8065    5.1779    5.2327 O   0  0  0  0  0  0  0  0  0  0  0  0
    1.0880    4.8964    4.4635 Cl  0  0  0  0  0  0  0  0  0  0  0  0
  1  2  2  0
  2  3  1  0
  3  4  2  0
  4  5  1  0
  5  6  2  0
  4  7  1  0
  7  8  1  0
  8  9  2  0
  9 10  1  0
 10 11  2  0
 11 12  1  0
 11 13  1  0
  8 14  1  0
 14 15  2  0
 15 16  1  0
 16 17  2  0
 17 18  1  0
 18 19  2  0
 17 20  1  0
 16 21  1  0
  6  1  1  0
 12  7  2  0
 19 14  1  0
M  END
$$$$
