
     RDKit          3D

 21 23  0  0  0  0  0  0  0  0999 V2000
    2.2255    0.5806    6.3557 C   0  0  0  0  0  0  0  0  0  0  0  0
    3.4506    0.8963    6.9118 C   0  0  0  0  0  0  0  0  0  0  0  0
    3.4977    1.8346    7.9395 C   0  0  0  0  0  0  0  0  0  0  0  0
    2.3675    2.4517    8.4134 C   0  0  0  0  0  0  0  0  0  0  0  0
    1.1690    2.1014    7.8244 C   0  0  0  0  0  0  0  0  0  0  0  0
    1.0963    1.1761    6.8065 C   0  0  0  0  0  0  0  0  0  0  0  0
    2.4134    3.4284    9.4771 C   0  0  0  0  0  0  0  0  0  0  0  0
    1.6423    4.5677    9.4315 C   0  0  0  0  0  0  0  0  0  0  0  0
    1.7104    5.4843   10.4458 N   0  0  0  0  0  0  0  0  0  0  0  0
    2.5173    5.2635   11.4585 N   0  0  0  0  0  0  0  0  0  0  0  0
    3.2945    4.1655   11.5564 C   0  0  0  0  0  0  0  0  0  0  0  0
    3.2241    3.2722   10.5615 N   0  0  0  0  0  0  0  0  0  0  0  0
    4.1507    3.9832   12.6876 N   0  0  0  0  0  0  0  0  0  0  0  0
    0.7484    4.7789    8.3084 C   0  0  0  0  0  0  0  0  0  0  0  0
    1.2612    4.7640    7.0238 C   0  0  0  0  0  0  0  0  0  0  0  0
    0.4852    4.9456    5.9089 C   0  0  0  0  0  0  0  0  0  0  0  0
   -0.8673    5.1538    6.0573 C   0  0  0  0  0  0  0  0  0  0  0  0
   -1.4194    5.1754    7.3361 C   0  0  0  0  0  0  0  0  0  0  0  0
   -0.6007    4.9864    8.4524 C   0  0  0  0  0  0  0  0  0  0  0  0
   -1.7160    5.3457    4.9701 O   0  0  0  0  0  0  0  0  0  0  0  0
    1.1869    4.9140    4.3098 Cl  0  0  0  0  0  0  0  0  0  0  0  0
  1  2  2  0
  2  3  1  0
  3  4  2  0
  4  5  1  0
  5  6  2  0
  4  7  1  0
  7  8  1  0
  8  9  2  0
  9 10  1  0
 10 11  2  0
 11 12  1  0
 11 13  1  0
  8 14  1  0
 14 15  2  0
 15 16  1  0
 16 17  2  0
 17 18  1  0
 18 19  2  0
 17 20  1  0
 16 21  1  0
  6  1  1  0
 12  7  2  0
 19 14  1  0
M  END
$$$$
