
     RDKit          3D

 21 23  0  0  0  0  0  0  0  0999 V2000
    3.1562    0.2936    6.9321 C   0  0  0  0  0  0  0  0  0  0  0  0
    2.4230    1.3959    6.5361 C   0  0  0  0  0  0  0  0  0  0  0  0
    2.2799    2.4591    7.4239 C   0  0  0  0  0  0  0  0  0  0  0  0
    2.8434    2.4431    8.6748 C   0  0  0  0  0  0  0  0  0  0  0  0
    3.5658    1.3189    9.0218 C   0  0  0  0  0  0  0  0  0  0  0  0
    3.7219    0.2544    8.1615 C   0  0  0  0  0  0  0  0  0  0  0  0
    2.6937    3.5429    9.5997 C   0  0  0  0  0  0  0  0  0  0  0  0
    1.7019    4.4829    9.4338 C   0  0  0  0  0  0  0  0  0  0  0  0
    1.5861    5.5224   10.3167 N   0  0  0  0  0  0  0  0  0  0  0  0
    2.4296    5.6108   11.3197 N   0  0  0  0  0  0  0  0  0  0  0  0
    3.4192    4.7192   11.5318 C   0  0  0  0  0  0  0  0  0  0  0  0
    3.5282    3.7044   10.6651 N   0  0  0  0  0  0  0  0  0  0  0  0
    4.3040    4.8711   12.6454 N   0  0  0  0  0  0  0  0  0  0  0  0
    0.7743    4.3524    8.3258 C   0  0  0  0  0  0  0  0  0  0  0  0
    1.0981    4.9125    7.1031 C   0  0  0  0  0  0  0  0  0  0  0  0
    0.2834    4.8270    6.0045 C   0  0  0  0  0  0  0  0  0  0  0  0
   -0.9149    4.1574    6.1061 C   0  0  0  0  0  0  0  0  0  0  0  0
   -1.2746    3.5805    7.3220 C   0  0  0  0  0  0  0  0  0  0  0  0
   -0.4211    3.6852    8.4232 C   0  0  0  0  0  0  0  0  0  0  0  0
   -1.7921    4.0312    5.0320 O   0  0  0  0  0  0  0  0  0  0  0  0
    0.7451    5.5516    4.4839 Cl  0  0  0  0  0  0  0  0  0  0  0  0
  1  2  2  0
  2  3  1  0
  3  4  2  0
  4  5  1  0
  5  6  2  0
  4  7  1  0
  7  8  1  0
  8  9  2  0
  9 10  1  0
 10 11  2  0
 11 12  1  0
 11 13  1  0
  8 14  1  0
 14 15  2  0
 15 16  1  0
 16 17  2  0
 17 18  1  0
 18 19  2  0
 17 20  1  0
 16 21  1  0
  6  1  1  0
 12  7  2  0
 19 14  1  0
M  END
$$$$
