
     RDKit          3D

 21 23  0  0  0  0  0  0  0  0999 V2000
    2.5014    0.2463    6.4989 C   0  0  0  0  0  0  0  0  0  0  0  0
    1.3632    0.9856    6.7589 C   0  0  0  0  0  0  0  0  0  0  0  0
    1.4089    1.9573    7.7553 C   0  0  0  0  0  0  0  0  0  0  0  0
    2.5466    2.2001    8.4828 C   0  0  0  0  0  0  0  0  0  0  0  0
    3.6561    1.4346    8.1843 C   0  0  0  0  0  0  0  0  0  0  0  0
    3.6361    0.4676    7.2034 C   0  0  0  0  0  0  0  0  0  0  0  0
    2.5963    3.2050    9.5198 C   0  0  0  0  0  0  0  0  0  0  0  0
    1.9598    4.4161    9.3689 C   0  0  0  0  0  0  0  0  0  0  0  0
    2.0297    5.3570   10.3605 N   0  0  0  0  0  0  0  0  0  0  0  0
    2.7088    5.0905   11.4528 N   0  0  0  0  0  0  0  0  0  0  0  0
    3.3509    3.9217   11.6552 C   0  0  0  0  0  0  0  0  0  0  0  0
    3.2794    3.0048   10.6820 N   0  0  0  0  0  0  0  0  0  0  0  0
    4.0718    3.6927   12.8692 N   0  0  0  0  0  0  0  0  0  0  0  0
    1.2039    4.6781    8.1585 C   0  0  0  0  0  0  0  0  0  0  0  0
   -0.1264    5.0441    8.2577 C   0  0  0  0  0  0  0  0  0  0  0  0
   -0.9080    5.3179    7.1659 C   0  0  0  0  0  0  0  0  0  0  0  0
   -0.3595    5.2287    5.9066 C   0  0  0  0  0  0  0  0  0  0  0  0
    0.9774    4.8626    5.7676 C   0  0  0  0  0  0  0  0  0  0  0  0
    1.7474    4.5905    6.9012 C   0  0  0  0  0  0  0  0  0  0  0  0
   -1.0937    5.4921    4.7530 O   0  0  0  0  0  0  0  0  0  0  0  0
   -2.5824    5.7786    7.3513 Cl  0  0  0  0  0  0  0  0  0  0  0  0
  1  2  2  0
  2  3  1  0
  3  4  2  0
  4  5  1  0
  5  6  2  0
  4  7  1  0
  7  8  1  0
  8  9  2  0
  9 10  1  0
 10 11  2  0
 11 12  1  0
 11 13  1  0
  8 14  1  0
 14 15  2  0
 15 16  1  0
 16 17  2  0
 17 18  1  0
 18 19  2  0
 17 20  1  0
 16 21  1  0
  6  1  1  0
 12  7  2  0
 19 14  1  0
M  END
$$$$
