
     RDKit          3D

 21 23  0  0  0  0  0  0  0  0999 V2000
    1.9587    0.9841    6.6160 C   0  0  0  0  0  0  0  0  0  0  0  0
    1.8005    2.3462    6.4444 C   0  0  0  0  0  0  0  0  0  0  0  0
    2.0279    3.1888    7.5294 C   0  0  0  0  0  0  0  0  0  0  0  0
    2.4027    2.7071    8.7583 C   0  0  0  0  0  0  0  0  0  0  0  0
    2.5470    1.3393    8.8774 C   0  0  0  0  0  0  0  0  0  0  0  0
    2.3279    0.4850    7.8191 C   0  0  0  0  0  0  0  0  0  0  0  0
    2.6358    3.5784    9.8871 C   0  0  0  0  0  0  0  0  0  0  0  0
    1.8883    4.7193   10.0724 C   0  0  0  0  0  0  0  0  0  0  0  0
    2.1345    5.5353   11.1435 N   0  0  0  0  0  0  0  0  0  0  0  0
    3.0887    5.2169   11.9881 N   0  0  0  0  0  0  0  0  0  0  0  0
    3.8513    4.1122   11.8570 C   0  0  0  0  0  0  0  0  0  0  0  0
    3.6066    3.3175   10.8075 N   0  0  0  0  0  0  0  0  0  0  0  0
    4.8740    3.8208   12.8137 N   0  0  0  0  0  0  0  0  0  0  0  0
    0.8304    5.0387    9.1324 C   0  0  0  0  0  0  0  0  0  0  0  0
   -0.1370    4.0898    8.8548 C   0  0  0  0  0  0  0  0  0  0  0  0
   -1.1742    4.3137    7.9875 C   0  0  0  0  0  0  0  0  0  0  0  0
   -1.2714    5.5327    7.3557 C   0  0  0  0  0  0  0  0  0  0  0  0
   -0.3150    6.5130    7.6105 C   0  0  0  0  0  0  0  0  0  0  0  0
    0.7299    6.2531    8.5008 C   0  0  0  0  0  0  0  0  0  0  0  0
   -2.2976    5.8300    6.4625 O   0  0  0  0  0  0  0  0  0  0  0  0
   -2.3696    3.0788    7.6770 Cl  0  0  0  0  0  0  0  0  0  0  0  0
  1  2  2  0
  2  3  1  0
  3  4  2  0
  4  5  1  0
  5  6  2  0
  4  7  1  0
  7  8  1  0
  8  9  2  0
  9 10  1  0
 10 11  2  0
 11 12  1  0
 11 13  1  0
  8 14  1  0
 14 15  2  0
 15 16  1  0
 16 17  2  0
 17 18  1  0
 18 19  2  0
 17 20  1  0
 16 21  1  0
  6  1  1  0
 12  7  2  0
 19 14  1  0
M  END
$$$$
