
     RDKit          3D

 21 23  0  0  0  0  0  0  0  0999 V2000
    2.4052    0.8157    6.9245 C   0  0  0  0  0  0  0  0  0  0  0  0
    1.9079    2.0934    6.7514 C   0  0  0  0  0  0  0  0  0  0  0  0
    1.9766    2.9886    7.8157 C   0  0  0  0  0  0  0  0  0  0  0  0
    2.5214    2.6396    9.0257 C   0  0  0  0  0  0  0  0  0  0  0  0
    3.0040    1.3518    9.1472 C   0  0  0  0  0  0  0  0  0  0  0  0
    2.9476    0.4479    8.1092 C   0  0  0  0  0  0  0  0  0  0  0  0
    2.5908    3.5650   10.1332 C   0  0  0  0  0  0  0  0  0  0  0  0
    1.6818    4.5905   10.2623 C   0  0  0  0  0  0  0  0  0  0  0  0
    1.7739    5.4616   11.3142 N   0  0  0  0  0  0  0  0  0  0  0  0
    2.7363    5.3067   12.1946 N   0  0  0  0  0  0  0  0  0  0  0  0
    3.6533    4.3205   12.1189 C   0  0  0  0  0  0  0  0  0  0  0  0
    3.5588    3.4713   11.0880 N   0  0  0  0  0  0  0  0  0  0  0  0
    4.6759    4.2052   13.1124 N   0  0  0  0  0  0  0  0  0  0  0  0
    0.6197    4.7290    9.2837 C   0  0  0  0  0  0  0  0  0  0  0  0
   -0.1932    3.6439    9.0096 C   0  0  0  0  0  0  0  0  0  0  0  0
   -1.2234    3.6928    8.1073 C   0  0  0  0  0  0  0  0  0  0  0  0
   -1.4732    4.8675    7.4347 C   0  0  0  0  0  0  0  0  0  0  0  0
   -0.6750    5.9815    7.6847 C   0  0  0  0  0  0  0  0  0  0  0  0
    0.3673    5.8987    8.6113 C   0  0  0  0  0  0  0  0  0  0  0  0
   -2.5022    4.9898    6.5044 O   0  0  0  0  0  0  0  0  0  0  0  0
   -2.2200    2.2911    7.8032 Cl  0  0  0  0  0  0  0  0  0  0  0  0
  1  2  2  0
  2  3  1  0
  3  4  2  0
  4  5  1  0
  5  6  2  0
  4  7  1  0
  7  8  1  0
  8  9  2  0
  9 10  1  0
 10 11  2  0
 11 12  1  0
 11 13  1  0
  8 14  1  0
 14 15  2  0
 15 16  1  0
 16 17  2  0
 17 18  1  0
 18 19  2  0
 17 20  1  0
 16 21  1  0
  6  1  1  0
 12  7  2  0
 19 14  1  0
M  END
$$$$
