
     RDKit          3D

 21 23  0  0  0  0  0  0  0  0999 V2000
    2.3252    0.3023    6.4875 C   0  0  0  0  0  0  0  0  0  0  0  0
    3.5093    0.6133    7.1285 C   0  0  0  0  0  0  0  0  0  0  0  0
    3.4934    1.5761    8.1343 C   0  0  0  0  0  0  0  0  0  0  0  0
    2.3409    2.2219    8.5049 C   0  0  0  0  0  0  0  0  0  0  0  0
    1.1853    1.8751    7.8338 C   0  0  0  0  0  0  0  0  0  0  0  0
    1.1751    0.9259    6.8356 C   0  0  0  0  0  0  0  0  0  0  0  0
    2.3217    3.2240    9.5455 C   0  0  0  0  0  0  0  0  0  0  0  0
    1.6273    4.4019    9.3871 C   0  0  0  0  0  0  0  0  0  0  0  0
    1.6324    5.3415   10.3825 N   0  0  0  0  0  0  0  0  0  0  0  0
    2.3052    5.1055   11.4856 N   0  0  0  0  0  0  0  0  0  0  0  0
    3.0021    3.9700   11.6958 C   0  0  0  0  0  0  0  0  0  0  0  0
    2.9940    3.0543   10.7189 N   0  0  0  0  0  0  0  0  0  0  0  0
    3.7127    3.7731   12.9215 N   0  0  0  0  0  0  0  0  0  0  0  0
    0.8801    4.6299    8.1645 C   0  0  0  0  0  0  0  0  0  0  0  0
   -0.4366    5.0461    8.2442 C   0  0  0  0  0  0  0  0  0  0  0  0
   -1.2091    5.2926    7.1394 C   0  0  0  0  0  0  0  0  0  0  0  0
   -0.6649    5.1225    5.8866 C   0  0  0  0  0  0  0  0  0  0  0  0
    0.6585    4.7040    5.7672 C   0  0  0  0  0  0  0  0  0  0  0  0
    1.4194    4.4617    6.9136 C   0  0  0  0  0  0  0  0  0  0  0  0
   -1.3904    5.3539    4.7207 O   0  0  0  0  0  0  0  0  0  0  0  0
   -2.8665    5.8195    7.3002 Cl  0  0  0  0  0  0  0  0  0  0  0  0
  1  2  2  0
  2  3  1  0
  3  4  2  0
  4  5  1  0
  5  6  2  0
  4  7  1  0
  7  8  1  0
  8  9  2  0
  9 10  1  0
 10 11  2  0
 11 12  1  0
 11 13  1  0
  8 14  1  0
 14 15  2  0
 15 16  1  0
 16 17  2  0
 17 18  1  0
 18 19  2  0
 17 20  1  0
 16 21  1  0
  6  1  1  0
 12  7  2  0
 19 14  1  0
M  END
$$$$
