
     RDKit          3D

 21 23  0  0  0  0  0  0  0  0999 V2000
    2.0962    0.3796    6.5089 C   0  0  0  0  0  0  0  0  0  0  0  0
    3.3153    0.6137    7.1159 C   0  0  0  0  0  0  0  0  0  0  0  0
    3.3872    1.5673    8.1281 C   0  0  0  0  0  0  0  0  0  0  0  0
    2.2871    2.2777    8.5376 C   0  0  0  0  0  0  0  0  0  0  0  0
    1.0933    2.0064    7.8994 C   0  0  0  0  0  0  0  0  0  0  0  0
    0.9964    1.0679    6.8957 C   0  0  0  0  0  0  0  0  0  0  0  0
    2.3591    3.2705    9.5849 C   0  0  0  0  0  0  0  0  0  0  0  0
    1.6068    4.4218    9.5277 C   0  0  0  0  0  0  0  0  0  0  0  0
    1.6996    5.3532   10.5264 N   0  0  0  0  0  0  0  0  0  0  0  0
    2.5119    5.1351   11.5353 N   0  0  0  0  0  0  0  0  0  0  0  0
    3.2715    4.0259   11.6440 C   0  0  0  0  0  0  0  0  0  0  0  0
    3.1771    3.1180   10.6643 N   0  0  0  0  0  0  0  0  0  0  0  0
    4.1350    3.8474   12.7703 N   0  0  0  0  0  0  0  0  0  0  0  0
    0.7062    4.6299    8.4094 C   0  0  0  0  0  0  0  0  0  0  0  0
    1.2136    4.6254    7.1225 C   0  0  0  0  0  0  0  0  0  0  0  0
    0.4313    4.8049    6.0118 C   0  0  0  0  0  0  0  0  0  0  0  0
   -0.9224    5.0003    6.1669 C   0  0  0  0  0  0  0  0  0  0  0  0
   -1.4692    5.0113    7.4481 C   0  0  0  0  0  0  0  0  0  0  0  0
   -0.6440    4.8247    8.5600 C   0  0  0  0  0  0  0  0  0  0  0  0
   -1.7774    5.1895    5.0841 O   0  0  0  0  0  0  0  0  0  0  0  0
    1.1264    4.7867    4.4096 Cl  0  0  0  0  0  0  0  0  0  0  0  0
  1  2  2  0
  2  3  1  0
  3  4  2  0
  4  5  1  0
  5  6  2  0
  4  7  1  0
  7  8  1  0
  8  9  2  0
  9 10  1  0
 10 11  2  0
 11 12  1  0
 11 13  1  0
  8 14  1  0
 14 15  2  0
 15 16  1  0
 16 17  2  0
 17 18  1  0
 18 19  2  0
 17 20  1  0
 16 21  1  0
  6  1  1  0
 12  7  2  0
 19 14  1  0
M  END
$$$$
