
     RDKit          3D

 21 23  0  0  0  0  0  0  0  0999 V2000
    0.3703    5.8885    5.6275 C   0  0  0  0  0  0  0  0  0  0  0  0
   -0.3372    4.9882    6.4012 C   0  0  0  0  0  0  0  0  0  0  0  0
    0.1424    4.6742    7.6702 C   0  0  0  0  0  0  0  0  0  0  0  0
    1.2920    5.2306    8.1716 C   0  0  0  0  0  0  0  0  0  0  0  0
    1.9615    6.1238    7.3591 C   0  0  0  0  0  0  0  0  0  0  0  0
    1.5074    6.4508    6.1004 C   0  0  0  0  0  0  0  0  0  0  0  0
    1.7943    4.9040    9.4864 C   0  0  0  0  0  0  0  0  0  0  0  0
    2.0643    3.6021    9.8425 C   0  0  0  0  0  0  0  0  0  0  0  0
    2.5293    3.3156   11.0976 N   0  0  0  0  0  0  0  0  0  0  0  0
    2.7138    4.2946   11.9537 N   0  0  0  0  0  0  0  0  0  0  0  0
    2.4671    5.5877   11.6596 C   0  0  0  0  0  0  0  0  0  0  0  0
    2.0122    5.8624   10.4306 N   0  0  0  0  0  0  0  0  0  0  0  0
    2.6912    6.6077   12.6370 N   0  0  0  0  0  0  0  0  0  0  0  0
    1.8660    2.5420    8.8720 C   0  0  0  0  0  0  0  0  0  0  0  0
    0.7620    2.5849    8.0396 C   0  0  0  0  0  0  0  0  0  0  0  0
    0.5059    1.6299    7.0907 C   0  0  0  0  0  0  0  0  0  0  0  0
    1.3767    0.5736    6.9474 C   0  0  0  0  0  0  0  0  0  0  0  0
    2.4994    0.4969    7.7684 C   0  0  0  0  0  0  0  0  0  0  0  0
    2.7321    1.4874    8.7259 C   0  0  0  0  0  0  0  0  0  0  0  0
    1.1796   -0.4327    6.0051 O   0  0  0  0  0  0  0  0  0  0  0  0
   -0.9033    1.7368    6.0645 Cl  0  0  0  0  0  0  0  0  0  0  0  0
  1  2  2  0
  2  3  1  0
  3  4  2  0
  4  5  1  0
  5  6  2  0
  4  7  1  0
  7  8  1  0
  8  9  2  0
  9 10  1  0
 10 11  2  0
 11 12  1  0
 11 13  1  0
  8 14  1  0
 14 15  2  0
 15 16  1  0
 16 17  2  0
 17 18  1  0
 18 19  2  0
 17 20  1  0
 16 21  1  0
  6  1  1  0
 12  7  2  0
 19 14  1  0
M  END
$$$$
