
     RDKit          3D

 21 23  0  0  0  0  0  0  0  0999 V2000
    2.8388    0.3730    6.3445 C   0  0  0  0  0  0  0  0  0  0  0  0
    1.6532    1.0245    6.6267 C   0  0  0  0  0  0  0  0  0  0  0  0
    1.6416    1.9884    7.6314 C   0  0  0  0  0  0  0  0  0  0  0  0
    2.7685    2.3081    8.3459 C   0  0  0  0  0  0  0  0  0  0  0  0
    3.9268    1.6287    8.0254 C   0  0  0  0  0  0  0  0  0  0  0  0
    3.9641    0.6712    7.0357 C   0  0  0  0  0  0  0  0  0  0  0  0
    2.7589    3.3051    9.3916 C   0  0  0  0  0  0  0  0  0  0  0  0
    2.0712    4.4880    9.2414 C   0  0  0  0  0  0  0  0  0  0  0  0
    2.0854    5.4225   10.2414 N   0  0  0  0  0  0  0  0  0  0  0  0
    2.7604    5.1769   11.3411 N   0  0  0  0  0  0  0  0  0  0  0  0
    3.4510    4.0361   11.5433 C   0  0  0  0  0  0  0  0  0  0  0  0
    3.4340    3.1254   10.5618 N   0  0  0  0  0  0  0  0  0  0  0  0
    4.1644    3.8287   12.7656 N   0  0  0  0  0  0  0  0  0  0  0  0
    1.3214    4.7267    8.0224 C   0  0  0  0  0  0  0  0  0  0  0  0
   -0.0081    5.0986    8.1081 C   0  0  0  0  0  0  0  0  0  0  0  0
   -0.7842    5.3517    7.0073 C   0  0  0  0  0  0  0  0  0  0  0  0
   -0.2306    5.2343    5.7526 C   0  0  0  0  0  0  0  0  0  0  0  0
    1.1058    4.8615    5.6272 C   0  0  0  0  0  0  0  0  0  0  0  0
    1.8701    4.6110    6.7697 C   0  0  0  0  0  0  0  0  0  0  0  0
   -0.9590    5.4756    4.5906 O   0  0  0  0  0  0  0  0  0  0  0  0
   -2.4580    5.8211    7.1756 Cl  0  0  0  0  0  0  0  0  0  0  0  0
  1  2  2  0
  2  3  1  0
  3  4  2  0
  4  5  1  0
  5  6  2  0
  4  7  1  0
  7  8  1  0
  8  9  2  0
  9 10  1  0
 10 11  2  0
 11 12  1  0
 11 13  1  0
  8 14  1  0
 14 15  2  0
 15 16  1  0
 16 17  2  0
 17 18  1  0
 18 19  2  0
 17 20  1  0
 16 21  1  0
  6  1  1  0
 12  7  2  0
 19 14  1  0
M  END
$$$$
