
     RDKit          3D

 21 23  0  0  0  0  0  0  0  0999 V2000
    3.1611    0.4605    6.8812 C   0  0  0  0  0  0  0  0  0  0  0  0
    3.3969    0.2309    8.2233 C   0  0  0  0  0  0  0  0  0  0  0  0
    3.2546    1.2878    9.1187 C   0  0  0  0  0  0  0  0  0  0  0  0
    2.8888    2.5448    8.7079 C   0  0  0  0  0  0  0  0  0  0  0  0
    2.6649    2.7218    7.3571 C   0  0  0  0  0  0  0  0  0  0  0  0
    2.7989    1.6923    6.4517 C   0  0  0  0  0  0  0  0  0  0  0  0
    2.7438    3.6445    9.6338 C   0  0  0  0  0  0  0  0  0  0  0  0
    1.7484    4.5819    9.4758 C   0  0  0  0  0  0  0  0  0  0  0  0
    1.6372    5.6213   10.3596 N   0  0  0  0  0  0  0  0  0  0  0  0
    2.4886    5.7119   11.3556 N   0  0  0  0  0  0  0  0  0  0  0  0
    3.4821    4.8228   11.5598 C   0  0  0  0  0  0  0  0  0  0  0  0
    3.5866    3.8082   10.6924 N   0  0  0  0  0  0  0  0  0  0  0  0
    4.3755    4.9771   12.6661 N   0  0  0  0  0  0  0  0  0  0  0  0
    0.8122    4.4489    8.3754 C   0  0  0  0  0  0  0  0  0  0  0  0
    0.6857    5.4837    7.4662 C   0  0  0  0  0  0  0  0  0  0  0  0
   -0.1673    5.4349    6.3947 C   0  0  0  0  0  0  0  0  0  0  0  0
   -0.9404    4.3126    6.2010 C   0  0  0  0  0  0  0  0  0  0  0  0
   -0.8400    3.2504    7.0966 C   0  0  0  0  0  0  0  0  0  0  0  0
    0.0400    3.3314    8.1787 C   0  0  0  0  0  0  0  0  0  0  0  0
   -1.8284    4.1938    5.1349 O   0  0  0  0  0  0  0  0  0  0  0  0
   -0.2836    6.7712    5.2762 Cl  0  0  0  0  0  0  0  0  0  0  0  0
  1  2  2  0
  2  3  1  0
  3  4  2  0
  4  5  1  0
  5  6  2  0
  4  7  1  0
  7  8  1  0
  8  9  2  0
  9 10  1  0
 10 11  2  0
 11 12  1  0
 11 13  1  0
  8 14  1  0
 14 15  2  0
 15 16  1  0
 16 17  2  0
 17 18  1  0
 18 19  2  0
 17 20  1  0
 16 21  1  0
  6  1  1  0
 12  7  2  0
 19 14  1  0
M  END
$$$$
