
     RDKit          3D

 21 23  0  0  0  0  0  0  0  0999 V2000
    3.4016    0.4038    6.9584 C   0  0  0  0  0  0  0  0  0  0  0  0
    3.1454    1.6654    6.4559 C   0  0  0  0  0  0  0  0  0  0  0  0
    2.8955    2.7040    7.3491 C   0  0  0  0  0  0  0  0  0  0  0  0
    2.8962    2.5110    8.7076 C   0  0  0  0  0  0  0  0  0  0  0  0
    3.1575    1.2325    9.1583 C   0  0  0  0  0  0  0  0  0  0  0  0
    3.4078    0.1886    8.2950 C   0  0  0  0  0  0  0  0  0  0  0  0
    2.6336    3.5857    9.6369 C   0  0  0  0  0  0  0  0  0  0  0  0
    1.6892    4.5489    9.3633 C   0  0  0  0  0  0  0  0  0  0  0  0
    1.4652    5.5638   10.2540 N   0  0  0  0  0  0  0  0  0  0  0  0
    2.1598    5.6063   11.3680 N   0  0  0  0  0  0  0  0  0  0  0  0
    3.0963    4.6901   11.6886 C   0  0  0  0  0  0  0  0  0  0  0  0
    3.3116    3.6995   10.8137 N   0  0  0  0  0  0  0  0  0  0  0  0
    3.8171    4.7919   12.9198 N   0  0  0  0  0  0  0  0  0  0  0  0
    0.9255    4.4691    8.1322 C   0  0  0  0  0  0  0  0  0  0  0  0
    0.3472    3.2652    7.7720 C   0  0  0  0  0  0  0  0  0  0  0  0
   -0.3966    3.1068    6.6320 C   0  0  0  0  0  0  0  0  0  0  0  0
   -0.5856    4.1845    5.7969 C   0  0  0  0  0  0  0  0  0  0  0  0
   -0.0179    5.4130    6.1271 C   0  0  0  0  0  0  0  0  0  0  0  0
    0.7347    5.5415    7.2972 C   0  0  0  0  0  0  0  0  0  0  0  0
   -1.3289    4.0967    4.6226 O   0  0  0  0  0  0  0  0  0  0  0  0
   -1.1063    1.5628    6.2285 Cl  0  0  0  0  0  0  0  0  0  0  0  0
  1  2  2  0
  2  3  1  0
  3  4  2  0
  4  5  1  0
  5  6  2  0
  4  7  1  0
  7  8  1  0
  8  9  2  0
  9 10  1  0
 10 11  2  0
 11 12  1  0
 11 13  1  0
  8 14  1  0
 14 15  2  0
 15 16  1  0
 16 17  2  0
 17 18  1  0
 18 19  2  0
 17 20  1  0
 16 21  1  0
  6  1  1  0
 12  7  2  0
 19 14  1  0
M  END
$$$$
