
     RDKit          3D

 21 23  0  0  0  0  0  0  0  0999 V2000
    2.1575    0.3033    6.4581 C   0  0  0  0  0  0  0  0  0  0  0  0
    1.0092    0.9485    6.8763 C   0  0  0  0  0  0  0  0  0  0  0  0
    1.1102    1.9183    7.8703 C   0  0  0  0  0  0  0  0  0  0  0  0
    2.3118    2.2497    8.4438 C   0  0  0  0  0  0  0  0  0  0  0  0
    3.4287    1.5762    7.9910 C   0  0  0  0  0  0  0  0  0  0  0  0
    3.3548    0.6130    7.0089 C   0  0  0  0  0  0  0  0  0  0  0  0
    2.4195    3.2528    9.4780 C   0  0  0  0  0  0  0  0  0  0  0  0
    1.6730    4.4083    9.4299 C   0  0  0  0  0  0  0  0  0  0  0  0
    1.7998    5.3495   10.4157 N   0  0  0  0  0  0  0  0  0  0  0  0
    2.6390    5.1367   11.4034 N   0  0  0  0  0  0  0  0  0  0  0  0
    3.3946    4.0238   11.5024 C   0  0  0  0  0  0  0  0  0  0  0  0
    3.2669    3.1064   10.5355 N   0  0  0  0  0  0  0  0  0  0  0  0
    4.2885    3.8516   12.6056 N   0  0  0  0  0  0  0  0  0  0  0  0
    0.7424    4.6105    8.3354 C   0  0  0  0  0  0  0  0  0  0  0  0
    1.2262    4.6872    7.0417 C   0  0  0  0  0  0  0  0  0  0  0  0
    0.4153    4.8672    5.9517 C   0  0  0  0  0  0  0  0  0  0  0  0
   -0.9442    4.9792    6.1358 C   0  0  0  0  0  0  0  0  0  0  0  0
   -1.4677    4.9069    7.4247 C   0  0  0  0  0  0  0  0  0  0  0  0
   -0.6138    4.7222    8.5149 C   0  0  0  0  0  0  0  0  0  0  0  0
   -1.8276    5.1636    5.0753 O   0  0  0  0  0  0  0  0  0  0  0  0
    1.0816    4.9538    4.3396 Cl  0  0  0  0  0  0  0  0  0  0  0  0
  1  2  2  0
  2  3  1  0
  3  4  2  0
  4  5  1  0
  5  6  2  0
  4  7  1  0
  7  8  1  0
  8  9  2  0
  9 10  1  0
 10 11  2  0
 11 12  1  0
 11 13  1  0
  8 14  1  0
 14 15  2  0
 15 16  1  0
 16 17  2  0
 17 18  1  0
 18 19  2  0
 17 20  1  0
 16 21  1  0
  6  1  1  0
 12  7  2  0
 19 14  1  0
M  END
$$$$
