
     RDKit          3D

 21 23  0  0  0  0  0  0  0  0999 V2000
    2.4447    0.3076    6.6478 C   0  0  0  0  0  0  0  0  0  0  0  0
    2.4218    1.6140    6.1979 C   0  0  0  0  0  0  0  0  0  0  0  0
    2.4253    2.6447    7.1341 C   0  0  0  0  0  0  0  0  0  0  0  0
    2.4506    2.4011    8.4842 C   0  0  0  0  0  0  0  0  0  0  0  0
    2.4728    1.0791    8.8816 C   0  0  0  0  0  0  0  0  0  0  0  0
    2.4700    0.0419    7.9750 C   0  0  0  0  0  0  0  0  0  0  0  0
    2.4506    3.4682    9.4582 C   0  0  0  0  0  0  0  0  0  0  0  0
    1.5585    4.5127    9.3702 C   0  0  0  0  0  0  0  0  0  0  0  0
    1.5843    5.5182   10.2986 N   0  0  0  0  0  0  0  0  0  0  0  0
    2.4672    5.4735   11.2700 N   0  0  0  0  0  0  0  0  0  0  0  0
    3.3639    4.4752   11.4062 C   0  0  0  0  0  0  0  0  0  0  0  0
    3.3345    3.4943   10.4953 N   0  0  0  0  0  0  0  0  0  0  0  0
    4.2985    4.4844   12.4891 N   0  0  0  0  0  0  0  0  0  0  0  0
    0.5838    4.5290    8.2955 C   0  0  0  0  0  0  0  0  0  0  0  0
    0.5273    5.6225    7.4502 C   0  0  0  0  0  0  0  0  0  0  0  0
   -0.3560    5.7133    6.4064 C   0  0  0  0  0  0  0  0  0  0  0  0
   -1.2335    4.6782    6.1757 C   0  0  0  0  0  0  0  0  0  0  0  0
   -1.2058    3.5605    7.0068 C   0  0  0  0  0  0  0  0  0  0  0  0
   -0.2924    3.4987    8.0622 C   0  0  0  0  0  0  0  0  0  0  0  0
   -2.1579    4.7023    5.1346 O   0  0  0  0  0  0  0  0  0  0  0  0
   -0.3806    7.1180    5.3688 Cl  0  0  0  0  0  0  0  0  0  0  0  0
  1  2  2  0
  2  3  1  0
  3  4  2  0
  4  5  1  0
  5  6  2  0
  4  7  1  0
  7  8  1  0
  8  9  2  0
  9 10  1  0
 10 11  2  0
 11 12  1  0
 11 13  1  0
  8 14  1  0
 14 15  2  0
 15 16  1  0
 16 17  2  0
 17 18  1  0
 18 19  2  0
 17 20  1  0
 16 21  1  0
  6  1  1  0
 12  7  2  0
 19 14  1  0
M  END
$$$$
