
     RDKit          3D

 21 23  0  0  0  0  0  0  0  0999 V2000
    2.5620    0.2111    6.7026 C   0  0  0  0  0  0  0  0  0  0  0  0
    2.1969    1.4955    6.3467 C   0  0  0  0  0  0  0  0  0  0  0  0
    2.1511    2.4764    7.3340 C   0  0  0  0  0  0  0  0  0  0  0  0
    2.4566    2.2050    8.6438 C   0  0  0  0  0  0  0  0  0  0  0  0
    2.8151    0.9067    8.9471 C   0  0  0  0  0  0  0  0  0  0  0  0
    2.8680   -0.0812    7.9886 C   0  0  0  0  0  0  0  0  0  0  0  0
    2.4064    3.2196    9.6712 C   0  0  0  0  0  0  0  0  0  0  0  0
    1.6394    4.3522    9.5168 C   0  0  0  0  0  0  0  0  0  0  0  0
    1.6160    5.3051   10.4991 N   0  0  0  0  0  0  0  0  0  0  0  0
    2.3314    5.1255   11.5860 N   0  0  0  0  0  0  0  0  0  0  0  0
    3.0998    4.0362   11.7914 C   0  0  0  0  0  0  0  0  0  0  0  0
    3.1193    3.1072   10.8274 N   0  0  0  0  0  0  0  0  0  0  0  0
    3.8539    3.8997   12.9992 N   0  0  0  0  0  0  0  0  0  0  0  0
    0.8470    4.5176    8.3127 C   0  0  0  0  0  0  0  0  0  0  0  0
   -0.4851    4.8734    8.4234 C   0  0  0  0  0  0  0  0  0  0  0  0
   -1.3003    5.0588    7.3374 C   0  0  0  0  0  0  0  0  0  0  0  0
   -0.7853    4.8864    6.0726 C   0  0  0  0  0  0  0  0  0  0  0  0
    0.5524    4.5277    5.9222 C   0  0  0  0  0  0  0  0  0  0  0  0
    1.3570    4.3469    7.0500 C   0  0  0  0  0  0  0  0  0  0  0  0
   -1.5546    5.0576    4.9246 O   0  0  0  0  0  0  0  0  0  0  0  0
   -2.9754    5.5110    7.5370 Cl  0  0  0  0  0  0  0  0  0  0  0  0
  1  2  2  0
  2  3  1  0
  3  4  2  0
  4  5  1  0
  5  6  2  0
  4  7  1  0
  7  8  1  0
  8  9  2  0
  9 10  1  0
 10 11  2  0
 11 12  1  0
 11 13  1  0
  8 14  1  0
 14 15  2  0
 15 16  1  0
 16 17  2  0
 17 18  1  0
 18 19  2  0
 17 20  1  0
 16 21  1  0
  6  1  1  0
 12  7  2  0
 19 14  1  0
M  END
$$$$
