
     RDKit          3D

 21 23  0  0  0  0  0  0  0  0999 V2000
    2.1104    0.5563    6.4694 C   0  0  0  0  0  0  0  0  0  0  0  0
    3.3358    0.8812    7.0195 C   0  0  0  0  0  0  0  0  0  0  0  0
    3.3841    1.8413    8.0269 C   0  0  0  0  0  0  0  0  0  0  0  0
    2.2550    2.4709    8.4865 C   0  0  0  0  0  0  0  0  0  0  0  0
    1.0562    2.1107    7.9041 C   0  0  0  0  0  0  0  0  0  0  0  0
    0.9822    1.1639    6.9063 C   0  0  0  0  0  0  0  0  0  0  0  0
    2.3022    3.4702    9.5290 C   0  0  0  0  0  0  0  0  0  0  0  0
    1.4989    4.5870    9.4818 C   0  0  0  0  0  0  0  0  0  0  0  0
    1.5688    5.5257   10.4756 N   0  0  0  0  0  0  0  0  0  0  0  0
    2.4082    5.3477   11.4701 N   0  0  0  0  0  0  0  0  0  0  0  0
    3.2178    4.2735   11.5685 C   0  0  0  0  0  0  0  0  0  0  0  0
    3.1457    3.3583   10.5937 N   0  0  0  0  0  0  0  0  0  0  0  0
    4.1087    4.1378   12.6793 N   0  0  0  0  0  0  0  0  0  0  0  0
    0.5699    4.7507    8.3796 C   0  0  0  0  0  0  0  0  0  0  0  0
    1.0559    4.7859    7.0850 C   0  0  0  0  0  0  0  0  0  0  0  0
    0.2466    4.9280    5.9882 C   0  0  0  0  0  0  0  0  0  0  0  0
   -1.1135    5.0425    6.1661 C   0  0  0  0  0  0  0  0  0  0  0  0
   -1.6393    5.0114    7.4558 C   0  0  0  0  0  0  0  0  0  0  0  0
   -0.7869    4.8648    8.5530 C   0  0  0  0  0  0  0  0  0  0  0  0
   -1.9955    5.1896    5.0985 O   0  0  0  0  0  0  0  0  0  0  0  0
    0.9157    4.9631    4.3753 Cl  0  0  0  0  0  0  0  0  0  0  0  0
  1  2  2  0
  2  3  1  0
  3  4  2  0
  4  5  1  0
  5  6  2  0
  4  7  1  0
  7  8  1  0
  8  9  2  0
  9 10  1  0
 10 11  2  0
 11 12  1  0
 11 13  1  0
  8 14  1  0
 14 15  2  0
 15 16  1  0
 16 17  2  0
 17 18  1  0
 18 19  2  0
 17 20  1  0
 16 21  1  0
  6  1  1  0
 12  7  2  0
 19 14  1  0
M  END
$$$$
