
     RDKit          3D

 13 13  0  0  0  0  0  0  0  0999 V2000
    2.9821    0.3825    9.7492 C   0  0  0  0  0  0  0  0  0  0  0  0
    2.5571    0.6371    8.3823 N   0  0  0  0  0  4  0  0  0  0  0  0
    1.2553    1.2454    8.3206 C   0  0  0  0  0  0  0  0  0  0  0  0
    0.7632    1.4620    6.9239 C   0  0  1  0  0  0  0  0  0  0  0  0
   -0.4791    2.2230    6.8244 C   0  0  0  0  0  0  0  0  0  0  0  0
   -0.9271    2.6358    5.5875 C   0  0  0  0  0  0  0  0  0  0  0  0
   -2.0972    3.3604    5.4264 C   0  0  0  0  0  0  0  0  0  0  0  0
   -2.8458    3.6860    6.5218 C   0  0  0  0  0  0  0  0  0  0  0  0
   -2.3960    3.2698    7.7787 C   0  0  0  0  0  0  0  0  0  0  0  0
   -1.2292    2.5484    7.9290 C   0  0  0  0  0  0  0  0  0  0  0  0
   -3.1688    3.6088    8.8842 O   0  0  0  0  0  0  0  0  0  0  0  0
   -4.0308    4.4107    6.4387 O   0  0  0  0  0  0  0  0  0  0  0  0
    1.7768    2.0746    6.1924 O   0  0  0  0  0  0  0  0  0  0  0  0
  1  2  1  0
  2  3  1  0
  3  4  1  0
  4  5  1  0
  5  6  2  0
  6  7  1  0
  7  8  2  0
  8  9  1  0
  9 10  2  0
  9 11  1  0
  8 12  1  0
  4 13  1  6
 10  5  1  0
M  CHG  1   2   1
M  END
$$$$
