
     RDKit          3D

 13 13  0  0  0  0  0  0  0  0999 V2000
    2.8266   -0.8494    8.2866 C   0  0  0  0  0  0  0  0  0  0  0  0
    2.6555    0.5761    8.0573 N   0  0  0  0  0  4  0  0  0  0  0  0
    1.2827    0.9279    7.8123 C   0  0  0  0  0  0  0  0  0  0  0  0
    1.0929    2.3630    7.4321 C   0  0  1  0  0  0  0  0  0  0  0  0
   -0.2906    2.7474    7.1664 C   0  0  0  0  0  0  0  0  0  0  0  0
   -0.6974    2.9710    5.8682 C   0  0  0  0  0  0  0  0  0  0  0  0
   -1.9953    3.3379    5.5505 C   0  0  0  0  0  0  0  0  0  0  0  0
   -2.9176    3.4879    6.5471 C   0  0  0  0  0  0  0  0  0  0  0  0
   -2.5102    3.2623    7.8657 C   0  0  0  0  0  0  0  0  0  0  0  0
   -1.2152    2.8971    8.1721 C   0  0  0  0  0  0  0  0  0  0  0  0
   -3.4603    3.4189    8.8692 O   0  0  0  0  0  0  0  0  0  0  0  0
   -4.2381    3.8539    6.3055 O   0  0  0  0  0  0  0  0  0  0  0  0
    1.6419    3.1580    8.4342 O   0  0  0  0  0  0  0  0  0  0  0  0
  1  2  1  0
  2  3  1  0
  3  4  1  0
  4  5  1  0
  5  6  2  0
  6  7  1  0
  7  8  2  0
  8  9  1  0
  9 10  2  0
  9 11  1  0
  8 12  1  0
  4 13  1  1
 10  5  1  0
M  CHG  1   2   1
M  END
$$$$
