
     RDKit          3D

 13 13  0  0  0  0  0  0  0  0999 V2000
    3.8400    2.2228    9.3448 C   0  0  0  0  0  0  0  0  0  0  0  0
    2.9324    1.5424    8.4354 N   0  0  0  0  0  4  0  0  0  0  0  0
    1.7307    2.2965    8.1991 C   0  0  0  0  0  0  0  0  0  0  0  0
    0.7113    1.5570    7.3905 C   0  0  1  0  0  0  0  0  0  0  0  0
   -0.4700    2.3379    7.0340 C   0  0  0  0  0  0  0  0  0  0  0  0
   -0.5182    2.9814    5.8156 C   0  0  0  0  0  0  0  0  0  0  0  0
   -1.6097    3.7373    5.4187 C   0  0  0  0  0  0  0  0  0  0  0  0
   -2.6850    3.8598    6.2524 C   0  0  0  0  0  0  0  0  0  0  0  0
   -2.6413    3.2091    7.4894 C   0  0  0  0  0  0  0  0  0  0  0  0
   -1.5497    2.4584    7.8757 C   0  0  0  0  0  0  0  0  0  0  0  0
   -3.7435    3.3431    8.3270 O   0  0  0  0  0  0  0  0  0  0  0  0
   -3.8155    4.6012    5.9231 O   0  0  0  0  0  0  0  0  0  0  0  0
    1.3347    1.0573    6.2506 O   0  0  0  0  0  0  0  0  0  0  0  0
  1  2  1  0
  2  3  1  0
  3  4  1  0
  4  5  1  0
  5  6  2  0
  6  7  1  0
  7  8  2  0
  8  9  1  0
  9 10  2  0
  9 11  1  0
  8 12  1  0
  4 13  1  6
 10  5  1  0
M  CHG  1   2   1
M  END
$$$$
