
     RDKit          3D

 13 13  0  0  0  0  0  0  0  0999 V2000
    3.6486    1.9516    9.6980 C   0  0  0  0  0  0  0  0  0  0  0  0
    2.8011    1.3811    8.6636 N   0  0  0  0  0  4  0  0  0  0  0  0
    1.5982    2.1436    8.4626 C   0  0  0  0  0  0  0  0  0  0  0  0
    0.6458    1.5121    7.4961 C   0  0  1  0  0  0  0  0  0  0  0  0
   -0.5156    2.3306    7.1589 C   0  0  0  0  0  0  0  0  0  0  0  0
   -0.5428    3.0128    5.9611 C   0  0  0  0  0  0  0  0  0  0  0  0
   -1.6147    3.8055    5.5833 C   0  0  0  0  0  0  0  0  0  0  0  0
   -2.6913    3.9265    6.4155 C   0  0  0  0  0  0  0  0  0  0  0  0
   -2.6688    3.2366    7.6317 C   0  0  0  0  0  0  0  0  0  0  0  0
   -1.5966    2.4495    7.9992 C   0  0  0  0  0  0  0  0  0  0  0  0
   -3.7720    3.3697    8.4682 O   0  0  0  0  0  0  0  0  0  0  0  0
   -3.8029    4.7035    6.1046 O   0  0  0  0  0  0  0  0  0  0  0  0
    1.3528    1.1629    6.3490 O   0  0  0  0  0  0  0  0  0  0  0  0
  1  2  1  0
  2  3  1  0
  3  4  1  0
  4  5  1  0
  5  6  2  0
  6  7  1  0
  7  8  2  0
  8  9  1  0
  9 10  2  0
  9 11  1  0
  8 12  1  0
  4 13  1  6
 10  5  1  0
M  CHG  1   2   1
M  END
$$$$
