
     RDKit          3D

 13 13  0  0  0  0  0  0  0  0999 V2000
    3.9632    1.8700    9.0853 C   0  0  0  0  0  0  0  0  0  0  0  0
    3.0274    1.1742    8.2171 N   0  0  0  0  0  4  0  0  0  0  0  0
    1.8260    1.9322    7.9919 C   0  0  0  0  0  0  0  0  0  0  0  0
    0.8031    1.2020    7.1792 C   0  0  1  0  0  0  0  0  0  0  0  0
   -0.3891    1.9802    6.8544 C   0  0  0  0  0  0  0  0  0  0  0  0
   -0.4877    2.5920    5.6228 C   0  0  0  0  0  0  0  0  0  0  0  0
   -1.5920    3.3437    5.2545 C   0  0  0  0  0  0  0  0  0  0  0  0
   -2.6291    3.4942    6.1309 C   0  0  0  0  0  0  0  0  0  0  0  0
   -2.5341    2.8757    7.3815 C   0  0  0  0  0  0  0  0  0  0  0  0
   -1.4301    2.1290    7.7392 C   0  0  0  0  0  0  0  0  0  0  0  0
   -3.5977    3.0381    8.2629 O   0  0  0  0  0  0  0  0  0  0  0  0
   -3.7695    4.2334    5.8322 O   0  0  0  0  0  0  0  0  0  0  0  0
    1.4168    0.7333    6.0210 O   0  0  0  0  0  0  0  0  0  0  0  0
  1  2  1  0
  2  3  1  0
  3  4  1  0
  4  5  1  0
  5  6  2  0
  6  7  1  0
  7  8  2  0
  8  9  1  0
  9 10  2  0
  9 11  1  0
  8 12  1  0
  4 13  1  6
 10  5  1  0
M  CHG  1   2   1
M  END
$$$$
