
     RDKit          3D

 13 13  0  0  0  0  0  0  0  0999 V2000
    3.9352    1.6827    8.9440 C   0  0  0  0  0  0  0  0  0  0  0  0
    2.9771    1.1634    7.9815 N   0  0  0  0  0  4  0  0  0  0  0  0
    1.7043    1.8276    8.0668 C   0  0  0  0  0  0  0  0  0  0  0  0
    0.6422    1.1928    7.2249 C   0  0  1  0  0  0  0  0  0  0  0  0
   -0.6160    1.9318    7.1679 C   0  0  0  0  0  0  0  0  0  0  0  0
   -1.4936    1.8644    8.2290 C   0  0  0  0  0  0  0  0  0  0  0  0
   -2.7025    2.5417    8.2359 C   0  0  0  0  0  0  0  0  0  0  0  0
   -3.0529    3.3083    7.1607 C   0  0  0  0  0  0  0  0  0  0  0  0
   -2.1663    3.3802    6.0817 C   0  0  0  0  0  0  0  0  0  0  0  0
   -0.9645    2.7019    6.0842 C   0  0  0  0  0  0  0  0  0  0  0  0
   -2.5370    4.1645    4.9946 O   0  0  0  0  0  0  0  0  0  0  0  0
   -4.2489    4.0165    7.0956 O   0  0  0  0  0  0  0  0  0  0  0  0
    1.1563    0.9948    5.9466 O   0  0  0  0  0  0  0  0  0  0  0  0
  1  2  1  0
  2  3  1  0
  3  4  1  0
  4  5  1  0
  5  6  2  0
  6  7  1  0
  7  8  2  0
  8  9  1  0
  9 10  2  0
  9 11  1  0
  8 12  1  0
  4 13  1  6
 10  5  1  0
M  CHG  1   2   1
M  END
$$$$
