
     RDKit          3D

 13 13  0  0  0  0  0  0  0  0999 V2000
    3.7776    2.0160    9.4732 C   0  0  0  0  0  0  0  0  0  0  0  0
    2.9224    1.3980    8.4729 N   0  0  0  0  0  4  0  0  0  0  0  0
    1.7136    2.1454    8.2524 C   0  0  0  0  0  0  0  0  0  0  0  0
    0.7197    1.4321    7.3902 C   0  0  1  0  0  0  0  0  0  0  0  0
   -0.4633    2.2153    7.0445 C   0  0  0  0  0  0  0  0  0  0  0  0
   -0.5287    2.8448    5.8196 C   0  0  0  0  0  0  0  0  0  0  0  0
   -1.6227    3.6021    5.4324 C   0  0  0  0  0  0  0  0  0  0  0  0
   -2.6831    3.7402    6.2826 C   0  0  0  0  0  0  0  0  0  0  0  0
   -2.6219    3.1038    7.5262 C   0  0  0  0  0  0  0  0  0  0  0  0
   -1.5279    2.3516    7.9029 C   0  0  0  0  0  0  0  0  0  0  0  0
   -3.7090    3.2537    8.3808 O   0  0  0  0  0  0  0  0  0  0  0  0
   -3.8150    4.4840    5.9638 O   0  0  0  0  0  0  0  0  0  0  0  0
    1.3721    0.9913    6.2422 O   0  0  0  0  0  0  0  0  0  0  0  0
  1  2  1  0
  2  3  1  0
  3  4  1  0
  4  5  1  0
  5  6  2  0
  6  7  1  0
  7  8  2  0
  8  9  1  0
  9 10  2  0
  9 11  1  0
  8 12  1  0
  4 13  1  6
 10  5  1  0
M  CHG  1   2   1
M  END
$$$$
