
     RDKit          3D

 13 13  0  0  0  0  0  0  0  0999 V2000
    3.8633    2.1114    9.2410 C   0  0  0  0  0  0  0  0  0  0  0  0
    2.9686    1.4175    8.3289 N   0  0  0  0  0  4  0  0  0  0  0  0
    1.7625    2.1600    8.0785 C   0  0  0  0  0  0  0  0  0  0  0  0
    0.7713    1.4215    7.2346 C   0  0  1  0  0  0  0  0  0  0  0  0
   -0.4254    2.1835    6.8888 C   0  0  0  0  0  0  0  0  0  0  0  0
   -0.4841    2.8476    5.6819 C   0  0  0  0  0  0  0  0  0  0  0  0
   -1.5903    3.5873    5.2955 C   0  0  0  0  0  0  0  0  0  0  0  0
   -2.6700    3.6722    6.1282 C   0  0  0  0  0  0  0  0  0  0  0  0
   -2.6156    3.0005    7.3535 C   0  0  0  0  0  0  0  0  0  0  0  0
   -1.5094    2.2663    7.7295 C   0  0  0  0  0  0  0  0  0  0  0  0
   -3.7224    3.0964    8.1903 O   0  0  0  0  0  0  0  0  0  0  0  0
   -3.8151    4.3954    5.8090 O   0  0  0  0  0  0  0  0  0  0  0  0
    1.4200    0.9742    6.0871 O   0  0  0  0  0  0  0  0  0  0  0  0
  1  2  1  0
  2  3  1  0
  3  4  1  0
  4  5  1  0
  5  6  2  0
  6  7  1  0
  7  8  2  0
  8  9  1  0
  9 10  2  0
  9 11  1  0
  8 12  1  0
  4 13  1  6
 10  5  1  0
M  CHG  1   2   1
M  END
$$$$
