
     RDKit          3D

 13 13  0  0  0  0  0  0  0  0999 V2000
    3.4766    1.7676    9.6581 C   0  0  0  0  0  0  0  0  0  0  0  0
    2.6125    1.1731    8.6513 N   0  0  0  0  0  4  0  0  0  0  0  0
    1.3998    1.9229    8.4623 C   0  0  0  0  0  0  0  0  0  0  0  0
    0.4355    1.2711    7.5215 C   0  0  1  0  0  0  0  0  0  0  0  0
   -0.7296    2.0827    7.1806 C   0  0  0  0  0  0  0  0  0  0  0  0
   -0.7549    2.7685    5.9849 C   0  0  0  0  0  0  0  0  0  0  0  0
   -1.8301    3.5552    5.6037 C   0  0  0  0  0  0  0  0  0  0  0  0
   -2.9121    3.6661    6.4304 C   0  0  0  0  0  0  0  0  0  0  0  0
   -2.8915    2.9725    7.6445 C   0  0  0  0  0  0  0  0  0  0  0  0
   -1.8160    2.1915    8.0154 C   0  0  0  0  0  0  0  0  0  0  0  0
   -4.0001    3.0953    8.4754 O   0  0  0  0  0  0  0  0  0  0  0  0
   -4.0273    4.4366    6.1159 O   0  0  0  0  0  0  0  0  0  0  0  0
    1.1284    0.8964    6.3739 O   0  0  0  0  0  0  0  0  0  0  0  0
  1  2  1  0
  2  3  1  0
  3  4  1  0
  4  5  1  0
  5  6  2  0
  6  7  1  0
  7  8  2  0
  8  9  1  0
  9 10  2  0
  9 11  1  0
  8 12  1  0
  4 13  1  6
 10  5  1  0
M  CHG  1   2   1
M  END
$$$$
