
     RDKit          3D

 13 13  0  0  0  0  0  0  0  0999 V2000
    3.8944    1.8408    8.8908 C   0  0  0  0  0  0  0  0  0  0  0  0
    2.9374    1.2853    7.9478 N   0  0  0  0  0  4  0  0  0  0  0  0
    1.6656    1.9547    8.0037 C   0  0  0  0  0  0  0  0  0  0  0  0
    0.5908    1.2600    7.2279 C   0  0  1  0  0  0  0  0  0  0  0  0
   -0.6862    1.9670    7.1843 C   0  0  0  0  0  0  0  0  0  0  0  0
   -1.5510    1.8765    8.2543 C   0  0  0  0  0  0  0  0  0  0  0  0
   -2.7765    2.5230    8.2740 C   0  0  0  0  0  0  0  0  0  0  0  0
   -3.1571    3.2813    7.2033 C   0  0  0  0  0  0  0  0  0  0  0  0
   -2.2836    3.3765    6.1154 C   0  0  0  0  0  0  0  0  0  0  0  0
   -1.0650    2.7288    6.1050 C   0  0  0  0  0  0  0  0  0  0  0  0
   -2.6850    4.1520    5.0329 O   0  0  0  0  0  0  0  0  0  0  0  0
   -4.3712    3.9590    7.1509 O   0  0  0  0  0  0  0  0  0  0  0  0
    1.0650    1.0186    5.9417 O   0  0  0  0  0  0  0  0  0  0  0  0
  1  2  1  0
  2  3  1  0
  3  4  1  0
  4  5  1  0
  5  6  2  0
  6  7  1  0
  7  8  2  0
  8  9  1  0
  9 10  2  0
  9 11  1  0
  8 12  1  0
  4 13  1  6
 10  5  1  0
M  CHG  1   2   1
M  END
$$$$
