
     RDKit          3D

 13 13  0  0  0  0  0  0  0  0999 V2000
    3.6671    1.5913    9.5919 C   0  0  0  0  0  0  0  0  0  0  0  0
    2.9363    1.1453    8.4169 N   0  0  0  0  0  4  0  0  0  0  0  0
    1.7223    1.8896    8.2150 C   0  0  0  0  0  0  0  0  0  0  0  0
    0.6850    1.1405    7.4385 C   0  0  1  0  0  0  0  0  0  0  0  0
   -0.5162    1.9088    7.1235 C   0  0  0  0  0  0  0  0  0  0  0  0
   -0.6030    2.5724    5.9181 C   0  0  0  0  0  0  0  0  0  0  0  0
   -1.7150    3.3177    5.5603 C   0  0  0  0  0  0  0  0  0  0  0  0
   -2.7721    3.4089    6.4208 C   0  0  0  0  0  0  0  0  0  0  0  0
   -2.6892    2.7377    7.6448 C   0  0  0  0  0  0  0  0  0  0  0  0
   -1.5774    1.9978    7.9923 C   0  0  0  0  0  0  0  0  0  0  0  0
   -3.7732    2.8400    8.5102 O   0  0  0  0  0  0  0  0  0  0  0  0
   -3.9213    4.1380    6.1311 O   0  0  0  0  0  0  0  0  0  0  0  0
    1.2759    0.6508    6.2772 O   0  0  0  0  0  0  0  0  0  0  0  0
  1  2  1  0
  2  3  1  0
  3  4  1  0
  4  5  1  0
  5  6  2  0
  6  7  1  0
  7  8  2  0
  8  9  1  0
  9 10  2  0
  9 11  1  0
  8 12  1  0
  4 13  1  6
 10  5  1  0
M  CHG  1   2   1
M  END
$$$$
