
     RDKit          3D

 13 13  0  0  0  0  0  0  0  0999 V2000
    3.6393    0.5092    6.4259 C   0  0  0  0  0  0  0  0  0  0  0  0
    2.4423    0.3163    7.2283 N   0  0  0  0  0  4  0  0  0  0  0  0
    1.4760    1.3622    7.0257 C   0  0  0  0  0  0  0  0  0  0  0  0
    0.2365    1.1972    7.8481 C   0  0  1  0  0  0  0  0  0  0  0  0
   -0.7784    2.2258    7.6376 C   0  0  0  0  0  0  0  0  0  0  0  0
   -0.9092    3.2499    8.5514 C   0  0  0  0  0  0  0  0  0  0  0  0
   -1.8521    4.2553    8.4086 C   0  0  0  0  0  0  0  0  0  0  0  0
   -2.6901    4.2466    7.3298 C   0  0  0  0  0  0  0  0  0  0  0  0
   -2.5617    3.2101    6.3999 C   0  0  0  0  0  0  0  0  0  0  0  0
   -1.6195    2.2132    6.5507 C   0  0  0  0  0  0  0  0  0  0  0  0
   -3.4219    3.2150    5.3070 O   0  0  0  0  0  0  0  0  0  0  0  0
   -3.6607    5.2213    7.1193 O   0  0  0  0  0  0  0  0  0  0  0  0
   -0.2865   -0.0693    7.6030 O   0  0  0  0  0  0  0  0  0  0  0  0
  1  2  1  0
  2  3  1  0
  3  4  1  0
  4  5  1  0
  5  6  2  0
  6  7  1  0
  7  8  2  0
  8  9  1  0
  9 10  2  0
  9 11  1  0
  8 12  1  0
  4 13  1  6
 10  5  1  0
M  CHG  1   2   1
M  END
$$$$
