
     RDKit          3D

 13 13  0  0  0  0  0  0  0  0999 V2000
    2.3737   -1.1147    5.5740 C   0  0  0  0  0  0  0  0  0  0  0  0
    2.3026    0.2148    6.1581 N   0  0  0  0  0  4  0  0  0  0  0  0
    0.9471    0.6389    6.3845 C   0  0  0  0  0  0  0  0  0  0  0  0
    0.8195    2.1022    6.6711 C   0  0  1  0  0  0  0  0  0  0  0  0
   -0.5357    2.5485    6.9822 C   0  0  0  0  0  0  0  0  0  0  0  0
   -0.9824    2.5102    8.2860 C   0  0  0  0  0  0  0  0  0  0  0  0
   -2.2565    2.9193    8.6456 C   0  0  0  0  0  0  0  0  0  0  0  0
   -3.1136    3.3798    7.6866 C   0  0  0  0  0  0  0  0  0  0  0  0
   -2.6655    3.4207    6.3626 C   0  0  0  0  0  0  0  0  0  0  0  0
   -1.3947    3.0111    6.0142 C   0  0  0  0  0  0  0  0  0  0  0  0
   -3.5495    3.8919    5.3977 O   0  0  0  0  0  0  0  0  0  0  0  0
   -4.4068    3.8073    7.9716 O   0  0  0  0  0  0  0  0  0  0  0  0
    1.6942    2.4241    7.7050 O   0  0  0  0  0  0  0  0  0  0  0  0
  1  2  1  0
  2  3  1  0
  3  4  1  0
  4  5  1  0
  5  6  2  0
  6  7  1  0
  7  8  2  0
  8  9  1  0
  9 10  2  0
  9 11  1  0
  8 12  1  0
  4 13  1  1
 10  5  1  0
M  CHG  1   2   1
M  END
$$$$
