
     RDKit          3D

 13 13  0  0  0  0  0  0  0  0999 V2000
    3.0685    1.0329    9.6939 C   0  0  0  0  0  0  0  0  0  0  0  0
    2.4538    0.8660    8.3870 N   0  0  0  0  0  4  0  0  0  0  0  0
    1.1757    1.5196    8.2983 C   0  0  0  0  0  0  0  0  0  0  0  0
    0.5262    1.3809    6.9571 C   0  0  1  0  0  0  0  0  0  0  0  0
   -0.6630    2.2064    6.7653 C   0  0  0  0  0  0  0  0  0  0  0  0
   -0.9461    2.7117    5.5141 C   0  0  0  0  0  0  0  0  0  0  0  0
   -2.0580    3.5010    5.2673 C   0  0  0  0  0  0  0  0  0  0  0  0
   -2.9148    3.7988    6.2888 C   0  0  0  0  0  0  0  0  0  0  0  0
   -2.6323    3.2887    7.5598 C   0  0  0  0  0  0  0  0  0  0  0  0
   -1.5223    2.5035    7.7959 C   0  0  0  0  0  0  0  0  0  0  0  0
   -3.5137    3.6005    8.5895 O   0  0  0  0  0  0  0  0  0  0  0  0
   -4.0505    4.5843    6.1175 O   0  0  0  0  0  0  0  0  0  0  0  0
    1.4784    1.6528    5.9788 O   0  0  0  0  0  0  0  0  0  0  0  0
  1  2  1  0
  2  3  1  0
  3  4  1  0
  4  5  1  0
  5  6  2  0
  6  7  1  0
  7  8  2  0
  8  9  1  0
  9 10  2  0
  9 11  1  0
  8 12  1  0
  4 13  1  6
 10  5  1  0
M  CHG  1   2   1
M  END
$$$$
