
     RDKit          3D

 13 13  0  0  0  0  0  0  0  0999 V2000
    3.8492    1.9586    9.3315 C   0  0  0  0  0  0  0  0  0  0  0  0
    2.9512    1.3008    8.3963 N   0  0  0  0  0  4  0  0  0  0  0  0
    1.7311    2.0373    8.2024 C   0  0  0  0  0  0  0  0  0  0  0  0
    0.7363    1.3276    7.3383 C   0  0  1  0  0  0  0  0  0  0  0  0
   -0.4528    2.1079    7.0073 C   0  0  0  0  0  0  0  0  0  0  0  0
   -0.5184    2.7689    5.7991 C   0  0  0  0  0  0  0  0  0  0  0  0
   -1.6181    3.5252    5.4264 C   0  0  0  0  0  0  0  0  0  0  0  0
   -2.6840    3.6303    6.2744 C   0  0  0  0  0  0  0  0  0  0  0  0
   -2.6225    2.9617    7.5011 C   0  0  0  0  0  0  0  0  0  0  0  0
   -1.5229    2.2108    7.8634 C   0  0  0  0  0  0  0  0  0  0  0  0
   -3.7153    3.0782    8.3536 O   0  0  0  0  0  0  0  0  0  0  0  0
   -3.8218    4.3709    5.9694 O   0  0  0  0  0  0  0  0  0  0  0  0
    1.3847    0.9023    6.1823 O   0  0  0  0  0  0  0  0  0  0  0  0
  1  2  1  0
  2  3  1  0
  3  4  1  0
  4  5  1  0
  5  6  2  0
  6  7  1  0
  7  8  2  0
  8  9  1  0
  9 10  2  0
  9 11  1  0
  8 12  1  0
  4 13  1  6
 10  5  1  0
M  CHG  1   2   1
M  END
$$$$
