
     RDKit          3D

 13 13  0  0  0  0  0  0  0  0999 V2000
    3.5676    1.8478    9.5913 C   0  0  0  0  0  0  0  0  0  0  0  0
    2.7207    1.2545    8.5693 N   0  0  0  0  0  4  0  0  0  0  0  0
    1.5066    1.9988    8.3680 C   0  0  0  0  0  0  0  0  0  0  0  0
    0.5324    1.3172    7.4590 C   0  0  1  0  0  0  0  0  0  0  0  0
   -0.6406    2.1144    7.1115 C   0  0  0  0  0  0  0  0  0  0  0  0
   -0.6655    2.8041    5.9179 C   0  0  0  0  0  0  0  0  0  0  0  0
   -1.7480    3.5777    5.5307 C   0  0  0  0  0  0  0  0  0  0  0  0
   -2.8379    3.6714    6.3491 C   0  0  0  0  0  0  0  0  0  0  0  0
   -2.8178    2.9739    7.5609 C   0  0  0  0  0  0  0  0  0  0  0  0
   -1.7350    2.2059    7.9378 C   0  0  0  0  0  0  0  0  0  0  0  0
   -3.9346    3.0790    8.3833 O   0  0  0  0  0  0  0  0  0  0  0  0
   -3.9606    4.4281    6.0282 O   0  0  0  0  0  0  0  0  0  0  0  0
    1.2113    0.9132    6.3129 O   0  0  0  0  0  0  0  0  0  0  0  0
  1  2  1  0
  2  3  1  0
  3  4  1  0
  4  5  1  0
  5  6  2  0
  6  7  1  0
  7  8  2  0
  8  9  1  0
  9 10  2  0
  9 11  1  0
  8 12  1  0
  4 13  1  6
 10  5  1  0
M  CHG  1   2   1
M  END
$$$$
