
     RDKit          3D

 13 13  0  0  0  0  0  0  0  0999 V2000
    3.7471    1.9534    9.4983 C   0  0  0  0  0  0  0  0  0  0  0  0
    2.8819    1.2796    8.5437 N   0  0  0  0  0  4  0  0  0  0  0  0
    1.6781    2.0215    8.2809 C   0  0  0  0  0  0  0  0  0  0  0  0
    0.6917    1.2787    7.4353 C   0  0  1  0  0  0  0  0  0  0  0  0
   -0.4928    2.0460    7.0606 C   0  0  0  0  0  0  0  0  0  0  0  0
   -0.5295    2.6893    5.8417 C   0  0  0  0  0  0  0  0  0  0  0  0
   -1.6233    3.4328    5.4282 C   0  0  0  0  0  0  0  0  0  0  0  0
   -2.7128    3.5427    6.2451 C   0  0  0  0  0  0  0  0  0  0  0  0
   -2.6807    2.8921    7.4825 C   0  0  0  0  0  0  0  0  0  0  0  0
   -1.5867    2.1539    7.8856 C   0  0  0  0  0  0  0  0  0  0  0  0
   -3.7972    3.0133    8.3031 O   0  0  0  0  0  0  0  0  0  0  0  0
   -3.8465    4.2712    5.8985 O   0  0  0  0  0  0  0  0  0  0  0  0
    1.3519    0.8070    6.3042 O   0  0  0  0  0  0  0  0  0  0  0  0
  1  2  1  0
  2  3  1  0
  3  4  1  0
  4  5  1  0
  5  6  2  0
  6  7  1  0
  7  8  2  0
  8  9  1  0
  9 10  2  0
  9 11  1  0
  8 12  1  0
  4 13  1  6
 10  5  1  0
M  CHG  1   2   1
M  END
$$$$
