
     RDKit          3D

 13 13  0  0  0  0  0  0  0  0999 V2000
    3.4148    1.7811    9.5932 C   0  0  0  0  0  0  0  0  0  0  0  0
    2.5440    1.1485    8.6158 N   0  0  0  0  0  4  0  0  0  0  0  0
    1.3347    1.8962    8.3985 C   0  0  0  0  0  0  0  0  0  0  0  0
    0.3584    1.2041    7.4997 C   0  0  1  0  0  0  0  0  0  0  0  0
   -0.8116    2.0002    7.1395 C   0  0  0  0  0  0  0  0  0  0  0  0
   -0.8410    2.6570    5.9276 C   0  0  0  0  0  0  0  0  0  0  0  0
   -1.9210    3.4276    5.5277 C   0  0  0  0  0  0  0  0  0  0  0  0
   -3.0037    3.5516    6.3516 C   0  0  0  0  0  0  0  0  0  0  0  0
   -2.9790    2.8875    7.5819 C   0  0  0  0  0  0  0  0  0  0  0  0
   -1.8987    2.1223    7.9714 C   0  0  0  0  0  0  0  0  0  0  0  0
   -4.0885    3.0234    8.4096 O   0  0  0  0  0  0  0  0  0  0  0  0
   -4.1236    4.3074    6.0187 O   0  0  0  0  0  0  0  0  0  0  0  0
    1.0363    0.7801    6.3603 O   0  0  0  0  0  0  0  0  0  0  0  0
  1  2  1  0
  2  3  1  0
  3  4  1  0
  4  5  1  0
  5  6  2  0
  6  7  1  0
  7  8  2  0
  8  9  1  0
  9 10  2  0
  9 11  1  0
  8 12  1  0
  4 13  1  6
 10  5  1  0
M  CHG  1   2   1
M  END
$$$$
