
     RDKit          3D

 13 13  0  0  0  0  0  0  0  0999 V2000
    3.7032    1.9746    9.3872 C   0  0  0  0  0  0  0  0  0  0  0  0
    2.7999    1.2789    8.4852 N   0  0  0  0  0  4  0  0  0  0  0  0
    1.6043    2.0337    8.2217 C   0  0  0  0  0  0  0  0  0  0  0  0
    0.5910    1.2844    7.4144 C   0  0  1  0  0  0  0  0  0  0  0  0
   -0.5909    2.0586    7.0457 C   0  0  0  0  0  0  0  0  0  0  0  0
   -0.6332    2.6958    5.8238 C   0  0  0  0  0  0  0  0  0  0  0  0
   -1.7249    3.4452    5.4156 C   0  0  0  0  0  0  0  0  0  0  0  0
   -2.8066    3.5674    6.2410 C   0  0  0  0  0  0  0  0  0  0  0  0
   -2.7689    2.9230    7.4815 C   0  0  0  0  0  0  0  0  0  0  0  0
   -1.6770    2.1788    7.8793 C   0  0  0  0  0  0  0  0  0  0  0  0
   -3.8775    3.0566    8.3107 O   0  0  0  0  0  0  0  0  0  0  0  0
   -3.9378    4.3024    5.9001 O   0  0  0  0  0  0  0  0  0  0  0  0
    1.2214    0.7772    6.2817 O   0  0  0  0  0  0  0  0  0  0  0  0
  1  2  1  0
  2  3  1  0
  3  4  1  0
  4  5  1  0
  5  6  2  0
  6  7  1  0
  7  8  2  0
  8  9  1  0
  9 10  2  0
  9 11  1  0
  8 12  1  0
  4 13  1  6
 10  5  1  0
M  CHG  1   2   1
M  END
$$$$
