
     RDKit          3D

 13 13  0  0  0  0  0  0  0  0999 V2000
    2.5821    0.1696    9.9019 C   0  0  0  0  0  0  0  0  0  0  0  0
    2.3801    0.5582    8.5156 N   0  0  0  0  0  4  0  0  0  0  0  0
    1.0773    1.1252    8.2927 C   0  0  0  0  0  0  0  0  0  0  0  0
    0.8188    1.4834    6.8628 C   0  0  1  0  0  0  0  0  0  0  0  0
   -0.4545    2.1563    6.6215 C   0  0  0  0  0  0  0  0  0  0  0  0
   -1.2368    1.7699    5.5539 C   0  0  0  0  0  0  0  0  0  0  0  0
   -2.4542    2.3686    5.2716 C   0  0  0  0  0  0  0  0  0  0  0  0
   -2.9107    3.3793    6.0694 C   0  0  0  0  0  0  0  0  0  0  0  0
   -2.1210    3.7750    7.1536 C   0  0  0  0  0  0  0  0  0  0  0  0
   -0.9099    3.1727    7.4267 C   0  0  0  0  0  0  0  0  0  0  0  0
   -2.5990    4.8052    7.9566 O   0  0  0  0  0  0  0  0  0  0  0  0
   -4.1220    4.0275    5.8488 O   0  0  0  0  0  0  0  0  0  0  0  0
    1.8808    2.2590    6.4065 O   0  0  0  0  0  0  0  0  0  0  0  0
  1  2  1  0
  2  3  1  0
  3  4  1  0
  4  5  1  0
  5  6  2  0
  6  7  1  0
  7  8  2  0
  8  9  1  0
  9 10  2  0
  9 11  1  0
  8 12  1  0
  4 13  1  1
 10  5  1  0
M  CHG  1   2   1
M  END
$$$$
