
     RDKit          3D

 13 13  0  0  0  0  0  0  0  0999 V2000
    3.7206    1.8760    9.2435 C   0  0  0  0  0  0  0  0  0  0  0  0
    2.7816    1.3685    8.2563 N   0  0  0  0  0  4  0  0  0  0  0  0
    1.5149    2.0477    8.3092 C   0  0  0  0  0  0  0  0  0  0  0  0
    0.4546    1.3991    7.4756 C   0  0  1  0  0  0  0  0  0  0  0  0
   -0.8104    2.1267    7.4207 C   0  0  0  0  0  0  0  0  0  0  0  0
   -1.7139    1.9997    8.4544 C   0  0  0  0  0  0  0  0  0  0  0  0
   -2.9305    2.6631    8.4616 C   0  0  0  0  0  0  0  0  0  0  0  0
   -3.2624    3.4760    7.4151 C   0  0  0  0  0  0  0  0  0  0  0  0
   -2.3495    3.6083    6.3641 C   0  0  0  0  0  0  0  0  0  0  0  0
   -1.1402    2.9435    6.3659 C   0  0  0  0  0  0  0  0  0  0  0  0
   -2.7016    4.4394    5.3058 O   0  0  0  0  0  0  0  0  0  0  0  0
   -4.4646    4.1737    7.3523 O   0  0  0  0  0  0  0  0  0  0  0  0
    0.9644    1.1992    6.1959 O   0  0  0  0  0  0  0  0  0  0  0  0
  1  2  1  0
  2  3  1  0
  3  4  1  0
  4  5  1  0
  5  6  2  0
  6  7  1  0
  7  8  2  0
  8  9  1  0
  9 10  2  0
  9 11  1  0
  8 12  1  0
  4 13  1  6
 10  5  1  0
M  CHG  1   2   1
M  END
$$$$
