
     RDKit          3D

 13 13  0  0  0  0  0  0  0  0999 V2000
    3.6689    1.8824    9.5659 C   0  0  0  0  0  0  0  0  0  0  0  0
    2.7995    1.2351    8.5970 N   0  0  0  0  0  4  0  0  0  0  0  0
    1.5984    1.9880    8.3538 C   0  0  0  0  0  0  0  0  0  0  0  0
    0.6187    1.2803    7.4711 C   0  0  1  0  0  0  0  0  0  0  0  0
   -0.5604    2.0644    7.1143 C   0  0  0  0  0  0  0  0  0  0  0  0
   -0.5916    2.7374    5.9114 C   0  0  0  0  0  0  0  0  0  0  0  0
   -1.6801    3.4980    5.5152 C   0  0  0  0  0  0  0  0  0  0  0  0
   -2.7696    3.5952    6.3337 C   0  0  0  0  0  0  0  0  0  0  0  0
   -2.7431    2.9144    7.5549 C   0  0  0  0  0  0  0  0  0  0  0  0
   -1.6544    2.1594    7.9408 C   0  0  0  0  0  0  0  0  0  0  0  0
   -3.8595    3.0229    8.3772 O   0  0  0  0  0  0  0  0  0  0  0  0
   -3.8981    4.3394    6.0040 O   0  0  0  0  0  0  0  0  0  0  0  0
    1.2888    0.8499    6.3294 O   0  0  0  0  0  0  0  0  0  0  0  0
  1  2  1  0
  2  3  1  0
  3  4  1  0
  4  5  1  0
  5  6  2  0
  6  7  1  0
  7  8  2  0
  8  9  1  0
  9 10  2  0
  9 11  1  0
  8 12  1  0
  4 13  1  6
 10  5  1  0
M  CHG  1   2   1
M  END
$$$$
