
     RDKit          3D

 13 13  0  0  0  0  0  0  0  0999 V2000
    4.0563    1.8179    8.8999 C   0  0  0  0  0  0  0  0  0  0  0  0
    3.0915    1.2469    7.9741 N   0  0  0  0  0  4  0  0  0  0  0  0
    1.8140    1.9039    8.0442 C   0  0  0  0  0  0  0  0  0  0  0  0
    0.7417    1.2086    7.2654 C   0  0  1  0  0  0  0  0  0  0  0  0
   -0.5390    1.9091    7.2282 C   0  0  0  0  0  0  0  0  0  0  0  0
   -1.3871    1.8348    8.3128 C   0  0  0  0  0  0  0  0  0  0  0  0
   -2.6151    2.4762    8.3393 C   0  0  0  0  0  0  0  0  0  0  0  0
   -3.0154    3.2128    7.2606 C   0  0  0  0  0  0  0  0  0  0  0  0
   -2.1590    3.2915    6.1580 C   0  0  0  0  0  0  0  0  0  0  0  0
   -0.9378    2.6491    6.1409 C   0  0  0  0  0  0  0  0  0  0  0  0
   -2.5804    4.0450    5.0675 O   0  0  0  0  0  0  0  0  0  0  0  0
   -4.2333    3.8841    7.2143 O   0  0  0  0  0  0  0  0  0  0  0  0
    1.2154    0.9782    5.9769 O   0  0  0  0  0  0  0  0  0  0  0  0
  1  2  1  0
  2  3  1  0
  3  4  1  0
  4  5  1  0
  5  6  2  0
  6  7  1  0
  7  8  2  0
  8  9  1  0
  9 10  2  0
  9 11  1  0
  8 12  1  0
  4 13  1  6
 10  5  1  0
M  CHG  1   2   1
M  END
$$$$
