
     RDKit          3D

 13 13  0  0  0  0  0  0  0  0999 V2000
    3.1132    1.7892    9.9945 C   0  0  0  0  0  0  0  0  0  0  0  0
    2.3361    1.1073    8.9723 N   0  0  0  0  0  4  0  0  0  0  0  0
    1.9430    1.9900    7.9070 C   0  0  0  0  0  0  0  0  0  0  0  0
    1.1055    1.3255    6.8596 C   0  0  1  0  0  0  0  0  0  0  0  0
   -0.2377    1.8782    6.7091 C   0  0  0  0  0  0  0  0  0  0  0  0
   -1.3325    1.0497    6.8347 C   0  0  0  0  0  0  0  0  0  0  0  0
   -2.6319    1.5127    6.7029 C   0  0  0  0  0  0  0  0  0  0  0  0
   -2.8541    2.8345    6.4391 C   0  0  0  0  0  0  0  0  0  0  0  0
   -1.7471    3.6792    6.3108 C   0  0  0  0  0  0  0  0  0  0  0  0
   -0.4566    3.2088    6.4437 C   0  0  0  0  0  0  0  0  0  0  0  0
   -1.9893    5.0222    6.0422 O   0  0  0  0  0  0  0  0  0  0  0  0
   -4.1294    3.3719    6.2937 O   0  0  0  0  0  0  0  0  0  0  0  0
    1.7961    1.3719    5.6519 O   0  0  0  0  0  0  0  0  0  0  0  0
  1  2  1  0
  2  3  1  0
  3  4  1  0
  4  5  1  0
  5  6  2  0
  6  7  1  0
  7  8  2  0
  8  9  1  0
  9 10  2  0
  9 11  1  0
  8 12  1  0
  4 13  1  6
 10  5  1  0
M  CHG  1   2   1
M  END
$$$$
