
     RDKit          3D

 13 13  0  0  0  0  0  0  0  0999 V2000
    3.5412    1.7834    9.7060 C   0  0  0  0  0  0  0  0  0  0  0  0
    2.7277    1.2800    8.6112 N   0  0  0  0  0  4  0  0  0  0  0  0
    1.5026    2.0180    8.4584 C   0  0  0  0  0  0  0  0  0  0  0  0
    0.5529    1.4019    7.4794 C   0  0  1  0  0  0  0  0  0  0  0  0
   -0.6139    2.2204    7.1615 C   0  0  0  0  0  0  0  0  0  0  0  0
   -0.6730    2.8808    5.9527 C   0  0  0  0  0  0  0  0  0  0  0  0
   -1.7518    3.6723    5.5920 C   0  0  0  0  0  0  0  0  0  0  0  0
   -2.8028    3.8142    6.4531 C   0  0  0  0  0  0  0  0  0  0  0  0
   -2.7478    3.1465    7.6806 C   0  0  0  0  0  0  0  0  0  0  0  0
   -1.6691    2.3604    8.0308 C   0  0  0  0  0  0  0  0  0  0  0  0
   -3.8252    3.3007    8.5465 O   0  0  0  0  0  0  0  0  0  0  0  0
   -3.9193    4.5914    6.1607 O   0  0  0  0  0  0  0  0  0  0  0  0
    1.2606    1.0823    6.3241 O   0  0  0  0  0  0  0  0  0  0  0  0
  1  2  1  0
  2  3  1  0
  3  4  1  0
  4  5  1  0
  5  6  2  0
  6  7  1  0
  7  8  2  0
  8  9  1  0
  9 10  2  0
  9 11  1  0
  8 12  1  0
  4 13  1  6
 10  5  1  0
M  CHG  1   2   1
M  END
$$$$
