
     RDKit          3D

 13 13  0  0  0  0  0  0  0  0999 V2000
    3.8232    1.5431    8.9661 C   0  0  0  0  0  0  0  0  0  0  0  0
    2.8513    1.0157    8.0221 N   0  0  0  0  0  4  0  0  0  0  0  0
    1.6275    1.7715    8.0205 C   0  0  0  0  0  0  0  0  0  0  0  0
    0.5044    1.0871    7.3062 C   0  0  1  0  0  0  0  0  0  0  0  0
   -0.7556    1.8253    7.2990 C   0  0  0  0  0  0  0  0  0  0  0  0
   -1.6070    1.7288    8.3791 C   0  0  0  0  0  0  0  0  0  0  0  0
   -2.8161    2.4037    8.4328 C   0  0  0  0  0  0  0  0  0  0  0  0
   -3.1934    3.1973    7.3868 C   0  0  0  0  0  0  0  0  0  0  0  0
   -2.3334    3.2986    6.2888 C   0  0  0  0  0  0  0  0  0  0  0  0
   -1.1312    2.6226    6.2445 C   0  0  0  0  0  0  0  0  0  0  0  0
   -2.7313    4.1103    5.2318 O   0  0  0  0  0  0  0  0  0  0  0  0
   -4.3914    3.9049    7.3692 O   0  0  0  0  0  0  0  0  0  0  0  0
    0.9182    0.8051    6.0075 O   0  0  0  0  0  0  0  0  0  0  0  0
  1  2  1  0
  2  3  1  0
  3  4  1  0
  4  5  1  0
  5  6  2  0
  6  7  1  0
  7  8  2  0
  8  9  1  0
  9 10  2  0
  9 11  1  0
  8 12  1  0
  4 13  1  6
 10  5  1  0
M  CHG  1   2   1
M  END
$$$$
