
     RDKit          3D

 13 13  0  0  0  0  0  0  0  0999 V2000
    3.5724    1.7539    9.5177 C   0  0  0  0  0  0  0  0  0  0  0  0
    2.7095    1.1668    8.5055 N   0  0  0  0  0  4  0  0  0  0  0  0
    1.4773    1.8926    8.3521 C   0  0  0  0  0  0  0  0  0  0  0  0
    0.4753    1.1919    7.4890 C   0  0  1  0  0  0  0  0  0  0  0  0
   -0.7051    1.9843    7.1557 C   0  0  0  0  0  0  0  0  0  0  0  0
   -0.7472    2.6739    5.9626 C   0  0  0  0  0  0  0  0  0  0  0  0
   -1.8375    3.4430    5.5887 C   0  0  0  0  0  0  0  0  0  0  0  0
   -2.9179    3.5321    6.4201 C   0  0  0  0  0  0  0  0  0  0  0  0
   -2.8803    2.8345    7.6315 C   0  0  0  0  0  0  0  0  0  0  0  0
   -1.7898    2.0711    7.9951 C   0  0  0  0  0  0  0  0  0  0  0  0
   -3.9875    2.9349    8.4672 O   0  0  0  0  0  0  0  0  0  0  0  0
   -4.0476    4.2841    6.1128 O   0  0  0  0  0  0  0  0  0  0  0  0
    1.1196    0.7572    6.3342 O   0  0  0  0  0  0  0  0  0  0  0  0
  1  2  1  0
  2  3  1  0
  3  4  1  0
  4  5  1  0
  5  6  2  0
  6  7  1  0
  7  8  2  0
  8  9  1  0
  9 10  2  0
  9 11  1  0
  8 12  1  0
  4 13  1  6
 10  5  1  0
M  CHG  1   2   1
M  END
$$$$
