
     RDKit          3D

 13 13  0  0  0  0  0  0  0  0999 V2000
    3.9263    1.8499    8.9628 C   0  0  0  0  0  0  0  0  0  0  0  0
    2.9661    1.2818    8.0305 N   0  0  0  0  0  4  0  0  0  0  0  0
    1.7165    1.9939    8.0336 C   0  0  0  0  0  0  0  0  0  0  0  0
    0.6311    1.2981    7.2735 C   0  0  1  0  0  0  0  0  0  0  0  0
   -0.6496    1.9994    7.2563 C   0  0  0  0  0  0  0  0  0  0  0  0
   -1.5189    1.8549    8.3166 C   0  0  0  0  0  0  0  0  0  0  0  0
   -2.7481    2.4931    8.3601 C   0  0  0  0  0  0  0  0  0  0  0  0
   -3.1280    3.2979    7.3236 C   0  0  0  0  0  0  0  0  0  0  0  0
   -2.2500    3.4479    6.2456 C   0  0  0  0  0  0  0  0  0  0  0  0
   -1.0277    2.8081    6.2114 C   0  0  0  0  0  0  0  0  0  0  0  0
   -2.6507    4.2704    5.1981 O   0  0  0  0  0  0  0  0  0  0  0  0
   -4.3457    3.9706    7.2966 O   0  0  0  0  0  0  0  0  0  0  0  0
    1.0835    1.0654    5.9778 O   0  0  0  0  0  0  0  0  0  0  0  0
  1  2  1  0
  2  3  1  0
  3  4  1  0
  4  5  1  0
  5  6  2  0
  6  7  1  0
  7  8  2  0
  8  9  1  0
  9 10  2  0
  9 11  1  0
  8 12  1  0
  4 13  1  6
 10  5  1  0
M  CHG  1   2   1
M  END
$$$$
