
     RDKit          3D

 13 13  0  0  0  0  0  0  0  0999 V2000
    3.5716    0.0551    6.8044 C   0  0  0  0  0  0  0  0  0  0  0  0
    2.7812    0.8235    7.7524 N   0  0  0  0  0  4  0  0  0  0  0  0
    1.5786    1.3463    7.1618 C   0  0  0  0  0  0  0  0  0  0  0  0
    0.7781    2.2004    8.0943 C   0  0  1  0  0  0  0  0  0  0  0  0
   -0.4460    2.7518    7.5199 C   0  0  0  0  0  0  0  0  0  0  0  0
   -0.4477    3.1877    6.2119 C   0  0  0  0  0  0  0  0  0  0  0  0
   -1.5760    3.7205    5.6092 C   0  0  0  0  0  0  0  0  0  0  0  0
   -2.7367    3.8249    6.3221 C   0  0  0  0  0  0  0  0  0  0  0  0
   -2.7403    3.3842    7.6493 C   0  0  0  0  0  0  0  0  0  0  0  0
   -1.6115    2.8550    8.2408 C   0  0  0  0  0  0  0  0  0  0  0  0
   -3.9293    3.4970    8.3621 O   0  0  0  0  0  0  0  0  0  0  0  0
   -3.9086    4.3486    5.7851 O   0  0  0  0  0  0  0  0  0  0  0  0
    0.4954    1.4565    9.2363 O   0  0  0  0  0  0  0  0  0  0  0  0
  1  2  1  0
  2  3  1  0
  3  4  1  0
  4  5  1  0
  5  6  2  0
  6  7  1  0
  7  8  2  0
  8  9  1  0
  9 10  2  0
  9 11  1  0
  8 12  1  0
  4 13  1  1
 10  5  1  0
M  CHG  1   2   1
M  END
$$$$
