
     RDKit          3D

 13 13  0  0  0  0  0  0  0  0999 V2000
    2.9927    0.4377    9.6429 C   0  0  0  0  0  0  0  0  0  0  0  0
    2.5728    0.8255    8.3061 N   0  0  0  0  0  4  0  0  0  0  0  0
    1.2661    1.4264    8.2981 C   0  0  0  0  0  0  0  0  0  0  0  0
    0.7944    1.8111    6.9308 C   0  0  1  0  0  0  0  0  0  0  0  0
   -0.4793    2.5247    6.9017 C   0  0  0  0  0  0  0  0  0  0  0  0
   -1.0317    2.8817    5.6900 C   0  0  0  0  0  0  0  0  0  0  0  0
   -2.2366    3.5595    5.5952 C   0  0  0  0  0  0  0  0  0  0  0  0
   -2.9145    3.8938    6.7332 C   0  0  0  0  0  0  0  0  0  0  0  0
   -2.3585    3.5341    7.9648 C   0  0  0  0  0  0  0  0  0  0  0  0
   -1.1579    2.8590    8.0491 C   0  0  0  0  0  0  0  0  0  0  0  0
   -3.0603    3.8813    9.1144 O   0  0  0  0  0  0  0  0  0  0  0  0
   -4.1285    4.5737    6.7172 O   0  0  0  0  0  0  0  0  0  0  0  0
    1.7940    2.5609    6.3173 O   0  0  0  0  0  0  0  0  0  0  0  0
  1  2  1  0
  2  3  1  0
  3  4  1  0
  4  5  1  0
  5  6  2  0
  6  7  1  0
  7  8  2  0
  8  9  1  0
  9 10  2  0
  9 11  1  0
  8 12  1  0
  4 13  1  1
 10  5  1  0
M  CHG  1   2   1
M  END
$$$$
