
     RDKit          3D

 13 13  0  0  0  0  0  0  0  0999 V2000
    3.8292    1.3101    9.0336 C   0  0  0  0  0  0  0  0  0  0  0  0
    2.8324    0.8190    8.0962 N   0  0  0  0  0  4  0  0  0  0  0  0
    1.6078    1.5706    8.1592 C   0  0  0  0  0  0  0  0  0  0  0  0
    0.4596    0.8996    7.4727 C   0  0  1  0  0  0  0  0  0  0  0  0
   -0.7816    1.6690    7.4634 C   0  0  0  0  0  0  0  0  0  0  0  0
   -1.6410    1.5873    8.5384 C   0  0  0  0  0  0  0  0  0  0  0  0
   -2.8331    2.2917    8.5900 C   0  0  0  0  0  0  0  0  0  0  0  0
   -3.1849    3.1008    7.5469 C   0  0  0  0  0  0  0  0  0  0  0  0
   -2.3168    3.1873    6.4541 C   0  0  0  0  0  0  0  0  0  0  0  0
   -1.1315    2.4818    6.4119 C   0  0  0  0  0  0  0  0  0  0  0  0
   -2.6886    4.0150    5.4000 O   0  0  0  0  0  0  0  0  0  0  0  0
   -4.3648    3.8381    7.5274 O   0  0  0  0  0  0  0  0  0  0  0  0
    0.8510    0.5793    6.1758 O   0  0  0  0  0  0  0  0  0  0  0  0
  1  2  1  0
  2  3  1  0
  3  4  1  0
  4  5  1  0
  5  6  2  0
  6  7  1  0
  7  8  2  0
  8  9  1  0
  9 10  2  0
  9 11  1  0
  8 12  1  0
  4 13  1  6
 10  5  1  0
M  CHG  1   2   1
M  END
$$$$
