
     RDKit          3D

 13 13  0  0  0  0  0  0  0  0999 V2000
    2.4826   -0.8525    8.8687 C   0  0  0  0  0  0  0  0  0  0  0  0
    2.3721    0.4502    8.2326 N   0  0  0  0  0  4  0  0  0  0  0  0
    1.0056    0.8805    8.1056 C   0  0  0  0  0  0  0  0  0  0  0  0
    0.8503    2.1559    7.3381 C   0  0  1  0  0  0  0  0  0  0  0  0
   -0.5315    2.5786    7.1277 C   0  0  0  0  0  0  0  0  0  0  0  0
   -0.9757    2.8410    5.8491 C   0  0  0  0  0  0  0  0  0  0  0  0
   -2.2742    3.2455    5.5835 C   0  0  0  0  0  0  0  0  0  0  0  0
   -3.1589    3.3945    6.6138 C   0  0  0  0  0  0  0  0  0  0  0  0
   -2.7135    3.1296    7.9126 C   0  0  0  0  0  0  0  0  0  0  0  0
   -1.4182    2.7273    8.1671 C   0  0  0  0  0  0  0  0  0  0  0  0
   -3.6257    3.2858    8.9508 O   0  0  0  0  0  0  0  0  0  0  0  0
   -4.4775    3.7968    6.4249 O   0  0  0  0  0  0  0  0  0  0  0  0
    1.5765    3.1497    7.9882 O   0  0  0  0  0  0  0  0  0  0  0  0
  1  2  1  0
  2  3  1  0
  3  4  1  0
  4  5  1  0
  5  6  2  0
  6  7  1  0
  7  8  2  0
  8  9  1  0
  9 10  2  0
  9 11  1  0
  8 12  1  0
  4 13  1  1
 10  5  1  0
M  CHG  1   2   1
M  END
$$$$
