
     RDKit          3D

 26 28  0  0  0  0  0  0  0  0999 V2000
    4.0801    1.3293    8.0151 C   0  0  0  0  0  0  0  0  0  0  0  0
    3.7790   -0.0710    7.6338 C   0  0  0  0  0  0  0  0  0  0  0  0
    2.9468   -0.8758    8.4072 C   0  0  0  0  0  0  0  0  0  0  0  0
    2.6468   -2.1612    8.0931 C   0  0  0  0  0  0  0  0  0  0  0  0
    3.2215   -2.6809    6.9182 C   0  0  0  0  0  0  0  0  0  0  0  0
    2.9755   -3.9723    6.5192 C   0  0  0  0  0  0  0  0  0  0  0  0
    3.5487   -4.4785    5.3545 C   0  0  0  0  0  0  0  0  0  0  0  0
    4.3610   -3.6525    4.6237 C   0  0  0  0  0  0  0  0  0  0  0  0
    4.6186   -2.3474    5.0135 C   0  0  0  0  0  0  0  0  0  0  0  0
    4.0562   -1.8568    6.1525 C   0  0  0  0  0  0  0  0  0  0  0  0
    4.3035   -0.5986    6.5299 N   0  0  0  0  0  0  0  0  0  0  0  0
    5.4391   -1.5806    4.2351 F   0  0  0  0  0  0  0  0  0  0  0  0
    3.3083   -5.7635    4.9509 F   0  0  0  0  0  0  0  0  0  0  0  0
    1.8101   -3.0053    8.8501 N   0  0  0  0  0  0  0  0  0  0  0  0
    0.6241   -2.5869    9.4960 C   0  0  0  0  0  0  0  0  0  0  0  0
    0.5901   -1.5740   10.1906 O   0  0  0  0  0  0  0  0  0  0  0  0
   -0.6005   -3.3261    9.3717 N   0  0  0  0  0  0  0  0  0  0  0  0
   -1.6389   -3.3004   10.3354 C   0  0  0  0  0  0  0  0  0  0  0  0
   -2.1543   -4.4032   10.9609 C   0  0  0  0  0  0  0  0  0  0  0  0
   -3.1680   -4.3316   11.8955 C   0  0  0  0  0  0  0  0  0  0  0  0
   -3.7031   -3.0953   12.2304 C   0  0  0  0  0  0  0  0  0  0  0  0
   -3.1968   -1.9738   11.6108 C   0  0  0  0  0  0  0  0  0  0  0  0
   -2.1714   -2.0721   10.6690 C   0  0  0  0  0  0  0  0  0  0  0  0
   -4.7374   -2.9658   13.1760 N   0  0  0  0  0  0  0  0  0  0  0  0
   -5.1952   -1.6506   13.5511 C   0  0  0  0  0  0  0  0  0  0  0  0
   -5.3511   -4.1227   13.7797 C   0  0  0  0  0  0  0  0  0  0  0  0
  1  2  1  0
  2  3  2  0
  3  4  1  0
  4  5  2  0
  5  6  1  0
  6  7  2  0
  7  8  1  0
  8  9  2  0
  9 10  1  0
 10 11  2  0
  9 12  1  0
  7 13  1  0
  4 14  1  0
 14 15  1  0
 15 16  2  0
 15 17  1  0
 17 18  1  0
 18 19  2  0
 19 20  1  0
 20 21  2  0
 21 22  1  0
 22 23  2  0
 21 24  1  0
 24 25  1  0
 24 26  1  0
 11  2  1  0
 10  5  1  0
 23 18  1  0
M  END
$$$$
