
     RDKit          3D

 26 28  0  0  0  0  0  0  0  0999 V2000
   -0.0876    2.4208    7.5093 C   0  0  0  0  0  0  0  0  0  0  0  0
    0.6272    1.1232    7.4602 C   0  0  0  0  0  0  0  0  0  0  0  0
    0.1692    0.0100    8.1599 C   0  0  0  0  0  0  0  0  0  0  0  0
    0.7940   -1.1942    8.1411 C   0  0  0  0  0  0  0  0  0  0  0  0
    1.9639   -1.2930    7.3651 C   0  0  0  0  0  0  0  0  0  0  0  0
    2.6648   -2.4721    7.2851 C   0  0  0  0  0  0  0  0  0  0  0  0
    3.8221   -2.5608    6.5144 C   0  0  0  0  0  0  0  0  0  0  0  0
    4.2370   -1.4416    5.8425 C   0  0  0  0  0  0  0  0  0  0  0  0
    3.5407   -0.2452    5.9135 C   0  0  0  0  0  0  0  0  0  0  0  0
    2.4100   -0.1629    6.6679 C   0  0  0  0  0  0  0  0  0  0  0  0
    1.7373    0.9900    6.7376 N   0  0  0  0  0  0  0  0  0  0  0  0
    4.0133    0.8309    5.2165 F   0  0  0  0  0  0  0  0  0  0  0  0
    4.5252   -3.7315    6.4300 F   0  0  0  0  0  0  0  0  0  0  0  0
    0.3612   -2.3416    8.8352 N   0  0  0  0  0  0  0  0  0  0  0  0
   -0.6301   -2.3410    9.8432 C   0  0  0  0  0  0  0  0  0  0  0  0
   -0.3996   -1.9226   10.9753 O   0  0  0  0  0  0  0  0  0  0  0  0
   -1.9567   -2.8299    9.5932 N   0  0  0  0  0  0  0  0  0  0  0  0
   -2.9567   -2.9437   10.5905 C   0  0  0  0  0  0  0  0  0  0  0  0
   -2.9198   -2.3249   11.8107 C   0  0  0  0  0  0  0  0  0  0  0  0
   -3.9182   -2.4642   12.7541 C   0  0  0  0  0  0  0  0  0  0  0  0
   -5.0179   -3.2632   12.4730 C   0  0  0  0  0  0  0  0  0  0  0  0
   -5.0724   -3.8942   11.2494 C   0  0  0  0  0  0  0  0  0  0  0  0
   -4.0501   -3.7376   10.3121 C   0  0  0  0  0  0  0  0  0  0  0  0
   -6.0631   -3.4398   13.3987 N   0  0  0  0  0  0  0  0  0  0  0  0
   -5.9868   -2.7950   14.6865 C   0  0  0  0  0  0  0  0  0  0  0  0
   -7.2120   -4.2536   13.0868 C   0  0  0  0  0  0  0  0  0  0  0  0
  1  2  1  0
  2  3  2  0
  3  4  1  0
  4  5  2  0
  5  6  1  0
  6  7  2  0
  7  8  1  0
  8  9  2  0
  9 10  1  0
 10 11  2  0
  9 12  1  0
  7 13  1  0
  4 14  1  0
 14 15  1  0
 15 16  2  0
 15 17  1  0
 17 18  1  0
 18 19  2  0
 19 20  1  0
 20 21  2  0
 21 22  1  0
 22 23  2  0
 21 24  1  0
 24 25  1  0
 24 26  1  0
 11  2  1  0
 10  5  1  0
 23 18  1  0
M  END
$$$$
