
     RDKit          3D

 26 28  0  0  0  0  0  0  0  0999 V2000
    4.4416   -5.1521    9.9507 C   0  0  0  0  0  0  0  0  0  0  0  0
    3.9598   -3.9683    9.2001 C   0  0  0  0  0  0  0  0  0  0  0  0
    2.7055   -3.4129    9.4386 C   0  0  0  0  0  0  0  0  0  0  0  0
    2.2281   -2.3308    8.7739 C   0  0  0  0  0  0  0  0  0  0  0  0
    3.0670   -1.7613    7.7979 C   0  0  0  0  0  0  0  0  0  0  0  0
    2.6695   -0.6635    7.0737 C   0  0  0  0  0  0  0  0  0  0  0  0
    3.5066   -0.1062    6.1093 C   0  0  0  0  0  0  0  0  0  0  0  0
    4.7319   -0.6841    5.9071 C   0  0  0  0  0  0  0  0  0  0  0  0
    5.1469   -1.7917    6.6298 C   0  0  0  0  0  0  0  0  0  0  0  0
    4.3255   -2.3331    7.5714 C   0  0  0  0  0  0  0  0  0  0  0  0
    4.7241   -3.4012    8.2692 N   0  0  0  0  0  0  0  0  0  0  0  0
    6.3828   -2.3156    6.3747 F   0  0  0  0  0  0  0  0  0  0  0  0
    3.1175    0.9869    5.3843 F   0  0  0  0  0  0  0  0  0  0  0  0
    0.9659   -1.7417    8.9873 N   0  0  0  0  0  0  0  0  0  0  0  0
    0.0046   -2.2197    9.9071 C   0  0  0  0  0  0  0  0  0  0  0  0
    0.2890   -3.0539   10.7632 O   0  0  0  0  0  0  0  0  0  0  0  0
   -1.3531   -1.7533    9.8859 N   0  0  0  0  0  0  0  0  0  0  0  0
   -2.3801   -2.2766   10.7099 C   0  0  0  0  0  0  0  0  0  0  0  0
   -2.3728   -3.5237   11.2736 C   0  0  0  0  0  0  0  0  0  0  0  0
   -3.3970   -3.9935   12.0715 C   0  0  0  0  0  0  0  0  0  0  0  0
   -4.4930   -3.1807   12.3262 C   0  0  0  0  0  0  0  0  0  0  0  0
   -4.5179   -1.9218   11.7670 C   0  0  0  0  0  0  0  0  0  0  0  0
   -3.4700   -1.4696   10.9637 C   0  0  0  0  0  0  0  0  0  0  0  0
   -5.5641   -3.6100   13.1319 N   0  0  0  0  0  0  0  0  0  0  0  0
   -6.6970   -2.7396   13.3290 C   0  0  0  0  0  0  0  0  0  0  0  0
   -5.5534   -4.9049   13.7665 C   0  0  0  0  0  0  0  0  0  0  0  0
  1  2  1  0
  2  3  2  0
  3  4  1  0
  4  5  2  0
  5  6  1  0
  6  7  2  0
  7  8  1  0
  8  9  2  0
  9 10  1  0
 10 11  2  0
  9 12  1  0
  7 13  1  0
  4 14  1  0
 14 15  1  0
 15 16  2  0
 15 17  1  0
 17 18  1  0
 18 19  2  0
 19 20  1  0
 20 21  2  0
 21 22  1  0
 22 23  2  0
 21 24  1  0
 24 25  1  0
 24 26  1  0
 11  2  1  0
 10  5  1  0
 23 18  1  0
M  END
$$$$
