
     RDKit          3D

 26 28  0  0  0  0  0  0  0  0999 V2000
   -0.2673    2.5443    7.4299 C   0  0  0  0  0  0  0  0  0  0  0  0
    0.4646    1.2554    7.4215 C   0  0  0  0  0  0  0  0  0  0  0  0
   -0.0186    0.1366    8.0948 C   0  0  0  0  0  0  0  0  0  0  0  0
    0.6206   -1.0600    8.1116 C   0  0  0  0  0  0  0  0  0  0  0  0
    1.8333   -1.1447    7.4025 C   0  0  0  0  0  0  0  0  0  0  0  0
    2.5516   -2.3152    7.3623 C   0  0  0  0  0  0  0  0  0  0  0  0
    3.7513   -2.3900    6.6577 C   0  0  0  0  0  0  0  0  0  0  0  0
    4.1898   -1.2657    6.0097 C   0  0  0  0  0  0  0  0  0  0  0  0
    3.4763   -0.0778    6.0411 C   0  0  0  0  0  0  0  0  0  0  0  0
    2.3042   -0.0092    6.7309 C   0  0  0  0  0  0  0  0  0  0  0  0
    1.6149    1.1356    6.7622 N   0  0  0  0  0  0  0  0  0  0  0  0
    3.9744    1.0041    5.3712 F   0  0  0  0  0  0  0  0  0  0  0  0
    4.4719   -3.5522    6.6134 F   0  0  0  0  0  0  0  0  0  0  0  0
    0.1633   -2.2127    8.7809 N   0  0  0  0  0  0  0  0  0  0  0  0
   -1.0955   -2.3239    9.4147 C   0  0  0  0  0  0  0  0  0  0  0  0
   -2.0340   -1.5875    9.1202 O   0  0  0  0  0  0  0  0  0  0  0  0
   -1.3394   -3.3040   10.4352 N   0  0  0  0  0  0  0  0  0  0  0  0
   -2.5721   -3.4397   11.1204 C   0  0  0  0  0  0  0  0  0  0  0  0
   -3.8062   -3.2752   10.5521 C   0  0  0  0  0  0  0  0  0  0  0  0
   -4.9837   -3.4173   11.2590 C   0  0  0  0  0  0  0  0  0  0  0  0
   -4.9365   -3.7412   12.6079 C   0  0  0  0  0  0  0  0  0  0  0  0
   -3.7028   -3.9107   13.1972 C   0  0  0  0  0  0  0  0  0  0  0  0
   -2.5263   -3.7617   12.4612 C   0  0  0  0  0  0  0  0  0  0  0  0
   -6.1061   -3.8975   13.3750 N   0  0  0  0  0  0  0  0  0  0  0  0
   -6.0001   -4.2944   14.7575 C   0  0  0  0  0  0  0  0  0  0  0  0
   -7.4118   -3.6690   12.8072 C   0  0  0  0  0  0  0  0  0  0  0  0
  1  2  1  0
  2  3  2  0
  3  4  1  0
  4  5  2  0
  5  6  1  0
  6  7  2  0
  7  8  1  0
  8  9  2  0
  9 10  1  0
 10 11  2  0
  9 12  1  0
  7 13  1  0
  4 14  1  0
 14 15  1  0
 15 16  2  0
 15 17  1  0
 17 18  1  0
 18 19  2  0
 19 20  1  0
 20 21  2  0
 21 22  1  0
 22 23  2  0
 21 24  1  0
 24 25  1  0
 24 26  1  0
 11  2  1  0
 10  5  1  0
 23 18  1  0
M  END
$$$$
