
     RDKit          3D

 26 28  0  0  0  0  0  0  0  0999 V2000
    3.0795    1.2484   10.8796 C   0  0  0  0  0  0  0  0  0  0  0  0
    2.9538    0.1712    9.8692 C   0  0  0  0  0  0  0  0  0  0  0  0
    2.1235   -0.9278   10.0725 C   0  0  0  0  0  0  0  0  0  0  0  0
    1.9808   -1.9338    9.1734 C   0  0  0  0  0  0  0  0  0  0  0  0
    2.7236   -1.8338    7.9821 C   0  0  0  0  0  0  0  0  0  0  0  0
    2.6440   -2.8042    7.0128 C   0  0  0  0  0  0  0  0  0  0  0  0
    3.3830   -2.6971    5.8365 C   0  0  0  0  0  0  0  0  0  0  0  0
    4.1870   -1.5996    5.6776 C   0  0  0  0  0  0  0  0  0  0  0  0
    4.2777   -0.6124    6.6465 C   0  0  0  0  0  0  0  0  0  0  0  0
    3.5537   -0.7212    7.7946 C   0  0  0  0  0  0  0  0  0  0  0  0
    3.6400    0.2297    8.7300 N   0  0  0  0  0  0  0  0  0  0  0  0
    5.1005    0.4548    6.4200 F   0  0  0  0  0  0  0  0  0  0  0  0
    3.3088   -3.6595    4.8669 F   0  0  0  0  0  0  0  0  0  0  0  0
    1.1516   -3.0602    9.3438 N   0  0  0  0  0  0  0  0  0  0  0  0
    0.0059   -3.0929   10.1715 C   0  0  0  0  0  0  0  0  0  0  0  0
    0.0829   -3.3482   11.3709 O   0  0  0  0  0  0  0  0  0  0  0  0
   -1.3057   -2.8291    9.6504 N   0  0  0  0  0  0  0  0  0  0  0  0
   -2.4953   -2.9462   10.4112 C   0  0  0  0  0  0  0  0  0  0  0  0
   -3.6472   -2.2455   10.1764 C   0  0  0  0  0  0  0  0  0  0  0  0
   -4.7851   -2.3914   10.9447 C   0  0  0  0  0  0  0  0  0  0  0  0
   -4.7822   -3.2836   12.0081 C   0  0  0  0  0  0  0  0  0  0  0  0
   -3.6313   -3.9978   12.2598 C   0  0  0  0  0  0  0  0  0  0  0  0
   -2.4935   -3.8326   11.4684 C   0  0  0  0  0  0  0  0  0  0  0  0
   -5.9143   -3.4706   12.8230 N   0  0  0  0  0  0  0  0  0  0  0  0
   -7.1384   -2.7763   12.5072 C   0  0  0  0  0  0  0  0  0  0  0  0
   -5.8770   -4.3435   13.9702 C   0  0  0  0  0  0  0  0  0  0  0  0
  1  2  1  0
  2  3  2  0
  3  4  1  0
  4  5  2  0
  5  6  1  0
  6  7  2  0
  7  8  1  0
  8  9  2  0
  9 10  1  0
 10 11  2  0
  9 12  1  0
  7 13  1  0
  4 14  1  0
 14 15  1  0
 15 16  2  0
 15 17  1  0
 17 18  1  0
 18 19  2  0
 19 20  1  0
 20 21  2  0
 21 22  1  0
 22 23  2  0
 21 24  1  0
 24 25  1  0
 24 26  1  0
 11  2  1  0
 10  5  1  0
 23 18  1  0
M  END
$$$$
