
     RDKit          3D

 26 28  0  0  0  0  0  0  0  0999 V2000
    4.3029   -6.0730    8.3246 C   0  0  0  0  0  0  0  0  0  0  0  0
    3.9128   -4.6563    8.1308 C   0  0  0  0  0  0  0  0  0  0  0  0
    3.0279   -4.0175    8.9954 C   0  0  0  0  0  0  0  0  0  0  0  0
    2.6459   -2.7235    8.8527 C   0  0  0  0  0  0  0  0  0  0  0  0
    3.1890   -2.0150    7.7647 C   0  0  0  0  0  0  0  0  0  0  0  0
    2.8608   -0.7000    7.5392 C   0  0  0  0  0  0  0  0  0  0  0  0
    3.4033   -0.0064    6.4595 C   0  0  0  0  0  0  0  0  0  0  0  0
    4.2695   -0.6731    5.6341 C   0  0  0  0  0  0  0  0  0  0  0  0
    4.6102   -1.9995    5.8486 C   0  0  0  0  0  0  0  0  0  0  0  0
    4.0776   -2.6736    6.9052 C   0  0  0  0  0  0  0  0  0  0  0  0
    4.4050   -3.9527    7.1135 N   0  0  0  0  0  0  0  0  0  0  0  0
    5.4809   -2.6008    4.9841 F   0  0  0  0  0  0  0  0  0  0  0  0
    3.0810    1.3032    6.2288 F   0  0  0  0  0  0  0  0  0  0  0  0
    1.7538   -2.0440    9.7060 N   0  0  0  0  0  0  0  0  0  0  0  0
    0.5185   -2.5666   10.1526 C   0  0  0  0  0  0  0  0  0  0  0  0
    0.4319   -3.6905   10.6418 O   0  0  0  0  0  0  0  0  0  0  0  0
   -0.6972   -1.8089   10.0565 N   0  0  0  0  0  0  0  0  0  0  0  0
   -1.8980   -2.1556   10.7238 C   0  0  0  0  0  0  0  0  0  0  0  0
   -2.8507   -1.2635   11.1359 C   0  0  0  0  0  0  0  0  0  0  0  0
   -4.0080   -1.6464   11.7841 C   0  0  0  0  0  0  0  0  0  0  0  0
   -4.2357   -2.9917   12.0393 C   0  0  0  0  0  0  0  0  0  0  0  0
   -3.2876   -3.9045   11.6317 C   0  0  0  0  0  0  0  0  0  0  0  0
   -2.1253   -3.4925   10.9780 C   0  0  0  0  0  0  0  0  0  0  0  0
   -5.3980   -3.4361   12.6967 N   0  0  0  0  0  0  0  0  0  0  0  0
   -5.5824   -4.8463   12.9363 C   0  0  0  0  0  0  0  0  0  0  0  0
   -6.4115   -2.5096   13.1371 C   0  0  0  0  0  0  0  0  0  0  0  0
  1  2  1  0
  2  3  2  0
  3  4  1  0
  4  5  2  0
  5  6  1  0
  6  7  2  0
  7  8  1  0
  8  9  2  0
  9 10  1  0
 10 11  2  0
  9 12  1  0
  7 13  1  0
  4 14  1  0
 14 15  1  0
 15 16  2  0
 15 17  1  0
 17 18  1  0
 18 19  2  0
 19 20  1  0
 20 21  2  0
 21 22  1  0
 22 23  2  0
 21 24  1  0
 24 25  1  0
 24 26  1  0
 11  2  1  0
 10  5  1  0
 23 18  1  0
M  END
$$$$
