
     RDKit          3D

 26 28  0  0  0  0  0  0  0  0999 V2000
    5.1041   -4.9785   10.0436 C   0  0  0  0  0  0  0  0  0  0  0  0
    4.5893   -3.7834    9.3340 C   0  0  0  0  0  0  0  0  0  0  0  0
    3.5842   -2.9878    9.8775 C   0  0  0  0  0  0  0  0  0  0  0  0
    3.0861   -1.8869    9.2605 C   0  0  0  0  0  0  0  0  0  0  0  0
    3.6335   -1.5565    8.0067 C   0  0  0  0  0  0  0  0  0  0  0  0
    3.1926   -0.4595    7.3068 C   0  0  0  0  0  0  0  0  0  0  0  0
    3.7403   -0.1400    6.0661 C   0  0  0  0  0  0  0  0  0  0  0  0
    4.7268   -0.9496    5.5687 C   0  0  0  0  0  0  0  0  0  0  0  0
    5.1819   -2.0596    6.2631 C   0  0  0  0  0  0  0  0  0  0  0  0
    4.6439   -2.3682    7.4753 C   0  0  0  0  0  0  0  0  0  0  0  0
    5.0815   -3.4382    8.1462 N   0  0  0  0  0  0  0  0  0  0  0  0
    6.1693   -2.8223    5.7056 F   0  0  0  0  0  0  0  0  0  0  0  0
    3.3063    0.9508    5.3634 F   0  0  0  0  0  0  0  0  0  0  0  0
    2.0706   -1.0585    9.7784 N   0  0  0  0  0  0  0  0  0  0  0  0
    0.7715   -1.5013   10.1175 C   0  0  0  0  0  0  0  0  0  0  0  0
    0.5774   -2.2823   11.0459 O   0  0  0  0  0  0  0  0  0  0  0  0
   -0.3864   -1.0594    9.3926 N   0  0  0  0  0  0  0  0  0  0  0  0
   -1.6316   -0.7623    9.9999 C   0  0  0  0  0  0  0  0  0  0  0  0
   -2.5806    0.0715    9.4733 C   0  0  0  0  0  0  0  0  0  0  0  0
   -3.7823    0.3329   10.1007 C   0  0  0  0  0  0  0  0  0  0  0  0
   -4.0610   -0.2664   11.3213 C   0  0  0  0  0  0  0  0  0  0  0  0
   -3.1174   -1.1090   11.8670 C   0  0  0  0  0  0  0  0  0  0  0  0
   -1.9095   -1.3575   11.2131 C   0  0  0  0  0  0  0  0  0  0  0  0
   -5.2699   -0.0341   12.0034 N   0  0  0  0  0  0  0  0  0  0  0  0
   -6.2578    0.8392   11.4190 C   0  0  0  0  0  0  0  0  0  0  0  0
   -5.5432   -0.6520   13.2774 C   0  0  0  0  0  0  0  0  0  0  0  0
  1  2  1  0
  2  3  2  0
  3  4  1  0
  4  5  2  0
  5  6  1  0
  6  7  2  0
  7  8  1  0
  8  9  2  0
  9 10  1  0
 10 11  2  0
  9 12  1  0
  7 13  1  0
  4 14  1  0
 14 15  1  0
 15 16  2  0
 15 17  1  0
 17 18  1  0
 18 19  2  0
 19 20  1  0
 20 21  2  0
 21 22  1  0
 22 23  2  0
 21 24  1  0
 24 25  1  0
 24 26  1  0
 11  2  1  0
 10  5  1  0
 23 18  1  0
M  END
$$$$
