
     RDKit          3D

 26 28  0  0  0  0  0  0  0  0999 V2000
    4.6337   -4.9375    9.4648 C   0  0  0  0  0  0  0  0  0  0  0  0
    3.9662   -3.7391    8.9034 C   0  0  0  0  0  0  0  0  0  0  0  0
    2.7995   -3.2239    9.4618 C   0  0  0  0  0  0  0  0  0  0  0  0
    2.1586   -2.1301    8.9783 C   0  0  0  0  0  0  0  0  0  0  0  0
    2.7263   -1.5046    7.8526 C   0  0  0  0  0  0  0  0  0  0  0  0
    2.1483   -0.3911    7.2926 C   0  0  0  0  0  0  0  0  0  0  0  0
    2.7173    0.2216    6.1781 C   0  0  0  0  0  0  0  0  0  0  0  0
    3.8651   -0.3182    5.6610 C   0  0  0  0  0  0  0  0  0  0  0  0
    4.4598   -1.4410    6.2148 C   0  0  0  0  0  0  0  0  0  0  0  0
    3.9003   -2.0367    7.3041 C   0  0  0  0  0  0  0  0  0  0  0  0
    4.4725   -3.1196    7.8394 N   0  0  0  0  0  0  0  0  0  0  0  0
    5.6043   -1.9247    5.6460 F   0  0  0  0  0  0  0  0  0  0  0  0
    2.1472    1.3308    5.6152 F   0  0  0  0  0  0  0  0  0  0  0  0
    0.9777   -1.5804    9.5157 N   0  0  0  0  0  0  0  0  0  0  0  0
   -0.0766   -2.3390   10.0739 C   0  0  0  0  0  0  0  0  0  0  0  0
    0.1374   -3.2822   10.8317 O   0  0  0  0  0  0  0  0  0  0  0  0
   -1.4512   -2.0442    9.7822 N   0  0  0  0  0  0  0  0  0  0  0  0
   -2.5281   -2.3708   10.6432 C   0  0  0  0  0  0  0  0  0  0  0  0
   -3.5293   -1.5111   11.0058 C   0  0  0  0  0  0  0  0  0  0  0  0
   -4.5611   -1.8725   11.8490 C   0  0  0  0  0  0  0  0  0  0  0  0
   -4.6042   -3.1610   12.3635 C   0  0  0  0  0  0  0  0  0  0  0  0
   -3.6046   -4.0405   12.0095 C   0  0  0  0  0  0  0  0  0  0  0  0
   -2.5719   -3.6512   11.1551 C   0  0  0  0  0  0  0  0  0  0  0  0
   -5.6328   -3.5813   13.2272 N   0  0  0  0  0  0  0  0  0  0  0  0
   -5.6213   -4.9287   13.7413 C   0  0  0  0  0  0  0  0  0  0  0  0
   -6.7011   -2.6916   13.6103 C   0  0  0  0  0  0  0  0  0  0  0  0
  1  2  1  0
  2  3  2  0
  3  4  1  0
  4  5  2  0
  5  6  1  0
  6  7  2  0
  7  8  1  0
  8  9  2  0
  9 10  1  0
 10 11  2  0
  9 12  1  0
  7 13  1  0
  4 14  1  0
 14 15  1  0
 15 16  2  0
 15 17  1  0
 17 18  1  0
 18 19  2  0
 19 20  1  0
 20 21  2  0
 21 22  1  0
 22 23  2  0
 21 24  1  0
 24 25  1  0
 24 26  1  0
 11  2  1  0
 10  5  1  0
 23 18  1  0
M  END
$$$$
