
     RDKit          3D

 26 28  0  0  0  0  0  0  0  0999 V2000
    4.5169   -5.4471    9.1379 C   0  0  0  0  0  0  0  0  0  0  0  0
    3.9906   -4.1371    8.6864 C   0  0  0  0  0  0  0  0  0  0  0  0
    2.9430   -3.5031    9.3491 C   0  0  0  0  0  0  0  0  0  0  0  0
    2.4331   -2.3050    8.9679 C   0  0  0  0  0  0  0  0  0  0  0  0
    3.0135   -1.6951    7.8401 C   0  0  0  0  0  0  0  0  0  0  0  0
    2.5638   -0.4814    7.3796 C   0  0  0  0  0  0  0  0  0  0  0  0
    3.1443    0.1151    6.2622 C   0  0  0  0  0  0  0  0  0  0  0  0
    4.1722   -0.5432    5.6406 C   0  0  0  0  0  0  0  0  0  0  0  0
    4.6368   -1.7681    6.0935 C   0  0  0  0  0  0  0  0  0  0  0  0
    4.0664   -2.3474    7.1859 C   0  0  0  0  0  0  0  0  0  0  0  0
    4.5132   -3.5286    7.6240 N   0  0  0  0  0  0  0  0  0  0  0  0
    5.6660   -2.3673    5.4235 F   0  0  0  0  0  0  0  0  0  0  0  0
    2.7017    1.3236    5.7979 F   0  0  0  0  0  0  0  0  0  0  0  0
    1.3750   -1.6336    9.6124 N   0  0  0  0  0  0  0  0  0  0  0  0
    0.2356   -2.2704   10.1554 C   0  0  0  0  0  0  0  0  0  0  0  0
    0.1748   -3.4916   10.2768 O   0  0  0  0  0  0  0  0  0  0  0  0
   -0.9082   -1.5204   10.5920 N   0  0  0  0  0  0  0  0  0  0  0  0
   -2.0432   -2.1009   11.2105 C   0  0  0  0  0  0  0  0  0  0  0  0
   -2.0775   -3.3496   11.7697 C   0  0  0  0  0  0  0  0  0  0  0  0
   -3.2076   -3.8762   12.3628 C   0  0  0  0  0  0  0  0  0  0  0  0
   -4.3723   -3.1222   12.4048 C   0  0  0  0  0  0  0  0  0  0  0  0
   -4.3566   -1.8627   11.8468 C   0  0  0  0  0  0  0  0  0  0  0  0
   -3.2013   -1.3523   11.2527 C   0  0  0  0  0  0  0  0  0  0  0  0
   -5.5519   -3.6109   12.9968 N   0  0  0  0  0  0  0  0  0  0  0  0
   -5.5577   -4.9277   13.5850 C   0  0  0  0  0  0  0  0  0  0  0  0
   -6.7583   -2.8216   13.0280 C   0  0  0  0  0  0  0  0  0  0  0  0
  1  2  1  0
  2  3  2  0
  3  4  1  0
  4  5  2  0
  5  6  1  0
  6  7  2  0
  7  8  1  0
  8  9  2  0
  9 10  1  0
 10 11  2  0
  9 12  1  0
  7 13  1  0
  4 14  1  0
 14 15  1  0
 15 16  2  0
 15 17  1  0
 17 18  1  0
 18 19  2  0
 19 20  1  0
 20 21  2  0
 21 22  1  0
 22 23  2  0
 21 24  1  0
 24 25  1  0
 24 26  1  0
 11  2  1  0
 10  5  1  0
 23 18  1  0
M  END
$$$$
