
     RDKit          3D

 26 28  0  0  0  0  0  0  0  0999 V2000
    5.0368   -4.5273    9.7741 C   0  0  0  0  0  0  0  0  0  0  0  0
    4.1196   -3.5593    9.1269 C   0  0  0  0  0  0  0  0  0  0  0  0
    2.7637   -3.5160    9.4404 C   0  0  0  0  0  0  0  0  0  0  0  0
    1.8920   -2.6461    8.8711 C   0  0  0  0  0  0  0  0  0  0  0  0
    2.4145   -1.7528    7.9173 C   0  0  0  0  0  0  0  0  0  0  0  0
    1.6083   -0.8356    7.2876 C   0  0  0  0  0  0  0  0  0  0  0  0
    2.1342    0.0450    6.3446 C   0  0  0  0  0  0  0  0  0  0  0  0
    3.4732   -0.0321    6.0665 C   0  0  0  0  0  0  0  0  0  0  0  0
    4.2992   -0.9519    6.6934 C   0  0  0  0  0  0  0  0  0  0  0  0
    3.7809   -1.8107    7.6144 C   0  0  0  0  0  0  0  0  0  0  0  0
    4.5759   -2.6983    8.2200 N   0  0  0  0  0  0  0  0  0  0  0  0
    5.6257   -0.9718    6.3662 F   0  0  0  0  0  0  0  0  0  0  0  0
    1.3375    0.9610    5.7136 F   0  0  0  0  0  0  0  0  0  0  0  0
    0.5152   -2.5727    9.1622 N   0  0  0  0  0  0  0  0  0  0  0  0
   -0.0428   -2.7664   10.4466 C   0  0  0  0  0  0  0  0  0  0  0  0
    0.2533   -3.7369   11.1397 O   0  0  0  0  0  0  0  0  0  0  0  0
   -0.9843   -1.8374   11.0052 N   0  0  0  0  0  0  0  0  0  0  0  0
   -2.2273   -2.2169   11.5696 C   0  0  0  0  0  0  0  0  0  0  0  0
   -3.3385   -1.4198   11.6243 C   0  0  0  0  0  0  0  0  0  0  0  0
   -4.5313   -1.8313   12.1847 C   0  0  0  0  0  0  0  0  0  0  0  0
   -4.6298   -3.1071   12.7226 C   0  0  0  0  0  0  0  0  0  0  0  0
   -3.5212   -3.9239   12.6766 C   0  0  0  0  0  0  0  0  0  0  0  0
   -2.3262   -3.4848   12.1045 C   0  0  0  0  0  0  0  0  0  0  0  0
   -5.8213   -3.5767   13.3060 N   0  0  0  0  0  0  0  0  0  0  0  0
   -6.9659   -2.7026   13.3835 C   0  0  0  0  0  0  0  0  0  0  0  0
   -5.9231   -4.9165   13.8296 C   0  0  0  0  0  0  0  0  0  0  0  0
  1  2  1  0
  2  3  2  0
  3  4  1  0
  4  5  2  0
  5  6  1  0
  6  7  2  0
  7  8  1  0
  8  9  2  0
  9 10  1  0
 10 11  2  0
  9 12  1  0
  7 13  1  0
  4 14  1  0
 14 15  1  0
 15 16  2  0
 15 17  1  0
 17 18  1  0
 18 19  2  0
 19 20  1  0
 20 21  2  0
 21 22  1  0
 22 23  2  0
 21 24  1  0
 24 25  1  0
 24 26  1  0
 11  2  1  0
 10  5  1  0
 23 18  1  0
M  END
$$$$
