
     RDKit          3D

 26 28  0  0  0  0  0  0  0  0999 V2000
   -0.2840    0.5643    6.0865 C   0  0  0  0  0  0  0  0  0  0  0  0
    0.8119   -0.2267    6.6952 C   0  0  0  0  0  0  0  0  0  0  0  0
    0.5715   -1.1444    7.7143 C   0  0  0  0  0  0  0  0  0  0  0  0
    1.5459   -1.8871    8.2971 C   0  0  0  0  0  0  0  0  0  0  0  0
    2.8586   -1.6984    7.8261 C   0  0  0  0  0  0  0  0  0  0  0  0
    3.9109   -2.4056    8.3555 C   0  0  0  0  0  0  0  0  0  0  0  0
    5.2074   -2.2124    7.8830 C   0  0  0  0  0  0  0  0  0  0  0  0
    5.3988   -1.2999    6.8795 C   0  0  0  0  0  0  0  0  0  0  0  0
    4.3473   -0.5790    6.3356 C   0  0  0  0  0  0  0  0  0  0  0  0
    3.0819   -0.7710    6.8003 C   0  0  0  0  0  0  0  0  0  0  0  0
    2.0667   -0.0766    6.2769 N   0  0  0  0  0  0  0  0  0  0  0  0
    4.6127    0.3148    5.3366 F   0  0  0  0  0  0  0  0  0  0  0  0
    6.2601   -2.9131    8.4053 F   0  0  0  0  0  0  0  0  0  0  0  0
    1.3413   -2.8241    9.3295 N   0  0  0  0  0  0  0  0  0  0  0  0
    0.0743   -3.1911    9.8379 C   0  0  0  0  0  0  0  0  0  0  0  0
   -0.7104   -3.8744    9.1844 O   0  0  0  0  0  0  0  0  0  0  0  0
   -0.3584   -2.7829   11.1447 N   0  0  0  0  0  0  0  0  0  0  0  0
   -1.7121   -2.7817   11.5630 C   0  0  0  0  0  0  0  0  0  0  0  0
   -2.6774   -3.6313   11.0943 C   0  0  0  0  0  0  0  0  0  0  0  0
   -3.9867   -3.5946   11.5309 C   0  0  0  0  0  0  0  0  0  0  0  0
   -4.3625   -2.6619   12.4877 C   0  0  0  0  0  0  0  0  0  0  0  0
   -3.4042   -1.7982   12.9713 C   0  0  0  0  0  0  0  0  0  0  0  0
   -2.0867   -1.8551   12.5140 C   0  0  0  0  0  0  0  0  0  0  0  0
   -5.6833   -2.5812   12.9670 N   0  0  0  0  0  0  0  0  0  0  0  0
   -6.6935   -3.4483   12.4124 C   0  0  0  0  0  0  0  0  0  0  0  0
   -6.0496   -1.6478   14.0034 C   0  0  0  0  0  0  0  0  0  0  0  0
  1  2  1  0
  2  3  2  0
  3  4  1  0
  4  5  2  0
  5  6  1  0
  6  7  2  0
  7  8  1  0
  8  9  2  0
  9 10  1  0
 10 11  2  0
  9 12  1  0
  7 13  1  0
  4 14  1  0
 14 15  1  0
 15 16  2  0
 15 17  1  0
 17 18  1  0
 18 19  2  0
 19 20  1  0
 20 21  2  0
 21 22  1  0
 22 23  2  0
 21 24  1  0
 24 25  1  0
 24 26  1  0
 11  2  1  0
 10  5  1  0
 23 18  1  0
M  END
$$$$
