
     RDKit          3D

 26 28  0  0  0  0  0  0  0  0999 V2000
    4.1301   -3.7614    8.1043 C   0  0  0  0  0  0  0  0  0  0  0  0
    3.2349   -2.5824    8.0303 C   0  0  0  0  0  0  0  0  0  0  0  0
    2.2634   -2.3409    8.9980 C   0  0  0  0  0  0  0  0  0  0  0  0
    1.4253   -1.2745    8.9665 C   0  0  0  0  0  0  0  0  0  0  0  0
    1.5689   -0.3828    7.8872 C   0  0  0  0  0  0  0  0  0  0  0  0
    0.7652    0.7254    7.7705 C   0  0  0  0  0  0  0  0  0  0  0  0
    0.9145    1.6028    6.6985 C   0  0  0  0  0  0  0  0  0  0  0  0
    1.8825    1.3273    5.7695 C   0  0  0  0  0  0  0  0  0  0  0  0
    2.7009    0.2134    5.8736 C   0  0  0  0  0  0  0  0  0  0  0  0
    2.5516   -0.6415    6.9230 C   0  0  0  0  0  0  0  0  0  0  0  0
    3.3398   -1.7161    7.0249 N   0  0  0  0  0  0  0  0  0  0  0  0
    3.6457    0.0016    4.9094 F   0  0  0  0  0  0  0  0  0  0  0  0
    0.1178    2.7084    6.5758 F   0  0  0  0  0  0  0  0  0  0  0  0
    0.4313   -0.9975    9.9261 N   0  0  0  0  0  0  0  0  0  0  0  0
   -0.3994   -1.9735   10.5228 C   0  0  0  0  0  0  0  0  0  0  0  0
    0.0349   -2.7746   11.3469 O   0  0  0  0  0  0  0  0  0  0  0  0
   -1.7934   -2.0766   10.1946 N   0  0  0  0  0  0  0  0  0  0  0  0
   -2.7738   -2.6022   11.0721 C   0  0  0  0  0  0  0  0  0  0  0  0
   -2.5728   -3.6431   11.9377 C   0  0  0  0  0  0  0  0  0  0  0  0
   -3.5586   -4.1238   12.7764 C   0  0  0  0  0  0  0  0  0  0  0  0
   -4.8176   -3.5395   12.7570 C   0  0  0  0  0  0  0  0  0  0  0  0
   -5.0385   -2.4902   11.8919 C   0  0  0  0  0  0  0  0  0  0  0  0
   -4.0255   -2.0222   11.0536 C   0  0  0  0  0  0  0  0  0  0  0  0
   -5.8581   -3.9905   13.5904 N   0  0  0  0  0  0  0  0  0  0  0  0
   -7.1246   -3.3007   13.5805 C   0  0  0  0  0  0  0  0  0  0  0  0
   -5.6849   -5.1303   14.4566 C   0  0  0  0  0  0  0  0  0  0  0  0
  1  2  1  0
  2  3  2  0
  3  4  1  0
  4  5  2  0
  5  6  1  0
  6  7  2  0
  7  8  1  0
  8  9  2  0
  9 10  1  0
 10 11  2  0
  9 12  1  0
  7 13  1  0
  4 14  1  0
 14 15  1  0
 15 16  2  0
 15 17  1  0
 17 18  1  0
 18 19  2  0
 19 20  1  0
 20 21  2  0
 21 22  1  0
 22 23  2  0
 21 24  1  0
 24 25  1  0
 24 26  1  0
 11  2  1  0
 10  5  1  0
 23 18  1  0
M  END
$$$$
