
     RDKit          3D

 26 28  0  0  0  0  0  0  0  0999 V2000
   -3.0760    1.7941   10.4355 C   0  0  0  0  0  0  0  0  0  0  0  0
   -3.1603    0.3998   10.9313 C   0  0  0  0  0  0  0  0  0  0  0  0
   -2.1141   -0.5020   10.7567 C   0  0  0  0  0  0  0  0  0  0  0  0
   -2.1520   -1.7854   11.1952 C   0  0  0  0  0  0  0  0  0  0  0  0
   -3.3230   -2.1981   11.8577 C   0  0  0  0  0  0  0  0  0  0  0  0
   -3.4532   -3.4792   12.3369 C   0  0  0  0  0  0  0  0  0  0  0  0
   -4.6163   -3.8791   12.9915 C   0  0  0  0  0  0  0  0  0  0  0  0
   -5.6206   -2.9599   13.1416 C   0  0  0  0  0  0  0  0  0  0  0  0
   -5.5040   -1.6640   12.6636 C   0  0  0  0  0  0  0  0  0  0  0  0
   -4.3654   -1.2774   12.0244 C   0  0  0  0  0  0  0  0  0  0  0  0
   -4.2513   -0.0282   11.5628 N   0  0  0  0  0  0  0  0  0  0  0  0
   -6.5466   -0.8004   12.8492 F   0  0  0  0  0  0  0  0  0  0  0  0
   -4.7530   -5.1531   13.4714 F   0  0  0  0  0  0  0  0  0  0  0  0
   -1.1145   -2.7258   11.0370 N   0  0  0  0  0  0  0  0  0  0  0  0
    0.2393   -2.3925   10.8035 C   0  0  0  0  0  0  0  0  0  0  0  0
    0.7159   -1.3248   11.1812 O   0  0  0  0  0  0  0  0  0  0  0  0
    1.1253   -3.2865   10.1125 N   0  0  0  0  0  0  0  0  0  0  0  0
    2.0568   -2.8706    9.1292 C   0  0  0  0  0  0  0  0  0  0  0  0
    2.4578   -1.5777    8.9274 C   0  0  0  0  0  0  0  0  0  0  0  0
    3.3697   -1.2170    7.9556 C   0  0  0  0  0  0  0  0  0  0  0  0
    3.9169   -2.1939    7.1351 C   0  0  0  0  0  0  0  0  0  0  0  0
    3.5250   -3.5012    7.3236 C   0  0  0  0  0  0  0  0  0  0  0  0
    2.6013   -3.8408    8.3133 C   0  0  0  0  0  0  0  0  0  0  0  0
    4.8499   -1.8809    6.1291 N   0  0  0  0  0  0  0  0  0  0  0  0
    5.2033   -0.5027    5.8930 C   0  0  0  0  0  0  0  0  0  0  0  0
    5.4619   -2.9111    5.3267 C   0  0  0  0  0  0  0  0  0  0  0  0
  1  2  1  0
  2  3  2  0
  3  4  1  0
  4  5  2  0
  5  6  1  0
  6  7  2  0
  7  8  1  0
  8  9  2  0
  9 10  1  0
 10 11  2  0
  9 12  1  0
  7 13  1  0
  4 14  1  0
 14 15  1  0
 15 16  2  0
 15 17  1  0
 17 18  1  0
 18 19  2  0
 19 20  1  0
 20 21  2  0
 21 22  1  0
 22 23  2  0
 21 24  1  0
 24 25  1  0
 24 26  1  0
 11  2  1  0
 10  5  1  0
 23 18  1  0
M  END
$$$$
