
     RDKit          3D

 26 28  0  0  0  0  0  0  0  0999 V2000
   -0.0208    2.4069    6.8494 C   0  0  0  0  0  0  0  0  0  0  0  0
    0.7296    1.1516    7.0906 C   0  0  0  0  0  0  0  0  0  0  0  0
    0.2425    0.1609    7.9389 C   0  0  0  0  0  0  0  0  0  0  0  0
    0.8982   -1.0010    8.1859 C   0  0  0  0  0  0  0  0  0  0  0  0
    2.1330   -1.1863    7.5366 C   0  0  0  0  0  0  0  0  0  0  0  0
    2.8690   -2.3310    7.7251 C   0  0  0  0  0  0  0  0  0  0  0  0
    4.0905   -2.5060    7.0781 C   0  0  0  0  0  0  0  0  0  0  0  0
    4.5322   -1.5062    6.2526 C   0  0  0  0  0  0  0  0  0  0  0  0
    3.8009   -0.3459    6.0524 C   0  0  0  0  0  0  0  0  0  0  0  0
    2.6076   -0.1790    6.6867 C   0  0  0  0  0  0  0  0  0  0  0  0
    1.9011    0.9394    6.4949 N   0  0  0  0  0  0  0  0  0  0  0  0
    4.3034    0.6095    5.2145 F   0  0  0  0  0  0  0  0  0  0  0  0
    4.8289   -3.6432    7.2611 F   0  0  0  0  0  0  0  0  0  0  0  0
    0.4375   -2.0253    9.0369 N   0  0  0  0  0  0  0  0  0  0  0  0
   -0.7673   -1.9718    9.7746 C   0  0  0  0  0  0  0  0  0  0  0  0
   -1.7030   -1.2529    9.4318 O   0  0  0  0  0  0  0  0  0  0  0  0
   -0.9572   -2.7561   10.9622 N   0  0  0  0  0  0  0  0  0  0  0  0
   -2.2162   -2.9625   11.5785 C   0  0  0  0  0  0  0  0  0  0  0  0
   -3.3215   -2.1794   11.3833 C   0  0  0  0  0  0  0  0  0  0  0  0
   -4.5305   -2.4179   12.0060 C   0  0  0  0  0  0  0  0  0  0  0  0
   -4.6524   -3.4950   12.8730 C   0  0  0  0  0  0  0  0  0  0  0  0
   -3.5500   -4.2946   13.0819 C   0  0  0  0  0  0  0  0  0  0  0  0
   -2.3383   -4.0329   12.4404 C   0  0  0  0  0  0  0  0  0  0  0  0
   -5.8611   -3.7829   13.5337 N   0  0  0  0  0  0  0  0  0  0  0  0
   -5.9072   -4.8604   14.4912 C   0  0  0  0  0  0  0  0  0  0  0  0
   -7.0581   -3.0219   13.2735 C   0  0  0  0  0  0  0  0  0  0  0  0
  1  2  1  0
  2  3  2  0
  3  4  1  0
  4  5  2  0
  5  6  1  0
  6  7  2  0
  7  8  1  0
  8  9  2  0
  9 10  1  0
 10 11  2  0
  9 12  1  0
  7 13  1  0
  4 14  1  0
 14 15  1  0
 15 16  2  0
 15 17  1  0
 17 18  1  0
 18 19  2  0
 19 20  1  0
 20 21  2  0
 21 22  1  0
 22 23  2  0
 21 24  1  0
 24 25  1  0
 24 26  1  0
 11  2  1  0
 10  5  1  0
 23 18  1  0
M  END
$$$$
