
     RDKit          3D

 26 28  0  0  0  0  0  0  0  0999 V2000
    6.0615   -1.1153    9.6062 C   0  0  0  0  0  0  0  0  0  0  0  0
    4.8121   -1.5307    8.9255 C   0  0  0  0  0  0  0  0  0  0  0  0
    3.8979   -2.3860    9.5348 C   0  0  0  0  0  0  0  0  0  0  0  0
    2.7441   -2.7895    8.9461 C   0  0  0  0  0  0  0  0  0  0  0  0
    2.4846   -2.3017    7.6517 C   0  0  0  0  0  0  0  0  0  0  0  0
    1.3418   -2.6553    6.9760 C   0  0  0  0  0  0  0  0  0  0  0  0
    1.0931   -2.1676    5.6948 C   0  0  0  0  0  0  0  0  0  0  0  0
    2.0189   -1.3289    5.1329 C   0  0  0  0  0  0  0  0  0  0  0  0
    3.1764   -0.9632    5.8021 C   0  0  0  0  0  0  0  0  0  0  0  0
    3.4155   -1.4422    7.0542 C   0  0  0  0  0  0  0  0  0  0  0  0
    4.5311   -1.0906    7.7009 N   0  0  0  0  0  0  0  0  0  0  0  0
    4.0557   -0.1225    5.1797 F   0  0  0  0  0  0  0  0  0  0  0  0
   -0.0428   -2.5154    5.0159 F   0  0  0  0  0  0  0  0  0  0  0  0
    1.7961   -3.6529    9.5304 N   0  0  0  0  0  0  0  0  0  0  0  0
    0.5813   -3.2291   10.1164 C   0  0  0  0  0  0  0  0  0  0  0  0
    0.1348   -2.0994    9.9314 O   0  0  0  0  0  0  0  0  0  0  0  0
   -0.1914   -4.0991   10.9575 N   0  0  0  0  0  0  0  0  0  0  0  0
   -1.4725   -3.7714   11.4663 C   0  0  0  0  0  0  0  0  0  0  0  0
   -2.2403   -4.5951   12.2443 C   0  0  0  0  0  0  0  0  0  0  0  0
   -3.4855   -4.2342   12.7191 C   0  0  0  0  0  0  0  0  0  0  0  0
   -4.0009   -2.9841   12.4051 C   0  0  0  0  0  0  0  0  0  0  0  0
   -3.2422   -2.1413   11.6229 C   0  0  0  0  0  0  0  0  0  0  0  0
   -1.9857   -2.5292   11.1549 C   0  0  0  0  0  0  0  0  0  0  0  0
   -5.2646   -2.5662   12.8625 N   0  0  0  0  0  0  0  0  0  0  0  0
   -6.0568   -3.4585   13.6725 C   0  0  0  0  0  0  0  0  0  0  0  0
   -5.7860   -1.2614   12.5380 C   0  0  0  0  0  0  0  0  0  0  0  0
  1  2  1  0
  2  3  2  0
  3  4  1  0
  4  5  2  0
  5  6  1  0
  6  7  2  0
  7  8  1  0
  8  9  2  0
  9 10  1  0
 10 11  2  0
  9 12  1  0
  7 13  1  0
  4 14  1  0
 14 15  1  0
 15 16  2  0
 15 17  1  0
 17 18  1  0
 18 19  2  0
 19 20  1  0
 20 21  2  0
 21 22  1  0
 22 23  2  0
 21 24  1  0
 24 25  1  0
 24 26  1  0
 11  2  1  0
 10  5  1  0
 23 18  1  0
M  END
$$$$
