
     RDKit          3D

 26 28  0  0  0  0  0  0  0  0999 V2000
   -2.8145    1.9565   11.8823 C   0  0  0  0  0  0  0  0  0  0  0  0
   -2.9762    0.4855   11.7984 C   0  0  0  0  0  0  0  0  0  0  0  0
   -1.9820   -0.3293   11.2634 C   0  0  0  0  0  0  0  0  0  0  0  0
   -2.0913   -1.6784   11.1688 C   0  0  0  0  0  0  0  0  0  0  0  0
   -3.2832   -2.2561   11.6444 C   0  0  0  0  0  0  0  0  0  0  0  0
   -3.4844   -3.6141   11.5903 C   0  0  0  0  0  0  0  0  0  0  0  0
   -4.6677   -4.1774   12.0635 C   0  0  0  0  0  0  0  0  0  0  0  0
   -5.6191   -3.3392   12.5816 C   0  0  0  0  0  0  0  0  0  0  0  0
   -5.4305   -1.9673   12.6429 C   0  0  0  0  0  0  0  0  0  0  0  0
   -4.2725   -1.4210   12.1793 C   0  0  0  0  0  0  0  0  0  0  0  0
   -4.0891   -0.0983   12.2376 N   0  0  0  0  0  0  0  0  0  0  0  0
   -6.4232   -1.1922   13.1729 F   0  0  0  0  0  0  0  0  0  0  0  0
   -4.8750   -5.5289   12.0128 F   0  0  0  0  0  0  0  0  0  0  0  0
   -1.1080   -2.5346   10.6343 N   0  0  0  0  0  0  0  0  0  0  0  0
    0.0681   -2.0956    9.9841 C   0  0  0  0  0  0  0  0  0  0  0  0
    1.1368   -1.9943   10.5818 O   0  0  0  0  0  0  0  0  0  0  0  0
    0.0714   -1.7460    8.5916 N   0  0  0  0  0  0  0  0  0  0  0  0
    1.2063   -1.8629    7.7514 C   0  0  0  0  0  0  0  0  0  0  0  0
    1.5144   -1.0081    6.7279 C   0  0  0  0  0  0  0  0  0  0  0  0
    2.6330   -1.1604    5.9330 C   0  0  0  0  0  0  0  0  0  0  0  0
    3.4974   -2.2213    6.1650 C   0  0  0  0  0  0  0  0  0  0  0  0
    3.2035   -3.0923    7.1913 C   0  0  0  0  0  0  0  0  0  0  0  0
    2.0662   -2.9171    7.9812 C   0  0  0  0  0  0  0  0  0  0  0  0
    4.6511   -2.4231    5.3847 N   0  0  0  0  0  0  0  0  0  0  0  0
    5.0642   -1.4033    4.4522 C   0  0  0  0  0  0  0  0  0  0  0  0
    5.4314   -3.6305    5.4974 C   0  0  0  0  0  0  0  0  0  0  0  0
  1  2  1  0
  2  3  2  0
  3  4  1  0
  4  5  2  0
  5  6  1  0
  6  7  2  0
  7  8  1  0
  8  9  2  0
  9 10  1  0
 10 11  2  0
  9 12  1  0
  7 13  1  0
  4 14  1  0
 14 15  1  0
 15 16  2  0
 15 17  1  0
 17 18  1  0
 18 19  2  0
 19 20  1  0
 20 21  2  0
 21 22  1  0
 22 23  2  0
 21 24  1  0
 24 25  1  0
 24 26  1  0
 11  2  1  0
 10  5  1  0
 23 18  1  0
M  END
$$$$
