
     RDKit          3D

 26 28  0  0  0  0  0  0  0  0999 V2000
    5.8415   -1.4384    8.1668 C   0  0  0  0  0  0  0  0  0  0  0  0
    4.3955   -1.5890    7.8784 C   0  0  0  0  0  0  0  0  0  0  0  0
    3.6146   -2.5368    8.5345 C   0  0  0  0  0  0  0  0  0  0  0  0
    2.2892   -2.7061    8.2995 C   0  0  0  0  0  0  0  0  0  0  0  0
    1.7002   -1.8653    7.3368 C   0  0  0  0  0  0  0  0  0  0  0  0
    0.3642   -1.9630    7.0315 C   0  0  0  0  0  0  0  0  0  0  0  0
   -0.2105   -1.1264    6.0769 C   0  0  0  0  0  0  0  0  0  0  0  0
    0.5941   -0.2083    5.4557 C   0  0  0  0  0  0  0  0  0  0  0  0
    1.9435   -0.0979    5.7530 C   0  0  0  0  0  0  0  0  0  0  0  0
    2.5010   -0.9175    6.6866 C   0  0  0  0  0  0  0  0  0  0  0  0
    3.8020   -0.8124    6.9746 N   0  0  0  0  0  0  0  0  0  0  0  0
    2.6854    0.8412    5.0935 F   0  0  0  0  0  0  0  0  0  0  0  0
   -1.5402   -1.2179    5.7677 F   0  0  0  0  0  0  0  0  0  0  0  0
    1.4675   -3.6532    8.9426 N   0  0  0  0  0  0  0  0  0  0  0  0
    0.9089   -3.4851   10.2304 C   0  0  0  0  0  0  0  0  0  0  0  0
    1.3392   -2.6442   11.0162 O   0  0  0  0  0  0  0  0  0  0  0  0
   -0.1903   -4.2899   10.6839 N   0  0  0  0  0  0  0  0  0  0  0  0
   -1.3362   -3.7669   11.3328 C   0  0  0  0  0  0  0  0  0  0  0  0
   -1.7910   -2.4824   11.2044 C   0  0  0  0  0  0  0  0  0  0  0  0
   -2.9143   -2.0146   11.8567 C   0  0  0  0  0  0  0  0  0  0  0  0
   -3.6296   -2.8687   12.6847 C   0  0  0  0  0  0  0  0  0  0  0  0
   -3.1867   -4.1656   12.8262 C   0  0  0  0  0  0  0  0  0  0  0  0
   -2.0478   -4.6150   12.1560 C   0  0  0  0  0  0  0  0  0  0  0  0
   -4.7810   -2.4433   13.3731 N   0  0  0  0  0  0  0  0  0  0  0  0
   -5.2297   -1.0801   13.2306 C   0  0  0  0  0  0  0  0  0  0  0  0
   -5.5239   -3.3432   14.2203 C   0  0  0  0  0  0  0  0  0  0  0  0
  1  2  1  0
  2  3  2  0
  3  4  1  0
  4  5  2  0
  5  6  1  0
  6  7  2  0
  7  8  1  0
  8  9  2  0
  9 10  1  0
 10 11  2  0
  9 12  1  0
  7 13  1  0
  4 14  1  0
 14 15  1  0
 15 16  2  0
 15 17  1  0
 17 18  1  0
 18 19  2  0
 19 20  1  0
 20 21  2  0
 21 22  1  0
 22 23  2  0
 21 24  1  0
 24 25  1  0
 24 26  1  0
 11  2  1  0
 10  5  1  0
 23 18  1  0
M  END
$$$$
