
     RDKit          3D

 26 28  0  0  0  0  0  0  0  0999 V2000
    3.5125   -6.2287    8.3992 C   0  0  0  0  0  0  0  0  0  0  0  0
    3.3859   -4.7670    8.1885 C   0  0  0  0  0  0  0  0  0  0  0  0
    2.6841   -3.9588    9.0788 C   0  0  0  0  0  0  0  0  0  0  0  0
    2.5452   -2.6183    8.9218 C   0  0  0  0  0  0  0  0  0  0  0  0
    3.1532   -2.0428    7.7906 C   0  0  0  0  0  0  0  0  0  0  0  0
    3.0665   -0.6932    7.5478 C   0  0  0  0  0  0  0  0  0  0  0  0
    3.6716   -0.1320    6.4252 C   0  0  0  0  0  0  0  0  0  0  0  0
    4.3520   -0.9636    5.5756 C   0  0  0  0  0  0  0  0  0  0  0  0
    4.4481   -2.3269    5.8072 C   0  0  0  0  0  0  0  0  0  0  0  0
    3.8552   -2.8712    6.9056 C   0  0  0  0  0  0  0  0  0  0  0  0
    3.9469   -4.1856    7.1304 N   0  0  0  0  0  0  0  0  0  0  0  0
    5.1431   -3.0957    4.9167 F   0  0  0  0  0  0  0  0  0  0  0  0
    3.5895    1.2110    6.1770 F   0  0  0  0  0  0  0  0  0  0  0  0
    1.8434   -1.7689    9.8002 N   0  0  0  0  0  0  0  0  0  0  0  0
    0.7402   -2.1681   10.5891 C   0  0  0  0  0  0  0  0  0  0  0  0
    0.7505   -3.2163   11.2302 O   0  0  0  0  0  0  0  0  0  0  0  0
   -0.4480   -1.3673   10.6801 N   0  0  0  0  0  0  0  0  0  0  0  0
   -1.6896   -1.8498   11.1630 C   0  0  0  0  0  0  0  0  0  0  0  0
   -1.9373   -3.1448   11.5301 C   0  0  0  0  0  0  0  0  0  0  0  0
   -3.1648   -3.5717   11.9961 C   0  0  0  0  0  0  0  0  0  0  0  0
   -4.2085   -2.6632   12.1052 C   0  0  0  0  0  0  0  0  0  0  0  0
   -3.9777   -1.3549   11.7402 C   0  0  0  0  0  0  0  0  0  0  0  0
   -2.7276   -0.9475   11.2718 C   0  0  0  0  0  0  0  0  0  0  0  0
   -5.4793   -3.0453   12.5738 N   0  0  0  0  0  0  0  0  0  0  0  0
   -5.7110   -4.4158   12.9586 C   0  0  0  0  0  0  0  0  0  0  0  0
   -6.5580   -2.0939   12.6777 C   0  0  0  0  0  0  0  0  0  0  0  0
  1  2  1  0
  2  3  2  0
  3  4  1  0
  4  5  2  0
  5  6  1  0
  6  7  2  0
  7  8  1  0
  8  9  2  0
  9 10  1  0
 10 11  2  0
  9 12  1  0
  7 13  1  0
  4 14  1  0
 14 15  1  0
 15 16  2  0
 15 17  1  0
 17 18  1  0
 18 19  2  0
 19 20  1  0
 20 21  2  0
 21 22  1  0
 22 23  2  0
 21 24  1  0
 24 25  1  0
 24 26  1  0
 11  2  1  0
 10  5  1  0
 23 18  1  0
M  END
$$$$
