
     RDKit          3D

 26 28  0  0  0  0  0  0  0  0999 V2000
   -0.2882    2.2478    7.0663 C   0  0  0  0  0  0  0  0  0  0  0  0
    0.5372    1.0298    7.2460 C   0  0  0  0  0  0  0  0  0  0  0  0
    0.1397   -0.0041    8.0895 C   0  0  0  0  0  0  0  0  0  0  0  0
    0.8658   -1.1340    8.2811 C   0  0  0  0  0  0  0  0  0  0  0  0
    2.0799   -1.2384    7.5771 C   0  0  0  0  0  0  0  0  0  0  0  0
    2.8828   -2.3456    7.7073 C   0  0  0  0  0  0  0  0  0  0  0  0
    4.0832   -2.4404    7.0064 C   0  0  0  0  0  0  0  0  0  0  0  0
    4.4359   -1.4005    6.1876 C   0  0  0  0  0  0  0  0  0  0  0  0
    3.6364   -0.2771    6.0459 C   0  0  0  0  0  0  0  0  0  0  0  0
    2.4640   -0.1886    6.7329 C   0  0  0  0  0  0  0  0  0  0  0  0
    1.6918    0.8940    6.5974 N   0  0  0  0  0  0  0  0  0  0  0  0
    4.0516    0.7220    5.2112 F   0  0  0  0  0  0  0  0  0  0  0  0
    4.8879   -3.5400    7.1312 F   0  0  0  0  0  0  0  0  0  0  0  0
    0.4966   -2.2001    9.1255 N   0  0  0  0  0  0  0  0  0  0  0  0
   -0.8008   -2.3903    9.6540 C   0  0  0  0  0  0  0  0  0  0  0  0
   -1.8038   -2.0063    9.0571 O   0  0  0  0  0  0  0  0  0  0  0  0
   -1.0103   -3.0423   10.9159 N   0  0  0  0  0  0  0  0  0  0  0  0
   -2.2888   -3.2786   11.4793 C   0  0  0  0  0  0  0  0  0  0  0  0
   -3.4733   -3.1849   10.8002 C   0  0  0  0  0  0  0  0  0  0  0  0
   -4.6984   -3.4243   11.3902 C   0  0  0  0  0  0  0  0  0  0  0  0
   -4.7540   -3.7771   12.7315 C   0  0  0  0  0  0  0  0  0  0  0  0
   -3.5715   -3.8764   13.4314 C   0  0  0  0  0  0  0  0  0  0  0  0
   -2.3452   -3.6294   12.8124 C   0  0  0  0  0  0  0  0  0  0  0  0
   -5.9758   -4.0316   13.3820 N   0  0  0  0  0  0  0  0  0  0  0  0
   -7.2102   -3.9110   12.6458 C   0  0  0  0  0  0  0  0  0  0  0  0
   -6.0206   -4.4114   14.7724 C   0  0  0  0  0  0  0  0  0  0  0  0
  1  2  1  0
  2  3  2  0
  3  4  1  0
  4  5  2  0
  5  6  1  0
  6  7  2  0
  7  8  1  0
  8  9  2  0
  9 10  1  0
 10 11  2  0
  9 12  1  0
  7 13  1  0
  4 14  1  0
 14 15  1  0
 15 16  2  0
 15 17  1  0
 17 18  1  0
 18 19  2  0
 19 20  1  0
 20 21  2  0
 21 22  1  0
 22 23  2  0
 21 24  1  0
 24 25  1  0
 24 26  1  0
 11  2  1  0
 10  5  1  0
 23 18  1  0
M  END
$$$$
