
     RDKit          3D

 26 28  0  0  0  0  0  0  0  0999 V2000
    4.1839   -6.0851    8.4645 C   0  0  0  0  0  0  0  0  0  0  0  0
    3.8212   -4.6723    8.2010 C   0  0  0  0  0  0  0  0  0  0  0  0
    2.8934   -3.9970    8.9895 C   0  0  0  0  0  0  0  0  0  0  0  0
    2.5346   -2.7052    8.7815 C   0  0  0  0  0  0  0  0  0  0  0  0
    3.1490   -2.0386    7.7050 C   0  0  0  0  0  0  0  0  0  0  0  0
    2.8490   -0.7292    7.4169 C   0  0  0  0  0  0  0  0  0  0  0  0
    3.4621   -0.0771    6.3492 C   0  0  0  0  0  0  0  0  0  0  0  0
    4.3687   -0.7789    5.5996 C   0  0  0  0  0  0  0  0  0  0  0  0
    4.6816   -2.1002    5.8779 C   0  0  0  0  0  0  0  0  0  0  0  0
    4.0800   -2.7336    6.9224 C   0  0  0  0  0  0  0  0  0  0  0  0
    4.3806   -4.0078    7.1922 N   0  0  0  0  0  0  0  0  0  0  0  0
    5.5957   -2.7380    5.0873 F   0  0  0  0  0  0  0  0  0  0  0  0
    3.1683    1.2267    6.0564 F   0  0  0  0  0  0  0  0  0  0  0  0
    1.6008   -1.9896    9.5570 N   0  0  0  0  0  0  0  0  0  0  0  0
    0.4062   -2.5372   10.0783 C   0  0  0  0  0  0  0  0  0  0  0  0
    0.2601   -3.7487   10.2222 O   0  0  0  0  0  0  0  0  0  0  0  0
   -0.6966   -1.7034   10.4659 N   0  0  0  0  0  0  0  0  0  0  0  0
   -1.8936   -2.1957   11.0423 C   0  0  0  0  0  0  0  0  0  0  0  0
   -2.0624   -3.4609   11.5361 C   0  0  0  0  0  0  0  0  0  0  0  0
   -3.2488   -3.8990   12.0900 C   0  0  0  0  0  0  0  0  0  0  0  0
   -4.3318   -3.0336   12.1592 C   0  0  0  0  0  0  0  0  0  0  0  0
   -4.1805   -1.7557   11.6670 C   0  0  0  0  0  0  0  0  0  0  0  0
   -2.9707   -1.3363   11.1115 C   0  0  0  0  0  0  0  0  0  0  0  0
   -5.5635   -3.4288   12.7135 N   0  0  0  0  0  0  0  0  0  0  0  0
   -5.7028   -4.7569   13.2584 C   0  0  0  0  0  0  0  0  0  0  0  0
   -6.6926   -2.5325   12.7484 C   0  0  0  0  0  0  0  0  0  0  0  0
  1  2  1  0
  2  3  2  0
  3  4  1  0
  4  5  2  0
  5  6  1  0
  6  7  2  0
  7  8  1  0
  8  9  2  0
  9 10  1  0
 10 11  2  0
  9 12  1  0
  7 13  1  0
  4 14  1  0
 14 15  1  0
 15 16  2  0
 15 17  1  0
 17 18  1  0
 18 19  2  0
 19 20  1  0
 20 21  2  0
 21 22  1  0
 22 23  2  0
 21 24  1  0
 24 25  1  0
 24 26  1  0
 11  2  1  0
 10  5  1  0
 23 18  1  0
M  END
$$$$
