
     RDKit          3D

 26 28  0  0  0  0  0  0  0  0999 V2000
    3.8173   -5.2450    8.8056 C   0  0  0  0  0  0  0  0  0  0  0  0
    3.3121   -3.9274    8.3521 C   0  0  0  0  0  0  0  0  0  0  0  0
    2.1203   -3.3956    8.8372 C   0  0  0  0  0  0  0  0  0  0  0  0
    1.6241   -2.1944    8.4478 C   0  0  0  0  0  0  0  0  0  0  0  0
    2.3752   -1.4707    7.5029 C   0  0  0  0  0  0  0  0  0  0  0  0
    1.9525   -0.2448    7.0489 C   0  0  0  0  0  0  0  0  0  0  0  0
    2.7025    0.4647    6.1133 C   0  0  0  0  0  0  0  0  0  0  0  0
    3.8685   -0.0954    5.6628 C   0  0  0  0  0  0  0  0  0  0  0  0
    4.3080   -1.3311    6.1114 C   0  0  0  0  0  0  0  0  0  0  0  0
    3.5717   -2.0211    7.0259 C   0  0  0  0  0  0  0  0  0  0  0  0
    3.9940   -3.2128    7.4596 N   0  0  0  0  0  0  0  0  0  0  0  0
    5.4812   -1.8284    5.6181 F   0  0  0  0  0  0  0  0  0  0  0  0
    2.2878    1.6860    5.6567 F   0  0  0  0  0  0  0  0  0  0  0  0
    0.4233   -1.6244    8.9157 N   0  0  0  0  0  0  0  0  0  0  0  0
   -0.4568   -2.2491    9.8288 C   0  0  0  0  0  0  0  0  0  0  0  0
   -0.2507   -3.3848   10.2502 O   0  0  0  0  0  0  0  0  0  0  0  0
   -1.6363   -1.5863   10.3094 N   0  0  0  0  0  0  0  0  0  0  0  0
   -2.6369   -2.2210   11.0862 C   0  0  0  0  0  0  0  0  0  0  0  0
   -2.4849   -3.4176   11.7327 C   0  0  0  0  0  0  0  0  0  0  0  0
   -3.4889   -4.0004   12.4801 C   0  0  0  0  0  0  0  0  0  0  0  0
   -4.7156   -3.3609   12.5941 C   0  0  0  0  0  0  0  0  0  0  0  0
   -4.8871   -2.1552   11.9500 C   0  0  0  0  0  0  0  0  0  0  0  0
   -3.8566   -1.5861   11.2001 C   0  0  0  0  0  0  0  0  0  0  0  0
   -5.7726   -3.9110   13.3430 N   0  0  0  0  0  0  0  0  0  0  0  0
   -5.5715   -5.1530   14.0480 C   0  0  0  0  0  0  0  0  0  0  0  0
   -7.0560   -3.2580   13.4210 C   0  0  0  0  0  0  0  0  0  0  0  0
  1  2  1  0
  2  3  2  0
  3  4  1  0
  4  5  2  0
  5  6  1  0
  6  7  2  0
  7  8  1  0
  8  9  2  0
  9 10  1  0
 10 11  2  0
  9 12  1  0
  7 13  1  0
  4 14  1  0
 14 15  1  0
 15 16  2  0
 15 17  1  0
 17 18  1  0
 18 19  2  0
 19 20  1  0
 20 21  2  0
 21 22  1  0
 22 23  2  0
 21 24  1  0
 24 25  1  0
 24 26  1  0
 11  2  1  0
 10  5  1  0
 23 18  1  0
M  END
$$$$
