
     RDKit          3D

 26 28  0  0  0  0  0  0  0  0999 V2000
   -0.6950    1.8996    7.7424 C   0  0  0  0  0  0  0  0  0  0  0  0
    0.3105    0.8127    7.6747 C   0  0  0  0  0  0  0  0  0  0  0  0
    0.1446   -0.3805    8.3728 C   0  0  0  0  0  0  0  0  0  0  0  0
    1.0407   -1.3985    8.3372 C   0  0  0  0  0  0  0  0  0  0  0  0
    2.1884   -1.2099    7.5447 C   0  0  0  0  0  0  0  0  0  0  0  0
    3.1513   -2.1850    7.4469 C   0  0  0  0  0  0  0  0  0  0  0  0
    4.2844   -1.9896    6.6600 C   0  0  0  0  0  0  0  0  0  0  0  0
    4.4074   -0.8010    5.9903 C   0  0  0  0  0  0  0  0  0  0  0  0
    3.4445    0.1920    6.0790 C   0  0  0  0  0  0  0  0  0  0  0  0
    2.3387   -0.0032    6.8493 C   0  0  0  0  0  0  0  0  0  0  0  0
    1.4091    0.9534    6.9361 N   0  0  0  0  0  0  0  0  0  0  0  0
    3.6336    1.3527    5.3831 F   0  0  0  0  0  0  0  0  0  0  0  0
    5.2474   -2.9561    6.5579 F   0  0  0  0  0  0  0  0  0  0  0  0
    0.9074   -2.6188    9.0291 N   0  0  0  0  0  0  0  0  0  0  0  0
    0.2541   -2.7658   10.2742 C   0  0  0  0  0  0  0  0  0  0  0  0
    0.5816   -2.1054   11.2572 O   0  0  0  0  0  0  0  0  0  0  0  0
   -0.8258   -3.6953   10.4513 N   0  0  0  0  0  0  0  0  0  0  0  0
   -2.0310   -3.3849   11.1287 C   0  0  0  0  0  0  0  0  0  0  0  0
   -2.1099   -2.7148   12.3194 C   0  0  0  0  0  0  0  0  0  0  0  0
   -3.3080   -2.4333   12.9450 C   0  0  0  0  0  0  0  0  0  0  0  0
   -4.4982   -2.8391   12.3572 C   0  0  0  0  0  0  0  0  0  0  0  0
   -4.4384   -3.5150   11.1581 C   0  0  0  0  0  0  0  0  0  0  0  0
   -3.2145   -3.7877   10.5452 C   0  0  0  0  0  0  0  0  0  0  0  0
   -5.7466   -2.5783   12.9522 N   0  0  0  0  0  0  0  0  0  0  0  0
   -6.9531   -3.0002   12.2840 C   0  0  0  0  0  0  0  0  0  0  0  0
   -5.8462   -1.8966   14.2190 C   0  0  0  0  0  0  0  0  0  0  0  0
  1  2  1  0
  2  3  2  0
  3  4  1  0
  4  5  2  0
  5  6  1  0
  6  7  2  0
  7  8  1  0
  8  9  2  0
  9 10  1  0
 10 11  2  0
  9 12  1  0
  7 13  1  0
  4 14  1  0
 14 15  1  0
 15 16  2  0
 15 17  1  0
 17 18  1  0
 18 19  2  0
 19 20  1  0
 20 21  2  0
 21 22  1  0
 22 23  2  0
 21 24  1  0
 24 25  1  0
 24 26  1  0
 11  2  1  0
 10  5  1  0
 23 18  1  0
M  END
$$$$
