
     RDKit          3D

 26 28  0  0  0  0  0  0  0  0999 V2000
    3.7443    1.4325    7.5332 C   0  0  0  0  0  0  0  0  0  0  0  0
    3.5472   -0.0292    7.3871 C   0  0  0  0  0  0  0  0  0  0  0  0
    2.8239   -0.7658    8.3214 C   0  0  0  0  0  0  0  0  0  0  0  0
    2.6209   -2.1037    8.2240 C   0  0  0  0  0  0  0  0  0  0  0  0
    3.1830   -2.7540    7.1096 C   0  0  0  0  0  0  0  0  0  0  0  0
    3.0304   -4.1071    6.9261 C   0  0  0  0  0  0  0  0  0  0  0  0
    3.5904   -4.7426    5.8198 C   0  0  0  0  0  0  0  0  0  0  0  0
    4.2940   -3.9801    4.9256 C   0  0  0  0  0  0  0  0  0  0  0  0
    4.4565   -2.6142    5.0971 C   0  0  0  0  0  0  0  0  0  0  0  0
    3.9075   -1.9972    6.1798 C   0  0  0  0  0  0  0  0  0  0  0  0
    4.0632   -0.6802    6.3468 N   0  0  0  0  0  0  0  0  0  0  0  0
    5.1712   -1.9167    4.1644 F   0  0  0  0  0  0  0  0  0  0  0  0
    3.4426   -6.0896    5.6306 F   0  0  0  0  0  0  0  0  0  0  0  0
    1.8958   -2.8819    9.1483 N   0  0  0  0  0  0  0  0  0  0  0  0
    0.6388   -2.5217    9.6857 C   0  0  0  0  0  0  0  0  0  0  0  0
    0.4664   -1.4511   10.2634 O   0  0  0  0  0  0  0  0  0  0  0  0
   -0.4997   -3.3905    9.5827 N   0  0  0  0  0  0  0  0  0  0  0  0
   -1.6679   -3.2573   10.3733 C   0  0  0  0  0  0  0  0  0  0  0  0
   -2.6188   -4.2283   10.5353 C   0  0  0  0  0  0  0  0  0  0  0  0
   -3.7438   -4.0550   11.3167 C   0  0  0  0  0  0  0  0  0  0  0  0
   -3.9390   -2.8495   11.9765 C   0  0  0  0  0  0  0  0  0  0  0  0
   -2.9921   -1.8602   11.8252 C   0  0  0  0  0  0  0  0  0  0  0  0
   -1.8628   -2.0595   11.0296 C   0  0  0  0  0  0  0  0  0  0  0  0
   -5.0679   -2.6201   12.7849 N   0  0  0  0  0  0  0  0  0  0  0  0
   -5.2230   -1.3456   13.4419 C   0  0  0  0  0  0  0  0  0  0  0  0
   -6.0758   -3.6345   12.9713 C   0  0  0  0  0  0  0  0  0  0  0  0
  1  2  1  0
  2  3  2  0
  3  4  1  0
  4  5  2  0
  5  6  1  0
  6  7  2  0
  7  8  1  0
  8  9  2  0
  9 10  1  0
 10 11  2  0
  9 12  1  0
  7 13  1  0
  4 14  1  0
 14 15  1  0
 15 16  2  0
 15 17  1  0
 17 18  1  0
 18 19  2  0
 19 20  1  0
 20 21  2  0
 21 22  1  0
 22 23  2  0
 21 24  1  0
 24 25  1  0
 24 26  1  0
 11  2  1  0
 10  5  1  0
 23 18  1  0
M  END
$$$$
