
     RDKit          3D

 26 28  0  0  0  0  0  0  0  0999 V2000
    3.6075    1.2496   10.4482 C   0  0  0  0  0  0  0  0  0  0  0  0
    3.3016    0.1495    9.5030 C   0  0  0  0  0  0  0  0  0  0  0  0
    2.4045   -0.8645    9.8279 C   0  0  0  0  0  0  0  0  0  0  0  0
    2.0978   -1.8879    8.9918 C   0  0  0  0  0  0  0  0  0  0  0  0
    2.7354   -1.8988    7.7372 C   0  0  0  0  0  0  0  0  0  0  0  0
    2.4880   -2.8950    6.8240 C   0  0  0  0  0  0  0  0  0  0  0  0
    3.1238   -2.8978    5.5843 C   0  0  0  0  0  0  0  0  0  0  0  0
    3.9988   -1.8813    5.3059 C   0  0  0  0  0  0  0  0  0  0  0  0
    4.2587   -0.8694    6.2169 C   0  0  0  0  0  0  0  0  0  0  0  0
    3.6350   -0.8707    7.4274 C   0  0  0  0  0  0  0  0  0  0  0  0
    3.8845    0.1043    8.3070 N   0  0  0  0  0  0  0  0  0  0  0  0
    5.1437    0.1126    5.8711 F   0  0  0  0  0  0  0  0  0  0  0  0
    2.8823   -3.8866    4.6700 F   0  0  0  0  0  0  0  0  0  0  0  0
    1.1964   -2.9306    9.2851 N   0  0  0  0  0  0  0  0  0  0  0  0
    0.0643   -2.7984   10.1216 C   0  0  0  0  0  0  0  0  0  0  0  0
    0.1686   -2.4798   11.3037 O   0  0  0  0  0  0  0  0  0  0  0  0
   -1.2646   -3.0303    9.6302 N   0  0  0  0  0  0  0  0  0  0  0  0
   -2.4056   -3.1418   10.4629 C   0  0  0  0  0  0  0  0  0  0  0  0
   -2.4443   -2.8013   11.7879 C   0  0  0  0  0  0  0  0  0  0  0  0
   -3.5800   -2.9266   12.5629 C   0  0  0  0  0  0  0  0  0  0  0  0
   -4.7462   -3.4180   11.9924 C   0  0  0  0  0  0  0  0  0  0  0  0
   -4.7262   -3.7660   10.6595 C   0  0  0  0  0  0  0  0  0  0  0  0
   -3.5652   -3.6301    9.8969 C   0  0  0  0  0  0  0  0  0  0  0  0
   -5.9313   -3.5663   12.7368 N   0  0  0  0  0  0  0  0  0  0  0  0
   -5.9405   -3.2106   14.1345 C   0  0  0  0  0  0  0  0  0  0  0  0
   -7.1401   -4.0675   12.1309 C   0  0  0  0  0  0  0  0  0  0  0  0
  1  2  1  0
  2  3  2  0
  3  4  1  0
  4  5  2  0
  5  6  1  0
  6  7  2  0
  7  8  1  0
  8  9  2  0
  9 10  1  0
 10 11  2  0
  9 12  1  0
  7 13  1  0
  4 14  1  0
 14 15  1  0
 15 16  2  0
 15 17  1  0
 17 18  1  0
 18 19  2  0
 19 20  1  0
 20 21  2  0
 21 22  1  0
 22 23  2  0
 21 24  1  0
 24 25  1  0
 24 26  1  0
 11  2  1  0
 10  5  1  0
 23 18  1  0
M  END
$$$$
