
     RDKit          3D

 26 28  0  0  0  0  0  0  0  0999 V2000
    5.1245   -4.7698    9.4785 C   0  0  0  0  0  0  0  0  0  0  0  0
    4.4049   -3.6067    8.9071 C   0  0  0  0  0  0  0  0  0  0  0  0
    3.2164   -3.1389    9.4612 C   0  0  0  0  0  0  0  0  0  0  0  0
    2.5280   -2.0787    8.9685 C   0  0  0  0  0  0  0  0  0  0  0  0
    3.0679   -1.4382    7.8376 C   0  0  0  0  0  0  0  0  0  0  0  0
    2.4414   -0.3560    7.2683 C   0  0  0  0  0  0  0  0  0  0  0  0
    2.9831    0.2718    6.1486 C   0  0  0  0  0  0  0  0  0  0  0  0
    4.1537   -0.2211    5.6360 C   0  0  0  0  0  0  0  0  0  0  0  0
    4.7974   -1.3119    6.1992 C   0  0  0  0  0  0  0  0  0  0  0  0
    4.2644   -1.9225    7.2935 C   0  0  0  0  0  0  0  0  0  0  0  0
    4.8837   -2.9745    7.8379 N   0  0  0  0  0  0  0  0  0  0  0  0
    5.9622   -1.7493    5.6344 F   0  0  0  0  0  0  0  0  0  0  0  0
    2.3647    1.3499    5.5764 F   0  0  0  0  0  0  0  0  0  0  0  0
    1.3238   -1.5771    9.5014 N   0  0  0  0  0  0  0  0  0  0  0  0
    0.4190   -2.3312   10.2833 C   0  0  0  0  0  0  0  0  0  0  0  0
    0.2759   -3.5404   10.1191 O   0  0  0  0  0  0  0  0  0  0  0  0
   -0.3782   -1.7202   11.3093 N   0  0  0  0  0  0  0  0  0  0  0  0
   -1.6962   -2.1278   11.6322 C   0  0  0  0  0  0  0  0  0  0  0  0
   -2.7892   -1.3043   11.6467 C   0  0  0  0  0  0  0  0  0  0  0  0
   -4.0575   -1.7450   11.9680 C   0  0  0  0  0  0  0  0  0  0  0  0
   -4.2554   -3.0796   12.2943 C   0  0  0  0  0  0  0  0  0  0  0  0
   -3.1666   -3.9237   12.2851 C   0  0  0  0  0  0  0  0  0  0  0  0
   -1.8939   -3.4541   11.9567 C   0  0  0  0  0  0  0  0  0  0  0  0
   -5.5269   -3.5811   12.6298 N   0  0  0  0  0  0  0  0  0  0  0  0
   -6.6560   -2.6845   12.6672 C   0  0  0  0  0  0  0  0  0  0  0  0
   -5.7260   -4.9756   12.9380 C   0  0  0  0  0  0  0  0  0  0  0  0
  1  2  1  0
  2  3  2  0
  3  4  1  0
  4  5  2  0
  5  6  1  0
  6  7  2  0
  7  8  1  0
  8  9  2  0
  9 10  1  0
 10 11  2  0
  9 12  1  0
  7 13  1  0
  4 14  1  0
 14 15  1  0
 15 16  2  0
 15 17  1  0
 17 18  1  0
 18 19  2  0
 19 20  1  0
 20 21  2  0
 21 22  1  0
 22 23  2  0
 21 24  1  0
 24 25  1  0
 24 26  1  0
 11  2  1  0
 10  5  1  0
 23 18  1  0
M  END
$$$$
