
     RDKit          3D

 26 28  0  0  0  0  0  0  0  0999 V2000
   -1.0425    1.9375    7.8659 C   0  0  0  0  0  0  0  0  0  0  0  0
    0.0178    0.9020    7.8417 C   0  0  0  0  0  0  0  0  0  0  0  0
   -0.0235   -0.2056    8.6843 C   0  0  0  0  0  0  0  0  0  0  0  0
    0.9262   -1.1745    8.6931 C   0  0  0  0  0  0  0  0  0  0  0  0
    1.9973   -1.0250    7.7924 C   0  0  0  0  0  0  0  0  0  0  0  0
    3.0063   -1.9554    7.7292 C   0  0  0  0  0  0  0  0  0  0  0  0
    4.0628   -1.7993    6.8344 C   0  0  0  0  0  0  0  0  0  0  0  0
    4.0640   -0.6951    6.0240 C   0  0  0  0  0  0  0  0  0  0  0  0
    3.0532    0.2520    6.0762 C   0  0  0  0  0  0  0  0  0  0  0  0
    2.0225    0.0955    6.9522 C   0  0  0  0  0  0  0  0  0  0  0  0
    1.0470    1.0079    7.0040 N   0  0  0  0  0  0  0  0  0  0  0  0
    3.1198    1.3288    5.2376 F   0  0  0  0  0  0  0  0  0  0  0  0
    5.0711   -2.7217    6.7659 F   0  0  0  0  0  0  0  0  0  0  0  0
    0.9185   -2.3080    9.5301 N   0  0  0  0  0  0  0  0  0  0  0  0
   -0.0847   -2.5912   10.4851 C   0  0  0  0  0  0  0  0  0  0  0  0
   -0.0207   -2.1633   11.6351 O   0  0  0  0  0  0  0  0  0  0  0  0
   -1.2293   -3.3937   10.1576 N   0  0  0  0  0  0  0  0  0  0  0  0
   -2.4219   -3.4166   10.9224 C   0  0  0  0  0  0  0  0  0  0  0  0
   -3.6628   -3.7171   10.4294 C   0  0  0  0  0  0  0  0  0  0  0  0
   -4.7999   -3.7273   11.2123 C   0  0  0  0  0  0  0  0  0  0  0  0
   -4.7028   -3.4221   12.5630 C   0  0  0  0  0  0  0  0  0  0  0  0
   -3.4616   -3.1171   13.0772 C   0  0  0  0  0  0  0  0  0  0  0  0
   -2.3265   -3.1134   12.2649 C   0  0  0  0  0  0  0  0  0  0  0  0
   -5.8299   -3.4176   13.4058 N   0  0  0  0  0  0  0  0  0  0  0  0
   -7.1290   -3.7159   12.8549 C   0  0  0  0  0  0  0  0  0  0  0  0
   -5.7139   -3.1203   14.8120 C   0  0  0  0  0  0  0  0  0  0  0  0
  1  2  1  0
  2  3  2  0
  3  4  1  0
  4  5  2  0
  5  6  1  0
  6  7  2  0
  7  8  1  0
  8  9  2  0
  9 10  1  0
 10 11  2  0
  9 12  1  0
  7 13  1  0
  4 14  1  0
 14 15  1  0
 15 16  2  0
 15 17  1  0
 17 18  1  0
 18 19  2  0
 19 20  1  0
 20 21  2  0
 21 22  1  0
 22 23  2  0
 21 24  1  0
 24 25  1  0
 24 26  1  0
 11  2  1  0
 10  5  1  0
 23 18  1  0
M  END
$$$$
