
     RDKit          3D

 26 28  0  0  0  0  0  0  0  0999 V2000
    4.5786   -1.2597    5.8406 C   0  0  0  0  0  0  0  0  0  0  0  0
    3.4102   -0.8629    6.6618 C   0  0  0  0  0  0  0  0  0  0  0  0
    3.1033   -1.5095    7.8561 C   0  0  0  0  0  0  0  0  0  0  0  0
    2.0440   -1.1769    8.6359 C   0  0  0  0  0  0  0  0  0  0  0  0
    1.2308   -0.1190    8.1886 C   0  0  0  0  0  0  0  0  0  0  0  0
    0.1357    0.2888    8.9113 C   0  0  0  0  0  0  0  0  0  0  0  0
   -0.6639    1.3371    8.4608 C   0  0  0  0  0  0  0  0  0  0  0  0
   -0.3258    1.9452    7.2809 C   0  0  0  0  0  0  0  0  0  0  0  0
    0.7758    1.5451    6.5408 C   0  0  0  0  0  0  0  0  0  0  0  0
    1.5545    0.5201    6.9848 C   0  0  0  0  0  0  0  0  0  0  0  0
    2.6171    0.1329    6.2723 N   0  0  0  0  0  0  0  0  0  0  0  0
    1.0530    2.1977    5.3727 F   0  0  0  0  0  0  0  0  0  0  0  0
   -1.7558    1.7486    9.1752 F   0  0  0  0  0  0  0  0  0  0  0  0
    1.7022   -1.8073    9.8489 N   0  0  0  0  0  0  0  0  0  0  0  0
    0.8130   -2.9008    9.9599 C   0  0  0  0  0  0  0  0  0  0  0  0
    0.5413   -3.6125    8.9958 O   0  0  0  0  0  0  0  0  0  0  0  0
    0.1829   -3.2338   11.2063 N   0  0  0  0  0  0  0  0  0  0  0  0
   -1.2195   -3.3406   11.3777 C   0  0  0  0  0  0  0  0  0  0  0  0
   -2.1337   -3.3598   10.3594 C   0  0  0  0  0  0  0  0  0  0  0  0
   -3.4937   -3.4654   10.5728 C   0  0  0  0  0  0  0  0  0  0  0  0
   -3.9770   -3.5574   11.8708 C   0  0  0  0  0  0  0  0  0  0  0  0
   -3.0714   -3.5397   12.9089 C   0  0  0  0  0  0  0  0  0  0  0  0
   -1.7009   -3.4321   12.6674 C   0  0  0  0  0  0  0  0  0  0  0  0
   -5.3532   -3.6665   12.1443 N   0  0  0  0  0  0  0  0  0  0  0  0
   -5.7964   -3.8061   13.5097 C   0  0  0  0  0  0  0  0  0  0  0  0
   -6.3327   -3.6417   11.0862 C   0  0  0  0  0  0  0  0  0  0  0  0
  1  2  1  0
  2  3  2  0
  3  4  1  0
  4  5  2  0
  5  6  1  0
  6  7  2  0
  7  8  1  0
  8  9  2  0
  9 10  1  0
 10 11  2  0
  9 12  1  0
  7 13  1  0
  4 14  1  0
 14 15  1  0
 15 16  2  0
 15 17  1  0
 17 18  1  0
 18 19  2  0
 19 20  1  0
 20 21  2  0
 21 22  1  0
 22 23  2  0
 21 24  1  0
 24 25  1  0
 24 26  1  0
 11  2  1  0
 10  5  1  0
 23 18  1  0
M  END
$$$$
