
     RDKit          3D

 26 28  0  0  0  0  0  0  0  0999 V2000
    2.9291   -5.2924   10.3992 C   0  0  0  0  0  0  0  0  0  0  0  0
    2.9941   -4.0179    9.6453 C   0  0  0  0  0  0  0  0  0  0  0  0
    2.1559   -2.9476    9.9462 C   0  0  0  0  0  0  0  0  0  0  0  0
    2.1840   -1.7656    9.2808 C   0  0  0  0  0  0  0  0  0  0  0  0
    3.1196   -1.6443    8.2365 C   0  0  0  0  0  0  0  0  0  0  0  0
    3.2214   -0.4851    7.5060 C   0  0  0  0  0  0  0  0  0  0  0  0
    4.1506   -0.3739    6.4738 C   0  0  0  0  0  0  0  0  0  0  0  0
    4.9553   -1.4509    6.2115 C   0  0  0  0  0  0  0  0  0  0  0  0
    4.8644   -2.6269    6.9397 C   0  0  0  0  0  0  0  0  0  0  0  0
    3.9547   -2.7312    7.9476 C   0  0  0  0  0  0  0  0  0  0  0  0
    3.8657   -3.8645    8.6508 N   0  0  0  0  0  0  0  0  0  0  0  0
    5.6995   -3.6608    6.6223 F   0  0  0  0  0  0  0  0  0  0  0  0
    4.2576    0.7773    5.7422 F   0  0  0  0  0  0  0  0  0  0  0  0
    1.3526   -0.6617    9.5562 N   0  0  0  0  0  0  0  0  0  0  0  0
    0.0905   -0.7478   10.1872 C   0  0  0  0  0  0  0  0  0  0  0  0
   -0.0236   -1.1072   11.3566 O   0  0  0  0  0  0  0  0  0  0  0  0
   -1.1218   -0.4190    9.4916 N   0  0  0  0  0  0  0  0  0  0  0  0
   -2.2635    0.1404   10.1170 C   0  0  0  0  0  0  0  0  0  0  0  0
   -3.3580    0.6287    9.4562 C   0  0  0  0  0  0  0  0  0  0  0  0
   -4.4505    1.1661   10.1073 C   0  0  0  0  0  0  0  0  0  0  0  0
   -4.4600    1.2234   11.4941 C   0  0  0  0  0  0  0  0  0  0  0  0
   -3.3666    0.7364   12.1764 C   0  0  0  0  0  0  0  0  0  0  0  0
   -2.2738    0.1978   11.4954 C   0  0  0  0  0  0  0  0  0  0  0  0
   -5.5475    1.7611   12.2074 N   0  0  0  0  0  0  0  0  0  0  0  0
   -6.6801    2.2857   11.4849 C   0  0  0  0  0  0  0  0  0  0  0  0
   -5.5541    1.7993   13.6489 C   0  0  0  0  0  0  0  0  0  0  0  0
  1  2  1  0
  2  3  2  0
  3  4  1  0
  4  5  2  0
  5  6  1  0
  6  7  2  0
  7  8  1  0
  8  9  2  0
  9 10  1  0
 10 11  2  0
  9 12  1  0
  7 13  1  0
  4 14  1  0
 14 15  1  0
 15 16  2  0
 15 17  1  0
 17 18  1  0
 18 19  2  0
 19 20  1  0
 20 21  2  0
 21 22  1  0
 22 23  2  0
 21 24  1  0
 24 25  1  0
 24 26  1  0
 11  2  1  0
 10  5  1  0
 23 18  1  0
M  END
$$$$
