
     RDKit          3D

 36 39  0  0  0  0  0  0  0  0999 V2000
   -1.5391   -3.4217    5.6355 C   0  0  0  0  0  0  0  0  0  0  0  0
   -1.1099   -2.0227    5.2803 C   0  0  0  0  0  0  0  0  0  0  0  0
   -1.2772   -1.0831    6.3647 N   0  0  0  0  0  0  0  0  0  0  0  0
   -0.1679   -0.5224    7.0444 C   0  0  0  0  0  0  0  0  0  0  0  0
    0.9901   -0.8630    6.7167 O   0  0  0  0  0  0  0  0  0  0  0  0
   -0.3776    0.4562    8.1301 C   0  0  1  0  0  0  0  0  0  0  0  0
   -0.1951   -0.1195    9.3527 O   0  0  0  0  0  0  0  0  0  0  0  0
    0.4071    0.7646   10.2021 C   0  0  2  0  0  0  0  0  0  0  0  0
    0.9406    1.9320    9.4486 C   0  0  1  0  0  0  0  0  0  0  0  0
    0.5006    1.6646    8.0353 C   0  0  2  0  0  0  0  0  0  0  0  0
   -0.1938    2.7768    7.5555 O   0  0  0  0  0  0  0  0  0  0  0  0
    0.3903    3.1417    9.9022 O   0  0  0  0  0  0  0  0  0  0  0  0
    1.3946    0.1488   11.0651 N   0  0  0  0  0  0  0  0  0  0  0  0
    1.9772   -1.0392   10.8367 C   0  0  0  0  0  0  0  0  0  0  0  0
    2.8556   -1.3334   11.8310 N   0  0  0  0  0  0  0  0  0  0  0  0
    2.8231   -0.3145   12.6955 C   0  0  0  0  0  0  0  0  0  0  0  0
    1.9210    0.6082   12.2293 C   0  0  0  0  0  0  0  0  0  0  0  0
    1.6728    1.7425   12.8881 N   0  0  0  0  0  0  0  0  0  0  0  0
    2.3281    1.9883   14.0450 C   0  0  0  0  0  0  0  0  0  0  0  0
    2.0545    3.1929   14.7304 N   0  0  0  0  0  0  0  0  0  0  0  0
    2.7788    4.3834   14.4080 C   0  0  0  0  0  0  0  0  0  0  0  0
    4.2755    4.2452   14.5297 C   0  0  0  0  0  0  0  0  0  0  0  0
    4.5661    3.9987   15.9868 C   0  0  0  0  0  0  0  0  0  0  0  0
    5.8352    3.6072   16.3737 C   0  0  0  0  0  0  0  0  0  0  0  0
    6.1714    3.3645   17.6852 C   0  0  0  0  0  0  0  0  0  0  0  0
    5.1876    3.5244   18.6371 C   0  0  0  0  0  0  0  0  0  0  0  0
    3.9046    3.9178   18.2694 C   0  0  0  0  0  0  0  0  0  0  0  0
    3.5884    4.1576   16.9327 C   0  0  0  0  0  0  0  0  0  0  0  0
    5.5561    3.2604   20.0457 C   0  0  0  0  0  0  0  0  0  0  0  0
    4.8555    4.1393   21.0292 C   0  0  0  0  0  0  0  0  0  0  0  0
    5.5265    5.4238   21.3150 C   0  0  0  0  0  0  0  0  0  0  0  0
    6.5262    5.8190   20.6504 O   0  0  0  0  0  0  0  0  0  0  0  0
    5.0574    6.2421   22.3528 O   0  0  0  0  0  1  0  0  0  0  0  0
    3.2225    1.0827   14.5149 N   0  0  0  0  0  0  0  0  0  0  0  0
    3.4943   -0.0657   13.8778 C   0  0  0  0  0  0  0  0  0  0  0  0
    4.4359   -0.9974   14.3917 N   0  0  0  0  0  0  0  0  0  0  0  0
  1  2  1  0
  2  3  1  0
  3  4  1  0
  4  5  2  0
  6  4  1  6
  6  7  1  0
  7  8  1  0
  8  9  1  0
  9 10  1  0
 10 11  1  1
  9 12  1  1
  8 13  1  6
 13 14  1  0
 14 15  2  0
 15 16  1  0
 16 17  2  0
 17 18  1  0
 18 19  2  0
 19 20  1  0
 20 21  1  0
 21 22  1  0
 22 23  1  0
 23 24  2  0
 24 25  1  0
 25 26  2  0
 26 27  1  0
 27 28  2  0
 26 29  1  0
 29 30  1  0
 30 31  1  0
 31 32  2  0
 31 33  1  0
 19 34  1  0
 34 35  2  0
 35 36  1  0
 10  6  1  0
 17 13  1  0
 28 23  1  0
 35 16  1  0
M  CHG  1  33  -1
M  END
$$$$
