
     RDKit          3D

 36 39  0  0  0  0  0  0  0  0999 V2000
   -1.4757   -2.7607    5.8185 C   0  0  0  0  0  0  0  0  0  0  0  0
   -1.4391   -1.3019    5.4471 C   0  0  0  0  0  0  0  0  0  0  0  0
   -1.3720   -0.4242    6.5926 N   0  0  0  0  0  0  0  0  0  0  0  0
   -0.2078   -0.3311    7.3944 C   0  0  0  0  0  0  0  0  0  0  0  0
    0.8662   -0.8180    6.9777 O   0  0  0  0  0  0  0  0  0  0  0  0
   -0.2624    0.3360    8.7107 C   0  0  1  0  0  0  0  0  0  0  0  0
    0.4301   -0.3709    9.6490 O   0  0  0  0  0  0  0  0  0  0  0  0
    1.0661    0.4831   10.5045 C   0  0  2  0  0  0  0  0  0  0  0  0
    1.0548    1.8694    9.9629 C   0  0  1  0  0  0  0  0  0  0  0  0
    0.2488    1.7428    8.6992 C   0  0  2  0  0  0  0  0  0  0  0  0
   -0.7905    2.6747    8.7257 O   0  0  0  0  0  0  0  0  0  0  0  0
    0.4304    2.7684   10.8428 O   0  0  0  0  0  0  0  0  0  0  0  0
    2.3905    0.0343   10.8835 N   0  0  0  0  0  0  0  0  0  0  0  0
    3.1963   -0.7125   10.1115 C   0  0  0  0  0  0  0  0  0  0  0  0
    4.3669   -0.9634   10.7546 N   0  0  0  0  0  0  0  0  0  0  0  0
    4.2938   -0.3647   11.9474 C   0  0  0  0  0  0  0  0  0  0  0  0
    3.0732    0.2558   12.0361 C   0  0  0  0  0  0  0  0  0  0  0  0
    2.7113    0.9413   13.1229 N   0  0  0  0  0  0  0  0  0  0  0  0
    3.5706    1.0265   14.1634 C   0  0  0  0  0  0  0  0  0  0  0  0
    3.1730    1.7554   15.3063 N   0  0  0  0  0  0  0  0  0  0  0  0
    1.9105    2.4273   15.3267 C   0  0  0  0  0  0  0  0  0  0  0  0
    1.8353    3.6238   14.4118 C   0  0  0  0  0  0  0  0  0  0  0  0
    0.3830    4.0157   14.3374 C   0  0  0  0  0  0  0  0  0  0  0  0
   -0.5718    3.2174   14.9411 C   0  0  0  0  0  0  0  0  0  0  0  0
   -1.9149    3.5132   14.9129 C   0  0  0  0  0  0  0  0  0  0  0  0
   -2.3032    4.6576   14.2503 C   0  0  0  0  0  0  0  0  0  0  0  0
   -1.3588    5.4748   13.6366 C   0  0  0  0  0  0  0  0  0  0  0  0
   -0.0028    5.1530   13.6790 C   0  0  0  0  0  0  0  0  0  0  0  0
   -3.7496    4.9690   14.2230 C   0  0  0  0  0  0  0  0  0  0  0  0
   -4.0758    6.3652   14.6408 C   0  0  0  0  0  0  0  0  0  0  0  0
   -4.5085    6.5172   16.0449 C   0  0  0  0  0  0  0  0  0  0  0  0
   -4.2368    7.5498   16.7208 O   0  0  0  0  0  0  0  0  0  0  0  0
   -5.2408    5.4948   16.6655 O   0  0  0  0  0  1  0  0  0  0  0  0
    4.7802    0.4169   14.0861 N   0  0  0  0  0  0  0  0  0  0  0  0
    5.1740   -0.2792   13.0095 C   0  0  0  0  0  0  0  0  0  0  0  0
    6.4467   -0.9081   12.9543 N   0  0  0  0  0  0  0  0  0  0  0  0
  1  2  1  0
  2  3  1  0
  3  4  1  0
  4  5  2  0
  6  4  1  6
  6  7  1  0
  7  8  1  0
  8  9  1  0
  9 10  1  0
 10 11  1  1
  9 12  1  1
  8 13  1  6
 13 14  1  0
 14 15  2  0
 15 16  1  0
 16 17  2  0
 17 18  1  0
 18 19  2  0
 19 20  1  0
 20 21  1  0
 21 22  1  0
 22 23  1  0
 23 24  2  0
 24 25  1  0
 25 26  2  0
 26 27  1  0
 27 28  2  0
 26 29  1  0
 29 30  1  0
 30 31  1  0
 31 32  2  0
 31 33  1  0
 19 34  1  0
 34 35  2  0
 35 36  1  0
 10  6  1  0
 17 13  1  0
 28 23  1  0
 35 16  1  0
M  CHG  1  33  -1
M  END
$$$$
