
     RDKit          3D

 36 39  0  0  0  0  0  0  0  0999 V2000
    0.0558    9.1874   12.8664 C   0  0  0  0  0  0  0  0  0  0  0  0
   -0.7475    8.2629   11.9903 C   0  0  0  0  0  0  0  0  0  0  0  0
    0.0707    7.3619   11.2122 N   0  0  0  0  0  0  0  0  0  0  0  0
    0.0945    5.9682   11.4654 C   0  0  0  0  0  0  0  0  0  0  0  0
   -0.6923    5.4828   12.3077 O   0  0  0  0  0  0  0  0  0  0  0  0
    1.0404    5.0964   10.7401 C   0  0  1  0  0  0  0  0  0  0  0  0
    2.2398    5.0285   11.3854 O   0  0  0  0  0  0  0  0  0  0  0  0
    2.7562    3.7680   11.2837 C   0  0  2  0  0  0  0  0  0  0  0  0
    1.7237    2.8193   10.7846 C   0  0  1  0  0  0  0  0  0  0  0  0
    0.5361    3.7042   10.5214 C   0  0  2  0  0  0  0  0  0  0  0  0
    0.1025    3.5075    9.2089 O   0  0  0  0  0  0  0  0  0  0  0  0
    2.1255    2.1886    9.5959 O   0  0  0  0  0  0  0  0  0  0  0  0
    3.4027    3.3134   12.4980 N   0  0  0  0  0  0  0  0  0  0  0  0
    4.1096    4.0964   13.3287 C   0  0  0  0  0  0  0  0  0  0  0  0
    4.5845    3.3689   14.3737 N   0  0  0  0  0  0  0  0  0  0  0  0
    4.1689    2.1111   14.1953 C   0  0  0  0  0  0  0  0  0  0  0  0
    3.4362    2.0673   13.0361 C   0  0  0  0  0  0  0  0  0  0  0  0
    2.8869    0.9332   12.5952 N   0  0  0  0  0  0  0  0  0  0  0  0
    3.0570   -0.2017   13.3102 C   0  0  0  0  0  0  0  0  0  0  0  0
    2.4696   -1.3935   12.8305 N   0  0  0  0  0  0  0  0  0  0  0  0
    1.9100   -1.4398   11.5150 C   0  0  0  0  0  0  0  0  0  0  0  0
    2.8559   -1.9594   10.4617 C   0  0  0  0  0  0  0  0  0  0  0  0
    2.0332   -2.1850    9.2205 C   0  0  0  0  0  0  0  0  0  0  0  0
    0.6969   -1.8276    9.2123 C   0  0  0  0  0  0  0  0  0  0  0  0
   -0.1139   -2.0048    8.1154 C   0  0  0  0  0  0  0  0  0  0  0  0
    0.4492   -2.5631    6.9882 C   0  0  0  0  0  0  0  0  0  0  0  0
    1.7915   -2.9294    6.9752 C   0  0  0  0  0  0  0  0  0  0  0  0
    2.5929   -2.7398    8.1003 C   0  0  0  0  0  0  0  0  0  0  0  0
   -0.4292   -2.7519    5.8124 C   0  0  0  0  0  0  0  0  0  0  0  0
   -0.8362   -4.1704    5.5830 C   0  0  0  0  0  0  0  0  0  0  0  0
   -1.6354   -4.4065    4.3633 C   0  0  0  0  0  0  0  0  0  0  0  0
   -2.0428   -3.4567    3.6360 O   0  0  0  0  0  0  0  0  0  0  0  0
   -1.9652   -5.7163    3.9860 O   0  0  0  0  0  1  0  0  0  0  0  0
    3.7795   -0.1694   14.4581 N   0  0  0  0  0  0  0  0  0  0  0  0
    4.3443    0.9525   14.9281 C   0  0  0  0  0  0  0  0  0  0  0  0
    5.0962    0.9589   16.1336 N   0  0  0  0  0  0  0  0  0  0  0  0
  1  2  1  0
  2  3  1  0
  3  4  1  0
  4  5  2  0
  6  4  1  1
  6  7  1  0
  7  8  1  0
  8  9  1  0
  9 10  1  0
 10 11  1  6
  9 12  1  6
  8 13  1  1
 13 14  1  0
 14 15  2  0
 15 16  1  0
 16 17  2  0
 17 18  1  0
 18 19  2  0
 19 20  1  0
 20 21  1  0
 21 22  1  0
 22 23  1  0
 23 24  2  0
 24 25  1  0
 25 26  2  0
 26 27  1  0
 27 28  2  0
 26 29  1  0
 29 30  1  0
 30 31  1  0
 31 32  2  0
 31 33  1  0
 19 34  1  0
 34 35  2  0
 35 36  1  0
 10  6  1  0
 17 13  1  0
 28 23  1  0
 35 16  1  0
M  CHG  1  33  -1
M  END
$$$$
