
     RDKit          3D

 36 39  0  0  0  0  0  0  0  0999 V2000
   -2.4832   -2.3560    5.2346 C   0  0  0  0  0  0  0  0  0  0  0  0
   -1.1409   -1.9061    5.7477 C   0  0  0  0  0  0  0  0  0  0  0  0
   -1.2178   -0.7409    6.5982 N   0  0  0  0  0  0  0  0  0  0  0  0
   -0.0892   -0.2565    7.3043 C   0  0  0  0  0  0  0  0  0  0  0  0
    1.0518   -0.6633    6.9932 O   0  0  0  0  0  0  0  0  0  0  0  0
   -0.2593    0.7211    8.3979 C   0  0  1  0  0  0  0  0  0  0  0  0
   -0.1238    0.1239    9.6164 O   0  0  0  0  0  0  0  0  0  0  0  0
    0.5148    0.9652   10.4825 C   0  0  2  0  0  0  0  0  0  0  0  0
    1.1204    2.1094    9.7482 C   0  0  1  0  0  0  0  0  0  0  0  0
    0.6844    1.8807    8.3268 C   0  0  2  0  0  0  0  0  0  0  0  0
    0.0576    3.0339    7.8508 O   0  0  0  0  0  0  0  0  0  0  0  0
    0.6309    3.3426   10.2082 O   0  0  0  0  0  0  0  0  0  0  0  0
    1.4564    0.2878   11.3507 N   0  0  0  0  0  0  0  0  0  0  0  0
    1.9181   -0.9579   11.1562 C   0  0  0  0  0  0  0  0  0  0  0  0
    2.7845   -1.3003   12.1455 N   0  0  0  0  0  0  0  0  0  0  0  0
    2.8671   -0.2535   12.9725 C   0  0  0  0  0  0  0  0  0  0  0  0
    2.0478    0.7349   12.4881 C   0  0  0  0  0  0  0  0  0  0  0  0
    1.9226    1.9100   13.1090 N   0  0  0  0  0  0  0  0  0  0  0  0
    2.6219    2.1319   14.2448 C   0  0  0  0  0  0  0  0  0  0  0  0
    2.4786    3.3804   14.8900 N   0  0  0  0  0  0  0  0  0  0  0  0
    1.7664    4.4427   14.2495 C   0  0  0  0  0  0  0  0  0  0  0  0
    1.2997    5.5254   15.1897 C   0  0  0  0  0  0  0  0  0  0  0  0
    2.4915    6.4080   15.4523 C   0  0  0  0  0  0  0  0  0  0  0  0
    3.3652    6.7010   14.4206 C   0  0  0  0  0  0  0  0  0  0  0  0
    4.4732    7.4987   14.5879 C   0  0  0  0  0  0  0  0  0  0  0  0
    4.7031    8.0176   15.8439 C   0  0  0  0  0  0  0  0  0  0  0  0
    3.8365    7.7356   16.8954 C   0  0  0  0  0  0  0  0  0  0  0  0
    2.7199    6.9236   16.7004 C   0  0  0  0  0  0  0  0  0  0  0  0
    5.8975    8.8738   16.0168 C   0  0  0  0  0  0  0  0  0  0  0  0
    7.0152    8.5493   15.0809 C   0  0  0  0  0  0  0  0  0  0  0  0
    8.2254    9.3826   15.2328 C   0  0  0  0  0  0  0  0  0  0  0  0
    8.7973    9.9187   14.2416 O   0  0  0  0  0  0  0  0  0  0  0  0
    8.7734    9.5942   16.5062 O   0  0  0  0  0  1  0  0  0  0  0  0
    3.4351    1.1615   14.7323 N   0  0  0  0  0  0  0  0  0  0  0  0
    3.5830   -0.0293   14.1333 C   0  0  0  0  0  0  0  0  0  0  0  0
    4.4416   -1.0286   14.6650 N   0  0  0  0  0  0  0  0  0  0  0  0
  1  2  1  0
  2  3  1  0
  3  4  1  0
  4  5  2  0
  6  4  1  6
  6  7  1  0
  7  8  1  0
  8  9  1  0
  9 10  1  0
 10 11  1  1
  9 12  1  1
  8 13  1  6
 13 14  1  0
 14 15  2  0
 15 16  1  0
 16 17  2  0
 17 18  1  0
 18 19  2  0
 19 20  1  0
 20 21  1  0
 21 22  1  0
 22 23  1  0
 23 24  2  0
 24 25  1  0
 25 26  2  0
 26 27  1  0
 27 28  2  0
 26 29  1  0
 29 30  1  0
 30 31  1  0
 31 32  2  0
 31 33  1  0
 19 34  1  0
 34 35  2  0
 35 36  1  0
 10  6  1  0
 17 13  1  0
 28 23  1  0
 35 16  1  0
M  CHG  1  33  -1
M  END
$$$$
