
     RDKit          3D

 36 39  0  0  0  0  0  0  0  0999 V2000
   -0.8946   -3.1069    4.3300 C   0  0  0  0  0  0  0  0  0  0  0  0
   -1.0652   -3.0799    5.8259 C   0  0  0  0  0  0  0  0  0  0  0  0
   -1.1386   -1.7422    6.3665 N   0  0  0  0  0  0  0  0  0  0  0  0
   -0.0273   -1.1299    6.9967 C   0  0  0  0  0  0  0  0  0  0  0  0
    1.1257   -1.5481    6.7521 O   0  0  0  0  0  0  0  0  0  0  0  0
   -0.2293   -0.0069    7.9340 C   0  0  1  0  0  0  0  0  0  0  0  0
   -0.1520   -0.4276    9.2289 O   0  0  0  0  0  0  0  0  0  0  0  0
    0.4615    0.5227    9.9948 C   0  0  2  0  0  0  0  0  0  0  0  0
    1.1119    1.5476    9.1337 C   0  0  1  0  0  0  0  0  0  0  0  0
    0.7318    1.1243    7.7412 C   0  0  2  0  0  0  0  0  0  0  0  0
    0.1405    2.2035    7.0817 O   0  0  0  0  0  0  0  0  0  0  0  0
    0.6202    2.8369    9.3947 O   0  0  0  0  0  0  0  0  0  0  0  0
    1.3575   -0.0326   10.9888 N   0  0  0  0  0  0  0  0  0  0  0  0
    1.6923   -1.3298   11.0788 C   0  0  0  0  0  0  0  0  0  0  0  0
    2.5489   -1.5257   12.1154 N   0  0  0  0  0  0  0  0  0  0  0  0
    2.7541   -0.3333   12.6837 C   0  0  0  0  0  0  0  0  0  0  0  0
    2.0201    0.5974   11.9925 C   0  0  0  0  0  0  0  0  0  0  0  0
    2.0251    1.8885   12.3320 N   0  0  0  0  0  0  0  0  0  0  0  0
    2.7734    2.2892   13.3845 C   0  0  0  0  0  0  0  0  0  0  0  0
    2.7681    3.6586   13.7312 N   0  0  0  0  0  0  0  0  0  0  0  0
    2.8440    4.0524   15.1042 C   0  0  0  0  0  0  0  0  0  0  0  0
    4.1959    3.8298   15.7344 C   0  0  0  0  0  0  0  0  0  0  0  0
    4.2630    4.7358   16.9357 C   0  0  0  0  0  0  0  0  0  0  0  0
    5.1483    5.7987   16.9411 C   0  0  0  0  0  0  0  0  0  0  0  0
    5.2635    6.6656   18.0029 C   0  0  0  0  0  0  0  0  0  0  0  0
    4.4534    6.4477   19.0964 C   0  0  0  0  0  0  0  0  0  0  0  0
    3.5558    5.3846   19.1112 C   0  0  0  0  0  0  0  0  0  0  0  0
    3.4579    4.5193   18.0223 C   0  0  0  0  0  0  0  0  0  0  0  0
    4.5835    7.3834   20.2353 C   0  0  0  0  0  0  0  0  0  0  0  0
    4.5932    6.7138   21.5702 C   0  0  0  0  0  0  0  0  0  0  0  0
    5.9332    6.4048   22.1097 C   0  0  0  0  0  0  0  0  0  0  0  0
    6.1381    5.4120   22.8642 O   0  0  0  0  0  0  0  0  0  0  0  0
    7.0227    7.2276   21.7893 O   0  0  0  0  0  1  0  0  0  0  0  0
    3.5032    1.3771   14.0747 N   0  0  0  0  0  0  0  0  0  0  0  0
    3.5198    0.0735   13.7599 C   0  0  0  0  0  0  0  0  0  0  0  0
    4.2932   -0.8611   14.4994 N   0  0  0  0  0  0  0  0  0  0  0  0
  1  2  1  0
  2  3  1  0
  3  4  1  0
  4  5  2  0
  6  4  1  6
  6  7  1  0
  7  8  1  0
  8  9  1  0
  9 10  1  0
 10 11  1  1
  9 12  1  1
  8 13  1  6
 13 14  1  0
 14 15  2  0
 15 16  1  0
 16 17  2  0
 17 18  1  0
 18 19  2  0
 19 20  1  0
 20 21  1  0
 21 22  1  0
 22 23  1  0
 23 24  2  0
 24 25  1  0
 25 26  2  0
 26 27  1  0
 27 28  2  0
 26 29  1  0
 29 30  1  0
 30 31  1  0
 31 32  2  0
 31 33  1  0
 19 34  1  0
 34 35  2  0
 35 36  1  0
 10  6  1  0
 17 13  1  0
 28 23  1  0
 35 16  1  0
M  CHG  1  33  -1
M  END
$$$$
