
     RDKit          3D

 36 39  0  0  0  0  0  0  0  0999 V2000
   -0.5138   -3.3914    4.5769 C   0  0  0  0  0  0  0  0  0  0  0  0
   -1.2950   -3.0810    5.8263 C   0  0  0  0  0  0  0  0  0  0  0  0
   -1.2723   -1.6803    6.1787 N   0  0  0  0  0  0  0  0  0  0  0  0
   -0.1974   -1.1105    6.9045 C   0  0  0  0  0  0  0  0  0  0  0  0
    0.9596   -1.5564    6.7411 O   0  0  0  0  0  0  0  0  0  0  0  0
   -0.4415    0.0010    7.8456 C   0  0  1  0  0  0  0  0  0  0  0  0
   -0.3173   -0.4138    9.1388 O   0  0  0  0  0  0  0  0  0  0  0  0
    0.2588    0.5687    9.8930 C   0  0  2  0  0  0  0  0  0  0  0  0
    0.8369    1.6262    9.0198 C   0  0  1  0  0  0  0  0  0  0  0  0
    0.4538    1.1818    7.6347 C   0  0  2  0  0  0  0  0  0  0  0  0
   -0.2069    2.2271    6.9866 O   0  0  0  0  0  0  0  0  0  0  0  0
    0.2819    2.8875    9.2902 O   0  0  0  0  0  0  0  0  0  0  0  0
    1.2019    0.0631   10.8698 N   0  0  0  0  0  0  0  0  0  0  0  0
    1.5196   -1.2317   11.0290 C   0  0  0  0  0  0  0  0  0  0  0  0
    2.4319   -1.3751   12.0259 N   0  0  0  0  0  0  0  0  0  0  0  0
    2.6899   -0.1517   12.4986 C   0  0  0  0  0  0  0  0  0  0  0  0
    1.9326    0.7454   11.7885 C   0  0  0  0  0  0  0  0  0  0  0  0
    1.9791    2.0560   12.0380 N   0  0  0  0  0  0  0  0  0  0  0  0
    2.7943    2.5111   13.0161 C   0  0  0  0  0  0  0  0  0  0  0  0
    2.8322    3.9005   13.2681 N   0  0  0  0  0  0  0  0  0  0  0  0
    3.5144    4.4034   14.4202 C   0  0  0  0  0  0  0  0  0  0  0  0
    2.8591    4.0428   15.7297 C   0  0  0  0  0  0  0  0  0  0  0  0
    3.9639    3.6087   16.6566 C   0  0  0  0  0  0  0  0  0  0  0  0
    4.5760    4.5418   17.4741 C   0  0  0  0  0  0  0  0  0  0  0  0
    5.5908    4.2170   18.3440 C   0  0  0  0  0  0  0  0  0  0  0  0
    5.9987    2.9012   18.3870 C   0  0  0  0  0  0  0  0  0  0  0  0
    5.3961    1.9467   17.5735 C   0  0  0  0  0  0  0  0  0  0  0  0
    4.3692    2.3011   16.6994 C   0  0  0  0  0  0  0  0  0  0  0  0
    7.0916    2.5592   19.3242 C   0  0  0  0  0  0  0  0  0  0  0  0
    6.6387    1.8098   20.5341 C   0  0  0  0  0  0  0  0  0  0  0  0
    6.1872    2.6496   21.6623 C   0  0  0  0  0  0  0  0  0  0  0  0
    6.1141    3.9080   21.5724 O   0  0  0  0  0  0  0  0  0  0  0  0
    5.8277    2.0518   22.8789 O   0  0  0  0  0  1  0  0  0  0  0  0
    3.5477    1.6326   13.7242 N   0  0  0  0  0  0  0  0  0  0  0  0
    3.5240    0.3108   13.4989 C   0  0  0  0  0  0  0  0  0  0  0  0
    4.3235   -0.5878   14.2552 N   0  0  0  0  0  0  0  0  0  0  0  0
  1  2  1  0
  2  3  1  0
  3  4  1  0
  4  5  2  0
  6  4  1  6
  6  7  1  0
  7  8  1  0
  8  9  1  0
  9 10  1  0
 10 11  1  1
  9 12  1  1
  8 13  1  6
 13 14  1  0
 14 15  2  0
 15 16  1  0
 16 17  2  0
 17 18  1  0
 18 19  2  0
 19 20  1  0
 20 21  1  0
 21 22  1  0
 22 23  1  0
 23 24  2  0
 24 25  1  0
 25 26  2  0
 26 27  1  0
 27 28  2  0
 26 29  1  0
 29 30  1  0
 30 31  1  0
 31 32  2  0
 31 33  1  0
 19 34  1  0
 34 35  2  0
 35 36  1  0
 10  6  1  0
 17 13  1  0
 28 23  1  0
 35 16  1  0
M  CHG  1  33  -1
M  END
$$$$
