
     RDKit          3D

 36 39  0  0  0  0  0  0  0  0999 V2000
   -2.4821   -1.3335    5.0309 C   0  0  0  0  0  0  0  0  0  0  0  0
   -1.8215   -1.6880    6.3369 C   0  0  0  0  0  0  0  0  0  0  0  0
   -1.5470   -0.5379    7.1668 N   0  0  0  0  0  0  0  0  0  0  0  0
   -0.2474   -0.2676    7.6616 C   0  0  0  0  0  0  0  0  0  0  0  0
    0.7393   -0.8290    7.1369 O   0  0  0  0  0  0  0  0  0  0  0  0
   -0.0599    0.6696    8.7873 C   0  0  1  0  0  0  0  0  0  0  0  0
    0.1590   -0.0013    9.9541 O   0  0  0  0  0  0  0  0  0  0  0  0
    1.0699    0.6714   10.7180 C   0  0  2  0  0  0  0  0  0  0  0  0
    1.7468    1.7265    9.9156 C   0  0  1  0  0  0  0  0  0  0  0  0
    1.0542    1.6480    8.5826 C   0  0  2  0  0  0  0  0  0  0  0  0
    0.5783    2.9151    8.2404 O   0  0  0  0  0  0  0  0  0  0  0  0
    1.5688    3.0023   10.4749 O   0  0  0  0  0  0  0  0  0  0  0  0
    2.0003   -0.2024   11.4036 N   0  0  0  0  0  0  0  0  0  0  0  0
    2.3890   -1.4079   10.9582 C   0  0  0  0  0  0  0  0  0  0  0  0
    3.2659   -1.9730   11.8292 N   0  0  0  0  0  0  0  0  0  0  0  0
    3.4292   -1.1086   12.8356 C   0  0  0  0  0  0  0  0  0  0  0  0
    2.6492   -0.0090   12.5805 C   0  0  0  0  0  0  0  0  0  0  0  0
    2.6056    1.0303   13.4173 N   0  0  0  0  0  0  0  0  0  0  0  0
    3.3500    0.9982   14.5455 C   0  0  0  0  0  0  0  0  0  0  0  0
    3.2931    2.1055   15.4208 N   0  0  0  0  0  0  0  0  0  0  0  0
    2.6201    3.3029   15.0218 C   0  0  0  0  0  0  0  0  0  0  0  0
    3.1103    4.5464   15.7202 C   0  0  0  0  0  0  0  0  0  0  0  0
    3.3789    5.5648   14.6436 C   0  0  0  0  0  0  0  0  0  0  0  0
    2.5292    6.6467   14.4993 C   0  0  0  0  0  0  0  0  0  0  0  0
    2.7128    7.6142   13.5389 C   0  0  0  0  0  0  0  0  0  0  0  0
    3.7952    7.4805   12.6962 C   0  0  0  0  0  0  0  0  0  0  0  0
    4.6624    6.3999   12.8244 C   0  0  0  0  0  0  0  0  0  0  0  0
    4.4545    5.4319   13.8062 C   0  0  0  0  0  0  0  0  0  0  0  0
    3.9859    8.5242   11.6647 C   0  0  0  0  0  0  0  0  0  0  0  0
    2.9070    8.5589   10.6326 C   0  0  0  0  0  0  0  0  0  0  0  0
    1.9885    9.7124   10.7207 C   0  0  0  0  0  0  0  0  0  0  0  0
    0.9698    9.7011   11.4686 O   0  0  0  0  0  0  0  0  0  0  0  0
    2.2351   10.8626    9.9571 O   0  0  0  0  0  1  0  0  0  0  0  0
    4.1251   -0.0842   14.8073 N   0  0  0  0  0  0  0  0  0  0  0  0
    4.1911   -1.1440   13.9881 C   0  0  0  0  0  0  0  0  0  0  0  0
    5.0113   -2.2652   14.2859 N   0  0  0  0  0  0  0  0  0  0  0  0
  1  2  1  0
  2  3  1  0
  3  4  1  0
  4  5  2  0
  6  4  1  6
  6  7  1  0
  7  8  1  0
  8  9  1  0
  9 10  1  0
 10 11  1  1
  9 12  1  1
  8 13  1  6
 13 14  1  0
 14 15  2  0
 15 16  1  0
 16 17  2  0
 17 18  1  0
 18 19  2  0
 19 20  1  0
 20 21  1  0
 21 22  1  0
 22 23  1  0
 23 24  2  0
 24 25  1  0
 25 26  2  0
 26 27  1  0
 27 28  2  0
 26 29  1  0
 29 30  1  0
 30 31  1  0
 31 32  2  0
 31 33  1  0
 19 34  1  0
 34 35  2  0
 35 36  1  0
 10  6  1  0
 17 13  1  0
 28 23  1  0
 35 16  1  0
M  CHG  1  33  -1
M  END
$$$$
