
     RDKit          3D

 36 39  0  0  0  0  0  0  0  0999 V2000
   -1.9845   -3.1633    4.5036 C   0  0  0  0  0  0  0  0  0  0  0  0
   -0.7438   -2.3695    4.8166 C   0  0  0  0  0  0  0  0  0  0  0  0
   -0.9551   -1.3566    5.8248 N   0  0  0  0  0  0  0  0  0  0  0  0
    0.1199   -0.8011    6.5615 C   0  0  0  0  0  0  0  0  0  0  0  0
    1.2765   -1.2450    6.3908 O   0  0  0  0  0  0  0  0  0  0  0  0
   -0.1239    0.2934    7.5224 C   0  0  1  0  0  0  0  0  0  0  0  0
   -0.0329   -0.1521    8.8081 O   0  0  0  0  0  0  0  0  0  0  0  0
    0.5447    0.8030    9.5955 C   0  0  2  0  0  0  0  0  0  0  0  0
    1.1585    1.8692    8.7580 C   0  0  1  0  0  0  0  0  0  0  0  0
    0.7957    1.4625    7.3559 C   0  0  2  0  0  0  0  0  0  0  0  0
    0.1663    2.5336    6.7187 O   0  0  0  0  0  0  0  0  0  0  0  0
    0.6200    3.1338    9.0458 O   0  0  0  0  0  0  0  0  0  0  0  0
    1.4590    0.2592   10.5791 N   0  0  0  0  0  0  0  0  0  0  0  0
    1.9223   -1.0011   10.5800 C   0  0  0  0  0  0  0  0  0  0  0  0
    2.7591   -1.1959   11.6329 N   0  0  0  0  0  0  0  0  0  0  0  0
    2.8213   -0.0404   12.3019 C   0  0  0  0  0  0  0  0  0  0  0  0
    2.0192    0.8667   11.6564 C   0  0  0  0  0  0  0  0  0  0  0  0
    1.8800    2.1191   12.0970 N   0  0  0  0  0  0  0  0  0  0  0  0
    2.5474    2.5037   13.2083 C   0  0  0  0  0  0  0  0  0  0  0  0
    2.3896    3.8322   13.6619 N   0  0  0  0  0  0  0  0  0  0  0  0
    3.3487    4.4051   14.5550 C   0  0  0  0  0  0  0  0  0  0  0  0
    2.7940    4.7515   15.9140 C   0  0  0  0  0  0  0  0  0  0  0  0
    3.8174    4.2996   16.9224 C   0  0  0  0  0  0  0  0  0  0  0  0
    4.1864    2.9673   16.9714 C   0  0  0  0  0  0  0  0  0  0  0  0
    5.1133    2.4844   17.8656 C   0  0  0  0  0  0  0  0  0  0  0  0
    5.6862    3.3829   18.7397 C   0  0  0  0  0  0  0  0  0  0  0  0
    5.3294    4.7275   18.7070 C   0  0  0  0  0  0  0  0  0  0  0  0
    4.3867    5.1925   17.7910 C   0  0  0  0  0  0  0  0  0  0  0  0
    6.6816    2.8562   19.6996 C   0  0  0  0  0  0  0  0  0  0  0  0
    6.8196    3.6772   20.9395 C   0  0  0  0  0  0  0  0  0  0  0  0
    6.5903    2.9500   22.2047 C   0  0  0  0  0  0  0  0  0  0  0  0
    5.4647    2.9453   22.7793 O   0  0  0  0  0  0  0  0  0  0  0  0
    7.6412    2.2405   22.8037 O   0  0  0  0  0  1  0  0  0  0  0  0
    3.3433    1.6148   13.8541 N   0  0  0  0  0  0  0  0  0  0  0  0
    3.5046    0.3501   13.4380 C   0  0  0  0  0  0  0  0  0  0  0  0
    4.3446   -0.5609   14.1330 N   0  0  0  0  0  0  0  0  0  0  0  0
  1  2  1  0
  2  3  1  0
  3  4  1  0
  4  5  2  0
  6  4  1  6
  6  7  1  0
  7  8  1  0
  8  9  1  0
  9 10  1  0
 10 11  1  1
  9 12  1  1
  8 13  1  6
 13 14  1  0
 14 15  2  0
 15 16  1  0
 16 17  2  0
 17 18  1  0
 18 19  2  0
 19 20  1  0
 20 21  1  0
 21 22  1  0
 22 23  1  0
 23 24  2  0
 24 25  1  0
 25 26  2  0
 26 27  1  0
 27 28  2  0
 26 29  1  0
 29 30  1  0
 30 31  1  0
 31 32  2  0
 31 33  1  0
 19 34  1  0
 34 35  2  0
 35 36  1  0
 10  6  1  0
 17 13  1  0
 28 23  1  0
 35 16  1  0
M  CHG  1  33  -1
M  END
$$$$
