
     RDKit          3D

 36 39  0  0  0  0  0  0  0  0999 V2000
   -1.4811   -1.1435    6.0340 C   0  0  0  0  0  0  0  0  0  0  0  0
   -0.8698    0.2216    5.8599 C   0  0  0  0  0  0  0  0  0  0  0  0
   -0.7189    0.9407    7.1037 N   0  0  0  0  0  0  0  0  0  0  0  0
    0.2839    0.6014    8.0451 C   0  0  0  0  0  0  0  0  0  0  0  0
    1.1050   -0.3011    7.7704 O   0  0  0  0  0  0  0  0  0  0  0  0
    0.3590    1.3083    9.3394 C   0  0  1  0  0  0  0  0  0  0  0  0
    0.5179    0.4300   10.3705 O   0  0  0  0  0  0  0  0  0  0  0  0
    1.3488    0.9616   11.3154 C   0  0  2  0  0  0  0  0  0  0  0  0
    2.0439    2.1648   10.7822 C   0  0  1  0  0  0  0  0  0  0  0  0
    1.4504    2.3301    9.4099 C   0  0  2  0  0  0  0  0  0  0  0  0
    0.9565    3.6295    9.2800 O   0  0  0  0  0  0  0  0  0  0  0  0
    1.7830    3.3053   11.5589 O   0  0  0  0  0  0  0  0  0  0  0  0
    2.2579   -0.0088   11.8907 N   0  0  0  0  0  0  0  0  0  0  0  0
    2.5996   -1.1731   11.3160 C   0  0  0  0  0  0  0  0  0  0  0  0
    3.4682   -1.8542   12.1088 N   0  0  0  0  0  0  0  0  0  0  0  0
    3.6740   -1.1055   13.1967 C   0  0  0  0  0  0  0  0  0  0  0  0
    2.9284    0.0395   13.0704 C   0  0  0  0  0  0  0  0  0  0  0  0
    2.9312    0.9865   14.0113 N   0  0  0  0  0  0  0  0  0  0  0  0
    3.6889    0.8126   15.1176 C   0  0  0  0  0  0  0  0  0  0  0  0
    3.6811    1.8237   16.1042 N   0  0  0  0  0  0  0  0  0  0  0  0
    3.0464    3.0783   15.8421 C   0  0  0  0  0  0  0  0  0  0  0  0
    3.8875    4.2792   16.1953 C   0  0  0  0  0  0  0  0  0  0  0  0
    3.4486    5.3934   15.2819 C   0  0  0  0  0  0  0  0  0  0  0  0
    4.3922    6.0783   14.5375 C   0  0  0  0  0  0  0  0  0  0  0  0
    4.0637    7.1059   13.6842 C   0  0  0  0  0  0  0  0  0  0  0  0
    2.7333    7.4508   13.5817 C   0  0  0  0  0  0  0  0  0  0  0  0
    1.7681    6.7745   14.3214 C   0  0  0  0  0  0  0  0  0  0  0  0
    2.1265    5.7361   15.1801 C   0  0  0  0  0  0  0  0  0  0  0  0
    2.3874    8.5579   12.6628 C   0  0  0  0  0  0  0  0  0  0  0  0
    0.9493    8.5834   12.2607 C   0  0  0  0  0  0  0  0  0  0  0  0
    0.7033    8.7500   10.8137 C   0  0  0  0  0  0  0  0  0  0  0  0
   -0.1463    8.0487   10.1944 O   0  0  0  0  0  0  0  0  0  0  0  0
    1.4261    9.7072   10.0871 O   0  0  0  0  0  1  0  0  0  0  0  0
    4.4302   -0.3158   15.2525 N   0  0  0  0  0  0  0  0  0  0  0  0
    4.4494   -1.2857   14.3265 C   0  0  0  0  0  0  0  0  0  0  0  0
    5.2349   -2.4579   14.4924 N   0  0  0  0  0  0  0  0  0  0  0  0
  1  2  1  0
  2  3  1  0
  3  4  1  0
  4  5  2  0
  6  4  1  6
  6  7  1  0
  7  8  1  0
  8  9  1  0
  9 10  1  0
 10 11  1  1
  9 12  1  1
  8 13  1  6
 13 14  1  0
 14 15  2  0
 15 16  1  0
 16 17  2  0
 17 18  1  0
 18 19  2  0
 19 20  1  0
 20 21  1  0
 21 22  1  0
 22 23  1  0
 23 24  2  0
 24 25  1  0
 25 26  2  0
 26 27  1  0
 27 28  2  0
 26 29  1  0
 29 30  1  0
 30 31  1  0
 31 32  2  0
 31 33  1  0
 19 34  1  0
 34 35  2  0
 35 36  1  0
 10  6  1  0
 17 13  1  0
 28 23  1  0
 35 16  1  0
M  CHG  1  33  -1
M  END
$$$$
