
     RDKit          3D

 36 39  0  0  0  0  0  0  0  0999 V2000
    1.3564    5.7419   11.0839 C   0  0  0  0  0  0  0  0  0  0  0  0
    0.3587    5.6427    9.9604 C   0  0  0  0  0  0  0  0  0  0  0  0
    0.5586    4.4833    9.1221 N   0  0  0  0  0  0  0  0  0  0  0  0
    0.1399    3.1908    9.5236 C   0  0  0  0  0  0  0  0  0  0  0  0
   -0.4718    3.0511   10.6054 O   0  0  0  0  0  0  0  0  0  0  0  0
    0.4233    2.0188    8.6711 C   0  0  1  0  0  0  0  0  0  0  0  0
    1.5959    1.4221    9.0300 O   0  0  0  0  0  0  0  0  0  0  0  0
    1.4876    0.0657    8.9102 C   0  0  2  0  0  0  0  0  0  0  0  0
    0.0641   -0.3309    8.7331 C   0  0  1  0  0  0  0  0  0  0  0  0
   -0.6603    0.9863    8.6800 C   0  0  2  0  0  0  0  0  0  0  0  0
   -1.4351    1.0345    7.5195 O   0  0  0  0  0  0  0  0  0  0  0  0
   -0.1358   -1.0375    7.5360 O   0  0  0  0  0  0  0  0  0  0  0  0
    2.1485   -0.6587    9.9767 N   0  0  0  0  0  0  0  0  0  0  0  0
    2.7538   -1.8486    9.8340 C   0  0  0  0  0  0  0  0  0  0  0  0
    3.2756   -2.2585   11.0200 N   0  0  0  0  0  0  0  0  0  0  0  0
    2.9930   -1.3111   11.9196 C   0  0  0  0  0  0  0  0  0  0  0  0
    2.2951   -0.3163   11.2824 C   0  0  0  0  0  0  0  0  0  0  0  0
    1.8733    0.7716   11.9310 N   0  0  0  0  0  0  0  0  0  0  0  0
    2.1413    0.8962   13.2505 C   0  0  0  0  0  0  0  0  0  0  0  0
    1.6882    2.0531   13.9227 N   0  0  0  0  0  0  0  0  0  0  0  0
    2.6154    2.8858   14.6245 C   0  0  0  0  0  0  0  0  0  0  0  0
    2.9951    2.3695   15.9896 C   0  0  0  0  0  0  0  0  0  0  0  0
    3.5115    3.5519   16.7666 C   0  0  0  0  0  0  0  0  0  0  0  0
    3.5744    4.7934   16.1598 C   0  0  0  0  0  0  0  0  0  0  0  0
    4.0349    5.9159   16.8079 C   0  0  0  0  0  0  0  0  0  0  0  0
    4.4452    5.7750   18.1161 C   0  0  0  0  0  0  0  0  0  0  0  0
    4.3898    4.5352   18.7454 C   0  0  0  0  0  0  0  0  0  0  0  0
    3.9192    3.4119   18.0666 C   0  0  0  0  0  0  0  0  0  0  0  0
    4.9405    6.9864   18.8067 C   0  0  0  0  0  0  0  0  0  0  0  0
    6.0925    7.6451   18.1214 C   0  0  0  0  0  0  0  0  0  0  0  0
    6.2638    9.0818   18.4186 C   0  0  0  0  0  0  0  0  0  0  0  0
    5.5384    9.9671   17.8827 O   0  0  0  0  0  0  0  0  0  0  0  0
    7.2576    9.4964   19.3171 O   0  0  0  0  0  1  0  0  0  0  0  0
    2.8309   -0.0815   13.8902 N   0  0  0  0  0  0  0  0  0  0  0  0
    3.2683   -1.1862   13.2682 C   0  0  0  0  0  0  0  0  0  0  0  0
    3.9888   -2.1953   13.9619 N   0  0  0  0  0  0  0  0  0  0  0  0
  1  2  1  0
  2  3  1  0
  3  4  1  0
  4  5  2  0
  6  4  1  1
  6  7  1  0
  7  8  1  0
  8  9  1  0
  9 10  1  0
 10 11  1  6
  9 12  1  6
  8 13  1  1
 13 14  1  0
 14 15  2  0
 15 16  1  0
 16 17  2  0
 17 18  1  0
 18 19  2  0
 19 20  1  0
 20 21  1  0
 21 22  1  0
 22 23  1  0
 23 24  2  0
 24 25  1  0
 25 26  2  0
 26 27  1  0
 27 28  2  0
 26 29  1  0
 29 30  1  0
 30 31  1  0
 31 32  2  0
 31 33  1  0
 19 34  1  0
 34 35  2  0
 35 36  1  0
 10  6  1  0
 17 13  1  0
 28 23  1  0
 35 16  1  0
M  CHG  1  33  -1
M  END
$$$$
