
     RDKit          3D

 36 39  0  0  0  0  0  0  0  0999 V2000
   -0.4475   -2.2452    5.1541 C   0  0  0  0  0  0  0  0  0  0  0  0
   -1.2709   -1.8953    6.3653 C   0  0  0  0  0  0  0  0  0  0  0  0
   -1.0644   -0.5405    6.8222 N   0  0  0  0  0  0  0  0  0  0  0  0
    0.0454   -0.1856    7.6280 C   0  0  0  0  0  0  0  0  0  0  0  0
    1.1901   -0.5688    7.3012 O   0  0  0  0  0  0  0  0  0  0  0  0
   -0.1485    0.6305    8.8434 C   0  0  1  0  0  0  0  0  0  0  0  0
    0.0001   -0.1230    9.9702 O   0  0  0  0  0  0  0  0  0  0  0  0
    0.6181    0.6078   10.9449 C   0  0  2  0  0  0  0  0  0  0  0  0
    1.1971    1.8547   10.3747 C   0  0  1  0  0  0  0  0  0  0  0  0
    0.7677    1.8107    8.9338 C   0  0  2  0  0  0  0  0  0  0  0  0
    0.1142    3.0028    8.6159 O   0  0  0  0  0  0  0  0  0  0  0  0
    0.6783    3.0025   10.9956 O   0  0  0  0  0  0  0  0  0  0  0  0
    1.5747   -0.1590   11.7169 N   0  0  0  0  0  0  0  0  0  0  0  0
    2.0126   -1.3862   11.3930 C   0  0  0  0  0  0  0  0  0  0  0  0
    2.9025   -1.8300   12.3192 N   0  0  0  0  0  0  0  0  0  0  0  0
    3.0242   -0.8664   13.2375 C   0  0  0  0  0  0  0  0  0  0  0  0
    2.2055    0.1725   12.8726 C   0  0  0  0  0  0  0  0  0  0  0  0
    2.1154    1.2857   13.6041 N   0  0  0  0  0  0  0  0  0  0  0  0
    2.8506    1.3919   14.7338 C   0  0  0  0  0  0  0  0  0  0  0  0
    2.7442    2.5760   15.4969 N   0  0  0  0  0  0  0  0  0  0  0  0
    1.9468    3.6656   15.0251 C   0  0  0  0  0  0  0  0  0  0  0  0
    2.6144    5.0127   15.1420 C   0  0  0  0  0  0  0  0  0  0  0  0
    2.3942    5.7156   13.8283 C   0  0  0  0  0  0  0  0  0  0  0  0
    1.5663    5.1448   12.8784 C   0  0  0  0  0  0  0  0  0  0  0  0
    1.3201    5.7296   11.6580 C   0  0  0  0  0  0  0  0  0  0  0  0
    1.9338    6.9346   11.3916 C   0  0  0  0  0  0  0  0  0  0  0  0
    2.7700    7.5261   12.3334 C   0  0  0  0  0  0  0  0  0  0  0  0
    3.0040    6.9130   13.5636 C   0  0  0  0  0  0  0  0  0  0  0  0
    1.6654    7.5574   10.0764 C   0  0  0  0  0  0  0  0  0  0  0  0
    2.6110    8.6585    9.7242 C   0  0  0  0  0  0  0  0  0  0  0  0
    2.3144    9.3625    8.4599 C   0  0  0  0  0  0  0  0  0  0  0  0
    2.0175   10.5905    8.4316 O   0  0  0  0  0  0  0  0  0  0  0  0
    2.3550    8.6640    7.2445 O   0  0  0  0  0  1  0  0  0  0  0  0
    3.6636    0.3706   15.1036 N   0  0  0  0  0  0  0  0  0  0  0  0
    3.7768   -0.7603   14.3918 C   0  0  0  0  0  0  0  0  0  0  0  0
    4.6361   -1.8150   14.8015 N   0  0  0  0  0  0  0  0  0  0  0  0
  1  2  1  0
  2  3  1  0
  3  4  1  0
  4  5  2  0
  6  4  1  6
  6  7  1  0
  7  8  1  0
  8  9  1  0
  9 10  1  0
 10 11  1  1
  9 12  1  1
  8 13  1  6
 13 14  1  0
 14 15  2  0
 15 16  1  0
 16 17  2  0
 17 18  1  0
 18 19  2  0
 19 20  1  0
 20 21  1  0
 21 22  1  0
 22 23  1  0
 23 24  2  0
 24 25  1  0
 25 26  2  0
 26 27  1  0
 27 28  2  0
 26 29  1  0
 29 30  1  0
 30 31  1  0
 31 32  2  0
 31 33  1  0
 19 34  1  0
 34 35  2  0
 35 36  1  0
 10  6  1  0
 17 13  1  0
 28 23  1  0
 35 16  1  0
M  CHG  1  33  -1
M  END
$$$$
