
     RDKit          3D

 36 39  0  0  0  0  0  0  0  0999 V2000
   -2.3968   -2.5145    5.9712 C   0  0  0  0  0  0  0  0  0  0  0  0
   -1.9532   -1.1449    5.5298 C   0  0  0  0  0  0  0  0  0  0  0  0
   -1.7626   -0.2266    6.6285 N   0  0  0  0  0  0  0  0  0  0  0  0
   -0.5734   -0.2204    7.3984 C   0  0  0  0  0  0  0  0  0  0  0  0
    0.3488   -1.0151    7.1117 O   0  0  0  0  0  0  0  0  0  0  0  0
   -0.4243    0.7171    8.5296 C   0  0  1  0  0  0  0  0  0  0  0  0
   -0.1804    0.0486    9.6930 O   0  0  0  0  0  0  0  0  0  0  0  0
    0.7024    0.7524   10.4619 C   0  0  2  0  0  0  0  0  0  0  0  0
    1.3381    1.8378    9.6664 C   0  0  1  0  0  0  0  0  0  0  0  0
    0.6507    1.7397    8.3320 C   0  0  2  0  0  0  0  0  0  0  0  0
    0.1256    2.9890    7.9963 O   0  0  0  0  0  0  0  0  0  0  0  0
    1.1094    3.1024   10.2325 O   0  0  0  0  0  0  0  0  0  0  0  0
    1.6657   -0.0880   11.1438 N   0  0  0  0  0  0  0  0  0  0  0  0
    2.0106   -1.3267   10.7573 C   0  0  0  0  0  0  0  0  0  0  0  0
    2.9362   -1.8458   11.6063 N   0  0  0  0  0  0  0  0  0  0  0  0
    3.1749   -0.9185   12.5388 C   0  0  0  0  0  0  0  0  0  0  0  0
    2.3924    0.1737   12.2604 C   0  0  0  0  0  0  0  0  0  0  0  0
    2.4156    1.2674   13.0256 N   0  0  0  0  0  0  0  0  0  0  0  0
    3.2320    1.2994   14.1029 C   0  0  0  0  0  0  0  0  0  0  0  0
    3.2451    2.4638   14.9027 N   0  0  0  0  0  0  0  0  0  0  0  0
    3.5094    3.7389   14.3110 C   0  0  0  0  0  0  0  0  0  0  0  0
    2.5383    4.8189   14.7171 C   0  0  0  0  0  0  0  0  0  0  0  0
    2.8857    5.1973   16.1329 C   0  0  0  0  0  0  0  0  0  0  0  0
    4.1229    4.8541   16.6478 C   0  0  0  0  0  0  0  0  0  0  0  0
    4.5073    5.1664   17.9310 C   0  0  0  0  0  0  0  0  0  0  0  0
    3.6070    5.8504   18.7191 C   0  0  0  0  0  0  0  0  0  0  0  0
    2.3573    6.2054   18.2206 C   0  0  0  0  0  0  0  0  0  0  0  0
    1.9910    5.8770   16.9160 C   0  0  0  0  0  0  0  0  0  0  0  0
    4.0268    6.1820   20.0988 C   0  0  0  0  0  0  0  0  0  0  0  0
    3.0211    6.9800   20.8618 C   0  0  0  0  0  0  0  0  0  0  0  0
    3.4062    7.3188   22.2471 C   0  0  0  0  0  0  0  0  0  0  0  0
    2.6252    7.9337   23.0273 O   0  0  0  0  0  0  0  0  0  0  0  0
    4.6733    6.9588   22.7285 O   0  0  0  0  0  1  0  0  0  0  0  0
    4.0101    0.2249   14.3872 N   0  0  0  0  0  0  0  0  0  0  0  0
    4.0103   -0.8884   13.6394 C   0  0  0  0  0  0  0  0  0  0  0  0
    4.8354   -1.9999   13.9593 N   0  0  0  0  0  0  0  0  0  0  0  0
  1  2  1  0
  2  3  1  0
  3  4  1  0
  4  5  2  0
  6  4  1  6
  6  7  1  0
  7  8  1  0
  8  9  1  0
  9 10  1  0
 10 11  1  1
  9 12  1  1
  8 13  1  6
 13 14  1  0
 14 15  2  0
 15 16  1  0
 16 17  2  0
 17 18  1  0
 18 19  2  0
 19 20  1  0
 20 21  1  0
 21 22  1  0
 22 23  1  0
 23 24  2  0
 24 25  1  0
 25 26  2  0
 26 27  1  0
 27 28  2  0
 26 29  1  0
 29 30  1  0
 30 31  1  0
 31 32  2  0
 31 33  1  0
 19 34  1  0
 34 35  2  0
 35 36  1  0
 10  6  1  0
 17 13  1  0
 28 23  1  0
 35 16  1  0
M  CHG  1  33  -1
M  END
$$$$
