
     RDKit          3D

 36 39  0  0  0  0  0  0  0  0999 V2000
   -2.7525   -1.5005    5.5846 C   0  0  0  0  0  0  0  0  0  0  0  0
   -1.2863   -1.2536    5.8230 C   0  0  0  0  0  0  0  0  0  0  0  0
   -1.0277   -0.0561    6.5885 N   0  0  0  0  0  0  0  0  0  0  0  0
    0.1208    0.0725    7.4079 C   0  0  0  0  0  0  0  0  0  0  0  0
    1.1653   -0.5443    7.1037 O   0  0  0  0  0  0  0  0  0  0  0  0
    0.0844    0.9282    8.6109 C   0  0  1  0  0  0  0  0  0  0  0  0
    0.1024    0.1771    9.7490 O   0  0  0  0  0  0  0  0  0  0  0  0
    0.8477    0.7995   10.7097 C   0  0  2  0  0  0  0  0  0  0  0  0
    1.6376    1.9134   10.1179 C   0  0  1  0  0  0  0  0  0  0  0  0
    1.1982    1.9258    8.6793 C   0  0  2  0  0  0  0  0  0  0  0  0
    0.7675    3.2110    8.3449 O   0  0  0  0  0  0  0  0  0  0  0  0
    1.3374    3.1449   10.7224 O   0  0  0  0  0  0  0  0  0  0  0  0
    1.6559   -0.1151   11.4904 N   0  0  0  0  0  0  0  0  0  0  0  0
    1.9490   -1.3754   11.1321 C   0  0  0  0  0  0  0  0  0  0  0  0
    2.7245   -1.9673   12.0782 N   0  0  0  0  0  0  0  0  0  0  0  0
    2.9203   -1.0643   13.0440 C   0  0  0  0  0  0  0  0  0  0  0  0
    2.2622    0.0860   12.6885 C   0  0  0  0  0  0  0  0  0  0  0  0
    2.2773    1.1720   13.4648 N   0  0  0  0  0  0  0  0  0  0  0  0
    2.9595    1.1373   14.6317 C   0  0  0  0  0  0  0  0  0  0  0  0
    2.9659    2.2945   15.4419 N   0  0  0  0  0  0  0  0  0  0  0  0
    3.2892    3.5670   14.8745 C   0  0  0  0  0  0  0  0  0  0  0  0
    2.1393    4.5425   14.8559 C   0  0  0  0  0  0  0  0  0  0  0  0
    2.6858    5.8388   14.3180 C   0  0  0  0  0  0  0  0  0  0  0  0
    4.0324    5.9406   14.0185 C   0  0  0  0  0  0  0  0  0  0  0  0
    4.5998    7.0924   13.5250 C   0  0  0  0  0  0  0  0  0  0  0  0
    3.7738    8.1779   13.3278 C   0  0  0  0  0  0  0  0  0  0  0  0
    2.4163    8.0966   13.6223 C   0  0  0  0  0  0  0  0  0  0  0  0
    1.8649    6.9175   14.1221 C   0  0  0  0  0  0  0  0  0  0  0  0
    4.3912    9.4138   12.7978 C   0  0  0  0  0  0  0  0  0  0  0  0
    4.8093   10.3826   13.8548 C   0  0  0  0  0  0  0  0  0  0  0  0
    3.7192   11.1985   14.4274 C   0  0  0  0  0  0  0  0  0  0  0  0
    2.5709   11.2448   13.9016 O   0  0  0  0  0  0  0  0  0  0  0  0
    3.9463   11.9542   15.5868 O   0  0  0  0  0  1  0  0  0  0  0  0
    3.6140    0.0050   14.9926 N   0  0  0  0  0  0  0  0  0  0  0  0
    3.6184   -1.1025   14.2363 C   0  0  0  0  0  0  0  0  0  0  0  0
    4.3123   -2.2755   14.6377 N   0  0  0  0  0  0  0  0  0  0  0  0
  1  2  1  0
  2  3  1  0
  3  4  1  0
  4  5  2  0
  6  4  1  6
  6  7  1  0
  7  8  1  0
  8  9  1  0
  9 10  1  0
 10 11  1  1
  9 12  1  1
  8 13  1  6
 13 14  1  0
 14 15  2  0
 15 16  1  0
 16 17  2  0
 17 18  1  0
 18 19  2  0
 19 20  1  0
 20 21  1  0
 21 22  1  0
 22 23  1  0
 23 24  2  0
 24 25  1  0
 25 26  2  0
 26 27  1  0
 27 28  2  0
 26 29  1  0
 29 30  1  0
 30 31  1  0
 31 32  2  0
 31 33  1  0
 19 34  1  0
 34 35  2  0
 35 36  1  0
 10  6  1  0
 17 13  1  0
 28 23  1  0
 35 16  1  0
M  CHG  1  33  -1
M  END
$$$$
