
     RDKit          3D

 36 39  0  0  0  0  0  0  0  0999 V2000
   -2.4630   -2.0224    5.0093 C   0  0  0  0  0  0  0  0  0  0  0  0
   -1.8034   -1.9739    6.3621 C   0  0  0  0  0  0  0  0  0  0  0  0
   -1.6041   -0.6290    6.8505 N   0  0  0  0  0  0  0  0  0  0  0  0
   -0.3650   -0.2078    7.3928 C   0  0  0  0  0  0  0  0  0  0  0  0
    0.7005   -0.5901    6.8612 O   0  0  0  0  0  0  0  0  0  0  0  0
   -0.3324    0.6758    8.5755 C   0  0  1  0  0  0  0  0  0  0  0  0
   -0.1470   -0.0420    9.7201 O   0  0  0  0  0  0  0  0  0  0  0  0
    0.6515    0.6518   10.5844 C   0  0  2  0  0  0  0  0  0  0  0  0
    1.3008    1.7972    9.8905 C   0  0  1  0  0  0  0  0  0  0  0  0
    0.7145    1.7433    8.5063 C   0  0  2  0  0  0  0  0  0  0  0  0
    0.1678    2.9893    8.1936 O   0  0  0  0  0  0  0  0  0  0  0  0
    0.9846    3.0229   10.4986 O   0  0  0  0  0  0  0  0  0  0  0  0
    1.5948   -0.1886   11.2937 N   0  0  0  0  0  0  0  0  0  0  0  0
    1.8517   -1.4724   10.9957 C   0  0  0  0  0  0  0  0  0  0  0  0
    2.7829   -1.9776   11.8467 N   0  0  0  0  0  0  0  0  0  0  0  0
    3.1147   -0.9958   12.6908 C   0  0  0  0  0  0  0  0  0  0  0  0
    2.3838    0.1161   12.3559 C   0  0  0  0  0  0  0  0  0  0  0  0
    2.5026    1.2632   13.0283 N   0  0  0  0  0  0  0  0  0  0  0  0
    3.3662    1.3309   14.0665 C   0  0  0  0  0  0  0  0  0  0  0  0
    3.4805    2.5517   14.7680 N   0  0  0  0  0  0  0  0  0  0  0  0
    2.4304    3.5205   14.7000 C   0  0  0  0  0  0  0  0  0  0  0  0
    2.6654    4.7435   15.5505 C   0  0  0  0  0  0  0  0  0  0  0  0
    3.2203    5.8023   14.6344 C   0  0  0  0  0  0  0  0  0  0  0  0
    3.1342    7.1341   14.9983 C   0  0  0  0  0  0  0  0  0  0  0  0
    3.6187    8.1532   14.2117 C   0  0  0  0  0  0  0  0  0  0  0  0
    4.2111    7.8104   13.0154 C   0  0  0  0  0  0  0  0  0  0  0  0
    4.3083    6.4768   12.6306 C   0  0  0  0  0  0  0  0  0  0  0  0
    3.8091    5.4616   13.4457 C   0  0  0  0  0  0  0  0  0  0  0  0
    4.7290    8.9118   12.1738 C   0  0  0  0  0  0  0  0  0  0  0  0
    5.1535   10.1165   12.9479 C   0  0  0  0  0  0  0  0  0  0  0  0
    4.1274   11.1702   13.0851 C   0  0  0  0  0  0  0  0  0  0  0  0
    3.0139   11.1012   12.4914 O   0  0  0  0  0  0  0  0  0  0  0  0
    4.3786   12.2901   13.8909 O   0  0  0  0  0  1  0  0  0  0  0  0
    4.0940    0.2374   14.4060 N   0  0  0  0  0  0  0  0  0  0  0  0
    3.9982   -0.9293   13.7516 C   0  0  0  0  0  0  0  0  0  0  0  0
    4.7724   -2.0597   14.1277 N   0  0  0  0  0  0  0  0  0  0  0  0
  1  2  1  0
  2  3  1  0
  3  4  1  0
  4  5  2  0
  6  4  1  6
  6  7  1  0
  7  8  1  0
  8  9  1  0
  9 10  1  0
 10 11  1  1
  9 12  1  1
  8 13  1  6
 13 14  1  0
 14 15  2  0
 15 16  1  0
 16 17  2  0
 17 18  1  0
 18 19  2  0
 19 20  1  0
 20 21  1  0
 21 22  1  0
 22 23  1  0
 23 24  2  0
 24 25  1  0
 25 26  2  0
 26 27  1  0
 27 28  2  0
 26 29  1  0
 29 30  1  0
 30 31  1  0
 31 32  2  0
 31 33  1  0
 19 34  1  0
 34 35  2  0
 35 36  1  0
 10  6  1  0
 17 13  1  0
 28 23  1  0
 35 16  1  0
M  CHG  1  33  -1
M  END
$$$$
