
     RDKit          3D

 36 39  0  0  0  0  0  0  0  0999 V2000
   -2.7080   -1.3555    5.1040 C   0  0  0  0  0  0  0  0  0  0  0  0
   -2.1202   -1.7819    6.4231 C   0  0  0  0  0  0  0  0  0  0  0  0
   -1.7922   -0.6708    7.2861 N   0  0  0  0  0  0  0  0  0  0  0  0
   -0.4652   -0.4277    7.7182 C   0  0  0  0  0  0  0  0  0  0  0  0
    0.4664   -1.1306    7.2685 O   0  0  0  0  0  0  0  0  0  0  0  0
   -0.1847    0.6472    8.6911 C   0  0  1  0  0  0  0  0  0  0  0  0
   -0.1910    0.1683    9.9680 O   0  0  0  0  0  0  0  0  0  0  0  0
    0.7728    0.7927   10.7077 C   0  0  2  0  0  0  0  0  0  0  0  0
    1.7021    1.5479    9.8239 C   0  0  1  0  0  0  0  0  0  0  0  0
    1.1115    1.3570    8.4536 C   0  0  2  0  0  0  0  0  0  0  0  0
    0.9201    2.6067    7.8612 O   0  0  0  0  0  0  0  0  0  0  0  0
    1.7348    2.9142   10.1467 O   0  0  0  0  0  0  0  0  0  0  0  0
    1.4591   -0.0964   11.6228 N   0  0  0  0  0  0  0  0  0  0  0  0
    1.2513   -1.4203   11.7051 C   0  0  0  0  0  0  0  0  0  0  0  0
    2.0503   -1.9655   12.6596 N   0  0  0  0  0  0  0  0  0  0  0  0
    2.7698   -0.9682   13.1835 C   0  0  0  0  0  0  0  0  0  0  0  0
    2.4103    0.1932   12.5474 C   0  0  0  0  0  0  0  0  0  0  0  0
    2.9657    1.3661   12.8606 N   0  0  0  0  0  0  0  0  0  0  0  0
    3.9073    1.4102   13.8300 C   0  0  0  0  0  0  0  0  0  0  0  0
    4.4854    2.6588   14.1500 N   0  0  0  0  0  0  0  0  0  0  0  0
    3.7314    3.8631   13.9851 C   0  0  0  0  0  0  0  0  0  0  0  0
    2.9145    4.2478   15.1929 C   0  0  0  0  0  0  0  0  0  0  0  0
    2.2721    5.5717   14.8717 C   0  0  0  0  0  0  0  0  0  0  0  0
    1.4849    6.1975   15.8216 C   0  0  0  0  0  0  0  0  0  0  0  0
    0.8677    7.4061   15.5974 C   0  0  0  0  0  0  0  0  0  0  0  0
    1.0552    8.0009   14.3683 C   0  0  0  0  0  0  0  0  0  0  0  0
    1.8434    7.3886   13.3988 C   0  0  0  0  0  0  0  0  0  0  0  0
    2.4585    6.1628   13.6503 C   0  0  0  0  0  0  0  0  0  0  0  0
    0.3872    9.3003   14.1336 C   0  0  0  0  0  0  0  0  0  0  0  0
   -0.0438    9.9935   15.3843 C   0  0  0  0  0  0  0  0  0  0  0  0
    0.9405   10.9375   15.9519 C   0  0  0  0  0  0  0  0  0  0  0  0
    2.1323   10.5953   16.1956 O   0  0  0  0  0  0  0  0  0  0  0  0
    0.5595   12.2563   16.2390 O   0  0  0  0  0  1  0  0  0  0  0  0
    4.2703    0.2676   14.4652 N   0  0  0  0  0  0  0  0  0  0  0  0
    3.7320   -0.9259   14.1747 C   0  0  0  0  0  0  0  0  0  0  0  0
    4.1303   -2.1077   14.8553 N   0  0  0  0  0  0  0  0  0  0  0  0
  1  2  1  0
  2  3  1  0
  3  4  1  0
  4  5  2  0
  6  4  1  6
  6  7  1  0
  7  8  1  0
  8  9  1  0
  9 10  1  0
 10 11  1  1
  9 12  1  1
  8 13  1  6
 13 14  1  0
 14 15  2  0
 15 16  1  0
 16 17  2  0
 17 18  1  0
 18 19  2  0
 19 20  1  0
 20 21  1  0
 21 22  1  0
 22 23  1  0
 23 24  2  0
 24 25  1  0
 25 26  2  0
 26 27  1  0
 27 28  2  0
 26 29  1  0
 29 30  1  0
 30 31  1  0
 31 32  2  0
 31 33  1  0
 19 34  1  0
 34 35  2  0
 35 36  1  0
 10  6  1  0
 17 13  1  0
 28 23  1  0
 35 16  1  0
M  CHG  1  33  -1
M  END
$$$$
