
     RDKit          3D

 36 39  0  0  0  0  0  0  0  0999 V2000
   -0.8709   -3.8030    5.5511 C   0  0  0  0  0  0  0  0  0  0  0  0
   -1.3369   -2.3762    5.6724 C   0  0  0  0  0  0  0  0  0  0  0  0
   -0.2748   -1.4571    6.0101 N   0  0  0  0  0  0  0  0  0  0  0  0
   -0.4932   -0.3430    6.8575 C   0  0  0  0  0  0  0  0  0  0  0  0
   -1.6416   -0.1241    7.3017 O   0  0  0  0  0  0  0  0  0  0  0  0
    0.6264    0.5518    7.2134 C   0  0  1  0  0  0  0  0  0  0  0  0
    0.2812    1.3893    8.2327 O   0  0  0  0  0  0  0  0  0  0  0  0
    1.3479    1.5804    9.0642 C   0  0  2  0  0  0  0  0  0  0  0  0
    2.4209    0.5911    8.7729 C   0  0  1  0  0  0  0  0  0  0  0  0
    1.8821   -0.1694    7.5922 C   0  0  2  0  0  0  0  0  0  0  0  0
    2.8267   -0.1454    6.5644 O   0  0  0  0  0  0  0  0  0  0  0  0
    3.6296    1.2180    8.4293 O   0  0  0  0  0  0  0  0  0  0  0  0
    0.9822    1.6226   10.4655 N   0  0  0  0  0  0  0  0  0  0  0  0
   -0.2670    1.7952   10.9263 C   0  0  0  0  0  0  0  0  0  0  0  0
   -0.2745    1.7872   12.2853 N   0  0  0  0  0  0  0  0  0  0  0  0
    0.9890    1.6067   12.6821 C   0  0  0  0  0  0  0  0  0  0  0  0
    1.7745    1.5037   11.5618 C   0  0  0  0  0  0  0  0  0  0  0  0
    3.0938    1.3174   11.6441 N   0  0  0  0  0  0  0  0  0  0  0  0
    3.6709    1.2275   12.8635 C   0  0  0  0  0  0  0  0  0  0  0  0
    5.0679    1.0304   12.9339 N   0  0  0  0  0  0  0  0  0  0  0  0
    5.6664    0.5543   14.1426 C   0  0  0  0  0  0  0  0  0  0  0  0
    6.3980    1.6149   14.9263 C   0  0  0  0  0  0  0  0  0  0  0  0
    5.7674    1.6489   16.2936 C   0  0  0  0  0  0  0  0  0  0  0  0
    4.9678    2.7197   16.6507 C   0  0  0  0  0  0  0  0  0  0  0  0
    4.3608    2.8172   17.8812 C   0  0  0  0  0  0  0  0  0  0  0  0
    4.5712    1.7940   18.7803 C   0  0  0  0  0  0  0  0  0  0  0  0
    5.3717    0.7076   18.4411 C   0  0  0  0  0  0  0  0  0  0  0  0
    5.9765    0.6320   17.1870 C   0  0  0  0  0  0  0  0  0  0  0  0
    3.9162    1.9061   20.1024 C   0  0  0  0  0  0  0  0  0  0  0  0
    4.7158    1.3299   21.2245 C   0  0  0  0  0  0  0  0  0  0  0  0
    5.8903    2.1264   21.6344 C   0  0  0  0  0  0  0  0  0  0  0  0
    6.0326    3.3342   21.2909 O   0  0  0  0  0  0  0  0  0  0  0  0
    6.8899    1.5420   22.4255 O   0  0  0  0  0  1  0  0  0  0  0  0
    2.9034    1.3278   13.9779 N   0  0  0  0  0  0  0  0  0  0  0  0
    1.5763    1.5152   13.9299 C   0  0  0  0  0  0  0  0  0  0  0  0
    0.7955    1.6167   15.1125 N   0  0  0  0  0  0  0  0  0  0  0  0
  1  2  1  0
  2  3  1  0
  3  4  1  0
  4  5  2  0
  6  4  1  1
  6  7  1  0
  7  8  1  0
  8  9  1  0
  9 10  1  0
 10 11  1  6
  9 12  1  6
  8 13  1  1
 13 14  1  0
 14 15  2  0
 15 16  1  0
 16 17  2  0
 17 18  1  0
 18 19  2  0
 19 20  1  0
 20 21  1  0
 21 22  1  0
 22 23  1  0
 23 24  2  0
 24 25  1  0
 25 26  2  0
 26 27  1  0
 27 28  2  0
 26 29  1  0
 29 30  1  0
 30 31  1  0
 31 32  2  0
 31 33  1  0
 19 34  1  0
 34 35  2  0
 35 36  1  0
 10  6  1  0
 17 13  1  0
 28 23  1  0
 35 16  1  0
M  CHG  1  33  -1
M  END
$$$$
