
     RDKit          3D

 36 39  0  0  0  0  0  0  0  0999 V2000
   -1.4653   -2.3681    4.1719 C   0  0  0  0  0  0  0  0  0  0  0  0
   -0.8009   -2.5764    5.5071 C   0  0  0  0  0  0  0  0  0  0  0  0
   -0.9482   -1.4492    6.3985 N   0  0  0  0  0  0  0  0  0  0  0  0
    0.1590   -0.8877    7.0811 C   0  0  0  0  0  0  0  0  0  0  0  0
    1.3037   -1.3494    6.8800 O   0  0  0  0  0  0  0  0  0  0  0  0
   -0.0376    0.2336    8.0216 C   0  0  1  0  0  0  0  0  0  0  0  0
    0.0073   -0.1963    9.3150 O   0  0  0  0  0  0  0  0  0  0  0  0
    0.6256    0.7368   10.0980 C   0  0  2  0  0  0  0  0  0  0  0  0
    1.3122    1.7534    9.2554 C   0  0  1  0  0  0  0  0  0  0  0  0
    0.9494    1.3462    7.8536 C   0  0  2  0  0  0  0  0  0  0  0  0
    0.3921    2.4410    7.1902 O   0  0  0  0  0  0  0  0  0  0  0  0
    0.8418    3.0508    9.5156 O   0  0  0  0  0  0  0  0  0  0  0  0
    1.4917    0.1575   11.1047 N   0  0  0  0  0  0  0  0  0  0  0  0
    1.8332   -1.1395   11.1670 C   0  0  0  0  0  0  0  0  0  0  0  0
    2.6559   -1.3610   12.2258 N   0  0  0  0  0  0  0  0  0  0  0  0
    2.8327   -0.1851   12.8362 C   0  0  0  0  0  0  0  0  0  0  0  0
    2.1154    0.7613   12.1488 C   0  0  0  0  0  0  0  0  0  0  0  0
    2.0991    2.0415   12.5268 N   0  0  0  0  0  0  0  0  0  0  0  0
    2.8085    2.4150   13.6156 C   0  0  0  0  0  0  0  0  0  0  0  0
    2.7811    3.7733   14.0030 N   0  0  0  0  0  0  0  0  0  0  0  0
    3.5528    4.2168   15.1226 C   0  0  0  0  0  0  0  0  0  0  0  0
    3.6070    3.2305   16.2621 C   0  0  0  0  0  0  0  0  0  0  0  0
    4.0403    4.0050   17.4790 C   0  0  0  0  0  0  0  0  0  0  0  0
    4.9384    5.0481   17.3409 C   0  0  0  0  0  0  0  0  0  0  0  0
    5.3779    5.7975   18.4073 C   0  0  0  0  0  0  0  0  0  0  0  0
    4.8900    5.4790   19.6563 C   0  0  0  0  0  0  0  0  0  0  0  0
    3.9856    4.4339   19.8172 C   0  0  0  0  0  0  0  0  0  0  0  0
    3.5553    3.6885   18.7202 C   0  0  0  0  0  0  0  0  0  0  0  0
    5.3680    6.2886   20.7990 C   0  0  0  0  0  0  0  0  0  0  0  0
    6.5506    5.7058   21.5006 C   0  0  0  0  0  0  0  0  0  0  0  0
    7.7883    6.5080   21.4205 C   0  0  0  0  0  0  0  0  0  0  0  0
    7.8185    7.6369   20.8534 O   0  0  0  0  0  0  0  0  0  0  0  0
    8.9767    6.0180   21.9813 O   0  0  0  0  0  1  0  0  0  0  0  0
    3.5215    1.4873   14.3025 N   0  0  0  0  0  0  0  0  0  0  0  0
    3.5587    0.1940   13.9494 C   0  0  0  0  0  0  0  0  0  0  0  0
    4.3138   -0.7575   14.6864 N   0  0  0  0  0  0  0  0  0  0  0  0
  1  2  1  0
  2  3  1  0
  3  4  1  0
  4  5  2  0
  6  4  1  6
  6  7  1  0
  7  8  1  0
  8  9  1  0
  9 10  1  0
 10 11  1  1
  9 12  1  1
  8 13  1  1
 13 14  1  0
 14 15  2  0
 15 16  1  0
 16 17  2  0
 17 18  1  0
 18 19  2  0
 19 20  1  0
 20 21  1  0
 21 22  1  0
 22 23  1  0
 23 24  2  0
 24 25  1  0
 25 26  2  0
 26 27  1  0
 27 28  2  0
 26 29  1  0
 29 30  1  0
 30 31  1  0
 31 32  2  0
 31 33  1  0
 19 34  1  0
 34 35  2  0
 35 36  1  0
 10  6  1  0
 17 13  1  0
 28 23  1  0
 35 16  1  0
M  CHG  1  33  -1
M  END
$$$$
