
     RDKit          3D

 36 39  0  0  0  0  0  0  0  0999 V2000
   -2.1047   -2.5318    5.5425 C   0  0  0  0  0  0  0  0  0  0  0  0
   -0.8652   -1.6978    5.7309 C   0  0  0  0  0  0  0  0  0  0  0  0
   -1.0676   -0.5668    6.6065 N   0  0  0  0  0  0  0  0  0  0  0  0
    0.0079    0.0446    7.2968 C   0  0  0  0  0  0  0  0  0  0  0  0
    1.1792   -0.1444    6.9012 O   0  0  0  0  0  0  0  0  0  0  0  0
   -0.2525    0.8983    8.4733 C   0  0  1  0  0  0  0  0  0  0  0  0
   -0.1644    0.1813    9.6299 O   0  0  0  0  0  0  0  0  0  0  0  0
    0.3990    0.9444   10.6129 C   0  0  2  0  0  0  0  0  0  0  0  0
    1.0066    2.1742   10.0356 C   0  0  1  0  0  0  0  0  0  0  0  0
    0.6561    2.0833    8.5756 C   0  0  2  0  0  0  0  0  0  0  0  0
    0.0195    3.2629    8.1850 O   0  0  0  0  0  0  0  0  0  0  0  0
    0.4536    3.3396   10.5906 O   0  0  0  0  0  0  0  0  0  0  0  0
    1.3131    0.2052   11.4596 N   0  0  0  0  0  0  0  0  0  0  0  0
    1.7806   -1.0247   11.1920 C   0  0  0  0  0  0  0  0  0  0  0  0
    2.6159   -1.4381   12.1809 N   0  0  0  0  0  0  0  0  0  0  0  0
    2.6730   -0.4524   13.0820 C   0  0  0  0  0  0  0  0  0  0  0  0
    1.8692    0.5695   12.6435 C   0  0  0  0  0  0  0  0  0  0  0  0
    1.7249    1.6982   13.3417 N   0  0  0  0  0  0  0  0  0  0  0  0
    2.3886    1.8378   14.5114 C   0  0  0  0  0  0  0  0  0  0  0  0
    2.2255    3.0379   15.2384 N   0  0  0  0  0  0  0  0  0  0  0  0
    1.5134    4.1362   14.6618 C   0  0  0  0  0  0  0  0  0  0  0  0
    2.3242    4.9506   13.6853 C   0  0  0  0  0  0  0  0  0  0  0  0
    3.0473    5.9947   14.4947 C   0  0  0  0  0  0  0  0  0  0  0  0
    2.8128    6.0883   15.8547 C   0  0  0  0  0  0  0  0  0  0  0  0
    3.4366    7.0169   16.6552 C   0  0  0  0  0  0  0  0  0  0  0  0
    4.3290    7.8799   16.0564 C   0  0  0  0  0  0  0  0  0  0  0  0
    4.5796    7.8026   14.6899 C   0  0  0  0  0  0  0  0  0  0  0  0
    3.9341    6.8523   13.8996 C   0  0  0  0  0  0  0  0  0  0  0  0
    4.9954    8.8769   16.9233 C   0  0  0  0  0  0  0  0  0  0  0  0
    6.0225    9.7008   16.2186 C   0  0  0  0  0  0  0  0  0  0  0  0
    6.9601   10.4265   17.0997 C   0  0  0  0  0  0  0  0  0  0  0  0
    6.7390   11.6108   17.4815 O   0  0  0  0  0  0  0  0  0  0  0  0
    8.1379    9.8011   17.5338 O   0  0  0  0  0  1  0  0  0  0  0  0
    3.1863    0.8335   14.9540 N   0  0  0  0  0  0  0  0  0  0  0  0
    3.3526   -0.3124   14.2772 C   0  0  0  0  0  0  0  0  0  0  0  0
    4.1943   -1.3487   14.7632 N   0  0  0  0  0  0  0  0  0  0  0  0
  1  2  1  0
  2  3  1  0
  3  4  1  0
  4  5  2  0
  6  4  1  6
  6  7  1  0
  7  8  1  0
  8  9  1  0
  9 10  1  0
 10 11  1  1
  9 12  1  1
  8 13  1  6
 13 14  1  0
 14 15  2  0
 15 16  1  0
 16 17  2  0
 17 18  1  0
 18 19  2  0
 19 20  1  0
 20 21  1  0
 21 22  1  0
 22 23  1  0
 23 24  2  0
 24 25  1  0
 25 26  2  0
 26 27  1  0
 27 28  2  0
 26 29  1  0
 29 30  1  0
 30 31  1  0
 31 32  2  0
 31 33  1  0
 19 34  1  0
 34 35  2  0
 35 36  1  0
 10  6  1  0
 17 13  1  0
 28 23  1  0
 35 16  1  0
M  CHG  1  33  -1
M  END
$$$$
