
     RDKit          3D

 36 39  0  0  0  0  0  0  0  0999 V2000
   -2.8006   -1.8141    5.1158 C   0  0  0  0  0  0  0  0  0  0  0  0
   -1.3486   -1.4462    5.2706 C   0  0  0  0  0  0  0  0  0  0  0  0
   -1.1358   -0.3315    6.1644 N   0  0  0  0  0  0  0  0  0  0  0  0
   -0.0827   -0.3251    7.1120 C   0  0  0  0  0  0  0  0  0  0  0  0
    0.8190   -1.1883    7.0349 O   0  0  0  0  0  0  0  0  0  0  0  0
   -0.0501    0.6929    8.1812 C   0  0  1  0  0  0  0  0  0  0  0  0
   -0.0963    0.1122    9.4142 O   0  0  0  0  0  0  0  0  0  0  0  0
    0.6964    0.8017   10.2872 C   0  0  2  0  0  0  0  0  0  0  0  0
    1.5768    1.7519    9.5544 C   0  0  1  0  0  0  0  0  0  0  0  0
    1.1424    1.5957    8.1228 C   0  0  2  0  0  0  0  0  0  0  0  0
    0.8201    2.8512    7.6042 O   0  0  0  0  0  0  0  0  0  0  0  0
    1.3786    3.0772    9.9745 O   0  0  0  0  0  0  0  0  0  0  0  0
    1.4247   -0.0556   11.2002 N   0  0  0  0  0  0  0  0  0  0  0  0
    1.3305   -1.3946   11.2336 C   0  0  0  0  0  0  0  0  0  0  0  0
    2.1395   -1.9010   12.2009 N   0  0  0  0  0  0  0  0  0  0  0  0
    2.7501   -0.8639   12.7825 C   0  0  0  0  0  0  0  0  0  0  0  0
    2.3135    0.2832   12.1691 C   0  0  0  0  0  0  0  0  0  0  0  0
    2.7528    1.4882   12.5394 N   0  0  0  0  0  0  0  0  0  0  0  0
    3.6519    1.5803   13.5451 C   0  0  0  0  0  0  0  0  0  0  0  0
    4.1070    2.8624   13.9253 N   0  0  0  0  0  0  0  0  0  0  0  0
    3.1748    3.8557   14.3612 C   0  0  0  0  0  0  0  0  0  0  0  0
    3.6717    5.2721   14.2157 C   0  0  0  0  0  0  0  0  0  0  0  0
    3.5541    5.9093   15.5753 C   0  0  0  0  0  0  0  0  0  0  0  0
    3.7915    5.1514   16.7079 C   0  0  0  0  0  0  0  0  0  0  0  0
    3.7020    5.6666   17.9801 C   0  0  0  0  0  0  0  0  0  0  0  0
    3.3607    6.9957   18.1086 C   0  0  0  0  0  0  0  0  0  0  0  0
    3.1181    7.7759   16.9824 C   0  0  0  0  0  0  0  0  0  0  0  0
    3.2149    7.2301   15.7030 C   0  0  0  0  0  0  0  0  0  0  0  0
    3.2652    7.5428   19.4802 C   0  0  0  0  0  0  0  0  0  0  0  0
    4.5747    7.6166   20.1946 C   0  0  0  0  0  0  0  0  0  0  0  0
    4.6726    6.7919   21.4161 C   0  0  0  0  0  0  0  0  0  0  0  0
    4.3278    7.2315   22.5497 O   0  0  0  0  0  0  0  0  0  0  0  0
    5.1634    5.4806   21.3370 O   0  0  0  0  0  1  0  0  0  0  0  0
    4.0904    0.4522   14.1583 N   0  0  0  0  0  0  0  0  0  0  0  0
    3.6690   -0.7726   13.8107 C   0  0  0  0  0  0  0  0  0  0  0  0
    4.1445   -1.9383   14.4694 N   0  0  0  0  0  0  0  0  0  0  0  0
  1  2  1  0
  2  3  1  0
  3  4  1  0
  4  5  2  0
  6  4  1  6
  6  7  1  0
  7  8  1  0
  8  9  1  0
  9 10  1  0
 10 11  1  1
  9 12  1  1
  8 13  1  6
 13 14  1  0
 14 15  2  0
 15 16  1  0
 16 17  2  0
 17 18  1  0
 18 19  2  0
 19 20  1  0
 20 21  1  0
 21 22  1  0
 22 23  1  0
 23 24  2  0
 24 25  1  0
 25 26  2  0
 26 27  1  0
 27 28  2  0
 26 29  1  0
 29 30  1  0
 30 31  1  0
 31 32  2  0
 31 33  1  0
 19 34  1  0
 34 35  2  0
 35 36  1  0
 10  6  1  0
 17 13  1  0
 28 23  1  0
 35 16  1  0
M  CHG  1  33  -1
M  END
$$$$
