
     RDKit          3D

 36 39  0  0  0  0  0  0  0  0999 V2000
   -2.7796   -2.3367    6.0872 C   0  0  0  0  0  0  0  0  0  0  0  0
   -1.3560   -1.9000    6.3110 C   0  0  0  0  0  0  0  0  0  0  0  0
   -1.2341   -0.8241    7.2673 N   0  0  0  0  0  0  0  0  0  0  0  0
    0.0079   -0.4914    7.8622 C   0  0  0  0  0  0  0  0  0  0  0  0
    1.0444   -1.0876    7.4958 O   0  0  0  0  0  0  0  0  0  0  0  0
    0.0774    0.5512    8.9056 C   0  0  1  0  0  0  0  0  0  0  0  0
    0.3313    0.0056   10.1293 O   0  0  0  0  0  0  0  0  0  0  0  0
    1.1548    0.8260   10.8468 C   0  0  2  0  0  0  0  0  0  0  0  0
    1.7467    1.8705    9.9672 C   0  0  1  0  0  0  0  0  0  0  0  0
    1.0973    1.6128    8.6351 C   0  0  2  0  0  0  0  0  0  0  0  0
    0.5106    2.7942    8.1774 O   0  0  0  0  0  0  0  0  0  0  0  0
    1.4339    3.1655   10.4115 O   0  0  0  0  0  0  0  0  0  0  0  0
    2.1477    0.1079   11.6199 N   0  0  0  0  0  0  0  0  0  0  0  0
    2.4480   -1.1913   11.4630 C   0  0  0  0  0  0  0  0  0  0  0  0
    3.4190   -1.5608   12.3391 N   0  0  0  0  0  0  0  0  0  0  0  0
    3.7320   -0.4768   13.0557 C   0  0  0  0  0  0  0  0  0  0  0  0
    2.9497    0.5616   12.6172 C   0  0  0  0  0  0  0  0  0  0  0  0
    3.0393    1.7821   13.1506 N   0  0  0  0  0  0  0  0  0  0  0  0
    3.9246    2.0004   14.1490 C   0  0  0  0  0  0  0  0  0  0  0  0
    4.0075    3.2973   14.7030 N   0  0  0  0  0  0  0  0  0  0  0  0
    2.9950    4.2664   14.4179 C   0  0  0  0  0  0  0  0  0  0  0  0
    2.1934    4.6916   15.6224 C   0  0  0  0  0  0  0  0  0  0  0  0
    0.7860    4.9256   15.1397 C   0  0  0  0  0  0  0  0  0  0  0  0
   -0.1924    5.3007   16.0427 C   0  0  0  0  0  0  0  0  0  0  0  0
   -1.4973    5.5306   15.6731 C   0  0  0  0  0  0  0  0  0  0  0  0
   -1.8212    5.3753   14.3425 C   0  0  0  0  0  0  0  0  0  0  0  0
   -0.8521    4.9989   13.4177 C   0  0  0  0  0  0  0  0  0  0  0  0
    0.4642    4.7713   13.8174 C   0  0  0  0  0  0  0  0  0  0  0  0
   -3.2269    5.6230   13.9523 C   0  0  0  0  0  0  0  0  0  0  0  0
   -4.2029    4.6796   14.5752 C   0  0  0  0  0  0  0  0  0  0  0  0
   -5.6027    5.1505   14.6042 C   0  0  0  0  0  0  0  0  0  0  0  0
   -6.5601    4.3845   14.9101 O   0  0  0  0  0  0  0  0  0  0  0  0
   -5.8990    6.4829   14.2824 O   0  0  0  0  0  1  0  0  0  0  0  0
    4.7033    0.9807   14.5900 N   0  0  0  0  0  0  0  0  0  0  0  0
    4.6378   -0.2563   14.0760 C   0  0  0  0  0  0  0  0  0  0  0  0
    5.4652   -1.3068   14.5563 N   0  0  0  0  0  0  0  0  0  0  0  0
  1  2  1  0
  2  3  1  0
  3  4  1  0
  4  5  2  0
  6  4  1  6
  6  7  1  0
  7  8  1  0
  8  9  1  0
  9 10  1  0
 10 11  1  1
  9 12  1  1
  8 13  1  6
 13 14  1  0
 14 15  2  0
 15 16  1  0
 16 17  2  0
 17 18  1  0
 18 19  2  0
 19 20  1  0
 20 21  1  0
 21 22  1  0
 22 23  1  0
 23 24  2  0
 24 25  1  0
 25 26  2  0
 26 27  1  0
 27 28  2  0
 26 29  1  0
 29 30  1  0
 30 31  1  0
 31 32  2  0
 31 33  1  0
 19 34  1  0
 34 35  2  0
 35 36  1  0
 10  6  1  0
 17 13  1  0
 28 23  1  0
 35 16  1  0
M  CHG  1  33  -1
M  END
$$$$
