
     RDKit          3D

 36 39  0  0  0  0  0  0  0  0999 V2000
   -2.3703   -2.6436    5.6988 C   0  0  0  0  0  0  0  0  0  0  0  0
   -1.2677   -1.6529    5.4337 C   0  0  0  0  0  0  0  0  0  0  0  0
   -1.1643   -0.6307    6.4492 N   0  0  0  0  0  0  0  0  0  0  0  0
    0.0269   -0.4320    7.1897 C   0  0  0  0  0  0  0  0  0  0  0  0
    1.0208   -1.1560    6.9613 O   0  0  0  0  0  0  0  0  0  0  0  0
    0.0942    0.6216    8.2221 C   0  0  1  0  0  0  0  0  0  0  0  0
    0.1680    0.0810    9.4719 O   0  0  0  0  0  0  0  0  0  0  0  0
    0.9924    0.8328   10.2600 C   0  0  2  0  0  0  0  0  0  0  0  0
    1.7707    1.7950    9.4332 C   0  0  1  0  0  0  0  0  0  0  0  0
    1.2365    1.5724    8.0447 C   0  0  2  0  0  0  0  0  0  0  0  0
    0.8191    2.7949    7.5151 O   0  0  0  0  0  0  0  0  0  0  0  0
    1.5448    3.1238    9.8274 O   0  0  0  0  0  0  0  0  0  0  0  0
    1.8262    0.0386   11.1394 N   0  0  0  0  0  0  0  0  0  0  0  0
    1.9483   -1.2971   11.0792 C   0  0  0  0  0  0  0  0  0  0  0  0
    2.8036   -1.7370   12.0393 N   0  0  0  0  0  0  0  0  0  0  0  0
    3.2240   -0.6607   12.7112 C   0  0  0  0  0  0  0  0  0  0  0  0
    2.6238    0.4436   12.1608 C   0  0  0  0  0  0  0  0  0  0  0  0
    2.8535    1.6733   12.6271 N   0  0  0  0  0  0  0  0  0  0  0  0
    3.7001    1.8344   13.6690 C   0  0  0  0  0  0  0  0  0  0  0  0
    3.9327    3.1417   14.1509 N   0  0  0  0  0  0  0  0  0  0  0  0
    2.9993    4.1881   13.8688 C   0  0  0  0  0  0  0  0  0  0  0  0
    2.0191    4.4555   14.9833 C   0  0  0  0  0  0  0  0  0  0  0  0
    2.7926    5.1403   16.0792 C   0  0  0  0  0  0  0  0  0  0  0  0
    2.1592    5.4561   17.2677 C   0  0  0  0  0  0  0  0  0  0  0  0
    2.8027    6.0813   18.3104 C   0  0  0  0  0  0  0  0  0  0  0  0
    4.1338    6.3967   18.1426 C   0  0  0  0  0  0  0  0  0  0  0  0
    4.7900    6.0875   16.9552 C   0  0  0  0  0  0  0  0  0  0  0  0
    4.1154    5.4536   15.9125 C   0  0  0  0  0  0  0  0  0  0  0  0
    4.8193    7.0702   19.2679 C   0  0  0  0  0  0  0  0  0  0  0  0
    4.2928    8.4355   19.5670 C   0  0  0  0  0  0  0  0  0  0  0  0
    4.9844    9.1516   20.6582 C   0  0  0  0  0  0  0  0  0  0  0  0
    5.5097   10.2879   20.4853 O   0  0  0  0  0  0  0  0  0  0  0  0
    5.0744    8.5685   21.9305 O   0  0  0  0  0  1  0  0  0  0  0  0
    4.2991    0.7491   14.2205 N   0  0  0  0  0  0  0  0  0  0  0  0
    4.0898   -0.4988   13.7762 C   0  0  0  0  0  0  0  0  0  0  0  0
    4.7302   -1.6184   14.3720 N   0  0  0  0  0  0  0  0  0  0  0  0
  1  2  1  0
  2  3  1  0
  3  4  1  0
  4  5  2  0
  6  4  1  6
  6  7  1  0
  7  8  1  0
  8  9  1  0
  9 10  1  0
 10 11  1  1
  9 12  1  1
  8 13  1  6
 13 14  1  0
 14 15  2  0
 15 16  1  0
 16 17  2  0
 17 18  1  0
 18 19  2  0
 19 20  1  0
 20 21  1  0
 21 22  1  0
 22 23  1  0
 23 24  2  0
 24 25  1  0
 25 26  2  0
 26 27  1  0
 27 28  2  0
 26 29  1  0
 29 30  1  0
 30 31  1  0
 31 32  2  0
 31 33  1  0
 19 34  1  0
 34 35  2  0
 35 36  1  0
 10  6  1  0
 17 13  1  0
 28 23  1  0
 35 16  1  0
M  CHG  1  33  -1
M  END
$$$$
