
     RDKit          3D

 36 39  0  0  0  0  0  0  0  0999 V2000
   -2.2397   -2.2319    5.8311 C   0  0  0  0  0  0  0  0  0  0  0  0
   -1.7973   -0.8792    5.3393 C   0  0  0  0  0  0  0  0  0  0  0  0
   -1.5780    0.0706    6.4054 N   0  0  0  0  0  0  0  0  0  0  0  0
   -0.3309    0.1721    7.0698 C   0  0  0  0  0  0  0  0  0  0  0  0
    0.6292   -0.5317    6.6863 O   0  0  0  0  0  0  0  0  0  0  0  0
   -0.1663    1.1017    8.2053 C   0  0  1  0  0  0  0  0  0  0  0  0
   -0.1312    0.4283    9.3906 O   0  0  0  0  0  0  0  0  0  0  0  0
    0.7600    1.0201   10.2399 C   0  0  2  0  0  0  0  0  0  0  0  0
    1.6130    1.9942    9.5060 C   0  0  1  0  0  0  0  0  0  0  0  0
    1.0525    1.9652    8.1103 C   0  0  2  0  0  0  0  0  0  0  0  0
    0.7387    3.2677    7.7176 O   0  0  0  0  0  0  0  0  0  0  0  0
    1.5051    3.2886   10.0400 O   0  0  0  0  0  0  0  0  0  0  0  0
    1.5279    0.0698   11.0186 N   0  0  0  0  0  0  0  0  0  0  0  0
    1.4173   -1.2650   10.9239 C   0  0  0  0  0  0  0  0  0  0  0  0
    2.2736   -1.8723   11.7868 N   0  0  0  0  0  0  0  0  0  0  0  0
    2.9309   -0.9036   12.4320 C   0  0  0  0  0  0  0  0  0  0  0  0
    2.4755    0.3026   11.9627 C   0  0  0  0  0  0  0  0  0  0  0  0
    2.9520    1.4609   12.4248 N   0  0  0  0  0  0  0  0  0  0  0  0
    3.9086    1.4445   13.3803 C   0  0  0  0  0  0  0  0  0  0  0  0
    4.4026    2.6784   13.8590 N   0  0  0  0  0  0  0  0  0  0  0  0
    3.8258    3.2811   15.0208 C   0  0  0  0  0  0  0  0  0  0  0  0
    2.8887    4.4239   14.7205 C   0  0  0  0  0  0  0  0  0  0  0  0
    2.9682    5.3632   15.8951 C   0  0  0  0  0  0  0  0  0  0  0  0
    3.1471    6.7173   15.6761 C   0  0  0  0  0  0  0  0  0  0  0  0
    3.2290    7.6322   16.7000 C   0  0  0  0  0  0  0  0  0  0  0  0
    3.1256    7.1582   17.9900 C   0  0  0  0  0  0  0  0  0  0  0  0
    2.9450    5.7999   18.2324 C   0  0  0  0  0  0  0  0  0  0  0  0
    2.8654    4.8922   17.1770 C   0  0  0  0  0  0  0  0  0  0  0  0
    3.2157    8.1478   19.0865 C   0  0  0  0  0  0  0  0  0  0  0  0
    4.5495    8.1876   19.7573 C   0  0  0  0  0  0  0  0  0  0  0  0
    4.7246    9.2708   20.7462 C   0  0  0  0  0  0  0  0  0  0  0  0
    3.8226    9.5677   21.5801 O   0  0  0  0  0  0  0  0  0  0  0  0
    5.9188   10.0055   20.7745 O   0  0  0  0  0  1  0  0  0  0  0  0
    4.3662    0.2572   13.8512 N   0  0  0  0  0  0  0  0  0  0  0  0
    3.9087   -0.9232   13.4086 C   0  0  0  0  0  0  0  0  0  0  0  0
    4.4052   -2.1528   13.9188 N   0  0  0  0  0  0  0  0  0  0  0  0
  1  2  1  0
  2  3  1  0
  3  4  1  0
  4  5  2  0
  6  4  1  6
  6  7  1  0
  7  8  1  0
  8  9  1  0
  9 10  1  0
 10 11  1  1
  9 12  1  1
  8 13  1  6
 13 14  1  0
 14 15  2  0
 15 16  1  0
 16 17  2  0
 17 18  1  0
 18 19  2  0
 19 20  1  0
 20 21  1  0
 21 22  1  0
 22 23  1  0
 23 24  2  0
 24 25  1  0
 25 26  2  0
 26 27  1  0
 27 28  2  0
 26 29  1  0
 29 30  1  0
 30 31  1  0
 31 32  2  0
 31 33  1  0
 19 34  1  0
 34 35  2  0
 35 36  1  0
 10  6  1  0
 17 13  1  0
 28 23  1  0
 35 16  1  0
M  CHG  1  33  -1
M  END
$$$$
