
     RDKit          3D

 36 39  0  0  0  0  0  0  0  0999 V2000
   -1.9026   -1.6036    4.8228 C   0  0  0  0  0  0  0  0  0  0  0  0
   -0.6563   -1.6450    5.6669 C   0  0  0  0  0  0  0  0  0  0  0  0
   -0.6548   -0.6653    6.7285 N   0  0  0  0  0  0  0  0  0  0  0  0
    0.5501   -0.1644    7.2802 C   0  0  0  0  0  0  0  0  0  0  0  0
    1.6458   -0.5710    6.8351 O   0  0  0  0  0  0  0  0  0  0  0  0
    0.5118    0.8299    8.3713 C   0  0  1  0  0  0  0  0  0  0  0  0
    0.6456    0.2293    9.5883 O   0  0  0  0  0  0  0  0  0  0  0  0
    1.3908    1.0160   10.4201 C   0  0  2  0  0  0  0  0  0  0  0  0
    2.0626    2.0990    9.6514 C   0  0  1  0  0  0  0  0  0  0  0  0
    1.5492    1.9021    8.2513 C   0  0  2  0  0  0  0  0  0  0  0  0
    1.0060    3.1032    7.7914 O   0  0  0  0  0  0  0  0  0  0  0  0
    1.7021    3.3727   10.1204 O   0  0  0  0  0  0  0  0  0  0  0  0
    2.3052    0.2632   11.2545 N   0  0  0  0  0  0  0  0  0  0  0  0
    2.4790   -1.0668   11.1941 C   0  0  0  0  0  0  0  0  0  0  0  0
    3.4048   -1.4640   12.1062 N   0  0  0  0  0  0  0  0  0  0  0  0
    3.8175   -0.3664   12.7478 C   0  0  0  0  0  0  0  0  0  0  0  0
    3.1418    0.7082   12.2269 C   0  0  0  0  0  0  0  0  0  0  0  0
    3.3463    1.9496   12.6733 N   0  0  0  0  0  0  0  0  0  0  0  0
    4.2432    2.1530   13.6645 C   0  0  0  0  0  0  0  0  0  0  0  0
    4.4482    3.4723   14.1259 N   0  0  0  0  0  0  0  0  0  0  0  0
    3.3925    4.4339   14.0455 C   0  0  0  0  0  0  0  0  0  0  0  0
    3.5086    5.5602   15.0416 C   0  0  0  0  0  0  0  0  0  0  0  0
    2.8963    5.0624   16.3245 C   0  0  0  0  0  0  0  0  0  0  0  0
    1.5225    4.9317   16.4202 C   0  0  0  0  0  0  0  0  0  0  0  0
    0.8954    4.4842   17.5597 C   0  0  0  0  0  0  0  0  0  0  0  0
    1.6880    4.1577   18.6389 C   0  0  0  0  0  0  0  0  0  0  0  0
    3.0719    4.2815   18.5635 C   0  0  0  0  0  0  0  0  0  0  0  0
    3.6840    4.7379   17.3969 C   0  0  0  0  0  0  0  0  0  0  0  0
    1.0065    3.6781   19.8617 C   0  0  0  0  0  0  0  0  0  0  0  0
    1.9354    3.3626   20.9877 C   0  0  0  0  0  0  0  0  0  0  0  0
    2.3053    4.5114   21.8394 C   0  0  0  0  0  0  0  0  0  0  0  0
    3.2900    5.2557   21.5684 O   0  0  0  0  0  0  0  0  0  0  0  0
    1.5558    4.7993   22.9893 O   0  0  0  0  0  1  0  0  0  0  0  0
    4.9170    1.0974   14.1865 N   0  0  0  0  0  0  0  0  0  0  0  0
    4.7348   -0.1613   13.7610 C   0  0  0  0  0  0  0  0  0  0  0  0
    5.4538   -1.2492   14.3249 N   0  0  0  0  0  0  0  0  0  0  0  0
  1  2  1  0
  2  3  1  0
  3  4  1  0
  4  5  2  0
  6  4  1  6
  6  7  1  0
  7  8  1  0
  8  9  1  0
  9 10  1  0
 10 11  1  1
  9 12  1  1
  8 13  1  6
 13 14  1  0
 14 15  2  0
 15 16  1  0
 16 17  2  0
 17 18  1  0
 18 19  2  0
 19 20  1  0
 20 21  1  0
 21 22  1  0
 22 23  1  0
 23 24  2  0
 24 25  1  0
 25 26  2  0
 26 27  1  0
 27 28  2  0
 26 29  1  0
 29 30  1  0
 30 31  1  0
 31 32  2  0
 31 33  1  0
 19 34  1  0
 34 35  2  0
 35 36  1  0
 10  6  1  0
 17 13  1  0
 28 23  1  0
 35 16  1  0
M  CHG  1  33  -1
M  END
$$$$
