
     RDKit          3D

 36 39  0  0  0  0  0  0  0  0999 V2000
   -1.2076   -2.3186    4.7974 C   0  0  0  0  0  0  0  0  0  0  0  0
   -1.8140   -2.0634    6.1519 C   0  0  0  0  0  0  0  0  0  0  0  0
   -1.4855   -0.7623    6.6868 N   0  0  0  0  0  0  0  0  0  0  0  0
   -0.2919   -0.5342    7.4149 C   0  0  0  0  0  0  0  0  0  0  0  0
    0.7417   -1.1719    7.1164 O   0  0  0  0  0  0  0  0  0  0  0  0
   -0.2688    0.4488    8.5166 C   0  0  1  0  0  0  0  0  0  0  0  0
   -0.1722   -0.1719    9.7271 O   0  0  0  0  0  0  0  0  0  0  0  0
    0.6201    0.5584   10.5666 C   0  0  2  0  0  0  0  0  0  0  0  0
    1.3573    1.6062    9.8091 C   0  0  1  0  0  0  0  0  0  0  0  0
    0.8327    1.4563    8.4073 C   0  0  2  0  0  0  0  0  0  0  0  0
    0.3644    2.6935    7.9607 O   0  0  0  0  0  0  0  0  0  0  0  0
    1.0759    2.8946   10.2920 O   0  0  0  0  0  0  0  0  0  0  0  0
    1.4864   -0.2582   11.3923 N   0  0  0  0  0  0  0  0  0  0  0  0
    1.7003   -1.5715   11.2131 C   0  0  0  0  0  0  0  0  0  0  0  0
    2.5624   -2.0421   12.1524 N   0  0  0  0  0  0  0  0  0  0  0  0
    2.8938   -1.0082   12.9319 C   0  0  0  0  0  0  0  0  0  0  0  0
    2.2321    0.1010   12.4686 C   0  0  0  0  0  0  0  0  0  0  0  0
    2.3674    1.2940   13.0522 N   0  0  0  0  0  0  0  0  0  0  0  0
    3.1782    1.4121   14.1279 C   0  0  0  0  0  0  0  0  0  0  0  0
    3.3108    2.6811   14.7343 N   0  0  0  0  0  0  0  0  0  0  0  0
    2.8212    3.8494   14.0701 C   0  0  0  0  0  0  0  0  0  0  0  0
    1.7911    4.6191   14.8580 C   0  0  0  0  0  0  0  0  0  0  0  0
    2.5037    5.1827   16.0593 C   0  0  0  0  0  0  0  0  0  0  0  0
    3.8653    4.9843   16.2013 C   0  0  0  0  0  0  0  0  0  0  0  0
    4.5802    5.4694   17.2716 C   0  0  0  0  0  0  0  0  0  0  0  0
    3.8914    6.1803   18.2305 C   0  0  0  0  0  0  0  0  0  0  0  0
    2.5217    6.3917   18.1067 C   0  0  0  0  0  0  0  0  0  0  0  0
    1.8191    5.8893   17.0122 C   0  0  0  0  0  0  0  0  0  0  0  0
    4.6666    6.6981   19.3797 C   0  0  0  0  0  0  0  0  0  0  0  0
    4.3237    8.1018   19.7576 C   0  0  0  0  0  0  0  0  0  0  0  0
    5.0590    8.6379   20.9211 C   0  0  0  0  0  0  0  0  0  0  0  0
    5.7389    7.8941   21.6837 O   0  0  0  0  0  0  0  0  0  0  0  0
    5.0111   10.0101   21.2068 O   0  0  0  0  0  1  0  0  0  0  0  0
    3.8374    0.3217   14.5940 N   0  0  0  0  0  0  0  0  0  0  0  0
    3.7231   -0.8902   14.0312 C   0  0  0  0  0  0  0  0  0  0  0  0
    4.4250   -2.0162   14.5393 N   0  0  0  0  0  0  0  0  0  0  0  0
  1  2  1  0
  2  3  1  0
  3  4  1  0
  4  5  2  0
  6  4  1  6
  6  7  1  0
  7  8  1  0
  8  9  1  0
  9 10  1  0
 10 11  1  1
  9 12  1  1
  8 13  1  6
 13 14  1  0
 14 15  2  0
 15 16  1  0
 16 17  2  0
 17 18  1  0
 18 19  2  0
 19 20  1  0
 20 21  1  0
 21 22  1  0
 22 23  1  0
 23 24  2  0
 24 25  1  0
 25 26  2  0
 26 27  1  0
 27 28  2  0
 26 29  1  0
 29 30  1  0
 30 31  1  0
 31 32  2  0
 31 33  1  0
 19 34  1  0
 34 35  2  0
 35 36  1  0
 10  6  1  0
 17 13  1  0
 28 23  1  0
 35 16  1  0
M  CHG  1  33  -1
M  END
$$$$
