
     RDKit          3D

 36 39  0  0  0  0  0  0  0  0999 V2000
   -1.6339   -3.9640    5.5488 C   0  0  0  0  0  0  0  0  0  0  0  0
   -0.7082   -2.8451    5.1507 C   0  0  0  0  0  0  0  0  0  0  0  0
   -0.9848   -1.6052    5.8385 N   0  0  0  0  0  0  0  0  0  0  0  0
   -0.0276   -0.9905    6.6829 C   0  0  0  0  0  0  0  0  0  0  0  0
    1.1692   -1.3475    6.6176 O   0  0  0  0  0  0  0  0  0  0  0  0
   -0.4402    0.0632    7.6316 C   0  0  1  0  0  0  0  0  0  0  0  0
   -0.4425   -0.4029    8.9132 O   0  0  0  0  0  0  0  0  0  0  0  0
   -0.0129    0.5725    9.7676 C   0  0  2  0  0  0  0  0  0  0  0  0
    0.6016    1.6967    9.0103 C   0  0  1  0  0  0  0  0  0  0  0  0
    0.4058    1.2966    7.5735 C   0  0  2  0  0  0  0  0  0  0  0  0
   -0.2336    2.3351    6.8938 O   0  0  0  0  0  0  0  0  0  0  0  0
   -0.0507    2.9144    9.2628 O   0  0  0  0  0  0  0  0  0  0  0  0
    0.8384    0.0720   10.8277 N   0  0  0  0  0  0  0  0  0  0  0  0
    1.3209   -1.1791   10.8965 C   0  0  0  0  0  0  0  0  0  0  0  0
    2.0843   -1.3304   12.0105 N   0  0  0  0  0  0  0  0  0  0  0  0
    2.0804   -0.1564   12.6495 C   0  0  0  0  0  0  0  0  0  0  0  0
    1.3113    0.7183   11.9242 C   0  0  0  0  0  0  0  0  0  0  0  0
    1.1210    1.9794   12.3187 N   0  0  0  0  0  0  0  0  0  0  0  0
    1.7019    2.4057   13.4628 C   0  0  0  0  0  0  0  0  0  0  0  0
    1.4910    3.7428   13.8668 N   0  0  0  0  0  0  0  0  0  0  0  0
    2.1697    4.2625   15.0135 C   0  0  0  0  0  0  0  0  0  0  0  0
    3.6262    4.5746   14.7776 C   0  0  0  0  0  0  0  0  0  0  0  0
    4.3563    4.1901   16.0375 C   0  0  0  0  0  0  0  0  0  0  0  0
    5.5932    3.5768   15.9503 C   0  0  0  0  0  0  0  0  0  0  0  0
    6.3157    3.1983   17.0578 C   0  0  0  0  0  0  0  0  0  0  0  0
    5.7658    3.4503   18.2962 C   0  0  0  0  0  0  0  0  0  0  0  0
    4.5231    4.0665   18.4063 C   0  0  0  0  0  0  0  0  0  0  0  0
    3.8098    4.4406   17.2681 C   0  0  0  0  0  0  0  0  0  0  0  0
    6.5480    3.0393   19.4831 C   0  0  0  0  0  0  0  0  0  0  0  0
    6.6670    1.5596   19.6465 C   0  0  0  0  0  0  0  0  0  0  0  0
    7.4505    1.1166   20.8177 C   0  0  0  0  0  0  0  0  0  0  0  0
    6.9315    0.9976   21.9638 O   0  0  0  0  0  0  0  0  0  0  0  0
    8.8133    0.8178   20.6750 O   0  0  0  0  0  1  0  0  0  0  0  0
    2.4646    1.5490   14.1875 N   0  0  0  0  0  0  0  0  0  0  0  0
    2.6753    0.2767   13.8194 C   0  0  0  0  0  0  0  0  0  0  0  0
    3.4789   -0.5999   14.5968 N   0  0  0  0  0  0  0  0  0  0  0  0
  1  2  1  0
  2  3  1  0
  3  4  1  0
  4  5  2  0
  6  4  1  6
  6  7  1  0
  7  8  1  0
  8  9  1  0
  9 10  1  0
 10 11  1  6
  9 12  1  6
  8 13  1  1
 13 14  1  0
 14 15  2  0
 15 16  1  0
 16 17  2  0
 17 18  1  0
 18 19  2  0
 19 20  1  0
 20 21  1  0
 21 22  1  0
 22 23  1  0
 23 24  2  0
 24 25  1  0
 25 26  2  0
 26 27  1  0
 27 28  2  0
 26 29  1  0
 29 30  1  0
 30 31  1  0
 31 32  2  0
 31 33  1  0
 19 34  1  0
 34 35  2  0
 35 36  1  0
 10  6  1  0
 17 13  1  0
 28 23  1  0
 35 16  1  0
M  CHG  1  33  -1
M  END
$$$$
