
     RDKit          3D

 36 39  0  0  0  0  0  0  0  0999 V2000
   -1.6371   -2.1421    5.3678 C   0  0  0  0  0  0  0  0  0  0  0  0
   -0.9724   -0.8207    5.0858 C   0  0  0  0  0  0  0  0  0  0  0  0
   -0.9294    0.0521    6.2361 N   0  0  0  0  0  0  0  0  0  0  0  0
    0.0918   -0.0499    7.2127 C   0  0  0  0  0  0  0  0  0  0  0  0
    1.0325   -0.8549    7.0367 O   0  0  0  0  0  0  0  0  0  0  0  0
    0.0456    0.7882    8.4277 C   0  0  1  0  0  0  0  0  0  0  0  0
    0.0346    0.0200    9.5544 O   0  0  0  0  0  0  0  0  0  0  0  0
    0.7712    0.6182   10.5369 C   0  0  2  0  0  0  0  0  0  0  0  0
    1.5851    1.7306    9.9755 C   0  0  1  0  0  0  0  0  0  0  0  0
    1.1705    1.7702    8.5301 C   0  0  2  0  0  0  0  0  0  0  0  0
    0.7618    3.0657    8.2080 O   0  0  0  0  0  0  0  0  0  0  0  0
    1.2901    2.9567   10.5935 O   0  0  0  0  0  0  0  0  0  0  0  0
    1.5543   -0.3183   11.3172 N   0  0  0  0  0  0  0  0  0  0  0  0
    1.7550   -1.6056   10.9930 C   0  0  0  0  0  0  0  0  0  0  0  0
    2.5320   -2.2127   11.9282 N   0  0  0  0  0  0  0  0  0  0  0  0
    2.8228   -1.2918   12.8524 C   0  0  0  0  0  0  0  0  0  0  0  0
    2.2214   -0.1154   12.4822 C   0  0  0  0  0  0  0  0  0  0  0  0
    2.3351    0.9929   13.2177 N   0  0  0  0  0  0  0  0  0  0  0  0
    3.0623    0.9549   14.3570 C   0  0  0  0  0  0  0  0  0  0  0  0
    3.1730    2.1358   15.1242 N   0  0  0  0  0  0  0  0  0  0  0  0
    3.2364    3.4098   14.4771 C   0  0  0  0  0  0  0  0  0  0  0  0
    4.6390    3.8967   14.2129 C   0  0  0  0  0  0  0  0  0  0  0  0
    4.6134    5.3924   14.3877 C   0  0  0  0  0  0  0  0  0  0  0  0
    5.8028    6.0984   14.4079 C   0  0  0  0  0  0  0  0  0  0  0  0
    5.8549    7.4640   14.5640 C   0  0  0  0  0  0  0  0  0  0  0  0
    4.6603    8.1371   14.7040 C   0  0  0  0  0  0  0  0  0  0  0  0
    3.4527    7.4462   14.6861 C   0  0  0  0  0  0  0  0  0  0  0  0
    3.4263    6.0612   14.5267 C   0  0  0  0  0  0  0  0  0  0  0  0
    4.7240    9.6058   14.8727 C   0  0  0  0  0  0  0  0  0  0  0  0
    3.3864   10.2600   14.9881 C   0  0  0  0  0  0  0  0  0  0  0  0
    3.3736   11.5410   15.7236 C   0  0  0  0  0  0  0  0  0  0  0  0
    4.4236   12.0366   16.2225 O   0  0  0  0  0  0  0  0  0  0  0  0
    2.1698   12.2416   15.8867 O   0  0  0  0  0  1  0  0  0  0  0  0
    3.6613   -0.2033   14.7321 N   0  0  0  0  0  0  0  0  0  0  0  0
    3.5666   -1.3335   14.0164 C   0  0  0  0  0  0  0  0  0  0  0  0
    4.2042   -2.5333   14.4318 N   0  0  0  0  0  0  0  0  0  0  0  0
  1  2  1  0
  2  3  1  0
  3  4  1  0
  4  5  2  0
  6  4  1  6
  6  7  1  0
  7  8  1  0
  8  9  1  0
  9 10  1  0
 10 11  1  1
  9 12  1  1
  8 13  1  6
 13 14  1  0
 14 15  2  0
 15 16  1  0
 16 17  2  0
 17 18  1  0
 18 19  2  0
 19 20  1  0
 20 21  1  0
 21 22  1  0
 22 23  1  0
 23 24  2  0
 24 25  1  0
 25 26  2  0
 26 27  1  0
 27 28  2  0
 26 29  1  0
 29 30  1  0
 30 31  1  0
 31 32  2  0
 31 33  1  0
 19 34  1  0
 34 35  2  0
 35 36  1  0
 10  6  1  0
 17 13  1  0
 28 23  1  0
 35 16  1  0
M  CHG  1  33  -1
M  END
$$$$
