
     RDKit          3D

 36 39  0  0  0  0  0  0  0  0999 V2000
   -1.5968   -2.6760    5.2677 C   0  0  0  0  0  0  0  0  0  0  0  0
   -0.3271   -2.0962    5.8326 C   0  0  0  0  0  0  0  0  0  0  0  0
   -0.5486   -1.2574    6.9876 N   0  0  0  0  0  0  0  0  0  0  0  0
    0.5252   -0.7644    7.7691 C   0  0  0  0  0  0  0  0  0  0  0  0
    1.6949   -1.1135    7.4966 O   0  0  0  0  0  0  0  0  0  0  0  0
    0.2652    0.1544    8.8955 C   0  0  1  0  0  0  0  0  0  0  0  0
    0.3961   -0.4860   10.0923 O   0  0  0  0  0  0  0  0  0  0  0  0
    0.9579    0.3519   11.0134 C   0  0  2  0  0  0  0  0  0  0  0  0
    1.5199    1.5585   10.3475 C   0  0  1  0  0  0  0  0  0  0  0  0
    1.1427    1.3669    8.9040 C   0  0  2  0  0  0  0  0  0  0  0  0
    0.4662    2.5026    8.4547 O   0  0  0  0  0  0  0  0  0  0  0  0
    0.9463    2.7416   10.8408 O   0  0  0  0  0  0  0  0  0  0  0  0
    1.9089   -0.3085   11.8844 N   0  0  0  0  0  0  0  0  0  0  0  0
    2.4727   -1.5019   11.6382 C   0  0  0  0  0  0  0  0  0  0  0  0
    3.3178   -1.8421   12.6466 N   0  0  0  0  0  0  0  0  0  0  0  0
    3.2832   -0.8469   13.5382 C   0  0  0  0  0  0  0  0  0  0  0  0
    2.4131    0.1074   13.0745 C   0  0  0  0  0  0  0  0  0  0  0  0
    2.1709    1.2282   13.7581 N   0  0  0  0  0  0  0  0  0  0  0  0
    2.7998    1.4280   14.9382 C   0  0  0  0  0  0  0  0  0  0  0  0
    2.5328    2.6189   15.6497 N   0  0  0  0  0  0  0  0  0  0  0  0
    1.6967    3.6271   15.0750 C   0  0  0  0  0  0  0  0  0  0  0  0
    2.4218    4.9023   14.7255 C   0  0  0  0  0  0  0  0  0  0  0  0
    2.0555    5.2270   13.3011 C   0  0  0  0  0  0  0  0  0  0  0  0
    1.4167    4.2757   12.5262 C   0  0  0  0  0  0  0  0  0  0  0  0
    1.0534    4.5026   11.2191 C   0  0  0  0  0  0  0  0  0  0  0  0
    1.3473    5.7362   10.6792 C   0  0  0  0  0  0  0  0  0  0  0  0
    1.9890    6.7074   11.4415 C   0  0  0  0  0  0  0  0  0  0  0  0
    2.3475    6.4529   12.7647 C   0  0  0  0  0  0  0  0  0  0  0  0
    0.9546    5.9729    9.2723 C   0  0  0  0  0  0  0  0  0  0  0  0
    2.0891    6.3710    8.3863 C   0  0  0  0  0  0  0  0  0  0  0  0
    1.7685    6.4408    6.9461 C   0  0  0  0  0  0  0  0  0  0  0  0
    1.1789    5.4981    6.3454 O   0  0  0  0  0  0  0  0  0  0  0  0
    2.1238    7.5771    6.2049 O   0  0  0  0  0  1  0  0  0  0  0  0
    3.6623    0.4909   15.4059 N   0  0  0  0  0  0  0  0  0  0  0  0
    3.9274   -0.6451   14.7442 C   0  0  0  0  0  0  0  0  0  0  0  0
    4.8353   -1.6105   15.2564 N   0  0  0  0  0  0  0  0  0  0  0  0
  1  2  1  0
  2  3  1  0
  3  4  1  0
  4  5  2  0
  6  4  1  6
  6  7  1  0
  7  8  1  0
  8  9  1  0
  9 10  1  0
 10 11  1  1
  9 12  1  1
  8 13  1  6
 13 14  1  0
 14 15  2  0
 15 16  1  0
 16 17  2  0
 17 18  1  0
 18 19  2  0
 19 20  1  0
 20 21  1  0
 21 22  1  0
 22 23  1  0
 23 24  2  0
 24 25  1  0
 25 26  2  0
 26 27  1  0
 27 28  2  0
 26 29  1  0
 29 30  1  0
 30 31  1  0
 31 32  2  0
 31 33  1  0
 19 34  1  0
 34 35  2  0
 35 36  1  0
 10  6  1  0
 17 13  1  0
 28 23  1  0
 35 16  1  0
M  CHG  1  33  -1
M  END
$$$$
