
     RDKit          3D

 36 39  0  0  0  0  0  0  0  0999 V2000
   -1.6317   -2.9137    4.0444 C   0  0  0  0  0  0  0  0  0  0  0  0
   -0.8612   -2.9762    5.3367 C   0  0  0  0  0  0  0  0  0  0  0  0
   -1.1004   -1.8411    6.1977 N   0  0  0  0  0  0  0  0  0  0  0  0
   -0.0540   -0.9737    6.5971 C   0  0  0  0  0  0  0  0  0  0  0  0
    1.0919   -1.1331    6.1220 O   0  0  0  0  0  0  0  0  0  0  0  0
   -0.3149    0.1099    7.5658 C   0  0  1  0  0  0  0  0  0  0  0  0
   -0.2273   -0.3457    8.8482 O   0  0  0  0  0  0  0  0  0  0  0  0
    0.3356    0.6084    9.6474 C   0  0  2  0  0  0  0  0  0  0  0  0
    0.9437    1.6880    8.8228 C   0  0  1  0  0  0  0  0  0  0  0  0
    0.5938    1.2898    7.4151 C   0  0  2  0  0  0  0  0  0  0  0  0
   -0.0426    2.3598    6.7831 O   0  0  0  0  0  0  0  0  0  0  0  0
    0.3905    2.9445    9.1181 O   0  0  0  0  0  0  0  0  0  0  0  0
    1.2494    0.0654   10.6319 N   0  0  0  0  0  0  0  0  0  0  0  0
    1.6453   -1.2164   10.6847 C   0  0  0  0  0  0  0  0  0  0  0  0
    2.5022   -1.4038   11.7228 N   0  0  0  0  0  0  0  0  0  0  0  0
    2.6455   -0.2215   12.3296 C   0  0  0  0  0  0  0  0  0  0  0  0
    1.8732    0.6945   11.6608 C   0  0  0  0  0  0  0  0  0  0  0  0
    1.8137    1.9730   12.0402 N   0  0  0  0  0  0  0  0  0  0  0  0
    2.5337    2.3757   13.1115 C   0  0  0  0  0  0  0  0  0  0  0  0
    2.4601    3.7317   13.5005 N   0  0  0  0  0  0  0  0  0  0  0  0
    3.3545    4.2444   14.4919 C   0  0  0  0  0  0  0  0  0  0  0  0
    2.7595    4.3242   15.8753 C   0  0  0  0  0  0  0  0  0  0  0  0
    3.8248    3.8490   16.8281 C   0  0  0  0  0  0  0  0  0  0  0  0
    3.7702    4.2269   18.1576 C   0  0  0  0  0  0  0  0  0  0  0  0
    4.7082    3.8312   19.0827 C   0  0  0  0  0  0  0  0  0  0  0  0
    5.7364    3.0245   18.6451 C   0  0  0  0  0  0  0  0  0  0  0  0
    5.8098    2.6325   17.3120 C   0  0  0  0  0  0  0  0  0  0  0  0
    4.8466    3.0473   16.3932 C   0  0  0  0  0  0  0  0  0  0  0  0
    6.7423    2.6037   19.6454 C   0  0  0  0  0  0  0  0  0  0  0  0
    6.5129    3.1688   21.0087 C   0  0  0  0  0  0  0  0  0  0  0  0
    7.4489    2.6990   22.0504 C   0  0  0  0  0  0  0  0  0  0  0  0
    7.2402    1.6413   22.7098 O   0  0  0  0  0  0  0  0  0  0  0  0
    8.6077    3.4366   22.3334 O   0  0  0  0  0  1  0  0  0  0  0  0
    3.3009    1.4782   13.7799 N   0  0  0  0  0  0  0  0  0  0  0  0
    3.3825    0.1874   13.4249 C   0  0  0  0  0  0  0  0  0  0  0  0
    4.1940   -0.7321   14.1423 N   0  0  0  0  0  0  0  0  0  0  0  0
  1  2  1  0
  2  3  1  0
  3  4  1  0
  4  5  2  0
  6  4  1  6
  6  7  1  0
  7  8  1  0
  8  9  1  0
  9 10  1  0
 10 11  1  1
  9 12  1  1
  8 13  1  6
 13 14  1  0
 14 15  2  0
 15 16  1  0
 16 17  2  0
 17 18  1  0
 18 19  2  0
 19 20  1  0
 20 21  1  0
 21 22  1  0
 22 23  1  0
 23 24  2  0
 24 25  1  0
 25 26  2  0
 26 27  1  0
 27 28  2  0
 26 29  1  0
 29 30  1  0
 30 31  1  0
 31 32  2  0
 31 33  1  0
 19 34  1  0
 34 35  2  0
 35 36  1  0
 10  6  1  0
 17 13  1  0
 28 23  1  0
 35 16  1  0
M  CHG  1  33  -1
M  END
$$$$
