
     RDKit          3D

 25 28  0  0  0  0  0  0  0  0999 V2000
    2.4926    0.3686    6.2898 C   0  0  0  0  0  0  0  0  0  0  0  0
    3.6879    0.1783    6.9668 C   0  0  0  0  0  0  0  0  0  0  0  0
    3.6890    0.9716    7.9808 O   0  0  0  0  0  0  0  0  0  0  0  0
    2.6084    1.7068    8.0858 C   0  0  0  0  0  0  0  0  0  0  0  0
    1.8135    1.3407    7.0063 C   0  0  0  0  0  0  0  0  0  0  0  0
    2.3012    2.7053    9.1225 C   0  0  0  0  0  0  0  0  0  0  0  0
    3.0290    2.8513   10.2467 N   0  0  0  0  0  0  0  0  0  0  0  0
    2.5381    3.8148   11.0109 N   0  0  0  0  0  0  0  0  0  0  0  0
    2.9218    4.3176   12.2118 C   0  0  0  0  0  0  0  0  0  0  0  0
    2.2207    5.3038   12.7411 N   0  0  0  0  0  0  0  0  0  0  0  0
    1.1168    5.8425   12.1254 C   0  0  0  0  0  0  0  0  0  0  0  0
    0.7737    5.3212   10.9485 N   0  0  0  0  0  0  0  0  0  0  0  0
    1.4795    4.3027   10.3794 C   0  0  0  0  0  0  0  0  0  0  0  0
    1.3318    3.6122    9.2050 N   0  0  0  0  0  0  0  0  0  0  0  0
    0.4925    6.9073   12.8121 N   0  0  0  0  0  0  0  0  0  0  0  0
    1.0066    7.5136   14.0072 C   0  0  0  0  0  0  0  0  0  0  0  0
    1.9897    8.6018   13.7414 C   0  0  0  0  0  0  0  0  0  0  0  0
    2.7811    8.8412   14.9888 C   0  0  0  0  0  0  0  0  0  0  0  0
    2.4903    8.2101   16.1912 C   0  0  0  0  0  0  0  0  0  0  0  0
    3.2178    8.4331   17.3445 C   0  0  0  0  0  0  0  0  0  0  0  0
    4.2937    9.3262   17.3122 C   0  0  0  0  0  0  0  0  0  0  0  0
    4.5947    9.9600   16.1295 C   0  0  0  0  0  0  0  0  0  0  0  0
    3.8446    9.7210   14.9757 C   0  0  0  0  0  0  0  0  0  0  0  0
    5.0384    9.5526   18.4812 O   0  0  0  0  0  0  0  0  0  0  0  0
    4.0606    3.7246   12.8177 N   0  0  0  0  0  0  0  0  0  0  0  0
  1  2  2  0
  2  3  1  0
  3  4  1  0
  4  5  2  0
  4  6  1  0
  6  7  2  0
  7  8  1  0
  8  9  1  0
  9 10  2  0
 10 11  1  0
 11 12  2  0
 12 13  1  0
 13 14  2  0
 11 15  1  0
 15 16  1  0
 16 17  1  0
 17 18  1  0
 18 19  2  0
 19 20  1  0
 20 21  2  0
 21 22  1  0
 22 23  2  0
 21 24  1  0
  9 25  1  0
  5  1  1  0
 14  6  1  0
 13  8  1  0
 23 18  1  0
M  END
$$$$
