
     RDKit          3D

 25 28  0  0  0  0  0  0  0  0999 V2000
    1.7436    1.1526    5.3114 C   0  0  0  0  0  0  0  0  0  0  0  0
    1.8965    0.2147    6.3214 C   0  0  0  0  0  0  0  0  0  0  0  0
    1.8247    0.8401    7.4445 O   0  0  0  0  0  0  0  0  0  0  0  0
    1.6367    2.1323    7.3260 C   0  0  0  0  0  0  0  0  0  0  0  0
    1.5796    2.3672    5.9574 C   0  0  0  0  0  0  0  0  0  0  0  0
    1.5125    3.1227    8.4075 C   0  0  0  0  0  0  0  0  0  0  0  0
    0.4929    3.9990    8.4936 N   0  0  0  0  0  0  0  0  0  0  0  0
    0.6227    4.7788    9.5559 N   0  0  0  0  0  0  0  0  0  0  0  0
   -0.1379    5.7884   10.0504 C   0  0  0  0  0  0  0  0  0  0  0  0
    0.2532    6.3958   11.1559 N   0  0  0  0  0  0  0  0  0  0  0  0
    1.4003    6.0477   11.8272 C   0  0  0  0  0  0  0  0  0  0  0  0
    2.1183    5.0522   11.3094 N   0  0  0  0  0  0  0  0  0  0  0  0
    1.7379    4.4081   10.1692 C   0  0  0  0  0  0  0  0  0  0  0  0
    2.2917    3.3782    9.4547 N   0  0  0  0  0  0  0  0  0  0  0  0
    1.6648    6.7794   13.0061 N   0  0  0  0  0  0  0  0  0  0  0  0
    2.5592    6.3499   14.0435 C   0  0  0  0  0  0  0  0  0  0  0  0
    3.8907    7.0174   13.9888 C   0  0  0  0  0  0  0  0  0  0  0  0
    4.7878    6.3693   14.9962 C   0  0  0  0  0  0  0  0  0  0  0  0
    4.7372    6.6767   16.3496 C   0  0  0  0  0  0  0  0  0  0  0  0
    5.5675    6.0818   17.2800 C   0  0  0  0  0  0  0  0  0  0  0  0
    6.4990    5.1291   16.8549 C   0  0  0  0  0  0  0  0  0  0  0  0
    6.5624    4.8135   15.5179 C   0  0  0  0  0  0  0  0  0  0  0  0
    5.7145    5.4287   14.5940 C   0  0  0  0  0  0  0  0  0  0  0  0
    7.3420    4.5189   17.7981 O   0  0  0  0  0  0  0  0  0  0  0  0
   -1.3084    6.1226    9.3197 N   0  0  0  0  0  0  0  0  0  0  0  0
  1  2  2  0
  2  3  1  0
  3  4  1  0
  4  5  2  0
  4  6  1  0
  6  7  2  0
  7  8  1  0
  8  9  1  0
  9 10  2  0
 10 11  1  0
 11 12  2  0
 12 13  1  0
 13 14  2  0
 11 15  1  0
 15 16  1  0
 16 17  1  0
 17 18  1  0
 18 19  2  0
 19 20  1  0
 20 21  2  0
 21 22  1  0
 22 23  2  0
 21 24  1  0
  9 25  1  0
  5  1  1  0
 14  6  1  0
 13  8  1  0
 23 18  1  0
M  END
$$$$
