
     RDKit          3D

 25 28  0  0  0  0  0  0  0  0999 V2000
    0.5115    1.3367    5.3429 C   0  0  0  0  0  0  0  0  0  0  0  0
    0.7244    0.2950    6.2332 C   0  0  0  0  0  0  0  0  0  0  0  0
    1.0766    0.8130    7.3580 O   0  0  0  0  0  0  0  0  0  0  0  0
    1.1346    2.1229    7.3487 C   0  0  0  0  0  0  0  0  0  0  0  0
    0.7743    2.4934    6.0587 C   0  0  0  0  0  0  0  0  0  0  0  0
    1.5017    3.0115    8.4630 C   0  0  0  0  0  0  0  0  0  0  0  0
    2.0465    2.5686    9.6128 N   0  0  0  0  0  0  0  0  0  0  0  0
    2.2765    3.5698   10.4483 N   0  0  0  0  0  0  0  0  0  0  0  0
    2.8035    3.6181   11.6982 C   0  0  0  0  0  0  0  0  0  0  0  0
    2.9128    4.7903   12.2967 N   0  0  0  0  0  0  0  0  0  0  0  0
    2.5142    5.9648   11.7057 C   0  0  0  0  0  0  0  0  0  0  0  0
    2.0026    5.8742   10.4791 N   0  0  0  0  0  0  0  0  0  0  0  0
    1.8780    4.6771    9.8381 C   0  0  0  0  0  0  0  0  0  0  0  0
    1.3956    4.3299    8.6033 N   0  0  0  0  0  0  0  0  0  0  0  0
    2.7206    7.1346   12.4699 N   0  0  0  0  0  0  0  0  0  0  0  0
    2.8916    7.1526   13.8950 C   0  0  0  0  0  0  0  0  0  0  0  0
    2.5025    8.4485   14.5201 C   0  0  0  0  0  0  0  0  0  0  0  0
    3.0330    8.4783   15.9191 C   0  0  0  0  0  0  0  0  0  0  0  0
    2.2092    8.3820   17.0331 C   0  0  0  0  0  0  0  0  0  0  0  0
    2.6974    8.4133   18.3253 C   0  0  0  0  0  0  0  0  0  0  0  0
    4.0742    8.5449   18.5331 C   0  0  0  0  0  0  0  0  0  0  0  0
    4.9039    8.6420   17.4406 C   0  0  0  0  0  0  0  0  0  0  0  0
    4.3887    8.6100   16.1427 C   0  0  0  0  0  0  0  0  0  0  0  0
    4.5750    8.5729   19.8449 O   0  0  0  0  0  0  0  0  0  0  0  0
    3.1919    2.3806   12.2754 N   0  0  0  0  0  0  0  0  0  0  0  0
  1  2  2  0
  2  3  1  0
  3  4  1  0
  4  5  2  0
  4  6  1  0
  6  7  2  0
  7  8  1  0
  8  9  1  0
  9 10  2  0
 10 11  1  0
 11 12  2  0
 12 13  1  0
 13 14  2  0
 11 15  1  0
 15 16  1  0
 16 17  1  0
 17 18  1  0
 18 19  2  0
 19 20  1  0
 20 21  2  0
 21 22  1  0
 22 23  2  0
 21 24  1  0
  9 25  1  0
  5  1  1  0
 14  6  1  0
 13  8  1  0
 23 18  1  0
M  END
$$$$
