
     RDKit          3D

 25 28  0  0  0  0  0  0  0  0999 V2000
    2.0764    0.2764    6.4955 C   0  0  0  0  0  0  0  0  0  0  0  0
    3.2392   -0.0299    7.1865 C   0  0  0  0  0  0  0  0  0  0  0  0
    3.3346    0.7964    8.1692 O   0  0  0  0  0  0  0  0  0  0  0  0
    2.3504    1.6598    8.2394 C   0  0  0  0  0  0  0  0  0  0  0  0
    1.5184    1.3502    7.1701 C   0  0  0  0  0  0  0  0  0  0  0  0
    2.1644    2.7276    9.2350 C   0  0  0  0  0  0  0  0  0  0  0  0
    2.9077    2.8326   10.3537 N   0  0  0  0  0  0  0  0  0  0  0  0
    2.5344    3.8762   11.0781 N   0  0  0  0  0  0  0  0  0  0  0  0
    2.9775    4.3783   12.2587 C   0  0  0  0  0  0  0  0  0  0  0  0
    2.3974    5.4595   12.7471 N   0  0  0  0  0  0  0  0  0  0  0  0
    1.3617    6.0980   12.1088 C   0  0  0  0  0  0  0  0  0  0  0  0
    0.9567    5.5737   10.9530 N   0  0  0  0  0  0  0  0  0  0  0  0
    1.5377    4.4583   10.4261 C   0  0  0  0  0  0  0  0  0  0  0  0
    1.3071    3.7436    9.2798 N   0  0  0  0  0  0  0  0  0  0  0  0
    0.8673    7.2545   12.7515 N   0  0  0  0  0  0  0  0  0  0  0  0
    1.3443    7.7481   14.0122 C   0  0  0  0  0  0  0  0  0  0  0  0
    2.6353    8.4854   13.9073 C   0  0  0  0  0  0  0  0  0  0  0  0
    3.2494    8.5626   15.2699 C   0  0  0  0  0  0  0  0  0  0  0  0
    4.5695    8.9424   15.4744 C   0  0  0  0  0  0  0  0  0  0  0  0
    5.1387    9.0103   16.7316 C   0  0  0  0  0  0  0  0  0  0  0  0
    4.3646    8.6882   17.8510 C   0  0  0  0  0  0  0  0  0  0  0  0
    3.0555    8.3097   17.6658 C   0  0  0  0  0  0  0  0  0  0  0  0
    2.5008    8.2460   16.3855 C   0  0  0  0  0  0  0  0  0  0  0  0
    4.9380    8.7600   19.1310 O   0  0  0  0  0  0  0  0  0  0  0  0
    4.0416    3.6816   12.8895 N   0  0  0  0  0  0  0  0  0  0  0  0
  1  2  2  0
  2  3  1  0
  3  4  1  0
  4  5  2  0
  4  6  1  0
  6  7  2  0
  7  8  1  0
  8  9  1  0
  9 10  2  0
 10 11  1  0
 11 12  2  0
 12 13  1  0
 13 14  2  0
 11 15  1  0
 15 16  1  0
 16 17  1  0
 17 18  1  0
 18 19  2  0
 19 20  1  0
 20 21  2  0
 21 22  1  0
 22 23  2  0
 21 24  1  0
  9 25  1  0
  5  1  1  0
 14  6  1  0
 13  8  1  0
 23 18  1  0
M  END
$$$$
