
     RDKit          3D

 25 28  0  0  0  0  0  0  0  0999 V2000
    1.3643    1.3981    5.8476 C   0  0  0  0  0  0  0  0  0  0  0  0
    2.4963    0.7736    6.3494 C   0  0  0  0  0  0  0  0  0  0  0  0
    2.8241    1.3814    7.4361 O   0  0  0  0  0  0  0  0  0  0  0  0
    2.0324    2.3780    7.7511 C   0  0  0  0  0  0  0  0  0  0  0  0
    1.0766    2.4156    6.7429 C   0  0  0  0  0  0  0  0  0  0  0  0
    2.1324    3.2668    8.9198 C   0  0  0  0  0  0  0  0  0  0  0  0
    3.0201    3.0809    9.9159 N   0  0  0  0  0  0  0  0  0  0  0  0
    2.8979    4.0169   10.8446 N   0  0  0  0  0  0  0  0  0  0  0  0
    3.5568    4.2442   12.0092 C   0  0  0  0  0  0  0  0  0  0  0  0
    3.2069    5.2838   12.7447 N   0  0  0  0  0  0  0  0  0  0  0  0
    2.2016    6.1461   12.3793 C   0  0  0  0  0  0  0  0  0  0  0  0
    1.5801    5.8881   11.2295 N   0  0  0  0  0  0  0  0  0  0  0  0
    1.9210    4.8218   10.4509 C   0  0  0  0  0  0  0  0  0  0  0  0
    1.4443    4.3550    9.2539 N   0  0  0  0  0  0  0  0  0  0  0  0
    1.9666    7.2215   13.2643 N   0  0  0  0  0  0  0  0  0  0  0  0
    0.8804    8.1516   13.1397 C   0  0  0  0  0  0  0  0  0  0  0  0
    1.0484    9.1074   12.0085 C   0  0  0  0  0  0  0  0  0  0  0  0
    1.0842   10.4970   12.5631 C   0  0  0  0  0  0  0  0  0  0  0  0
    2.1467   10.9723   13.3207 C   0  0  0  0  0  0  0  0  0  0  0  0
    2.1792   12.2537   13.8364 C   0  0  0  0  0  0  0  0  0  0  0  0
    1.1065   13.1169   13.5911 C   0  0  0  0  0  0  0  0  0  0  0  0
    0.0461   12.6617   12.8430 C   0  0  0  0  0  0  0  0  0  0  0  0
    0.0331   11.3615   12.3328 C   0  0  0  0  0  0  0  0  0  0  0  0
    1.1375   14.4216   14.1099 O   0  0  0  0  0  0  0  0  0  0  0  0
    4.5806    3.3229   12.3538 N   0  0  0  0  0  0  0  0  0  0  0  0
  1  2  2  0
  2  3  1  0
  3  4  1  0
  4  5  2  0
  4  6  1  0
  6  7  2  0
  7  8  1  0
  8  9  1  0
  9 10  2  0
 10 11  1  0
 11 12  2  0
 12 13  1  0
 13 14  2  0
 11 15  1  0
 15 16  1  0
 16 17  1  0
 17 18  1  0
 18 19  2  0
 19 20  1  0
 20 21  2  0
 21 22  1  0
 22 23  2  0
 21 24  1  0
  9 25  1  0
  5  1  1  0
 14  6  1  0
 13  8  1  0
 23 18  1  0
M  END
$$$$
