
     RDKit          3D

 25 28  0  0  0  0  0  0  0  0999 V2000
    2.0214    0.0128    6.5153 C   0  0  0  0  0  0  0  0  0  0  0  0
    1.3294    0.9537    5.7676 C   0  0  0  0  0  0  0  0  0  0  0  0
    1.2039    2.0093    6.4940 O   0  0  0  0  0  0  0  0  0  0  0  0
    1.7403    1.9051    7.6859 C   0  0  0  0  0  0  0  0  0  0  0  0
    2.2781    0.6244    7.7317 C   0  0  0  0  0  0  0  0  0  0  0  0
    1.7682    2.9234    8.7481 C   0  0  0  0  0  0  0  0  0  0  0  0
    2.4697    2.7817    9.8895 N   0  0  0  0  0  0  0  0  0  0  0  0
    2.3208    3.8373   10.6750 N   0  0  0  0  0  0  0  0  0  0  0  0
    2.8208    4.1476   11.8981 C   0  0  0  0  0  0  0  0  0  0  0  0
    2.4892    5.3027   12.4456 N   0  0  0  0  0  0  0  0  0  0  0  0
    1.6574    6.2048   11.8275 C   0  0  0  0  0  0  0  0  0  0  0  0
    1.1884    5.8625   10.6285 N   0  0  0  0  0  0  0  0  0  0  0  0
    1.5144    4.6763   10.0402 C   0  0  0  0  0  0  0  0  0  0  0  0
    1.1701    4.1077    8.8418 N   0  0  0  0  0  0  0  0  0  0  0  0
    1.4206    7.4034   12.5363 N   0  0  0  0  0  0  0  0  0  0  0  0
    1.8772    7.6588   13.8729 C   0  0  0  0  0  0  0  0  0  0  0  0
    3.3464    7.4727   14.0406 C   0  0  0  0  0  0  0  0  0  0  0  0
    3.7075    7.8000   15.4556 C   0  0  0  0  0  0  0  0  0  0  0  0
    3.0209    7.2752   16.5428 C   0  0  0  0  0  0  0  0  0  0  0  0
    3.3509    7.5797   17.8495 C   0  0  0  0  0  0  0  0  0  0  0  0
    4.4182    8.4480   18.1007 C   0  0  0  0  0  0  0  0  0  0  0  0
    5.1083    8.9767   17.0351 C   0  0  0  0  0  0  0  0  0  0  0  0
    4.7564    8.6568   15.7218 C   0  0  0  0  0  0  0  0  0  0  0  0
    4.7596    8.7567   19.4275 O   0  0  0  0  0  0  0  0  0  0  0  0
    3.6669    3.1827   12.5054 N   0  0  0  0  0  0  0  0  0  0  0  0
  1  2  2  0
  2  3  1  0
  3  4  1  0
  4  5  2  0
  4  6  1  0
  6  7  2  0
  7  8  1  0
  8  9  1  0
  9 10  2  0
 10 11  1  0
 11 12  2  0
 12 13  1  0
 13 14  2  0
 11 15  1  0
 15 16  1  0
 16 17  1  0
 17 18  1  0
 18 19  2  0
 19 20  1  0
 20 21  2  0
 21 22  1  0
 22 23  2  0
 21 24  1  0
  9 25  1  0
  5  1  1  0
 14  6  1  0
 13  8  1  0
 23 18  1  0
M  END
$$$$
