
     RDKit          3D

 25 28  0  0  0  0  0  0  0  0999 V2000
    3.6086   -0.7078    7.6301 C   0  0  0  0  0  0  0  0  0  0  0  0
    2.8942   -0.2416    6.5367 C   0  0  0  0  0  0  0  0  0  0  0  0
    2.3175    0.8541    6.8897 O   0  0  0  0  0  0  0  0  0  0  0  0
    2.5546    1.2077    8.1298 C   0  0  0  0  0  0  0  0  0  0  0  0
    3.3874    0.2176    8.6372 C   0  0  0  0  0  0  0  0  0  0  0  0
    2.0489    2.3965    8.8348 C   0  0  0  0  0  0  0  0  0  0  0  0
    1.2076    3.2865    8.2735 N   0  0  0  0  0  0  0  0  0  0  0  0
    0.9114    4.2616    9.1189 N   0  0  0  0  0  0  0  0  0  0  0  0
    0.1219    5.3604    9.0107 C   0  0  0  0  0  0  0  0  0  0  0  0
    0.0165    6.1716   10.0475 N   0  0  0  0  0  0  0  0  0  0  0  0
    0.6743    5.9492   11.2331 C   0  0  0  0  0  0  0  0  0  0  0  0
    1.4387    4.8601   11.2984 N   0  0  0  0  0  0  0  0  0  0  0  0
    1.5657    4.0059   10.2431 C   0  0  0  0  0  0  0  0  0  0  0  0
    2.2737    2.8459   10.0663 N   0  0  0  0  0  0  0  0  0  0  0  0
    0.4370    6.8987   12.2515 N   0  0  0  0  0  0  0  0  0  0  0  0
    1.1248    6.9258   13.5111 C   0  0  0  0  0  0  0  0  0  0  0  0
    2.6052    6.8155   13.3779 C   0  0  0  0  0  0  0  0  0  0  0  0
    3.2181    6.9989   14.7308 C   0  0  0  0  0  0  0  0  0  0  0  0
    4.5737    6.8132   14.9687 C   0  0  0  0  0  0  0  0  0  0  0  0
    5.1400    6.9784   16.2181 C   0  0  0  0  0  0  0  0  0  0  0  0
    4.3268    7.3495   17.2938 C   0  0  0  0  0  0  0  0  0  0  0  0
    2.9821    7.5369   17.0753 C   0  0  0  0  0  0  0  0  0  0  0  0
    2.4301    7.3626   15.8041 C   0  0  0  0  0  0  0  0  0  0  0  0
    4.8992    7.5226   18.5646 O   0  0  0  0  0  0  0  0  0  0  0  0
   -0.5303    5.5577    7.7652 N   0  0  0  0  0  0  0  0  0  0  0  0
  1  2  2  0
  2  3  1  0
  3  4  1  0
  4  5  2  0
  4  6  1  0
  6  7  2  0
  7  8  1  0
  8  9  1  0
  9 10  2  0
 10 11  1  0
 11 12  2  0
 12 13  1  0
 13 14  2  0
 11 15  1  0
 15 16  1  0
 16 17  1  0
 17 18  1  0
 18 19  2  0
 19 20  1  0
 20 21  2  0
 21 22  1  0
 22 23  2  0
 21 24  1  0
  9 25  1  0
  5  1  1  0
 14  6  1  0
 13  8  1  0
 23 18  1  0
M  END
$$$$
