
     RDKit          3D

 25 28  0  0  0  0  0  0  0  0999 V2000
    1.5883    0.6788    6.4287 C   0  0  0  0  0  0  0  0  0  0  0  0
    2.8304    0.4111    6.9844 C   0  0  0  0  0  0  0  0  0  0  0  0
    3.0428    1.2914    7.8996 O   0  0  0  0  0  0  0  0  0  0  0  0
    2.0697    2.1582    8.0440 C   0  0  0  0  0  0  0  0  0  0  0  0
    1.1124    1.7894    7.1065 C   0  0  0  0  0  0  0  0  0  0  0  0
    2.0031    3.2806    8.9937 C   0  0  0  0  0  0  0  0  0  0  0  0
    2.8531    3.4242   10.0289 N   0  0  0  0  0  0  0  0  0  0  0  0
    2.5733    4.5132   10.7282 N   0  0  0  0  0  0  0  0  0  0  0  0
    3.1389    5.0643   11.8322 C   0  0  0  0  0  0  0  0  0  0  0  0
    2.6312    6.1839   12.3146 N   0  0  0  0  0  0  0  0  0  0  0  0
    1.5521    6.8150   11.7445 C   0  0  0  0  0  0  0  0  0  0  0  0
    1.0264    6.2422   10.6628 N   0  0  0  0  0  0  0  0  0  0  0  0
    1.5305    5.0863   10.1439 C   0  0  0  0  0  0  0  0  0  0  0  0
    1.1753    4.3193    9.0651 N   0  0  0  0  0  0  0  0  0  0  0  0
    1.1463    8.0156   12.3681 N   0  0  0  0  0  0  0  0  0  0  0  0
    1.8105    8.6096   13.4934 C   0  0  0  0  0  0  0  0  0  0  0  0
    1.4792    7.9520   14.7892 C   0  0  0  0  0  0  0  0  0  0  0  0
    2.5904    8.2205   15.7551 C   0  0  0  0  0  0  0  0  0  0  0  0
    3.4650    9.2894   15.6100 C   0  0  0  0  0  0  0  0  0  0  0  0
    4.4936    9.5361   16.4989 C   0  0  0  0  0  0  0  0  0  0  0  0
    4.6703    8.6839   17.5937 C   0  0  0  0  0  0  0  0  0  0  0  0
    3.8130    7.6202   17.7518 C   0  0  0  0  0  0  0  0  0  0  0  0
    2.7808    7.3884   16.8398 C   0  0  0  0  0  0  0  0  0  0  0  0
    5.7120    8.9335   18.5020 O   0  0  0  0  0  0  0  0  0  0  0  0
    4.2443    4.3739   12.3952 N   0  0  0  0  0  0  0  0  0  0  0  0
  1  2  2  0
  2  3  1  0
  3  4  1  0
  4  5  2  0
  4  6  1  0
  6  7  2  0
  7  8  1  0
  8  9  1  0
  9 10  2  0
 10 11  1  0
 11 12  2  0
 12 13  1  0
 13 14  2  0
 11 15  1  0
 15 16  1  0
 16 17  1  0
 17 18  1  0
 18 19  2  0
 19 20  1  0
 20 21  2  0
 21 22  1  0
 22 23  2  0
 21 24  1  0
  9 25  1  0
  5  1  1  0
 14  6  1  0
 13  8  1  0
 23 18  1  0
M  END
$$$$
