
     RDKit          3D

 25 28  0  0  0  0  0  0  0  0999 V2000
    2.2696    0.4470    6.2755 C   0  0  0  0  0  0  0  0  0  0  0  0
    3.4409    0.1658    6.9627 C   0  0  0  0  0  0  0  0  0  0  0  0
    3.4973    0.9615    7.9733 O   0  0  0  0  0  0  0  0  0  0  0  0
    2.4777    1.7805    8.0667 C   0  0  0  0  0  0  0  0  0  0  0  0
    1.6643    1.4733    6.9826 C   0  0  0  0  0  0  0  0  0  0  0  0
    2.2429    2.8053    9.0967 C   0  0  0  0  0  0  0  0  0  0  0  0
    2.9760    2.9028   10.2227 N   0  0  0  0  0  0  0  0  0  0  0  0
    2.5562    3.9049   10.9797 N   0  0  0  0  0  0  0  0  0  0  0  0
    2.9727    4.3845   12.1792 C   0  0  0  0  0  0  0  0  0  0  0  0
    2.3458    5.4235   12.7004 N   0  0  0  0  0  0  0  0  0  0  0  0
    1.2874    6.0398   12.0778 C   0  0  0  0  0  0  0  0  0  0  0  0
    0.9099    5.5388   10.9026 N   0  0  0  0  0  0  0  0  0  0  0  0
    1.5392    4.4670   10.3418 C   0  0  0  0  0  0  0  0  0  0  0  0
    1.3439    3.7827    9.1706 N   0  0  0  0  0  0  0  0  0  0  0  0
    0.7424    7.1524   12.7563 N   0  0  0  0  0  0  0  0  0  0  0  0
    1.2112    7.6393   14.0226 C   0  0  0  0  0  0  0  0  0  0  0  0
    2.2293    8.7208   13.8990 C   0  0  0  0  0  0  0  0  0  0  0  0
    3.0868    8.7072   15.1254 C   0  0  0  0  0  0  0  0  0  0  0  0
    2.7981    7.9176   16.2308 C   0  0  0  0  0  0  0  0  0  0  0  0
    3.5869    7.9071   17.3651 C   0  0  0  0  0  0  0  0  0  0  0  0
    4.7254    8.7179   17.4137 C   0  0  0  0  0  0  0  0  0  0  0  0
    5.0254    9.5064   16.3276 C   0  0  0  0  0  0  0  0  0  0  0  0
    4.2128    9.5029   15.1915 C   0  0  0  0  0  0  0  0  0  0  0  0
    5.5323    8.7071   18.5632 O   0  0  0  0  0  0  0  0  0  0  0  0
    4.0619    3.7114   12.7925 N   0  0  0  0  0  0  0  0  0  0  0  0
  1  2  2  0
  2  3  1  0
  3  4  1  0
  4  5  2  0
  4  6  1  0
  6  7  2  0
  7  8  1  0
  8  9  1  0
  9 10  2  0
 10 11  1  0
 11 12  2  0
 12 13  1  0
 13 14  2  0
 11 15  1  0
 15 16  1  0
 16 17  1  0
 17 18  1  0
 18 19  2  0
 19 20  1  0
 20 21  2  0
 21 22  1  0
 22 23  2  0
 21 24  1  0
  9 25  1  0
  5  1  1  0
 14  6  1  0
 13  8  1  0
 23 18  1  0
M  END
$$$$
