
     RDKit          3D

 25 28  0  0  0  0  0  0  0  0999 V2000
    1.7172    0.2333    6.7098 C   0  0  0  0  0  0  0  0  0  0  0  0
    2.9653    0.0064    7.2702 C   0  0  0  0  0  0  0  0  0  0  0  0
    3.1561    0.9087    8.1686 O   0  0  0  0  0  0  0  0  0  0  0  0
    2.1621    1.7541    8.2970 C   0  0  0  0  0  0  0  0  0  0  0  0
    1.2143    1.3445    7.3668 C   0  0  0  0  0  0  0  0  0  0  0  0
    2.0680    2.8922    9.2254 C   0  0  0  0  0  0  0  0  0  0  0  0
    2.9105    3.0726   10.2611 N   0  0  0  0  0  0  0  0  0  0  0  0
    2.6050    4.1683   10.9390 N   0  0  0  0  0  0  0  0  0  0  0  0
    3.1543    4.7513   12.0347 C   0  0  0  0  0  0  0  0  0  0  0  0
    2.6213    5.8688   12.4944 N   0  0  0  0  0  0  0  0  0  0  0  0
    1.5316    6.4664   11.9085 C   0  0  0  0  0  0  0  0  0  0  0  0
    1.0226    5.8628   10.8356 N   0  0  0  0  0  0  0  0  0  0  0  0
    1.5529    4.7084   10.3401 C   0  0  0  0  0  0  0  0  0  0  0  0
    1.2185    3.9144    9.2744 N   0  0  0  0  0  0  0  0  0  0  0  0
    1.0981    7.6696   12.5081 N   0  0  0  0  0  0  0  0  0  0  0  0
    1.7397    8.2933   13.6305 C   0  0  0  0  0  0  0  0  0  0  0  0
    1.3984    7.6569   14.9343 C   0  0  0  0  0  0  0  0  0  0  0  0
    2.4207    8.0706   15.9460 C   0  0  0  0  0  0  0  0  0  0  0  0
    2.8927    9.3731   16.0422 C   0  0  0  0  0  0  0  0  0  0  0  0
    3.8394    9.7554   16.9732 C   0  0  0  0  0  0  0  0  0  0  0  0
    4.3488    8.8025   17.8612 C   0  0  0  0  0  0  0  0  0  0  0  0
    3.8923    7.5079   17.7790 C   0  0  0  0  0  0  0  0  0  0  0  0
    2.9361    7.1428   16.8286 C   0  0  0  0  0  0  0  0  0  0  0  0
    5.3080    9.1878   18.8119 O   0  0  0  0  0  0  0  0  0  0  0  0
    4.2715    4.0948   12.6147 N   0  0  0  0  0  0  0  0  0  0  0  0
  1  2  2  0
  2  3  1  0
  3  4  1  0
  4  5  2  0
  4  6  1  0
  6  7  2  0
  7  8  1  0
  8  9  1  0
  9 10  2  0
 10 11  1  0
 11 12  2  0
 12 13  1  0
 13 14  2  0
 11 15  1  0
 15 16  1  0
 16 17  1  0
 17 18  1  0
 18 19  2  0
 19 20  1  0
 20 21  2  0
 21 22  1  0
 22 23  2  0
 21 24  1  0
  9 25  1  0
  5  1  1  0
 14  6  1  0
 13  8  1  0
 23 18  1  0
M  END
$$$$
