
     RDKit          3D

 25 28  0  0  0  0  0  0  0  0999 V2000
    1.6751    0.2123    6.7826 C   0  0  0  0  0  0  0  0  0  0  0  0
    2.9232   -0.0170    7.3419 C   0  0  0  0  0  0  0  0  0  0  0  0
    3.1281    0.9012    8.2209 O   0  0  0  0  0  0  0  0  0  0  0  0
    2.1441    1.7600    8.3364 C   0  0  0  0  0  0  0  0  0  0  0  0
    1.1875    1.3422    7.4190 C   0  0  0  0  0  0  0  0  0  0  0  0
    2.0668    2.9178    9.2418 C   0  0  0  0  0  0  0  0  0  0  0  0
    2.9195    3.1128   10.2665 N   0  0  0  0  0  0  0  0  0  0  0  0
    2.6284    4.2246   10.9241 N   0  0  0  0  0  0  0  0  0  0  0  0
    3.1915    4.8257   12.0029 C   0  0  0  0  0  0  0  0  0  0  0  0
    2.6712    5.9567   12.4438 N   0  0  0  0  0  0  0  0  0  0  0  0
    1.5813    6.5508   11.8548 C   0  0  0  0  0  0  0  0  0  0  0  0
    1.0585    5.9293   10.7989 N   0  0  0  0  0  0  0  0  0  0  0  0
    1.5755    4.7607   10.3229 C   0  0  0  0  0  0  0  0  0  0  0  0
    1.2258    3.9476    9.2768 N   0  0  0  0  0  0  0  0  0  0  0  0
    1.1625    7.7696   12.4330 N   0  0  0  0  0  0  0  0  0  0  0  0
    1.7765    8.3763   13.5799 C   0  0  0  0  0  0  0  0  0  0  0  0
    1.4102    7.7154   14.8645 C   0  0  0  0  0  0  0  0  0  0  0  0
    2.4417    8.0674   15.8900 C   0  0  0  0  0  0  0  0  0  0  0  0
    2.7028    9.3779   16.2684 C   0  0  0  0  0  0  0  0  0  0  0  0
    3.6576    9.7044   17.2122 C   0  0  0  0  0  0  0  0  0  0  0  0
    4.3959    8.6835   17.8195 C   0  0  0  0  0  0  0  0  0  0  0  0
    4.1500    7.3803   17.4557 C   0  0  0  0  0  0  0  0  0  0  0  0
    3.1812    7.0729   16.4977 C   0  0  0  0  0  0  0  0  0  0  0  0
    5.3644    9.0108   18.7825 O   0  0  0  0  0  0  0  0  0  0  0  0
    4.3085    4.1724   12.5870 N   0  0  0  0  0  0  0  0  0  0  0  0
  1  2  2  0
  2  3  1  0
  3  4  1  0
  4  5  2  0
  4  6  1  0
  6  7  2  0
  7  8  1  0
  8  9  1  0
  9 10  2  0
 10 11  1  0
 11 12  2  0
 12 13  1  0
 13 14  2  0
 11 15  1  0
 15 16  1  0
 16 17  1  0
 17 18  1  0
 18 19  2  0
 19 20  1  0
 20 21  2  0
 21 22  1  0
 22 23  2  0
 21 24  1  0
  9 25  1  0
  5  1  1  0
 14  6  1  0
 13  8  1  0
 23 18  1  0
M  END
$$$$
