
     RDKit          3D

 25 28  0  0  0  0  0  0  0  0999 V2000
    2.9521    0.2478    6.5346 C   0  0  0  0  0  0  0  0  0  0  0  0
    1.7545    0.7380    6.0360 C   0  0  0  0  0  0  0  0  0  0  0  0
    1.3683    1.6850    6.8181 O   0  0  0  0  0  0  0  0  0  0  0  0
    2.1781    1.9115    7.8241 C   0  0  0  0  0  0  0  0  0  0  0  0
    3.2138    0.9977    7.6698 C   0  0  0  0  0  0  0  0  0  0  0  0
    2.0255    2.9162    8.8887 C   0  0  0  0  0  0  0  0  0  0  0  0
    2.7535    2.9084   10.0221 N   0  0  0  0  0  0  0  0  0  0  0  0
    2.4172    3.9167   10.8119 N   0  0  0  0  0  0  0  0  0  0  0  0
    2.8632    4.3149   12.0304 C   0  0  0  0  0  0  0  0  0  0  0  0
    2.3262    5.3866   12.5845 N   0  0  0  0  0  0  0  0  0  0  0  0
    1.3327    6.1164   11.9776 C   0  0  0  0  0  0  0  0  0  0  0  0
    0.9234    5.6926   10.7828 N   0  0  0  0  0  0  0  0  0  0  0  0
    1.4604    4.5893   10.1880 C   0  0  0  0  0  0  0  0  0  0  0  0
    1.2162    3.9667    8.9918 N   0  0  0  0  0  0  0  0  0  0  0  0
    0.8823    7.2486   12.6920 N   0  0  0  0  0  0  0  0  0  0  0  0
    1.4590    7.7139   13.9213 C   0  0  0  0  0  0  0  0  0  0  0  0
    2.8534    8.2170   13.7662 C   0  0  0  0  0  0  0  0  0  0  0  0
    3.4887    8.2786   15.1198 C   0  0  0  0  0  0  0  0  0  0  0  0
    2.8066    7.9420   16.2817 C   0  0  0  0  0  0  0  0  0  0  0  0
    3.3909    8.0022   17.5323 C   0  0  0  0  0  0  0  0  0  0  0  0
    4.7224    8.4151   17.6458 C   0  0  0  0  0  0  0  0  0  0  0  0
    5.4120    8.7525   16.5048 C   0  0  0  0  0  0  0  0  0  0  0  0
    4.8010    8.6861   15.2505 C   0  0  0  0  0  0  0  0  0  0  0  0
    5.3214    8.4737   18.9147 O   0  0  0  0  0  0  0  0  0  0  0  0
    3.8824    3.5262   12.6261 N   0  0  0  0  0  0  0  0  0  0  0  0
  1  2  2  0
  2  3  1  0
  3  4  1  0
  4  5  2  0
  4  6  1  0
  6  7  2  0
  7  8  1  0
  8  9  1  0
  9 10  2  0
 10 11  1  0
 11 12  2  0
 12 13  1  0
 13 14  2  0
 11 15  1  0
 15 16  1  0
 16 17  1  0
 17 18  1  0
 18 19  2  0
 19 20  1  0
 20 21  2  0
 21 22  1  0
 22 23  2  0
 21 24  1  0
  9 25  1  0
  5  1  1  0
 14  6  1  0
 13  8  1  0
 23 18  1  0
M  END
$$$$
