
     RDKit          3D

 25 28  0  0  0  0  0  0  0  0999 V2000
    2.0373    0.3122    6.3952 C   0  0  0  0  0  0  0  0  0  0  0  0
    3.2077    0.0320    7.0844 C   0  0  0  0  0  0  0  0  0  0  0  0
    3.2837    0.8572    8.0698 O   0  0  0  0  0  0  0  0  0  0  0  0
    2.2789    1.6963    8.1433 C   0  0  0  0  0  0  0  0  0  0  0  0
    1.4540    1.3701    7.0735 C   0  0  0  0  0  0  0  0  0  0  0  0
    2.0678    2.7561    9.1425 C   0  0  0  0  0  0  0  0  0  0  0  0
    2.7807    2.8504   10.2817 N   0  0  0  0  0  0  0  0  0  0  0  0
    2.3895    3.8886   11.0045 N   0  0  0  0  0  0  0  0  0  0  0  0
    2.8015    4.3800   12.2008 C   0  0  0  0  0  0  0  0  0  0  0  0
    2.2100    5.4581   12.6825 N   0  0  0  0  0  0  0  0  0  0  0  0
    1.1930    6.1038   12.0218 C   0  0  0  0  0  0  0  0  0  0  0  0
    0.8185    5.5899   10.8511 N   0  0  0  0  0  0  0  0  0  0  0  0
    1.4118    4.4779   10.3307 C   0  0  0  0  0  0  0  0  0  0  0  0
    1.2112    3.7732    9.1726 N   0  0  0  0  0  0  0  0  0  0  0  0
    0.6832    7.2558   12.6606 N   0  0  0  0  0  0  0  0  0  0  0  0
    1.1658    7.7703   13.9107 C   0  0  0  0  0  0  0  0  0  0  0  0
    2.4126    8.5757   13.7759 C   0  0  0  0  0  0  0  0  0  0  0  0
    3.1465    8.5355   15.0795 C   0  0  0  0  0  0  0  0  0  0  0  0
    4.3901    7.9332   15.2189 C   0  0  0  0  0  0  0  0  0  0  0  0
    5.0669    7.8921   16.4228 C   0  0  0  0  0  0  0  0  0  0  0  0
    4.4882    8.4786   17.5529 C   0  0  0  0  0  0  0  0  0  0  0  0
    3.2569    9.0789   17.4320 C   0  0  0  0  0  0  0  0  0  0  0  0
    2.5893    9.1072   16.2054 C   0  0  0  0  0  0  0  0  0  0  0  0
    5.1748    8.4427   18.7776 O   0  0  0  0  0  0  0  0  0  0  0  0
    3.8470    3.6761   12.8542 N   0  0  0  0  0  0  0  0  0  0  0  0
  1  2  2  0
  2  3  1  0
  3  4  1  0
  4  5  2  0
  4  6  1  0
  6  7  2  0
  7  8  1  0
  8  9  1  0
  9 10  2  0
 10 11  1  0
 11 12  2  0
 12 13  1  0
 13 14  2  0
 11 15  1  0
 15 16  1  0
 16 17  1  0
 17 18  1  0
 18 19  2  0
 19 20  1  0
 20 21  2  0
 21 22  1  0
 22 23  2  0
 21 24  1  0
  9 25  1  0
  5  1  1  0
 14  6  1  0
 13  8  1  0
 23 18  1  0
M  END
$$$$
