
     RDKit          3D

 25 28  0  0  0  0  0  0  0  0999 V2000
    2.4347    0.3101    6.5485 C   0  0  0  0  0  0  0  0  0  0  0  0
    1.4603    1.0552    5.9014 C   0  0  0  0  0  0  0  0  0  0  0  0
    1.2185    2.0904    6.6278 O   0  0  0  0  0  0  0  0  0  0  0  0
    1.9281    2.1487    7.7288 C   0  0  0  0  0  0  0  0  0  0  0  0
    2.7258    1.0109    7.7077 C   0  0  0  0  0  0  0  0  0  0  0  0
    1.8901    3.1930    8.7651 C   0  0  0  0  0  0  0  0  0  0  0  0
    2.6661    3.1702    9.8660 N   0  0  0  0  0  0  0  0  0  0  0  0
    2.4329    4.2222   10.6357 N   0  0  0  0  0  0  0  0  0  0  0  0
    2.9584    4.6258   11.8203 C   0  0  0  0  0  0  0  0  0  0  0  0
    2.5187    5.7475   12.3612 N   0  0  0  0  0  0  0  0  0  0  0  0
    1.5494    6.5240   11.7736 C   0  0  0  0  0  0  0  0  0  0  0  0
    1.0598    6.0931   10.6120 N   0  0  0  0  0  0  0  0  0  0  0  0
    1.4955    4.9387   10.0315 C   0  0  0  0  0  0  0  0  0  0  0  0
    1.1574    4.2983    8.8680 N   0  0  0  0  0  0  0  0  0  0  0  0
    1.2072    7.7050   12.4688 N   0  0  0  0  0  0  0  0  0  0  0  0
    1.7920    8.1103   13.7154 C   0  0  0  0  0  0  0  0  0  0  0  0
    3.0210    7.3443   14.0678 C   0  0  0  0  0  0  0  0  0  0  0  0
    3.5492    7.8667   15.3669 C   0  0  0  0  0  0  0  0  0  0  0  0
    2.9053    7.6480   16.5778 C   0  0  0  0  0  0  0  0  0  0  0  0
    3.3900    8.1331   17.7773 C   0  0  0  0  0  0  0  0  0  0  0  0
    4.5765    8.8735   17.7861 C   0  0  0  0  0  0  0  0  0  0  0  0
    5.2264    9.0995   16.5954 C   0  0  0  0  0  0  0  0  0  0  0  0
    4.7175    8.6013   15.3939 C   0  0  0  0  0  0  0  0  0  0  0  0
    5.0748    9.3647   19.0038 O   0  0  0  0  0  0  0  0  0  0  0  0
    3.9490    3.7885   12.3976 N   0  0  0  0  0  0  0  0  0  0  0  0
  1  2  2  0
  2  3  1  0
  3  4  1  0
  4  5  2  0
  4  6  1  0
  6  7  2  0
  7  8  1  0
  8  9  1  0
  9 10  2  0
 10 11  1  0
 11 12  2  0
 12 13  1  0
 13 14  2  0
 11 15  1  0
 15 16  1  0
 16 17  1  0
 17 18  1  0
 18 19  2  0
 19 20  1  0
 20 21  2  0
 21 22  1  0
 22 23  2  0
 21 24  1  0
  9 25  1  0
  5  1  1  0
 14  6  1  0
 13  8  1  0
 23 18  1  0
M  END
$$$$
