
     RDKit          3D

 25 28  0  0  0  0  0  0  0  0999 V2000
    1.1387    0.3877    6.6336 C   0  0  0  0  0  0  0  0  0  0  0  0
    2.3088   -0.0238    7.2539 C   0  0  0  0  0  0  0  0  0  0  0  0
    2.5858    0.8385    8.1689 O   0  0  0  0  0  0  0  0  0  0  0  0
    1.7237    1.8226    8.2549 C   0  0  0  0  0  0  0  0  0  0  0  0
    0.7741    1.5606    7.2746 C   0  0  0  0  0  0  0  0  0  0  0  0
    1.7530    2.9606    9.1877 C   0  0  0  0  0  0  0  0  0  0  0  0
    2.6287    3.0585   10.2067 N   0  0  0  0  0  0  0  0  0  0  0  0
    2.4387    4.1748   10.8932 N   0  0  0  0  0  0  0  0  0  0  0  0
    3.0608    4.7002   11.9791 C   0  0  0  0  0  0  0  0  0  0  0  0
    2.6419    5.8600   12.4520 N   0  0  0  0  0  0  0  0  0  0  0  0
    1.6005    6.5577   11.8896 C   0  0  0  0  0  0  0  0  0  0  0  0
    1.0170    6.0079   10.8256 N   0  0  0  0  0  0  0  0  0  0  0  0
    1.4291    4.8118   10.3168 C   0  0  0  0  0  0  0  0  0  0  0  0
    1.0021    4.0563    9.2562 N   0  0  0  0  0  0  0  0  0  0  0  0
    1.2914    7.7930   12.5007 N   0  0  0  0  0  0  0  0  0  0  0  0
    1.9135    8.2838   13.6975 C   0  0  0  0  0  0  0  0  0  0  0  0
    1.5346    7.5159   14.9175 C   0  0  0  0  0  0  0  0  0  0  0  0
    2.5183    7.8306   16.0005 C   0  0  0  0  0  0  0  0  0  0  0  0
    2.4153    8.9628   16.7981 C   0  0  0  0  0  0  0  0  0  0  0  0
    3.3250    9.2563   17.7957 C   0  0  0  0  0  0  0  0  0  0  0  0
    4.3956    8.3854   18.0227 C   0  0  0  0  0  0  0  0  0  0  0  0
    4.5125    7.2598   17.2413 C   0  0  0  0  0  0  0  0  0  0  0  0
    3.5822    6.9834   16.2368 C   0  0  0  0  0  0  0  0  0  0  0  0
    5.3202    8.6779   19.0386 O   0  0  0  0  0  0  0  0  0  0  0  0
    4.1242    3.9415   12.5350 N   0  0  0  0  0  0  0  0  0  0  0  0
  1  2  2  0
  2  3  1  0
  3  4  1  0
  4  5  2  0
  4  6  1  0
  6  7  2  0
  7  8  1  0
  8  9  1  0
  9 10  2  0
 10 11  1  0
 11 12  2  0
 12 13  1  0
 13 14  2  0
 11 15  1  0
 15 16  1  0
 16 17  1  0
 17 18  1  0
 18 19  2  0
 19 20  1  0
 20 21  2  0
 21 22  1  0
 22 23  2  0
 21 24  1  0
  9 25  1  0
  5  1  1  0
 14  6  1  0
 13  8  1  0
 23 18  1  0
M  END
$$$$
