
     RDKit          3D

 25 28  0  0  0  0  0  0  0  0999 V2000
    1.9991    0.5064    6.1138 C   0  0  0  0  0  0  0  0  0  0  0  0
    3.1591    0.1614    6.7910 C   0  0  0  0  0  0  0  0  0  0  0  0
    3.2415    0.9190    7.8287 O   0  0  0  0  0  0  0  0  0  0  0  0
    2.2505    1.7689    7.9504 C   0  0  0  0  0  0  0  0  0  0  0  0
    1.4285    1.5277    6.8560 C   0  0  0  0  0  0  0  0  0  0  0  0
    2.0497    2.7646    9.0153 C   0  0  0  0  0  0  0  0  0  0  0  0
    2.7999    2.8126   10.1333 N   0  0  0  0  0  0  0  0  0  0  0  0
    2.4100    3.7978   10.9274 N   0  0  0  0  0  0  0  0  0  0  0  0
    2.8521    4.2312   12.1353 C   0  0  0  0  0  0  0  0  0  0  0  0
    2.2525    5.2647   12.6979 N   0  0  0  0  0  0  0  0  0  0  0  0
    1.1977    5.9203   12.1102 C   0  0  0  0  0  0  0  0  0  0  0  0
    0.7945    5.4641   10.9253 N   0  0  0  0  0  0  0  0  0  0  0  0
    1.3953    4.3989   10.3221 C   0  0  0  0  0  0  0  0  0  0  0  0
    1.1708    3.7560    9.1329 N   0  0  0  0  0  0  0  0  0  0  0  0
    0.6836    7.0208   12.8311 N   0  0  0  0  0  0  0  0  0  0  0  0
    1.2362    7.5144   14.0605 C   0  0  0  0  0  0  0  0  0  0  0  0
    2.4502    8.3569   13.8660 C   0  0  0  0  0  0  0  0  0  0  0  0
    3.0684    8.6141   15.2044 C   0  0  0  0  0  0  0  0  0  0  0  0
    2.9681    9.8391   15.8511 C   0  0  0  0  0  0  0  0  0  0  0  0
    3.5417   10.0789   17.0850 C   0  0  0  0  0  0  0  0  0  0  0  0
    4.2524    9.0549   17.7194 C   0  0  0  0  0  0  0  0  0  0  0  0
    4.3615    7.8359   17.0922 C   0  0  0  0  0  0  0  0  0  0  0  0
    3.7752    7.6157   15.8437 C   0  0  0  0  0  0  0  0  0  0  0  0
    4.8334    9.2933   18.9756 O   0  0  0  0  0  0  0  0  0  0  0  0
    3.9364    3.5186   12.7114 N   0  0  0  0  0  0  0  0  0  0  0  0
  1  2  2  0
  2  3  1  0
  3  4  1  0
  4  5  2  0
  4  6  1  0
  6  7  2  0
  7  8  1  0
  8  9  1  0
  9 10  2  0
 10 11  1  0
 11 12  2  0
 12 13  1  0
 13 14  2  0
 11 15  1  0
 15 16  1  0
 16 17  1  0
 17 18  1  0
 18 19  2  0
 19 20  1  0
 20 21  2  0
 21 22  1  0
 22 23  2  0
 21 24  1  0
  9 25  1  0
  5  1  1  0
 14  6  1  0
 13  8  1  0
 23 18  1  0
M  END
$$$$
