
     RDKit          3D

 25 28  0  0  0  0  0  0  0  0999 V2000
    1.8607    0.6145    6.4385 C   0  0  0  0  0  0  0  0  0  0  0  0
    3.0898    0.3467    7.0225 C   0  0  0  0  0  0  0  0  0  0  0  0
    3.2668    1.2070    7.9638 O   0  0  0  0  0  0  0  0  0  0  0  0
    2.2803    2.0598    8.1014 C   0  0  0  0  0  0  0  0  0  0  0  0
    1.3537    1.7035    7.1289 C   0  0  0  0  0  0  0  0  0  0  0  0
    2.1747    3.1583    9.0751 C   0  0  0  0  0  0  0  0  0  0  0  0
    3.0145    3.3044   10.1183 N   0  0  0  0  0  0  0  0  0  0  0  0
    2.6981    4.3688   10.8398 N   0  0  0  0  0  0  0  0  0  0  0  0
    3.2409    4.9120   11.9589 C   0  0  0  0  0  0  0  0  0  0  0  0
    2.6970    6.0048   12.4629 N   0  0  0  0  0  0  0  0  0  0  0  0
    1.6023    6.6156   11.9004 C   0  0  0  0  0  0  0  0  0  0  0  0
    1.1000    6.0513   10.8032 N   0  0  0  0  0  0  0  0  0  0  0  0
    1.6416    4.9230   10.2619 C   0  0  0  0  0  0  0  0  0  0  0  0
    1.3156    4.1698    9.1645 N   0  0  0  0  0  0  0  0  0  0  0  0
    1.1571    7.7893   12.5478 N   0  0  0  0  0  0  0  0  0  0  0  0
    1.8569    8.4397   13.6190 C   0  0  0  0  0  0  0  0  0  0  0  0
    1.5119    7.8984   14.9642 C   0  0  0  0  0  0  0  0  0  0  0  0
    2.5183    8.4023   15.9506 C   0  0  0  0  0  0  0  0  0  0  0  0
    2.3096    9.5427   16.7151 C   0  0  0  0  0  0  0  0  0  0  0  0
    3.2396   10.0110   17.6233 C   0  0  0  0  0  0  0  0  0  0  0  0
    4.4422    9.3167   17.7901 C   0  0  0  0  0  0  0  0  0  0  0  0
    4.6649    8.1856   17.0402 C   0  0  0  0  0  0  0  0  0  0  0  0
    3.7115    7.7309   16.1263 C   0  0  0  0  0  0  0  0  0  0  0  0
    5.3884    9.7870   18.7152 O   0  0  0  0  0  0  0  0  0  0  0  0
    4.3637    4.2429   12.5133 N   0  0  0  0  0  0  0  0  0  0  0  0
  1  2  2  0
  2  3  1  0
  3  4  1  0
  4  5  2  0
  4  6  1  0
  6  7  2  0
  7  8  1  0
  8  9  1  0
  9 10  2  0
 10 11  1  0
 11 12  2  0
 12 13  1  0
 13 14  2  0
 11 15  1  0
 15 16  1  0
 16 17  1  0
 17 18  1  0
 18 19  2  0
 19 20  1  0
 20 21  2  0
 21 22  1  0
 22 23  2  0
 21 24  1  0
  9 25  1  0
  5  1  1  0
 14  6  1  0
 13  8  1  0
 23 18  1  0
M  END
$$$$
