
     RDKit          3D

 25 28  0  0  0  0  0  0  0  0999 V2000
    1.1025    1.0056    6.7100 C   0  0  0  0  0  0  0  0  0  0  0  0
    2.1790    0.3324    7.2678 C   0  0  0  0  0  0  0  0  0  0  0  0
    2.5788    1.0156    8.2832 O   0  0  0  0  0  0  0  0  0  0  0  0
    1.8884    2.1096    8.4970 C   0  0  0  0  0  0  0  0  0  0  0  0
    0.9248    2.1327    7.4958 C   0  0  0  0  0  0  0  0  0  0  0  0
    2.0888    3.1011    9.5661 C   0  0  0  0  0  0  0  0  0  0  0  0
    2.8613    2.8767   10.6467 N   0  0  0  0  0  0  0  0  0  0  0  0
    2.8679    3.9260   11.4543 N   0  0  0  0  0  0  0  0  0  0  0  0
    3.4867    4.1679   12.6379 C   0  0  0  0  0  0  0  0  0  0  0  0
    3.3024    5.3370   13.2240 N   0  0  0  0  0  0  0  0  0  0  0  0
    2.5085    6.3200   12.6845 C   0  0  0  0  0  0  0  0  0  0  0  0
    1.9194    6.0431   11.5222 N   0  0  0  0  0  0  0  0  0  0  0  0
    2.0923    4.8444   10.8955 C   0  0  0  0  0  0  0  0  0  0  0  0
    1.6071    4.3311    9.7212 N   0  0  0  0  0  0  0  0  0  0  0  0
    2.4345    7.5210   13.4244 N   0  0  0  0  0  0  0  0  0  0  0  0
    1.7015    8.6839   13.0114 C   0  0  0  0  0  0  0  0  0  0  0  0
    0.2737    8.3995   12.6924 C   0  0  0  0  0  0  0  0  0  0  0  0
   -0.3750    9.6719   12.2455 C   0  0  0  0  0  0  0  0  0  0  0  0
    0.2741   10.8987   12.2930 C   0  0  0  0  0  0  0  0  0  0  0  0
   -0.3251   12.0747   11.8843 C   0  0  0  0  0  0  0  0  0  0  0  0
   -1.6366   12.0413   11.3994 C   0  0  0  0  0  0  0  0  0  0  0  0
   -2.2938   10.8345   11.3462 C   0  0  0  0  0  0  0  0  0  0  0  0
   -1.6695    9.6578   11.7664 C   0  0  0  0  0  0  0  0  0  0  0  0
   -2.2479   13.2338   10.9790 O   0  0  0  0  0  0  0  0  0  0  0  0
    4.2884    3.1213   13.1647 N   0  0  0  0  0  0  0  0  0  0  0  0
  1  2  2  0
  2  3  1  0
  3  4  1  0
  4  5  2  0
  4  6  1  0
  6  7  2  0
  7  8  1  0
  8  9  1  0
  9 10  2  0
 10 11  1  0
 11 12  2  0
 12 13  1  0
 13 14  2  0
 11 15  1  0
 15 16  1  0
 16 17  1  0
 17 18  1  0
 18 19  2  0
 19 20  1  0
 20 21  2  0
 21 22  1  0
 22 23  2  0
 21 24  1  0
  9 25  1  0
  5  1  1  0
 14  6  1  0
 13  8  1  0
 23 18  1  0
M  END
$$$$
