
     RDKit          3D

 25 28  0  0  0  0  0  0  0  0999 V2000
    1.8702    0.8504    5.8105 C   0  0  0  0  0  0  0  0  0  0  0  0
    0.8614    1.7744    5.5828 C   0  0  0  0  0  0  0  0  0  0  0  0
    0.8479    2.5868    6.5815 O   0  0  0  0  0  0  0  0  0  0  0  0
    1.7507    2.3254    7.4958 C   0  0  0  0  0  0  0  0  0  0  0  0
    2.4295    1.2070    7.0269 C   0  0  0  0  0  0  0  0  0  0  0  0
    1.9947    3.0571    8.7492 C   0  0  0  0  0  0  0  0  0  0  0  0
    1.2239    4.0784    9.1707 N   0  0  0  0  0  0  0  0  0  0  0  0
    1.6621    4.5627   10.3226 N   0  0  0  0  0  0  0  0  0  0  0  0
    1.2229    5.5694   11.1202 C   0  0  0  0  0  0  0  0  0  0  0  0
    1.8788    5.8273   12.2371 N   0  0  0  0  0  0  0  0  0  0  0  0
    2.9893    5.1177   12.6257 C   0  0  0  0  0  0  0  0  0  0  0  0
    3.3876    4.1381   11.8154 N   0  0  0  0  0  0  0  0  0  0  0  0
    2.7292    3.8507   10.6564 C   0  0  0  0  0  0  0  0  0  0  0  0
    2.9366    2.9144    9.6774 N   0  0  0  0  0  0  0  0  0  0  0  0
    3.5609    5.5034   13.8584 N   0  0  0  0  0  0  0  0  0  0  0  0
    3.1130    6.6160   14.6470 C   0  0  0  0  0  0  0  0  0  0  0  0
    3.8196    7.8888   14.3273 C   0  0  0  0  0  0  0  0  0  0  0  0
    3.7536    8.7820   15.5263 C   0  0  0  0  0  0  0  0  0  0  0  0
    4.8320    8.9658   16.3817 C   0  0  0  0  0  0  0  0  0  0  0  0
    4.7711    9.7872   17.4911 C   0  0  0  0  0  0  0  0  0  0  0  0
    3.5823   10.4677   17.7736 C   0  0  0  0  0  0  0  0  0  0  0  0
    2.5046   10.2963   16.9366 C   0  0  0  0  0  0  0  0  0  0  0  0
    2.5877    9.4594   15.8214 C   0  0  0  0  0  0  0  0  0  0  0  0
    3.5174   11.3069   18.8978 O   0  0  0  0  0  0  0  0  0  0  0  0
    0.0793    6.2835   10.6756 N   0  0  0  0  0  0  0  0  0  0  0  0
  1  2  2  0
  2  3  1  0
  3  4  1  0
  4  5  2  0
  4  6  1  0
  6  7  2  0
  7  8  1  0
  8  9  1  0
  9 10  2  0
 10 11  1  0
 11 12  2  0
 12 13  1  0
 13 14  2  0
 11 15  1  0
 15 16  1  0
 16 17  1  0
 17 18  1  0
 18 19  2  0
 19 20  1  0
 20 21  2  0
 21 22  1  0
 22 23  2  0
 21 24  1  0
  9 25  1  0
  5  1  1  0
 14  6  1  0
 13  8  1  0
 23 18  1  0
M  END
$$$$
