
     RDKit          3D

 25 28  0  0  0  0  0  0  0  0999 V2000
    1.7709    0.3762    6.2945 C   0  0  0  0  0  0  0  0  0  0  0  0
    2.9400    0.0292    6.9548 C   0  0  0  0  0  0  0  0  0  0  0  0
    3.0672    0.8235    7.9600 O   0  0  0  0  0  0  0  0  0  0  0  0
    2.0999    1.7012    8.0739 C   0  0  0  0  0  0  0  0  0  0  0  0
    1.2439    1.4385    7.0110 C   0  0  0  0  0  0  0  0  0  0  0  0
    1.9503    2.7413    9.1043 C   0  0  0  0  0  0  0  0  0  0  0  0
    2.7021    2.7885   10.2212 N   0  0  0  0  0  0  0  0  0  0  0  0
    2.3631    3.8187   10.9810 N   0  0  0  0  0  0  0  0  0  0  0  0
    2.8269    4.2694   12.1744 C   0  0  0  0  0  0  0  0  0  0  0  0
    2.2811    5.3507   12.7007 N   0  0  0  0  0  0  0  0  0  0  0  0
    1.2612    6.0392   12.0895 C   0  0  0  0  0  0  0  0  0  0  0  0
    0.8351    5.5645   10.9201 N   0  0  0  0  0  0  0  0  0  0  0  0
    1.3806    4.4502   10.3541 C   0  0  0  0  0  0  0  0  0  0  0  0
    1.1233    3.7798    9.1869 N   0  0  0  0  0  0  0  0  0  0  0  0
    0.8042    7.1883   12.7720 N   0  0  0  0  0  0  0  0  0  0  0  0
    1.3279    7.6479   14.0270 C   0  0  0  0  0  0  0  0  0  0  0  0
    2.6362    8.3503   13.8991 C   0  0  0  0  0  0  0  0  0  0  0  0
    3.1935    8.5684   15.2708 C   0  0  0  0  0  0  0  0  0  0  0  0
    2.9735    9.7359   15.9901 C   0  0  0  0  0  0  0  0  0  0  0  0
    3.4906    9.9400   17.2550 C   0  0  0  0  0  0  0  0  0  0  0  0
    4.2664    8.9377   17.8464 C   0  0  0  0  0  0  0  0  0  0  0  0
    4.4942    7.7756   17.1473 C   0  0  0  0  0  0  0  0  0  0  0  0
    3.9632    7.5910   15.8687 C   0  0  0  0  0  0  0  0  0  0  0  0
    4.7904    9.1395   19.1337 O   0  0  0  0  0  0  0  0  0  0  0  0
    3.8734    3.5221   12.7760 N   0  0  0  0  0  0  0  0  0  0  0  0
  1  2  2  0
  2  3  1  0
  3  4  1  0
  4  5  2  0
  4  6  1  0
  6  7  2  0
  7  8  1  0
  8  9  1  0
  9 10  2  0
 10 11  1  0
 11 12  2  0
 12 13  1  0
 13 14  2  0
 11 15  1  0
 15 16  1  0
 16 17  1  0
 17 18  1  0
 18 19  2  0
 19 20  1  0
 20 21  2  0
 21 22  1  0
 22 23  2  0
 21 24  1  0
  9 25  1  0
  5  1  1  0
 14  6  1  0
 13  8  1  0
 23 18  1  0
M  END
$$$$
