
     RDKit          3D

 25 28  0  0  0  0  0  0  0  0999 V2000
    1.6506    0.7106    6.4427 C   0  0  0  0  0  0  0  0  0  0  0  0
    2.8741    0.3840    7.0079 C   0  0  0  0  0  0  0  0  0  0  0  0
    3.0815    1.2010    7.9810 O   0  0  0  0  0  0  0  0  0  0  0  0
    2.1216    2.0763    8.1582 C   0  0  0  0  0  0  0  0  0  0  0  0
    1.1797    1.7861    7.1784 C   0  0  0  0  0  0  0  0  0  0  0  0
    2.0537    3.1383    9.1749 C   0  0  0  0  0  0  0  0  0  0  0  0
    2.9215    3.2359   10.2007 N   0  0  0  0  0  0  0  0  0  0  0  0
    2.6361    4.2755   10.9695 N   0  0  0  0  0  0  0  0  0  0  0  0
    3.2137    4.7702   12.0938 C   0  0  0  0  0  0  0  0  0  0  0  0
    2.6956    5.8489   12.6524 N   0  0  0  0  0  0  0  0  0  0  0  0
    1.5941    6.4922   12.1418 C   0  0  0  0  0  0  0  0  0  0  0  0
    1.0573    5.9753   11.0376 N   0  0  0  0  0  0  0  0  0  0  0  0
    1.5717    4.8625   10.4405 C   0  0  0  0  0  0  0  0  0  0  0  0
    1.2090    4.1548    9.3244 N   0  0  0  0  0  0  0  0  0  0  0  0
    1.1793    7.6453   12.8441 N   0  0  0  0  0  0  0  0  0  0  0  0
    2.0081    8.3811   13.7564 C   0  0  0  0  0  0  0  0  0  0  0  0
    2.4134    7.5918   14.9539 C   0  0  0  0  0  0  0  0  0  0  0  0
    2.8073    8.5444   16.0387 C   0  0  0  0  0  0  0  0  0  0  0  0
    2.3087    9.8383   16.1148 C   0  0  0  0  0  0  0  0  0  0  0  0
    2.6747   10.7200   17.1137 C   0  0  0  0  0  0  0  0  0  0  0  0
    3.5810   10.3042   18.0944 C   0  0  0  0  0  0  0  0  0  0  0  0
    4.0846    9.0260   18.0334 C   0  0  0  0  0  0  0  0  0  0  0  0
    3.7023    8.1516   17.0134 C   0  0  0  0  0  0  0  0  0  0  0  0
    3.9523   11.1958   19.1140 O   0  0  0  0  0  0  0  0  0  0  0  0
    4.3424    4.0687   12.5933 N   0  0  0  0  0  0  0  0  0  0  0  0
  1  2  2  0
  2  3  1  0
  3  4  1  0
  4  5  2  0
  4  6  1  0
  6  7  2  0
  7  8  1  0
  8  9  1  0
  9 10  2  0
 10 11  1  0
 11 12  2  0
 12 13  1  0
 13 14  2  0
 11 15  1  0
 15 16  1  0
 16 17  1  0
 17 18  1  0
 18 19  2  0
 19 20  1  0
 20 21  2  0
 21 22  1  0
 22 23  2  0
 21 24  1  0
  9 25  1  0
  5  1  1  0
 14  6  1  0
 13  8  1  0
 23 18  1  0
M  END
$$$$
