
     RDKit          3D

 25 28  0  0  0  0  0  0  0  0999 V2000
    1.9679    0.5446    6.2883 C   0  0  0  0  0  0  0  0  0  0  0  0
    3.1767    0.2533    6.9024 C   0  0  0  0  0  0  0  0  0  0  0  0
    3.3130    1.0642    7.8931 O   0  0  0  0  0  0  0  0  0  0  0  0
    2.3159    1.9033    8.0384 C   0  0  0  0  0  0  0  0  0  0  0  0
    1.4281    1.5933    7.0152 C   0  0  0  0  0  0  0  0  0  0  0  0
    2.1668    2.9488    9.0634 C   0  0  0  0  0  0  0  0  0  0  0  0
    2.9132    2.9971   10.1839 N   0  0  0  0  0  0  0  0  0  0  0  0
    2.5760    4.0325   10.9373 N   0  0  0  0  0  0  0  0  0  0  0  0
    3.0361    4.4862   12.1309 C   0  0  0  0  0  0  0  0  0  0  0  0
    2.4935    5.5727   12.6496 N   0  0  0  0  0  0  0  0  0  0  0  0
    1.4805    6.2639   12.0301 C   0  0  0  0  0  0  0  0  0  0  0  0
    1.0577    5.7861   10.8607 N   0  0  0  0  0  0  0  0  0  0  0  0
    1.6000    4.6664   10.3025 C   0  0  0  0  0  0  0  0  0  0  0  0
    1.3450    3.9921    9.1371 N   0  0  0  0  0  0  0  0  0  0  0  0
    1.0262    7.4185   12.7051 N   0  0  0  0  0  0  0  0  0  0  0  0
    1.4379    7.8002   14.0262 C   0  0  0  0  0  0  0  0  0  0  0  0
    2.7097    8.5770   14.0469 C   0  0  0  0  0  0  0  0  0  0  0  0
    3.0419    8.9053   15.4688 C   0  0  0  0  0  0  0  0  0  0  0  0
    3.5563    7.9654   16.3524 C   0  0  0  0  0  0  0  0  0  0  0  0
    3.8597    8.2663   17.6663 C   0  0  0  0  0  0  0  0  0  0  0  0
    3.6468    9.5660   18.1369 C   0  0  0  0  0  0  0  0  0  0  0  0
    3.1374   10.5087   17.2748 C   0  0  0  0  0  0  0  0  0  0  0  0
    2.8359   10.1822   15.9506 C   0  0  0  0  0  0  0  0  0  0  0  0
    3.9578    9.8771   19.4706 O   0  0  0  0  0  0  0  0  0  0  0  0
    4.0756    3.7360   12.7412 N   0  0  0  0  0  0  0  0  0  0  0  0
  1  2  2  0
  2  3  1  0
  3  4  1  0
  4  5  2  0
  4  6  1  0
  6  7  2  0
  7  8  1  0
  8  9  1  0
  9 10  2  0
 10 11  1  0
 11 12  2  0
 12 13  1  0
 13 14  2  0
 11 15  1  0
 15 16  1  0
 16 17  1  0
 17 18  1  0
 18 19  2  0
 19 20  1  0
 20 21  2  0
 21 22  1  0
 22 23  2  0
 21 24  1  0
  9 25  1  0
  5  1  1  0
 14  6  1  0
 13  8  1  0
 23 18  1  0
M  END
$$$$
