
     RDKit          3D

 25 28  0  0  0  0  0  0  0  0999 V2000
    1.2869    1.1135    6.4538 C   0  0  0  0  0  0  0  0  0  0  0  0
    2.4743    0.5449    6.8897 C   0  0  0  0  0  0  0  0  0  0  0  0
    2.8996    1.2485    7.8805 O   0  0  0  0  0  0  0  0  0  0  0  0
    2.1269    2.2624    8.1870 C   0  0  0  0  0  0  0  0  0  0  0  0
    1.0737    2.2033    7.2822 C   0  0  0  0  0  0  0  0  0  0  0  0
    2.3290    3.2514    9.2581 C   0  0  0  0  0  0  0  0  0  0  0  0
    3.2050    3.0794   10.2670 N   0  0  0  0  0  0  0  0  0  0  0  0
    3.1882    4.1129   11.0946 N   0  0  0  0  0  0  0  0  0  0  0  0
    3.8799    4.3903   12.2290 C   0  0  0  0  0  0  0  0  0  0  0  0
    3.6447    5.5296   12.8541 N   0  0  0  0  0  0  0  0  0  0  0  0
    2.7269    6.4472   12.4030 C   0  0  0  0  0  0  0  0  0  0  0  0
    2.0695    6.1373   11.2866 N   0  0  0  0  0  0  0  0  0  0  0  0
    2.2925    4.9680   10.6214 C   0  0  0  0  0  0  0  0  0  0  0  0
    1.7576    4.4319    9.4793 N   0  0  0  0  0  0  0  0  0  0  0  0
    2.6113    7.6257   13.1730 N   0  0  0  0  0  0  0  0  0  0  0  0
    1.7180    8.7077   12.8704 C   0  0  0  0  0  0  0  0  0  0  0  0
    0.5244    8.7548   13.7617 C   0  0  0  0  0  0  0  0  0  0  0  0
    0.4575   10.1098   14.3936 C   0  0  0  0  0  0  0  0  0  0  0  0
    0.3682   10.2901   15.7677 C   0  0  0  0  0  0  0  0  0  0  0  0
    0.3025   11.5405   16.3520 C   0  0  0  0  0  0  0  0  0  0  0  0
    0.3283   12.6777   15.5383 C   0  0  0  0  0  0  0  0  0  0  0  0
    0.4160   12.5165   14.1754 C   0  0  0  0  0  0  0  0  0  0  0  0
    0.4794   11.2428   13.6056 C   0  0  0  0  0  0  0  0  0  0  0  0
    0.2660   13.9506   16.1284 O   0  0  0  0  0  0  0  0  0  0  0  0
    4.8099    3.4103   12.6654 N   0  0  0  0  0  0  0  0  0  0  0  0
  1  2  2  0
  2  3  1  0
  3  4  1  0
  4  5  2  0
  4  6  1  0
  6  7  2  0
  7  8  1  0
  8  9  1  0
  9 10  2  0
 10 11  1  0
 11 12  2  0
 12 13  1  0
 13 14  2  0
 11 15  1  0
 15 16  1  0
 16 17  1  0
 17 18  1  0
 18 19  2  0
 19 20  1  0
 20 21  2  0
 21 22  1  0
 22 23  2  0
 21 24  1  0
  9 25  1  0
  5  1  1  0
 14  6  1  0
 13  8  1  0
 23 18  1  0
M  END
$$$$
