
     RDKit          3D

 25 28  0  0  0  0  0  0  0  0999 V2000
    0.6008    1.3116    6.8859 C   0  0  0  0  0  0  0  0  0  0  0  0
    1.8153    0.7088    7.1773 C   0  0  0  0  0  0  0  0  0  0  0  0
    2.4049    1.4341    8.0627 O   0  0  0  0  0  0  0  0  0  0  0  0
    1.7239    2.4943    8.4253 C   0  0  0  0  0  0  0  0  0  0  0  0
    0.5508    2.4444    7.6819 C   0  0  0  0  0  0  0  0  0  0  0  0
    2.1154    3.5179    9.4077 C   0  0  0  0  0  0  0  0  0  0  0  0
    3.0698    3.3225   10.3382 N   0  0  0  0  0  0  0  0  0  0  0  0
    3.2236    4.3971   11.0965 N   0  0  0  0  0  0  0  0  0  0  0  0
    4.0461    4.6722   12.1406 C   0  0  0  0  0  0  0  0  0  0  0  0
    3.9723    5.8607   12.7116 N   0  0  0  0  0  0  0  0  0  0  0  0
    3.0956    6.8319   12.2920 C   0  0  0  0  0  0  0  0  0  0  0  0
    2.3062    6.5223   11.2646 N   0  0  0  0  0  0  0  0  0  0  0  0
    2.3613    5.3029   10.6567 C   0  0  0  0  0  0  0  0  0  0  0  0
    1.6715    4.7559    9.6065 N   0  0  0  0  0  0  0  0  0  0  0  0
    3.1582    8.0564   12.9932 N   0  0  0  0  0  0  0  0  0  0  0  0
    2.0546    8.6445   13.6980 C   0  0  0  0  0  0  0  0  0  0  0  0
    2.0158    8.2812   15.1430 C   0  0  0  0  0  0  0  0  0  0  0  0
    0.9723    9.1178   15.8144 C   0  0  0  0  0  0  0  0  0  0  0  0
    0.6756    9.0001   17.1660 C   0  0  0  0  0  0  0  0  0  0  0  0
   -0.2903    9.7691   17.7862 C   0  0  0  0  0  0  0  0  0  0  0  0
   -1.0032   10.7085   17.0343 C   0  0  0  0  0  0  0  0  0  0  0  0
   -0.7220   10.8373   15.6944 C   0  0  0  0  0  0  0  0  0  0  0  0
    0.2575   10.0481   15.0872 C   0  0  0  0  0  0  0  0  0  0  0  0
   -1.9829   11.4952   17.6618 O   0  0  0  0  0  0  0  0  0  0  0  0
    4.9280    3.6370   12.5484 N   0  0  0  0  0  0  0  0  0  0  0  0
  1  2  2  0
  2  3  1  0
  3  4  1  0
  4  5  2  0
  4  6  1  0
  6  7  2  0
  7  8  1  0
  8  9  1  0
  9 10  2  0
 10 11  1  0
 11 12  2  0
 12 13  1  0
 13 14  2  0
 11 15  1  0
 15 16  1  0
 16 17  1  0
 17 18  1  0
 18 19  2  0
 19 20  1  0
 20 21  2  0
 21 22  1  0
 22 23  2  0
 21 24  1  0
  9 25  1  0
  5  1  1  0
 14  6  1  0
 13  8  1  0
 23 18  1  0
M  END
$$$$
