
     RDKit          3D

 25 28  0  0  0  0  0  0  0  0999 V2000
    4.7711    7.8237   15.2288 C   0  0  0  0  0  0  0  0  0  0  0  0
    5.5176    6.6900   14.9450 C   0  0  0  0  0  0  0  0  0  0  0  0
    4.8794    6.0205   14.0493 O   0  0  0  0  0  0  0  0  0  0  0  0
    3.7510    6.5717   13.6726 C   0  0  0  0  0  0  0  0  0  0  0  0
    3.6512    7.7409   14.4173 C   0  0  0  0  0  0  0  0  0  0  0  0
    2.7944    6.0639   12.6761 C   0  0  0  0  0  0  0  0  0  0  0  0
    1.7545    6.7857   12.2150 N   0  0  0  0  0  0  0  0  0  0  0  0
    1.0494    6.0957   11.3317 N   0  0  0  0  0  0  0  0  0  0  0  0
   -0.0605    6.3947   10.6100 C   0  0  0  0  0  0  0  0  0  0  0  0
   -0.5480    5.4837    9.7874 N   0  0  0  0  0  0  0  0  0  0  0  0
    0.0227    4.2436    9.6319 C   0  0  0  0  0  0  0  0  0  0  0  0
    1.1104    3.9899   10.3580 N   0  0  0  0  0  0  0  0  0  0  0  0
    1.6346    4.9120   11.2150 C   0  0  0  0  0  0  0  0  0  0  0  0
    2.7198    4.8919   12.0516 N   0  0  0  0  0  0  0  0  0  0  0  0
   -0.6068    3.3938    8.6956 N   0  0  0  0  0  0  0  0  0  0  0  0
   -0.0195    2.1969    8.1639 C   0  0  0  0  0  0  0  0  0  0  0  0
    0.9887    2.4572    7.0975 C   0  0  0  0  0  0  0  0  0  0  0  0
    1.8641    1.2504    6.9676 C   0  0  0  0  0  0  0  0  0  0  0  0
    1.9780    0.2980    7.9719 C   0  0  0  0  0  0  0  0  0  0  0  0
    2.7889   -0.8146    7.8548 C   0  0  0  0  0  0  0  0  0  0  0  0
    3.5279   -1.0016    6.6822 C   0  0  0  0  0  0  0  0  0  0  0  0
    3.4268   -0.0675    5.6780 C   0  0  0  0  0  0  0  0  0  0  0  0
    2.6022    1.0511    5.8184 C   0  0  0  0  0  0  0  0  0  0  0  0
    4.3501   -2.1334    6.5573 O   0  0  0  0  0  0  0  0  0  0  0  0
   -0.6239    7.6825   10.8094 N   0  0  0  0  0  0  0  0  0  0  0  0
  1  2  2  0
  2  3  1  0
  3  4  1  0
  4  5  2  0
  4  6  1  0
  6  7  2  0
  7  8  1  0
  8  9  1  0
  9 10  2  0
 10 11  1  0
 11 12  2  0
 12 13  1  0
 13 14  2  0
 11 15  1  0
 15 16  1  0
 16 17  1  0
 17 18  1  0
 18 19  2  0
 19 20  1  0
 20 21  2  0
 21 22  1  0
 22 23  2  0
 21 24  1  0
  9 25  1  0
  5  1  1  0
 14  6  1  0
 13  8  1  0
 23 18  1  0
M  END
$$$$
