
     RDKit          3D

 25 28  0  0  0  0  0  0  0  0999 V2000
    2.6825    0.3538    6.4684 C   0  0  0  0  0  0  0  0  0  0  0  0
    3.8044    0.3471    7.2835 C   0  0  0  0  0  0  0  0  0  0  0  0
    3.6302    1.2453    8.1893 O   0  0  0  0  0  0  0  0  0  0  0  0
    2.4918    1.8887    8.0925 C   0  0  0  0  0  0  0  0  0  0  0  0
    1.8545    1.3353    6.9884 C   0  0  0  0  0  0  0  0  0  0  0  0
    1.9939    2.9651    8.9639 C   0  0  0  0  0  0  0  0  0  0  0  0
    2.5752    3.2981   10.1328 N   0  0  0  0  0  0  0  0  0  0  0  0
    1.9291    4.2936   10.7201 N   0  0  0  0  0  0  0  0  0  0  0  0
    2.1340    4.9582   11.8857 C   0  0  0  0  0  0  0  0  0  0  0  0
    1.3049    5.9315   12.2163 N   0  0  0  0  0  0  0  0  0  0  0  0
    0.2415    6.2997   11.4281 C   0  0  0  0  0  0  0  0  0  0  0  0
    0.0754    5.6230   10.2927 N   0  0  0  0  0  0  0  0  0  0  0  0
    0.9162    4.6136    9.9271 C   0  0  0  0  0  0  0  0  0  0  0  0
    0.9561    3.7869    8.8349 N   0  0  0  0  0  0  0  0  0  0  0  0
   -0.5355    7.3751   11.9127 N   0  0  0  0  0  0  0  0  0  0  0  0
   -0.2305    8.1267   13.0970 C   0  0  0  0  0  0  0  0  0  0  0  0
    0.7633    9.2134   12.8669 C   0  0  0  0  0  0  0  0  0  0  0  0
    1.4958    9.4651   14.1475 C   0  0  0  0  0  0  0  0  0  0  0  0
    0.9516   10.2091   15.1862 C   0  0  0  0  0  0  0  0  0  0  0  0
    1.6285   10.4453   16.3673 C   0  0  0  0  0  0  0  0  0  0  0  0
    2.9127    9.9178   16.5368 C   0  0  0  0  0  0  0  0  0  0  0  0
    3.4664    9.1791   15.5175 C   0  0  0  0  0  0  0  0  0  0  0  0
    2.7649    8.9541   14.3308 C   0  0  0  0  0  0  0  0  0  0  0  0
    3.6025   10.1520   17.7375 O   0  0  0  0  0  0  0  0  0  0  0  0
    3.2372    4.5383   12.6745 N   0  0  0  0  0  0  0  0  0  0  0  0
  1  2  2  0
  2  3  1  0
  3  4  1  0
  4  5  2  0
  4  6  1  0
  6  7  2  0
  7  8  1  0
  8  9  1  0
  9 10  2  0
 10 11  1  0
 11 12  2  0
 12 13  1  0
 13 14  2  0
 11 15  1  0
 15 16  1  0
 16 17  1  0
 17 18  1  0
 18 19  2  0
 19 20  1  0
 20 21  2  0
 21 22  1  0
 22 23  2  0
 21 24  1  0
  9 25  1  0
  5  1  1  0
 14  6  1  0
 13  8  1  0
 23 18  1  0
M  END
$$$$
