
     RDKit          3D

 25 28  0  0  0  0  0  0  0  0999 V2000
    1.6634   -0.0027    6.7541 C   0  0  0  0  0  0  0  0  0  0  0  0
    2.9324   -0.1857    7.2827 C   0  0  0  0  0  0  0  0  0  0  0  0
    3.1392    0.7616    8.1297 O   0  0  0  0  0  0  0  0  0  0  0  0
    2.1377    1.5992    8.2504 C   0  0  0  0  0  0  0  0  0  0  0  0
    1.1660    1.1325    7.3732 C   0  0  0  0  0  0  0  0  0  0  0  0
    2.0573    2.7798    9.1254 C   0  0  0  0  0  0  0  0  0  0  0  0
    1.0301    3.6510    9.0986 N   0  0  0  0  0  0  0  0  0  0  0  0
    1.2057    4.6226    9.9809 N   0  0  0  0  0  0  0  0  0  0  0  0
    0.4573    5.7050   10.3136 C   0  0  0  0  0  0  0  0  0  0  0  0
    0.8989    6.5172   11.2568 N   0  0  0  0  0  0  0  0  0  0  0  0
    2.0867    6.3116   11.9162 C   0  0  0  0  0  0  0  0  0  0  0  0
    2.7909    5.2382   11.5603 N   0  0  0  0  0  0  0  0  0  0  0  0
    2.3587    4.3834   10.5898 C   0  0  0  0  0  0  0  0  0  0  0  0
    2.8888    3.2374   10.0573 N   0  0  0  0  0  0  0  0  0  0  0  0
    2.4039    7.2592   12.9144 N   0  0  0  0  0  0  0  0  0  0  0  0
    3.4008    7.0655   13.9288 C   0  0  0  0  0  0  0  0  0  0  0  0
    2.8516    7.1151   15.3135 C   0  0  0  0  0  0  0  0  0  0  0  0
    3.8708    6.5437   16.2486 C   0  0  0  0  0  0  0  0  0  0  0  0
    3.5700    6.1927   17.5582 C   0  0  0  0  0  0  0  0  0  0  0  0
    4.5109    5.6686   18.4237 C   0  0  0  0  0  0  0  0  0  0  0  0
    5.8215    5.4773   17.9745 C   0  0  0  0  0  0  0  0  0  0  0  0
    6.1362    5.8202   16.6804 C   0  0  0  0  0  0  0  0  0  0  0  0
    5.1695    6.3503   15.8228 C   0  0  0  0  0  0  0  0  0  0  0  0
    6.7800    4.9409   18.8497 O   0  0  0  0  0  0  0  0  0  0  0  0
   -0.7568    5.8854    9.6001 N   0  0  0  0  0  0  0  0  0  0  0  0
  1  2  2  0
  2  3  1  0
  3  4  1  0
  4  5  2  0
  4  6  1  0
  6  7  2  0
  7  8  1  0
  8  9  1  0
  9 10  2  0
 10 11  1  0
 11 12  2  0
 12 13  1  0
 13 14  2  0
 11 15  1  0
 15 16  1  0
 16 17  1  0
 17 18  1  0
 18 19  2  0
 19 20  1  0
 20 21  2  0
 21 22  1  0
 22 23  2  0
 21 24  1  0
  9 25  1  0
  5  1  1  0
 14  6  1  0
 13  8  1  0
 23 18  1  0
M  END
$$$$
