
     RDKit          3D

 25 28  0  0  0  0  0  0  0  0999 V2000
    1.7793    0.6127    6.4445 C   0  0  0  0  0  0  0  0  0  0  0  0
    3.0017    0.3304    7.0355 C   0  0  0  0  0  0  0  0  0  0  0  0
    3.1933    1.2018    7.9638 O   0  0  0  0  0  0  0  0  0  0  0  0
    2.2232    2.0754    8.0856 C   0  0  0  0  0  0  0  0  0  0  0  0
    1.2919    1.7219    7.1165 C   0  0  0  0  0  0  0  0  0  0  0  0
    2.1368    3.1909    9.0419 C   0  0  0  0  0  0  0  0  0  0  0  0
    2.9597    3.3223   10.1003 N   0  0  0  0  0  0  0  0  0  0  0  0
    2.6666    4.4074   10.8004 N   0  0  0  0  0  0  0  0  0  0  0  0
    3.2054    4.9472   11.9232 C   0  0  0  0  0  0  0  0  0  0  0  0
    2.6904    6.0656   12.4007 N   0  0  0  0  0  0  0  0  0  0  0  0
    1.6298    6.7063   11.8072 C   0  0  0  0  0  0  0  0  0  0  0  0
    1.1302    6.1444   10.7075 N   0  0  0  0  0  0  0  0  0  0  0  0
    1.6424    4.9900   10.1931 C   0  0  0  0  0  0  0  0  0  0  0  0
    1.3123    4.2331    9.0995 N   0  0  0  0  0  0  0  0  0  0  0  0
    1.2133    7.9042   12.4291 N   0  0  0  0  0  0  0  0  0  0  0  0
    1.2609    8.1424   13.8438 C   0  0  0  0  0  0  0  0  0  0  0  0
    2.0382    7.1127   14.5901 C   0  0  0  0  0  0  0  0  0  0  0  0
    2.8810    7.8051   15.6148 C   0  0  0  0  0  0  0  0  0  0  0  0
    4.0780    7.2761   16.0795 C   0  0  0  0  0  0  0  0  0  0  0  0
    4.8550    7.9125   17.0283 C   0  0  0  0  0  0  0  0  0  0  0  0
    4.4311    9.1400   17.5477 C   0  0  0  0  0  0  0  0  0  0  0  0
    3.2478    9.6776   17.0985 C   0  0  0  0  0  0  0  0  0  0  0  0
    2.4768    9.0160   16.1398 C   0  0  0  0  0  0  0  0  0  0  0  0
    5.2201    9.7923   18.5093 O   0  0  0  0  0  0  0  0  0  0  0  0
    4.2923    4.2471   12.5099 N   0  0  0  0  0  0  0  0  0  0  0  0
  1  2  2  0
  2  3  1  0
  3  4  1  0
  4  5  2  0
  4  6  1  0
  6  7  2  0
  7  8  1  0
  8  9  1  0
  9 10  2  0
 10 11  1  0
 11 12  2  0
 12 13  1  0
 13 14  2  0
 11 15  1  0
 15 16  1  0
 16 17  1  0
 17 18  1  0
 18 19  2  0
 19 20  1  0
 20 21  2  0
 21 22  1  0
 22 23  2  0
 21 24  1  0
  9 25  1  0
  5  1  1  0
 14  6  1  0
 13  8  1  0
 23 18  1  0
M  END
$$$$
