
     RDKit          3D

 25 28  0  0  0  0  0  0  0  0999 V2000
    1.8184    0.2208    6.7420 C   0  0  0  0  0  0  0  0  0  0  0  0
    3.0192   -0.0417    7.3842 C   0  0  0  0  0  0  0  0  0  0  0  0
    3.1967    0.8802    8.2652 O   0  0  0  0  0  0  0  0  0  0  0  0
    2.2362    1.7718    8.3072 C   0  0  0  0  0  0  0  0  0  0  0  0
    1.3280    1.3737    7.3335 C   0  0  0  0  0  0  0  0  0  0  0  0
    2.1386    2.9426    9.1936 C   0  0  0  0  0  0  0  0  0  0  0  0
    2.9536    3.1414   10.2478 N   0  0  0  0  0  0  0  0  0  0  0  0
    2.6512    4.2655   10.8790 N   0  0  0  0  0  0  0  0  0  0  0  0
    3.1799    4.8745   11.9707 C   0  0  0  0  0  0  0  0  0  0  0  0
    2.6571    6.0174   12.3762 N   0  0  0  0  0  0  0  0  0  0  0  0
    1.5981    6.6164   11.7379 C   0  0  0  0  0  0  0  0  0  0  0  0
    1.1085    5.9868   10.6708 N   0  0  0  0  0  0  0  0  0  0  0  0
    1.6289    4.8058   10.2307 C   0  0  0  0  0  0  0  0  0  0  0  0
    1.3096    3.9827    9.1826 N   0  0  0  0  0  0  0  0  0  0  0  0
    1.1724    7.8478   12.2834 N   0  0  0  0  0  0  0  0  0  0  0  0
    1.7587    8.4697   13.4366 C   0  0  0  0  0  0  0  0  0  0  0  0
    1.0448    8.1522   14.7057 C   0  0  0  0  0  0  0  0  0  0  0  0
    2.0416    8.1461   15.8219 C   0  0  0  0  0  0  0  0  0  0  0  0
    3.0326    9.1113   15.9444 C   0  0  0  0  0  0  0  0  0  0  0  0
    3.9559    9.1046   16.9723 C   0  0  0  0  0  0  0  0  0  0  0  0
    3.8996    8.0919   17.9353 C   0  0  0  0  0  0  0  0  0  0  0  0
    2.9246    7.1280   17.8284 C   0  0  0  0  0  0  0  0  0  0  0  0
    2.0022    7.1530   16.7797 C   0  0  0  0  0  0  0  0  0  0  0  0
    4.8335    8.0837   18.9842 O   0  0  0  0  0  0  0  0  0  0  0  0
    4.2654    4.2160   12.6060 N   0  0  0  0  0  0  0  0  0  0  0  0
  1  2  2  0
  2  3  1  0
  3  4  1  0
  4  5  2  0
  4  6  1  0
  6  7  2  0
  7  8  1  0
  8  9  1  0
  9 10  2  0
 10 11  1  0
 11 12  2  0
 12 13  1  0
 13 14  2  0
 11 15  1  0
 15 16  1  0
 16 17  1  0
 17 18  1  0
 18 19  2  0
 19 20  1  0
 20 21  2  0
 21 22  1  0
 22 23  2  0
 21 24  1  0
  9 25  1  0
  5  1  1  0
 14  6  1  0
 13  8  1  0
 23 18  1  0
M  END
$$$$
