
     RDKit          3D

 25 28  0  0  0  0  0  0  0  0999 V2000
    0.7968    0.9827    6.1355 C   0  0  0  0  0  0  0  0  0  0  0  0
    1.7722    0.2396    6.7832 C   0  0  0  0  0  0  0  0  0  0  0  0
    2.1880    0.9350    7.7837 O   0  0  0  0  0  0  0  0  0  0  0  0
    1.6006    2.1009    7.9056 C   0  0  0  0  0  0  0  0  0  0  0  0
    0.6942    2.1628    6.8539 C   0  0  0  0  0  0  0  0  0  0  0  0
    1.8463    3.1250    8.9337 C   0  0  0  0  0  0  0  0  0  0  0  0
    2.6320    2.9195   10.0085 N   0  0  0  0  0  0  0  0  0  0  0  0
    2.6809    3.9971   10.7765 N   0  0  0  0  0  0  0  0  0  0  0  0
    3.3272    4.2652   11.9396 C   0  0  0  0  0  0  0  0  0  0  0  0
    3.1843    5.4595   12.4850 N   0  0  0  0  0  0  0  0  0  0  0  0
    2.4071    6.4433   11.9231 C   0  0  0  0  0  0  0  0  0  0  0  0
    1.7901    6.1401   10.7821 N   0  0  0  0  0  0  0  0  0  0  0  0
    1.9199    4.9151   10.1974 C   0  0  0  0  0  0  0  0  0  0  0  0
    1.4002    4.3725    9.0513 N   0  0  0  0  0  0  0  0  0  0  0  0
    2.3782    7.6720   12.6192 N   0  0  0  0  0  0  0  0  0  0  0  0
    2.8685    7.8588   13.9553 C   0  0  0  0  0  0  0  0  0  0  0  0
    1.7904    7.8653   14.9843 C   0  0  0  0  0  0  0  0  0  0  0  0
    2.2986    8.5761   16.1992 C   0  0  0  0  0  0  0  0  0  0  0  0
    1.4884    8.8659   17.2894 C   0  0  0  0  0  0  0  0  0  0  0  0
    1.9556    9.5256   18.4099 C   0  0  0  0  0  0  0  0  0  0  0  0
    3.2962    9.9207   18.4616 C   0  0  0  0  0  0  0  0  0  0  0  0
    4.1119    9.6418   17.3901 C   0  0  0  0  0  0  0  0  0  0  0  0
    3.6182    8.9754   16.2662 C   0  0  0  0  0  0  0  0  0  0  0  0
    3.7761   10.5877   19.6005 O   0  0  0  0  0  0  0  0  0  0  0  0
    4.1103    3.2173   12.4910 N   0  0  0  0  0  0  0  0  0  0  0  0
  1  2  2  0
  2  3  1  0
  3  4  1  0
  4  5  2  0
  4  6  1  0
  6  7  2  0
  7  8  1  0
  8  9  1  0
  9 10  2  0
 10 11  1  0
 11 12  2  0
 12 13  1  0
 13 14  2  0
 11 15  1  0
 15 16  1  0
 16 17  1  0
 17 18  1  0
 18 19  2  0
 19 20  1  0
 20 21  2  0
 21 22  1  0
 22 23  2  0
 21 24  1  0
  9 25  1  0
  5  1  1  0
 14  6  1  0
 13  8  1  0
 23 18  1  0
M  END
$$$$
