
     RDKit          3D

 25 28  0  0  0  0  0  0  0  0999 V2000
    1.2186    0.1879    6.7093 C   0  0  0  0  0  0  0  0  0  0  0  0
    2.3883   -0.2488    7.3129 C   0  0  0  0  0  0  0  0  0  0  0  0
    2.7006    0.6109    8.2191 O   0  0  0  0  0  0  0  0  0  0  0  0
    1.8638    1.6159    8.3138 C   0  0  0  0  0  0  0  0  0  0  0  0
    0.8926    1.3722    7.3501 C   0  0  0  0  0  0  0  0  0  0  0  0
    1.9354    2.7572    9.2403 C   0  0  0  0  0  0  0  0  0  0  0  0
    2.7877    2.8109   10.2823 N   0  0  0  0  0  0  0  0  0  0  0  0
    2.6458    3.9416   10.9567 N   0  0  0  0  0  0  0  0  0  0  0  0
    3.2685    4.4376   12.0560 C   0  0  0  0  0  0  0  0  0  0  0  0
    2.9065    5.6236   12.5104 N   0  0  0  0  0  0  0  0  0  0  0  0
    1.9237    6.3773   11.9156 C   0  0  0  0  0  0  0  0  0  0  0  0
    1.3376    5.8550   10.8394 N   0  0  0  0  0  0  0  0  0  0  0  0
    1.6916    4.6327   10.3492 C   0  0  0  0  0  0  0  0  0  0  0  0
    1.2492    3.8959    9.2818 N   0  0  0  0  0  0  0  0  0  0  0  0
    1.6721    7.6334   12.5106 N   0  0  0  0  0  0  0  0  0  0  0  0
    2.2630    8.0813   13.7397 C   0  0  0  0  0  0  0  0  0  0  0  0
    1.5162    7.6366   14.9504 C   0  0  0  0  0  0  0  0  0  0  0  0
    2.3958    7.8259   16.1463 C   0  0  0  0  0  0  0  0  0  0  0  0
    1.9870    7.5026   17.4336 C   0  0  0  0  0  0  0  0  0  0  0  0
    2.7968    7.6805   18.5389 C   0  0  0  0  0  0  0  0  0  0  0  0
    4.0823    8.2043   18.3675 C   0  0  0  0  0  0  0  0  0  0  0  0
    4.5024    8.5302   17.0993 C   0  0  0  0  0  0  0  0  0  0  0  0
    3.6664    8.3438   15.9960 C   0  0  0  0  0  0  0  0  0  0  0  0
    4.9101    8.3828   19.4879 O   0  0  0  0  0  0  0  0  0  0  0  0
    4.2697    3.6215   12.6452 N   0  0  0  0  0  0  0  0  0  0  0  0
  1  2  2  0
  2  3  1  0
  3  4  1  0
  4  5  2  0
  4  6  1  0
  6  7  2  0
  7  8  1  0
  8  9  1  0
  9 10  2  0
 10 11  1  0
 11 12  2  0
 12 13  1  0
 13 14  2  0
 11 15  1  0
 15 16  1  0
 16 17  1  0
 17 18  1  0
 18 19  2  0
 19 20  1  0
 20 21  2  0
 21 22  1  0
 22 23  2  0
 21 24  1  0
  9 25  1  0
  5  1  1  0
 14  6  1  0
 13  8  1  0
 23 18  1  0
M  END
$$$$
