
     RDKit          3D

 25 28  0  0  0  0  0  0  0  0999 V2000
    2.0229    0.4651    6.2349 C   0  0  0  0  0  0  0  0  0  0  0  0
    3.2069    0.1858    6.9007 C   0  0  0  0  0  0  0  0  0  0  0  0
    3.2834    0.9860    7.9065 O   0  0  0  0  0  0  0  0  0  0  0  0
    2.2665    1.8065    8.0157 C   0  0  0  0  0  0  0  0  0  0  0  0
    1.4322    1.4952    6.9487 C   0  0  0  0  0  0  0  0  0  0  0  0
    2.0525    2.8361    9.0453 C   0  0  0  0  0  0  0  0  0  0  0  0
    2.8052    2.9361   10.1581 N   0  0  0  0  0  0  0  0  0  0  0  0
    2.4014    3.9425   10.9181 N   0  0  0  0  0  0  0  0  0  0  0  0
    2.8399    4.4258   12.1082 C   0  0  0  0  0  0  0  0  0  0  0  0
    2.2251    5.4687   12.6358 N   0  0  0  0  0  0  0  0  0  0  0  0
    1.1578    6.0856   12.0290 C   0  0  0  0  0  0  0  0  0  0  0  0
    0.7586    5.5809   10.8626 N   0  0  0  0  0  0  0  0  0  0  0  0
    1.3751    4.5049   10.2955 C   0  0  0  0  0  0  0  0  0  0  0  0
    1.1576    3.8164    9.1307 N   0  0  0  0  0  0  0  0  0  0  0  0
    0.6277    7.2025   12.7122 N   0  0  0  0  0  0  0  0  0  0  0  0
    1.2460    7.8272   13.8470 C   0  0  0  0  0  0  0  0  0  0  0  0
    2.6825    8.1591   13.6285 C   0  0  0  0  0  0  0  0  0  0  0  0
    3.3410    8.3175   14.9631 C   0  0  0  0  0  0  0  0  0  0  0  0
    2.6190    8.4771   16.1386 C   0  0  0  0  0  0  0  0  0  0  0  0
    3.2258    8.6273   17.3708 C   0  0  0  0  0  0  0  0  0  0  0  0
    4.6221    8.6178   17.4510 C   0  0  0  0  0  0  0  0  0  0  0  0
    5.3521    8.4612   16.2961 C   0  0  0  0  0  0  0  0  0  0  0  0
    4.7178    8.3128   15.0605 C   0  0  0  0  0  0  0  0  0  0  0  0
    5.2429    8.7659   18.7021 O   0  0  0  0  0  0  0  0  0  0  0  0
    3.9377    3.7521   12.7053 N   0  0  0  0  0  0  0  0  0  0  0  0
  1  2  2  0
  2  3  1  0
  3  4  1  0
  4  5  2  0
  4  6  1  0
  6  7  2  0
  7  8  1  0
  8  9  1  0
  9 10  2  0
 10 11  1  0
 11 12  2  0
 12 13  1  0
 13 14  2  0
 11 15  1  0
 15 16  1  0
 16 17  1  0
 17 18  1  0
 18 19  2  0
 19 20  1  0
 20 21  2  0
 21 22  1  0
 22 23  2  0
 21 24  1  0
  9 25  1  0
  5  1  1  0
 14  6  1  0
 13  8  1  0
 23 18  1  0
M  END
$$$$
