
     RDKit          3D

 25 28  0  0  0  0  0  0  0  0999 V2000
    1.9801    0.2763    6.4171 C   0  0  0  0  0  0  0  0  0  0  0  0
    3.2199    0.0553    6.9980 C   0  0  0  0  0  0  0  0  0  0  0  0
    3.3655    0.9203    7.9404 O   0  0  0  0  0  0  0  0  0  0  0  0
    2.3471    1.7340    8.0815 C   0  0  0  0  0  0  0  0  0  0  0  0
    1.4328    1.3437    7.1104 C   0  0  0  0  0  0  0  0  0  0  0  0
    2.2012    2.8260    9.0573 C   0  0  0  0  0  0  0  0  0  0  0  0
    3.0439    3.0098   10.0922 N   0  0  0  0  0  0  0  0  0  0  0  0
    2.6865    4.0582   10.8179 N   0  0  0  0  0  0  0  0  0  0  0  0
    3.2152    4.6251   11.9321 C   0  0  0  0  0  0  0  0  0  0  0  0
    2.6270    5.6916   12.4426 N   0  0  0  0  0  0  0  0  0  0  0  0
    1.4999    6.2520   11.8917 C   0  0  0  0  0  0  0  0  0  0  0  0
    1.0129    5.6659   10.7990 N   0  0  0  0  0  0  0  0  0  0  0  0
    1.6000    4.5638   10.2512 C   0  0  0  0  0  0  0  0  0  0  0  0
    1.2977    3.7971    9.1563 N   0  0  0  0  0  0  0  0  0  0  0  0
    1.0080    7.4038   12.5447 N   0  0  0  0  0  0  0  0  0  0  0  0
    1.7305    8.1413   13.5419 C   0  0  0  0  0  0  0  0  0  0  0  0
    1.3165    7.8120   14.9353 C   0  0  0  0  0  0  0  0  0  0  0  0
    2.5374    7.7922   15.8006 C   0  0  0  0  0  0  0  0  0  0  0  0
    2.4706    7.7249   17.1861 C   0  0  0  0  0  0  0  0  0  0  0  0
    3.5969    7.7105   17.9863 C   0  0  0  0  0  0  0  0  0  0  0  0
    4.8605    7.7631   17.3891 C   0  0  0  0  0  0  0  0  0  0  0  0
    4.9443    7.8305   16.0181 C   0  0  0  0  0  0  0  0  0  0  0  0
    3.7923    7.8459   15.2284 C   0  0  0  0  0  0  0  0  0  0  0  0
    6.0081    7.7444   18.1986 O   0  0  0  0  0  0  0  0  0  0  0  0
    4.3730    4.0078   12.4744 N   0  0  0  0  0  0  0  0  0  0  0  0
  1  2  2  0
  2  3  1  0
  3  4  1  0
  4  5  2  0
  4  6  1  0
  6  7  2  0
  7  8  1  0
  8  9  1  0
  9 10  2  0
 10 11  1  0
 11 12  2  0
 12 13  1  0
 13 14  2  0
 11 15  1  0
 15 16  1  0
 16 17  1  0
 17 18  1  0
 18 19  2  0
 19 20  1  0
 20 21  2  0
 21 22  1  0
 22 23  2  0
 21 24  1  0
  9 25  1  0
  5  1  1  0
 14  6  1  0
 13  8  1  0
 23 18  1  0
M  END
$$$$
