
     RDKit          3D

 29 32  0  0  0  0  0  0  0  0999 V2000
    1.2347    1.6155   21.2166 C   0  0  0  0  0  0  0  0  0  0  0  0
    1.0335    0.8081   20.0302 N   0  0  0  0  0  0  0  0  0  0  0  0
    0.0537   -0.2030   19.9448 C   0  0  0  0  0  0  0  0  0  0  0  0
   -0.8038   -0.3830   20.9621 N   0  0  0  0  0  0  0  0  0  0  0  0
   -1.7642   -1.3507   20.9144 C   0  0  0  0  0  0  0  0  0  0  0  0
   -3.1185   -1.6541   22.4916 I   0  0  0  0  0  0  0  0  0  0  0  0
   -1.8207   -2.1090   19.8250 N   0  0  0  0  0  0  0  0  0  0  0  0
   -1.0022   -1.9933   18.7670 C   0  0  0  0  0  0  0  0  0  0  0  0
   -0.0257   -0.9934   18.8401 C   0  0  0  0  0  0  0  0  0  0  0  0
    0.6545   -1.0727   17.6890 N   0  0  0  0  0  0  0  0  0  0  0  0
    0.1216   -2.0690   16.9511 C   0  0  0  0  0  0  0  0  0  0  0  0
   -0.9022   -2.6477   17.6019 N   0  0  0  0  0  0  0  0  0  0  0  0
   -1.7259   -3.7289   17.1721 C   0  0  1  0  0  0  0  0  0  0  0  0
   -3.0396   -3.3266   16.5948 C   0  0  0  0  0  0  0  0  0  0  0  0
   -3.0598   -3.8641   15.2060 C   0  0  1  0  0  0  0  0  0  0  0  0
   -2.0076   -4.9058   15.0687 C   0  0  1  0  0  0  0  0  0  0  0  0
   -1.0693   -4.6363   16.1716 C   0  0  2  0  0  0  0  0  0  0  0  0
   -1.7844   -5.9819   16.0420 C   0  0  0  0  0  0  0  0  0  0  0  0
   -1.5073   -5.1196   13.6564 C   0  0  0  0  0  0  0  0  0  0  0  0
   -1.6287   -6.4576   13.2835 O   0  0  0  0  0  0  0  0  0  0  0  0
   -0.9272   -6.7198   11.7722 P   0  0  0  0  0  5  0  0  0  0  0  0
   -0.9746   -8.2042   11.4659 O   0  0  0  0  0  0  0  0  0  0  0  0
    0.6499   -6.1699   11.6861 O   0  0  0  0  0  1  0  0  0  0  0  0
   -1.8221   -5.8867   10.5767 O   0  0  0  0  0  1  0  0  0  0  0  0
   -4.3216   -4.2867   14.7976 O   0  0  0  0  0  0  0  0  0  0  0  0
   -5.4630   -3.0368   14.8588 P   0  0  0  0  0  5  0  0  0  0  0  0
   -6.7247   -3.4870   15.5828 O   0  0  0  0  0  0  0  0  0  0  0  0
   -4.8107   -1.6554   15.5913 O   0  0  0  0  0  1  0  0  0  0  0  0
   -5.9399   -2.6121   13.2890 O   0  0  0  0  0  1  0  0  0  0  0  0
  1  2  1  0
  2  3  1  0
  3  4  2  0
  4  5  1  0
  5  6  1  0
  5  7  2  0
  7  8  1  0
  8  9  2  0
  9 10  1  0
 10 11  2  0
 11 12  1  0
 13 12  1  6
 13 14  1  0
 14 15  1  0
 15 16  1  0
 16 17  1  0
 17 18  1  1
 16 19  1  6
 19 20  1  0
 20 21  1  0
 21 22  2  0
 21 23  1  0
 21 24  1  0
 15 25  1  1
 25 26  1  0
 26 27  2  0
 26 28  1  0
 26 29  1  0
  9  3  1  0
 17 13  1  0
 12  8  1  0
 18 16  1  0
M  CHG  4  23  -1  24  -1  28  -1  29  -1
M  END
$$$$
