
     RDKit          3D

 29 32  0  0  0  0  0  0  0  0999 V2000
    5.1754   -1.9488   11.5073 C   0  0  0  0  0  0  0  0  0  0  0  0
    3.7930   -2.2488   11.1930 N   0  0  0  0  0  0  0  0  0  0  0  0
    2.9831   -3.0766   11.9984 C   0  0  0  0  0  0  0  0  0  0  0  0
    3.4187   -3.4522   13.2115 N   0  0  0  0  0  0  0  0  0  0  0  0
    2.6626   -4.2520   14.0177 C   0  0  0  0  0  0  0  0  0  0  0  0
    3.3195   -4.8549   15.9200 I   0  0  0  0  0  0  0  0  0  0  0  0
    1.4794   -4.6460   13.5594 N   0  0  0  0  0  0  0  0  0  0  0  0
    0.9726   -4.3150   12.3609 C   0  0  0  0  0  0  0  0  0  0  0  0
    1.7672   -3.4940   11.5527 C   0  0  0  0  0  0  0  0  0  0  0  0
    1.0611   -3.3058   10.4302 N   0  0  0  0  0  0  0  0  0  0  0  0
   -0.1040   -3.9767   10.5464 C   0  0  0  0  0  0  0  0  0  0  0  0
   -0.1747   -4.6053   11.7324 N   0  0  0  0  0  0  0  0  0  0  0  0
   -1.2308   -5.4154   12.2428 C   0  0  1  0  0  0  0  0  0  0  0  0
   -2.0962   -4.7524   13.2588 C   0  0  0  0  0  0  0  0  0  0  0  0
   -3.4772   -4.7780   12.7016 C   0  0  1  0  0  0  0  0  0  0  0  0
   -3.5433   -5.7774   11.6025 C   0  0  1  0  0  0  0  0  0  0  0  0
   -2.1435   -5.9663   11.1849 C   0  0  2  0  0  0  0  0  0  0  0  0
   -2.9906   -7.1345   11.6913 C   0  0  0  0  0  0  0  0  0  0  0  0
   -4.6324   -5.5266   10.5819 C   0  0  0  0  0  0  0  0  0  0  0  0
   -4.3046   -4.4488    9.7603 O   0  0  0  0  0  0  0  0  0  0  0  0
   -5.5653   -4.1101    8.6922 P   0  0  0  0  0  5  0  0  0  0  0  0
   -5.1036   -3.0428    7.7190 O   0  0  0  0  0  0  0  0  0  0  0  0
   -6.9570   -3.6074    9.4718 O   0  0  0  0  0  1  0  0  0  0  0  0
   -5.9584   -5.5209    7.8096 O   0  0  0  0  0  1  0  0  0  0  0  0
   -4.4595   -4.9492   13.6728 O   0  0  0  0  0  0  0  0  0  0  0  0
   -4.2253   -3.9274   15.0030 P   0  0  0  0  0  5  0  0  0  0  0  0
   -5.3761   -4.0500   15.9927 O   0  0  0  0  0  0  0  0  0  0  0  0
   -2.7445   -4.2485   15.7610 O   0  0  0  0  0  1  0  0  0  0  0  0
   -4.2046   -2.3110   14.4939 O   0  0  0  0  0  1  0  0  0  0  0  0
  1  2  1  0
  2  3  1  0
  3  4  2  0
  4  5  1  0
  5  6  1  0
  5  7  2  0
  7  8  1  0
  8  9  2  0
  9 10  1  0
 10 11  2  0
 11 12  1  0
 13 12  1  6
 13 14  1  0
 14 15  1  0
 15 16  1  0
 16 17  1  0
 17 18  1  1
 16 19  1  6
 19 20  1  0
 20 21  1  0
 21 22  2  0
 21 23  1  0
 21 24  1  0
 15 25  1  1
 25 26  1  0
 26 27  2  0
 26 28  1  0
 26 29  1  0
  9  3  1  0
 17 13  1  0
 12  8  1  0
 18 16  1  0
M  CHG  4  23  -1  24  -1  28  -1  29  -1
M  END
$$$$
