
     RDKit          3D

 29 32  0  0  0  0  0  0  0  0999 V2000
    8.5444  -11.0633    6.5063 C   0  0  0  0  0  0  0  0  0  0  0  0
    8.9704  -12.3008    5.8844 N   0  0  0  0  0  0  0  0  0  0  0  0
    8.8260  -13.5613    6.5011 C   0  0  0  0  0  0  0  0  0  0  0  0
    9.8540  -14.4248    6.4934 N   0  0  0  0  0  0  0  0  0  0  0  0
    9.7507  -15.6523    7.0796 C   0  0  0  0  0  0  0  0  0  0  0  0
   11.3431  -17.0226    7.0824 I   0  0  0  0  0  0  0  0  0  0  0  0
    8.5960  -15.9628    7.6587 N   0  0  0  0  0  0  0  0  0  0  0  0
    7.5228  -15.1576    7.7096 C   0  0  0  0  0  0  0  0  0  0  0  0
    7.6540  -13.9041    7.1011 C   0  0  0  0  0  0  0  0  0  0  0  0
    6.4747  -13.2946    7.2796 N   0  0  0  0  0  0  0  0  0  0  0  0
    5.6653  -14.1318    7.9615 C   0  0  0  0  0  0  0  0  0  0  0  0
    6.2968  -15.2864    8.2349 N   0  0  0  0  0  0  0  0  0  0  0  0
    5.7969  -16.4246    8.9327 C   0  0  1  0  0  0  0  0  0  0  0  0
    4.6389  -16.1524    9.8302 C   0  0  0  0  0  0  0  0  0  0  0  0
    3.5278  -17.0146    9.3401 C   0  0  1  0  0  0  0  0  0  0  0  0
    4.0839  -18.0775    8.4613 C   0  0  1  0  0  0  0  0  0  0  0  0
    5.3971  -17.5623    8.0376 C   0  0  2  0  0  0  0  0  0  0  0  0
    5.2640  -18.8849    8.7938 C   0  0  0  0  0  0  0  0  0  0  0  0
    3.1071  -18.6415    7.4522 C   0  0  0  0  0  0  0  0  0  0  0  0
    2.8671  -17.7263    6.4279 O   0  0  0  0  0  0  0  0  0  0  0  0
    1.9772  -18.4425    5.1869 P   0  0  0  0  0  5  0  0  0  0  0  0
    0.6319  -18.8717    5.7396 O   0  0  0  0  0  0  0  0  0  0  0  0
    2.7580  -19.7544    4.5040 O   0  0  0  0  0  1  0  0  0  0  0  0
    1.7167  -17.3008    3.9409 O   0  0  0  0  0  1  0  0  0  0  0  0
    2.7170  -17.5012   10.3615 O   0  0  0  0  0  0  0  0  0  0  0  0
    2.0019  -16.2537   11.2565 P   0  0  0  0  0  5  0  0  0  0  0  0
    1.0065  -15.4756   10.4065 O   0  0  0  0  0  0  0  0  0  0  0  0
    1.2557  -16.8593   12.6519 O   0  0  0  0  0  1  0  0  0  0  0  0
    3.1838  -15.1416   11.7447 O   0  0  0  0  0  1  0  0  0  0  0  0
  1  2  1  0
  2  3  1  0
  3  4  2  0
  4  5  1  0
  5  6  1  0
  5  7  2  0
  7  8  1  0
  8  9  2  0
  9 10  1  0
 10 11  2  0
 11 12  1  0
 13 12  1  6
 13 14  1  0
 14 15  1  0
 15 16  1  0
 16 17  1  0
 17 18  1  1
 16 19  1  6
 19 20  1  0
 20 21  1  0
 21 22  2  0
 21 23  1  0
 21 24  1  0
 15 25  1  1
 25 26  1  0
 26 27  2  0
 26 28  1  0
 26 29  1  0
  9  3  1  0
 17 13  1  0
 12  8  1  0
 18 16  1  0
M  CHG  4  23  -1  24  -1  28  -1  29  -1
M  END
$$$$
