
     RDKit          3D

 29 32  0  0  0  0  0  0  0  0999 V2000
   -2.8253  -20.2233    4.9125 C   0  0  0  0  0  0  0  0  0  0  0  0
   -2.0187  -19.5151    5.8860 N   0  0  0  0  0  0  0  0  0  0  0  0
   -0.6154  -19.6383    5.9582 C   0  0  0  0  0  0  0  0  0  0  0  0
    0.0296  -20.4058    5.0653 N   0  0  0  0  0  0  0  0  0  0  0  0
    1.3858  -20.5484    5.1045 C   0  0  0  0  0  0  0  0  0  0  0  0
    2.4204  -21.7428    3.7200 I   0  0  0  0  0  0  0  0  0  0  0  0
    2.0458  -19.9003    6.0582 N   0  0  0  0  0  0  0  0  0  0  0  0
    1.4764  -19.1151    6.9867 C   0  0  0  0  0  0  0  0  0  0  0  0
    0.0843  -18.9851    6.9252 C   0  0  0  0  0  0  0  0  0  0  0  0
   -0.2436  -18.1684    7.9349 N   0  0  0  0  0  0  0  0  0  0  0  0
    0.8888  -17.8177    8.5795 C   0  0  0  0  0  0  0  0  0  0  0  0
    1.9599  -18.3935    8.0070 N   0  0  0  0  0  0  0  0  0  0  0  0
    3.3308  -18.2808    8.3812 C   0  0  1  0  0  0  0  0  0  0  0  0
    4.2563  -17.9128    7.2727 C   0  0  0  0  0  0  0  0  0  0  0  0
    4.9098  -16.6406    7.6882 C   0  0  1  0  0  0  0  0  0  0  0  0
    4.7271  -16.4517    9.1518 C   0  0  1  0  0  0  0  0  0  0  0  0
    3.5807  -17.3090    9.4987 C   0  0  2  0  0  0  0  0  0  0  0  0
    4.9502  -17.5041   10.1507 C   0  0  0  0  0  0  0  0  0  0  0  0
    4.7922  -15.0134    9.6186 C   0  0  0  0  0  0  0  0  0  0  0  0
    3.6629  -14.3062    9.2078 O   0  0  0  0  0  0  0  0  0  0  0  0
    3.7536  -12.6980    9.7082 P   0  0  0  0  0  5  0  0  0  0  0  0
    2.8837  -12.5224   10.9378 O   0  0  0  0  0  0  0  0  0  0  0  0
    3.2824  -11.6219    8.5179 O   0  0  0  0  0  1  0  0  0  0  0  0
    5.3690  -12.3212   10.1236 O   0  0  0  0  0  1  0  0  0  0  0  0
    6.2344  -16.5408    7.2727 O   0  0  0  0  0  0  0  0  0  0  0  0
    6.4174  -16.9166    5.6314 P   0  0  0  0  0  5  0  0  0  0  0  0
    7.8573  -16.7072    5.1824 O   0  0  0  0  0  0  0  0  0  0  0  0
    5.9134  -18.5024    5.3125 O   0  0  0  0  0  1  0  0  0  0  0  0
    5.4684  -15.8745    4.6904 O   0  0  0  0  0  1  0  0  0  0  0  0
  1  2  1  0
  2  3  1  0
  3  4  2  0
  4  5  1  0
  5  6  1  0
  5  7  2  0
  7  8  1  0
  8  9  2  0
  9 10  1  0
 10 11  2  0
 11 12  1  0
 13 12  1  6
 13 14  1  0
 14 15  1  0
 15 16  1  0
 16 17  1  0
 17 18  1  1
 16 19  1  1
 19 20  1  0
 20 21  1  0
 21 22  2  0
 21 23  1  0
 21 24  1  0
 15 25  1  1
 25 26  1  0
 26 27  2  0
 26 28  1  0
 26 29  1  0
  9  3  1  0
 17 13  1  0
 12  8  1  0
 18 16  1  0
M  CHG  4  23  -1  24  -1  28  -1  29  -1
M  END
$$$$
