
     RDKit          3D

 29 32  0  0  0  0  0  0  0  0999 V2000
   -1.7087   -4.0535   19.9889 C   0  0  0  0  0  0  0  0  0  0  0  0
   -0.9830   -4.4650   18.8041 N   0  0  0  0  0  0  0  0  0  0  0  0
   -1.5769   -4.5446   17.5271 C   0  0  0  0  0  0  0  0  0  0  0  0
   -2.8913   -4.3075   17.3912 N   0  0  0  0  0  0  0  0  0  0  0  0
   -3.4997   -4.3754   16.1720 C   0  0  0  0  0  0  0  0  0  0  0  0
   -5.5543   -4.0092   15.9307 I   0  0  0  0  0  0  0  0  0  0  0  0
   -2.7446   -4.6847   15.1234 N   0  0  0  0  0  0  0  0  0  0  0  0
   -1.4266   -4.9354   15.1751 C   0  0  0  0  0  0  0  0  0  0  0  0
   -0.8260   -4.8594   16.4370 C   0  0  0  0  0  0  0  0  0  0  0  0
    0.4672   -5.1442   16.2354 N   0  0  0  0  0  0  0  0  0  0  0  0
    0.6474   -5.3818   14.9193 C   0  0  0  0  0  0  0  0  0  0  0  0
   -0.5117   -5.2570   14.2503 N   0  0  0  0  0  0  0  0  0  0  0  0
   -0.7504   -5.4246   12.8549 C   0  0  1  0  0  0  0  0  0  0  0  0
   -2.0798   -4.9443   12.3830 C   0  0  0  0  0  0  0  0  0  0  0  0
   -1.7993   -3.9047   11.3540 C   0  0  1  0  0  0  0  0  0  0  0  0
   -0.3892   -4.0330   10.8999 C   0  0  1  0  0  0  0  0  0  0  0  0
    0.2834   -4.7794   11.9770 C   0  0  2  0  0  0  0  0  0  0  0  0
    0.2464   -5.3071   10.5421 C   0  0  0  0  0  0  0  0  0  0  0  0
    0.2145   -2.7636   10.3390 C   0  0  0  0  0  0  0  0  0  0  0  0
    0.4003   -2.8685    8.9610 O   0  0  0  0  0  0  0  0  0  0  0  0
    1.1050   -1.4643    8.3473 P   0  0  0  0  0  5  0  0  0  0  0  0
    0.0987   -0.3340    8.4440 O   0  0  0  0  0  0  0  0  0  0  0  0
    1.6193   -1.6361    6.7652 O   0  0  0  0  0  1  0  0  0  0  0  0
    2.4751   -1.0576    9.2860 O   0  0  0  0  0  1  0  0  0  0  0  0
   -2.7233   -3.8971   10.3130 O   0  0  0  0  0  0  0  0  0  0  0  0
   -4.3199   -3.8924   10.8782 P   0  0  0  0  0  5  0  0  0  0  0  0
   -4.5930   -5.1123   11.7477 O   0  0  0  0  0  0  0  0  0  0  0  0
   -4.6597   -2.4641   11.7238 O   0  0  0  0  0  1  0  0  0  0  0  0
   -5.3958   -3.9873    9.5723 O   0  0  0  0  0  1  0  0  0  0  0  0
  1  2  1  0
  2  3  1  0
  3  4  2  0
  4  5  1  0
  5  6  1  0
  5  7  2  0
  7  8  1  0
  8  9  2  0
  9 10  1  0
 10 11  2  0
 11 12  1  0
 13 12  1  1
 13 14  1  0
 14 15  1  0
 15 16  1  0
 16 17  1  0
 17 18  1  6
 16 19  1  6
 19 20  1  0
 20 21  1  0
 21 22  2  0
 21 23  1  0
 21 24  1  0
 15 25  1  6
 25 26  1  0
 26 27  2  0
 26 28  1  0
 26 29  1  0
  9  3  1  0
 17 13  1  0
 12  8  1  0
 18 16  1  0
M  CHG  4  23  -1  24  -1  28  -1  29  -1
M  END
$$$$
