
     RDKit          3D

 29 32  0  0  0  0  0  0  0  0999 V2000
    4.9299  -11.0677   10.3473 C   0  0  0  0  0  0  0  0  0  0  0  0
    4.1759  -12.2767   10.0834 N   0  0  0  0  0  0  0  0  0  0  0  0
    4.7045  -13.3729    9.3701 C   0  0  0  0  0  0  0  0  0  0  0  0
    5.9048  -13.2625    8.7789 N   0  0  0  0  0  0  0  0  0  0  0  0
    6.4473  -14.3016    8.0809 C   0  0  0  0  0  0  0  0  0  0  0  0
    8.3231  -14.1563    7.1461 I   0  0  0  0  0  0  0  0  0  0  0  0
    5.7451  -15.4271    8.0070 N   0  0  0  0  0  0  0  0  0  0  0  0
    4.5406  -15.6175    8.5688 C   0  0  0  0  0  0  0  0  0  0  0  0
    4.0057  -14.5368    9.2793 C   0  0  0  0  0  0  0  0  0  0  0  0
    2.8211  -14.9614    9.7380 N   0  0  0  0  0  0  0  0  0  0  0  0
    2.6415  -16.2349    9.3292 C   0  0  0  0  0  0  0  0  0  0  0  0
    3.6937  -16.6553    8.6063 N   0  0  0  0  0  0  0  0  0  0  0  0
    3.8962  -17.9275    7.9958 C   0  0  1  0  0  0  0  0  0  0  0  0
    3.4086  -19.0901    8.7903 C   0  0  0  0  0  0  0  0  0  0  0  0
    2.4025  -19.7790    7.9351 C   0  0  1  0  0  0  0  0  0  0  0  0
    2.5653  -19.3281    6.5275 C   0  0  1  0  0  0  0  0  0  0  0  0
    3.2918  -18.0507    6.6264 C   0  0  2  0  0  0  0  0  0  0  0  0
    3.8585  -19.2330    5.8393 C   0  0  0  0  0  0  0  0  0  0  0  0
    1.3214  -19.4514    5.6742 C   0  0  0  0  0  0  0  0  0  0  0  0
    1.2495  -20.7108    5.0799 O   0  0  0  0  0  0  0  0  0  0  0  0
   -0.1876  -20.8781    4.2130 P   0  0  0  0  0  5  0  0  0  0  0  0
   -0.3234  -22.3228    3.7725 O   0  0  0  0  0  0  0  0  0  0  0  0
   -0.2630  -19.8669    2.8830 O   0  0  0  0  0  1  0  0  0  0  0  0
   -1.5109  -20.4885    5.2234 O   0  0  0  0  0  1  0  0  0  0  0  0
    2.4094  -21.1630    8.0831 O   0  0  0  0  0  0  0  0  0  0  0  0
    2.3850  -21.6299    9.7110 P   0  0  0  0  0  5  0  0  0  0  0  0
    3.1100  -22.9544    9.9082 O   0  0  0  0  0  0  0  0  0  0  0  0
    3.0546  -20.4260   10.6972 O   0  0  0  0  0  1  0  0  0  0  0  0
    0.7870  -21.8813   10.2164 O   0  0  0  0  0  1  0  0  0  0  0  0
  1  2  1  0
  2  3  1  0
  3  4  2  0
  4  5  1  0
  5  6  1  0
  5  7  2  0
  7  8  1  0
  8  9  2  0
  9 10  1  0
 10 11  2  0
 11 12  1  0
 13 12  1  1
 13 14  1  0
 14 15  1  0
 15 16  1  0
 16 17  1  0
 17 18  1  6
 16 19  1  6
 19 20  1  0
 20 21  1  0
 21 22  2  0
 21 23  1  0
 21 24  1  0
 15 25  1  6
 25 26  1  0
 26 27  2  0
 26 28  1  0
 26 29  1  0
  9  3  1  0
 17 13  1  0
 12  8  1  0
 18 16  1  0
M  CHG  4  23  -1  24  -1  28  -1  29  -1
M  END
$$$$
