
     RDKit          3D

 29 32  0  0  0  0  0  0  0  0999 V2000
   -4.2035   -2.8164   18.7893 C   0  0  0  0  0  0  0  0  0  0  0  0
   -3.7358   -4.0766   18.2480 N   0  0  0  0  0  0  0  0  0  0  0  0
   -2.6545   -4.1731   17.3473 C   0  0  0  0  0  0  0  0  0  0  0  0
   -1.4117   -4.3569   17.8207 N   0  0  0  0  0  0  0  0  0  0  0  0
   -0.3421   -4.4548   16.9796 C   0  0  0  0  0  0  0  0  0  0  0  0
    1.6129   -4.7424   17.6931 I   0  0  0  0  0  0  0  0  0  0  0  0
   -0.5742   -4.3617   15.6748 N   0  0  0  0  0  0  0  0  0  0  0  0
   -1.7842   -4.1783   15.1225 C   0  0  0  0  0  0  0  0  0  0  0  0
   -2.8651   -4.0810   16.0063 C   0  0  0  0  0  0  0  0  0  0  0  0
   -3.9445   -3.9039   15.2332 N   0  0  0  0  0  0  0  0  0  0  0  0
   -3.5441   -3.8935   13.9445 C   0  0  0  0  0  0  0  0  0  0  0  0
   -2.2133   -4.0617   13.8585 N   0  0  0  0  0  0  0  0  0  0  0  0
   -1.4015   -4.1102   12.6876 C   0  0  1  0  0  0  0  0  0  0  0  0
   -0.7676   -5.4315   12.4172 C   0  0  0  0  0  0  0  0  0  0  0  0
   -1.2563   -5.8546   11.0755 C   0  0  1  0  0  0  0  0  0  0  0  0
   -1.8183   -4.6755   10.3648 C   0  0  1  0  0  0  0  0  0  0  0  0
   -2.1173   -3.7045   11.4312 C   0  0  2  0  0  0  0  0  0  0  0  0
   -1.1556   -3.3676   10.2908 C   0  0  0  0  0  0  0  0  0  0  0  0
   -2.8450   -5.0051    9.3027 C   0  0  0  0  0  0  0  0  0  0  0  0
   -4.0143   -4.2708    9.4972 O   0  0  0  0  0  0  0  0  0  0  0  0
   -5.1520   -4.6382    8.3074 P   0  0  0  0  0  5  0  0  0  0  0  0
   -5.3032   -3.4378    7.3932 O   0  0  0  0  0  0  0  0  0  0  0  0
   -6.6398   -5.0618    8.9430 O   0  0  0  0  0  1  0  0  0  0  0  0
   -4.5988   -5.9644    7.3806 O   0  0  0  0  0  1  0  0  0  0  0  0
   -0.3037   -6.5507   10.3369 O   0  0  0  0  0  0  0  0  0  0  0  0
    0.4458   -7.7659   11.2481 P   0  0  0  0  0  5  0  0  0  0  0  0
    1.1479   -8.7696   10.3435 O   0  0  0  0  0  0  0  0  0  0  0  0
    1.5322   -7.1026   12.3663 O   0  0  0  0  0  1  0  0  0  0  0  0
   -0.7188   -8.6393   12.1158 O   0  0  0  0  0  1  0  0  0  0  0  0
  1  2  1  0
  2  3  1  0
  3  4  2  0
  4  5  1  0
  5  6  1  0
  5  7  2  0
  7  8  1  0
  8  9  2  0
  9 10  1  0
 10 11  2  0
 11 12  1  0
 13 12  1  1
 13 14  1  0
 14 15  1  0
 15 16  1  0
 16 17  1  0
 17 18  1  6
 16 19  1  6
 19 20  1  0
 20 21  1  0
 21 22  2  0
 21 23  1  0
 21 24  1  0
 15 25  1  6
 25 26  1  0
 26 27  2  0
 26 28  1  0
 26 29  1  0
  9  3  1  0
 17 13  1  0
 12  8  1  0
 18 16  1  0
M  CHG  4  23  -1  24  -1  28  -1  29  -1
M  END
$$$$
