
     RDKit          3D

 29 32  0  0  0  0  0  0  0  0999 V2000
    3.8322  -11.5217    8.6262 C   0  0  0  0  0  0  0  0  0  0  0  0
    4.7982  -12.5887    8.7943 N   0  0  0  0  0  0  0  0  0  0  0  0
    4.4824  -13.8248    9.3961 C   0  0  0  0  0  0  0  0  0  0  0  0
    4.5298  -13.9428   10.7326 N   0  0  0  0  0  0  0  0  0  0  0  0
    4.2309  -15.1225   11.3492 C   0  0  0  0  0  0  0  0  0  0  0  0
    4.2969  -15.3351   13.4382 I   0  0  0  0  0  0  0  0  0  0  0  0
    3.8911  -16.1508   10.5796 N   0  0  0  0  0  0  0  0  0  0  0  0
    3.8201  -16.1147    9.2393 C   0  0  0  0  0  0  0  0  0  0  0  0
    4.1313  -14.8935    8.6306 C   0  0  0  0  0  0  0  0  0  0  0  0
    3.9917  -15.1035    7.3152 N   0  0  0  0  0  0  0  0  0  0  0  0
    3.6149  -16.3860    7.1297 C   0  0  0  0  0  0  0  0  0  0  0  0
    3.5043  -17.0244    8.3073 N   0  0  0  0  0  0  0  0  0  0  0  0
    3.1326  -18.3795    8.5477 C   0  0  1  0  0  0  0  0  0  0  0  0
    1.7467  -18.5689    9.0616 C   0  0  0  0  0  0  0  0  0  0  0  0
    1.0554  -19.4371    8.0684 C   0  0  1  0  0  0  0  0  0  0  0  0
    2.0705  -20.1030    7.2097 C   0  0  1  0  0  0  0  0  0  0  0  0
    3.2801  -19.2745    7.3507 C   0  0  2  0  0  0  0  0  0  0  0  0
    3.2799  -20.7576    7.7235 C   0  0  0  0  0  0  0  0  0  0  0  0
    1.5696  -20.5221    5.8444 C   0  0  0  0  0  0  0  0  0  0  0  0
    1.6084  -19.4523    4.9510 O   0  0  0  0  0  0  0  0  0  0  0  0
    0.8595  -19.8643    3.4969 P   0  0  0  0  0  5  0  0  0  0  0  0
   -0.5877  -20.2183    3.7795 O   0  0  0  0  0  0  0  0  0  0  0  0
    1.6156  -21.1356    2.7165 O   0  0  0  0  0  1  0  0  0  0  0  0
    0.8967  -18.5229    2.4371 O   0  0  0  0  0  1  0  0  0  0  0  0
    0.1468  -20.3191    8.6464 O   0  0  0  0  0  0  0  0  0  0  0  0
   -1.0609  -19.5108    9.5161 P   0  0  0  0  0  5  0  0  0  0  0  0
   -0.4555  -18.4750   10.4539 O   0  0  0  0  0  0  0  0  0  0  0  0
   -2.1827  -18.7910    8.4701 O   0  0  0  0  0  1  0  0  0  0  0  0
   -1.9005  -20.6088   10.4967 O   0  0  0  0  0  1  0  0  0  0  0  0
  1  2  1  0
  2  3  1  0
  3  4  2  0
  4  5  1  0
  5  6  1  0
  5  7  2  0
  7  8  1  0
  8  9  2  0
  9 10  1  0
 10 11  2  0
 11 12  1  0
 13 12  1  6
 13 14  1  0
 14 15  1  0
 15 16  1  0
 16 17  1  0
 17 18  1  1
 16 19  1  6
 19 20  1  0
 20 21  1  0
 21 22  2  0
 21 23  1  0
 21 24  1  0
 15 25  1  1
 25 26  1  0
 26 27  2  0
 26 28  1  0
 26 29  1  0
  9  3  1  0
 17 13  1  0
 12  8  1  0
 18 16  1  0
M  CHG  4  23  -1  24  -1  28  -1  29  -1
M  END
$$$$
