
     RDKit          3D

 29 32  0  0  0  0  0  0  0  0999 V2000
    0.6530  -17.5204   13.7147 C   0  0  0  0  0  0  0  0  0  0  0  0
    0.5765  -18.0363   12.3628 N   0  0  0  0  0  0  0  0  0  0  0  0
    1.3975  -17.5712   11.3142 C   0  0  0  0  0  0  0  0  0  0  0  0
    2.2853  -16.5925   11.5516 N   0  0  0  0  0  0  0  0  0  0  0  0
    3.0956  -16.1177   10.5620 C   0  0  0  0  0  0  0  0  0  0  0  0
    4.4933  -14.5873   10.9055 I   0  0  0  0  0  0  0  0  0  0  0  0
    2.9748  -16.6588    9.3546 N   0  0  0  0  0  0  0  0  0  0  0  0
    2.1138  -17.6386    9.0362 C   0  0  0  0  0  0  0  0  0  0  0  0
    1.2938  -18.1083   10.0684 C   0  0  0  0  0  0  0  0  0  0  0  0
    0.5361  -19.0649    9.5162 N   0  0  0  0  0  0  0  0  0  0  0  0
    0.8755  -19.1740    8.2147 C   0  0  0  0  0  0  0  0  0  0  0  0
    1.8480  -18.3006    7.9018 N   0  0  0  0  0  0  0  0  0  0  0  0
    2.4827  -18.0971    6.6417 C   0  0  1  0  0  0  0  0  0  0  0  0
    3.8157  -18.7474    6.4975 C   0  0  0  0  0  0  0  0  0  0  0  0
    3.6965  -19.6762    5.3393 C   0  0  1  0  0  0  0  0  0  0  0  0
    2.4962  -19.3117    4.5409 C   0  0  1  0  0  0  0  0  0  0  0  0
    1.6563  -18.5305    5.4649 C   0  0  2  0  0  0  0  0  0  0  0  0
    2.1571  -17.9388    4.1466 C   0  0  0  0  0  0  0  0  0  0  0  0
    1.9097  -20.4433    3.7247 C   0  0  0  0  0  0  0  0  0  0  0  0
    0.7733  -20.9642    4.3422 O   0  0  0  0  0  0  0  0  0  0  0  0
   -0.2723  -21.6305    3.1987 P   0  0  0  0  0  5  0  0  0  0  0  0
   -0.6348  -20.5585    2.1894 O   0  0  0  0  0  0  0  0  0  0  0  0
   -1.6614  -22.2631    3.8824 O   0  0  0  0  0  1  0  0  0  0  0  0
    0.5179  -22.9068    2.3799 O   0  0  0  0  0  1  0  0  0  0  0  0
    4.8628  -19.7682    4.5852 O   0  0  0  0  0  0  0  0  0  0  0  0
    6.2486  -19.4897    5.5182 P   0  0  0  0  0  5  0  0  0  0  0  0
    6.2415  -18.0809    6.0960 O   0  0  0  0  0  0  0  0  0  0  0  0
    6.3918  -20.6436    6.7506 O   0  0  0  0  0  1  0  0  0  0  0  0
    7.6320  -19.5991    4.5455 O   0  0  0  0  0  1  0  0  0  0  0  0
  1  2  1  0
  2  3  1  0
  3  4  2  0
  4  5  1  0
  5  6  1  0
  5  7  2  0
  7  8  1  0
  8  9  2  0
  9 10  1  0
 10 11  2  0
 11 12  1  0
 13 12  1  1
 13 14  1  0
 14 15  1  0
 15 16  1  0
 16 17  1  0
 17 18  1  6
 16 19  1  6
 19 20  1  0
 20 21  1  0
 21 22  2  0
 21 23  1  0
 21 24  1  0
 15 25  1  6
 25 26  1  0
 26 27  2  0
 26 28  1  0
 26 29  1  0
  9  3  1  0
 17 13  1  0
 12  8  1  0
 18 16  1  0
M  CHG  4  23  -1  24  -1  28  -1  29  -1
M  END
$$$$
