
     RDKit          3D

 29 32  0  0  0  0  0  0  0  0999 V2000
    0.6561    1.7690    6.9046 C   0  0  0  0  0  0  0  0  0  0  0  0
    0.2773    2.0286    8.2790 N   0  0  0  0  0  0  0  0  0  0  0  0
    0.7049    1.2285    9.3592 C   0  0  0  0  0  0  0  0  0  0  0  0
    1.7919    1.5876   10.0607 N   0  0  0  0  0  0  0  0  0  0  0  0
    2.2345    0.8384   11.1114 C   0  0  0  0  0  0  0  0  0  0  0  0
    3.9320    1.3768   12.2260 I   0  0  0  0  0  0  0  0  0  0  0  0
    1.5514   -0.2597   11.4157 N   0  0  0  0  0  0  0  0  0  0  0  0
    0.4571   -0.6867   10.7655 C   0  0  0  0  0  0  0  0  0  0  0  0
    0.0231    0.0990    9.6917 C   0  0  0  0  0  0  0  0  0  0  0  0
   -1.0637   -0.5196    9.2120 N   0  0  0  0  0  0  0  0  0  0  0  0
   -1.2824   -1.6255    9.9538 C   0  0  0  0  0  0  0  0  0  0  0  0
   -0.3527   -1.7436   10.9172 N   0  0  0  0  0  0  0  0  0  0  0  0
   -0.2268   -2.7635   11.9052 C   0  0  1  0  0  0  0  0  0  0  0  0
   -1.3106   -2.7845   12.9278 C   0  0  0  0  0  0  0  0  0  0  0  0
   -1.9425   -4.1296   12.8290 C   0  0  1  0  0  0  0  0  0  0  0  0
   -1.0327   -5.0450   12.0906 C   0  0  1  0  0  0  0  0  0  0  0  0
   -0.1328   -4.1520   11.3406 C   0  0  2  0  0  0  0  0  0  0  0  0
    0.4068   -5.1621   12.3542 C   0  0  0  0  0  0  0  0  0  0  0  0
   -1.7200   -6.2082   11.4085 C   0  0  0  0  0  0  0  0  0  0  0  0
   -2.3492   -5.7946   10.2349 O   0  0  0  0  0  0  0  0  0  0  0  0
   -3.1198   -7.0934    9.4837 P   0  0  0  0  0  5  0  0  0  0  0  0
   -4.3372   -7.4753   10.3031 O   0  0  0  0  0  0  0  0  0  0  0  0
   -2.1189   -8.4202    9.2971 O   0  0  0  0  0  1  0  0  0  0  0  0
   -3.6372   -6.6234    7.9232 O   0  0  0  0  0  1  0  0  0  0  0  0
   -2.3642   -4.6312   14.0570 O   0  0  0  0  0  0  0  0  0  0  0  0
   -2.9970   -3.4195   15.0570 P   0  0  0  0  0  5  0  0  0  0  0  0
   -2.0698   -3.1454   16.2334 O   0  0  0  0  0  0  0  0  0  0  0  0
   -3.2892   -2.0001   14.1791 O   0  0  0  0  0  1  0  0  0  0  0  0
   -4.4711   -3.9286   15.7203 O   0  0  0  0  0  1  0  0  0  0  0  0
  1  2  1  0
  2  3  1  0
  3  4  2  0
  4  5  1  0
  5  6  1  0
  5  7  2  0
  7  8  1  0
  8  9  2  0
  9 10  1  0
 10 11  2  0
 11 12  1  0
 13 12  1  6
 13 14  1  0
 14 15  1  0
 15 16  1  0
 16 17  1  0
 17 18  1  1
 16 19  1  6
 19 20  1  0
 20 21  1  0
 21 22  2  0
 21 23  1  0
 21 24  1  0
 15 25  1  1
 25 26  1  0
 26 27  2  0
 26 28  1  0
 26 29  1  0
  9  3  1  0
 17 13  1  0
 12  8  1  0
 18 16  1  0
M  CHG  4  23  -1  24  -1  28  -1  29  -1
M  END
$$$$
