
     RDKit          3D

 29 32  0  0  0  0  0  0  0  0999 V2000
   -0.2467   -1.4913   18.3289 C   0  0  0  0  0  0  0  0  0  0  0  0
    0.0108   -2.7861   17.7313 N   0  0  0  0  0  0  0  0  0  0  0  0
   -0.6399   -3.2380   16.5642 C   0  0  0  0  0  0  0  0  0  0  0  0
   -1.5372   -2.4455   15.9564 N   0  0  0  0  0  0  0  0  0  0  0  0
   -2.1859   -2.8492   14.8261 C   0  0  0  0  0  0  0  0  0  0  0  0
   -3.5942   -1.6298   13.8548 I   0  0  0  0  0  0  0  0  0  0  0  0
   -1.8979   -4.0550   14.3482 N   0  0  0  0  0  0  0  0  0  0  0  0
   -1.0153   -4.9059   14.8956 C   0  0  0  0  0  0  0  0  0  0  0  0
   -0.3632   -4.4686   16.0541 C   0  0  0  0  0  0  0  0  0  0  0  0
    0.4519   -5.4715   16.4061 N   0  0  0  0  0  0  0  0  0  0  0  0
    0.3054   -6.4694   15.5095 C   0  0  0  0  0  0  0  0  0  0  0  0
   -0.5966   -6.1366   14.5703 N   0  0  0  0  0  0  0  0  0  0  0  0
   -1.0363   -6.9059   13.4537 C   0  0  1  0  0  0  0  0  0  0  0  0
   -0.6507   -6.3580   12.1226 C   0  0  0  0  0  0  0  0  0  0  0  0
    0.1621   -7.4170   11.4622 C   0  0  1  0  0  0  0  0  0  0  0  0
   -0.0628   -8.7120   12.1577 C   0  0  1  0  0  0  0  0  0  0  0  0
   -0.5849   -8.3381   13.4833 C   0  0  2  0  0  0  0  0  0  0  0  0
   -1.3866   -9.2257   12.5304 C   0  0  0  0  0  0  0  0  0  0  0  0
    1.0661   -9.7105   12.0197 C   0  0  0  0  0  0  0  0  0  0  0  0
    1.2744  -10.0431   10.6817 O   0  0  0  0  0  0  0  0  0  0  0  0
    2.2685  -11.3997   10.5539 P   0  0  0  0  0  5  0  0  0  0  0  0
    1.3944  -12.6364   10.4756 O   0  0  0  0  0  0  0  0  0  0  0  0
    3.3409  -11.5391   11.8296 O   0  0  0  0  0  1  0  0  0  0  0  0
    3.1947  -11.2940    9.1204 O   0  0  0  0  0  1  0  0  0  0  0  0
   -0.0312   -7.4810   10.0853 O   0  0  0  0  0  0  0  0  0  0  0  0
    0.0956   -5.9593    9.3526 P   0  0  0  0  0  5  0  0  0  0  0  0
   -1.1774   -5.1490    9.5572 O   0  0  0  0  0  0  0  0  0  0  0  0
    1.4445   -5.1160    9.9357 O   0  0  0  0  0  1  0  0  0  0  0  0
    0.2830   -6.1378    7.6778 O   0  0  0  0  0  1  0  0  0  0  0  0
  1  2  1  0
  2  3  1  0
  3  4  2  0
  4  5  1  0
  5  6  1  0
  5  7  2  0
  7  8  1  0
  8  9  2  0
  9 10  1  0
 10 11  2  0
 11 12  1  0
 13 12  1  1
 13 14  1  0
 14 15  1  0
 15 16  1  0
 16 17  1  0
 17 18  1  6
 16 19  1  1
 19 20  1  0
 20 21  1  0
 21 22  2  0
 21 23  1  0
 21 24  1  0
 15 25  1  6
 25 26  1  0
 26 27  2  0
 26 28  1  0
 26 29  1  0
  9  3  1  0
 17 13  1  0
 12  8  1  0
 18 16  1  0
M  CHG  4  23  -1  24  -1  28  -1  29  -1
M  END
$$$$
