
     RDKit          3D

 29 32  0  0  0  0  0  0  0  0999 V2000
    2.9408  -11.5217   11.9397 C   0  0  0  0  0  0  0  0  0  0  0  0
    2.6302  -12.8258   11.3895 N   0  0  0  0  0  0  0  0  0  0  0  0
    3.4528  -13.4797   10.4484 C   0  0  0  0  0  0  0  0  0  0  0  0
    4.5729  -12.8788   10.0164 N   0  0  0  0  0  0  0  0  0  0  0  0
    5.3925  -13.4809    9.1069 C   0  0  0  0  0  0  0  0  0  0  0  0
    7.1509  -12.5637    8.4138 I   0  0  0  0  0  0  0  0  0  0  0  0
    5.0424  -14.6836    8.6640 N   0  0  0  0  0  0  0  0  0  0  0  0
    3.9412  -15.3504    9.0453 C   0  0  0  0  0  0  0  0  0  0  0  0
    3.1170  -14.7117    9.9789 C   0  0  0  0  0  0  0  0  0  0  0  0
    2.1023  -15.5580   10.1983 N   0  0  0  0  0  0  0  0  0  0  0  0
    2.2963  -16.6563    9.4387 C   0  0  0  0  0  0  0  0  0  0  0  0
    3.4270  -16.5445    8.7207 N   0  0  0  0  0  0  0  0  0  0  0  0
    3.9873  -17.4788    7.8012 C   0  0  1  0  0  0  0  0  0  0  0  0
    4.4514  -18.7576    8.4096 C   0  0  0  0  0  0  0  0  0  0  0  0
    3.6778  -19.8374    7.7361 C   0  0  1  0  0  0  0  0  0  0  0  0
    3.0807  -19.3036    6.4832 C   0  0  1  0  0  0  0  0  0  0  0  0
    3.0728  -17.8421    6.6666 C   0  0  2  0  0  0  0  0  0  0  0  0
    3.8155  -18.4969    5.5012 C   0  0  0  0  0  0  0  0  0  0  0  0
    1.8433  -20.0346    6.0087 C   0  0  0  0  0  0  0  0  0  0  0  0
    0.7499  -19.7407    6.8225 O   0  0  0  0  0  0  0  0  0  0  0  0
   -0.6266  -20.5544    6.2860 P   0  0  0  0  0  5  0  0  0  0  0  0
   -0.3454  -22.0445    6.2985 O   0  0  0  0  0  0  0  0  0  0  0  0
   -1.1058  -20.0774    4.7563 O   0  0  0  0  0  1  0  0  0  0  0  0
   -1.9274  -20.2352    7.3489 O   0  0  0  0  0  1  0  0  0  0  0  0
    4.4103  -21.0067    7.5522 O   0  0  0  0  0  0  0  0  0  0  0  0
    5.4493  -21.3188    8.8528 P   0  0  0  0  0  5  0  0  0  0  0  0
    6.8324  -21.7223    8.3597 O   0  0  0  0  0  0  0  0  0  0  0  0
    5.5471  -19.9795    9.8858 O   0  0  0  0  0  1  0  0  0  0  0  0
    4.8656  -22.6272    9.7581 O   0  0  0  0  0  1  0  0  0  0  0  0
  1  2  1  0
  2  3  1  0
  3  4  2  0
  4  5  1  0
  5  6  1  0
  5  7  2  0
  7  8  1  0
  8  9  2  0
  9 10  1  0
 10 11  2  0
 11 12  1  0
 13 12  1  1
 13 14  1  0
 14 15  1  0
 15 16  1  0
 16 17  1  0
 17 18  1  6
 16 19  1  6
 19 20  1  0
 20 21  1  0
 21 22  2  0
 21 23  1  0
 21 24  1  0
 15 25  1  6
 25 26  1  0
 26 27  2  0
 26 28  1  0
 26 29  1  0
  9  3  1  0
 17 13  1  0
 12  8  1  0
 18 16  1  0
M  CHG  4  23  -1  24  -1  28  -1  29  -1
M  END
$$$$
