
     RDKit          3D

 29 32  0  0  0  0  0  0  0  0999 V2000
    0.7631  -11.7068   10.7518 C   0  0  0  0  0  0  0  0  0  0  0  0
   -0.1062  -10.5670   10.9641 N   0  0  0  0  0  0  0  0  0  0  0  0
    0.2883   -9.4228   11.6886 C   0  0  0  0  0  0  0  0  0  0  0  0
    1.5340   -9.3486   12.1838 N   0  0  0  0  0  0  0  0  0  0  0  0
    1.9505   -8.2578   12.8893 C   0  0  0  0  0  0  0  0  0  0  0  0
    3.8936   -8.1154   13.6753 I   0  0  0  0  0  0  0  0  0  0  0  0
    1.0791   -7.2711   13.0690 N   0  0  0  0  0  0  0  0  0  0  0  0
   -0.1817   -7.2683   12.6073 C   0  0  0  0  0  0  0  0  0  0  0  0
   -0.5848   -8.3983   11.8868 C   0  0  0  0  0  0  0  0  0  0  0  0
   -1.8567   -8.1651   11.5377 N   0  0  0  0  0  0  0  0  0  0  0  0
   -2.2122   -6.9558   12.0196 C   0  0  0  0  0  0  0  0  0  0  0  0
   -1.1898   -6.3886   12.6825 N   0  0  0  0  0  0  0  0  0  0  0  0
   -1.1533   -5.1228   13.3372 C   0  0  1  0  0  0  0  0  0  0  0  0
   -0.7801   -3.9745   12.4637 C   0  0  0  0  0  0  0  0  0  0  0  0
   -1.9273   -3.0263   12.5193 C   0  0  1  0  0  0  0  0  0  0  0  0
   -2.7793   -3.3567   13.6924 C   0  0  1  0  0  0  0  0  0  0  0  0
   -2.4382   -4.7516   14.0204 C   0  0  2  0  0  0  0  0  0  0  0  0
   -2.2571   -3.6245   15.0381 C   0  0  0  0  0  0  0  0  0  0  0  0
   -4.2223   -2.9165   13.5723 C   0  0  0  0  0  0  0  0  0  0  0  0
   -4.9083   -3.7082   12.6520 O   0  0  0  0  0  0  0  0  0  0  0  0
   -6.4314   -3.0599   12.3286 P   0  0  0  0  0  5  0  0  0  0  0  0
   -6.3192   -2.1270   11.1383 O   0  0  0  0  0  0  0  0  0  0  0  0
   -7.0776   -2.2410   13.6359 O   0  0  0  0  0  1  0  0  0  0  0  0
   -7.5153   -4.3219   11.9330 O   0  0  0  0  0  1  0  0  0  0  0  0
   -1.5402   -1.6903   12.4681 O   0  0  0  0  0  0  0  0  0  0  0  0
   -0.5106   -1.3748   11.1608 P   0  0  0  0  0  5  0  0  0  0  0  0
   -1.0873   -0.2877   10.2639 O   0  0  0  0  0  0  0  0  0  0  0  0
    1.0391   -0.9505   11.6982 O   0  0  0  0  0  1  0  0  0  0  0  0
   -0.3609   -2.7596   10.1955 O   0  0  0  0  0  1  0  0  0  0  0  0
  1  2  1  0
  2  3  1  0
  3  4  2  0
  4  5  1  0
  5  6  1  0
  5  7  2  0
  7  8  1  0
  8  9  2  0
  9 10  1  0
 10 11  2  0
 11 12  1  0
 13 12  1  6
 13 14  1  0
 14 15  1  0
 15 16  1  0
 16 17  1  0
 17 18  1  1
 16 19  1  1
 19 20  1  0
 20 21  1  0
 21 22  2  0
 21 23  1  0
 21 24  1  0
 15 25  1  1
 25 26  1  0
 26 27  2  0
 26 28  1  0
 26 29  1  0
  9  3  1  0
 17 13  1  0
 12  8  1  0
 18 16  1  0
M  CHG  4  23  -1  24  -1  28  -1  29  -1
M  END
$$$$
