
     RDKit          3D

 29 32  0  0  0  0  0  0  0  0999 V2000
    0.2251  -12.1660   11.9627 C   0  0  0  0  0  0  0  0  0  0  0  0
   -0.5867  -11.0056   12.2697 N   0  0  0  0  0  0  0  0  0  0  0  0
   -0.0570   -9.7026   12.3765 C   0  0  0  0  0  0  0  0  0  0  0  0
    1.2287   -9.4815   12.0595 N   0  0  0  0  0  0  0  0  0  0  0  0
    1.7750   -8.2347   12.1506 C   0  0  0  0  0  0  0  0  0  0  0  0
    3.7835   -7.8605   11.6611 I   0  0  0  0  0  0  0  0  0  0  0  0
    0.9889   -7.2467   12.5643 N   0  0  0  0  0  0  0  0  0  0  0  0
   -0.3038   -7.3847   12.8996 C   0  0  0  0  0  0  0  0  0  0  0  0
   -0.8407   -8.6732   12.7977 C   0  0  0  0  0  0  0  0  0  0  0  0
   -2.1198   -8.5589   13.1784 N   0  0  0  0  0  0  0  0  0  0  0  0
   -2.3523   -7.2682   13.4963 C   0  0  0  0  0  0  0  0  0  0  0  0
   -1.2417   -6.5297   13.3298 N   0  0  0  0  0  0  0  0  0  0  0  0
   -1.0660   -5.1329   13.5541 C   0  0  1  0  0  0  0  0  0  0  0  0
   -1.2876   -4.2720   12.3581 C   0  0  0  0  0  0  0  0  0  0  0  0
   -2.3878   -3.3369   12.7232 C   0  0  1  0  0  0  0  0  0  0  0  0
   -2.5506   -3.3257   14.2012 C   0  0  1  0  0  0  0  0  0  0  0  0
   -1.9239   -4.5789   14.6554 C   0  0  2  0  0  0  0  0  0  0  0  0
   -1.4358   -3.2166   15.1502 C   0  0  0  0  0  0  0  0  0  0  0  0
   -3.9278   -2.9251   14.6845 C   0  0  0  0  0  0  0  0  0  0  0  0
   -3.8985   -2.5752   16.0340 O   0  0  0  0  0  0  0  0  0  0  0  0
   -5.4393   -2.1490   16.5715 P   0  0  0  0  0  5  0  0  0  0  0  0
   -6.3035   -3.3946   16.6050 O   0  0  0  0  0  0  0  0  0  0  0  0
   -6.1589   -0.9813   15.6146 O   0  0  0  0  0  1  0  0  0  0  0  0
   -5.3344   -1.5143   18.1558 O   0  0  0  0  0  1  0  0  0  0  0  0
   -2.2401   -2.0693   12.1675 O   0  0  0  0  0  0  0  0  0  0  0  0
   -1.3769   -2.1088   10.7108 P   0  0  0  0  0  5  0  0  0  0  0  0
   -0.1512   -3.0046   10.8286 O   0  0  0  0  0  0  0  0  0  0  0  0
   -2.3680   -2.6122    9.4321 O   0  0  0  0  0  1  0  0  0  0  0  0
   -0.8008   -0.5593   10.3379 O   0  0  0  0  0  1  0  0  0  0  0  0
  1  2  1  0
  2  3  1  0
  3  4  2  0
  4  5  1  0
  5  6  1  0
  5  7  2  0
  7  8  1  0
  8  9  2  0
  9 10  1  0
 10 11  2  0
 11 12  1  0
 13 12  1  6
 13 14  1  0
 14 15  1  0
 15 16  1  0
 16 17  1  0
 17 18  1  1
 16 19  1  6
 19 20  1  0
 20 21  1  0
 21 22  2  0
 21 23  1  0
 21 24  1  0
 15 25  1  1
 25 26  1  0
 26 27  2  0
 26 28  1  0
 26 29  1  0
  9  3  1  0
 17 13  1  0
 12  8  1  0
 18 16  1  0
M  CHG  4  23  -1  24  -1  28  -1  29  -1
M  END
$$$$
