
     RDKit          3D

 29 32  0  0  0  0  0  0  0  0999 V2000
   -2.5604  -19.9037    5.5790 C   0  0  0  0  0  0  0  0  0  0  0  0
   -1.6797  -19.1412    6.4410 N   0  0  0  0  0  0  0  0  0  0  0  0
   -0.3021  -19.4160    6.5700 C   0  0  0  0  0  0  0  0  0  0  0  0
    0.2062  -20.5298    6.0191 N   0  0  0  0  0  0  0  0  0  0  0  0
    1.5334  -20.8280    6.1236 C   0  0  0  0  0  0  0  0  0  0  0  0
    2.3552  -22.5635    5.2716 I   0  0  0  0  0  0  0  0  0  0  0  0
    2.3052  -19.9764    6.7903 N   0  0  0  0  0  0  0  0  0  0  0  0
    1.8753  -18.8437    7.3689 C   0  0  0  0  0  0  0  0  0  0  0  0
    0.5101  -18.5603    7.2476 C   0  0  0  0  0  0  0  0  0  0  0  0
    0.3265  -17.4015    7.8938 N   0  0  0  0  0  0  0  0  0  0  0  0
    1.5172  -16.9979    8.3842 C   0  0  0  0  0  0  0  0  0  0  0  0
    2.4840  -17.8769    8.0692 N   0  0  0  0  0  0  0  0  0  0  0  0
    3.8707  -17.8215    8.3953 C   0  0  1  0  0  0  0  0  0  0  0  0
    4.7947  -17.9430    7.2325 C   0  0  0  0  0  0  0  0  0  0  0  0
    5.6088  -16.6959    7.2227 C   0  0  1  0  0  0  0  0  0  0  0  0
    5.5004  -16.0299    8.5478 C   0  0  1  0  0  0  0  0  0  0  0  0
    4.2727  -16.5834    9.1444 C   0  0  2  0  0  0  0  0  0  0  0  0
    5.6308  -16.7289    9.8322 C   0  0  0  0  0  0  0  0  0  0  0  0
    5.7521  -14.5376    8.5301 C   0  0  0  0  0  0  0  0  0  0  0  0
    4.6354  -13.8399    8.9887 O   0  0  0  0  0  0  0  0  0  0  0  0
    4.9075  -12.1764    8.9286 P   0  0  0  0  0  5  0  0  0  0  0  0
    5.0372  -11.7579    7.4769 O   0  0  0  0  0  0  0  0  0  0  0  0
    6.2701  -11.7119    9.7800 O   0  0  0  0  0  1  0  0  0  0  0  0
    3.5742  -11.3560    9.6165 O   0  0  0  0  0  1  0  0  0  0  0  0
    6.9209  -16.8983    6.8045 O   0  0  0  0  0  0  0  0  0  0  0  0
    7.0069  -17.3619    5.1778 P   0  0  0  0  0  5  0  0  0  0  0  0
    8.0912  -18.4100    4.9671 O   0  0  0  0  0  0  0  0  0  0  0  0
    5.5079  -17.9298    4.6291 O   0  0  0  0  0  1  0  0  0  0  0  0
    7.4369  -16.0318    4.2195 O   0  0  0  0  0  1  0  0  0  0  0  0
  1  2  1  0
  2  3  1  0
  3  4  2  0
  4  5  1  0
  5  6  1  0
  5  7  2  0
  7  8  1  0
  8  9  2  0
  9 10  1  0
 10 11  2  0
 11 12  1  0
 13 12  1  6
 13 14  1  0
 14 15  1  0
 15 16  1  0
 16 17  1  0
 17 18  1  1
 16 19  1  6
 19 20  1  0
 20 21  1  0
 21 22  2  0
 21 23  1  0
 21 24  1  0
 15 25  1  1
 25 26  1  0
 26 27  2  0
 26 28  1  0
 26 29  1  0
  9  3  1  0
 17 13  1  0
 12  8  1  0
 18 16  1  0
M  CHG  4  23  -1  24  -1  28  -1  29  -1
M  END
$$$$
