
     RDKit          3D

 29 32  0  0  0  0  0  0  0  0999 V2000
    2.3048  -11.3993   11.8869 C   0  0  0  0  0  0  0  0  0  0  0  0
    2.0891  -12.7261   11.3458 N   0  0  0  0  0  0  0  0  0  0  0  0
    3.0463  -13.4016   10.5602 C   0  0  0  0  0  0  0  0  0  0  0  0
    4.2529  -12.8469   10.3630 N   0  0  0  0  0  0  0  0  0  0  0  0
    5.2033  -13.4711    9.6092 C   0  0  0  0  0  0  0  0  0  0  0  0
    7.0991  -12.6261    9.2844 I   0  0  0  0  0  0  0  0  0  0  0  0
    4.8921  -14.6480    9.0769 N   0  0  0  0  0  0  0  0  0  0  0  0
    3.7109  -15.2687    9.2262 C   0  0  0  0  0  0  0  0  0  0  0  0
    2.7529  -14.6081   10.0038 C   0  0  0  0  0  0  0  0  0  0  0  0
    1.6795  -15.4092   10.0057 N   0  0  0  0  0  0  0  0  0  0  0  0
    1.9665  -16.5021    9.2680 C   0  0  0  0  0  0  0  0  0  0  0  0
    3.2167  -16.4313    8.7794 N   0  0  0  0  0  0  0  0  0  0  0  0
    3.9004  -17.3749    7.9582 C   0  0  1  0  0  0  0  0  0  0  0  0
    4.0720  -18.7260    8.5631 C   0  0  0  0  0  0  0  0  0  0  0  0
    3.3955  -19.6785    7.6393 C   0  0  1  0  0  0  0  0  0  0  0  0
    3.1884  -19.0199    6.3223 C   0  0  1  0  0  0  0  0  0  0  0  0
    3.2729  -17.5775    6.6088 C   0  0  2  0  0  0  0  0  0  0  0  0
    4.2210  -18.2516    5.6162 C   0  0  0  0  0  0  0  0  0  0  0  0
    2.0480  -19.5847    5.5031 C   0  0  0  0  0  0  0  0  0  0  0  0
    0.8751  -19.6387    6.2552 O   0  0  0  0  0  0  0  0  0  0  0  0
   -0.3980  -20.2435    5.3288 P   0  0  0  0  0  5  0  0  0  0  0  0
   -0.5538  -19.3776    4.0938 O   0  0  0  0  0  0  0  0  0  0  0  0
   -1.8417  -20.3005    6.1712 O   0  0  0  0  0  1  0  0  0  0  0  0
   -0.0346  -21.8396    4.8345 O   0  0  0  0  0  1  0  0  0  0  0  0
    4.0364  -20.9111    7.5534 O   0  0  0  0  0  0  0  0  0  0  0  0
    4.9695  -21.2413    8.9277 P   0  0  0  0  0  5  0  0  0  0  0  0
    4.2684  -20.7587   10.1904 O   0  0  0  0  0  0  0  0  0  0  0  0
    5.3284  -22.8937    9.0342 O   0  0  0  0  0  1  0  0  0  0  0  0
    6.4376  -20.3987    8.8459 O   0  0  0  0  0  1  0  0  0  0  0  0
  1  2  1  0
  2  3  1  0
  3  4  2  0
  4  5  1  0
  5  6  1  0
  5  7  2  0
  7  8  1  0
  8  9  2  0
  9 10  1  0
 10 11  2  0
 11 12  1  0
 13 12  1  1
 13 14  1  0
 14 15  1  0
 15 16  1  0
 16 17  1  0
 17 18  1  6
 16 19  1  6
 19 20  1  0
 20 21  1  0
 21 22  2  0
 21 23  1  0
 21 24  1  0
 15 25  1  6
 25 26  1  0
 26 27  2  0
 26 28  1  0
 26 29  1  0
  9  3  1  0
 17 13  1  0
 12  8  1  0
 18 16  1  0
M  CHG  4  23  -1  24  -1  28  -1  29  -1
M  END
$$$$
