
     RDKit          3D

 29 32  0  0  0  0  0  0  0  0999 V2000
   -2.4116   -2.6637   19.6147 C   0  0  0  0  0  0  0  0  0  0  0  0
   -2.5340   -3.5033   18.4400 N   0  0  0  0  0  0  0  0  0  0  0  0
   -1.4837   -3.6944   17.5180 C   0  0  0  0  0  0  0  0  0  0  0  0
   -0.2382   -3.3132   17.8436 N   0  0  0  0  0  0  0  0  0  0  0  0
    0.8021   -3.4824   16.9773 C   0  0  0  0  0  0  0  0  0  0  0  0
    2.7604   -2.8952   17.4607 I   0  0  0  0  0  0  0  0  0  0  0  0
    0.5386   -4.0381   15.7996 N   0  0  0  0  0  0  0  0  0  0  0  0
   -0.6763   -4.4457   15.3989 C   0  0  0  0  0  0  0  0  0  0  0  0
   -1.7267   -4.2612   16.3052 C   0  0  0  0  0  0  0  0  0  0  0  0
   -2.8175   -4.7365   15.6902 N   0  0  0  0  0  0  0  0  0  0  0  0
   -2.4528   -5.1877   14.4718 C   0  0  0  0  0  0  0  0  0  0  0  0
   -1.1343   -5.0157   14.2759 N   0  0  0  0  0  0  0  0  0  0  0  0
   -0.3582   -5.3562   13.1296 C   0  0  1  0  0  0  0  0  0  0  0  0
   -0.1385   -6.8167   12.9311 C   0  0  0  0  0  0  0  0  0  0  0  0
   -0.7133   -7.1409   11.5960 C   0  0  1  0  0  0  0  0  0  0  0  0
   -0.8940   -5.8839   10.8224 C   0  0  1  0  0  0  0  0  0  0  0  0
   -0.9070   -4.8183   11.8392 C   0  0  2  0  0  0  0  0  0  0  0  0
    0.1255   -4.8335   10.7111 C   0  0  0  0  0  0  0  0  0  0  0  0
   -1.9589   -5.9475    9.7487 C   0  0  0  0  0  0  0  0  0  0  0  0
   -3.0905   -5.2264   10.1280 O   0  0  0  0  0  0  0  0  0  0  0  0
   -4.1373   -5.0311    8.8200 P   0  0  0  0  0  5  0  0  0  0  0  0
   -4.1050   -6.2931    7.9799 O   0  0  0  0  0  0  0  0  0  0  0  0
   -3.7520   -3.7065    7.8744 O   0  0  0  0  0  1  0  0  0  0  0  0
   -5.7306   -4.7987    9.3955 O   0  0  0  0  0  1  0  0  0  0  0  0
    0.0011   -8.1204   10.9121 O   0  0  0  0  0  0  0  0  0  0  0  0
    0.1809   -9.5339   11.8276 P   0  0  0  0  0  5  0  0  0  0  0  0
   -1.0869  -10.3762   11.7831 O   0  0  0  0  0  0  0  0  0  0  0  0
    1.5173  -10.4319   11.3004 O   0  0  0  0  0  1  0  0  0  0  0  0
    0.4342   -9.1396   13.4563 O   0  0  0  0  0  1  0  0  0  0  0  0
  1  2  1  0
  2  3  1  0
  3  4  2  0
  4  5  1  0
  5  6  1  0
  5  7  2  0
  7  8  1  0
  8  9  2  0
  9 10  1  0
 10 11  2  0
 11 12  1  0
 13 12  1  1
 13 14  1  0
 14 15  1  0
 15 16  1  0
 16 17  1  0
 17 18  1  6
 16 19  1  6
 19 20  1  0
 20 21  1  0
 21 22  2  0
 21 23  1  0
 21 24  1  0
 15 25  1  6
 25 26  1  0
 26 27  2  0
 26 28  1  0
 26 29  1  0
  9  3  1  0
 17 13  1  0
 12  8  1  0
 18 16  1  0
M  CHG  4  23  -1  24  -1  28  -1  29  -1
M  END
$$$$
