
     RDKit          3D

 29 32  0  0  0  0  0  0  0  0999 V2000
    6.0619  -11.8905    4.5083 C   0  0  0  0  0  0  0  0  0  0  0  0
    5.6485  -13.2178    4.9173 N   0  0  0  0  0  0  0  0  0  0  0  0
    5.1846  -13.5129    6.2164 C   0  0  0  0  0  0  0  0  0  0  0  0
    5.2153  -12.5618    7.1634 N   0  0  0  0  0  0  0  0  0  0  0  0
    4.7750  -12.8111    8.4303 C   0  0  0  0  0  0  0  0  0  0  0  0
    4.8116  -11.3416    9.9313 I   0  0  0  0  0  0  0  0  0  0  0  0
    4.3146  -14.0293    8.6937 N   0  0  0  0  0  0  0  0  0  0  0  0
    4.2506  -15.0334    7.8047 C   0  0  0  0  0  0  0  0  0  0  0  0
    4.7082  -14.7526    6.5122 C   0  0  0  0  0  0  0  0  0  0  0  0
    4.5462  -15.8882    5.8208 N   0  0  0  0  0  0  0  0  0  0  0  0
    4.0175  -16.8145    6.6475 C   0  0  0  0  0  0  0  0  0  0  0  0
    3.8287  -16.3033    7.8761 N   0  0  0  0  0  0  0  0  0  0  0  0
    3.2955  -16.9479    9.0304 C   0  0  1  0  0  0  0  0  0  0  0  0
    2.1288  -17.8378    8.7702 C   0  0  0  0  0  0  0  0  0  0  0  0
    2.5343  -19.1933    9.2355 C   0  0  1  0  0  0  0  0  0  0  0  0
    3.7184  -19.0712   10.1266 C   0  0  1  0  0  0  0  0  0  0  0  0
    4.3012  -17.7597    9.7955 C   0  0  2  0  0  0  0  0  0  0  0  0
    3.8320  -18.0904   11.2129 C   0  0  0  0  0  0  0  0  0  0  0  0
    4.5845  -20.3101   10.2037 C   0  0  0  0  0  0  0  0  0  0  0  0
    5.7339  -20.1618    9.4284 O   0  0  0  0  0  0  0  0  0  0  0  0
    6.4546  -21.6594    9.1410 P   0  0  0  0  0  5  0  0  0  0  0  0
    5.6786  -22.3701    8.0492 O   0  0  0  0  0  0  0  0  0  0  0  0
    6.5224  -22.6186   10.5093 O   0  0  0  0  0  1  0  0  0  0  0  0
    8.0613  -21.4246    8.6047 O   0  0  0  0  0  1  0  0  0  0  0  0
    1.4867  -19.9197    9.7942 O   0  0  0  0  0  0  0  0  0  0  0  0
    0.3508  -20.3967    8.6319 P   0  0  0  0  0  5  0  0  0  0  0  0
   -0.8258  -21.1118    9.2822 O   0  0  0  0  0  0  0  0  0  0  0  0
   -0.1809  -19.0692    7.7233 O   0  0  0  0  0  1  0  0  0  0  0  0
    1.0512  -21.5077    7.5609 O   0  0  0  0  0  1  0  0  0  0  0  0
  1  2  1  0
  2  3  1  0
  3  4  2  0
  4  5  1  0
  5  6  1  0
  5  7  2  0
  7  8  1  0
  8  9  2  0
  9 10  1  0
 10 11  2  0
 11 12  1  0
 13 12  1  6
 13 14  1  0
 14 15  1  0
 15 16  1  0
 16 17  1  0
 17 18  1  1
 16 19  1  1
 19 20  1  0
 20 21  1  0
 21 22  2  0
 21 23  1  0
 21 24  1  0
 15 25  1  1
 25 26  1  0
 26 27  2  0
 26 28  1  0
 26 29  1  0
  9  3  1  0
 17 13  1  0
 12  8  1  0
 18 16  1  0
M  CHG  4  23  -1  24  -1  28  -1  29  -1
M  END
$$$$
