
     RDKit          3D

 29 32  0  0  0  0  0  0  0  0999 V2000
   -4.5715  -20.6397    9.1935 C   0  0  0  0  0  0  0  0  0  0  0  0
   -3.4101  -19.8010    9.4114 N   0  0  0  0  0  0  0  0  0  0  0  0
   -2.1228  -20.1313    8.9383 C   0  0  0  0  0  0  0  0  0  0  0  0
   -1.9772  -21.1345    8.0580 N   0  0  0  0  0  0  0  0  0  0  0  0
   -0.7480  -21.4818    7.5789 C   0  0  0  0  0  0  0  0  0  0  0  0
   -0.4913  -23.0469    6.2012 I   0  0  0  0  0  0  0  0  0  0  0  0
    0.3003  -20.7916    8.0147 N   0  0  0  0  0  0  0  0  0  0  0  0
    0.2392  -19.7771    8.8921 C   0  0  0  0  0  0  0  0  0  0  0  0
   -1.0328  -19.4401    9.3687 C   0  0  0  0  0  0  0  0  0  0  0  0
   -0.8392  -18.4192   10.2139 N   0  0  0  0  0  0  0  0  0  0  0  0
    0.4819  -18.1467   10.2518 C   0  0  0  0  0  0  0  0  0  0  0  0
    1.1621  -18.9758    9.4416 N   0  0  0  0  0  0  0  0  0  0  0  0
    2.5658  -19.0193    9.1967 C   0  0  1  0  0  0  0  0  0  0  0  0
    2.9488  -19.3342    7.7915 C   0  0  0  0  0  0  0  0  0  0  0  0
    3.7528  -18.1746    7.3151 C   0  0  1  0  0  0  0  0  0  0  0  0
    4.2087  -17.3805    8.4867 C   0  0  1  0  0  0  0  0  0  0  0  0
    3.2907  -17.7593    9.5745 C   0  0  2  0  0  0  0  0  0  0  0  0
    4.8012  -17.9655    9.6958 C   0  0  0  0  0  0  0  0  0  0  0  0
    4.5056  -15.9263    8.1905 C   0  0  0  0  0  0  0  0  0  0  0  0
    5.8118  -15.6016    8.5550 O   0  0  0  0  0  0  0  0  0  0  0  0
    6.2194  -14.0625    7.9985 P   0  0  0  0  0  5  0  0  0  0  0  0
    6.5444  -13.1852    9.1919 O   0  0  0  0  0  0  0  0  0  0  0  0
    5.0046  -13.3602    7.0885 O   0  0  0  0  0  1  0  0  0  0  0  0
    7.6056  -14.1656    7.0027 O   0  0  0  0  0  1  0  0  0  0  0  0
    4.7817  -18.5362    6.4503 O   0  0  0  0  0  0  0  0  0  0  0  0
    4.2990  -19.7290    5.3491 P   0  0  0  0  0  5  0  0  0  0  0  0
    2.8342  -20.0938    5.5493 O   0  0  0  0  0  0  0  0  0  0  0  0
    4.5815  -19.2320    3.7542 O   0  0  0  0  0  1  0  0  0  0  0  0
    5.1843  -21.1501    5.6112 O   0  0  0  0  0  1  0  0  0  0  0  0
  1  2  1  0
  2  3  1  0
  3  4  2  0
  4  5  1  0
  5  6  1  0
  5  7  2  0
  7  8  1  0
  8  9  2  0
  9 10  1  0
 10 11  2  0
 11 12  1  0
 13 12  1  6
 13 14  1  0
 14 15  1  0
 15 16  1  0
 16 17  1  0
 17 18  1  1
 16 19  1  6
 19 20  1  0
 20 21  1  0
 21 22  2  0
 21 23  1  0
 21 24  1  0
 15 25  1  1
 25 26  1  0
 26 27  2  0
 26 28  1  0
 26 29  1  0
  9  3  1  0
 17 13  1  0
 12  8  1  0
 18 16  1  0
M  CHG  4  23  -1  24  -1  28  -1  29  -1
M  END
$$$$
