
     RDKit          3D

 29 32  0  0  0  0  0  0  0  0999 V2000
   -9.0622   -4.5193    6.3320 C   0  0  0  0  0  0  0  0  0  0  0  0
   -8.2160   -4.4461    7.5060 N   0  0  0  0  0  0  0  0  0  0  0  0
   -6.8620   -4.8415    7.5044 C   0  0  0  0  0  0  0  0  0  0  0  0
   -6.3349   -5.3969    6.4016 N   0  0  0  0  0  0  0  0  0  0  0  0
   -5.0294   -5.7914    6.3635 C   0  0  0  0  0  0  0  0  0  0  0  0
   -4.1790   -6.6630    4.6516 I   0  0  0  0  0  0  0  0  0  0  0  0
   -4.2981   -5.6062    7.4572 N   0  0  0  0  0  0  0  0  0  0  0  0
   -4.7490   -5.0594    8.5975 C   0  0  0  0  0  0  0  0  0  0  0  0
   -6.0912   -4.6630    8.6113 C   0  0  0  0  0  0  0  0  0  0  0  0
   -6.3021   -4.1565    9.8331 N   0  0  0  0  0  0  0  0  0  0  0  0
   -5.1491   -4.2390   10.5295 C   0  0  0  0  0  0  0  0  0  0  0  0
   -4.1802   -4.7940    9.7814 N   0  0  0  0  0  0  0  0  0  0  0  0
   -2.8262   -5.0578   10.1411 C   0  0  1  0  0  0  0  0  0  0  0  0
   -1.8767   -3.9403    9.8756 C   0  0  0  0  0  0  0  0  0  0  0  0
   -1.2759   -3.5901   11.1927 C   0  0  1  0  0  0  0  0  0  0  0  0
   -1.5118   -4.7032   12.1500 C   0  0  1  0  0  0  0  0  0  0  0  0
   -2.6424   -5.4543   11.5780 C   0  0  2  0  0  0  0  0  0  0  0  0
   -1.2896   -6.1197   11.8345 C   0  0  0  0  0  0  0  0  0  0  0  0
   -1.5055   -4.2978   13.6081 C   0  0  0  0  0  0  0  0  0  0  0  0
   -2.7216   -3.7182   13.9678 O   0  0  0  0  0  0  0  0  0  0  0  0
   -2.6700   -3.1680   15.5614 P   0  0  0  0  0  5  0  0  0  0  0  0
   -1.8392   -1.9003   15.6106 O   0  0  0  0  0  0  0  0  0  0  0  0
   -2.0424   -4.3024   16.6180 O   0  0  0  0  0  1  0  0  0  0  0  0
   -4.2548   -2.8032   16.0896 O   0  0  0  0  0  1  0  0  0  0  0  0
    0.0579   -3.2025   11.1037 O   0  0  0  0  0  0  0  0  0  0  0  0
    0.2273   -1.6449   10.4605 P   0  0  0  0  0  5  0  0  0  0  0  0
   -0.9981   -0.7940   10.7653 O   0  0  0  0  0  0  0  0  0  0  0  0
    1.6348   -0.8998   11.0390 O   0  0  0  0  0  1  0  0  0  0  0  0
    0.3433   -1.7261    8.7718 O   0  0  0  0  0  1  0  0  0  0  0  0
  1  2  1  0
  2  3  1  0
  3  4  2  0
  4  5  1  0
  5  6  1  0
  5  7  2  0
  7  8  1  0
  8  9  2  0
  9 10  1  0
 10 11  2  0
 11 12  1  0
 13 12  1  1
 13 14  1  0
 14 15  1  0
 15 16  1  0
 16 17  1  0
 17 18  1  6
 16 19  1  1
 19 20  1  0
 20 21  1  0
 21 22  2  0
 21 23  1  0
 21 24  1  0
 15 25  1  6
 25 26  1  0
 26 27  2  0
 26 28  1  0
 26 29  1  0
  9  3  1  0
 17 13  1  0
 12  8  1  0
 18 16  1  0
M  CHG  4  23  -1  24  -1  28  -1  29  -1
M  END
$$$$
