
     RDKit          3D

 29 32  0  0  0  0  0  0  0  0999 V2000
    1.5807  -14.9898   13.6804 C   0  0  0  0  0  0  0  0  0  0  0  0
    1.5806  -15.7234   12.4308 N   0  0  0  0  0  0  0  0  0  0  0  0
    2.4727  -15.4438   11.3744 C   0  0  0  0  0  0  0  0  0  0  0  0
    3.1487  -14.2839   11.3670 N   0  0  0  0  0  0  0  0  0  0  0  0
    4.0196  -13.9796   10.3620 C   0  0  0  0  0  0  0  0  0  0  0  0
    5.0903  -12.1724   10.3254 I   0  0  0  0  0  0  0  0  0  0  0  0
    4.1749  -14.8724    9.3904 N   0  0  0  0  0  0  0  0  0  0  0  0
    3.5378  -16.0524    9.3245 C   0  0  0  0  0  0  0  0  0  0  0  0
    2.6500  -16.3412   10.3672 C   0  0  0  0  0  0  0  0  0  0  0  0
    2.1466  -17.5497   10.0841 N   0  0  0  0  0  0  0  0  0  0  0  0
    2.6980  -17.9771    8.9289 C   0  0  0  0  0  0  0  0  0  0  0  0
    3.5592  -17.0647    8.4467 N   0  0  0  0  0  0  0  0  0  0  0  0
    4.3434  -17.1297    7.2580 C   0  0  1  0  0  0  0  0  0  0  0  0
    5.4274  -18.1521    7.2758 C   0  0  0  0  0  0  0  0  0  0  0  0
    5.1467  -19.0683    6.1356 C   0  0  1  0  0  0  0  0  0  0  0  0
    4.1933  -18.4112    5.2027 C   0  0  1  0  0  0  0  0  0  0  0  0
    3.5418  -17.3655    6.0100 C   0  0  2  0  0  0  0  0  0  0  0  0
    4.3209  -17.0241    4.7391 C   0  0  0  0  0  0  0  0  0  0  0  0
    3.3755  -19.3633    4.3569 C   0  0  0  0  0  0  0  0  0  0  0  0
    2.3511  -19.9396    5.1071 O   0  0  0  0  0  0  0  0  0  0  0  0
    1.4514  -21.0088    4.1626 P   0  0  0  0  0  5  0  0  0  0  0  0
    2.3985  -22.0030    3.5191 O   0  0  0  0  0  0  0  0  0  0  0  0
    0.5522  -20.2333    2.9849 O   0  0  0  0  0  1  0  0  0  0  0  0
    0.3554  -21.8642    5.1580 O   0  0  0  0  0  1  0  0  0  0  0  0
    6.2984  -19.5435    5.5150 O   0  0  0  0  0  0  0  0  0  0  0  0
    7.6132  -19.6147    6.5801 P   0  0  0  0  0  5  0  0  0  0  0  0
    8.8072  -18.8516    6.0225 O   0  0  0  0  0  0  0  0  0  0  0  0
    7.1862  -19.0266    8.1106 O   0  0  0  0  0  1  0  0  0  0  0  0
    8.1193  -21.2212    6.7674 O   0  0  0  0  0  1  0  0  0  0  0  0
  1  2  1  0
  2  3  1  0
  3  4  2  0
  4  5  1  0
  5  6  1  0
  5  7  2  0
  7  8  1  0
  8  9  2  0
  9 10  1  0
 10 11  2  0
 11 12  1  0
 13 12  1  1
 13 14  1  0
 14 15  1  0
 15 16  1  0
 16 17  1  0
 17 18  1  6
 16 19  1  6
 19 20  1  0
 20 21  1  0
 21 22  2  0
 21 23  1  0
 21 24  1  0
 15 25  1  6
 25 26  1  0
 26 27  2  0
 26 28  1  0
 26 29  1  0
  9  3  1  0
 17 13  1  0
 12  8  1  0
 18 16  1  0
M  CHG  4  23  -1  24  -1  28  -1  29  -1
M  END
$$$$
