
     RDKit          3D

 29 32  0  0  0  0  0  0  0  0999 V2000
   -2.4714  -19.9768    5.0180 C   0  0  0  0  0  0  0  0  0  0  0  0
   -1.3605  -19.0867    5.2888 N   0  0  0  0  0  0  0  0  0  0  0  0
   -0.5491  -19.1963    6.4374 C   0  0  0  0  0  0  0  0  0  0  0  0
   -0.9058  -20.0344    7.4237 N   0  0  0  0  0  0  0  0  0  0  0  0
   -0.1457  -20.1664    8.5489 C   0  0  0  0  0  0  0  0  0  0  0  0
   -0.6803  -21.4701   10.1072 I   0  0  0  0  0  0  0  0  0  0  0  0
    0.9606  -19.4356    8.6338 N   0  0  0  0  0  0  0  0  0  0  0  0
    1.3860  -18.5765    7.6938 C   0  0  0  0  0  0  0  0  0  0  0  0
    0.5890  -18.4591    6.5494 C   0  0  0  0  0  0  0  0  0  0  0  0
    1.2082  -17.5603    5.7729 N   0  0  0  0  0  0  0  0  0  0  0  0
    2.3250  -17.1500    6.4096 C   0  0  0  0  0  0  0  0  0  0  0  0
    2.4499  -17.7675    7.5969 N   0  0  0  0  0  0  0  0  0  0  0  0
    3.4818  -17.6164    8.5687 C   0  0  1  0  0  0  0  0  0  0  0  0
    4.8596  -17.8859    8.0689 C   0  0  0  0  0  0  0  0  0  0  0  0
    5.6286  -16.6291    8.2862 C   0  0  1  0  0  0  0  0  0  0  0  0
    4.8985  -15.7697    9.2556 C   0  0  1  0  0  0  0  0  0  0  0  0
    3.5116  -16.2645    9.2223 C   0  0  2  0  0  0  0  0  0  0  0  0
    4.3259  -16.2564   10.5167 C   0  0  0  0  0  0  0  0  0  0  0  0
    5.1997  -14.2907    9.1440 C   0  0  0  0  0  0  0  0  0  0  0  0
    4.4824  -13.7153    8.0958 O   0  0  0  0  0  0  0  0  0  0  0  0
    4.9563  -12.1139    7.8595 P   0  0  0  0  0  5  0  0  0  0  0  0
    4.2937  -11.5926    6.5990 O   0  0  0  0  0  0  0  0  0  0  0  0
    6.6157  -11.9398    7.7453 O   0  0  0  0  0  1  0  0  0  0  0  0
    4.4354  -11.1647    9.1829 O   0  0  0  0  0  1  0  0  0  0  0  0
    6.9598  -16.8502    8.6273 O   0  0  0  0  0  0  0  0  0  0  0  0
    7.7561  -17.8209    7.4905 P   0  0  0  0  0  5  0  0  0  0  0  0
    8.1945  -19.1397    8.1128 O   0  0  0  0  0  0  0  0  0  0  0  0
    6.7781  -18.0925    6.1340 O   0  0  0  0  0  1  0  0  0  0  0  0
    9.1697  -17.0503    6.9614 O   0  0  0  0  0  1  0  0  0  0  0  0
  1  2  1  0
  2  3  1  0
  3  4  2  0
  4  5  1  0
  5  6  1  0
  5  7  2  0
  7  8  1  0
  8  9  2  0
  9 10  1  0
 10 11  2  0
 11 12  1  0
 13 12  1  6
 13 14  1  0
 14 15  1  0
 15 16  1  0
 16 17  1  0
 17 18  1  1
 16 19  1  1
 19 20  1  0
 20 21  1  0
 21 22  2  0
 21 23  1  0
 21 24  1  0
 15 25  1  1
 25 26  1  0
 26 27  2  0
 26 28  1  0
 26 29  1  0
  9  3  1  0
 17 13  1  0
 12  8  1  0
 18 16  1  0
M  CHG  4  23  -1  24  -1  28  -1  29  -1
M  END
$$$$
