
     RDKit          3D

 29 32  0  0  0  0  0  0  0  0999 V2000
   -0.5739  -20.5716    4.5007 C   0  0  0  0  0  0  0  0  0  0  0  0
   -0.0985  -19.4564    5.2946 N   0  0  0  0  0  0  0  0  0  0  0  0
    1.2156  -19.3774    5.8011 C   0  0  0  0  0  0  0  0  0  0  0  0
    2.1393  -20.2602    5.3886 N   0  0  0  0  0  0  0  0  0  0  0  0
    3.4199  -20.2142    5.8567 C   0  0  0  0  0  0  0  0  0  0  0  0
    4.8849  -21.5826    5.2285 I   0  0  0  0  0  0  0  0  0  0  0  0
    3.7205  -19.2643    6.7357 N   0  0  0  0  0  0  0  0  0  0  0  0
    2.8567  -18.3459    7.1974 C   0  0  0  0  0  0  0  0  0  0  0  0
    1.5495  -18.4142    6.7021 C   0  0  0  0  0  0  0  0  0  0  0  0
    0.8882  -17.4140    7.2989 N   0  0  0  0  0  0  0  0  0  0  0  0
    1.7463  -16.7683    8.1161 C   0  0  0  0  0  0  0  0  0  0  0  0
    2.9659  -17.3309    8.0654 N   0  0  0  0  0  0  0  0  0  0  0  0
    4.1450  -16.9524    8.7717 C   0  0  1  0  0  0  0  0  0  0  0  0
    5.1397  -16.1867    7.9686 C   0  0  0  0  0  0  0  0  0  0  0  0
    5.3160  -14.8833    8.6674 C   0  0  1  0  0  0  0  0  0  0  0  0
    4.7917  -14.9965   10.0543 C   0  0  1  0  0  0  0  0  0  0  0  0
    3.8813  -16.1537   10.0160 C   0  0  2  0  0  0  0  0  0  0  0  0
    5.0871  -16.1168   10.9559 C   0  0  0  0  0  0  0  0  0  0  0  0
    4.3592  -13.6869   10.6776 C   0  0  0  0  0  0  0  0  0  0  0  0
    3.1513  -13.8356   11.3583 O   0  0  0  0  0  0  0  0  0  0  0  0
    2.5013  -12.3299   11.7521 P   0  0  0  0  0  5  0  0  0  0  0  0
    2.8649  -12.0047   13.1880 O   0  0  0  0  0  0  0  0  0  0  0  0
    0.8414  -12.2699   11.5566 O   0  0  0  0  0  1  0  0  0  0  0  0
    3.1767  -11.1340   10.7335 O   0  0  0  0  0  1  0  0  0  0  0  0
    6.6173  -14.3941    8.5999 O   0  0  0  0  0  0  0  0  0  0  0  0
    7.0649  -13.9902    7.0171 P   0  0  0  0  0  5  0  0  0  0  0  0
    7.2353  -12.4845    6.8672 O   0  0  0  0  0  0  0  0  0  0  0  0
    8.4798  -14.8031    6.5610 O   0  0  0  0  0  1  0  0  0  0  0  0
    5.8396  -14.4413    5.9368 O   0  0  0  0  0  1  0  0  0  0  0  0
  1  2  1  0
  2  3  1  0
  3  4  2  0
  4  5  1  0
  5  6  1  0
  5  7  2  0
  7  8  1  0
  8  9  2  0
  9 10  1  0
 10 11  2  0
 11 12  1  0
 13 12  1  6
 13 14  1  0
 14 15  1  0
 15 16  1  0
 16 17  1  0
 17 18  1  1
 16 19  1  1
 19 20  1  0
 20 21  1  0
 21 22  2  0
 21 23  1  0
 21 24  1  0
 15 25  1  1
 25 26  1  0
 26 27  2  0
 26 28  1  0
 26 29  1  0
  9  3  1  0
 17 13  1  0
 12  8  1  0
 18 16  1  0
M  CHG  4  23  -1  24  -1  28  -1  29  -1
M  END
$$$$
