
     RDKit          3D

 29 32  0  0  0  0  0  0  0  0999 V2000
   -4.5972  -19.0267    4.0240 C   0  0  0  0  0  0  0  0  0  0  0  0
   -3.4682  -18.6278    4.8401 N   0  0  0  0  0  0  0  0  0  0  0  0
   -2.2237  -19.2911    4.8087 C   0  0  0  0  0  0  0  0  0  0  0  0
   -2.0575  -20.3509    4.0015 N   0  0  0  0  0  0  0  0  0  0  0  0
   -0.8681  -21.0168    3.9449 C   0  0  0  0  0  0  0  0  0  0  0  0
   -0.5805  -22.6778    2.6911 I   0  0  0  0  0  0  0  0  0  0  0  0
    0.1202  -20.5789    4.7174 N   0  0  0  0  0  0  0  0  0  0  0  0
    0.0349  -19.5290    5.5499 C   0  0  0  0  0  0  0  0  0  0  0  0
   -1.1953  -18.8628    5.5898 C   0  0  0  0  0  0  0  0  0  0  0  0
   -1.0364  -17.8709    6.4758 N   0  0  0  0  0  0  0  0  0  0  0  0
    0.2249  -17.9281    6.9524 C   0  0  0  0  0  0  0  0  0  0  0  0
    0.8998  -18.9460    6.3911 N   0  0  0  0  0  0  0  0  0  0  0  0
    2.2486  -19.3464    6.6203 C   0  0  1  0  0  0  0  0  0  0  0  0
    3.1775  -19.1060    5.4802 C   0  0  0  0  0  0  0  0  0  0  0  0
    4.2424  -18.2043    6.0010 C   0  0  1  0  0  0  0  0  0  0  0  0
    4.2193  -18.2270    7.4877 C   0  0  1  0  0  0  0  0  0  0  0  0
    2.8742  -18.7183    7.8326 C   0  0  2  0  0  0  0  0  0  0  0  0
    4.1348  -19.4536    8.2898 C   0  0  0  0  0  0  0  0  0  0  0  0
    4.7894  -16.9911    8.1497 C   0  0  0  0  0  0  0  0  0  0  0  0
    3.9425  -15.8976    7.9735 O   0  0  0  0  0  0  0  0  0  0  0  0
    4.1545  -14.7751    9.2144 P   0  0  0  0  0  5  0  0  0  0  0  0
    5.6268  -14.4234    9.3045 O   0  0  0  0  0  0  0  0  0  0  0  0
    3.6104  -15.3346   10.6936 O   0  0  0  0  0  1  0  0  0  0  0  0
    3.2746  -13.3541    8.8535 O   0  0  0  0  0  1  0  0  0  0  0  0
    5.4974  -18.4632    5.4574 O   0  0  0  0  0  0  0  0  0  0  0  0
    5.4617  -18.5081    3.7647 P   0  0  0  0  0  5  0  0  0  0  0  0
    4.9945  -19.8688    3.2661 O   0  0  0  0  0  0  0  0  0  0  0  0
    4.4813  -17.2726    3.1459 O   0  0  0  0  0  1  0  0  0  0  0  0
    7.0242  -18.2849    3.1474 O   0  0  0  0  0  1  0  0  0  0  0  0
  1  2  1  0
  2  3  1  0
  3  4  2  0
  4  5  1  0
  5  6  1  0
  5  7  2  0
  7  8  1  0
  8  9  2  0
  9 10  1  0
 10 11  2  0
 11 12  1  0
 13 12  1  6
 13 14  1  0
 14 15  1  0
 15 16  1  0
 16 17  1  0
 17 18  1  1
 16 19  1  1
 19 20  1  0
 20 21  1  0
 21 22  2  0
 21 23  1  0
 21 24  1  0
 15 25  1  6
 25 26  1  0
 26 27  2  0
 26 28  1  0
 26 29  1  0
  9  3  1  0
 17 13  1  0
 12  8  1  0
 18 16  1  0
M  CHG  4  23  -1  24  -1  28  -1  29  -1
M  END
$$$$
