
     RDKit          3D

 29 32  0  0  0  0  0  0  0  0999 V2000
   -1.5566  -19.1002    2.8783 C   0  0  0  0  0  0  0  0  0  0  0  0
   -0.4665  -18.4286    3.5569 N   0  0  0  0  0  0  0  0  0  0  0  0
    0.0272  -18.8388    4.8130 C   0  0  0  0  0  0  0  0  0  0  0  0
   -0.2516  -20.0722    5.2642 N   0  0  0  0  0  0  0  0  0  0  0  0
    0.2088  -20.5032    6.4739 C   0  0  0  0  0  0  0  0  0  0  0  0
   -0.2121  -22.4276    7.2042 I   0  0  0  0  0  0  0  0  0  0  0  0
    0.9431  -19.6586    7.1898 N   0  0  0  0  0  0  0  0  0  0  0  0
    1.2657  -18.4117    6.8106 C   0  0  0  0  0  0  0  0  0  0  0  0
    0.7815  -17.9932    5.5659 C   0  0  0  0  0  0  0  0  0  0  0  0
    1.2266  -16.7392    5.4121 N   0  0  0  0  0  0  0  0  0  0  0  0
    1.9451  -16.4088    6.5056 C   0  0  0  0  0  0  0  0  0  0  0  0
    1.9793  -17.4300    7.3788 N   0  0  0  0  0  0  0  0  0  0  0  0
    2.6273  -17.4883    8.6472 C   0  0  1  0  0  0  0  0  0  0  0  0
    3.6967  -18.5200    8.7594 C   0  0  0  0  0  0  0  0  0  0  0  0
    4.9456  -17.7821    9.0972 C   0  0  1  0  0  0  0  0  0  0  0  0
    4.5937  -16.4241    9.5905 C   0  0  1  0  0  0  0  0  0  0  0  0
    3.2313  -16.1846    9.0846 C   0  0  2  0  0  0  0  0  0  0  0  0
    3.5442  -16.1559   10.5813 C   0  0  0  0  0  0  0  0  0  0  0  0
    5.6810  -15.3854    9.4185 C   0  0  0  0  0  0  0  0  0  0  0  0
    5.4660  -14.6268    8.2685 O   0  0  0  0  0  0  0  0  0  0  0  0
    6.6165  -13.4000    8.1416 P   0  0  0  0  0  5  0  0  0  0  0  0
    7.8430  -13.9551    7.4438 O   0  0  0  0  0  0  0  0  0  0  0  0
    7.0459  -12.7588    9.6254 O   0  0  0  0  0  1  0  0  0  0  0  0
    5.9839  -12.1212    7.1991 O   0  0  0  0  0  1  0  0  0  0  0  0
    5.7872  -18.4870    9.9529 O   0  0  0  0  0  0  0  0  0  0  0  0
    6.0277  -20.0826    9.4383 P   0  0  0  0  0  5  0  0  0  0  0  0
    4.7746  -20.9197    9.6570 O   0  0  0  0  0  0  0  0  0  0  0  0
    6.5058  -20.1303    7.8136 O   0  0  0  0  0  1  0  0  0  0  0  0
    7.2523  -20.8083   10.3581 O   0  0  0  0  0  1  0  0  0  0  0  0
  1  2  1  0
  2  3  1  0
  3  4  2  0
  4  5  1  0
  5  6  1  0
  5  7  2  0
  7  8  1  0
  8  9  2  0
  9 10  1  0
 10 11  2  0
 11 12  1  0
 13 12  1  6
 13 14  1  0
 14 15  1  0
 15 16  1  0
 16 17  1  0
 17 18  1  1
 16 19  1  6
 19 20  1  0
 20 21  1  0
 21 22  2  0
 21 23  1  0
 21 24  1  0
 15 25  1  1
 25 26  1  0
 26 27  2  0
 26 28  1  0
 26 29  1  0
  9  3  1  0
 17 13  1  0
 12  8  1  0
 18 16  1  0
M  CHG  4  23  -1  24  -1  28  -1  29  -1
M  END
$$$$
