
     RDKit          3D

 29 32  0  0  0  0  0  0  0  0999 V2000
    2.4061  -10.4614   14.0909 C   0  0  0  0  0  0  0  0  0  0  0  0
    1.6600   -9.2193   14.1003 N   0  0  0  0  0  0  0  0  0  0  0  0
    0.9063   -8.7660   12.9974 C   0  0  0  0  0  0  0  0  0  0  0  0
    0.2308   -9.6512   12.2473 N   0  0  0  0  0  0  0  0  0  0  0  0
   -0.5084   -9.2494   11.1734 C   0  0  0  0  0  0  0  0  0  0  0  0
   -1.5749  -10.6127    9.9827 I   0  0  0  0  0  0  0  0  0  0  0  0
   -0.5361   -7.9503   10.8963 N   0  0  0  0  0  0  0  0  0  0  0  0
    0.1100   -7.0033   11.5953 C   0  0  0  0  0  0  0  0  0  0  0  0
    0.8613   -7.4409   12.6921 C   0  0  0  0  0  0  0  0  0  0  0  0
    1.4021   -6.3348   13.2194 N   0  0  0  0  0  0  0  0  0  0  0  0
    1.0022   -5.2768   12.4834 C   0  0  0  0  0  0  0  0  0  0  0  0
    0.2040   -5.6719   11.4768 N   0  0  0  0  0  0  0  0  0  0  0  0
   -0.4244   -4.8706   10.4792 C   0  0  1  0  0  0  0  0  0  0  0  0
   -1.8260   -4.4689   10.7872 C   0  0  0  0  0  0  0  0  0  0  0  0
   -1.8349   -2.9795   10.7913 C   0  0  1  0  0  0  0  0  0  0  0  0
   -0.6143   -2.4806   10.1039 C   0  0  1  0  0  0  0  0  0  0  0  0
    0.3260   -3.6136   10.1437 C   0  0  2  0  0  0  0  0  0  0  0  0
   -0.1255   -2.9966    8.8193 C   0  0  0  0  0  0  0  0  0  0  0  0
   -0.1768   -1.0918   10.5167 C   0  0  0  0  0  0  0  0  0  0  0  0
    0.5202   -0.4634    9.4854 O   0  0  0  0  0  0  0  0  0  0  0  0
    0.9071    1.1226    9.9092 P   0  0  0  0  0  5  0  0  0  0  0  0
    0.1186    2.0678    9.0236 O   0  0  0  0  0  0  0  0  0  0  0  0
    2.5423    1.4477    9.7767 O   0  0  0  0  0  1  0  0  0  0  0  0
    0.4636    1.4014   11.5370 O   0  0  0  0  0  1  0  0  0  0  0  0
   -3.0167   -2.4347   10.2976 O   0  0  0  0  0  0  0  0  0  0  0  0
   -4.3861   -3.2135   10.9196 P   0  0  0  0  0  5  0  0  0  0  0  0
   -5.6618   -2.5193   10.4621 O   0  0  0  0  0  0  0  0  0  0  0  0
   -4.4033   -4.8505   10.4832 O   0  0  0  0  0  1  0  0  0  0  0  0
   -4.3792   -3.1308   12.6123 O   0  0  0  0  0  1  0  0  0  0  0  0
  1  2  1  0
  2  3  1  0
  3  4  2  0
  4  5  1  0
  5  6  1  0
  5  7  2  0
  7  8  1  0
  8  9  2  0
  9 10  1  0
 10 11  2  0
 11 12  1  0
 13 12  1  1
 13 14  1  0
 14 15  1  0
 15 16  1  0
 16 17  1  0
 17 18  1  6
 16 19  1  1
 19 20  1  0
 20 21  1  0
 21 22  2  0
 21 23  1  0
 21 24  1  0
 15 25  1  6
 25 26  1  0
 26 27  2  0
 26 28  1  0
 26 29  1  0
  9  3  1  0
 17 13  1  0
 12  8  1  0
 18 16  1  0
M  CHG  4  23  -1  24  -1  28  -1  29  -1
M  END
$$$$
