
     RDKit          3D

 29 32  0  0  0  0  0  0  0  0999 V2000
   11.0738  -15.9578    8.4172 C   0  0  0  0  0  0  0  0  0  0  0  0
    9.8330  -16.6630    8.6682 N   0  0  0  0  0  0  0  0  0  0  0  0
    8.5653  -16.1168    8.3775 C   0  0  0  0  0  0  0  0  0  0  0  0
    8.4813  -14.9205    7.7741 N   0  0  0  0  0  0  0  0  0  0  0  0
    7.2727  -14.3614    7.4777 C   0  0  0  0  0  0  0  0  0  0  0  0
    7.1122  -12.4912    6.5342 I   0  0  0  0  0  0  0  0  0  0  0  0
    6.1813  -15.0434    7.8077 N   0  0  0  0  0  0  0  0  0  0  0  0
    6.1799  -16.2426    8.4114 C   0  0  0  0  0  0  0  0  0  0  0  0
    7.4320  -16.7948    8.7049 C   0  0  0  0  0  0  0  0  0  0  0  0
    7.1755  -17.9703    9.2935 N   0  0  0  0  0  0  0  0  0  0  0  0
    5.8367  -18.1281    9.3565 C   0  0  0  0  0  0  0  0  0  0  0  0
    5.2071  -17.0706    8.8163 N   0  0  0  0  0  0  0  0  0  0  0  0
    3.8052  -16.8470    8.6864 C   0  0  1  0  0  0  0  0  0  0  0  0
    3.2753  -16.9711    7.2992 C   0  0  0  0  0  0  0  0  0  0  0  0
    2.2469  -18.0474    7.3470 C   0  0  1  0  0  0  0  0  0  0  0  0
    1.8510  -18.2838    8.7607 C   0  0  1  0  0  0  0  0  0  0  0  0
    2.9623  -17.7348    9.5564 C   0  0  2  0  0  0  0  0  0  0  0  0
    1.5329  -17.2146    9.7150 C   0  0  0  0  0  0  0  0  0  0  0  0
    1.3007  -19.6652    9.0427 C   0  0  0  0  0  0  0  0  0  0  0  0
    2.3192  -20.6175    9.0321 O   0  0  0  0  0  0  0  0  0  0  0  0
    1.6770  -22.1742    8.9381 P   0  0  0  0  0  5  0  0  0  0  0  0
    1.0573  -22.5254   10.2767 O   0  0  0  0  0  0  0  0  0  0  0  0
    2.8195  -23.3218    8.5200 O   0  0  0  0  0  1  0  0  0  0  0  0
    0.4548  -22.2148    7.7429 O   0  0  0  0  0  1  0  0  0  0  0  0
    1.1699  -17.8180    6.4957 O   0  0  0  0  0  0  0  0  0  0  0  0
    1.6684  -17.5020    4.9082 P   0  0  0  0  0  5  0  0  0  0  0  0
    0.4959  -17.5942    3.9410 O   0  0  0  0  0  0  0  0  0  0  0  0
    2.4197  -15.9874    4.7987 O   0  0  0  0  0  1  0  0  0  0  0  0
    2.7897  -18.6714    4.4109 O   0  0  0  0  0  1  0  0  0  0  0  0
  1  2  1  0
  2  3  1  0
  3  4  2  0
  4  5  1  0
  5  6  1  0
  5  7  2  0
  7  8  1  0
  8  9  2  0
  9 10  1  0
 10 11  2  0
 11 12  1  0
 13 12  1  6
 13 14  1  0
 14 15  1  0
 15 16  1  0
 16 17  1  0
 17 18  1  1
 16 19  1  6
 19 20  1  0
 20 21  1  0
 21 22  2  0
 21 23  1  0
 21 24  1  0
 15 25  1  6
 25 26  1  0
 26 27  2  0
 26 28  1  0
 26 29  1  0
  9  3  1  0
 17 13  1  0
 12  8  1  0
 18 16  1  0
M  CHG  4  23  -1  24  -1  28  -1  29  -1
M  END
$$$$
