
     RDKit          3D

 29 32  0  0  0  0  0  0  0  0999 V2000
   -2.6468  -20.0774    9.4224 C   0  0  0  0  0  0  0  0  0  0  0  0
   -1.5282  -19.1657    9.5534 N   0  0  0  0  0  0  0  0  0  0  0  0
   -0.2461  -19.4412    9.0336 C   0  0  0  0  0  0  0  0  0  0  0  0
   -0.0602  -20.5295    8.2697 N   0  0  0  0  0  0  0  0  0  0  0  0
    1.1655  -20.8275    7.7501 C   0  0  0  0  0  0  0  0  0  0  0  0
    1.4845  -22.5234    6.5518 I   0  0  0  0  0  0  0  0  0  0  0  0
    2.1690  -20.0021    8.0271 N   0  0  0  0  0  0  0  0  0  0  0  0
    2.0660  -18.8958    8.7809 C   0  0  0  0  0  0  0  0  0  0  0  0
    0.7986  -18.6119    9.3023 C   0  0  0  0  0  0  0  0  0  0  0  0
    0.9461  -17.4816   10.0057 N   0  0  0  0  0  0  0  0  0  0  0  0
    2.2361  -17.0951    9.9187 C   0  0  0  0  0  0  0  0  0  0  0  0
    2.9412  -17.9571    9.1662 N   0  0  0  0  0  0  0  0  0  0  0  0
    4.3260  -17.9110    8.8306 C   0  0  1  0  0  0  0  0  0  0  0  0
    4.6155  -17.7947    7.3734 C   0  0  0  0  0  0  0  0  0  0  0  0
    5.3966  -16.5373    7.2089 C   0  0  1  0  0  0  0  0  0  0  0  0
    5.9330  -16.1176    8.5308 C   0  0  1  0  0  0  0  0  0  0  0  0
    5.0837  -16.8097    9.5152 C   0  0  2  0  0  0  0  0  0  0  0  0
    6.5971  -17.0254    9.4742 C   0  0  0  0  0  0  0  0  0  0  0  0
    6.2219  -14.6373    8.6570 C   0  0  0  0  0  0  0  0  0  0  0  0
    5.2522  -13.8838    7.9966 O   0  0  0  0  0  0  0  0  0  0  0  0
    5.6121  -12.2386    8.0895 P   0  0  0  0  0  5  0  0  0  0  0  0
    6.9644  -12.0744    8.7557 O   0  0  0  0  0  0  0  0  0  0  0  0
    4.4547  -11.3688    8.9266 O   0  0  0  0  0  1  0  0  0  0  0  0
    5.6975  -11.5843    6.5120 O   0  0  0  0  0  1  0  0  0  0  0  0
    6.3651  -16.6172    6.2124 O   0  0  0  0  0  0  0  0  0  0  0  0
    5.8470  -17.5445    4.8932 P   0  0  0  0  0  5  0  0  0  0  0  0
    5.7118  -19.0114    5.2787 O   0  0  0  0  0  0  0  0  0  0  0  0
    4.3877  -16.9503    4.2702 O   0  0  0  0  0  1  0  0  0  0  0  0
    7.0009  -17.4817    3.6536 O   0  0  0  0  0  1  0  0  0  0  0  0
  1  2  1  0
  2  3  1  0
  3  4  2  0
  4  5  1  0
  5  6  1  0
  5  7  2  0
  7  8  1  0
  8  9  2  0
  9 10  1  0
 10 11  2  0
 11 12  1  0
 13 12  1  6
 13 14  1  0
 14 15  1  0
 15 16  1  0
 16 17  1  0
 17 18  1  1
 16 19  1  1
 19 20  1  0
 20 21  1  0
 21 22  2  0
 21 23  1  0
 21 24  1  0
 15 25  1  6
 25 26  1  0
 26 27  2  0
 26 28  1  0
 26 29  1  0
  9  3  1  0
 17 13  1  0
 12  8  1  0
 18 16  1  0
M  CHG  4  23  -1  24  -1  28  -1  29  -1
M  END
$$$$
