
     RDKit          3D

 29 32  0  0  0  0  0  0  0  0999 V2000
   -1.7908  -15.4143   11.0702 C   0  0  0  0  0  0  0  0  0  0  0  0
   -0.4250  -15.1332   10.6759 N   0  0  0  0  0  0  0  0  0  0  0  0
    0.5059  -16.1426   10.3530 C   0  0  0  0  0  0  0  0  0  0  0  0
    0.1220  -17.4290   10.3719 N   0  0  0  0  0  0  0  0  0  0  0  0
    0.9948  -18.4318   10.0654 C   0  0  0  0  0  0  0  0  0  0  0  0
    0.4211  -20.4527   10.0870 I   0  0  0  0  0  0  0  0  0  0  0  0
    2.2386  -18.0897    9.7473 N   0  0  0  0  0  0  0  0  0  0  0  0
    2.7003  -16.8297    9.7054 C   0  0  0  0  0  0  0  0  0  0  0  0
    1.7858  -15.8192   10.0239 C   0  0  0  0  0  0  0  0  0  0  0  0
    2.4679  -14.6717    9.9139 N   0  0  0  0  0  0  0  0  0  0  0  0
    3.7329  -14.9656    9.5474 C   0  0  0  0  0  0  0  0  0  0  0  0
    3.8934  -16.2934    9.4143 N   0  0  0  0  0  0  0  0  0  0  0  0
    5.0688  -17.0100    9.0440 C   0  0  1  0  0  0  0  0  0  0  0  0
    4.9557  -17.7924    7.7808 C   0  0  0  0  0  0  0  0  0  0  0  0
    6.0098  -17.2611    6.8727 C   0  0  1  0  0  0  0  0  0  0  0  0
    7.0012  -16.4918    7.6705 C   0  0  1  0  0  0  0  0  0  0  0  0
    6.2932  -16.1497    8.9161 C   0  0  2  0  0  0  0  0  0  0  0  0
    7.5871  -16.9649    8.9307 C   0  0  0  0  0  0  0  0  0  0  0  0
    7.7607  -15.4385    6.8931 C   0  0  0  0  0  0  0  0  0  0  0  0
    8.2627  -14.4567    7.7466 O   0  0  0  0  0  0  0  0  0  0  0  0
    9.2211  -13.3612    6.8943 P   0  0  0  0  0  5  0  0  0  0  0  0
    9.0625  -11.9888    7.5195 O   0  0  0  0  0  0  0  0  0  0  0  0
    8.8380  -13.2947    5.2677 O   0  0  0  0  0  1  0  0  0  0  0  0
   10.8617  -13.8285    7.0116 O   0  0  0  0  0  1  0  0  0  0  0  0
    6.5815  -18.2377    6.0621 O   0  0  0  0  0  0  0  0  0  0  0  0
    5.4136  -19.2210    5.3289 P   0  0  0  0  0  5  0  0  0  0  0  0
    6.0407  -20.1067    4.2607 O   0  0  0  0  0  0  0  0  0  0  0  0
    4.5980  -20.1566    6.4821 O   0  0  0  0  0  1  0  0  0  0  0  0
    4.2638  -18.2604    4.5369 O   0  0  0  0  0  1  0  0  0  0  0  0
  1  2  1  0
  2  3  1  0
  3  4  2  0
  4  5  1  0
  5  6  1  0
  5  7  2  0
  7  8  1  0
  8  9  2  0
  9 10  1  0
 10 11  2  0
 11 12  1  0
 13 12  1  6
 13 14  1  0
 14 15  1  0
 15 16  1  0
 16 17  1  0
 17 18  1  1
 16 19  1  6
 19 20  1  0
 20 21  1  0
 21 22  2  0
 21 23  1  0
 21 24  1  0
 15 25  1  1
 25 26  1  0
 26 27  2  0
 26 28  1  0
 26 29  1  0
  9  3  1  0
 17 13  1  0
 12  8  1  0
 18 16  1  0
M  CHG  4  23  -1  24  -1  28  -1  29  -1
M  END
$$$$
