
     RDKit          3D

 29 32  0  0  0  0  0  0  0  0999 V2000
    3.7802  -11.2371   12.3792 C   0  0  0  0  0  0  0  0  0  0  0  0
    3.1790  -12.2997   11.5986 N   0  0  0  0  0  0  0  0  0  0  0  0
    3.8492  -12.9528   10.5431 C   0  0  0  0  0  0  0  0  0  0  0  0
    4.8503  -12.3259    9.9050 N   0  0  0  0  0  0  0  0  0  0  0  0
    5.5210  -12.9265    8.8799 C   0  0  0  0  0  0  0  0  0  0  0  0
    7.0910  -11.9690    7.8641 I   0  0  0  0  0  0  0  0  0  0  0  0
    5.1479  -14.1543    8.5355 N   0  0  0  0  0  0  0  0  0  0  0  0
    4.1592  -14.8479    9.1221 C   0  0  0  0  0  0  0  0  0  0  0  0
    3.4867  -14.2102   10.1708 C   0  0  0  0  0  0  0  0  0  0  0  0
    2.5619  -15.0851   10.5871 N   0  0  0  0  0  0  0  0  0  0  0  0
    2.6639  -16.1990    9.8323 C   0  0  0  0  0  0  0  0  0  0  0  0
    3.6451  -16.0693    8.9230 N   0  0  0  0  0  0  0  0  0  0  0  0
    4.0726  -17.0112    7.9421 C   0  0  1  0  0  0  0  0  0  0  0  0
    5.4074  -17.6225    8.1980 C   0  0  0  0  0  0  0  0  0  0  0  0
    5.1761  -19.0909    8.2892 C   0  0  1  0  0  0  0  0  0  0  0  0
    3.8506  -19.4155    7.6985 C   0  0  1  0  0  0  0  0  0  0  0  0
    3.1098  -18.1426    7.7217 C   0  0  2  0  0  0  0  0  0  0  0  0
    3.3725  -18.8901    6.4137 C   0  0  0  0  0  0  0  0  0  0  0  0
    3.2213  -20.6913    8.2150 C   0  0  0  0  0  0  0  0  0  0  0  0
    2.0063  -20.4259    8.8456 O   0  0  0  0  0  0  0  0  0  0  0  0
    0.9190  -21.6914    8.5982 P   0  0  0  0  0  5  0  0  0  0  0  0
    1.7032  -22.9760    8.4132 O   0  0  0  0  0  0  0  0  0  0  0  0
   -0.0801  -21.4385    7.2811 O   0  0  0  0  0  1  0  0  0  0  0  0
   -0.0844  -21.8572    9.9729 O   0  0  0  0  0  1  0  0  0  0  0  0
    6.2214  -19.8465    7.7660 O   0  0  0  0  0  0  0  0  0  0  0  0
    7.7317  -19.1447    8.0748 P   0  0  0  0  0  5  0  0  0  0  0  0
    7.8776  -18.7941    9.5494 O   0  0  0  0  0  0  0  0  0  0  0  0
    8.9882  -20.1643    7.5727 O   0  0  0  0  0  1  0  0  0  0  0  0
    7.8774  -17.6876    7.2216 O   0  0  0  0  0  1  0  0  0  0  0  0
  1  2  1  0
  2  3  1  0
  3  4  2  0
  4  5  1  0
  5  6  1  0
  5  7  2  0
  7  8  1  0
  8  9  2  0
  9 10  1  0
 10 11  2  0
 11 12  1  0
 13 12  1  1
 13 14  1  0
 14 15  1  0
 15 16  1  0
 16 17  1  0
 17 18  1  6
 16 19  1  1
 19 20  1  0
 20 21  1  0
 21 22  2  0
 21 23  1  0
 21 24  1  0
 15 25  1  6
 25 26  1  0
 26 27  2  0
 26 28  1  0
 26 29  1  0
  9  3  1  0
 17 13  1  0
 12  8  1  0
 18 16  1  0
M  CHG  4  23  -1  24  -1  28  -1  29  -1
M  END
$$$$
