
     RDKit          3D

 29 32  0  0  0  0  0  0  0  0999 V2000
   -0.4930  -22.0357   12.3651 C   0  0  0  0  0  0  0  0  0  0  0  0
    0.0937  -21.3218   11.2489 N   0  0  0  0  0  0  0  0  0  0  0  0
    1.0554  -20.3021   11.4077 C   0  0  0  0  0  0  0  0  0  0  0  0
    1.4657  -19.9639   12.6405 N   0  0  0  0  0  0  0  0  0  0  0  0
    2.3940  -18.9828   12.8323 C   0  0  0  0  0  0  0  0  0  0  0  0
    3.0538  -18.4334   14.7497 I   0  0  0  0  0  0  0  0  0  0  0  0
    2.8777  -18.3737   11.7551 N   0  0  0  0  0  0  0  0  0  0  0  0
    2.5204  -18.6526   10.4913 C   0  0  0  0  0  0  0  0  0  0  0  0
    1.5667  -19.6627   10.3210 C   0  0  0  0  0  0  0  0  0  0  0  0
    1.3771  -19.7564    8.9984 N   0  0  0  0  0  0  0  0  0  0  0  0
    2.1732  -18.8510    8.3922 C   0  0  0  0  0  0  0  0  0  0  0  0
    2.8858  -18.1611    9.2994 N   0  0  0  0  0  0  0  0  0  0  0  0
    3.8356  -17.1222    9.0743 C   0  0  1  0  0  0  0  0  0  0  0  0
    5.2611  -17.5332    9.2147 C   0  0  0  0  0  0  0  0  0  0  0  0
    5.9009  -17.2532    7.8993 C   0  0  1  0  0  0  0  0  0  0  0  0
    5.0371  -16.3252    7.1223 C   0  0  1  0  0  0  0  0  0  0  0  0
    3.7041  -16.4544    7.7354 C   0  0  2  0  0  0  0  0  0  0  0  0
    4.4294  -15.1093    7.6770 C   0  0  0  0  0  0  0  0  0  0  0  0
    5.2134  -16.4017    5.6211 C   0  0  0  0  0  0  0  0  0  0  0  0
    3.9783  -16.4865    4.9794 O   0  0  0  0  0  0  0  0  0  0  0  0
    4.1833  -16.6347    3.3119 P   0  0  0  0  0  5  0  0  0  0  0  0
    2.8176  -16.7501    2.6632 O   0  0  0  0  0  0  0  0  0  0  0  0
    5.1279  -17.9488    2.8899 O   0  0  0  0  0  1  0  0  0  0  0  0
    4.9589  -15.2360    2.7069 O   0  0  0  0  0  1  0  0  0  0  0  0
    7.2217  -16.8278    8.0089 O   0  0  0  0  0  0  0  0  0  0  0  0
    8.1724  -17.9208    8.8863 P   0  0  0  0  0  5  0  0  0  0  0  0
    9.3011  -18.4729    8.0261 O   0  0  0  0  0  0  0  0  0  0  0  0
    8.7859  -17.1991   10.2911 O   0  0  0  0  0  1  0  0  0  0  0  0
    7.2364  -19.2529    9.3572 O   0  0  0  0  0  1  0  0  0  0  0  0
  1  2  1  0
  2  3  1  0
  3  4  2  0
  4  5  1  0
  5  6  1  0
  5  7  2  0
  7  8  1  0
  8  9  2  0
  9 10  1  0
 10 11  2  0
 11 12  1  0
 13 12  1  6
 13 14  1  0
 14 15  1  0
 15 16  1  0
 16 17  1  0
 17 18  1  1
 16 19  1  6
 19 20  1  0
 20 21  1  0
 21 22  2  0
 21 23  1  0
 21 24  1  0
 15 25  1  1
 25 26  1  0
 26 27  2  0
 26 28  1  0
 26 29  1  0
  9  3  1  0
 17 13  1  0
 12  8  1  0
 18 16  1  0
M  CHG  4  23  -1  24  -1  28  -1  29  -1
M  END
$$$$
