
     RDKit          3D

 29 32  0  0  0  0  0  0  0  0999 V2000
   -0.8880  -11.8522   13.8660 C   0  0  0  0  0  0  0  0  0  0  0  0
   -1.3333  -10.5907   14.4228 N   0  0  0  0  0  0  0  0  0  0  0  0
   -0.6735   -9.3674   14.1813 C   0  0  0  0  0  0  0  0  0  0  0  0
    0.4174   -9.3458   13.3991 N   0  0  0  0  0  0  0  0  0  0  0  0
    1.0811   -8.1815   13.1435 C   0  0  0  0  0  0  0  0  0  0  0  0
    2.7902   -8.1187   11.9235 I   0  0  0  0  0  0  0  0  0  0  0  0
    0.6090   -7.0695   13.6966 N   0  0  0  0  0  0  0  0  0  0  0  0
   -0.4732   -7.0068   14.4887 C   0  0  0  0  0  0  0  0  0  0  0  0
   -1.1364   -8.2143   14.7356 C   0  0  0  0  0  0  0  0  0  0  0  0
   -2.1636   -7.9011   15.5361 N   0  0  0  0  0  0  0  0  0  0  0  0
   -2.1300   -6.5718   15.7662 C   0  0  0  0  0  0  0  0  0  0  0  0
   -1.0926   -6.0045   15.1270 N   0  0  0  0  0  0  0  0  0  0  0  0
   -0.7063   -4.6324   15.1111 C   0  0  1  0  0  0  0  0  0  0  0  0
   -1.0569   -3.8956   13.8641 C   0  0  0  0  0  0  0  0  0  0  0  0
   -1.9388   -2.7717   14.2852 C   0  0  1  0  0  0  0  0  0  0  0  0
   -1.7988   -2.5620   15.7507 C   0  0  1  0  0  0  0  0  0  0  0  0
   -1.2513   -3.8315   16.2588 C   0  0  2  0  0  0  0  0  0  0  0  0
   -0.5113   -2.5075   16.4539 C   0  0  0  0  0  0  0  0  0  0  0  0
   -2.9914   -1.9082   16.4146 C   0  0  0  0  0  0  0  0  0  0  0  0
   -4.1802   -2.3077   15.8052 O   0  0  0  0  0  0  0  0  0  0  0  0
   -5.5112   -1.6799   16.6293 P   0  0  0  0  0  5  0  0  0  0  0  0
   -5.4532   -2.1457   18.0712 O   0  0  0  0  0  0  0  0  0  0  0  0
   -6.9686   -2.1294   15.9430 O   0  0  0  0  0  1  0  0  0  0  0  0
   -5.4428    0.0285   16.6040 O   0  0  0  0  0  1  0  0  0  0  0  0
   -1.7522   -1.6145   13.5346 O   0  0  0  0  0  0  0  0  0  0  0  0
   -1.7116   -1.9333   11.8717 P   0  0  0  0  0  5  0  0  0  0  0  0
   -0.3026   -1.7643   11.3194 O   0  0  0  0  0  0  0  0  0  0  0  0
   -2.3060   -3.4841   11.5369 O   0  0  0  0  0  1  0  0  0  0  0  0
   -2.6843   -0.8184   11.0454 O   0  0  0  0  0  1  0  0  0  0  0  0
  1  2  1  0
  2  3  1  0
  3  4  2  0
  4  5  1  0
  5  6  1  0
  5  7  2  0
  7  8  1  0
  8  9  2  0
  9 10  1  0
 10 11  2  0
 11 12  1  0
 13 12  1  6
 13 14  1  0
 14 15  1  0
 15 16  1  0
 16 17  1  0
 17 18  1  1
 16 19  1  1
 19 20  1  0
 20 21  1  0
 21 22  2  0
 21 23  1  0
 21 24  1  0
 15 25  1  6
 25 26  1  0
 26 27  2  0
 26 28  1  0
 26 29  1  0
  9  3  1  0
 17 13  1  0
 12  8  1  0
 18 16  1  0
M  CHG  4  23  -1  24  -1  28  -1  29  -1
M  END
$$$$
