
     RDKit          3D

 29 32  0  0  0  0  0  0  0  0999 V2000
    6.9846  -11.6801    7.3432 C   0  0  0  0  0  0  0  0  0  0  0  0
    6.3893  -12.9670    7.0443 N   0  0  0  0  0  0  0  0  0  0  0  0
    5.5901  -13.6773    7.9644 C   0  0  0  0  0  0  0  0  0  0  0  0
    5.1451  -13.0604    9.0706 N   0  0  0  0  0  0  0  0  0  0  0  0
    4.3701  -13.7156    9.9823 C   0  0  0  0  0  0  0  0  0  0  0  0
    3.6603  -12.7748   11.7215 I   0  0  0  0  0  0  0  0  0  0  0  0
    4.0714  -14.9867    9.7364 N   0  0  0  0  0  0  0  0  0  0  0  0
    4.4761  -15.6741    8.6564 C   0  0  0  0  0  0  0  0  0  0  0  0
    5.2697  -14.9799    7.7362 C   0  0  0  0  0  0  0  0  0  0  0  0
    5.5426  -15.8596    6.7637 N   0  0  0  0  0  0  0  0  0  0  0  0
    4.9469  -17.0301    7.0735 C   0  0  0  0  0  0  0  0  0  0  0  0
    4.2842  -16.9329    8.2388 N   0  0  0  0  0  0  0  0  0  0  0  0
    3.5290  -17.9361    8.9136 C   0  0  1  0  0  0  0  0  0  0  0  0
    2.0538  -17.8472    8.7216 C   0  0  0  0  0  0  0  0  0  0  0  0
    1.6408  -19.1399    8.1080 C   0  0  1  0  0  0  0  0  0  0  0  0
    2.7226  -20.1416    8.3016 C   0  0  1  0  0  0  0  0  0  0  0  0
    3.9304  -19.3406    8.5645 C   0  0  2  0  0  0  0  0  0  0  0  0
    3.4164  -20.3662    9.5757 C   0  0  0  0  0  0  0  0  0  0  0  0
    2.7387  -21.2624    7.2846 C   0  0  0  0  0  0  0  0  0  0  0  0
    3.5999  -20.9635    6.2295 O   0  0  0  0  0  0  0  0  0  0  0  0
    3.7129  -22.2679    5.1662 P   0  0  0  0  0  5  0  0  0  0  0  0
    2.3326  -22.5635    4.6122 O   0  0  0  0  0  0  0  0  0  0  0  0
    4.3434  -23.6387    5.8877 O   0  0  0  0  0  1  0  0  0  0  0  0
    4.7460  -21.8561    3.8674 O   0  0  0  0  0  1  0  0  0  0  0  0
    0.3906  -19.5776    8.5354 O   0  0  0  0  0  0  0  0  0  0  0  0
   -0.7219  -18.3065    8.6581 P   0  0  0  0  0  5  0  0  0  0  0  0
   -0.1979  -17.2114    9.5772 O   0  0  0  0  0  0  0  0  0  0  0  0
   -1.0968  -17.6792    7.1295 O   0  0  0  0  0  1  0  0  0  0  0  0
   -2.1627  -18.8644    9.3544 O   0  0  0  0  0  1  0  0  0  0  0  0
  1  2  1  0
  2  3  1  0
  3  4  2  0
  4  5  1  0
  5  6  1  0
  5  7  2  0
  7  8  1  0
  8  9  2  0
  9 10  1  0
 10 11  2  0
 11 12  1  0
 13 12  1  6
 13 14  1  0
 14 15  1  0
 15 16  1  0
 16 17  1  0
 17 18  1  1
 16 19  1  6
 19 20  1  0
 20 21  1  0
 21 22  2  0
 21 23  1  0
 21 24  1  0
 15 25  1  1
 25 26  1  0
 26 27  2  0
 26 28  1  0
 26 29  1  0
  9  3  1  0
 17 13  1  0
 12  8  1  0
 18 16  1  0
M  CHG  4  23  -1  24  -1  28  -1  29  -1
M  END
$$$$
