
     RDKit          3D

 29 32  0  0  0  0  0  0  0  0999 V2000
   -2.6516  -19.7714    5.2655 C   0  0  0  0  0  0  0  0  0  0  0  0
   -1.5467  -18.8885    5.5806 N   0  0  0  0  0  0  0  0  0  0  0  0
   -0.4631  -19.2733    6.3977 C   0  0  0  0  0  0  0  0  0  0  0  0
   -0.2637  -20.5737    6.6653 N   0  0  0  0  0  0  0  0  0  0  0  0
    0.7736  -20.9828    7.4514 C   0  0  0  0  0  0  0  0  0  0  0  0
    1.1090  -23.0106    7.8861 I   0  0  0  0  0  0  0  0  0  0  0  0
    1.5796  -20.0480    7.9429 N   0  0  0  0  0  0  0  0  0  0  0  0
    1.4487  -18.7299    7.7231 C   0  0  0  0  0  0  0  0  0  0  0  0
    0.3771  -18.3358    6.9137 C   0  0  0  0  0  0  0  0  0  0  0  0
    0.4548  -17.0005    6.8425 N   0  0  0  0  0  0  0  0  0  0  0  0
    1.5181  -16.5997    7.5703 C   0  0  0  0  0  0  0  0  0  0  0  0
    2.1428  -17.6549    8.1207 N   0  0  0  0  0  0  0  0  0  0  0  0
    3.2991  -17.6624    8.9544 C   0  0  1  0  0  0  0  0  0  0  0  0
    4.4664  -18.4065    8.4026 C   0  0  0  0  0  0  0  0  0  0  0  0
    5.5757  -17.4174    8.3061 C   0  0  1  0  0  0  0  0  0  0  0  0
    5.2521  -16.2350    9.1478 C   0  0  1  0  0  0  0  0  0  0  0  0
    3.7914  -16.2936    9.3280 C   0  0  2  0  0  0  0  0  0  0  0  0
    4.7453  -16.3191   10.5230 C   0  0  0  0  0  0  0  0  0  0  0  0
    5.9330  -14.9508    8.7261 C   0  0  0  0  0  0  0  0  0  0  0  0
    4.9964  -14.0060    8.3084 O   0  0  0  0  0  0  0  0  0  0  0  0
    5.7647  -12.6004    7.7802 P   0  0  0  0  0  5  0  0  0  0  0  0
    5.6199  -12.5048    6.2738 O   0  0  0  0  0  0  0  0  0  0  0  0
    7.3822  -12.5489    8.2021 O   0  0  0  0  0  1  0  0  0  0  0  0
    5.0109  -11.2388    8.4888 O   0  0  0  0  0  1  0  0  0  0  0  0
    6.8272  -17.9662    8.5706 O   0  0  0  0  0  0  0  0  0  0  0  0
    7.0762  -19.4176    7.7339 P   0  0  0  0  0  5  0  0  0  0  0  0
    6.4802  -19.3482    6.3344 O   0  0  0  0  0  0  0  0  0  0  0  0
    8.7246  -19.8033    7.6662 O   0  0  0  0  0  1  0  0  0  0  0  0
    6.2816  -20.6864    8.5281 O   0  0  0  0  0  1  0  0  0  0  0  0
  1  2  1  0
  2  3  1  0
  3  4  2  0
  4  5  1  0
  5  6  1  0
  5  7  2  0
  7  8  1  0
  8  9  2  0
  9 10  1  0
 10 11  2  0
 11 12  1  0
 13 12  1  6
 13 14  1  0
 14 15  1  0
 15 16  1  0
 16 17  1  0
 17 18  1  1
 16 19  1  1
 19 20  1  0
 20 21  1  0
 21 22  2  0
 21 23  1  0
 21 24  1  0
 15 25  1  1
 25 26  1  0
 26 27  2  0
 26 28  1  0
 26 29  1  0
  9  3  1  0
 17 13  1  0
 12  8  1  0
 18 16  1  0
M  CHG  4  23  -1  24  -1  28  -1  29  -1
M  END
$$$$
