
     RDKit          3D

 29 32  0  0  0  0  0  0  0  0999 V2000
   -2.8394   -3.7945   19.7473 C   0  0  0  0  0  0  0  0  0  0  0  0
   -2.8439   -4.2003   18.3563 N   0  0  0  0  0  0  0  0  0  0  0  0
   -2.2897   -3.4148   17.3239 C   0  0  0  0  0  0  0  0  0  0  0  0
   -1.8339   -2.1826   17.6002 N   0  0  0  0  0  0  0  0  0  0  0  0
   -1.2916   -1.3948   16.6274 C   0  0  0  0  0  0  0  0  0  0  0  0
   -0.5709    0.5367   17.0317 I   0  0  0  0  0  0  0  0  0  0  0  0
   -1.2306   -1.8907   15.3963 N   0  0  0  0  0  0  0  0  0  0  0  0
   -1.6634   -3.1103   15.0387 C   0  0  0  0  0  0  0  0  0  0  0  0
   -2.2155   -3.8990   16.0545 C   0  0  0  0  0  0  0  0  0  0  0  0
   -2.5678   -5.0482   15.4637 N   0  0  0  0  0  0  0  0  0  0  0  0
   -2.2479   -4.9660   14.1553 C   0  0  0  0  0  0  0  0  0  0  0  0
   -1.6886   -3.7762   13.8761 N   0  0  0  0  0  0  0  0  0  0  0  0
   -1.2131   -3.2945   12.6215 C   0  0  1  0  0  0  0  0  0  0  0  0
    0.0261   -3.9558   12.1236 C   0  0  0  0  0  0  0  0  0  0  0  0
   -0.3285   -4.5548   10.8070 C   0  0  1  0  0  0  0  0  0  0  0  0
   -1.5882   -3.9389   10.3121 C   0  0  1  0  0  0  0  0  0  0  0  0
   -2.2247   -3.3735   11.5142 C   0  0  2  0  0  0  0  0  0  0  0  0
   -1.8549   -2.4952   10.3181 C   0  0  0  0  0  0  0  0  0  0  0  0
   -2.3761   -4.7959    9.3450 C   0  0  0  0  0  0  0  0  0  0  0  0
   -3.6639   -5.0311    9.8250 O   0  0  0  0  0  0  0  0  0  0  0  0
   -4.5806   -5.8681    8.6831 P   0  0  0  0  0  5  0  0  0  0  0  0
   -4.0008   -7.2598    8.5208 O   0  0  0  0  0  0  0  0  0  0  0  0
   -4.6315   -5.0950    7.2009 O   0  0  0  0  0  1  0  0  0  0  0  0
   -6.1917   -6.0089    9.2386 O   0  0  0  0  0  1  0  0  0  0  0  0
    0.7135   -4.5141    9.8851 O   0  0  0  0  0  0  0  0  0  0  0  0
    2.1159   -5.2580   10.4752 P   0  0  0  0  0  5  0  0  0  0  0  0
    3.3572   -4.6966    9.7950 O   0  0  0  0  0  0  0  0  0  0  0  0
    2.2271   -5.0941   12.1579 O   0  0  0  0  0  1  0  0  0  0  0  0
    2.0852   -6.9146   10.1191 O   0  0  0  0  0  1  0  0  0  0  0  0
  1  2  1  0
  2  3  1  0
  3  4  2  0
  4  5  1  0
  5  6  1  0
  5  7  2  0
  7  8  1  0
  8  9  2  0
  9 10  1  0
 10 11  2  0
 11 12  1  0
 13 12  1  1
 13 14  1  0
 14 15  1  0
 15 16  1  0
 16 17  1  0
 17 18  1  6
 16 19  1  6
 19 20  1  0
 20 21  1  0
 21 22  2  0
 21 23  1  0
 21 24  1  0
 15 25  1  6
 25 26  1  0
 26 27  2  0
 26 28  1  0
 26 29  1  0
  9  3  1  0
 17 13  1  0
 12  8  1  0
 18 16  1  0
M  CHG  4  23  -1  24  -1  28  -1  29  -1
M  END
$$$$
