
     RDKit          3D

 27 30  0  0  0  0  0  0  0  0999 V2000
   -3.0123    2.6288    8.8911 C   0  0  0  0  0  0  0  0  0  0  0  0
   -2.8460    1.2604    8.2842 C   0  0  0  0  0  0  0  0  0  0  0  0
   -1.5454    1.1884    7.5047 C   0  0  0  0  0  0  0  0  0  0  0  0
   -0.3850    0.9814    8.3630 C   0  0  0  0  0  0  0  0  0  0  0  0
    0.8719    1.3063    7.9101 C   0  0  0  0  0  0  0  0  0  0  0  0
    1.9791    1.0978    8.7443 C   0  0  0  0  0  0  0  0  0  0  0  0
    1.8176    0.5746   10.0026 C   0  0  0  0  0  0  0  0  0  0  0  0
    0.5588    0.2504   10.4530 C   0  0  0  0  0  0  0  0  0  0  0  0
   -0.5201    0.4600    9.6243 C   0  0  0  0  0  0  0  0  0  0  0  0
    3.2280    0.3229   11.0292 Cl  0  0  0  0  0  0  0  0  0  0  0  0
   -1.6864    0.1842    6.4368 C   0  0  0  0  0  0  0  0  0  0  0  0
   -1.8578   -1.0286    6.8124 O   0  0  0  0  0  0  0  0  0  0  0  0
   -1.6423    0.4910    5.0548 N   0  0  0  0  0  0  0  0  0  0  0  0
   -1.6291    1.8499    4.6202 C   0  0  0  0  0  0  0  0  0  0  0  0
   -2.0274    2.1074    3.2134 C   0  0  0  0  0  0  0  0  0  0  0  0
   -2.1121    0.9411    2.3118 C   0  0  0  0  0  0  0  0  0  0  0  0
   -2.6560   -0.2897    3.0519 C   0  0  0  0  0  0  0  0  0  0  0  0
   -1.6075   -0.5823    4.1039 C   0  0  0  0  0  0  0  0  0  0  0  0
   -2.9140    1.1163    1.1763 O   0  0  0  0  0  0  0  0  0  0  0  0
   -2.5135    0.1192    0.2830 C   0  0  0  0  0  0  0  0  0  0  0  0
   -3.0870   -0.5231   -0.7936 C   0  0  0  0  0  0  0  0  0  0  0  0
   -2.4454   -1.5023   -1.5212 C   0  0  0  0  0  0  0  0  0  0  0  0
   -1.1667   -1.8577   -1.1547 C   0  0  0  0  0  0  0  0  0  0  0  0
   -0.5574   -1.2391   -0.0835 C   0  0  0  0  0  0  0  0  0  0  0  0
   -1.2230   -0.2449    0.6467 C   0  0  0  0  0  0  0  0  0  0  0  0
   -0.8800    0.5374    1.7438 O   0  0  0  0  0  0  0  0  0  0  0  0
   -3.8957    1.0498    7.3734 O   0  0  0  0  0  0  0  0  0  0  0  0
  1  2  1  0
  2  3  1  0
  3  4  1  0
  4  5  2  0
  5  6  1  0
  6  7  2  0
  7  8  1  0
  8  9  2  0
  7 10  1  0
  3 11  1  0
 11 12  2  0
 11 13  1  0
 13 14  1  0
 14 15  1  0
 15 16  1  0
 16 17  1  0
 17 18  1  0
 16 19  1  0
 19 20  1  0
 20 21  2  0
 21 22  1  0
 22 23  2  0
 23 24  1  0
 24 25  2  0
 25 26  1  0
  2 27  1  0
  9  4  1  0
 18 13  1  0
 26 16  1  0
 25 20  1  0
M  END
$$$$
