
     RDKit          3D

 27 30  0  0  0  0  0  0  0  0999 V2000
  -12.7478    2.3150    8.1464 C   0  0  0  0  0  0  0  0  0  0  0  0
  -11.4171    1.6112    8.0978 C   0  0  0  0  0  0  0  0  0  0  0  0
  -10.3719    2.4159    8.8491 C   0  0  0  0  0  0  0  0  0  0  0  0
  -10.6808    2.5554   10.2673 C   0  0  0  0  0  0  0  0  0  0  0  0
  -11.0377    3.7820   10.7758 C   0  0  0  0  0  0  0  0  0  0  0  0
  -11.3276    3.9026   12.1421 C   0  0  0  0  0  0  0  0  0  0  0  0
  -11.2579    2.8107   12.9704 C   0  0  0  0  0  0  0  0  0  0  0  0
  -10.9004    1.5848   12.4588 C   0  0  0  0  0  0  0  0  0  0  0  0
  -10.6183    1.4796   11.1157 C   0  0  0  0  0  0  0  0  0  0  0  0
  -11.6274    2.9923   14.6842 Cl  0  0  0  0  0  0  0  0  0  0  0  0
   -9.0440    1.8390    8.5799 C   0  0  0  0  0  0  0  0  0  0  0  0
   -9.0213    0.6270    8.1653 O   0  0  0  0  0  0  0  0  0  0  0  0
   -7.8279    2.5438    8.7541 N   0  0  0  0  0  0  0  0  0  0  0  0
   -7.8411    3.9072    9.1744 C   0  0  0  0  0  0  0  0  0  0  0  0
   -6.6144    4.7012    8.9119 C   0  0  0  0  0  0  0  0  0  0  0  0
   -5.4002    3.9576    8.5206 C   0  0  0  0  0  0  0  0  0  0  0  0
   -5.7507    2.7638    7.6202 C   0  0  0  0  0  0  0  0  0  0  0  0
   -6.5884    1.8660    8.5056 C   0  0  0  0  0  0  0  0  0  0  0  0
   -4.4306    4.7057    7.8397 O   0  0  0  0  0  0  0  0  0  0  0  0
   -3.2462    3.9744    7.9612 C   0  0  0  0  0  0  0  0  0  0  0  0
   -2.0617    3.8995    7.2598 C   0  0  0  0  0  0  0  0  0  0  0  0
   -1.0244    3.0631    7.6121 C   0  0  0  0  0  0  0  0  0  0  0  0
   -1.1781    2.2611    8.7207 C   0  0  0  0  0  0  0  0  0  0  0  0
   -2.3477    2.3061    9.4497 C   0  0  0  0  0  0  0  0  0  0  0  0
   -3.3938    3.1621    9.0787 C   0  0  0  0  0  0  0  0  0  0  0  0
   -4.6564    3.4228    9.5997 O   0  0  0  0  0  0  0  0  0  0  0  0
  -11.0059    1.5346    6.7558 O   0  0  0  0  0  0  0  0  0  0  0  0
  1  2  1  0
  2  3  1  0
  3  4  1  0
  4  5  2  0
  5  6  1  0
  6  7  2  0
  7  8  1  0
  8  9  2  0
  7 10  1  0
  3 11  1  0
 11 12  2  0
 11 13  1  0
 13 14  1  0
 14 15  1  0
 15 16  1  0
 16 17  1  0
 17 18  1  0
 16 19  1  0
 19 20  1  0
 20 21  2  0
 21 22  1  0
 22 23  2  0
 23 24  1  0
 24 25  2  0
 25 26  1  0
  2 27  1  0
  9  4  1  0
 18 13  1  0
 26 16  1  0
 25 20  1  0
M  END
$$$$
