
     RDKit          3D

 27 30  0  0  0  0  0  0  0  0999 V2000
   -2.0704    4.0454    2.7900 C   0  0  0  0  0  0  0  0  0  0  0  0
   -2.2331    2.5761    3.0784 C   0  0  0  0  0  0  0  0  0  0  0  0
   -1.7819    2.2679    4.4947 C   0  0  0  0  0  0  0  0  0  0  0  0
   -2.5911    2.9423    5.5029 C   0  0  0  0  0  0  0  0  0  0  0  0
   -2.0355    3.9287    6.2833 C   0  0  0  0  0  0  0  0  0  0  0  0
   -2.8239    4.5656    7.2518 C   0  0  0  0  0  0  0  0  0  0  0  0
   -4.1388    4.2132    7.4251 C   0  0  0  0  0  0  0  0  0  0  0  0
   -4.6919    3.2260    6.6428 C   0  0  0  0  0  0  0  0  0  0  0  0
   -3.9072    2.6083    5.6954 C   0  0  0  0  0  0  0  0  0  0  0  0
   -5.1058    5.0309    8.6510 Cl  0  0  0  0  0  0  0  0  0  0  0  0
   -1.7114    0.8067    4.6636 C   0  0  0  0  0  0  0  0  0  0  0  0
   -2.4372    0.1050    3.8749 O   0  0  0  0  0  0  0  0  0  0  0  0
   -0.9010    0.1628    5.6303 N   0  0  0  0  0  0  0  0  0  0  0  0
   -0.9591   -1.2541    5.7884 C   0  0  0  0  0  0  0  0  0  0  0  0
   -0.4515   -1.8068    7.0694 C   0  0  0  0  0  0  0  0  0  0  0  0
    0.3305   -0.8995    7.9330 C   0  0  0  0  0  0  0  0  0  0  0  0
   -0.2281    0.5300    7.8801 C   0  0  0  0  0  0  0  0  0  0  0  0
   -0.0224    0.9547    6.4417 C   0  0  0  0  0  0  0  0  0  0  0  0
    0.3896   -1.2600    9.2857 O   0  0  0  0  0  0  0  0  0  0  0  0
    1.4868   -0.5683    9.8054 C   0  0  0  0  0  0  0  0  0  0  0  0
    1.8822   -0.1535   11.0593 C   0  0  0  0  0  0  0  0  0  0  0  0
    3.0528    0.5349   11.2952 C   0  0  0  0  0  0  0  0  0  0  0  0
    3.8693    0.8235   10.2248 C   0  0  0  0  0  0  0  0  0  0  0  0
    3.5098    0.4261    8.9542 C   0  0  0  0  0  0  0  0  0  0  0  0
    2.3160   -0.2734    8.7303 C   0  0  0  0  0  0  0  0  0  0  0  0
    1.7011   -0.7918    7.5961 O   0  0  0  0  0  0  0  0  0  0  0  0
   -1.3982    1.8586    2.2043 O   0  0  0  0  0  0  0  0  0  0  0  0
  1  2  1  0
  2  3  1  0
  3  4  1  0
  4  5  2  0
  5  6  1  0
  6  7  2  0
  7  8  1  0
  8  9  2  0
  7 10  1  0
  3 11  1  0
 11 12  2  0
 11 13  1  0
 13 14  1  0
 14 15  1  0
 15 16  1  0
 16 17  1  0
 17 18  1  0
 16 19  1  0
 19 20  1  0
 20 21  2  0
 21 22  1  0
 22 23  2  0
 23 24  1  0
 24 25  2  0
 25 26  1  0
  2 27  1  0
  9  4  1  0
 18 13  1  0
 26 16  1  0
 25 20  1  0
M  END
$$$$
