
     RDKit          3D

 27 30  0  0  0  0  0  0  0  0999 V2000
   -5.6569    5.5053    6.4362 C   0  0  0  0  0  0  0  0  0  0  0  0
   -5.2404    4.3142    5.6137 C   0  0  0  0  0  0  0  0  0  0  0  0
   -5.1127    3.0869    6.4978 C   0  0  0  0  0  0  0  0  0  0  0  0
   -6.3868    2.6719    7.0729 C   0  0  0  0  0  0  0  0  0  0  0  0
   -7.3722    2.1591    6.2628 C   0  0  0  0  0  0  0  0  0  0  0  0
   -8.5940    1.7683    6.8285 C   0  0  0  0  0  0  0  0  0  0  0  0
   -8.8114    1.8936    8.1777 C   0  0  0  0  0  0  0  0  0  0  0  0
   -7.8235    2.4070    8.9856 C   0  0  0  0  0  0  0  0  0  0  0  0
   -6.6285    2.7870    8.4180 C   0  0  0  0  0  0  0  0  0  0  0  0
  -10.3575    1.3945    8.8610 Cl  0  0  0  0  0  0  0  0  0  0  0  0
   -4.4237    2.0268    5.7426 C   0  0  0  0  0  0  0  0  0  0  0  0
   -4.9210    1.7231    4.6017 O   0  0  0  0  0  0  0  0  0  0  0  0
   -3.2706    1.3490    6.2082 N   0  0  0  0  0  0  0  0  0  0  0  0
   -2.7000    0.2903    5.4405 C   0  0  0  0  0  0  0  0  0  0  0  0
   -1.8036   -0.6504    6.1586 C   0  0  0  0  0  0  0  0  0  0  0  0
   -1.3456   -0.2514    7.5045 C   0  0  0  0  0  0  0  0  0  0  0  0
   -2.4543    0.4881    8.2677 C   0  0  0  0  0  0  0  0  0  0  0  0
   -2.6864    1.7452    7.4569 C   0  0  0  0  0  0  0  0  0  0  0  0
   -0.9183   -1.3004    8.3294 O   0  0  0  0  0  0  0  0  0  0  0  0
   -0.1451   -0.6971    9.3246 C   0  0  0  0  0  0  0  0  0  0  0  0
    0.2397   -1.0294   10.6061 C   0  0  0  0  0  0  0  0  0  0  0  0
    1.0330   -0.2217   11.3923 C   0  0  0  0  0  0  0  0  0  0  0  0
    1.4636    0.9783   10.8721 C   0  0  0  0  0  0  0  0  0  0  0  0
    1.1008    1.3477    9.5940 C   0  0  0  0  0  0  0  0  0  0  0  0
    0.2934    0.5153    8.8068 C   0  0  0  0  0  0  0  0  0  0  0  0
   -0.2238    0.6117    7.5197 O   0  0  0  0  0  0  0  0  0  0  0  0
   -3.9713    4.5751    5.0685 O   0  0  0  0  0  0  0  0  0  0  0  0
  1  2  1  0
  2  3  1  0
  3  4  1  0
  4  5  2  0
  5  6  1  0
  6  7  2  0
  7  8  1  0
  8  9  2  0
  7 10  1  0
  3 11  1  0
 11 12  2  0
 11 13  1  0
 13 14  1  0
 14 15  1  0
 15 16  1  0
 16 17  1  0
 17 18  1  0
 16 19  1  0
 19 20  1  0
 20 21  2  0
 21 22  1  0
 22 23  2  0
 23 24  1  0
 24 25  2  0
 25 26  1  0
  2 27  1  0
  9  4  1  0
 18 13  1  0
 26 16  1  0
 25 20  1  0
M  END
$$$$
