
     RDKit          3D

 27 30  0  0  0  0  0  0  0  0999 V2000
    2.4811   -0.7110    8.6522 C   0  0  0  0  0  0  0  0  0  0  0  0
    1.3818    0.3101    8.7843 C   0  0  0  0  0  0  0  0  0  0  0  0
    0.0265   -0.3594    8.6458 C   0  0  0  0  0  0  0  0  0  0  0  0
   -0.1850   -1.4121    9.6324 C   0  0  0  0  0  0  0  0  0  0  0  0
   -0.5452   -2.6747    9.2240 C   0  0  0  0  0  0  0  0  0  0  0  0
   -0.7497   -3.6761   10.1836 C   0  0  0  0  0  0  0  0  0  0  0  0
   -0.5937   -3.4059   11.5200 C   0  0  0  0  0  0  0  0  0  0  0  0
   -0.2333   -2.1417   11.9255 C   0  0  0  0  0  0  0  0  0  0  0  0
   -0.0355   -1.1674   10.9735 C   0  0  0  0  0  0  0  0  0  0  0  0
   -0.8580   -4.6845   12.7040 Cl  0  0  0  0  0  0  0  0  0  0  0  0
   -1.0183    0.6783    8.6449 C   0  0  0  0  0  0  0  0  0  0  0  0
   -1.4471    1.0580    9.7909 O   0  0  0  0  0  0  0  0  0  0  0  0
   -1.5537    1.2574    7.4685 N   0  0  0  0  0  0  0  0  0  0  0  0
   -2.2185    2.5185    7.5265 C   0  0  0  0  0  0  0  0  0  0  0  0
   -3.1228    2.8519    6.3972 C   0  0  0  0  0  0  0  0  0  0  0  0
   -3.0329    2.0077    5.1889 C   0  0  0  0  0  0  0  0  0  0  0  0
   -2.7744    0.5400    5.5596 C   0  0  0  0  0  0  0  0  0  0  0  0
   -1.4139    0.5599    6.2230 C   0  0  0  0  0  0  0  0  0  0  0  0
   -4.1628    2.0219    4.3605 O   0  0  0  0  0  0  0  0  0  0  0  0
   -3.7198    1.5498    3.1223 C   0  0  0  0  0  0  0  0  0  0  0  0
   -4.3131    0.9604    2.0263 C   0  0  0  0  0  0  0  0  0  0  0  0
   -3.6156    0.5821    0.8993 C   0  0  0  0  0  0  0  0  0  0  0  0
   -2.2571    0.8038    0.8654 C   0  0  0  0  0  0  0  0  0  0  0  0
   -1.6254    1.3911    1.9414 C   0  0  0  0  0  0  0  0  0  0  0  0
   -2.3486    1.7703    3.0806 C   0  0  0  0  0  0  0  0  0  0  0  0
   -2.0017    2.3663    4.2880 O   0  0  0  0  0  0  0  0  0  0  0  0
    1.5060    1.2326    7.7310 O   0  0  0  0  0  0  0  0  0  0  0  0
  1  2  1  0
  2  3  1  0
  3  4  1  0
  4  5  2  0
  5  6  1  0
  6  7  2  0
  7  8  1  0
  8  9  2  0
  7 10  1  0
  3 11  1  0
 11 12  2  0
 11 13  1  0
 13 14  1  0
 14 15  1  0
 15 16  1  0
 16 17  1  0
 17 18  1  0
 16 19  1  0
 19 20  1  0
 20 21  2  0
 21 22  1  0
 22 23  2  0
 23 24  1  0
 24 25  2  0
 25 26  1  0
  2 27  1  0
  9  4  1  0
 18 13  1  0
 26 16  1  0
 25 20  1  0
M  END
$$$$
