
     RDKit          3D

 27 30  0  0  0  0  0  0  0  0999 V2000
    1.1550   -2.8106    5.2866 C   0  0  0  0  0  0  0  0  0  0  0  0
    0.4548   -1.5845    4.7623 C   0  0  0  0  0  0  0  0  0  0  0  0
   -0.2967   -0.8911    5.8842 C   0  0  0  0  0  0  0  0  0  0  0  0
   -0.0696   -1.5137    7.1831 C   0  0  0  0  0  0  0  0  0  0  0  0
   -1.0441   -2.3029    7.7470 C   0  0  0  0  0  0  0  0  0  0  0  0
   -0.8141   -2.8917    8.9983 C   0  0  0  0  0  0  0  0  0  0  0  0
    0.3705   -2.6866    9.6601 C   0  0  0  0  0  0  0  0  0  0  0  0
    1.3436   -1.8965    9.0934 C   0  0  0  0  0  0  0  0  0  0  0  0
    1.1055   -1.3242    7.8644 C   0  0  0  0  0  0  0  0  0  0  0  0
    0.6316   -3.4393   11.2324 Cl  0  0  0  0  0  0  0  0  0  0  0  0
    0.0160    0.5475    5.8476 C   0  0  0  0  0  0  0  0  0  0  0  0
    1.1542    0.8722    5.3573 O   0  0  0  0  0  0  0  0  0  0  0  0
   -0.8597    1.5571    6.3164 N   0  0  0  0  0  0  0  0  0  0  0  0
   -2.2266    1.2528    6.5899 C   0  0  0  0  0  0  0  0  0  0  0  0
   -3.1709    2.3973    6.6394 C   0  0  0  0  0  0  0  0  0  0  0  0
   -2.5866    3.7521    6.6998 C   0  0  0  0  0  0  0  0  0  0  0  0
   -1.3134    3.8422    5.8458 C   0  0  0  0  0  0  0  0  0  0  0  0
   -0.3510    2.8835    6.5141 C   0  0  0  0  0  0  0  0  0  0  0  0
   -3.4292    4.7894    6.2787 O   0  0  0  0  0  0  0  0  0  0  0  0
   -2.8778    5.9554    6.8159 C   0  0  0  0  0  0  0  0  0  0  0  0
   -2.9357    7.2992    6.5134 C   0  0  0  0  0  0  0  0  0  0  0  0
   -2.2708    8.2673    7.2348 C   0  0  0  0  0  0  0  0  0  0  0  0
   -1.5098    7.8732    8.3125 C   0  0  0  0  0  0  0  0  0  0  0  0
   -1.4258    6.5384    8.6483 C   0  0  0  0  0  0  0  0  0  0  0  0
   -2.1079    5.5655    7.9048 C   0  0  0  0  0  0  0  0  0  0  0  0
   -2.2141    4.1821    7.9960 O   0  0  0  0  0  0  0  0  0  0  0  0
   -0.4936   -1.9910    3.8077 O   0  0  0  0  0  0  0  0  0  0  0  0
  1  2  1  0
  2  3  1  0
  3  4  1  0
  4  5  2  0
  5  6  1  0
  6  7  2  0
  7  8  1  0
  8  9  2  0
  7 10  1  0
  3 11  1  0
 11 12  2  0
 11 13  1  0
 13 14  1  0
 14 15  1  0
 15 16  1  0
 16 17  1  0
 17 18  1  0
 16 19  1  0
 19 20  1  0
 20 21  2  0
 21 22  1  0
 22 23  2  0
 23 24  1  0
 24 25  2  0
 25 26  1  0
  2 27  1  0
  9  4  1  0
 18 13  1  0
 26 16  1  0
 25 20  1  0
M  END
$$$$
