
     RDKit          3D

 27 30  0  0  0  0  0  0  0  0999 V2000
   -3.1816   -2.4610    7.1470 C   0  0  0  0  0  0  0  0  0  0  0  0
   -2.7503   -1.0910    6.6934 C   0  0  0  0  0  0  0  0  0  0  0  0
   -3.9229   -0.3513    6.0754 C   0  0  0  0  0  0  0  0  0  0  0  0
   -4.7348    0.3452    7.0663 C   0  0  0  0  0  0  0  0  0  0  0  0
   -4.3488    0.3571    8.3859 C   0  0  0  0  0  0  0  0  0  0  0  0
   -5.1413    1.0268    9.3287 C   0  0  0  0  0  0  0  0  0  0  0  0
   -6.2931    1.6668    8.9452 C   0  0  0  0  0  0  0  0  0  0  0  0
   -6.6768    1.6530    7.6242 C   0  0  0  0  0  0  0  0  0  0  0  0
   -5.8900    0.9921    6.7085 C   0  0  0  0  0  0  0  0  0  0  0  0
   -7.2700    2.5002   10.1526 Cl  0  0  0  0  0  0  0  0  0  0  0  0
   -3.4220    0.5162    4.9959 C   0  0  0  0  0  0  0  0  0  0  0  0
   -3.3932    0.0068    3.8208 O   0  0  0  0  0  0  0  0  0  0  0  0
   -2.9840    1.8485    5.1939 N   0  0  0  0  0  0  0  0  0  0  0  0
   -2.6626    2.6733    4.0749 C   0  0  0  0  0  0  0  0  0  0  0  0
   -1.8091    3.8588    4.3395 C   0  0  0  0  0  0  0  0  0  0  0  0
   -1.6149    4.2492    5.7503 C   0  0  0  0  0  0  0  0  0  0  0  0
   -1.5158    3.0128    6.6560 C   0  0  0  0  0  0  0  0  0  0  0  0
   -2.8729    2.3535    6.5318 C   0  0  0  0  0  0  0  0  0  0  0  0
   -0.4799    5.0296    6.0072 O   0  0  0  0  0  0  0  0  0  0  0  0
   -0.7189    5.6346    7.2438 C   0  0  0  0  0  0  0  0  0  0  0  0
    0.0649    6.1790    8.2388 C   0  0  0  0  0  0  0  0  0  0  0  0
   -0.4499    6.7270    9.3940 C   0  0  0  0  0  0  0  0  0  0  0  0
   -1.8163    6.7314    9.5637 C   0  0  0  0  0  0  0  0  0  0  0  0
   -2.6354    6.1965    8.5919 C   0  0  0  0  0  0  0  0  0  0  0  0
   -2.0967    5.6427    7.4223 C   0  0  0  0  0  0  0  0  0  0  0  0
   -2.6504    5.0457    6.2952 O   0  0  0  0  0  0  0  0  0  0  0  0
   -1.7736   -1.2431    5.6939 O   0  0  0  0  0  0  0  0  0  0  0  0
  1  2  1  0
  2  3  1  0
  3  4  1  0
  4  5  2  0
  5  6  1  0
  6  7  2  0
  7  8  1  0
  8  9  2  0
  7 10  1  0
  3 11  1  0
 11 12  2  0
 11 13  1  0
 13 14  1  0
 14 15  1  0
 15 16  1  0
 16 17  1  0
 17 18  1  0
 16 19  1  0
 19 20  1  0
 20 21  2  0
 21 22  1  0
 22 23  2  0
 23 24  1  0
 24 25  2  0
 25 26  1  0
  2 27  1  0
  9  4  1  0
 18 13  1  0
 26 16  1  0
 25 20  1  0
M  END
$$$$
