
     RDKit          3D

 27 30  0  0  0  0  0  0  0  0999 V2000
   -3.6769   -1.9609    9.8851 C   0  0  0  0  0  0  0  0  0  0  0  0
   -3.1896   -1.5126    8.5323 C   0  0  0  0  0  0  0  0  0  0  0  0
   -1.9963   -0.5870    8.6864 C   0  0  0  0  0  0  0  0  0  0  0  0
   -0.9836   -1.1196    9.5903 C   0  0  0  0  0  0  0  0  0  0  0  0
   -0.5249   -2.4055    9.4278 C   0  0  0  0  0  0  0  0  0  0  0  0
    0.4458   -2.9061   10.3068 C   0  0  0  0  0  0  0  0  0  0  0  0
    0.9381   -2.1255   11.3224 C   0  0  0  0  0  0  0  0  0  0  0  0
    0.4772   -0.8393   11.4825 C   0  0  0  0  0  0  0  0  0  0  0  0
   -0.4758   -0.3597   10.6128 C   0  0  0  0  0  0  0  0  0  0  0  0
    2.1577   -2.7817   12.4127 Cl  0  0  0  0  0  0  0  0  0  0  0  0
   -1.4840   -0.2454    7.3487 C   0  0  0  0  0  0  0  0  0  0  0  0
   -0.9140   -1.1897    6.6971 O   0  0  0  0  0  0  0  0  0  0  0  0
   -1.5906    1.0423    6.7686 N   0  0  0  0  0  0  0  0  0  0  0  0
   -1.1598    1.2640    5.4266 C   0  0  0  0  0  0  0  0  0  0  0  0
   -0.8803    2.6688    5.0360 C   0  0  0  0  0  0  0  0  0  0  0  0
   -1.3471    3.7293    5.9513 C   0  0  0  0  0  0  0  0  0  0  0  0
   -1.2024    3.2956    7.4174 C   0  0  0  0  0  0  0  0  0  0  0  0
   -2.1397    2.1140    7.5480 C   0  0  0  0  0  0  0  0  0  0  0  0
   -0.6909    4.9612    5.8282 O   0  0  0  0  0  0  0  0  0  0  0  0
   -1.5414    5.8949    6.4260 C   0  0  0  0  0  0  0  0  0  0  0  0
   -1.3882    7.1440    6.9888 C   0  0  0  0  0  0  0  0  0  0  0  0
   -2.4328    7.8676    7.5227 C   0  0  0  0  0  0  0  0  0  0  0  0
   -3.6938    7.3155    7.4928 C   0  0  0  0  0  0  0  0  0  0  0  0
   -3.8894    6.0682    6.9385 C   0  0  0  0  0  0  0  0  0  0  0  0
   -2.8169    5.3445    6.3994 C   0  0  0  0  0  0  0  0  0  0  0  0
   -2.7037    4.1000    5.7898 O   0  0  0  0  0  0  0  0  0  0  0  0
   -4.2159   -0.7779    7.9137 O   0  0  0  0  0  0  0  0  0  0  0  0
  1  2  1  0
  2  3  1  0
  3  4  1  0
  4  5  2  0
  5  6  1  0
  6  7  2  0
  7  8  1  0
  8  9  2  0
  7 10  1  0
  3 11  1  0
 11 12  2  0
 11 13  1  0
 13 14  1  0
 14 15  1  0
 15 16  1  0
 16 17  1  0
 17 18  1  0
 16 19  1  0
 19 20  1  0
 20 21  2  0
 21 22  1  0
 22 23  2  0
 23 24  1  0
 24 25  2  0
 25 26  1  0
  2 27  1  0
  9  4  1  0
 18 13  1  0
 26 16  1  0
 25 20  1  0
M  END
$$$$
