
     RDKit          3D

 27 30  0  0  0  0  0  0  0  0999 V2000
  -14.8133    2.5474    8.9033 C   0  0  0  0  0  0  0  0  0  0  0  0
  -13.5271    1.7680    8.9866 C   0  0  0  0  0  0  0  0  0  0  0  0
  -12.4012    2.6661    9.4662 C   0  0  0  0  0  0  0  0  0  0  0  0
  -12.6849    3.2852   10.7556 C   0  0  0  0  0  0  0  0  0  0  0  0
  -12.2988    2.6605   11.9180 C   0  0  0  0  0  0  0  0  0  0  0  0
  -12.5820    3.2649   13.1508 C   0  0  0  0  0  0  0  0  0  0  0  0
  -13.2382    4.4690   13.2046 C   0  0  0  0  0  0  0  0  0  0  0  0
  -13.6233    5.0916   12.0399 C   0  0  0  0  0  0  0  0  0  0  0  0
  -13.3393    4.4878   10.8360 C   0  0  0  0  0  0  0  0  0  0  0  0
  -13.5813    5.2051   14.7689 Cl  0  0  0  0  0  0  0  0  0  0  0  0
  -11.1400    1.9066    9.4319 C   0  0  0  0  0  0  0  0  0  0  0  0
  -11.2423    0.6346    9.3189 O   0  0  0  0  0  0  0  0  0  0  0  0
   -9.8580    2.5027    9.5158 N   0  0  0  0  0  0  0  0  0  0  0  0
   -9.6963    3.8982    9.2666 C   0  0  0  0  0  0  0  0  0  0  0  0
   -8.3272    4.3651    8.9328 C   0  0  0  0  0  0  0  0  0  0  0  0
   -7.2155    3.4237    9.1745 C   0  0  0  0  0  0  0  0  0  0  0  0
   -7.6351    1.9813    8.8554 C   0  0  0  0  0  0  0  0  0  0  0  0
   -8.7305    1.6844    9.8573 C   0  0  0  0  0  0  0  0  0  0  0  0
   -6.0461    3.6747    8.4446 O   0  0  0  0  0  0  0  0  0  0  0  0
   -5.0336    2.9891    9.1208 C   0  0  0  0  0  0  0  0  0  0  0  0
   -3.7926    2.4902    8.7865 C   0  0  0  0  0  0  0  0  0  0  0  0
   -2.9741    1.8340    9.6806 C   0  0  0  0  0  0  0  0  0  0  0  0
   -3.4175    1.6680   10.9735 C   0  0  0  0  0  0  0  0  0  0  0  0
   -4.6530    2.1525   11.3482 C   0  0  0  0  0  0  0  0  0  0  0  0
   -5.4741    2.8177   10.4273 C   0  0  0  0  0  0  0  0  0  0  0  0
   -6.7338    3.4010   10.5053 O   0  0  0  0  0  0  0  0  0  0  0  0
  -13.1930    1.3264    7.6947 O   0  0  0  0  0  0  0  0  0  0  0  0
  1  2  1  0
  2  3  1  0
  3  4  1  0
  4  5  2  0
  5  6  1  0
  6  7  2  0
  7  8  1  0
  8  9  2  0
  7 10  1  0
  3 11  1  0
 11 12  2  0
 11 13  1  0
 13 14  1  0
 14 15  1  0
 15 16  1  0
 16 17  1  0
 17 18  1  0
 16 19  1  0
 19 20  1  0
 20 21  2  0
 21 22  1  0
 22 23  2  0
 23 24  1  0
 24 25  2  0
 25 26  1  0
  2 27  1  0
  9  4  1  0
 18 13  1  0
 26 16  1  0
 25 20  1  0
M  END
$$$$
