
     RDKit          3D

 27 30  0  0  0  0  0  0  0  0999 V2000
   -5.8025   -1.1290    3.5347 C   0  0  0  0  0  0  0  0  0  0  0  0
   -4.8393   -0.8394    4.6558 C   0  0  0  0  0  0  0  0  0  0  0  0
   -5.1380    0.5187    5.2645 C   0  0  0  0  0  0  0  0  0  0  0  0
   -6.4636    0.5860    5.8683 C   0  0  0  0  0  0  0  0  0  0  0  0
   -6.7188   -0.0822    7.0426 C   0  0  0  0  0  0  0  0  0  0  0  0
   -7.9990   -0.0125    7.6097 C   0  0  0  0  0  0  0  0  0  0  0  0
   -8.9932    0.7141    7.0040 C   0  0  0  0  0  0  0  0  0  0  0  0
   -8.7348    1.3816    5.8292 C   0  0  0  0  0  0  0  0  0  0  0  0
   -7.4738    1.3052    5.2826 C   0  0  0  0  0  0  0  0  0  0  0  0
  -10.5934    0.7834    7.7396 Cl  0  0  0  0  0  0  0  0  0  0  0  0
   -4.0439    0.8795    6.1817 C   0  0  0  0  0  0  0  0  0  0  0  0
   -3.3367   -0.0877    6.6354 O   0  0  0  0  0  0  0  0  0  0  0  0
   -3.7481    2.2083    6.5724 N   0  0  0  0  0  0  0  0  0  0  0  0
   -4.4097    3.3060    5.9455 C   0  0  0  0  0  0  0  0  0  0  0  0
   -3.7607    4.6360    6.0642 C   0  0  0  0  0  0  0  0  0  0  0  0
   -2.6695    4.7688    7.0501 C   0  0  0  0  0  0  0  0  0  0  0  0
   -1.8200    3.4907    7.1080 C   0  0  0  0  0  0  0  0  0  0  0  0
   -2.7792    2.4310    7.6064 C   0  0  0  0  0  0  0  0  0  0  0  0
   -1.7845    5.8320    6.8275 O   0  0  0  0  0  0  0  0  0  0  0  0
   -1.1426    6.0415    8.0508 C   0  0  0  0  0  0  0  0  0  0  0  0
    0.0474    6.6114    8.4507 C   0  0  0  0  0  0  0  0  0  0  0  0
    0.4459    6.6873    9.7680 C   0  0  0  0  0  0  0  0  0  0  0  0
   -0.3861    6.1678   10.7342 C   0  0  0  0  0  0  0  0  0  0  0  0
   -1.5853    5.5891   10.3757 C   0  0  0  0  0  0  0  0  0  0  0  0
   -1.9767    5.5194    9.0316 C   0  0  0  0  0  0  0  0  0  0  0  0
   -3.0941    5.0113    8.3785 O   0  0  0  0  0  0  0  0  0  0  0  0
   -3.5407   -0.7851    4.1204 O   0  0  0  0  0  0  0  0  0  0  0  0
  1  2  1  0
  2  3  1  0
  3  4  1  0
  4  5  2  0
  5  6  1  0
  6  7  2  0
  7  8  1  0
  8  9  2  0
  7 10  1  0
  3 11  1  0
 11 12  2  0
 11 13  1  0
 13 14  1  0
 14 15  1  0
 15 16  1  0
 16 17  1  0
 17 18  1  0
 16 19  1  0
 19 20  1  0
 20 21  2  0
 21 22  1  0
 22 23  2  0
 23 24  1  0
 24 25  2  0
 25 26  1  0
  2 27  1  0
  9  4  1  0
 18 13  1  0
 26 16  1  0
 25 20  1  0
M  END
$$$$
