
     RDKit          3D

 27 30  0  0  0  0  0  0  0  0999 V2000
   -2.1806   -2.4202    3.9719 C   0  0  0  0  0  0  0  0  0  0  0  0
   -1.7805   -1.0087    3.6312 C   0  0  0  0  0  0  0  0  0  0  0  0
   -1.8847   -0.1242    4.8605 C   0  0  0  0  0  0  0  0  0  0  0  0
   -1.0021   -0.5528    5.9392 C   0  0  0  0  0  0  0  0  0  0  0  0
    0.3618   -0.5048    5.7717 C   0  0  0  0  0  0  0  0  0  0  0  0
    1.1984   -0.9242    6.8155 C   0  0  0  0  0  0  0  0  0  0  0  0
    0.6681   -1.3796    7.9964 C   0  0  0  0  0  0  0  0  0  0  0  0
   -0.6969   -1.4265    8.1610 C   0  0  0  0  0  0  0  0  0  0  0  0
   -1.5074   -1.0119    7.1286 C   0  0  0  0  0  0  0  0  0  0  0  0
    1.7444   -1.9009    9.2912 Cl  0  0  0  0  0  0  0  0  0  0  0  0
   -1.6951    1.2785    4.4541 C   0  0  0  0  0  0  0  0  0  0  0  0
   -1.0840    1.4742    3.3453 O   0  0  0  0  0  0  0  0  0  0  0  0
   -2.1451    2.3869    5.2124 N   0  0  0  0  0  0  0  0  0  0  0  0
   -1.8125    3.7151    4.8109 C   0  0  0  0  0  0  0  0  0  0  0  0
   -1.9168    4.7740    5.8463 C   0  0  0  0  0  0  0  0  0  0  0  0
   -2.6269    4.4298    7.0943 C   0  0  0  0  0  0  0  0  0  0  0  0
   -2.3464    2.9771    7.5059 C   0  0  0  0  0  0  0  0  0  0  0  0
   -2.9401    2.1532    6.3832 C   0  0  0  0  0  0  0  0  0  0  0  0
   -2.3175    5.2301    8.2021 O   0  0  0  0  0  0  0  0  0  0  0  0
   -3.3708    5.0414    9.1006 C   0  0  0  0  0  0  0  0  0  0  0  0
   -3.5383    5.1842   10.4616 C   0  0  0  0  0  0  0  0  0  0  0  0
   -4.7254    4.9201   11.1104 C   0  0  0  0  0  0  0  0  0  0  0  0
   -5.7989    4.4918   10.3621 C   0  0  0  0  0  0  0  0  0  0  0  0
   -5.6725    4.3362    8.9978 C   0  0  0  0  0  0  0  0  0  0  0  0
   -4.4586    4.6088    8.3523 C   0  0  0  0  0  0  0  0  0  0  0  0
   -4.0360    4.5480    7.0291 O   0  0  0  0  0  0  0  0  0  0  0  0
   -2.6837   -0.5112    2.6760 O   0  0  0  0  0  0  0  0  0  0  0  0
  1  2  1  0
  2  3  1  0
  3  4  1  0
  4  5  2  0
  5  6  1  0
  6  7  2  0
  7  8  1  0
  8  9  2  0
  7 10  1  0
  3 11  1  0
 11 12  2  0
 11 13  1  0
 13 14  1  0
 14 15  1  0
 15 16  1  0
 16 17  1  0
 17 18  1  0
 16 19  1  0
 19 20  1  0
 20 21  2  0
 21 22  1  0
 22 23  2  0
 23 24  1  0
 24 25  2  0
 25 26  1  0
  2 27  1  0
  9  4  1  0
 18 13  1  0
 26 16  1  0
 25 20  1  0
M  END
$$$$
