
     RDKit          3D

 27 30  0  0  0  0  0  0  0  0999 V2000
   -2.9872   -1.1744    2.5766 C   0  0  0  0  0  0  0  0  0  0  0  0
   -1.9279   -0.7323    3.5517 C   0  0  0  0  0  0  0  0  0  0  0  0
   -2.3090    0.6010    4.1692 C   0  0  0  0  0  0  0  0  0  0  0  0
   -3.4852    0.5092    5.0261 C   0  0  0  0  0  0  0  0  0  0  0  0
   -4.6185    1.2238    4.7169 C   0  0  0  0  0  0  0  0  0  0  0  0
   -5.7406    1.1296    5.5521 C   0  0  0  0  0  0  0  0  0  0  0  0
   -5.7153    0.3335    6.6696 C   0  0  0  0  0  0  0  0  0  0  0  0
   -4.5800   -0.3802    6.9763 C   0  0  0  0  0  0  0  0  0  0  0  0
   -3.4851   -0.2791    6.1483 C   0  0  0  0  0  0  0  0  0  0  0  0
   -7.1409    0.2349    7.7014 Cl  0  0  0  0  0  0  0  0  0  0  0  0
   -1.1263    1.1714    4.8359 C   0  0  0  0  0  0  0  0  0  0  0  0
    0.0126    0.8776    4.3281 O   0  0  0  0  0  0  0  0  0  0  0  0
   -1.1907    2.0051    5.9790 N   0  0  0  0  0  0  0  0  0  0  0  0
   -2.4462    2.5118    6.4293 C   0  0  0  0  0  0  0  0  0  0  0  0
   -2.4091    3.6988    7.3202 C   0  0  0  0  0  0  0  0  0  0  0  0
   -1.1015    4.0680    7.8983 C   0  0  0  0  0  0  0  0  0  0  0  0
    0.0341    3.8251    6.8934 C   0  0  0  0  0  0  0  0  0  0  0  0
    0.0212    2.3272    6.6754 C   0  0  0  0  0  0  0  0  0  0  0  0
   -0.9865    5.3981    8.3236 O   0  0  0  0  0  0  0  0  0  0  0  0
    0.1004    5.4132    9.2016 C   0  0  0  0  0  0  0  0  0  0  0  0
    0.9798    6.3711    9.6597 C   0  0  0  0  0  0  0  0  0  0  0  0
    1.9937    6.1027   10.5541 C   0  0  0  0  0  0  0  0  0  0  0  0
    2.1361    4.8128   11.0139 C   0  0  0  0  0  0  0  0  0  0  0  0
    1.2769    3.8253   10.5801 C   0  0  0  0  0  0  0  0  0  0  0  0
    0.2506    4.1139    9.6702 C   0  0  0  0  0  0  0  0  0  0  0  0
   -0.7440    3.3527    9.0662 O   0  0  0  0  0  0  0  0  0  0  0  0
   -0.7278   -0.5421    2.8451 O   0  0  0  0  0  0  0  0  0  0  0  0
  1  2  1  0
  2  3  1  0
  3  4  1  0
  4  5  2  0
  5  6  1  0
  6  7  2  0
  7  8  1  0
  8  9  2  0
  7 10  1  0
  3 11  1  0
 11 12  2  0
 11 13  1  0
 13 14  1  0
 14 15  1  0
 15 16  1  0
 16 17  1  0
 17 18  1  0
 16 19  1  0
 19 20  1  0
 20 21  2  0
 21 22  1  0
 22 23  2  0
 23 24  1  0
 24 25  2  0
 25 26  1  0
  2 27  1  0
  9  4  1  0
 18 13  1  0
 26 16  1  0
 25 20  1  0
M  END
$$$$
