
     RDKit          3D

 27 30  0  0  0  0  0  0  0  0999 V2000
   -4.0419    2.6002    5.8104 C   0  0  0  0  0  0  0  0  0  0  0  0
   -4.9157    3.3671    6.7679 C   0  0  0  0  0  0  0  0  0  0  0  0
   -5.5825    2.4154    7.7445 C   0  0  0  0  0  0  0  0  0  0  0  0
   -4.6231    1.6017    8.4819 C   0  0  0  0  0  0  0  0  0  0  0  0
   -4.5882    0.2402    8.2935 C   0  0  0  0  0  0  0  0  0  0  0  0
   -3.6636   -0.5305    9.0124 C   0  0  0  0  0  0  0  0  0  0  0  0
   -2.7984    0.0618    9.8977 C   0  0  0  0  0  0  0  0  0  0  0  0
   -2.8358    1.4243   10.0841 C   0  0  0  0  0  0  0  0  0  0  0  0
   -3.7481    2.1697    9.3722 C   0  0  0  0  0  0  0  0  0  0  0  0
   -1.6471   -0.9323   10.7881 Cl  0  0  0  0  0  0  0  0  0  0  0  0
   -6.5012    3.1819    8.6030 C   0  0  0  0  0  0  0  0  0  0  0  0
   -6.1611    4.3879    8.8697 O   0  0  0  0  0  0  0  0  0  0  0  0
   -7.7077    2.6603    9.1305 N   0  0  0  0  0  0  0  0  0  0  0  0
   -8.2156    1.4113    8.6637 C   0  0  0  0  0  0  0  0  0  0  0  0
   -9.6551    1.1407    8.9059 C   0  0  0  0  0  0  0  0  0  0  0  0
  -10.3591    2.0298    9.8517 C   0  0  0  0  0  0  0  0  0  0  0  0
   -9.8594    3.4764    9.7248 C   0  0  0  0  0  0  0  0  0  0  0  0
   -8.4054    3.4034   10.1397 C   0  0  0  0  0  0  0  0  0  0  0  0
  -11.7529    2.0707    9.7142 O   0  0  0  0  0  0  0  0  0  0  0  0
  -12.2293    2.5821   10.9240 C   0  0  0  0  0  0  0  0  0  0  0  0
  -13.3773    3.2259   11.3342 C   0  0  0  0  0  0  0  0  0  0  0  0
  -13.5940    3.6343   12.6327 C   0  0  0  0  0  0  0  0  0  0  0  0
  -12.6146    3.3871   13.5684 C   0  0  0  0  0  0  0  0  0  0  0  0
  -11.4513    2.7455   13.1987 C   0  0  0  0  0  0  0  0  0  0  0  0
  -11.2456    2.3363   11.8740 C   0  0  0  0  0  0  0  0  0  0  0  0
  -10.2070    1.6865   11.2165 O   0  0  0  0  0  0  0  0  0  0  0  0
   -5.9338    3.9963    6.0306 O   0  0  0  0  0  0  0  0  0  0  0  0
  1  2  1  0
  2  3  1  0
  3  4  1  0
  4  5  2  0
  5  6  1  0
  6  7  2  0
  7  8  1  0
  8  9  2  0
  7 10  1  0
  3 11  1  0
 11 12  2  0
 11 13  1  0
 13 14  1  0
 14 15  1  0
 15 16  1  0
 16 17  1  0
 17 18  1  0
 16 19  1  0
 19 20  1  0
 20 21  2  0
 21 22  1  0
 22 23  2  0
 23 24  1  0
 24 25  2  0
 25 26  1  0
  2 27  1  0
  9  4  1  0
 18 13  1  0
 26 16  1  0
 25 20  1  0
M  END
$$$$
