
     RDKit          3D

 27 30  0  0  0  0  0  0  0  0999 V2000
    0.4998   -2.9254    5.6066 C   0  0  0  0  0  0  0  0  0  0  0  0
    0.7169   -1.5277    5.0890 C   0  0  0  0  0  0  0  0  0  0  0  0
   -0.1529   -0.5459    5.8531 C   0  0  0  0  0  0  0  0  0  0  0  0
    0.1235   -0.5445    7.2848 C   0  0  0  0  0  0  0  0  0  0  0  0
   -0.8462   -0.9470    8.1725 C   0  0  0  0  0  0  0  0  0  0  0  0
   -0.5684   -0.9364    9.5466 C   0  0  0  0  0  0  0  0  0  0  0  0
    0.6580   -0.5292   10.0086 C   0  0  0  0  0  0  0  0  0  0  0  0
    1.6262   -0.1270    9.1179 C   0  0  0  0  0  0  0  0  0  0  0  0
    1.3409   -0.1421    7.7715 C   0  0  0  0  0  0  0  0  0  0  0  0
    0.9789   -0.5259   11.7417 Cl  0  0  0  0  0  0  0  0  0  0  0  0
   -0.0414    0.7795    5.2210 C   0  0  0  0  0  0  0  0  0  0  0  0
    1.0965    1.0757    4.7123 O   0  0  0  0  0  0  0  0  0  0  0  0
   -1.1046    1.7127    5.1529 N   0  0  0  0  0  0  0  0  0  0  0  0
   -0.8782    3.0242    4.6385 C   0  0  0  0  0  0  0  0  0  0  0  0
   -1.8732    4.0658    4.9974 C   0  0  0  0  0  0  0  0  0  0  0  0
   -3.1451    3.6078    5.5916 C   0  0  0  0  0  0  0  0  0  0  0  0
   -2.9182    2.4079    6.5228 C   0  0  0  0  0  0  0  0  0  0  0  0
   -2.4076    1.3181    5.6044 C   0  0  0  0  0  0  0  0  0  0  0  0
   -3.8418    4.5696    6.3351 O   0  0  0  0  0  0  0  0  0  0  0  0
   -5.1534    4.0951    6.4173 C   0  0  0  0  0  0  0  0  0  0  0  0
   -6.2200    4.2981    7.2669 C   0  0  0  0  0  0  0  0  0  0  0  0
   -7.4420    3.6802    7.1096 C   0  0  0  0  0  0  0  0  0  0  0  0
   -7.6068    2.8162    6.0503 C   0  0  0  0  0  0  0  0  0  0  0  0
   -6.5644    2.5859    5.1774 C   0  0  0  0  0  0  0  0  0  0  0  0
   -5.3275    3.2219    5.3507 C   0  0  0  0  0  0  0  0  0  0  0  0
   -4.1231    3.1922    4.6565 O   0  0  0  0  0  0  0  0  0  0  0  0
    0.3156   -1.4873    3.7425 O   0  0  0  0  0  0  0  0  0  0  0  0
  1  2  1  0
  2  3  1  0
  3  4  1  0
  4  5  2  0
  5  6  1  0
  6  7  2  0
  7  8  1  0
  8  9  2  0
  7 10  1  0
  3 11  1  0
 11 12  2  0
 11 13  1  0
 13 14  1  0
 14 15  1  0
 15 16  1  0
 16 17  1  0
 17 18  1  0
 16 19  1  0
 19 20  1  0
 20 21  2  0
 21 22  1  0
 22 23  2  0
 23 24  1  0
 24 25  2  0
 25 26  1  0
  2 27  1  0
  9  4  1  0
 18 13  1  0
 26 16  1  0
 25 20  1  0
M  END
$$$$
