
     RDKit          3D

 27 30  0  0  0  0  0  0  0  0999 V2000
  -11.4176    0.2633    9.0800 C   0  0  0  0  0  0  0  0  0  0  0  0
  -10.7367    1.1982    8.1152 C   0  0  0  0  0  0  0  0  0  0  0  0
   -9.9682    2.2647    8.8743 C   0  0  0  0  0  0  0  0  0  0  0  0
  -10.5591    2.5682   10.1723 C   0  0  0  0  0  0  0  0  0  0  0  0
  -10.0936    1.9400   11.3034 C   0  0  0  0  0  0  0  0  0  0  0  0
  -10.6739    2.2380   12.5443 C   0  0  0  0  0  0  0  0  0  0  0  0
  -11.6976    3.1474   12.6368 C   0  0  0  0  0  0  0  0  0  0  0  0
  -12.1611    3.7743   11.5034 C   0  0  0  0  0  0  0  0  0  0  0  0
  -11.5829    3.4729   10.2912 C   0  0  0  0  0  0  0  0  0  0  0  0
  -12.4083    3.5019   14.2102 Cl  0  0  0  0  0  0  0  0  0  0  0  0
   -8.5501    1.8729    8.9395 C   0  0  0  0  0  0  0  0  0  0  0  0
   -8.2976    0.7255    9.4504 O   0  0  0  0  0  0  0  0  0  0  0  0
   -7.4857    2.6841    8.4761 N   0  0  0  0  0  0  0  0  0  0  0  0
   -7.7575    3.9287    7.8334 C   0  0  0  0  0  0  0  0  0  0  0  0
   -6.6742    4.5003    6.9946 C   0  0  0  0  0  0  0  0  0  0  0  0
   -5.3300    3.9041    7.1299 C   0  0  0  0  0  0  0  0  0  0  0  0
   -5.4190    2.3856    7.3408 C   0  0  0  0  0  0  0  0  0  0  0  0
   -6.1359    2.2375    8.6659 C   0  0  0  0  0  0  0  0  0  0  0  0
   -4.4688    4.1110    6.0442 O   0  0  0  0  0  0  0  0  0  0  0  0
   -3.1842    3.8754    6.5407 C   0  0  0  0  0  0  0  0  0  0  0  0
   -1.9680    3.5268    5.9929 C   0  0  0  0  0  0  0  0  0  0  0  0
   -0.8224    3.3542    6.7397 C   0  0  0  0  0  0  0  0  0  0  0  0
   -0.8955    3.5392    8.1022 C   0  0  0  0  0  0  0  0  0  0  0  0
   -2.0934    3.8884    8.6892 C   0  0  0  0  0  0  0  0  0  0  0  0
   -3.2499    4.0603    7.9162 C   0  0  0  0  0  0  0  0  0  0  0  0
   -4.5651    4.4008    8.2124 O   0  0  0  0  0  0  0  0  0  0  0  0
  -11.7257    1.8496    7.3580 O   0  0  0  0  0  0  0  0  0  0  0  0
  1  2  1  0
  2  3  1  0
  3  4  1  0
  4  5  2  0
  5  6  1  0
  6  7  2  0
  7  8  1  0
  8  9  2  0
  7 10  1  0
  3 11  1  0
 11 12  2  0
 11 13  1  0
 13 14  1  0
 14 15  1  0
 15 16  1  0
 16 17  1  0
 17 18  1  0
 16 19  1  0
 19 20  1  0
 20 21  2  0
 21 22  1  0
 22 23  2  0
 23 24  1  0
 24 25  2  0
 25 26  1  0
  2 27  1  0
  9  4  1  0
 18 13  1  0
 26 16  1  0
 25 20  1  0
M  END
$$$$
