
     RDKit          3D

 27 30  0  0  0  0  0  0  0  0999 V2000
   -1.3723   -1.0612    4.9231 C   0  0  0  0  0  0  0  0  0  0  0  0
   -1.6874    0.4104    4.8607 C   0  0  0  0  0  0  0  0  0  0  0  0
   -2.5584    0.8093    6.0382 C   0  0  0  0  0  0  0  0  0  0  0  0
   -1.9141    0.5657    7.3234 C   0  0  0  0  0  0  0  0  0  0  0  0
   -2.3985   -0.4110    8.1611 C   0  0  0  0  0  0  0  0  0  0  0  0
   -1.7720   -0.6315    9.3958 C   0  0  0  0  0  0  0  0  0  0  0  0
   -0.6848    0.1169    9.7714 C   0  0  0  0  0  0  0  0  0  0  0  0
   -0.2024    1.0934    8.9310 C   0  0  0  0  0  0  0  0  0  0  0  0
   -0.8264    1.2999    7.7217 C   0  0  0  0  0  0  0  0  0  0  0  0
    0.0823   -0.1821   11.3298 Cl  0  0  0  0  0  0  0  0  0  0  0  0
   -3.0074    2.1988    5.8480 C   0  0  0  0  0  0  0  0  0  0  0  0
   -2.1456    3.0170    5.3694 O   0  0  0  0  0  0  0  0  0  0  0  0
   -4.3107    2.6564    6.1613 N   0  0  0  0  0  0  0  0  0  0  0  0
   -4.6334    4.0414    6.0455 C   0  0  0  0  0  0  0  0  0  0  0  0
   -5.8267    4.5159    6.7905 C   0  0  0  0  0  0  0  0  0  0  0  0
   -6.7357    3.4871    7.3344 C   0  0  0  0  0  0  0  0  0  0  0  0
   -5.9500    2.2673    7.8376 C   0  0  0  0  0  0  0  0  0  0  0  0
   -5.2971    1.7081    6.5916 C   0  0  0  0  0  0  0  0  0  0  0  0
   -7.5524    3.9060    8.3932 O   0  0  0  0  0  0  0  0  0  0  0  0
   -8.5920    2.9741    8.4496 C   0  0  0  0  0  0  0  0  0  0  0  0
   -9.4798    2.5502    9.4155 C   0  0  0  0  0  0  0  0  0  0  0  0
  -10.4357    1.5824    9.1932 C   0  0  0  0  0  0  0  0  0  0  0  0
  -10.5084    1.0093    7.9434 C   0  0  0  0  0  0  0  0  0  0  0  0
   -9.6386    1.4055    6.9495 C   0  0  0  0  0  0  0  0  0  0  0  0
   -8.6717    2.3911    7.1909 C   0  0  0  0  0  0  0  0  0  0  0  0
   -7.6836    2.9830    6.4119 O   0  0  0  0  0  0  0  0  0  0  0  0
   -2.4242    0.6557    3.6890 O   0  0  0  0  0  0  0  0  0  0  0  0
  1  2  1  0
  2  3  1  0
  3  4  1  0
  4  5  2  0
  5  6  1  0
  6  7  2  0
  7  8  1  0
  8  9  2  0
  7 10  1  0
  3 11  1  0
 11 12  2  0
 11 13  1  0
 13 14  1  0
 14 15  1  0
 15 16  1  0
 16 17  1  0
 17 18  1  0
 16 19  1  0
 19 20  1  0
 20 21  2  0
 21 22  1  0
 22 23  2  0
 23 24  1  0
 24 25  2  0
 25 26  1  0
  2 27  1  0
  9  4  1  0
 18 13  1  0
 26 16  1  0
 25 20  1  0
M  END
$$$$
