
     RDKit          3D

 27 30  0  0  0  0  0  0  0  0999 V2000
    2.0012   -0.8381    6.3213 C   0  0  0  0  0  0  0  0  0  0  0  0
    0.7475   -0.2608    5.7183 C   0  0  0  0  0  0  0  0  0  0  0  0
   -0.4759   -0.9495    6.2957 C   0  0  0  0  0  0  0  0  0  0  0  0
   -0.4505   -1.0150    7.7521 C   0  0  0  0  0  0  0  0  0  0  0  0
   -1.1080   -2.0300    8.4062 C   0  0  0  0  0  0  0  0  0  0  0  0
   -1.0790   -2.0782    9.8070 C   0  0  0  0  0  0  0  0  0  0  0  0
   -0.4026   -1.1244   10.5254 C   0  0  0  0  0  0  0  0  0  0  0  0
    0.2543   -0.1100    9.8681 C   0  0  0  0  0  0  0  0  0  0  0  0
    0.2183   -0.0740    8.4926 C   0  0  0  0  0  0  0  0  0  0  0  0
   -0.3837   -1.2100   12.2857 Cl  0  0  0  0  0  0  0  0  0  0  0  0
   -1.6840   -0.3112    5.7465 C   0  0  0  0  0  0  0  0  0  0  0  0
   -2.4364   -1.0466    5.0155 O   0  0  0  0  0  0  0  0  0  0  0  0
   -2.0399    1.0390    5.9840 N   0  0  0  0  0  0  0  0  0  0  0  0
   -2.8984    1.7266    5.0753 C   0  0  0  0  0  0  0  0  0  0  0  0
   -2.8739    3.2102    5.1226 C   0  0  0  0  0  0  0  0  0  0  0  0
   -2.2065    3.8375    6.2808 C   0  0  0  0  0  0  0  0  0  0  0  0
   -0.9685    3.0340    6.7057 C   0  0  0  0  0  0  0  0  0  0  0  0
   -1.5281    1.6994    7.1499 C   0  0  0  0  0  0  0  0  0  0  0  0
   -1.7831    5.1590    6.0873 O   0  0  0  0  0  0  0  0  0  0  0  0
   -1.6030    5.6816    7.3707 C   0  0  0  0  0  0  0  0  0  0  0  0
   -0.8724    6.7155    7.9166 C   0  0  0  0  0  0  0  0  0  0  0  0
   -0.8792    7.0204    9.2608 C   0  0  0  0  0  0  0  0  0  0  0  0
   -1.6546    6.2540   10.1017 C   0  0  0  0  0  0  0  0  0  0  0  0
   -2.4003    5.2106    9.5952 C   0  0  0  0  0  0  0  0  0  0  0  0
   -2.3830    4.9128    8.2256 C   0  0  0  0  0  0  0  0  0  0  0  0
   -3.0100    3.9517    7.4405 O   0  0  0  0  0  0  0  0  0  0  0  0
    0.7628   -0.5172    4.3363 O   0  0  0  0  0  0  0  0  0  0  0  0
  1  2  1  0
  2  3  1  0
  3  4  1  0
  4  5  2  0
  5  6  1  0
  6  7  2  0
  7  8  1  0
  8  9  2  0
  7 10  1  0
  3 11  1  0
 11 12  2  0
 11 13  1  0
 13 14  1  0
 14 15  1  0
 15 16  1  0
 16 17  1  0
 17 18  1  0
 16 19  1  0
 19 20  1  0
 20 21  2  0
 21 22  1  0
 22 23  2  0
 23 24  1  0
 24 25  2  0
 25 26  1  0
  2 27  1  0
  9  4  1  0
 18 13  1  0
 26 16  1  0
 25 20  1  0
M  END
$$$$
