
     RDKit          3D

 27 30  0  0  0  0  0  0  0  0999 V2000
   -0.8742    1.4840    3.2263 C   0  0  0  0  0  0  0  0  0  0  0  0
   -2.2764    2.0199    3.3496 C   0  0  0  0  0  0  0  0  0  0  0  0
   -3.0000    1.3338    4.4941 C   0  0  0  0  0  0  0  0  0  0  0  0
   -2.2856    1.4465    5.7603 C   0  0  0  0  0  0  0  0  0  0  0  0
   -2.0832    2.6824    6.3278 C   0  0  0  0  0  0  0  0  0  0  0  0
   -1.3909    2.7764    7.5432 C   0  0  0  0  0  0  0  0  0  0  0  0
   -0.9166    1.6495    8.1665 C   0  0  0  0  0  0  0  0  0  0  0  0
   -1.1207    0.4143    7.5962 C   0  0  0  0  0  0  0  0  0  0  0  0
   -1.8019    0.3356    6.4027 C   0  0  0  0  0  0  0  0  0  0  0  0
   -0.0492    1.7982    9.6936 Cl  0  0  0  0  0  0  0  0  0  0  0  0
   -4.3866    1.8273    4.5437 C   0  0  0  0  0  0  0  0  0  0  0  0
   -4.8730    2.2749    3.4462 O   0  0  0  0  0  0  0  0  0  0  0  0
   -5.1818    1.8288    5.7157 N   0  0  0  0  0  0  0  0  0  0  0  0
   -4.7009    1.2167    6.9114 C   0  0  0  0  0  0  0  0  0  0  0  0
   -5.7145    0.8588    7.9354 C   0  0  0  0  0  0  0  0  0  0  0  0
   -7.0690    1.4231    7.7703 C   0  0  0  0  0  0  0  0  0  0  0  0
   -7.4632    1.4860    6.2874 C   0  0  0  0  0  0  0  0  0  0  0  0
   -6.4713    2.4560    5.6816 C   0  0  0  0  0  0  0  0  0  0  0  0
   -8.0928    0.7315    8.4312 O   0  0  0  0  0  0  0  0  0  0  0  0
   -9.1547    1.6357    8.5169 C   0  0  0  0  0  0  0  0  0  0  0  0
  -10.5211    1.5345    8.6697 C   0  0  0  0  0  0  0  0  0  0  0  0
  -11.3601    2.6266    8.7249 C   0  0  0  0  0  0  0  0  0  0  0  0
  -10.8062    3.8830    8.6221 C   0  0  0  0  0  0  0  0  0  0  0  0
   -9.4435    4.0274    8.4683 C   0  0  0  0  0  0  0  0  0  0  0  0
   -8.6033    2.9068    8.4139 C   0  0  0  0  0  0  0  0  0  0  0  0
   -7.2307    2.7378    8.2695 O   0  0  0  0  0  0  0  0  0  0  0  0
   -2.9723    1.7143    2.1671 O   0  0  0  0  0  0  0  0  0  0  0  0
  1  2  1  0
  2  3  1  0
  3  4  1  0
  4  5  2  0
  5  6  1  0
  6  7  2  0
  7  8  1  0
  8  9  2  0
  7 10  1  0
  3 11  1  0
 11 12  2  0
 11 13  1  0
 13 14  1  0
 14 15  1  0
 15 16  1  0
 16 17  1  0
 17 18  1  0
 16 19  1  0
 19 20  1  0
 20 21  2  0
 21 22  1  0
 22 23  2  0
 23 24  1  0
 24 25  2  0
 25 26  1  0
  2 27  1  0
  9  4  1  0
 18 13  1  0
 26 16  1  0
 25 20  1  0
M  END
$$$$
