
     RDKit          3D

 27 30  0  0  0  0  0  0  0  0999 V2000
   -0.7359    1.2608    4.6741 C   0  0  0  0  0  0  0  0  0  0  0  0
   -2.1336    0.7132    4.5512 C   0  0  0  0  0  0  0  0  0  0  0  0
   -2.9239    1.0085    5.8132 C   0  0  0  0  0  0  0  0  0  0  0  0
   -2.1479    0.7892    7.0280 C   0  0  0  0  0  0  0  0  0  0  0  0
   -2.2543   -0.4022    7.7061 C   0  0  0  0  0  0  0  0  0  0  0  0
   -1.5057   -0.5978    8.8752 C   0  0  0  0  0  0  0  0  0  0  0  0
   -0.6723    0.3864    9.3444 C   0  0  0  0  0  0  0  0  0  0  0  0
   -0.5679    1.5773    8.6638 C   0  0  0  0  0  0  0  0  0  0  0  0
   -1.3082    1.7569    7.5173 C   0  0  0  0  0  0  0  0  0  0  0  0
    0.2564    0.1126   10.8172 Cl  0  0  0  0  0  0  0  0  0  0  0  0
   -3.5007    2.3594    5.7075 C   0  0  0  0  0  0  0  0  0  0  0  0
   -2.7599    3.2563    5.1708 O   0  0  0  0  0  0  0  0  0  0  0  0
   -4.7990    2.7001    6.1595 N   0  0  0  0  0  0  0  0  0  0  0  0
   -5.2892    4.0307    6.0009 C   0  0  0  0  0  0  0  0  0  0  0  0
   -6.4278    4.4327    6.8645 C   0  0  0  0  0  0  0  0  0  0  0  0
   -7.1399    3.3587    7.5856 C   0  0  0  0  0  0  0  0  0  0  0  0
   -6.1645    2.2701    8.0567 C   0  0  0  0  0  0  0  0  0  0  0  0
   -5.6105    1.6891    6.7733 C   0  0  0  0  0  0  0  0  0  0  0  0
   -7.8623    3.7690    8.7139 O   0  0  0  0  0  0  0  0  0  0  0  0
   -8.7742    2.7402    8.9637 C   0  0  0  0  0  0  0  0  0  0  0  0
   -9.4822    2.3003   10.0619 C   0  0  0  0  0  0  0  0  0  0  0  0
  -10.3417    1.2233   10.0273 C   0  0  0  0  0  0  0  0  0  0  0  0
  -10.5020    0.5522    8.8358 C   0  0  0  0  0  0  0  0  0  0  0  0
   -9.8120    0.9605    7.7139 C   0  0  0  0  0  0  0  0  0  0  0  0
   -8.9413    2.0578    7.7650 C   0  0  0  0  0  0  0  0  0  0  0  0
   -8.1305    2.6889    6.8282 O   0  0  0  0  0  0  0  0  0  0  0  0
   -2.0515   -0.6841    4.4224 O   0  0  0  0  0  0  0  0  0  0  0  0
  1  2  1  0
  2  3  1  0
  3  4  1  0
  4  5  2  0
  5  6  1  0
  6  7  2  0
  7  8  1  0
  8  9  2  0
  7 10  1  0
  3 11  1  0
 11 12  2  0
 11 13  1  0
 13 14  1  0
 14 15  1  0
 15 16  1  0
 16 17  1  0
 17 18  1  0
 16 19  1  0
 19 20  1  0
 20 21  2  0
 21 22  1  0
 22 23  2  0
 23 24  1  0
 24 25  2  0
 25 26  1  0
  2 27  1  0
  9  4  1  0
 18 13  1  0
 26 16  1  0
 25 20  1  0
M  END
$$$$
