
     RDKit          3D

 27 30  0  0  0  0  0  0  0  0999 V2000
    1.6812    1.0645    9.1217 C   0  0  0  0  0  0  0  0  0  0  0  0
    0.7912    0.7232    7.9555 C   0  0  0  0  0  0  0  0  0  0  0  0
    0.7426   -0.7810    7.7571 C   0  0  0  0  0  0  0  0  0  0  0  0
    0.2895   -1.4916    8.9470 C   0  0  0  0  0  0  0  0  0  0  0  0
    1.0886   -2.4530    9.5196 C   0  0  0  0  0  0  0  0  0  0  0  0
    0.6385   -3.1316   10.6608 C   0  0  0  0  0  0  0  0  0  0  0  0
   -0.5873   -2.8443   11.2068 C   0  0  0  0  0  0  0  0  0  0  0  0
   -1.3845   -1.8819   10.6317 C   0  0  0  0  0  0  0  0  0  0  0  0
   -0.9311   -1.2229    9.5116 C   0  0  0  0  0  0  0  0  0  0  0  0
   -1.1272   -3.7139   12.6417 Cl  0  0  0  0  0  0  0  0  0  0  0  0
   -0.0450   -1.0756    6.5482 C   0  0  0  0  0  0  0  0  0  0  0  0
    0.2001   -2.1893    5.9643 O   0  0  0  0  0  0  0  0  0  0  0  0
   -1.0316   -0.2082    6.0188 N   0  0  0  0  0  0  0  0  0  0  0  0
   -1.8745   -0.6436    4.9531 C   0  0  0  0  0  0  0  0  0  0  0  0
   -2.5540    0.4129    4.1618 C   0  0  0  0  0  0  0  0  0  0  0  0
   -2.5432    1.7821    4.7146 C   0  0  0  0  0  0  0  0  0  0  0  0
   -1.2102    2.0836    5.4150 C   0  0  0  0  0  0  0  0  0  0  0  0
   -1.1710    1.1079    6.5718 C   0  0  0  0  0  0  0  0  0  0  0  0
   -2.7507    2.8080    3.7830 O   0  0  0  0  0  0  0  0  0  0  0  0
   -3.1367    3.9196    4.5365 C   0  0  0  0  0  0  0  0  0  0  0  0
   -3.1193    5.2856    4.3517 C   0  0  0  0  0  0  0  0  0  0  0  0
   -3.5780    6.1832    5.2918 C   0  0  0  0  0  0  0  0  0  0  0  0
   -4.0792    5.6913    6.4761 C   0  0  0  0  0  0  0  0  0  0  0  0
   -4.1143    4.3311    6.7001 C   0  0  0  0  0  0  0  0  0  0  0  0
   -3.6441    3.4309    5.7341 C   0  0  0  0  0  0  0  0  0  0  0  0
   -3.5515    2.0449    5.6727 O   0  0  0  0  0  0  0  0  0  0  0  0
    1.3498    1.2839    6.7938 O   0  0  0  0  0  0  0  0  0  0  0  0
  1  2  1  0
  2  3  1  0
  3  4  1  0
  4  5  2  0
  5  6  1  0
  6  7  2  0
  7  8  1  0
  8  9  2  0
  7 10  1  0
  3 11  1  0
 11 12  2  0
 11 13  1  0
 13 14  1  0
 14 15  1  0
 15 16  1  0
 16 17  1  0
 17 18  1  0
 16 19  1  0
 19 20  1  0
 20 21  2  0
 21 22  1  0
 22 23  2  0
 23 24  1  0
 24 25  2  0
 25 26  1  0
  2 27  1  0
  9  4  1  0
 18 13  1  0
 26 16  1  0
 25 20  1  0
M  END
$$$$
