
     RDKit          3D

 27 30  0  0  0  0  0  0  0  0999 V2000
   -0.7261    2.8724    4.9579 C   0  0  0  0  0  0  0  0  0  0  0  0
   -1.7021    3.5588    5.8772 C   0  0  0  0  0  0  0  0  0  0  0  0
   -2.5674    2.5308    6.5832 C   0  0  0  0  0  0  0  0  0  0  0  0
   -1.7948    1.6322    7.4328 C   0  0  0  0  0  0  0  0  0  0  0  0
   -1.2147    2.1057    8.5860 C   0  0  0  0  0  0  0  0  0  0  0  0
   -0.4709    1.2317    9.3911 C   0  0  0  0  0  0  0  0  0  0  0  0
   -0.3187   -0.0856    9.0377 C   0  0  0  0  0  0  0  0  0  0  0  0
   -0.9002   -0.5563    7.8833 C   0  0  0  0  0  0  0  0  0  0  0  0
   -1.6281    0.3118    7.1016 C   0  0  0  0  0  0  0  0  0  0  0  0
    0.6225   -1.1612   10.0691 Cl  0  0  0  0  0  0  0  0  0  0  0  0
   -3.6571    3.2289    7.2860 C   0  0  0  0  0  0  0  0  0  0  0  0
   -3.3705    4.3698    7.7937 O   0  0  0  0  0  0  0  0  0  0  0  0
   -4.9681    2.7103    7.4211 N   0  0  0  0  0  0  0  0  0  0  0  0
   -5.3857    1.5973    6.6321 C   0  0  0  0  0  0  0  0  0  0  0  0
   -6.8486    1.3902    6.4868 C   0  0  0  0  0  0  0  0  0  0  0  0
   -7.7312    2.1522    7.3927 C   0  0  0  0  0  0  0  0  0  0  0  0
   -7.1757    3.5611    7.6479 C   0  0  0  0  0  0  0  0  0  0  0  0
   -5.8637    3.3176    8.3627 C   0  0  0  0  0  0  0  0  0  0  0  0
   -9.0513    2.3127    6.9511 O   0  0  0  0  0  0  0  0  0  0  0  0
   -9.7859    2.6428    8.0930 C   0  0  0  0  0  0  0  0  0  0  0  0
  -10.9800    3.2857    8.3408 C   0  0  0  0  0  0  0  0  0  0  0  0
  -11.4862    3.4813    9.6078 C   0  0  0  0  0  0  0  0  0  0  0  0
  -10.7632    3.0111   10.6811 C   0  0  0  0  0  0  0  0  0  0  0  0
   -9.5638    2.3625   10.4758 C   0  0  0  0  0  0  0  0  0  0  0  0
   -9.0621    2.1712    9.1811 C   0  0  0  0  0  0  0  0  0  0  0  0
   -7.9159    1.5721    8.6706 O   0  0  0  0  0  0  0  0  0  0  0  0
   -2.5526    4.3628    5.0987 O   0  0  0  0  0  0  0  0  0  0  0  0
  1  2  1  0
  2  3  1  0
  3  4  1  0
  4  5  2  0
  5  6  1  0
  6  7  2  0
  7  8  1  0
  8  9  2  0
  7 10  1  0
  3 11  1  0
 11 12  2  0
 11 13  1  0
 13 14  1  0
 14 15  1  0
 15 16  1  0
 16 17  1  0
 17 18  1  0
 16 19  1  0
 19 20  1  0
 20 21  2  0
 21 22  1  0
 22 23  2  0
 23 24  1  0
 24 25  2  0
 25 26  1  0
  2 27  1  0
  9  4  1  0
 18 13  1  0
 26 16  1  0
 25 20  1  0
M  END
$$$$
