
     RDKit          3D

 27 30  0  0  0  0  0  0  0  0999 V2000
   -0.6385    1.9235   10.4565 C   0  0  0  0  0  0  0  0  0  0  0  0
   -1.0911    0.5069   10.2175 C   0  0  0  0  0  0  0  0  0  0  0  0
   -0.3843   -0.0705    9.0046 C   0  0  0  0  0  0  0  0  0  0  0  0
    0.5467   -1.1381    9.3505 C   0  0  0  0  0  0  0  0  0  0  0  0
    1.7692   -1.2134    8.7258 C   0  0  0  0  0  0  0  0  0  0  0  0
    2.6527   -2.2477    9.0649 C   0  0  0  0  0  0  0  0  0  0  0  0
    2.3072   -3.1801   10.0107 C   0  0  0  0  0  0  0  0  0  0  0  0
    1.0833   -3.1022   10.6340 C   0  0  0  0  0  0  0  0  0  0  0  0
    0.2250   -2.0819   10.2921 C   0  0  0  0  0  0  0  0  0  0  0  0
    3.4380   -4.4698   10.4164 Cl  0  0  0  0  0  0  0  0  0  0  0  0
   -1.3946   -0.4581    8.0057 C   0  0  0  0  0  0  0  0  0  0  0  0
   -1.8870   -1.6354    8.1186 O   0  0  0  0  0  0  0  0  0  0  0  0
   -1.8324    0.3879    6.9575 N   0  0  0  0  0  0  0  0  0  0  0  0
   -2.1764   -0.1614    5.6865 C   0  0  0  0  0  0  0  0  0  0  0  0
   -2.1902    0.7740    4.5337 C   0  0  0  0  0  0  0  0  0  0  0  0
   -2.1434    2.2186    4.8364 C   0  0  0  0  0  0  0  0  0  0  0  0
   -1.2375    2.4999    6.0441 C   0  0  0  0  0  0  0  0  0  0  0  0
   -1.9272    1.7993    7.1952 C   0  0  0  0  0  0  0  0  0  0  0  0
   -1.6907    3.0368    3.7929 O   0  0  0  0  0  0  0  0  0  0  0  0
   -2.1325    4.3232    4.1131 C   0  0  0  0  0  0  0  0  0  0  0  0
   -1.7489    5.6048    3.7798 C   0  0  0  0  0  0  0  0  0  0  0  0
   -2.3824    6.7328    4.2553 C   0  0  0  0  0  0  0  0  0  0  0  0
   -3.4529    6.5724    5.1063 C   0  0  0  0  0  0  0  0  0  0  0  0
   -3.8681    5.3071    5.4642 C   0  0  0  0  0  0  0  0  0  0  0  0
   -3.2135    4.1695    4.9723 C   0  0  0  0  0  0  0  0  0  0  0  0
   -3.3949    2.8021    5.1475 O   0  0  0  0  0  0  0  0  0  0  0  0
   -2.4679    0.5242    9.9348 O   0  0  0  0  0  0  0  0  0  0  0  0
  1  2  1  0
  2  3  1  0
  3  4  1  0
  4  5  2  0
  5  6  1  0
  6  7  2  0
  7  8  1  0
  8  9  2  0
  7 10  1  0
  3 11  1  0
 11 12  2  0
 11 13  1  0
 13 14  1  0
 14 15  1  0
 15 16  1  0
 16 17  1  0
 17 18  1  0
 16 19  1  0
 19 20  1  0
 20 21  2  0
 21 22  1  0
 22 23  2  0
 23 24  1  0
 24 25  2  0
 25 26  1  0
  2 27  1  0
  9  4  1  0
 18 13  1  0
 26 16  1  0
 25 20  1  0
M  END
$$$$
