
     RDKit          3D

 27 30  0  0  0  0  0  0  0  0999 V2000
    0.5442   -0.9824    3.7092 C   0  0  0  0  0  0  0  0  0  0  0  0
   -0.3126    0.2145    4.0282 C   0  0  0  0  0  0  0  0  0  0  0  0
   -1.4406   -0.1837    4.9627 C   0  0  0  0  0  0  0  0  0  0  0  0
   -1.0250   -0.2294    6.3596 C   0  0  0  0  0  0  0  0  0  0  0  0
    0.1990    0.2761    6.7297 C   0  0  0  0  0  0  0  0  0  0  0  0
    0.5876    0.2215    8.0755 C   0  0  0  0  0  0  0  0  0  0  0  0
   -0.2407   -0.3300    9.0205 C   0  0  0  0  0  0  0  0  0  0  0  0
   -1.4647   -0.8350    8.6472 C   0  0  0  0  0  0  0  0  0  0  0  0
   -1.8345   -0.7753    7.3227 C   0  0  0  0  0  0  0  0  0  0  0  0
    0.2746   -0.3855   10.7051 Cl  0  0  0  0  0  0  0  0  0  0  0  0
   -2.5976    0.6920    4.7113 C   0  0  0  0  0  0  0  0  0  0  0  0
   -3.3684    0.3563    3.7446 O   0  0  0  0  0  0  0  0  0  0  0  0
   -2.8868    1.8535    5.4683 N   0  0  0  0  0  0  0  0  0  0  0  0
   -4.1194    2.5468    5.2785 C   0  0  0  0  0  0  0  0  0  0  0  0
   -4.1752    3.9547    5.7463 C   0  0  0  0  0  0  0  0  0  0  0  0
   -3.0795    4.4193    6.6204 C   0  0  0  0  0  0  0  0  0  0  0  0
   -1.7380    3.8018    6.1986 C   0  0  0  0  0  0  0  0  0  0  0  0
   -1.9260    2.3172    6.4270 C   0  0  0  0  0  0  0  0  0  0  0  0
   -2.8901    5.8070    6.6607 O   0  0  0  0  0  0  0  0  0  0  0  0
   -2.1544    6.0465    7.8241 C   0  0  0  0  0  0  0  0  0  0  0  0
   -1.3234    7.0515    8.2714 C   0  0  0  0  0  0  0  0  0  0  0  0
   -0.7075    7.0326    9.5044 C   0  0  0  0  0  0  0  0  0  0  0  0
   -0.9332    5.9557   10.3321 C   0  0  0  0  0  0  0  0  0  0  0  0
   -1.7581    4.9295    9.9221 C   0  0  0  0  0  0  0  0  0  0  0  0
   -2.3773    4.9632    8.6651 C   0  0  0  0  0  0  0  0  0  0  0  0
   -3.2369    4.1028    7.9910 O   0  0  0  0  0  0  0  0  0  0  0  0
   -0.8961    0.6718    2.8339 O   0  0  0  0  0  0  0  0  0  0  0  0
  1  2  1  0
  2  3  1  0
  3  4  1  0
  4  5  2  0
  5  6  1  0
  6  7  2  0
  7  8  1  0
  8  9  2  0
  7 10  1  0
  3 11  1  0
 11 12  2  0
 11 13  1  0
 13 14  1  0
 14 15  1  0
 15 16  1  0
 16 17  1  0
 17 18  1  0
 16 19  1  0
 19 20  1  0
 20 21  2  0
 21 22  1  0
 22 23  2  0
 23 24  1  0
 24 25  2  0
 25 26  1  0
  2 27  1  0
  9  4  1  0
 18 13  1  0
 26 16  1  0
 25 20  1  0
M  END
$$$$
