
     RDKit          3D

 27 30  0  0  0  0  0  0  0  0999 V2000
    1.1415   -2.4798    4.8776 C   0  0  0  0  0  0  0  0  0  0  0  0
    0.2958   -1.3752    4.3005 C   0  0  0  0  0  0  0  0  0  0  0  0
   -0.4142   -0.6244    5.4125 C   0  0  0  0  0  0  0  0  0  0  0  0
   -0.0041   -1.0650    6.7406 C   0  0  0  0  0  0  0  0  0  0  0  0
   -0.8632   -1.8100    7.5136 C   0  0  0  0  0  0  0  0  0  0  0  0
   -0.4575   -2.2232    8.7903 C   0  0  0  0  0  0  0  0  0  0  0  0
    0.7842   -1.8908    9.2709 C   0  0  0  0  0  0  0  0  0  0  0  0
    1.6416   -1.1453    8.4952 C   0  0  0  0  0  0  0  0  0  0  0  0
    1.2313   -0.7459    7.2435 C   0  0  0  0  0  0  0  0  0  0  0  0
    1.2670   -2.4236   10.8801 Cl  0  0  0  0  0  0  0  0  0  0  0  0
   -0.2548    0.8220    5.1865 C   0  0  0  0  0  0  0  0  0  0  0  0
    0.5494    1.1687    4.2515 O   0  0  0  0  0  0  0  0  0  0  0  0
   -0.9312    1.8164    5.9346 N   0  0  0  0  0  0  0  0  0  0  0  0
   -2.1998    1.5343    6.5236 C   0  0  0  0  0  0  0  0  0  0  0  0
   -3.0406    2.7002    6.8945 C   0  0  0  0  0  0  0  0  0  0  0  0
   -2.3900    4.0258    6.9029 C   0  0  0  0  0  0  0  0  0  0  0  0
   -1.3687    4.1462    5.7623 C   0  0  0  0  0  0  0  0  0  0  0  0
   -0.3208    3.1048    6.0925 C   0  0  0  0  0  0  0  0  0  0  0  0
   -3.2562    5.1210    6.7863 O   0  0  0  0  0  0  0  0  0  0  0  0
   -2.5277    6.2199    7.2492 C   0  0  0  0  0  0  0  0  0  0  0  0
   -2.5895    7.5854    7.0699 C   0  0  0  0  0  0  0  0  0  0  0  0
   -1.7155    8.4681    7.6672 C   0  0  0  0  0  0  0  0  0  0  0  0
   -0.7302    7.9612    8.4845 C   0  0  0  0  0  0  0  0  0  0  0  0
   -0.6342    6.6010    8.6899 C   0  0  0  0  0  0  0  0  0  0  0  0
   -1.5307    5.7160    8.0754 C   0  0  0  0  0  0  0  0  0  0  0  0
   -1.6825    4.3339    8.0896 O   0  0  0  0  0  0  0  0  0  0  0  0
   -0.6921   -1.9543    3.4852 O   0  0  0  0  0  0  0  0  0  0  0  0
  1  2  1  0
  2  3  1  0
  3  4  1  0
  4  5  2  0
  5  6  1  0
  6  7  2  0
  7  8  1  0
  8  9  2  0
  7 10  1  0
  3 11  1  0
 11 12  2  0
 11 13  1  0
 13 14  1  0
 14 15  1  0
 15 16  1  0
 16 17  1  0
 17 18  1  0
 16 19  1  0
 19 20  1  0
 20 21  2  0
 21 22  1  0
 22 23  2  0
 23 24  1  0
 24 25  2  0
 25 26  1  0
  2 27  1  0
  9  4  1  0
 18 13  1  0
 26 16  1  0
 25 20  1  0
M  END
$$$$
