
     RDKit          3D

 27 30  0  0  0  0  0  0  0  0999 V2000
    1.1582   -0.1247    4.5413 C   0  0  0  0  0  0  0  0  0  0  0  0
   -0.1893   -0.4106    3.9323 C   0  0  0  0  0  0  0  0  0  0  0  0
   -1.2295   -0.5883    5.0236 C   0  0  0  0  0  0  0  0  0  0  0  0
   -0.6727   -0.4355    6.3626 C   0  0  0  0  0  0  0  0  0  0  0  0
   -1.0615   -1.2867    7.3700 C   0  0  0  0  0  0  0  0  0  0  0  0
   -0.5215   -1.1256    8.6537 C   0  0  0  0  0  0  0  0  0  0  0  0
    0.3873   -0.1297    8.9097 C   0  0  0  0  0  0  0  0  0  0  0  0
    0.7743    0.7204    7.8998 C   0  0  0  0  0  0  0  0  0  0  0  0
    0.2368    0.5517    6.6439 C   0  0  0  0  0  0  0  0  0  0  0  0
    1.0491    0.0494   10.5335 Cl  0  0  0  0  0  0  0  0  0  0  0  0
   -2.3684    0.3025    4.7441 C   0  0  0  0  0  0  0  0  0  0  0  0
   -3.1470   -0.0485    3.7893 O   0  0  0  0  0  0  0  0  0  0  0  0
   -2.6327    1.4939    5.4629 N   0  0  0  0  0  0  0  0  0  0  0  0
   -3.9186    2.1077    5.3892 C   0  0  0  0  0  0  0  0  0  0  0  0
   -4.0017    3.5380    5.7781 C   0  0  0  0  0  0  0  0  0  0  0  0
   -2.8377    4.1153    6.4796 C   0  0  0  0  0  0  0  0  0  0  0  0
   -1.5229    3.5432    5.9296 C   0  0  0  0  0  0  0  0  0  0  0  0
   -1.5919    2.0686    6.2653 C   0  0  0  0  0  0  0  0  0  0  0  0
   -2.7287    5.5107    6.4155 O   0  0  0  0  0  0  0  0  0  0  0  0
   -1.8725    5.8635    7.4619 C   0  0  0  0  0  0  0  0  0  0  0  0
   -1.0552    6.9377    7.7426 C   0  0  0  0  0  0  0  0  0  0  0  0
   -0.2938    7.0313    8.8877 C   0  0  0  0  0  0  0  0  0  0  0  0
   -0.3518    6.0000    9.7981 C   0  0  0  0  0  0  0  0  0  0  0  0
   -1.1572    4.9075    9.5548 C   0  0  0  0  0  0  0  0  0  0  0  0
   -1.9257    4.8268    8.3854 C   0  0  0  0  0  0  0  0  0  0  0  0
   -2.8077    3.8806    7.8752 O   0  0  0  0  0  0  0  0  0  0  0  0
   -0.1074   -1.6233    3.2263 O   0  0  0  0  0  0  0  0  0  0  0  0
  1  2  1  0
  2  3  1  0
  3  4  1  0
  4  5  2  0
  5  6  1  0
  6  7  2  0
  7  8  1  0
  8  9  2  0
  7 10  1  0
  3 11  1  0
 11 12  2  0
 11 13  1  0
 13 14  1  0
 14 15  1  0
 15 16  1  0
 16 17  1  0
 17 18  1  0
 16 19  1  0
 19 20  1  0
 20 21  2  0
 21 22  1  0
 22 23  2  0
 23 24  1  0
 24 25  2  0
 25 26  1  0
  2 27  1  0
  9  4  1  0
 18 13  1  0
 26 16  1  0
 25 20  1  0
M  END
$$$$
