
     RDKit          3D

 27 30  0  0  0  0  0  0  0  0999 V2000
   -3.6945    2.7248    3.4948 C   0  0  0  0  0  0  0  0  0  0  0  0
   -2.7658    2.7958    4.6785 C   0  0  0  0  0  0  0  0  0  0  0  0
   -3.4081    2.1398    5.8874 C   0  0  0  0  0  0  0  0  0  0  0  0
   -2.4511    1.8603    6.9514 C   0  0  0  0  0  0  0  0  0  0  0  0
   -2.0055    2.8790    7.7603 C   0  0  0  0  0  0  0  0  0  0  0  0
   -1.0820    2.5968    8.7766 C   0  0  0  0  0  0  0  0  0  0  0  0
   -0.6225    1.3179    8.9681 C   0  0  0  0  0  0  0  0  0  0  0  0
   -1.0701    0.3009    8.1572 C   0  0  0  0  0  0  0  0  0  0  0  0
   -1.9768    0.5910    7.1631 C   0  0  0  0  0  0  0  0  0  0  0  0
    0.5389    0.9928   10.2535 Cl  0  0  0  0  0  0  0  0  0  0  0  0
   -4.5576    2.9547    6.3155 C   0  0  0  0  0  0  0  0  0  0  0  0
   -4.5052    4.2049    6.0410 O   0  0  0  0  0  0  0  0  0  0  0  0
   -5.6843    2.4326    6.9968 N   0  0  0  0  0  0  0  0  0  0  0  0
   -5.7723    1.0361    7.2755 C   0  0  0  0  0  0  0  0  0  0  0  0
   -7.1230    0.4958    7.5717 C   0  0  0  0  0  0  0  0  0  0  0  0
   -8.1958    1.4731    7.8447 C   0  0  0  0  0  0  0  0  0  0  0  0
   -8.0433    2.7204    6.9618 C   0  0  0  0  0  0  0  0  0  0  0  0
   -6.7288    3.3278    7.4032 C   0  0  0  0  0  0  0  0  0  0  0  0
   -9.5013    1.0012    7.6546 O   0  0  0  0  0  0  0  0  0  0  0  0
  -10.3206    1.8830    8.3642 C   0  0  0  0  0  0  0  0  0  0  0  0
  -11.6481    2.2509    8.3085 C   0  0  0  0  0  0  0  0  0  0  0  0
  -12.2138    3.1767    9.1586 C   0  0  0  0  0  0  0  0  0  0  0  0
  -11.4132    3.7643   10.1123 C   0  0  0  0  0  0  0  0  0  0  0  0
  -10.0800    3.4237   10.2012 C   0  0  0  0  0  0  0  0  0  0  0  0
   -9.5192    2.4804    9.3292 C   0  0  0  0  0  0  0  0  0  0  0  0
   -8.2442    1.9466    9.1778 O   0  0  0  0  0  0  0  0  0  0  0  0
   -2.5554    4.1490    4.9951 O   0  0  0  0  0  0  0  0  0  0  0  0
  1  2  1  0
  2  3  1  0
  3  4  1  0
  4  5  2  0
  5  6  1  0
  6  7  2  0
  7  8  1  0
  8  9  2  0
  7 10  1  0
  3 11  1  0
 11 12  2  0
 11 13  1  0
 13 14  1  0
 14 15  1  0
 15 16  1  0
 16 17  1  0
 17 18  1  0
 16 19  1  0
 19 20  1  0
 20 21  2  0
 21 22  1  0
 22 23  2  0
 23 24  1  0
 24 25  2  0
 25 26  1  0
  2 27  1  0
  9  4  1  0
 18 13  1  0
 26 16  1  0
 25 20  1  0
M  END
$$$$
