
     RDKit          3D

 27 30  0  0  0  0  0  0  0  0999 V2000
    0.0653    0.6398    4.5412 C   0  0  0  0  0  0  0  0  0  0  0  0
   -1.4070    0.7879    4.2603 C   0  0  0  0  0  0  0  0  0  0  0  0
   -2.1728    0.9603    5.5595 C   0  0  0  0  0  0  0  0  0  0  0  0
   -1.8789    2.2251    6.2229 C   0  0  0  0  0  0  0  0  0  0  0  0
   -2.0084    3.4086    5.5351 C   0  0  0  0  0  0  0  0  0  0  0  0
   -1.7182    4.6169    6.1840 C   0  0  0  0  0  0  0  0  0  0  0  0
   -1.3082    4.6262    7.4936 C   0  0  0  0  0  0  0  0  0  0  0  0
   -1.1795    3.4405    8.1792 C   0  0  0  0  0  0  0  0  0  0  0  0
   -1.4675    2.2609    7.5308 C   0  0  0  0  0  0  0  0  0  0  0  0
   -0.9498    6.1605    8.2835 Cl  0  0  0  0  0  0  0  0  0  0  0  0
   -3.6054    0.7399    5.2996 C   0  0  0  0  0  0  0  0  0  0  0  0
   -3.8975   -0.1641    4.4401 O   0  0  0  0  0  0  0  0  0  0  0  0
   -4.6431    1.4615    5.9388 N   0  0  0  0  0  0  0  0  0  0  0  0
   -4.3493    2.6592    6.6565 C   0  0  0  0  0  0  0  0  0  0  0  0
   -5.3573    3.1102    7.6487 C   0  0  0  0  0  0  0  0  0  0  0  0
   -6.6861    2.4680    7.6003 C   0  0  0  0  0  0  0  0  0  0  0  0
   -6.5659    0.9777    7.2494 C   0  0  0  0  0  0  0  0  0  0  0  0
   -5.9886    0.9725    5.8500 C   0  0  0  0  0  0  0  0  0  0  0  0
   -7.4343    2.5452    8.7825 O   0  0  0  0  0  0  0  0  0  0  0  0
   -8.7551    2.2946    8.4015 C   0  0  0  0  0  0  0  0  0  0  0  0
   -9.8932    1.8478    9.0384 C   0  0  0  0  0  0  0  0  0  0  0  0
  -11.1045    1.6871    8.4007 C   0  0  0  0  0  0  0  0  0  0  0  0
  -11.1828    1.9879    7.0594 C   0  0  0  0  0  0  0  0  0  0  0  0
  -10.0671    2.4378    6.3855 C   0  0  0  0  0  0  0  0  0  0  0  0
   -8.8421    2.5961    7.0480 C   0  0  0  0  0  0  0  0  0  0  0  0
   -7.5786    3.0184    6.6495 O   0  0  0  0  0  0  0  0  0  0  0  0
   -1.8633   -0.3963    3.6558 O   0  0  0  0  0  0  0  0  0  0  0  0
  1  2  1  0
  2  3  1  0
  3  4  1  0
  4  5  2  0
  5  6  1  0
  6  7  2  0
  7  8  1  0
  8  9  2  0
  7 10  1  0
  3 11  1  0
 11 12  2  0
 11 13  1  0
 13 14  1  0
 14 15  1  0
 15 16  1  0
 16 17  1  0
 17 18  1  0
 16 19  1  0
 19 20  1  0
 20 21  2  0
 21 22  1  0
 22 23  2  0
 23 24  1  0
 24 25  2  0
 25 26  1  0
  2 27  1  0
  9  4  1  0
 18 13  1  0
 26 16  1  0
 25 20  1  0
M  END
$$$$
