
     RDKit          3D

 27 30  0  0  0  0  0  0  0  0999 V2000
    0.2525   -1.3709    2.3831 C   0  0  0  0  0  0  0  0  0  0  0  0
   -1.2237   -1.1549    2.5903 C   0  0  0  0  0  0  0  0  0  0  0  0
   -1.4689   -0.4520    3.9132 C   0  0  0  0  0  0  0  0  0  0  0  0
   -0.6804   -1.0132    5.0039 C   0  0  0  0  0  0  0  0  0  0  0  0
   -1.2389   -1.9440    5.8477 C   0  0  0  0  0  0  0  0  0  0  0  0
   -0.4707   -2.4720    6.8949 C   0  0  0  0  0  0  0  0  0  0  0  0
    0.8274   -2.0680    7.0821 C   0  0  0  0  0  0  0  0  0  0  0  0
    1.3834   -1.1365    6.2362 C   0  0  0  0  0  0  0  0  0  0  0  0
    0.6187   -0.6259    5.2119 C   0  0  0  0  0  0  0  0  0  0  0  0
    1.7691   -2.7486    8.4074 Cl  0  0  0  0  0  0  0  0  0  0  0  0
   -1.2819    0.9964    3.7235 C   0  0  0  0  0  0  0  0  0  0  0  0
   -0.4387    1.3507    2.8265 O   0  0  0  0  0  0  0  0  0  0  0  0
   -1.9723    1.9848    4.4667 N   0  0  0  0  0  0  0  0  0  0  0  0
   -1.5453    3.3455    4.4238 C   0  0  0  0  0  0  0  0  0  0  0  0
   -1.9999    4.2257    5.5296 C   0  0  0  0  0  0  0  0  0  0  0  0
   -3.0764    3.7133    6.4008 C   0  0  0  0  0  0  0  0  0  0  0  0
   -2.9261    2.2026    6.6328 C   0  0  0  0  0  0  0  0  0  0  0  0
   -3.1051    1.5974    5.2568 C   0  0  0  0  0  0  0  0  0  0  0  0
   -3.1606    4.3095    7.6660 O   0  0  0  0  0  0  0  0  0  0  0  0
   -4.4482    4.0215    8.1259 C   0  0  0  0  0  0  0  0  0  0  0  0
   -5.0567    3.9483    9.3608 C   0  0  0  0  0  0  0  0  0  0  0  0
   -6.3872    3.6319    9.5321 C   0  0  0  0  0  0  0  0  0  0  0  0
   -7.1481    3.3758    8.4136 C   0  0  0  0  0  0  0  0  0  0  0  0
   -6.5773    3.4386    7.1599 C   0  0  0  0  0  0  0  0  0  0  0  0
   -5.2226    3.7617    7.0019 C   0  0  0  0  0  0  0  0  0  0  0  0
   -4.3870    3.8990    5.8991 O   0  0  0  0  0  0  0  0  0  0  0  0
   -1.8494   -2.4118    2.6584 O   0  0  0  0  0  0  0  0  0  0  0  0
  1  2  1  0
  2  3  1  0
  3  4  1  0
  4  5  2  0
  5  6  1  0
  6  7  2  0
  7  8  1  0
  8  9  2  0
  7 10  1  0
  3 11  1  0
 11 12  2  0
 11 13  1  0
 13 14  1  0
 14 15  1  0
 15 16  1  0
 16 17  1  0
 17 18  1  0
 16 19  1  0
 19 20  1  0
 20 21  2  0
 21 22  1  0
 22 23  2  0
 23 24  1  0
 24 25  2  0
 25 26  1  0
  2 27  1  0
  9  4  1  0
 18 13  1  0
 26 16  1  0
 25 20  1  0
M  END
$$$$
