
     RDKit          3D

 27 30  0  0  0  0  0  0  0  0999 V2000
   -6.9009    0.2579    3.1813 C   0  0  0  0  0  0  0  0  0  0  0  0
   -5.4088    0.0593    3.1285 C   0  0  0  0  0  0  0  0  0  0  0  0
   -4.7554    0.6759    4.3521 C   0  0  0  0  0  0  0  0  0  0  0  0
   -5.0744   -0.0398    5.5818 C   0  0  0  0  0  0  0  0  0  0  0  0
   -4.4603   -1.2384    5.8588 C   0  0  0  0  0  0  0  0  0  0  0  0
   -4.7799   -1.9178    7.0427 C   0  0  0  0  0  0  0  0  0  0  0  0
   -5.6963   -1.3975    7.9217 C   0  0  0  0  0  0  0  0  0  0  0  0
   -6.3091   -0.1981    7.6418 C   0  0  0  0  0  0  0  0  0  0  0  0
   -5.9866    0.4592    6.4762 C   0  0  0  0  0  0  0  0  0  0  0  0
   -6.0788   -2.2742    9.4021 Cl  0  0  0  0  0  0  0  0  0  0  0  0
   -3.3114    0.8168    4.0995 C   0  0  0  0  0  0  0  0  0  0  0  0
   -2.8069    0.0358    3.2181 O   0  0  0  0  0  0  0  0  0  0  0  0
   -2.4812    1.7496    4.7679 N   0  0  0  0  0  0  0  0  0  0  0  0
   -1.0687    1.7271    4.5680 C   0  0  0  0  0  0  0  0  0  0  0  0
   -0.2355    2.3982    5.5973 C   0  0  0  0  0  0  0  0  0  0  0  0
   -0.9305    3.2733    6.5626 C   0  0  0  0  0  0  0  0  0  0  0  0
   -2.3031    2.6971    6.9403 C   0  0  0  0  0  0  0  0  0  0  0  0
   -3.0818    2.7151    5.6422 C   0  0  0  0  0  0  0  0  0  0  0  0
   -0.2465    3.5065    7.7630 O   0  0  0  0  0  0  0  0  0  0  0  0
   -0.8322    4.6530    8.3060 C   0  0  0  0  0  0  0  0  0  0  0  0
   -0.9370    5.1992    9.5675 C   0  0  0  0  0  0  0  0  0  0  0  0
   -1.5935    6.3827    9.8283 C   0  0  0  0  0  0  0  0  0  0  0  0
   -2.1744    7.0544    8.7761 C   0  0  0  0  0  0  0  0  0  0  0  0
   -2.0921    6.5416    7.4987 C   0  0  0  0  0  0  0  0  0  0  0  0
   -1.4210    5.3366    7.2494 C   0  0  0  0  0  0  0  0  0  0  0  0
   -1.1767    4.5891    6.1027 O   0  0  0  0  0  0  0  0  0  0  0  0
   -4.9123    0.7344    2.0000 O   0  0  0  0  0  0  0  0  0  0  0  0
  1  2  1  0
  2  3  1  0
  3  4  1  0
  4  5  2  0
  5  6  1  0
  6  7  2  0
  7  8  1  0
  8  9  2  0
  7 10  1  0
  3 11  1  0
 11 12  2  0
 11 13  1  0
 13 14  1  0
 14 15  1  0
 15 16  1  0
 16 17  1  0
 17 18  1  0
 16 19  1  0
 19 20  1  0
 20 21  2  0
 21 22  1  0
 22 23  2  0
 23 24  1  0
 24 25  2  0
 25 26  1  0
  2 27  1  0
  9  4  1  0
 18 13  1  0
 26 16  1  0
 25 20  1  0
M  END
$$$$
