
     RDKit          3D

 27 30  0  0  0  0  0  0  0  0999 V2000
   -4.2907    0.0743   10.4065 C   0  0  0  0  0  0  0  0  0  0  0  0
   -4.6243    1.5404   10.3167 C   0  0  0  0  0  0  0  0  0  0  0  0
   -5.2799    1.8469    8.9823 C   0  0  0  0  0  0  0  0  0  0  0  0
   -6.7301    1.9630    9.0808 C   0  0  0  0  0  0  0  0  0  0  0  0
   -7.3138    3.2017    9.2053 C   0  0  0  0  0  0  0  0  0  0  0  0
   -8.7089    3.2982    9.3035 C   0  0  0  0  0  0  0  0  0  0  0  0
   -9.4912    2.1710    9.2764 C   0  0  0  0  0  0  0  0  0  0  0  0
   -8.9043    0.9331    9.1517 C   0  0  0  0  0  0  0  0  0  0  0  0
   -7.5336    0.8518    9.0562 C   0  0  0  0  0  0  0  0  0  0  0  0
  -11.2427    2.3228    9.4023 Cl  0  0  0  0  0  0  0  0  0  0  0  0
   -4.6244    3.0253    8.3903 C   0  0  0  0  0  0  0  0  0  0  0  0
   -4.7525    4.1299    9.0264 O   0  0  0  0  0  0  0  0  0  0  0  0
   -3.8810    2.9918    7.1852 N   0  0  0  0  0  0  0  0  0  0  0  0
   -3.3952    4.2021    6.6065 C   0  0  0  0  0  0  0  0  0  0  0  0
   -3.0314    4.1582    5.1678 C   0  0  0  0  0  0  0  0  0  0  0  0
   -2.9178    2.8260    4.5409 C   0  0  0  0  0  0  0  0  0  0  0  0
   -3.9779    1.8632    5.0957 C   0  0  0  0  0  0  0  0  0  0  0  0
   -3.6229    1.7265    6.5610 C   0  0  0  0  0  0  0  0  0  0  0  0
   -3.0448    2.8056    3.1457 O   0  0  0  0  0  0  0  0  0  0  0  0
   -2.4831    1.5920    2.7407 C   0  0  0  0  0  0  0  0  0  0  0  0
   -2.6044    0.7729    1.6384 C   0  0  0  0  0  0  0  0  0  0  0  0
   -1.9084   -0.4078    1.4919 C   0  0  0  0  0  0  0  0  0  0  0  0
   -1.0482   -0.7893    2.4970 C   0  0  0  0  0  0  0  0  0  0  0  0
   -0.8983    0.0022    3.6162 C   0  0  0  0  0  0  0  0  0  0  0  0
   -1.6131    1.2003    3.7506 C   0  0  0  0  0  0  0  0  0  0  0  0
   -1.6720    2.1821    4.7335 O   0  0  0  0  0  0  0  0  0  0  0  0
   -3.4250    2.2713   10.3751 O   0  0  0  0  0  0  0  0  0  0  0  0
  1  2  1  0
  2  3  1  0
  3  4  1  0
  4  5  2  0
  5  6  1  0
  6  7  2  0
  7  8  1  0
  8  9  2  0
  7 10  1  0
  3 11  1  0
 11 12  2  0
 11 13  1  0
 13 14  1  0
 14 15  1  0
 15 16  1  0
 16 17  1  0
 17 18  1  0
 16 19  1  0
 19 20  1  0
 20 21  2  0
 21 22  1  0
 22 23  2  0
 23 24  1  0
 24 25  2  0
 25 26  1  0
  2 27  1  0
  9  4  1  0
 18 13  1  0
 26 16  1  0
 25 20  1  0
M  END
$$$$
