
     RDKit          3D

 27 30  0  0  0  0  0  0  0  0999 V2000
   -0.1975   -0.6061    3.7314 C   0  0  0  0  0  0  0  0  0  0  0  0
   -0.6641   -0.4959    5.1592 C   0  0  0  0  0  0  0  0  0  0  0  0
   -1.6479    0.6515    5.3011 C   0  0  0  0  0  0  0  0  0  0  0  0
   -2.9708    0.3267    4.7809 C   0  0  0  0  0  0  0  0  0  0  0  0
   -3.3737   -0.9853    4.6977 C   0  0  0  0  0  0  0  0  0  0  0  0
   -4.6466   -1.2834    4.1914 C   0  0  0  0  0  0  0  0  0  0  0  0
   -5.4881   -0.2801    3.7808 C   0  0  0  0  0  0  0  0  0  0  0  0
   -5.0821    1.0316    3.8653 C   0  0  0  0  0  0  0  0  0  0  0  0
   -3.8301    1.3110    4.3642 C   0  0  0  0  0  0  0  0  0  0  0  0
   -7.0826   -0.6848    3.1481 Cl  0  0  0  0  0  0  0  0  0  0  0  0
   -1.6507    1.1045    6.7023 C   0  0  0  0  0  0  0  0  0  0  0  0
   -1.6056    0.1900    7.5983 O   0  0  0  0  0  0  0  0  0  0  0  0
   -1.6995    2.4656    7.0909 N   0  0  0  0  0  0  0  0  0  0  0  0
   -1.8067    3.4913    6.1050 C   0  0  0  0  0  0  0  0  0  0  0  0
   -1.4104    4.8613    6.5174 C   0  0  0  0  0  0  0  0  0  0  0  0
   -1.2288    5.1050    7.9624 C   0  0  0  0  0  0  0  0  0  0  0  0
   -0.6055    3.8834    8.6536 C   0  0  0  0  0  0  0  0  0  0  0  0
   -1.6432    2.7940    8.4861 C   0  0  0  0  0  0  0  0  0  0  0  0
   -0.4274    6.2067    8.2901 O   0  0  0  0  0  0  0  0  0  0  0  0
   -0.7421    6.5117    9.6168 C   0  0  0  0  0  0  0  0  0  0  0  0
   -0.1092    7.1691   10.6502 C   0  0  0  0  0  0  0  0  0  0  0  0
   -0.6678    7.3311   11.8998 C   0  0  0  0  0  0  0  0  0  0  0  0
   -1.9216    6.8101   12.1286 C   0  0  0  0  0  0  0  0  0  0  0  0
   -2.5884    6.1453   11.1211 C   0  0  0  0  0  0  0  0  0  0  0  0
   -2.0070    5.9888    9.8553 C   0  0  0  0  0  0  0  0  0  0  0  0
   -2.4206    5.3851    8.6730 O   0  0  0  0  0  0  0  0  0  0  0  0
    0.4480   -0.2001    5.9664 O   0  0  0  0  0  0  0  0  0  0  0  0
  1  2  1  0
  2  3  1  0
  3  4  1  0
  4  5  2  0
  5  6  1  0
  6  7  2  0
  7  8  1  0
  8  9  2  0
  7 10  1  0
  3 11  1  0
 11 12  2  0
 11 13  1  0
 13 14  1  0
 14 15  1  0
 15 16  1  0
 16 17  1  0
 17 18  1  0
 16 19  1  0
 19 20  1  0
 20 21  2  0
 21 22  1  0
 22 23  2  0
 23 24  1  0
 24 25  2  0
 25 26  1  0
  2 27  1  0
  9  4  1  0
 18 13  1  0
 26 16  1  0
 25 20  1  0
M  END
$$$$
