
     RDKit          3D

 27 30  0  0  0  0  0  0  0  0999 V2000
   -0.9355   -2.6244    3.1608 C   0  0  0  0  0  0  0  0  0  0  0  0
   -0.1260   -1.6464    3.9712 C   0  0  0  0  0  0  0  0  0  0  0  0
   -1.0399   -0.8149    4.8530 C   0  0  0  0  0  0  0  0  0  0  0  0
   -0.4252   -0.4625    6.1274 C   0  0  0  0  0  0  0  0  0  0  0  0
   -1.0093   -0.8618    7.3063 C   0  0  0  0  0  0  0  0  0  0  0  0
   -0.4098   -0.5122    8.5243 C   0  0  0  0  0  0  0  0  0  0  0  0
    0.7495    0.2218    8.5476 C   0  0  0  0  0  0  0  0  0  0  0  0
    1.3316    0.6200    7.3664 C   0  0  0  0  0  0  0  0  0  0  0  0
    0.7331    0.2702    6.1772 C   0  0  0  0  0  0  0  0  0  0  0  0
    1.4804    0.6473   10.0939 Cl  0  0  0  0  0  0  0  0  0  0  0  0
   -1.5212    0.3428    4.0806 C   0  0  0  0  0  0  0  0  0  0  0  0
   -1.5779    0.1973    2.8090 O   0  0  0  0  0  0  0  0  0  0  0  0
   -1.9123    1.5727    4.6640 N   0  0  0  0  0  0  0  0  0  0  0  0
   -2.2281    2.6922    3.8377 C   0  0  0  0  0  0  0  0  0  0  0  0
   -2.1907    4.0304    4.4793 C   0  0  0  0  0  0  0  0  0  0  0  0
   -2.1269    4.0702    5.9540 C   0  0  0  0  0  0  0  0  0  0  0  0
   -1.2524    2.9314    6.4991 C   0  0  0  0  0  0  0  0  0  0  0  0
   -1.9886    1.6726    6.0929 C   0  0  0  0  0  0  0  0  0  0  0  0
   -1.6285    5.2595    6.5021 O   0  0  0  0  0  0  0  0  0  0  0  0
   -2.0564    5.2618    7.8323 C   0  0  0  0  0  0  0  0  0  0  0  0
   -1.6401    5.8706    8.9970 C   0  0  0  0  0  0  0  0  0  0  0  0
   -2.2670    5.6914   10.2114 C   0  0  0  0  0  0  0  0  0  0  0  0
   -3.3650    4.8624   10.2648 C   0  0  0  0  0  0  0  0  0  0  0  0
   -3.8135    4.2344    9.1220 C   0  0  0  0  0  0  0  0  0  0  0  0
   -3.1651    4.4266    7.8943 C   0  0  0  0  0  0  0  0  0  0  0  0
   -3.3764    3.9448    6.6072 O   0  0  0  0  0  0  0  0  0  0  0  0
    0.5206   -0.7667    3.0858 O   0  0  0  0  0  0  0  0  0  0  0  0
  1  2  1  0
  2  3  1  0
  3  4  1  0
  4  5  2  0
  5  6  1  0
  6  7  2  0
  7  8  1  0
  8  9  2  0
  7 10  1  0
  3 11  1  0
 11 12  2  0
 11 13  1  0
 13 14  1  0
 14 15  1  0
 15 16  1  0
 16 17  1  0
 17 18  1  0
 16 19  1  0
 19 20  1  0
 20 21  2  0
 21 22  1  0
 22 23  2  0
 23 24  1  0
 24 25  2  0
 25 26  1  0
  2 27  1  0
  9  4  1  0
 18 13  1  0
 26 16  1  0
 25 20  1  0
M  END
$$$$
