
     RDKit          3D

 27 30  0  0  0  0  0  0  0  0999 V2000
   -2.4035   -0.6878    3.9799 C   0  0  0  0  0  0  0  0  0  0  0  0
   -1.7068    0.2808    4.8991 C   0  0  0  0  0  0  0  0  0  0  0  0
   -2.6463    0.7170    6.0088 C   0  0  0  0  0  0  0  0  0  0  0  0
   -2.0415    0.6144    7.3316 C   0  0  0  0  0  0  0  0  0  0  0  0
   -1.1702    1.5851    7.7664 C   0  0  0  0  0  0  0  0  0  0  0  0
   -0.5927    1.4715    9.0388 C   0  0  0  0  0  0  0  0  0  0  0  0
   -0.8895    0.4039    9.8483 C   0  0  0  0  0  0  0  0  0  0  0  0
   -1.7616   -0.5657    9.4105 C   0  0  0  0  0  0  0  0  0  0  0  0
   -2.3219   -0.4425    8.1594 C   0  0  0  0  0  0  0  0  0  0  0  0
   -0.1479    0.2871   11.4430 Cl  0  0  0  0  0  0  0  0  0  0  0  0
   -3.1667    2.0575    5.6913 C   0  0  0  0  0  0  0  0  0  0  0  0
   -2.3719    2.8460    5.0685 O   0  0  0  0  0  0  0  0  0  0  0  0
   -4.4678    2.4999    6.0339 N   0  0  0  0  0  0  0  0  0  0  0  0
   -4.8564    3.8503    5.7862 C   0  0  0  0  0  0  0  0  0  0  0  0
   -6.0232    4.3623    6.5481 C   0  0  0  0  0  0  0  0  0  0  0  0
   -6.8534    3.3693    7.2589 C   0  0  0  0  0  0  0  0  0  0  0  0
   -5.9875    2.2436    7.8433 C   0  0  0  0  0  0  0  0  0  0  0  0
   -5.3853    1.5711    6.6280 C   0  0  0  0  0  0  0  0  0  0  0  0
   -7.6237    3.8752    8.3143 O   0  0  0  0  0  0  0  0  0  0  0  0
   -8.6170    2.9186    8.5392 C   0  0  0  0  0  0  0  0  0  0  0  0
   -9.4273    2.5746    9.6003 C   0  0  0  0  0  0  0  0  0  0  0  0
  -10.3519    1.5538    9.5475 C   0  0  0  0  0  0  0  0  0  0  0  0
  -10.4731    0.8407    8.3758 C   0  0  0  0  0  0  0  0  0  0  0  0
   -9.6811    1.1533    7.2911 C   0  0  0  0  0  0  0  0  0  0  0  0
   -8.7452    2.1945    7.3604 C   0  0  0  0  0  0  0  0  0  0  0  0
   -7.8311    2.7299    6.4597 O   0  0  0  0  0  0  0  0  0  0  0  0
   -1.3673    1.4267    4.1592 O   0  0  0  0  0  0  0  0  0  0  0  0
  1  2  1  0
  2  3  1  0
  3  4  1  0
  4  5  2  0
  5  6  1  0
  6  7  2  0
  7  8  1  0
  8  9  2  0
  7 10  1  0
  3 11  1  0
 11 12  2  0
 11 13  1  0
 13 14  1  0
 14 15  1  0
 15 16  1  0
 16 17  1  0
 17 18  1  0
 16 19  1  0
 19 20  1  0
 20 21  2  0
 21 22  1  0
 22 23  2  0
 23 24  1  0
 24 25  2  0
 25 26  1  0
  2 27  1  0
  9  4  1  0
 18 13  1  0
 26 16  1  0
 25 20  1  0
M  END
$$$$
