
     RDKit          3D

 57 63  0  0  0  0  0  0  0  0999 V2000
   -0.5019   -3.6109   12.5012 C   0  0  0  0  0  0  0  0  0  0  0  0
   -0.2470   -3.3116   11.0390 C   0  0  0  0  0  0  0  0  0  0  0  0
    0.0940   -1.9174   10.8679 N   0  0  0  0  0  0  0  0  0  0  0  0
    0.8470   -1.4774    9.7690 C   0  0  0  0  0  0  0  0  0  0  0  0
    1.3985   -2.3643    9.0303 O   0  0  0  0  0  0  0  0  0  0  0  0
    1.0604   -0.0801    9.3890 C   0  0  0  0  0  0  0  0  0  0  0  0
    1.4097    0.1309    7.9361 C   0  0  0  0  0  0  0  0  0  0  0  0
    2.2126    1.4382    8.0679 C   0  0  0  0  0  0  0  0  0  0  0  0
    2.9488    1.1387    9.3452 C   0  0  0  0  0  0  0  0  0  0  0  0
    2.0013    0.5563   10.1434 O   0  0  0  0  0  0  0  0  0  0  0  0
    3.5355    2.3013    9.9455 N   0  0  0  0  0  0  0  0  0  0  0  0
    4.4237    3.1047    9.3346 C   0  0  0  0  0  0  0  0  0  0  0  0
    4.7968    4.1013   10.1402 N   0  0  0  0  0  0  0  0  0  0  0  0
    4.1447    3.9597   11.3112 C   0  0  0  0  0  0  0  0  0  0  0  0
    4.1255    4.6679   12.4954 C   0  0  0  0  0  0  0  0  0  0  0  0
    3.3437    4.2395   13.4839 N   0  0  0  0  0  0  0  0  0  0  0  0
    2.5643    3.1320   13.3712 C   0  0  0  0  0  0  0  0  0  0  0  0
    2.6023    2.4646   12.2119 N   0  0  0  0  0  0  0  0  0  0  0  0
    3.3618    2.8258   11.1632 C   0  0  0  0  0  0  0  0  0  0  0  0
    1.7275    2.7074   14.5132 C   0  0  0  0  0  0  0  0  0  0  0  0
    0.8263    1.8531   14.3480 O   0  0  0  0  0  0  0  0  0  0  0  0
    1.9296    3.2540   15.8030 N   0  0  0  0  0  0  0  0  0  0  0  0
    1.9930    4.7028   16.0199 C   0  0  0  0  0  0  0  0  0  0  0  0
    0.6284    5.2292   16.4126 C   0  0  0  0  0  0  0  0  0  0  0  0
    0.7695    6.0516   17.5829 N   0  0  0  0  0  0  0  0  0  0  0  0
   -0.2439    6.8625   18.1490 C   0  0  0  0  0  0  0  0  0  0  0  0
   -1.4322    6.5877   17.9397 O   0  0  0  0  0  0  0  0  0  0  0  0
    0.0904    7.9758   18.9460 N   0  0  0  0  0  0  0  0  0  0  0  0
   -0.8982    8.7391   19.6903 C   0  0  0  0  0  0  0  0  0  0  0  0
   -0.2601    9.5856   20.7845 C   0  0  0  0  0  0  0  0  0  0  0  0
    0.9045   10.3500   20.2147 C   0  0  0  0  0  0  0  0  0  0  0  0
    0.4399   11.0235   18.9914 N   0  0  0  0  0  0  0  0  0  0  0  0
   -0.9705   11.0963   18.8040 C   0  0  0  0  0  0  0  0  0  0  0  0
   -1.5824    9.7077   18.7547 C   0  0  0  0  0  0  0  0  0  0  0  0
    1.4145   11.5403   18.1086 C   0  0  0  0  0  0  0  0  0  0  0  0
    1.1630   11.7538   16.7789 C   0  0  0  0  0  0  0  0  0  0  0  0
    2.1892   12.2675   15.9816 C   0  0  0  0  0  0  0  0  0  0  0  0
    3.4188   12.5566   16.4939 C   0  0  0  0  0  0  0  0  0  0  0  0
    3.6376   12.3313   17.8284 C   0  0  0  0  0  0  0  0  0  0  0  0
    2.6555   11.8415   18.5834 N   0  0  0  0  0  0  0  0  0  0  0  0
    4.9254    5.8323   12.6597 N   0  0  0  0  0  0  0  0  0  0  0  0
    5.0166    6.4432   13.9323 C   0  0  0  0  0  0  0  0  0  0  0  0
    6.1656    6.0947   14.7954 C   0  0  0  0  0  0  0  0  0  0  0  0
    6.2152    6.6869   16.1257 C   0  0  0  0  0  0  0  0  0  0  0  0
    7.3126    6.6132   16.9475 C   0  0  0  0  0  0  0  0  0  0  0  0
    7.2319    7.2249   18.1840 C   0  0  0  0  0  0  0  0  0  0  0  0
    6.0962    7.8898   18.5940 C   0  0  0  0  0  0  0  0  0  0  0  0
    4.9829    7.9737   17.7805 C   0  0  0  0  0  0  0  0  0  0  0  0
    5.0700    7.3656   16.5566 C   0  0  0  0  0  0  0  0  0  0  0  0
    6.1574    4.6000   14.9919 C   0  0  0  0  0  0  0  0  0  0  0  0
    5.9000    3.7278   13.9566 C   0  0  0  0  0  0  0  0  0  0  0  0
    5.9266    2.3864   14.2051 C   0  0  0  0  0  0  0  0  0  0  0  0
    6.2031    1.8918   15.4592 C   0  0  0  0  0  0  0  0  0  0  0  0
    6.4588    2.7443   16.4882 C   0  0  0  0  0  0  0  0  0  0  0  0
    6.4353    4.1234   16.2478 C   0  0  0  0  0  0  0  0  0  0  0  0
    3.0399    1.5760    6.9816 O   0  0  0  0  0  0  0  0  0  0  0  0
    0.2928    0.3668    7.1754 O   0  0  0  0  0  0  0  0  0  0  0  0
  1  2  1  0
  2  3  1  0
  3  4  1  0
  4  5  2  0
  4  6  1  0
  6  7  1  0
  7  8  1  0
  8  9  1  0
  9 10  1  0
  9 11  1  0
 11 12  1  0
 12 13  2  0
 13 14  1  0
 14 15  2  0
 15 16  1  0
 16 17  2  0
 17 18  1  0
 18 19  2  0
 17 20  1  0
 20 21  2  0
 20 22  1  0
 22 23  1  0
 23 24  1  0
 24 25  1  0
 25 26  1  0
 26 27  2  0
 26 28  1  0
 28 29  1  0
 29 30  1  0
 30 31  1  0
 31 32  1  0
 32 33  1  0
 33 34  1  0
 32 35  1  0
 35 36  2  0
 36 37  1  0
 37 38  2  0
 38 39  1  0
 39 40  2  0
 15 41  1  0
 41 42  1  0
 42 43  1  0
 43 44  1  0
 44 45  2  0
 45 46  1  0
 46 47  2  0
 47 48  1  0
 48 49  2  0
 43 50  1  0
 50 51  2  0
 51 52  1  0
 52 53  2  0
 53 54  1  0
 54 55  2  0
  8 56  1  0
  7 57  1  0
 10  6  1  0
 19 11  1  0
 19 14  1  0
 34 29  1  0
 40 35  1  0
 49 44  1  0
 55 50  1  0
M  END
$$$$
