
     RDKit          3D

 57 63  0  0  0  0  0  0  0  0999 V2000
    2.9757   -0.5144    3.7019 C   0  0  0  0  0  0  0  0  0  0  0  0
    1.7946   -0.0508    4.5282 C   0  0  0  0  0  0  0  0  0  0  0  0
    1.9128   -0.5385    5.8838 N   0  0  0  0  0  0  0  0  0  0  0  0
    1.8186    0.3269    6.9840 C   0  0  0  0  0  0  0  0  0  0  0  0
    1.5601    1.5584    6.7538 O   0  0  0  0  0  0  0  0  0  0  0  0
    1.9921   -0.0574    8.3856 C   0  0  0  0  0  0  0  0  0  0  0  0
    0.7048   -0.2583    9.1473 C   0  0  0  0  0  0  0  0  0  0  0  0
    1.2089    0.0701   10.5647 C   0  0  0  0  0  0  0  0  0  0  0  0
    2.1248    1.2165   10.2330 C   0  0  0  0  0  0  0  0  0  0  0  0
    2.7714    0.8047    9.0988 O   0  0  0  0  0  0  0  0  0  0  0  0
    3.0306    1.5422   11.2958 N   0  0  0  0  0  0  0  0  0  0  0  0
    4.2550    1.0061   11.4406 C   0  0  0  0  0  0  0  0  0  0  0  0
    4.8641    1.4957   12.5226 N   0  0  0  0  0  0  0  0  0  0  0  0
    4.0296    2.3755   13.1108 C   0  0  0  0  0  0  0  0  0  0  0  0
    4.1067    3.1747   14.2332 C   0  0  0  0  0  0  0  0  0  0  0  0
    3.0683    3.9495   14.5388 N   0  0  0  0  0  0  0  0  0  0  0  0
    1.9361    3.9834   13.7881 C   0  0  0  0  0  0  0  0  0  0  0  0
    1.8885    3.1985   12.7052 N   0  0  0  0  0  0  0  0  0  0  0  0
    2.8893    2.3863   12.3233 C   0  0  0  0  0  0  0  0  0  0  0  0
    0.8169    4.8603   14.1918 C   0  0  0  0  0  0  0  0  0  0  0  0
   -0.2919    4.7689   13.6160 O   0  0  0  0  0  0  0  0  0  0  0  0
    0.9776    5.8102   15.2287 N   0  0  0  0  0  0  0  0  0  0  0  0
   -0.1644    6.5531   15.7710 C   0  0  0  0  0  0  0  0  0  0  0  0
   -0.1691    6.4668   17.2831 C   0  0  0  0  0  0  0  0  0  0  0  0
    1.1835    6.5768   17.7565 N   0  0  0  0  0  0  0  0  0  0  0  0
    1.5902    6.5272   19.1119 C   0  0  0  0  0  0  0  0  0  0  0  0
    0.7336    6.4948   20.0044 O   0  0  0  0  0  0  0  0  0  0  0  0
    2.9585    6.5144   19.4499 N   0  0  0  0  0  0  0  0  0  0  0  0
    3.4956    7.2325   20.5943 C   0  0  0  0  0  0  0  0  0  0  0  0
    5.0106    7.1025   20.6898 C   0  0  0  0  0  0  0  0  0  0  0  0
    5.6265    7.3978   19.3486 C   0  0  0  0  0  0  0  0  0  0  0  0
    5.0629    8.6701   18.8696 N   0  0  0  0  0  0  0  0  0  0  0  0
    4.3815    9.4655   19.8354 C   0  0  0  0  0  0  0  0  0  0  0  0
    3.2096    8.7068   20.4319 C   0  0  0  0  0  0  0  0  0  0  0  0
    5.2389    9.0017   17.5076 C   0  0  0  0  0  0  0  0  0  0  0  0
    4.2672    8.7848   16.5664 C   0  0  0  0  0  0  0  0  0  0  0  0
    4.5314    9.1442   15.2421 C   0  0  0  0  0  0  0  0  0  0  0  0
    5.7206    9.6988   14.8733 C   0  0  0  0  0  0  0  0  0  0  0  0
    6.6715    9.9026   15.8396 C   0  0  0  0  0  0  0  0  0  0  0  0
    6.4140    9.5580   17.1003 N   0  0  0  0  0  0  0  0  0  0  0  0
    5.2709    3.1715   15.0499 N   0  0  0  0  0  0  0  0  0  0  0  0
    5.2959    3.9456   16.2336 C   0  0  0  0  0  0  0  0  0  0  0  0
    6.0616    5.2107   16.2267 C   0  0  0  0  0  0  0  0  0  0  0  0
    5.3142    6.4533   16.3685 C   0  0  0  0  0  0  0  0  0  0  0  0
    5.7848    7.6727   15.9481 C   0  0  0  0  0  0  0  0  0  0  0  0
    4.9720    8.7746   16.1350 C   0  0  0  0  0  0  0  0  0  0  0  0
    3.7291    8.6705   16.7220 C   0  0  0  0  0  0  0  0  0  0  0  0
    3.2399    7.4520   17.1510 C   0  0  0  0  0  0  0  0  0  0  0  0
    4.0505    6.3645   16.9624 C   0  0  0  0  0  0  0  0  0  0  0  0
    7.0376    5.1645   17.3747 C   0  0  0  0  0  0  0  0  0  0  0  0
    6.9587    4.2079   18.3636 C   0  0  0  0  0  0  0  0  0  0  0  0
    7.8877    4.2173   19.3630 C   0  0  0  0  0  0  0  0  0  0  0  0
    8.8936    5.1557   19.4022 C   0  0  0  0  0  0  0  0  0  0  0  0
    8.9806    6.1042   18.4307 C   0  0  0  0  0  0  0  0  0  0  0  0
    8.0344    6.1066   17.3988 C   0  0  0  0  0  0  0  0  0  0  0  0
    0.1459    0.4325   11.3534 O   0  0  0  0  0  0  0  0  0  0  0  0
    0.2931   -1.5663    9.1108 O   0  0  0  0  0  0  0  0  0  0  0  0
  1  2  1  0
  2  3  1  0
  3  4  1  0
  4  5  2  0
  4  6  1  0
  6  7  1  0
  7  8  1  0
  8  9  1  0
  9 10  1  0
  9 11  1  0
 11 12  1  0
 12 13  2  0
 13 14  1  0
 14 15  2  0
 15 16  1  0
 16 17  2  0
 17 18  1  0
 18 19  2  0
 17 20  1  0
 20 21  2  0
 20 22  1  0
 22 23  1  0
 23 24  1  0
 24 25  1  0
 25 26  1  0
 26 27  2  0
 26 28  1  0
 28 29  1  0
 29 30  1  0
 30 31  1  0
 31 32  1  0
 32 33  1  0
 33 34  1  0
 32 35  1  0
 35 36  2  0
 36 37  1  0
 37 38  2  0
 38 39  1  0
 39 40  2  0
 15 41  1  0
 41 42  1  0
 42 43  1  0
 43 44  1  0
 44 45  2  0
 45 46  1  0
 46 47  2  0
 47 48  1  0
 48 49  2  0
 43 50  1  0
 50 51  2  0
 51 52  1  0
 52 53  2  0
 53 54  1  0
 54 55  2  0
  8 56  1  0
  7 57  1  0
 10  6  1  0
 19 11  1  0
 19 14  1  0
 34 29  1  0
 40 35  1  0
 49 44  1  0
 55 50  1  0
M  END
$$$$
