
     RDKit          3D

 57 63  0  0  0  0  0  0  0  0999 V2000
    7.0476   11.9275   10.0015 C   0  0  0  0  0  0  0  0  0  0  0  0
    6.9137   10.7028   10.8816 C   0  0  0  0  0  0  0  0  0  0  0  0
    5.7551    9.9321   10.4901 N   0  0  0  0  0  0  0  0  0  0  0  0
    4.9069    9.3495   11.4437 C   0  0  0  0  0  0  0  0  0  0  0  0
    5.0746    9.6751   12.6694 O   0  0  0  0  0  0  0  0  0  0  0  0
    3.8370    8.3924   11.1583 C   0  0  0  0  0  0  0  0  0  0  0  0
    2.6235    8.5214   12.0463 C   0  0  0  0  0  0  0  0  0  0  0  0
    2.1209    7.0674   11.9816 C   0  0  0  0  0  0  0  0  0  0  0  0
    3.4451    6.3548   12.0231 C   0  0  0  0  0  0  0  0  0  0  0  0
    4.2423    7.0908   11.1884 O   0  0  0  0  0  0  0  0  0  0  0  0
    3.3591    4.9784   11.6303 N   0  0  0  0  0  0  0  0  0  0  0  0
    3.8844    4.4778   10.4985 C   0  0  0  0  0  0  0  0  0  0  0  0
    3.6420    3.1691   10.3993 N   0  0  0  0  0  0  0  0  0  0  0  0
    2.9413    2.7895   11.4862 C   0  0  0  0  0  0  0  0  0  0  0  0
    2.4189    1.5902   11.9256 C   0  0  0  0  0  0  0  0  0  0  0  0
    1.7594    1.5655   13.0817 N   0  0  0  0  0  0  0  0  0  0  0  0
    1.5813    2.6756   13.8451 C   0  0  0  0  0  0  0  0  0  0  0  0
    2.0985    3.8248   13.3951 N   0  0  0  0  0  0  0  0  0  0  0  0
    2.7777    3.9404   12.2407 C   0  0  0  0  0  0  0  0  0  0  0  0
    0.8295    2.5776   15.1138 C   0  0  0  0  0  0  0  0  0  0  0  0
    0.2322    1.5170   15.4096 O   0  0  0  0  0  0  0  0  0  0  0  0
    0.7732    3.6719   16.0097 N   0  0  0  0  0  0  0  0  0  0  0  0
   -0.4785    4.3933   16.2604 C   0  0  0  0  0  0  0  0  0  0  0  0
   -0.6472    4.6399   17.7452 C   0  0  0  0  0  0  0  0  0  0  0  0
    0.5993    5.1164   18.2791 N   0  0  0  0  0  0  0  0  0  0  0  0
    1.0305    6.4650   18.2907 C   0  0  0  0  0  0  0  0  0  0  0  0
    0.3156    7.3378   17.7823 O   0  0  0  0  0  0  0  0  0  0  0  0
    2.2634    6.8185   18.8750 N   0  0  0  0  0  0  0  0  0  0  0  0
    2.6705    8.1984   19.0852 C   0  0  0  0  0  0  0  0  0  0  0  0
    3.8398    8.3068   20.0558 C   0  0  0  0  0  0  0  0  0  0  0  0
    4.9150    7.3311   19.6594 C   0  0  0  0  0  0  0  0  0  0  0  0
    5.1788    7.5176   18.2236 N   0  0  0  0  0  0  0  0  0  0  0  0
    4.6655    8.7085   17.6338 C   0  0  0  0  0  0  0  0  0  0  0  0
    3.1555    8.7759   17.7765 C   0  0  0  0  0  0  0  0  0  0  0  0
    5.9116    6.5156   17.5490 C   0  0  0  0  0  0  0  0  0  0  0  0
    6.2407    6.6123   16.2226 C   0  0  0  0  0  0  0  0  0  0  0  0
    6.9675    5.5709   15.6395 C   0  0  0  0  0  0  0  0  0  0  0  0
    7.3503    4.4755   16.3548 C   0  0  0  0  0  0  0  0  0  0  0  0
    7.0049    4.4099   17.6799 C   0  0  0  0  0  0  0  0  0  0  0  0
    6.3121    5.4057   18.2302 N   0  0  0  0  0  0  0  0  0  0  0  0
    2.5792    0.4027   11.1597 N   0  0  0  0  0  0  0  0  0  0  0  0
    1.8723   -0.7662   11.5271 C   0  0  0  0  0  0  0  0  0  0  0  0
    2.3660   -1.5498   12.6799 C   0  0  0  0  0  0  0  0  0  0  0  0
    1.5651   -2.6856   13.1174 C   0  0  0  0  0  0  0  0  0  0  0  0
    2.0785   -3.7510   13.8148 C   0  0  0  0  0  0  0  0  0  0  0  0
    1.2083   -4.7615   14.1771 C   0  0  0  0  0  0  0  0  0  0  0  0
   -0.1317   -4.7171   13.8570 C   0  0  0  0  0  0  0  0  0  0  0  0
   -0.6653   -3.6534   13.1557 C   0  0  0  0  0  0  0  0  0  0  0  0
    0.2027   -2.6555   12.8002 C   0  0  0  0  0  0  0  0  0  0  0  0
    3.7232   -2.0969   12.3175 C   0  0  0  0  0  0  0  0  0  0  0  0
    3.8735   -3.2080   11.5163 C   0  0  0  0  0  0  0  0  0  0  0  0
    5.1338   -3.6362   11.2159 C   0  0  0  0  0  0  0  0  0  0  0  0
    6.2483   -2.9853   11.6934 C   0  0  0  0  0  0  0  0  0  0  0  0
    6.1109   -1.8873   12.4849 C   0  0  0  0  0  0  0  0  0  0  0  0
    4.8238   -1.4363   12.8013 C   0  0  0  0  0  0  0  0  0  0  0  0
    1.3293    6.8103   13.0727 O   0  0  0  0  0  0  0  0  0  0  0  0
    1.6770    9.3468   11.4944 O   0  0  0  0  0  0  0  0  0  0  0  0
  1  2  1  0
  2  3  1  0
  3  4  1  0
  4  5  2  0
  4  6  1  0
  6  7  1  0
  7  8  1  0
  8  9  1  0
  9 10  1  0
  9 11  1  0
 11 12  1  0
 12 13  2  0
 13 14  1  0
 14 15  2  0
 15 16  1  0
 16 17  2  0
 17 18  1  0
 18 19  2  0
 17 20  1  0
 20 21  2  0
 20 22  1  0
 22 23  1  0
 23 24  1  0
 24 25  1  0
 25 26  1  0
 26 27  2  0
 26 28  1  0
 28 29  1  0
 29 30  1  0
 30 31  1  0
 31 32  1  0
 32 33  1  0
 33 34  1  0
 32 35  1  0
 35 36  2  0
 36 37  1  0
 37 38  2  0
 38 39  1  0
 39 40  2  0
 15 41  1  0
 41 42  1  0
 42 43  1  0
 43 44  1  0
 44 45  2  0
 45 46  1  0
 46 47  2  0
 47 48  1  0
 48 49  2  0
 43 50  1  0
 50 51  2  0
 51 52  1  0
 52 53  2  0
 53 54  1  0
 54 55  2  0
  8 56  1  0
  7 57  1  0
 10  6  1  0
 19 11  1  0
 19 14  1  0
 34 29  1  0
 40 35  1  0
 49 44  1  0
 55 50  1  0
M  END
$$$$
