
     RDKit          3D

 57 63  0  0  0  0  0  0  0  0999 V2000
   -6.5607    6.6815   12.3579 C   0  0  0  0  0  0  0  0  0  0  0  0
   -5.6518    6.3293   13.5165 C   0  0  0  0  0  0  0  0  0  0  0  0
   -4.2760    6.2864   13.0753 N   0  0  0  0  0  0  0  0  0  0  0  0
   -3.7347    5.1392   12.4760 C   0  0  0  0  0  0  0  0  0  0  0  0
   -4.4945    4.1179   12.3485 O   0  0  0  0  0  0  0  0  0  0  0  0
   -2.3645    5.0052   11.9793 C   0  0  0  0  0  0  0  0  0  0  0  0
   -2.0151    5.9296   10.8387 C   0  0  0  0  0  0  0  0  0  0  0  0
   -0.9203    5.0809   10.1664 C   0  0  0  0  0  0  0  0  0  0  0  0
   -1.5388    3.7195   10.3304 C   0  0  0  0  0  0  0  0  0  0  0  0
   -2.0380    3.7352   11.6050 O   0  0  0  0  0  0  0  0  0  0  0  0
   -0.6112    2.6474   10.1155 N   0  0  0  0  0  0  0  0  0  0  0  0
   -0.6603    1.7983    9.0743 C   0  0  0  0  0  0  0  0  0  0  0  0
    0.3276    0.9036    9.1426 N   0  0  0  0  0  0  0  0  0  0  0  0
    1.0498    1.1609   10.2511 C   0  0  0  0  0  0  0  0  0  0  0  0
    2.1620    0.5865   10.8317 C   0  0  0  0  0  0  0  0  0  0  0  0
    2.6327    1.1058   11.9635 N   0  0  0  0  0  0  0  0  0  0  0  0
    2.0598    2.1795   12.5682 C   0  0  0  0  0  0  0  0  0  0  0  0
    0.9827    2.7167   11.9834 N   0  0  0  0  0  0  0  0  0  0  0  0
    0.4415    2.2570   10.8419 C   0  0  0  0  0  0  0  0  0  0  0  0
    2.6293    2.6983   13.8296 C   0  0  0  0  0  0  0  0  0  0  0  0
    3.7554    2.3094   14.2170 O   0  0  0  0  0  0  0  0  0  0  0  0
    1.9178    3.6369   14.6144 N   0  0  0  0  0  0  0  0  0  0  0  0
    2.1040    3.7191   16.0666 C   0  0  0  0  0  0  0  0  0  0  0  0
    1.2296    4.8143   16.6409 C   0  0  0  0  0  0  0  0  0  0  0  0
    1.9666    6.0482   16.6288 N   0  0  0  0  0  0  0  0  0  0  0  0
    1.4574    7.3173   16.9963 C   0  0  0  0  0  0  0  0  0  0  0  0
    0.2623    7.4308   17.2968 O   0  0  0  0  0  0  0  0  0  0  0  0
    2.2992    8.4475   17.0223 N   0  0  0  0  0  0  0  0  0  0  0  0
    1.7984    9.8008   17.1995 C   0  0  0  0  0  0  0  0  0  0  0  0
    1.9850   10.2958   18.6283 C   0  0  0  0  0  0  0  0  0  0  0  0
    3.3973   10.0272   19.0735 C   0  0  0  0  0  0  0  0  0  0  0  0
    4.2991   10.5437   18.0315 N   0  0  0  0  0  0  0  0  0  0  0  0
    3.7212   11.4237   17.0718 C   0  0  0  0  0  0  0  0  0  0  0  0
    2.5914   10.7406   16.3222 C   0  0  0  0  0  0  0  0  0  0  0  0
    5.6509   10.1339   18.0625 C   0  0  0  0  0  0  0  0  0  0  0  0
    6.4886   10.2807   16.9884 C   0  0  0  0  0  0  0  0  0  0  0  0
    7.8107    9.8451   17.1112 C   0  0  0  0  0  0  0  0  0  0  0  0
    8.2769    9.2846   18.2628 C   0  0  0  0  0  0  0  0  0  0  0  0
    7.4128    9.1523   19.3189 C   0  0  0  0  0  0  0  0  0  0  0  0
    6.1536    9.5694   19.1960 N   0  0  0  0  0  0  0  0  0  0  0  0
    2.7943   -0.5393   10.2355 N   0  0  0  0  0  0  0  0  0  0  0  0
    3.8838   -1.1577   10.8925 C   0  0  0  0  0  0  0  0  0  0  0  0
    5.1319   -1.3715   10.1288 C   0  0  0  0  0  0  0  0  0  0  0  0
    5.8074   -0.1958    9.5957 C   0  0  0  0  0  0  0  0  0  0  0  0
    6.6336   -0.2285    8.4996 C   0  0  0  0  0  0  0  0  0  0  0  0
    7.2073    0.9607    8.0914 C   0  0  0  0  0  0  0  0  0  0  0  0
    6.9691    2.1474    8.7509 C   0  0  0  0  0  0  0  0  0  0  0  0
    6.1410    2.1988    9.8553 C   0  0  0  0  0  0  0  0  0  0  0  0
    5.5757    1.0169   10.2540 C   0  0  0  0  0  0  0  0  0  0  0  0
    6.1184   -2.0556   11.0407 C   0  0  0  0  0  0  0  0  0  0  0  0
    6.0751   -1.9043   12.4097 C   0  0  0  0  0  0  0  0  0  0  0  0
    6.9902   -2.5683   13.1737 C   0  0  0  0  0  0  0  0  0  0  0  0
    7.9474   -3.3793   12.6082 C   0  0  0  0  0  0  0  0  0  0  0  0
    7.9986   -3.5357   11.2577 C   0  0  0  0  0  0  0  0  0  0  0  0
    7.0658   -2.8608   10.4612 C   0  0  0  0  0  0  0  0  0  0  0  0
   -0.7875    5.4647    8.8554 O   0  0  0  0  0  0  0  0  0  0  0  0
   -1.4603    7.1011   11.2876 O   0  0  0  0  0  0  0  0  0  0  0  0
  1  2  1  0
  2  3  1  0
  3  4  1  0
  4  5  2  0
  4  6  1  0
  6  7  1  0
  7  8  1  0
  8  9  1  0
  9 10  1  0
  9 11  1  0
 11 12  1  0
 12 13  2  0
 13 14  1  0
 14 15  2  0
 15 16  1  0
 16 17  2  0
 17 18  1  0
 18 19  2  0
 17 20  1  0
 20 21  2  0
 20 22  1  0
 22 23  1  0
 23 24  1  0
 24 25  1  0
 25 26  1  0
 26 27  2  0
 26 28  1  0
 28 29  1  0
 29 30  1  0
 30 31  1  0
 31 32  1  0
 32 33  1  0
 33 34  1  0
 32 35  1  0
 35 36  2  0
 36 37  1  0
 37 38  2  0
 38 39  1  0
 39 40  2  0
 15 41  1  0
 41 42  1  0
 42 43  1  0
 43 44  1  0
 44 45  2  0
 45 46  1  0
 46 47  2  0
 47 48  1  0
 48 49  2  0
 43 50  1  0
 50 51  2  0
 51 52  1  0
 52 53  2  0
 53 54  1  0
 54 55  2  0
  8 56  1  0
  7 57  1  0
 10  6  1  0
 19 11  1  0
 19 14  1  0
 34 29  1  0
 40 35  1  0
 49 44  1  0
 55 50  1  0
M  END
$$$$
