
     RDKit          3D

 57 63  0  0  0  0  0  0  0  0999 V2000
    6.8900    0.5955   15.5194 C   0  0  0  0  0  0  0  0  0  0  0  0
    6.5193   -0.5976   14.6640 C   0  0  0  0  0  0  0  0  0  0  0  0
    5.2561   -0.3627   14.0018 N   0  0  0  0  0  0  0  0  0  0  0  0
    5.0998   -0.5806   12.6247 C   0  0  0  0  0  0  0  0  0  0  0  0
    6.0996   -1.0471   11.9773 O   0  0  0  0  0  0  0  0  0  0  0  0
    3.8828   -0.3184   11.8551 C   0  0  0  0  0  0  0  0  0  0  0  0
    3.7956   -1.0595   10.5433 C   0  0  0  0  0  0  0  0  0  0  0  0
    2.8951   -0.0781    9.7706 C   0  0  0  0  0  0  0  0  0  0  0  0
    3.4744    1.2187   10.2664 C   0  0  0  0  0  0  0  0  0  0  0  0
    3.6658    1.0043   11.6048 O   0  0  0  0  0  0  0  0  0  0  0  0
    2.6335    2.3503   10.0047 N   0  0  0  0  0  0  0  0  0  0  0  0
    2.0553    2.6082    8.8186 C   0  0  0  0  0  0  0  0  0  0  0  0
    1.3357    3.7308    8.8739 N   0  0  0  0  0  0  0  0  0  0  0  0
    1.4358    4.2315   10.1213 C   0  0  0  0  0  0  0  0  0  0  0  0
    0.9237    5.3438   10.7573 C   0  0  0  0  0  0  0  0  0  0  0  0
    1.2311    5.5470   12.0365 N   0  0  0  0  0  0  0  0  0  0  0  0
    2.0295    4.7012   12.7392 C   0  0  0  0  0  0  0  0  0  0  0  0
    2.5122    3.6305   12.0977 N   0  0  0  0  0  0  0  0  0  0  0  0
    2.2533    3.3487   10.8090 C   0  0  0  0  0  0  0  0  0  0  0  0
    2.3380    4.9935   14.1548 C   0  0  0  0  0  0  0  0  0  0  0  0
    3.3288    4.4596   14.7049 O   0  0  0  0  0  0  0  0  0  0  0  0
    1.5259    5.8759   14.9066 N   0  0  0  0  0  0  0  0  0  0  0  0
    2.0841    6.7033   15.9808 C   0  0  0  0  0  0  0  0  0  0  0  0
    2.0291    5.9536   17.2956 C   0  0  0  0  0  0  0  0  0  0  0  0
    3.3692    5.6197   17.6937 N   0  0  0  0  0  0  0  0  0  0  0  0
    3.8428    5.5568   19.0266 C   0  0  0  0  0  0  0  0  0  0  0  0
    3.0465    5.6964   19.9635 O   0  0  0  0  0  0  0  0  0  0  0  0
    5.2094    5.3369   19.2923 N   0  0  0  0  0  0  0  0  0  0  0  0
    5.7999    5.5349   20.6060 C   0  0  0  0  0  0  0  0  0  0  0  0
    5.8980    4.2321   21.3898 C   0  0  0  0  0  0  0  0  0  0  0  0
    6.5096    3.1666   20.5204 C   0  0  0  0  0  0  0  0  0  0  0  0
    7.7387    3.7226   19.9319 N   0  0  0  0  0  0  0  0  0  0  0  0
    8.2410    4.9172   20.5235 C   0  0  0  0  0  0  0  0  0  0  0  0
    7.2160    6.0342   20.4417 C   0  0  0  0  0  0  0  0  0  0  0  0
    8.3193    3.0381   18.8408 C   0  0  0  0  0  0  0  0  0  0  0  0
    9.4657    3.4701   18.2276 C   0  0  0  0  0  0  0  0  0  0  0  0
    9.9665    2.7283   17.1544 C   0  0  0  0  0  0  0  0  0  0  0  0
    9.3452    1.5988   16.7116 C   0  0  0  0  0  0  0  0  0  0  0  0
    8.2000    1.1938   17.3472 C   0  0  0  0  0  0  0  0  0  0  0  0
    7.7274    1.9049   18.3697 N   0  0  0  0  0  0  0  0  0  0  0  0
    0.0847    6.2576   10.0620 N   0  0  0  0  0  0  0  0  0  0  0  0
   -0.3483    7.4390   10.7083 C   0  0  0  0  0  0  0  0  0  0  0  0
   -1.3715    7.3217   11.7695 C   0  0  0  0  0  0  0  0  0  0  0  0
   -1.5007    8.4284   12.7084 C   0  0  0  0  0  0  0  0  0  0  0  0
   -0.6967    8.5848   13.8104 C   0  0  0  0  0  0  0  0  0  0  0  0
   -0.9195    9.6841   14.6177 C   0  0  0  0  0  0  0  0  0  0  0  0
   -1.9105   10.6012   14.3407 C   0  0  0  0  0  0  0  0  0  0  0  0
   -2.7286   10.4595   13.2367 C   0  0  0  0  0  0  0  0  0  0  0  0
   -2.5021    9.3682   12.4411 C   0  0  0  0  0  0  0  0  0  0  0  0
   -2.7136    7.1690   11.1002 C   0  0  0  0  0  0  0  0  0  0  0  0
   -2.8820    7.3631    9.7464 C   0  0  0  0  0  0  0  0  0  0  0  0
   -4.1233    7.1902    9.2068 C   0  0  0  0  0  0  0  0  0  0  0  0
   -5.2014    6.8287    9.9820 C   0  0  0  0  0  0  0  0  0  0  0  0
   -5.0459    6.6343   11.3195 C   0  0  0  0  0  0  0  0  0  0  0  0
   -3.7778    6.8078   11.8870 C   0  0  0  0  0  0  0  0  0  0  0  0
    3.0641   -0.2702    8.4223 O   0  0  0  0  0  0  0  0  0  0  0  0
    3.1390   -2.2561   10.6798 O   0  0  0  0  0  0  0  0  0  0  0  0
  1  2  1  0
  2  3  1  0
  3  4  1  0
  4  5  2  0
  4  6  1  0
  6  7  1  0
  7  8  1  0
  8  9  1  0
  9 10  1  0
  9 11  1  0
 11 12  1  0
 12 13  2  0
 13 14  1  0
 14 15  2  0
 15 16  1  0
 16 17  2  0
 17 18  1  0
 18 19  2  0
 17 20  1  0
 20 21  2  0
 20 22  1  0
 22 23  1  0
 23 24  1  0
 24 25  1  0
 25 26  1  0
 26 27  2  0
 26 28  1  0
 28 29  1  0
 29 30  1  0
 30 31  1  0
 31 32  1  0
 32 33  1  0
 33 34  1  0
 32 35  1  0
 35 36  2  0
 36 37  1  0
 37 38  2  0
 38 39  1  0
 39 40  2  0
 15 41  1  0
 41 42  1  0
 42 43  1  0
 43 44  1  0
 44 45  2  0
 45 46  1  0
 46 47  2  0
 47 48  1  0
 48 49  2  0
 43 50  1  0
 50 51  2  0
 51 52  1  0
 52 53  2  0
 53 54  1  0
 54 55  2  0
  8 56  1  0
  7 57  1  0
 10  6  1  0
 19 11  1  0
 19 14  1  0
 34 29  1  0
 40 35  1  0
 49 44  1  0
 55 50  1  0
M  END
$$$$
