
     RDKit          3D

 57 63  0  0  0  0  0  0  0  0999 V2000
    2.2345    1.5787    3.6491 C   0  0  0  0  0  0  0  0  0  0  0  0
    2.4995    0.3939    4.5539 C   0  0  0  0  0  0  0  0  0  0  0  0
    2.5823    0.8269    5.9304 N   0  0  0  0  0  0  0  0  0  0  0  0
    1.8777    0.1677    6.9489 C   0  0  0  0  0  0  0  0  0  0  0  0
    0.6814   -0.2099    6.6986 O   0  0  0  0  0  0  0  0  0  0  0  0
    2.3945   -0.1289    8.2858 C   0  0  0  0  0  0  0  0  0  0  0  0
    1.3849   -0.7325    9.2314 C   0  0  0  0  0  0  0  0  0  0  0  0
    1.9826   -0.2474   10.5650 C   0  0  0  0  0  0  0  0  0  0  0  0
    2.4120    1.1323   10.1466 C   0  0  0  0  0  0  0  0  0  0  0  0
    2.9605    0.9454    8.9063 O   0  0  0  0  0  0  0  0  0  0  0  0
    3.3265    1.7432   11.0667 N   0  0  0  0  0  0  0  0  0  0  0  0
    4.6653    1.6717   10.9664 C   0  0  0  0  0  0  0  0  0  0  0  0
    5.2535    2.3309   11.9668 N   0  0  0  0  0  0  0  0  0  0  0  0
    4.2881    2.8523   12.7496 C   0  0  0  0  0  0  0  0  0  0  0  0
    4.2869    3.6129   13.9009 C   0  0  0  0  0  0  0  0  0  0  0  0
    3.1187    3.9677   14.4316 N   0  0  0  0  0  0  0  0  0  0  0  0
    1.9282    3.6095   13.8829 C   0  0  0  0  0  0  0  0  0  0  0  0
    1.9589    2.8721   12.7665 N   0  0  0  0  0  0  0  0  0  0  0  0
    3.0915    2.4701   12.1643 C   0  0  0  0  0  0  0  0  0  0  0  0
    0.6683    4.0301   14.5310 C   0  0  0  0  0  0  0  0  0  0  0  0
   -0.4316    3.7875   13.9825 O   0  0  0  0  0  0  0  0  0  0  0  0
    0.6830    4.7079   15.7734 N   0  0  0  0  0  0  0  0  0  0  0  0
   -0.5532    4.9739   16.5158 C   0  0  0  0  0  0  0  0  0  0  0  0
   -1.0318    6.3839   16.2392 C   0  0  0  0  0  0  0  0  0  0  0  0
    0.0874    7.2800   16.3401 N   0  0  0  0  0  0  0  0  0  0  0  0
    0.1958    8.3669   17.2411 C   0  0  0  0  0  0  0  0  0  0  0  0
   -0.6940    8.5537   18.0806 O   0  0  0  0  0  0  0  0  0  0  0  0
    1.3059    9.2338   17.1885 N   0  0  0  0  0  0  0  0  0  0  0  0
    1.1984   10.6677   17.4034 C   0  0  0  0  0  0  0  0  0  0  0  0
    1.3360   11.0361   18.8753 C   0  0  0  0  0  0  0  0  0  0  0  0
    2.5419   10.3477   19.4558 C   0  0  0  0  0  0  0  0  0  0  0  0
    3.6796   10.6110   18.5601 N   0  0  0  0  0  0  0  0  0  0  0  0
    3.5075   11.6548   17.6061 C   0  0  0  0  0  0  0  0  0  0  0  0
    2.3340   11.3615   16.6886 C   0  0  0  0  0  0  0  0  0  0  0  0
    4.8402    9.8199   18.7132 C   0  0  0  0  0  0  0  0  0  0  0  0
    5.1401    9.1727   19.8829 C   0  0  0  0  0  0  0  0  0  0  0  0
    6.3114    8.4129   19.9417 C   0  0  0  0  0  0  0  0  0  0  0  0
    7.1501    8.3044   18.8728 C   0  0  0  0  0  0  0  0  0  0  0  0
    6.8208    8.9645   17.7172 C   0  0  0  0  0  0  0  0  0  0  0  0
    5.7029    9.6873   17.6671 N   0  0  0  0  0  0  0  0  0  0  0  0
    5.5083    4.0103   14.5116 N   0  0  0  0  0  0  0  0  0  0  0  0
    5.4934    4.9936   15.5283 C   0  0  0  0  0  0  0  0  0  0  0  0
    5.3353    4.5491   16.9298 C   0  0  0  0  0  0  0  0  0  0  0  0
    6.2197    5.1356   17.9282 C   0  0  0  0  0  0  0  0  0  0  0  0
    6.7516    6.3969   17.8218 C   0  0  0  0  0  0  0  0  0  0  0  0
    7.5713    6.8371   18.8437 C   0  0  0  0  0  0  0  0  0  0  0  0
    7.8555    6.0497   19.9387 C   0  0  0  0  0  0  0  0  0  0  0  0
    7.3293    4.7784   20.0622 C   0  0  0  0  0  0  0  0  0  0  0  0
    6.5178    4.3489   19.0462 C   0  0  0  0  0  0  0  0  0  0  0  0
    3.9277    4.8747   17.3603 C   0  0  0  0  0  0  0  0  0  0  0  0
    3.1276    5.7422   16.6487 C   0  0  0  0  0  0  0  0  0  0  0  0
    1.8574    5.9761   17.0888 C   0  0  0  0  0  0  0  0  0  0  0  0
    1.3639    5.3674   18.2201 C   0  0  0  0  0  0  0  0  0  0  0  0
    2.1455    4.5091   18.9297 C   0  0  0  0  0  0  0  0  0  0  0  0
    3.4509    4.2594   18.4898 C   0  0  0  0  0  0  0  0  0  0  0  0
    1.0049   -0.2452   11.5281 O   0  0  0  0  0  0  0  0  0  0  0  0
    1.4169   -2.1035    9.1994 O   0  0  0  0  0  0  0  0  0  0  0  0
  1  2  1  0
  2  3  1  0
  3  4  1  0
  4  5  2  0
  4  6  1  0
  6  7  1  0
  7  8  1  0
  8  9  1  0
  9 10  1  0
  9 11  1  0
 11 12  1  0
 12 13  2  0
 13 14  1  0
 14 15  2  0
 15 16  1  0
 16 17  2  0
 17 18  1  0
 18 19  2  0
 17 20  1  0
 20 21  2  0
 20 22  1  0
 22 23  1  0
 23 24  1  0
 24 25  1  0
 25 26  1  0
 26 27  2  0
 26 28  1  0
 28 29  1  0
 29 30  1  0
 30 31  1  0
 31 32  1  0
 32 33  1  0
 33 34  1  0
 32 35  1  0
 35 36  2  0
 36 37  1  0
 37 38  2  0
 38 39  1  0
 39 40  2  0
 15 41  1  0
 41 42  1  0
 42 43  1  0
 43 44  1  0
 44 45  2  0
 45 46  1  0
 46 47  2  0
 47 48  1  0
 48 49  2  0
 43 50  1  0
 50 51  2  0
 51 52  1  0
 52 53  2  0
 53 54  1  0
 54 55  2  0
  8 56  1  0
  7 57  1  0
 10  6  1  0
 19 11  1  0
 19 14  1  0
 34 29  1  0
 40 35  1  0
 49 44  1  0
 55 50  1  0
M  END
$$$$
