
     RDKit          3D

 57 63  0  0  0  0  0  0  0  0999 V2000
    5.3741   -0.8225    5.6953 C   0  0  0  0  0  0  0  0  0  0  0  0
    3.9055   -0.7644    6.0593 C   0  0  0  0  0  0  0  0  0  0  0  0
    3.7502   -0.6975    7.4948 N   0  0  0  0  0  0  0  0  0  0  0  0
    3.4351    0.5068    8.1418 C   0  0  0  0  0  0  0  0  0  0  0  0
    3.6212    1.5963    7.4978 O   0  0  0  0  0  0  0  0  0  0  0  0
    2.9079    0.6289    9.5017 C   0  0  0  0  0  0  0  0  0  0  0  0
    1.6760    1.4921    9.6242 C   0  0  0  0  0  0  0  0  0  0  0  0
    1.8497    1.9557   11.0822 C   0  0  0  0  0  0  0  0  0  0  0  0
    3.3405    2.1566   11.0932 C   0  0  0  0  0  0  0  0  0  0  0  0
    3.8242    1.0748   10.4078 O   0  0  0  0  0  0  0  0  0  0  0  0
    3.8873    2.2606   12.4147 N   0  0  0  0  0  0  0  0  0  0  0  0
    4.4728    1.2469   13.0758 C   0  0  0  0  0  0  0  0  0  0  0  0
    4.8801    1.6394   14.2847 N   0  0  0  0  0  0  0  0  0  0  0  0
    4.5600    2.9402   14.4327 C   0  0  0  0  0  0  0  0  0  0  0  0
    4.7243    3.8641   15.4444 C   0  0  0  0  0  0  0  0  0  0  0  0
    4.2766    5.1037   15.2571 N   0  0  0  0  0  0  0  0  0  0  0  0
    3.6643    5.4935   14.1082 C   0  0  0  0  0  0  0  0  0  0  0  0
    3.5184    4.5772   13.1438 N   0  0  0  0  0  0  0  0  0  0  0  0
    3.9399    3.3049   13.2482 C   0  0  0  0  0  0  0  0  0  0  0  0
    3.1825    6.8840   13.9718 C   0  0  0  0  0  0  0  0  0  0  0  0
    2.8008    7.3100   12.8572 O   0  0  0  0  0  0  0  0  0  0  0  0
    3.1435    7.7509   15.0899 N   0  0  0  0  0  0  0  0  0  0  0  0
    2.2324    8.8988   15.1380 C   0  0  0  0  0  0  0  0  0  0  0  0
    1.1930    8.6917   16.2199 C   0  0  0  0  0  0  0  0  0  0  0  0
    0.0244    8.0977   15.6305 N   0  0  0  0  0  0  0  0  0  0  0  0
   -1.2490    8.7083   15.5273 C   0  0  0  0  0  0  0  0  0  0  0  0
   -1.4182    9.8460   15.9837 O   0  0  0  0  0  0  0  0  0  0  0  0
   -2.3206    8.0317   14.9105 N   0  0  0  0  0  0  0  0  0  0  0  0
   -3.6737    8.5625   14.8754 C   0  0  0  0  0  0  0  0  0  0  0  0
   -4.3492    8.3148   13.5325 C   0  0  0  0  0  0  0  0  0  0  0  0
   -4.1714    6.8733   13.1380 C   0  0  0  0  0  0  0  0  0  0  0  0
   -4.5728    6.0443   14.2859 N   0  0  0  0  0  0  0  0  0  0  0  0
   -5.3112    6.6987   15.3135 C   0  0  0  0  0  0  0  0  0  0  0  0
   -4.5131    7.8459   15.9067 C   0  0  0  0  0  0  0  0  0  0  0  0
   -4.2013    4.6812   14.2807 C   0  0  0  0  0  0  0  0  0  0  0  0
   -4.4875    3.8370   15.3211 C   0  0  0  0  0  0  0  0  0  0  0  0
   -4.0796    2.5038   15.2280 C   0  0  0  0  0  0  0  0  0  0  0  0
   -3.4115    2.0329   14.1372 C   0  0  0  0  0  0  0  0  0  0  0  0
   -3.1409    2.9037   13.1135 C   0  0  0  0  0  0  0  0  0  0  0  0
   -3.5323    4.1735   13.2079 N   0  0  0  0  0  0  0  0  0  0  0  0
    5.3580    3.5015   16.6648 N   0  0  0  0  0  0  0  0  0  0  0  0
    5.5275    4.4727   17.6793 C   0  0  0  0  0  0  0  0  0  0  0  0
    6.6547    5.4222   17.5582 C   0  0  0  0  0  0  0  0  0  0  0  0
    6.3840    6.8292   17.8230 C   0  0  0  0  0  0  0  0  0  0  0  0
    7.2843    7.8345   17.5704 C   0  0  0  0  0  0  0  0  0  0  0  0
    6.8996    9.1297   17.8606 C   0  0  0  0  0  0  0  0  0  0  0  0
    5.6587    9.4195   18.3862 C   0  0  0  0  0  0  0  0  0  0  0  0
    4.7407    8.4208   18.6469 C   0  0  0  0  0  0  0  0  0  0  0  0
    5.1285    7.1399   18.3566 C   0  0  0  0  0  0  0  0  0  0  0  0
    7.7203    4.9994   18.5371 C   0  0  0  0  0  0  0  0  0  0  0  0
    7.4415    4.7679   19.8667 C   0  0  0  0  0  0  0  0  0  0  0  0
    8.4536    4.3706   20.6911 C   0  0  0  0  0  0  0  0  0  0  0  0
    9.7367    4.1980   20.2245 C   0  0  0  0  0  0  0  0  0  0  0  0
   10.0225    4.4236   18.9136 C   0  0  0  0  0  0  0  0  0  0  0  0
    8.9938    4.8314   18.0558 C   0  0  0  0  0  0  0  0  0  0  0  0
    1.1422    3.1151   11.2787 O   0  0  0  0  0  0  0  0  0  0  0  0
    0.5259    0.7511    9.5245 O   0  0  0  0  0  0  0  0  0  0  0  0
  1  2  1  0
  2  3  1  0
  3  4  1  0
  4  5  2  0
  4  6  1  0
  6  7  1  0
  7  8  1  0
  8  9  1  0
  9 10  1  0
  9 11  1  0
 11 12  1  0
 12 13  2  0
 13 14  1  0
 14 15  2  0
 15 16  1  0
 16 17  2  0
 17 18  1  0
 18 19  2  0
 17 20  1  0
 20 21  2  0
 20 22  1  0
 22 23  1  0
 23 24  1  0
 24 25  1  0
 25 26  1  0
 26 27  2  0
 26 28  1  0
 28 29  1  0
 29 30  1  0
 30 31  1  0
 31 32  1  0
 32 33  1  0
 33 34  1  0
 32 35  1  0
 35 36  2  0
 36 37  1  0
 37 38  2  0
 38 39  1  0
 39 40  2  0
 15 41  1  0
 41 42  1  0
 42 43  1  0
 43 44  1  0
 44 45  2  0
 45 46  1  0
 46 47  2  0
 47 48  1  0
 48 49  2  0
 43 50  1  0
 50 51  2  0
 51 52  1  0
 52 53  2  0
 53 54  1  0
 54 55  2  0
  8 56  1  0
  7 57  1  0
 10  6  1  0
 19 11  1  0
 19 14  1  0
 34 29  1  0
 40 35  1  0
 49 44  1  0
 55 50  1  0
M  END
$$$$
