
     RDKit          3D

 57 63  0  0  0  0  0  0  0  0999 V2000
    1.0160   -3.3998    6.9370 C   0  0  0  0  0  0  0  0  0  0  0  0
    1.8295   -2.1585    6.6370 C   0  0  0  0  0  0  0  0  0  0  0  0
    2.3302   -1.5823    7.8644 N   0  0  0  0  0  0  0  0  0  0  0  0
    1.4819   -0.9100    8.7571 C   0  0  0  0  0  0  0  0  0  0  0  0
    0.3429   -0.5238    8.3213 O   0  0  0  0  0  0  0  0  0  0  0  0
    1.7874   -0.6078   10.1562 C   0  0  0  0  0  0  0  0  0  0  0  0
    0.5876   -0.2521   10.9999 C   0  0  0  0  0  0  0  0  0  0  0  0
    1.2839    0.6349   12.0484 C   0  0  0  0  0  0  0  0  0  0  0  0
    2.2497    1.3558   11.1482 C   0  0  0  0  0  0  0  0  0  0  0  0
    2.7182    0.3760   10.3147 O   0  0  0  0  0  0  0  0  0  0  0  0
    3.3008    2.0198   11.8628 N   0  0  0  0  0  0  0  0  0  0  0  0
    4.5723    2.1067   11.4349 C   0  0  0  0  0  0  0  0  0  0  0  0
    5.3243    2.7773   12.3101 N   0  0  0  0  0  0  0  0  0  0  0  0
    4.5389    3.1448   13.3419 C   0  0  0  0  0  0  0  0  0  0  0  0
    4.7510    3.8412   14.5142 C   0  0  0  0  0  0  0  0  0  0  0  0
    3.7236    4.0330   15.3387 N   0  0  0  0  0  0  0  0  0  0  0  0
    2.4747    3.5695   15.0698 C   0  0  0  0  0  0  0  0  0  0  0  0
    2.2975    2.8978   13.9260 N   0  0  0  0  0  0  0  0  0  0  0  0
    3.2775    2.6586   13.0373 C   0  0  0  0  0  0  0  0  0  0  0  0
    1.3818    3.8103   16.0352 C   0  0  0  0  0  0  0  0  0  0  0  0
    0.2105    3.4637   15.7571 O   0  0  0  0  0  0  0  0  0  0  0  0
    1.6385    4.4306   17.2812 N   0  0  0  0  0  0  0  0  0  0  0  0
    0.5565    4.9990   18.0914 C   0  0  0  0  0  0  0  0  0  0  0  0
    0.7612    6.4903   18.2583 C   0  0  0  0  0  0  0  0  0  0  0  0
    0.3465    7.1516   17.0514 N   0  0  0  0  0  0  0  0  0  0  0  0
   -0.0172    8.5156   16.9408 C   0  0  0  0  0  0  0  0  0  0  0  0
    0.2733    9.2997   17.8530 O   0  0  0  0  0  0  0  0  0  0  0  0
   -0.7050    8.9842   15.8033 N   0  0  0  0  0  0  0  0  0  0  0  0
   -1.2889   10.3134   15.7260 C   0  0  0  0  0  0  0  0  0  0  0  0
   -0.3949   11.2862   14.9673 C   0  0  0  0  0  0  0  0  0  0  0  0
    0.0468   10.6586   13.6726 C   0  0  0  0  0  0  0  0  0  0  0  0
   -1.1531   10.1395   12.9967 N   0  0  0  0  0  0  0  0  0  0  0  0
   -2.4078   10.6026   13.4873 C   0  0  0  0  0  0  0  0  0  0  0  0
   -2.5836   10.2407   14.9512 C   0  0  0  0  0  0  0  0  0  0  0  0
   -0.9716    9.2346   11.9270 C   0  0  0  0  0  0  0  0  0  0  0  0
    0.2558    8.9928   11.3684 C   0  0  0  0  0  0  0  0  0  0  0  0
    0.3385    8.0812   10.3126 C   0  0  0  0  0  0  0  0  0  0  0  0
   -0.7628    7.4364    9.8340 C   0  0  0  0  0  0  0  0  0  0  0  0
   -1.9760    7.7008   10.4153 C   0  0  0  0  0  0  0  0  0  0  0  0
   -2.0487    8.5708   11.4214 N   0  0  0  0  0  0  0  0  0  0  0  0
    6.0412    4.3440   14.8385 N   0  0  0  0  0  0  0  0  0  0  0  0
    6.4151    4.4852   16.1954 C   0  0  0  0  0  0  0  0  0  0  0  0
    5.4731    5.1593   17.1147 C   0  0  0  0  0  0  0  0  0  0  0  0
    5.4916    4.7571   18.5150 C   0  0  0  0  0  0  0  0  0  0  0  0
    4.5482    5.1547   19.4300 C   0  0  0  0  0  0  0  0  0  0  0  0
    4.6771    4.6952   20.7269 C   0  0  0  0  0  0  0  0  0  0  0  0
    5.7112    3.8663   21.1057 C   0  0  0  0  0  0  0  0  0  0  0  0
    6.6691    3.4566   20.1986 C   0  0  0  0  0  0  0  0  0  0  0  0
    6.5351    3.9153   18.9153 C   0  0  0  0  0  0  0  0  0  0  0  0
    5.7806    6.6348   17.0888 C   0  0  0  0  0  0  0  0  0  0  0  0
    6.4255    7.2288   16.0256 C   0  0  0  0  0  0  0  0  0  0  0  0
    6.6551    8.5733   16.0639 C   0  0  0  0  0  0  0  0  0  0  0  0
    6.2583    9.3413   17.1347 C   0  0  0  0  0  0  0  0  0  0  0  0
    5.6207    8.7647   18.1893 C   0  0  0  0  0  0  0  0  0  0  0  0
    5.3781    7.3862   18.1636 C   0  0  0  0  0  0  0  0  0  0  0  0
    0.3581    1.4644   12.6300 O   0  0  0  0  0  0  0  0  0  0  0  0
    0.0624   -1.3547   11.6245 O   0  0  0  0  0  0  0  0  0  0  0  0
  1  2  1  0
  2  3  1  0
  3  4  1  0
  4  5  2  0
  4  6  1  0
  6  7  1  0
  7  8  1  0
  8  9  1  0
  9 10  1  0
  9 11  1  0
 11 12  1  0
 12 13  2  0
 13 14  1  0
 14 15  2  0
 15 16  1  0
 16 17  2  0
 17 18  1  0
 18 19  2  0
 17 20  1  0
 20 21  2  0
 20 22  1  0
 22 23  1  0
 23 24  1  0
 24 25  1  0
 25 26  1  0
 26 27  2  0
 26 28  1  0
 28 29  1  0
 29 30  1  0
 30 31  1  0
 31 32  1  0
 32 33  1  0
 33 34  1  0
 32 35  1  0
 35 36  2  0
 36 37  1  0
 37 38  2  0
 38 39  1  0
 39 40  2  0
 15 41  1  0
 41 42  1  0
 42 43  1  0
 43 44  1  0
 44 45  2  0
 45 46  1  0
 46 47  2  0
 47 48  1  0
 48 49  2  0
 43 50  1  0
 50 51  2  0
 51 52  1  0
 52 53  2  0
 53 54  1  0
 54 55  2  0
  8 56  1  0
  7 57  1  0
 10  6  1  0
 19 11  1  0
 19 14  1  0
 34 29  1  0
 40 35  1  0
 49 44  1  0
 55 50  1  0
M  END
$$$$
