
     RDKit          3D

 57 63  0  0  0  0  0  0  0  0999 V2000
    2.5437   -2.7013    4.6427 C   0  0  0  0  0  0  0  0  0  0  0  0
    1.3746   -1.9133    5.1950 C   0  0  0  0  0  0  0  0  0  0  0  0
    1.4484   -1.8574    6.6375 N   0  0  0  0  0  0  0  0  0  0  0  0
    1.8697   -0.6973    7.3046 C   0  0  0  0  0  0  0  0  0  0  0  0
    2.0984    0.3459    6.6004 O   0  0  0  0  0  0  0  0  0  0  0  0
    2.0733   -0.5732    8.7487 C   0  0  0  0  0  0  0  0  0  0  0  0
    0.8027   -0.4900    9.5588 C   0  0  0  0  0  0  0  0  0  0  0  0
    1.3362    0.3061   10.7640 C   0  0  0  0  0  0  0  0  0  0  0  0
    2.2432    1.2611   10.0371 C   0  0  0  0  0  0  0  0  0  0  0  0
    2.8663    0.4780    9.1029 O   0  0  0  0  0  0  0  0  0  0  0  0
    3.1709    1.9295   10.9024 N   0  0  0  0  0  0  0  0  0  0  0  0
    4.5048    1.7689   10.8542 C   0  0  0  0  0  0  0  0  0  0  0  0
    5.1078    2.5141   11.7828 N   0  0  0  0  0  0  0  0  0  0  0  0
    4.1575    3.1847   12.4637 C   0  0  0  0  0  0  0  0  0  0  0  0
    4.1749    4.0833   13.5108 C   0  0  0  0  0  0  0  0  0  0  0  0
    3.0181    4.5688   13.9560 N   0  0  0  0  0  0  0  0  0  0  0  0
    1.8216    4.2135   13.4187 C   0  0  0  0  0  0  0  0  0  0  0  0
    1.8341    3.3406   12.4044 N   0  0  0  0  0  0  0  0  0  0  0  0
    2.9542    2.8013   11.8930 C   0  0  0  0  0  0  0  0  0  0  0  0
    0.5744    4.7843   13.9693 C   0  0  0  0  0  0  0  0  0  0  0  0
   -0.5256    4.5311   13.4259 O   0  0  0  0  0  0  0  0  0  0  0  0
    0.6015    5.6193   15.1117 N   0  0  0  0  0  0  0  0  0  0  0  0
    0.0141    5.1936   16.3861 C   0  0  0  0  0  0  0  0  0  0  0  0
   -0.3928    6.4041   17.2003 C   0  0  0  0  0  0  0  0  0  0  0  0
    0.7704    7.2150   17.4357 N   0  0  0  0  0  0  0  0  0  0  0  0
    0.8277    8.3511   18.2789 C   0  0  0  0  0  0  0  0  0  0  0  0
    0.0698    9.3061   18.0669 O   0  0  0  0  0  0  0  0  0  0  0  0
    1.7382    8.4012   19.3535 N   0  0  0  0  0  0  0  0  0  0  0  0
    1.7894    9.5089   20.2937 C   0  0  0  0  0  0  0  0  0  0  0  0
    2.6019    9.1659   21.5360 C   0  0  0  0  0  0  0  0  0  0  0  0
    3.9162    8.5579   21.1258 C   0  0  0  0  0  0  0  0  0  0  0  0
    4.5211    9.4427   20.1172 N   0  0  0  0  0  0  0  0  0  0  0  0
    3.9633   10.7486   20.0027 C   0  0  0  0  0  0  0  0  0  0  0  0
    2.4900   10.6782   19.6429 C   0  0  0  0  0  0  0  0  0  0  0  0
    5.5947    8.9369   19.3507 C   0  0  0  0  0  0  0  0  0  0  0  0
    6.4491    7.9768   19.8253 C   0  0  0  0  0  0  0  0  0  0  0  0
    7.4838    7.5375   18.9952 C   0  0  0  0  0  0  0  0  0  0  0  0
    7.6575    8.0385   17.7396 C   0  0  0  0  0  0  0  0  0  0  0  0
    6.7851    8.9981   17.2950 C   0  0  0  0  0  0  0  0  0  0  0  0
    5.8006    9.4130   18.0908 N   0  0  0  0  0  0  0  0  0  0  0  0
    5.4032    4.4836   14.1055 N   0  0  0  0  0  0  0  0  0  0  0  0
    5.3869    5.2323   15.3056 C   0  0  0  0  0  0  0  0  0  0  0  0
    6.1169    4.6968   16.4748 C   0  0  0  0  0  0  0  0  0  0  0  0
    6.7976    5.6505   17.3408 C   0  0  0  0  0  0  0  0  0  0  0  0
    6.7113    5.6257   18.7109 C   0  0  0  0  0  0  0  0  0  0  0  0
    7.4133    6.5842   19.4167 C   0  0  0  0  0  0  0  0  0  0  0  0
    8.1782    7.5397   18.7826 C   0  0  0  0  0  0  0  0  0  0  0  0
    8.2763    7.5798   17.4053 C   0  0  0  0  0  0  0  0  0  0  0  0
    7.5783    6.6269   16.7124 C   0  0  0  0  0  0  0  0  0  0  0  0
    5.1244    3.9641   17.3413 C   0  0  0  0  0  0  0  0  0  0  0  0
    5.4648    2.8275   18.0422 C   0  0  0  0  0  0  0  0  0  0  0  0
    4.5184    2.2270   18.8204 C   0  0  0  0  0  0  0  0  0  0  0  0
    3.2413    2.7302   18.9181 C   0  0  0  0  0  0  0  0  0  0  0  0
    2.8951    3.8520   18.2305 C   0  0  0  0  0  0  0  0  0  0  0  0
    3.8559    4.4790   17.4282 C   0  0  0  0  0  0  0  0  0  0  0  0
    0.2896    0.9257   11.3997 O   0  0  0  0  0  0  0  0  0  0  0  0
    0.3922   -1.7271    9.9863 O   0  0  0  0  0  0  0  0  0  0  0  0
  1  2  1  0
  2  3  1  0
  3  4  1  0
  4  5  2  0
  4  6  1  0
  6  7  1  0
  7  8  1  0
  8  9  1  0
  9 10  1  0
  9 11  1  0
 11 12  1  0
 12 13  2  0
 13 14  1  0
 14 15  2  0
 15 16  1  0
 16 17  2  0
 17 18  1  0
 18 19  2  0
 17 20  1  0
 20 21  2  0
 20 22  1  0
 22 23  1  0
 23 24  1  0
 24 25  1  0
 25 26  1  0
 26 27  2  0
 26 28  1  0
 28 29  1  0
 29 30  1  0
 30 31  1  0
 31 32  1  0
 32 33  1  0
 33 34  1  0
 32 35  1  0
 35 36  2  0
 36 37  1  0
 37 38  2  0
 38 39  1  0
 39 40  2  0
 15 41  1  0
 41 42  1  0
 42 43  1  0
 43 44  1  0
 44 45  2  0
 45 46  1  0
 46 47  2  0
 47 48  1  0
 48 49  2  0
 43 50  1  0
 50 51  2  0
 51 52  1  0
 52 53  2  0
 53 54  1  0
 54 55  2  0
  8 56  1  0
  7 57  1  0
 10  6  1  0
 19 11  1  0
 19 14  1  0
 34 29  1  0
 40 35  1  0
 49 44  1  0
 55 50  1  0
M  END
$$$$
