
     RDKit          3D

 57 63  0  0  0  0  0  0  0  0999 V2000
   -5.8950    9.8545    7.3014 C   0  0  0  0  0  0  0  0  0  0  0  0
   -4.5751    9.7566    8.0371 C   0  0  0  0  0  0  0  0  0  0  0  0
   -4.4371    8.4507    8.6411 N   0  0  0  0  0  0  0  0  0  0  0  0
   -3.7350    8.2701    9.8422 C   0  0  0  0  0  0  0  0  0  0  0  0
   -3.3664    9.3156   10.4806 O   0  0  0  0  0  0  0  0  0  0  0  0
   -3.3828    6.9793   10.4356 C   0  0  0  0  0  0  0  0  0  0  0  0
   -3.2413    6.9947   11.9381 C   0  0  0  0  0  0  0  0  0  0  0  0
   -2.2455    5.8314   12.0990 C   0  0  0  0  0  0  0  0  0  0  0  0
   -1.3678    6.1016   10.9075 C   0  0  0  0  0  0  0  0  0  0  0  0
   -2.2514    6.4256    9.9134 O   0  0  0  0  0  0  0  0  0  0  0  0
   -0.5298    4.9914   10.5591 N   0  0  0  0  0  0  0  0  0  0  0  0
   -0.6450    4.2804    9.4240 C   0  0  0  0  0  0  0  0  0  0  0  0
    0.2667    3.3068    9.3776 N   0  0  0  0  0  0  0  0  0  0  0  0
    1.0044    3.3697   10.5037 C   0  0  0  0  0  0  0  0  0  0  0  0
    2.0646    2.6414   11.0034 C   0  0  0  0  0  0  0  0  0  0  0  0
    2.5729    2.9812   12.1859 N   0  0  0  0  0  0  0  0  0  0  0  0
    2.0876    4.0174   12.9191 C   0  0  0  0  0  0  0  0  0  0  0  0
    1.0594    4.7066   12.4105 N   0  0  0  0  0  0  0  0  0  0  0  0
    0.4857    4.4326   11.2260 C   0  0  0  0  0  0  0  0  0  0  0  0
    2.6939    4.3331   14.2295 C   0  0  0  0  0  0  0  0  0  0  0  0
    2.1479    5.1656   14.9900 O   0  0  0  0  0  0  0  0  0  0  0  0
    3.8920    3.7042   14.6446 N   0  0  0  0  0  0  0  0  0  0  0  0
    3.8840    2.6061   15.6162 C   0  0  0  0  0  0  0  0  0  0  0  0
    4.6574    3.0042   16.8561 C   0  0  0  0  0  0  0  0  0  0  0  0
    4.7492    4.4378   16.9031 N   0  0  0  0  0  0  0  0  0  0  0  0
    5.3591    5.1924   17.9342 C   0  0  0  0  0  0  0  0  0  0  0  0
    6.0042    4.6104   18.8154 O   0  0  0  0  0  0  0  0  0  0  0  0
    5.2371    6.5963   17.9636 N   0  0  0  0  0  0  0  0  0  0  0  0
    5.5960    7.3957   19.1237 C   0  0  0  0  0  0  0  0  0  0  0  0
    7.0749    7.7617   19.1290 C   0  0  0  0  0  0  0  0  0  0  0  0
    7.4642    8.3037   17.7800 C   0  0  0  0  0  0  0  0  0  0  0  0
    6.4879    9.3443   17.4192 N   0  0  0  0  0  0  0  0  0  0  0  0
    5.6587    9.8284   18.4716 C   0  0  0  0  0  0  0  0  0  0  0  0
    4.8398    8.7025   19.0771 C   0  0  0  0  0  0  0  0  0  0  0  0
    6.4486    9.7784   16.0753 C   0  0  0  0  0  0  0  0  0  0  0  0
    5.4125   10.5201   15.5720 C   0  0  0  0  0  0  0  0  0  0  0  0
    5.4595   10.9040   14.2292 C   0  0  0  0  0  0  0  0  0  0  0  0
    6.5018   10.5598   13.4211 C   0  0  0  0  0  0  0  0  0  0  0  0
    7.5226    9.8172   13.9560 C   0  0  0  0  0  0  0  0  0  0  0  0
    7.4723    9.4542   15.2367 N   0  0  0  0  0  0  0  0  0  0  0  0
    2.6049    1.5479   10.2722 N   0  0  0  0  0  0  0  0  0  0  0  0
    4.0005    1.3179   10.2888 C   0  0  0  0  0  0  0  0  0  0  0  0
    4.4798   -0.0810   10.2715 C   0  0  0  0  0  0  0  0  0  0  0  0
    5.8830   -0.3103    9.9531 C   0  0  0  0  0  0  0  0  0  0  0  0
    6.3187   -1.3251    9.1373 C   0  0  0  0  0  0  0  0  0  0  0  0
    7.6779   -1.4281    8.9096 C   0  0  0  0  0  0  0  0  0  0  0  0
    8.5787   -0.5509    9.4747 C   0  0  0  0  0  0  0  0  0  0  0  0
    8.1581    0.4755   10.2980 C   0  0  0  0  0  0  0  0  0  0  0  0
    6.8100    0.5718   10.5189 C   0  0  0  0  0  0  0  0  0  0  0  0
    4.2512   -0.6630   11.6432 C   0  0  0  0  0  0  0  0  0  0  0  0
    4.6049    0.0111   12.7919 C   0  0  0  0  0  0  0  0  0  0  0  0
    4.3517   -0.5706   13.9999 C   0  0  0  0  0  0  0  0  0  0  0  0
    3.7548   -1.8071   14.0927 C   0  0  0  0  0  0  0  0  0  0  0  0
    3.4014   -2.4809   12.9648 C   0  0  0  0  0  0  0  0  0  0  0  0
    3.6549   -1.8962   11.7182 C   0  0  0  0  0  0  0  0  0  0  0  0
   -1.5898    5.9559   13.2982 O   0  0  0  0  0  0  0  0  0  0  0  0
   -4.4181    6.6655   12.5613 O   0  0  0  0  0  0  0  0  0  0  0  0
  1  2  1  0
  2  3  1  0
  3  4  1  0
  4  5  2  0
  4  6  1  0
  6  7  1  0
  7  8  1  0
  8  9  1  0
  9 10  1  0
  9 11  1  0
 11 12  1  0
 12 13  2  0
 13 14  1  0
 14 15  2  0
 15 16  1  0
 16 17  2  0
 17 18  1  0
 18 19  2  0
 17 20  1  0
 20 21  2  0
 20 22  1  0
 22 23  1  0
 23 24  1  0
 24 25  1  0
 25 26  1  0
 26 27  2  0
 26 28  1  0
 28 29  1  0
 29 30  1  0
 30 31  1  0
 31 32  1  0
 32 33  1  0
 33 34  1  0
 32 35  1  0
 35 36  2  0
 36 37  1  0
 37 38  2  0
 38 39  1  0
 39 40  2  0
 15 41  1  0
 41 42  1  0
 42 43  1  0
 43 44  1  0
 44 45  2  0
 45 46  1  0
 46 47  2  0
 47 48  1  0
 48 49  2  0
 43 50  1  0
 50 51  2  0
 51 52  1  0
 52 53  2  0
 53 54  1  0
 54 55  2  0
  8 56  1  0
  7 57  1  0
 10  6  1  0
 19 11  1  0
 19 14  1  0
 34 29  1  0
 40 35  1  0
 49 44  1  0
 55 50  1  0
M  END
$$$$
