
     RDKit          3D

 57 63  0  0  0  0  0  0  0  0999 V2000
    0.2735   -2.7194    5.4130 C   0  0  0  0  0  0  0  0  0  0  0  0
    1.5283   -2.0901    5.9807 C   0  0  0  0  0  0  0  0  0  0  0  0
    1.4145   -1.9587    7.4156 N   0  0  0  0  0  0  0  0  0  0  0  0
    1.6779   -0.7421    8.0627 C   0  0  0  0  0  0  0  0  0  0  0  0
    1.6984    0.3202    7.3502 O   0  0  0  0  0  0  0  0  0  0  0  0
    1.9345   -0.5784    9.4943 C   0  0  0  0  0  0  0  0  0  0  0  0
    0.7069   -0.2974   10.3259 C   0  0  0  0  0  0  0  0  0  0  0  0
    1.3686    0.4793   11.4790 C   0  0  0  0  0  0  0  0  0  0  0  0
    2.3685    1.2769   10.6871 C   0  0  0  0  0  0  0  0  0  0  0  0
    2.8627    0.3789    9.7797 O   0  0  0  0  0  0  0  0  0  0  0  0
    3.3959    1.8614   11.4989 N   0  0  0  0  0  0  0  0  0  0  0  0
    4.6871    1.4876   11.4746 C   0  0  0  0  0  0  0  0  0  0  0  0
    5.4066    2.2046   12.3404 N   0  0  0  0  0  0  0  0  0  0  0  0
    4.5791    3.0735   12.9542 C   0  0  0  0  0  0  0  0  0  0  0  0
    4.7455    4.0444   13.9204 C   0  0  0  0  0  0  0  0  0  0  0  0
    3.6833    4.7438   14.3136 N   0  0  0  0  0  0  0  0  0  0  0  0
    2.4422    4.5381   13.7999 C   0  0  0  0  0  0  0  0  0  0  0  0
    2.3096    3.5905   12.8643 N   0  0  0  0  0  0  0  0  0  0  0  0
    3.3267    2.8383   12.4094 C   0  0  0  0  0  0  0  0  0  0  0  0
    1.3049    5.3448   14.2901 C   0  0  0  0  0  0  0  0  0  0  0  0
    1.5139    6.4104   14.9148 O   0  0  0  0  0  0  0  0  0  0  0  0
   -0.0293    4.9307   14.0628 N   0  0  0  0  0  0  0  0  0  0  0  0
   -0.7525    5.3105   12.8451 C   0  0  0  0  0  0  0  0  0  0  0  0
   -1.2092    6.7514   12.9406 C   0  0  0  0  0  0  0  0  0  0  0  0
   -1.7930    6.9663   14.2364 N   0  0  0  0  0  0  0  0  0  0  0  0
   -2.3098    8.1944   14.7154 C   0  0  0  0  0  0  0  0  0  0  0  0
   -2.8564    8.9750   13.9259 O   0  0  0  0  0  0  0  0  0  0  0  0
   -2.2065    8.5323   16.0798 N   0  0  0  0  0  0  0  0  0  0  0  0
   -2.7903    9.7402   16.6403 C   0  0  0  0  0  0  0  0  0  0  0  0
   -2.8355    9.6989   18.1625 C   0  0  0  0  0  0  0  0  0  0  0  0
   -1.4914    9.2803   18.6948 C   0  0  0  0  0  0  0  0  0  0  0  0
   -0.4735   10.1241   18.0484 N   0  0  0  0  0  0  0  0  0  0  0  0
   -0.9470   11.2899   17.3805 C   0  0  0  0  0  0  0  0  0  0  0  0
   -1.9235   10.9228   16.2774 C   0  0  0  0  0  0  0  0  0  0  0  0
    0.8772    9.7197   18.1390 C   0  0  0  0  0  0  0  0  0  0  0  0
    1.8935   10.4086   17.5311 C   0  0  0  0  0  0  0  0  0  0  0  0
    3.1995    9.9329   17.6754 C   0  0  0  0  0  0  0  0  0  0  0  0
    3.4784    8.8121   18.3992 C   0  0  0  0  0  0  0  0  0  0  0  0
    2.4386    8.1461   18.9948 C   0  0  0  0  0  0  0  0  0  0  0  0
    1.1958    8.6044   18.8537 N   0  0  0  0  0  0  0  0  0  0  0  0
    6.0255    4.2942   14.4878 N   0  0  0  0  0  0  0  0  0  0  0  0
    6.1742    5.3183   15.4522 C   0  0  0  0  0  0  0  0  0  0  0  0
    5.7399    5.0428   16.8386 C   0  0  0  0  0  0  0  0  0  0  0  0
    6.7742    4.9037   17.8554 C   0  0  0  0  0  0  0  0  0  0  0  0
    7.5776    5.9389   18.2655 C   0  0  0  0  0  0  0  0  0  0  0  0
    8.5162    5.6749   19.2448 C   0  0  0  0  0  0  0  0  0  0  0  0
    8.6545    4.4213   19.8009 C   0  0  0  0  0  0  0  0  0  0  0  0
    7.8551    3.3684   19.4003 C   0  0  0  0  0  0  0  0  0  0  0  0
    6.9270    3.6371   18.4298 C   0  0  0  0  0  0  0  0  0  0  0  0
    4.8564    6.1820   17.2794 C   0  0  0  0  0  0  0  0  0  0  0  0
    5.0440    7.4702   16.8273 C   0  0  0  0  0  0  0  0  0  0  0  0
    4.1941    8.4477   17.2560 C   0  0  0  0  0  0  0  0  0  0  0  0
    3.1617    8.1745   18.1240 C   0  0  0  0  0  0  0  0  0  0  0  0
    2.9676    6.9060   18.5762 C   0  0  0  0  0  0  0  0  0  0  0  0
    3.8318    5.8927   18.1444 C   0  0  0  0  0  0  0  0  0  0  0  0
    0.4258    1.2554   12.1053 O   0  0  0  0  0  0  0  0  0  0  0  0
    0.1558   -1.4513   10.8222 O   0  0  0  0  0  0  0  0  0  0  0  0
  1  2  1  0
  2  3  1  0
  3  4  1  0
  4  5  2  0
  4  6  1  0
  6  7  1  0
  7  8  1  0
  8  9  1  0
  9 10  1  0
  9 11  1  0
 11 12  1  0
 12 13  2  0
 13 14  1  0
 14 15  2  0
 15 16  1  0
 16 17  2  0
 17 18  1  0
 18 19  2  0
 17 20  1  0
 20 21  2  0
 20 22  1  0
 22 23  1  0
 23 24  1  0
 24 25  1  0
 25 26  1  0
 26 27  2  0
 26 28  1  0
 28 29  1  0
 29 30  1  0
 30 31  1  0
 31 32  1  0
 32 33  1  0
 33 34  1  0
 32 35  1  0
 35 36  2  0
 36 37  1  0
 37 38  2  0
 38 39  1  0
 39 40  2  0
 15 41  1  0
 41 42  1  0
 42 43  1  0
 43 44  1  0
 44 45  2  0
 45 46  1  0
 46 47  2  0
 47 48  1  0
 48 49  2  0
 43 50  1  0
 50 51  2  0
 51 52  1  0
 52 53  2  0
 53 54  1  0
 54 55  2  0
  8 56  1  0
  7 57  1  0
 10  6  1  0
 19 11  1  0
 19 14  1  0
 34 29  1  0
 40 35  1  0
 49 44  1  0
 55 50  1  0
M  END
$$$$
