
     RDKit          3D

 57 63  0  0  0  0  0  0  0  0999 V2000
    3.7298   -1.9299    4.6284 C   0  0  0  0  0  0  0  0  0  0  0  0
    4.3541   -1.8061    6.0023 C   0  0  0  0  0  0  0  0  0  0  0  0
    3.3489   -1.4425    6.9753 N   0  0  0  0  0  0  0  0  0  0  0  0
    3.3763   -0.2003    7.6269 C   0  0  0  0  0  0  0  0  0  0  0  0
    4.0505    0.7425    7.0856 O   0  0  0  0  0  0  0  0  0  0  0  0
    2.6958    0.1159    8.8836 C   0  0  0  0  0  0  0  0  0  0  0  0
    1.5972    1.1436    8.7633 C   0  0  0  0  0  0  0  0  0  0  0  0
    1.6404    1.7122   10.1937 C   0  0  0  0  0  0  0  0  0  0  0  0
    3.1297    1.7120   10.4060 C   0  0  0  0  0  0  0  0  0  0  0  0
    3.5381    0.5168    9.8782 O   0  0  0  0  0  0  0  0  0  0  0  0
    3.5047    1.8633   11.7818 N   0  0  0  0  0  0  0  0  0  0  0  0
    4.1238    0.9165   12.5082 C   0  0  0  0  0  0  0  0  0  0  0  0
    4.3407    1.3394   13.7554 N   0  0  0  0  0  0  0  0  0  0  0  0
    3.8567    2.5926   13.8628 C   0  0  0  0  0  0  0  0  0  0  0  0
    3.7949    3.5176   14.8849 C   0  0  0  0  0  0  0  0  0  0  0  0
    3.2308    4.6992   14.6447 N   0  0  0  0  0  0  0  0  0  0  0  0
    2.7140    5.0289   13.4319 C   0  0  0  0  0  0  0  0  0  0  0  0
    2.7877    4.1131   12.4588 N   0  0  0  0  0  0  0  0  0  0  0  0
    3.3391    2.8969   12.6138 C   0  0  0  0  0  0  0  0  0  0  0  0
    2.0929    6.3559   13.2379 C   0  0  0  0  0  0  0  0  0  0  0  0
    2.4140    7.0619   12.2541 O   0  0  0  0  0  0  0  0  0  0  0  0
    1.1314    6.8473   14.1529 N   0  0  0  0  0  0  0  0  0  0  0  0
   -0.2379    7.1597   13.7315 C   0  0  0  0  0  0  0  0  0  0  0  0
   -1.2024    6.1422   14.3045 C   0  0  0  0  0  0  0  0  0  0  0  0
   -2.3875    6.8258   14.7450 N   0  0  0  0  0  0  0  0  0  0  0  0
   -3.5600    7.0239   13.9764 C   0  0  0  0  0  0  0  0  0  0  0  0
   -3.6205    6.5663   12.8281 O   0  0  0  0  0  0  0  0  0  0  0  0
   -4.6542    7.7356   14.5081 N   0  0  0  0  0  0  0  0  0  0  0  0
   -5.4569    8.6550   13.7179 C   0  0  0  0  0  0  0  0  0  0  0  0
   -6.9492    8.4522   13.9480 C   0  0  0  0  0  0  0  0  0  0  0  0
   -7.2280    8.4001   15.4261 C   0  0  0  0  0  0  0  0  0  0  0  0
   -6.5777    9.5670   16.0438 N   0  0  0  0  0  0  0  0  0  0  0  0
   -6.1554   10.6002   15.1585 C   0  0  0  0  0  0  0  0  0  0  0  0
   -5.1539   10.0710   14.1476 C   0  0  0  0  0  0  0  0  0  0  0  0
   -6.4248    9.5740   17.4483 C   0  0  0  0  0  0  0  0  0  0  0  0
   -6.0616   10.6976   18.1429 C   0  0  0  0  0  0  0  0  0  0  0  0
   -5.9339   10.6093   19.5317 C   0  0  0  0  0  0  0  0  0  0  0  0
   -6.1606    9.4430   20.1998 C   0  0  0  0  0  0  0  0  0  0  0  0
   -6.5226    8.3372   19.4749 C   0  0  0  0  0  0  0  0  0  0  0  0
   -6.6427    8.4274   18.1513 N   0  0  0  0  0  0  0  0  0  0  0  0
    4.3215    3.2166   16.1713 N   0  0  0  0  0  0  0  0  0  0  0  0
    4.6506    4.2706   17.0554 C   0  0  0  0  0  0  0  0  0  0  0  0
    4.8518    5.6220   16.4897 C   0  0  0  0  0  0  0  0  0  0  0  0
    3.8108    6.6141   16.7238 C   0  0  0  0  0  0  0  0  0  0  0  0
    2.7870    6.4405   17.6221 C   0  0  0  0  0  0  0  0  0  0  0  0
    1.8675    7.4636   17.7543 C   0  0  0  0  0  0  0  0  0  0  0  0
    1.9602    8.6247   17.0172 C   0  0  0  0  0  0  0  0  0  0  0  0
    2.9832    8.8163   16.1090 C   0  0  0  0  0  0  0  0  0  0  0  0
    3.8908    7.7985   15.9833 C   0  0  0  0  0  0  0  0  0  0  0  0
    6.1199    6.1843   17.0799 C   0  0  0  0  0  0  0  0  0  0  0  0
    7.3040    6.2138   16.3755 C   0  0  0  0  0  0  0  0  0  0  0  0
    8.4081    6.7539   16.9680 C   0  0  0  0  0  0  0  0  0  0  0  0
    8.3625    7.2656   18.2447 C   0  0  0  0  0  0  0  0  0  0  0  0
    7.1985    7.2416   18.9486 C   0  0  0  0  0  0  0  0  0  0  0  0
    6.0574    6.6907   18.3532 C   0  0  0  0  0  0  0  0  0  0  0  0
    1.0891    2.9689   10.2010 O   0  0  0  0  0  0  0  0  0  0  0  0
    0.3753    0.5570    8.5520 O   0  0  0  0  0  0  0  0  0  0  0  0
  1  2  1  0
  2  3  1  0
  3  4  1  0
  4  5  2  0
  4  6  1  0
  6  7  1  0
  7  8  1  0
  8  9  1  0
  9 10  1  0
  9 11  1  0
 11 12  1  0
 12 13  2  0
 13 14  1  0
 14 15  2  0
 15 16  1  0
 16 17  2  0
 17 18  1  0
 18 19  2  0
 17 20  1  0
 20 21  2  0
 20 22  1  0
 22 23  1  0
 23 24  1  0
 24 25  1  0
 25 26  1  0
 26 27  2  0
 26 28  1  0
 28 29  1  0
 29 30  1  0
 30 31  1  0
 31 32  1  0
 32 33  1  0
 33 34  1  0
 32 35  1  0
 35 36  2  0
 36 37  1  0
 37 38  2  0
 38 39  1  0
 39 40  2  0
 15 41  1  0
 41 42  1  0
 42 43  1  0
 43 44  1  0
 44 45  2  0
 45 46  1  0
 46 47  2  0
 47 48  1  0
 48 49  2  0
 43 50  1  0
 50 51  2  0
 51 52  1  0
 52 53  2  0
 53 54  1  0
 54 55  2  0
  8 56  1  0
  7 57  1  0
 10  6  1  0
 19 11  1  0
 19 14  1  0
 34 29  1  0
 40 35  1  0
 49 44  1  0
 55 50  1  0
M  END
$$$$
