
     RDKit          3D

 57 63  0  0  0  0  0  0  0  0999 V2000
    3.9417   -5.7905    7.4815 C   0  0  0  0  0  0  0  0  0  0  0  0
    2.7360   -5.0142    7.9677 C   0  0  0  0  0  0  0  0  0  0  0  0
    2.8910   -3.6101    7.6617 N   0  0  0  0  0  0  0  0  0  0  0  0
    2.7480   -2.6251    8.6505 C   0  0  0  0  0  0  0  0  0  0  0  0
    2.5629   -3.0123    9.8557 O   0  0  0  0  0  0  0  0  0  0  0  0
    2.7917   -1.1798    8.4238 C   0  0  0  0  0  0  0  0  0  0  0  0
    4.1815   -0.5980    8.3363 C   0  0  0  0  0  0  0  0  0  0  0  0
    3.8745    0.8337    8.8127 C   0  0  0  0  0  0  0  0  0  0  0  0
    2.8795    0.5171    9.8956 C   0  0  0  0  0  0  0  0  0  0  0  0
    2.0921   -0.4582    9.3453 O   0  0  0  0  0  0  0  0  0  0  0  0
    2.1245    1.6594   10.3213 N   0  0  0  0  0  0  0  0  0  0  0  0
    1.1438    2.2321    9.6017 C   0  0  0  0  0  0  0  0  0  0  0  0
    0.6268    3.2782   10.2496 N   0  0  0  0  0  0  0  0  0  0  0  0
    1.2753    3.4056   11.4242 C   0  0  0  0  0  0  0  0  0  0  0  0
    1.1816    4.2809   12.4869 C   0  0  0  0  0  0  0  0  0  0  0  0
    2.0011    4.1182   13.5233 N   0  0  0  0  0  0  0  0  0  0  0  0
    2.9257    3.1237   13.5744 C   0  0  0  0  0  0  0  0  0  0  0  0
    2.9947    2.2893   12.5304 N   0  0  0  0  0  0  0  0  0  0  0  0
    2.2074    2.3802   11.4445 C   0  0  0  0  0  0  0  0  0  0  0  0
    3.8106    3.0078   14.7526 C   0  0  0  0  0  0  0  0  0  0  0  0
    4.7256    2.1524   14.7690 O   0  0  0  0  0  0  0  0  0  0  0  0
    3.6410    3.8558   15.8730 N   0  0  0  0  0  0  0  0  0  0  0  0
    3.2401    3.3268   17.1805 C   0  0  0  0  0  0  0  0  0  0  0  0
    3.6177    4.3043   18.2740 C   0  0  0  0  0  0  0  0  0  0  0  0
    4.5893    5.2269   17.7540 N   0  0  0  0  0  0  0  0  0  0  0  0
    5.1293    6.3359   18.4492 C   0  0  0  0  0  0  0  0  0  0  0  0
    4.5886    6.7230   19.4928 O   0  0  0  0  0  0  0  0  0  0  0  0
    6.2737    6.9992   17.9625 N   0  0  0  0  0  0  0  0  0  0  0  0
    6.9805    8.0161   18.7243 C   0  0  0  0  0  0  0  0  0  0  0  0
    8.3278    8.3613   18.1026 C   0  0  0  0  0  0  0  0  0  0  0  0
    8.1528    8.6115   16.6289 C   0  0  0  0  0  0  0  0  0  0  0  0
    7.0436    9.5652   16.4673 N   0  0  0  0  0  0  0  0  0  0  0  0
    6.6311   10.2627   17.6390 C   0  0  0  0  0  0  0  0  0  0  0  0
    6.1731    9.2927   18.7134 C   0  0  0  0  0  0  0  0  0  0  0  0
    6.4808    9.7149   15.1801 C   0  0  0  0  0  0  0  0  0  0  0  0
    6.8555    8.9344   14.1183 C   0  0  0  0  0  0  0  0  0  0  0  0
    6.2441    9.1555   12.8813 C   0  0  0  0  0  0  0  0  0  0  0  0
    5.2952   10.1193   12.7126 C   0  0  0  0  0  0  0  0  0  0  0  0
    4.9430   10.8829   13.7954 C   0  0  0  0  0  0  0  0  0  0  0  0
    5.5292   10.6675   14.9720 N   0  0  0  0  0  0  0  0  0  0  0  0
    0.2299    5.3377   12.4772 N   0  0  0  0  0  0  0  0  0  0  0  0
    0.1918    6.2532   13.5548 C   0  0  0  0  0  0  0  0  0  0  0  0
   -0.7663    6.0023   14.6530 C   0  0  0  0  0  0  0  0  0  0  0  0
   -0.3058    5.2047   15.7820 C   0  0  0  0  0  0  0  0  0  0  0  0
   -0.2608    3.8325   15.7721 C   0  0  0  0  0  0  0  0  0  0  0  0
    0.2046    3.1964   16.9073 C   0  0  0  0  0  0  0  0  0  0  0  0
    0.6129    3.9003   18.0199 C   0  0  0  0  0  0  0  0  0  0  0  0
    0.5742    5.2808   18.0475 C   0  0  0  0  0  0  0  0  0  0  0  0
    0.1123    5.9045   16.9192 C   0  0  0  0  0  0  0  0  0  0  0  0
   -1.1839    7.3377   15.2139 C   0  0  0  0  0  0  0  0  0  0  0  0
   -2.4595    7.8330   15.0504 C   0  0  0  0  0  0  0  0  0  0  0  0
   -2.7709    9.0420   15.6011 C   0  0  0  0  0  0  0  0  0  0  0  0
   -1.8436    9.7702   16.3108 C   0  0  0  0  0  0  0  0  0  0  0  0
   -0.5817    9.2901   16.4784 C   0  0  0  0  0  0  0  0  0  0  0  0
   -0.2479    8.0508   15.9191 C   0  0  0  0  0  0  0  0  0  0  0  0
    5.0259    1.4136    9.2833 O   0  0  0  0  0  0  0  0  0  0  0  0
    4.6309   -0.5516    7.0411 O   0  0  0  0  0  0  0  0  0  0  0  0
  1  2  1  0
  2  3  1  0
  3  4  1  0
  4  5  2  0
  4  6  1  0
  6  7  1  0
  7  8  1  0
  8  9  1  0
  9 10  1  0
  9 11  1  0
 11 12  1  0
 12 13  2  0
 13 14  1  0
 14 15  2  0
 15 16  1  0
 16 17  2  0
 17 18  1  0
 18 19  2  0
 17 20  1  0
 20 21  2  0
 20 22  1  0
 22 23  1  0
 23 24  1  0
 24 25  1  0
 25 26  1  0
 26 27  2  0
 26 28  1  0
 28 29  1  0
 29 30  1  0
 30 31  1  0
 31 32  1  0
 32 33  1  0
 33 34  1  0
 32 35  1  0
 35 36  2  0
 36 37  1  0
 37 38  2  0
 38 39  1  0
 39 40  2  0
 15 41  1  0
 41 42  1  0
 42 43  1  0
 43 44  1  0
 44 45  2  0
 45 46  1  0
 46 47  2  0
 47 48  1  0
 48 49  2  0
 43 50  1  0
 50 51  2  0
 51 52  1  0
 52 53  2  0
 53 54  1  0
 54 55  2  0
  8 56  1  0
  7 57  1  0
 10  6  1  0
 19 11  1  0
 19 14  1  0
 34 29  1  0
 40 35  1  0
 49 44  1  0
 55 50  1  0
M  END
$$$$
