
     RDKit          3D

 57 63  0  0  0  0  0  0  0  0999 V2000
    1.7065    0.5214    4.5965 C   0  0  0  0  0  0  0  0  0  0  0  0
    2.1729   -0.6502    5.4347 C   0  0  0  0  0  0  0  0  0  0  0  0
    2.2769   -0.2598    6.8225 N   0  0  0  0  0  0  0  0  0  0  0  0
    1.6199   -0.9745    7.8353 C   0  0  0  0  0  0  0  0  0  0  0  0
    0.7347   -1.8288    7.4845 O   0  0  0  0  0  0  0  0  0  0  0  0
    1.8590   -0.8278    9.2719 C   0  0  0  0  0  0  0  0  0  0  0  0
    0.6237   -0.5395   10.0895 C   0  0  0  0  0  0  0  0  0  0  0  0
    1.2792    0.2177   11.2590 C   0  0  0  0  0  0  0  0  0  0  0  0
    2.2996    1.0104   10.4885 C   0  0  0  0  0  0  0  0  0  0  0  0
    2.7949    0.1150    9.5791 O   0  0  0  0  0  0  0  0  0  0  0  0
    3.3230    1.5742   11.3198 N   0  0  0  0  0  0  0  0  0  0  0  0
    4.6324    1.2904   11.2094 C   0  0  0  0  0  0  0  0  0  0  0  0
    5.3429    1.9599   12.1195 N   0  0  0  0  0  0  0  0  0  0  0  0
    4.4906    2.7047   12.8512 C   0  0  0  0  0  0  0  0  0  0  0  0
    4.6384    3.5796   13.9080 C   0  0  0  0  0  0  0  0  0  0  0  0
    3.5530    4.1635   14.4111 N   0  0  0  0  0  0  0  0  0  0  0  0
    2.3060    3.9308   13.9238 C   0  0  0  0  0  0  0  0  0  0  0  0
    2.1919    3.0782   12.8987 N   0  0  0  0  0  0  0  0  0  0  0  0
    3.2329    2.4453   12.3304 C   0  0  0  0  0  0  0  0  0  0  0  0
    1.1433    4.6062   14.5375 C   0  0  0  0  0  0  0  0  0  0  0  0
   -0.0198    4.2802   14.2053 O   0  0  0  0  0  0  0  0  0  0  0  0
    1.3231    5.6241   15.5043 N   0  0  0  0  0  0  0  0  0  0  0  0
    0.5652    5.6311   16.7595 C   0  0  0  0  0  0  0  0  0  0  0  0
    1.3137    6.4201   17.8136 C   0  0  0  0  0  0  0  0  0  0  0  0
    1.5763    7.7383   17.3046 N   0  0  0  0  0  0  0  0  0  0  0  0
    2.1440    8.8083   18.0378 C   0  0  0  0  0  0  0  0  0  0  0  0
    2.5350    9.8180   17.4385 O   0  0  0  0  0  0  0  0  0  0  0  0
    2.2662    8.7315   19.4398 N   0  0  0  0  0  0  0  0  0  0  0  0
    3.5215    8.4270   20.1072 C   0  0  0  0  0  0  0  0  0  0  0  0
    4.4293    9.6470   20.1996 C   0  0  0  0  0  0  0  0  0  0  0  0
    3.6448   10.8195   20.7238 C   0  0  0  0  0  0  0  0  0  0  0  0
    2.9416   10.3780   21.9389 N   0  0  0  0  0  0  0  0  0  0  0  0
    3.3813    9.1519   22.5160 C   0  0  0  0  0  0  0  0  0  0  0  0
    3.2361    8.0068   21.5298 C   0  0  0  0  0  0  0  0  0  0  0  0
    1.8992   11.1929   22.4342 C   0  0  0  0  0  0  0  0  0  0  0  0
    1.7133   12.4842   22.0162 C   0  0  0  0  0  0  0  0  0  0  0  0
    0.6550   13.2149   22.5628 C   0  0  0  0  0  0  0  0  0  0  0  0
   -0.1846   12.6755   23.4912 C   0  0  0  0  0  0  0  0  0  0  0  0
    0.0290   11.3807   23.8880 C   0  0  0  0  0  0  0  0  0  0  0  0
    1.0394   10.6891   23.3633 N   0  0  0  0  0  0  0  0  0  0  0  0
    5.9237    3.8530   14.4519 N   0  0  0  0  0  0  0  0  0  0  0  0
    6.0575    4.0990   15.8384 C   0  0  0  0  0  0  0  0  0  0  0  0
    5.8170    5.4719   16.3323 C   0  0  0  0  0  0  0  0  0  0  0  0
    4.6389    5.6952   17.1601 C   0  0  0  0  0  0  0  0  0  0  0  0
    4.3659    4.9781   18.2986 C   0  0  0  0  0  0  0  0  0  0  0  0
    3.2169    5.2952   18.9979 C   0  0  0  0  0  0  0  0  0  0  0  0
    2.3633    6.2938   18.5803 C   0  0  0  0  0  0  0  0  0  0  0  0
    2.6221    7.0250   17.4373 C   0  0  0  0  0  0  0  0  0  0  0  0
    3.7625    6.7057   16.7496 C   0  0  0  0  0  0  0  0  0  0  0  0
    7.0075    5.8776   17.1634 C   0  0  0  0  0  0  0  0  0  0  0  0
    7.9926    4.9809   17.5163 C   0  0  0  0  0  0  0  0  0  0  0  0
    9.0504    5.4238   18.2559 C   0  0  0  0  0  0  0  0  0  0  0  0
    9.1517    6.7376   18.6527 C   0  0  0  0  0  0  0  0  0  0  0  0
    8.1847    7.6310   18.3093 C   0  0  0  0  0  0  0  0  0  0  0  0
    7.0937    7.1908   17.5504 C   0  0  0  0  0  0  0  0  0  0  0  0
    0.3376    0.9994   11.8801 O   0  0  0  0  0  0  0  0  0  0  0  0
    0.0517   -1.6912   10.5670 O   0  0  0  0  0  0  0  0  0  0  0  0
  1  2  1  0
  2  3  1  0
  3  4  1  0
  4  5  2  0
  4  6  1  0
  6  7  1  0
  7  8  1  0
  8  9  1  0
  9 10  1  0
  9 11  1  0
 11 12  1  0
 12 13  2  0
 13 14  1  0
 14 15  2  0
 15 16  1  0
 16 17  2  0
 17 18  1  0
 18 19  2  0
 17 20  1  0
 20 21  2  0
 20 22  1  0
 22 23  1  0
 23 24  1  0
 24 25  1  0
 25 26  1  0
 26 27  2  0
 26 28  1  0
 28 29  1  0
 29 30  1  0
 30 31  1  0
 31 32  1  0
 32 33  1  0
 33 34  1  0
 32 35  1  0
 35 36  2  0
 36 37  1  0
 37 38  2  0
 38 39  1  0
 39 40  2  0
 15 41  1  0
 41 42  1  0
 42 43  1  0
 43 44  1  0
 44 45  2  0
 45 46  1  0
 46 47  2  0
 47 48  1  0
 48 49  2  0
 43 50  1  0
 50 51  2  0
 51 52  1  0
 52 53  2  0
 53 54  1  0
 54 55  2  0
  8 56  1  0
  7 57  1  0
 10  6  1  0
 19 11  1  0
 19 14  1  0
 34 29  1  0
 40 35  1  0
 49 44  1  0
 55 50  1  0
M  END
$$$$
