
     RDKit          3D

 57 63  0  0  0  0  0  0  0  0999 V2000
    1.5166   -2.0656    3.9406 C   0  0  0  0  0  0  0  0  0  0  0  0
    2.6554   -1.7422    4.8846 C   0  0  0  0  0  0  0  0  0  0  0  0
    2.1743   -1.6913    6.2467 N   0  0  0  0  0  0  0  0  0  0  0  0
    2.2229   -0.5066    6.9966 C   0  0  0  0  0  0  0  0  0  0  0  0
    2.5807    0.5650    6.3964 O   0  0  0  0  0  0  0  0  0  0  0  0
    1.8978   -0.3863    8.4186 C   0  0  0  0  0  0  0  0  0  0  0  0
    0.5567    0.2429    8.7069 C   0  0  0  0  0  0  0  0  0  0  0  0
    0.8604    0.8335   10.0961 C   0  0  0  0  0  0  0  0  0  0  0  0
    2.2682    1.3045    9.8530 C   0  0  0  0  0  0  0  0  0  0  0  0
    2.8397    0.2836    9.1422 O   0  0  0  0  0  0  0  0  0  0  0  0
    2.9817    1.6013   11.0609 N   0  0  0  0  0  0  0  0  0  0  0  0
    4.1861    1.0934   11.3753 C   0  0  0  0  0  0  0  0  0  0  0  0
    4.5978    1.5443   12.5621 N   0  0  0  0  0  0  0  0  0  0  0  0
    3.6494    2.3691   13.0487 C   0  0  0  0  0  0  0  0  0  0  0  0
    3.5187    3.1119   14.2042 C   0  0  0  0  0  0  0  0  0  0  0  0
    2.4177    3.8405   14.3747 N   0  0  0  0  0  0  0  0  0  0  0  0
    1.4184    3.8805   13.4547 C   0  0  0  0  0  0  0  0  0  0  0  0
    1.5716    3.1508   12.3434 N   0  0  0  0  0  0  0  0  0  0  0  0
    2.6489    2.3876   12.0900 C   0  0  0  0  0  0  0  0  0  0  0  0
    0.2186    4.7038   13.7136 C   0  0  0  0  0  0  0  0  0  0  0  0
   -0.6313    4.8771   12.8097 O   0  0  0  0  0  0  0  0  0  0  0  0
    0.0105    5.3048   14.9780 N   0  0  0  0  0  0  0  0  0  0  0  0
   -0.4000    6.7070   15.1017 C   0  0  0  0  0  0  0  0  0  0  0  0
    0.1171    7.2867   16.4018 C   0  0  0  0  0  0  0  0  0  0  0  0
    1.5482    7.3939   16.3232 N   0  0  0  0  0  0  0  0  0  0  0  0
    2.3085    8.5451   16.6421 C   0  0  0  0  0  0  0  0  0  0  0  0
    2.0143    9.6314   16.1277 O   0  0  0  0  0  0  0  0  0  0  0  0
    3.3935    8.4623   17.5379 N   0  0  0  0  0  0  0  0  0  0  0  0
    3.9080    9.6126   18.2630 C   0  0  0  0  0  0  0  0  0  0  0  0
    3.7728    9.4439   19.7711 C   0  0  0  0  0  0  0  0  0  0  0  0
    4.2973    8.0923   20.1752 C   0  0  0  0  0  0  0  0  0  0  0  0
    5.6294    7.9321   19.5706 N   0  0  0  0  0  0  0  0  0  0  0  0
    6.2434    9.1144   19.0661 C   0  0  0  0  0  0  0  0  0  0  0  0
    5.3866    9.7508   17.9864 C   0  0  0  0  0  0  0  0  0  0  0  0
    6.1906    6.6358   19.5379 C   0  0  0  0  0  0  0  0  0  0  0  0
    5.5454    5.5419   20.0516 C   0  0  0  0  0  0  0  0  0  0  0  0
    6.1789    4.2987   19.9750 C   0  0  0  0  0  0  0  0  0  0  0  0
    7.4095    4.1550   19.4070 C   0  0  0  0  0  0  0  0  0  0  0  0
    8.0280    5.2696   18.9023 C   0  0  0  0  0  0  0  0  0  0  0  0
    7.4191    6.4520   18.9782 N   0  0  0  0  0  0  0  0  0  0  0  0
    4.5380    3.1001   15.1959 N   0  0  0  0  0  0  0  0  0  0  0  0
    4.9888    4.3216   15.7487 C   0  0  0  0  0  0  0  0  0  0  0  0
    4.0956    5.0387   16.6840 C   0  0  0  0  0  0  0  0  0  0  0  0
    4.5803    5.2686   18.0386 C   0  0  0  0  0  0  0  0  0  0  0  0
    4.1679    6.3172   18.8232 C   0  0  0  0  0  0  0  0  0  0  0  0
    4.7002    6.4170   20.0946 C   0  0  0  0  0  0  0  0  0  0  0  0
    5.6151    5.5041   20.5738 C   0  0  0  0  0  0  0  0  0  0  0  0
    6.0413    4.4434   19.7984 C   0  0  0  0  0  0  0  0  0  0  0  0
    5.5095    4.3505   18.5399 C   0  0  0  0  0  0  0  0  0  0  0  0
    3.8075    6.3966   16.0959 C   0  0  0  0  0  0  0  0  0  0  0  0
    3.4660    7.4762   16.8814 C   0  0  0  0  0  0  0  0  0  0  0  0
    3.2361    8.6796   16.2808 C   0  0  0  0  0  0  0  0  0  0  0  0
    3.3379    8.8349   14.9172 C   0  0  0  0  0  0  0  0  0  0  0  0
    3.6747    7.7755   14.1327 C   0  0  0  0  0  0  0  0  0  0  0  0
    3.9138    6.5346   14.7352 C   0  0  0  0  0  0  0  0  0  0  0  0
   -0.0182    1.8546   10.3587 O   0  0  0  0  0  0  0  0  0  0  0  0
   -0.4306   -0.7017    8.8286 O   0  0  0  0  0  0  0  0  0  0  0  0
  1  2  1  0
  2  3  1  0
  3  4  1  0
  4  5  2  0
  4  6  1  0
  6  7  1  0
  7  8  1  0
  8  9  1  0
  9 10  1  0
  9 11  1  0
 11 12  1  0
 12 13  2  0
 13 14  1  0
 14 15  2  0
 15 16  1  0
 16 17  2  0
 17 18  1  0
 18 19  2  0
 17 20  1  0
 20 21  2  0
 20 22  1  0
 22 23  1  0
 23 24  1  0
 24 25  1  0
 25 26  1  0
 26 27  2  0
 26 28  1  0
 28 29  1  0
 29 30  1  0
 30 31  1  0
 31 32  1  0
 32 33  1  0
 33 34  1  0
 32 35  1  0
 35 36  2  0
 36 37  1  0
 37 38  2  0
 38 39  1  0
 39 40  2  0
 15 41  1  0
 41 42  1  0
 42 43  1  0
 43 44  1  0
 44 45  2  0
 45 46  1  0
 46 47  2  0
 47 48  1  0
 48 49  2  0
 43 50  1  0
 50 51  2  0
 51 52  1  0
 52 53  2  0
 53 54  1  0
 54 55  2  0
  8 56  1  0
  7 57  1  0
 10  6  1  0
 19 11  1  0
 19 14  1  0
 34 29  1  0
 40 35  1  0
 49 44  1  0
 55 50  1  0
M  END
$$$$
