
     RDKit          3D

 57 63  0  0  0  0  0  0  0  0999 V2000
    1.3189   -4.4834    9.0674 C   0  0  0  0  0  0  0  0  0  0  0  0
    0.4742   -3.3430    8.5395 C   0  0  0  0  0  0  0  0  0  0  0  0
    0.6456   -2.1710    9.3680 N   0  0  0  0  0  0  0  0  0  0  0  0
    0.8813   -0.9065    8.8079 C   0  0  0  0  0  0  0  0  0  0  0  0
    0.8754   -0.8086    7.5324 O   0  0  0  0  0  0  0  0  0  0  0  0
    1.1366    0.3227    9.5603 C   0  0  0  0  0  0  0  0  0  0  0  0
    0.8430    1.5957    8.8049 C   0  0  0  0  0  0  0  0  0  0  0  0
    1.8282    2.5359    9.5234 C   0  0  0  0  0  0  0  0  0  0  0  0
    2.9885    1.5914    9.6805 C   0  0  0  0  0  0  0  0  0  0  0  0
    2.4047    0.4108   10.0539 O   0  0  0  0  0  0  0  0  0  0  0  0
    3.9642    2.0469   10.6274 N   0  0  0  0  0  0  0  0  0  0  0  0
    5.2933    1.9265   10.4651 C   0  0  0  0  0  0  0  0  0  0  0  0
    5.9485    2.4355   11.5106 N   0  0  0  0  0  0  0  0  0  0  0  0
    5.0386    2.9044   12.3873 C   0  0  0  0  0  0  0  0  0  0  0  0
    5.1158    3.5232   13.6183 C   0  0  0  0  0  0  0  0  0  0  0  0
    3.9863    3.8659   14.2336 N   0  0  0  0  0  0  0  0  0  0  0  0
    2.7608    3.6299   13.6958 C   0  0  0  0  0  0  0  0  0  0  0  0
    2.7153    3.0288   12.5010 N   0  0  0  0  0  0  0  0  0  0  0  0
    3.8045    2.6492   11.8106 C   0  0  0  0  0  0  0  0  0  0  0  0
    1.5470    4.0283   14.4391 C   0  0  0  0  0  0  0  0  0  0  0  0
    0.4423    3.5056   14.1640 O   0  0  0  0  0  0  0  0  0  0  0  0
    1.6121    4.9988   15.4672 N   0  0  0  0  0  0  0  0  0  0  0  0
    1.7352    4.6146   16.8769 C   0  0  0  0  0  0  0  0  0  0  0  0
    0.6079    5.2266   17.6822 C   0  0  0  0  0  0  0  0  0  0  0  0
    0.1036    6.3718   16.9751 N   0  0  0  0  0  0  0  0  0  0  0  0
    0.2783    7.7229   17.3608 C   0  0  0  0  0  0  0  0  0  0  0  0
    1.0688    7.9991   18.2720 O   0  0  0  0  0  0  0  0  0  0  0  0
   -0.4390    8.7510   16.7167 N   0  0  0  0  0  0  0  0  0  0  0  0
   -0.2160   10.1611   16.9918 C   0  0  0  0  0  0  0  0  0  0  0  0
   -0.7882   11.0534   15.8975 C   0  0  0  0  0  0  0  0  0  0  0  0
   -2.2007   10.6329   15.5924 C   0  0  0  0  0  0  0  0  0  0  0  0
   -2.9248   10.5425   16.8705 N   0  0  0  0  0  0  0  0  0  0  0  0
   -2.3022   11.1536   17.9968 C   0  0  0  0  0  0  0  0  0  0  0  0
   -0.9403   10.5377   18.2628 C   0  0  0  0  0  0  0  0  0  0  0  0
   -4.1655    9.8668   16.8828 C   0  0  0  0  0  0  0  0  0  0  0  0
   -4.9097    9.6750   15.7486 C   0  0  0  0  0  0  0  0  0  0  0  0
   -6.1259    8.9955   15.8575 C   0  0  0  0  0  0  0  0  0  0  0  0
   -6.5803    8.5262   17.0538 C   0  0  0  0  0  0  0  0  0  0  0  0
   -5.8114    8.7348   18.1695 C   0  0  0  0  0  0  0  0  0  0  0  0
   -4.6530    9.3831   18.0595 N   0  0  0  0  0  0  0  0  0  0  0  0
    6.3763    3.7894   14.2208 N   0  0  0  0  0  0  0  0  0  0  0  0
    6.5324    4.9341   15.0370 C   0  0  0  0  0  0  0  0  0  0  0  0
    5.4551    5.2631   15.9950 C   0  0  0  0  0  0  0  0  0  0  0  0
    5.8444    5.6185   17.3533 C   0  0  0  0  0  0  0  0  0  0  0  0
    5.1995    5.1533   18.4726 C   0  0  0  0  0  0  0  0  0  0  0  0
    5.6746    5.5616   19.7045 C   0  0  0  0  0  0  0  0  0  0  0  0
    6.7570    6.4067   19.8230 C   0  0  0  0  0  0  0  0  0  0  0  0
    7.4176    6.8846   18.7079 C   0  0  0  0  0  0  0  0  0  0  0  0
    6.9417    6.4757   17.4906 C   0  0  0  0  0  0  0  0  0  0  0  0
    4.6941    6.4425   15.4451 C   0  0  0  0  0  0  0  0  0  0  0  0
    5.1952    7.2265   14.4286 C   0  0  0  0  0  0  0  0  0  0  0  0
    4.4423    8.2677   13.9693 C   0  0  0  0  0  0  0  0  0  0  0  0
    3.2026    8.5477   14.4970 C   0  0  0  0  0  0  0  0  0  0  0  0
    2.6986    7.7798   15.5006 C   0  0  0  0  0  0  0  0  0  0  0  0
    3.4598    6.7078   15.9817 C   0  0  0  0  0  0  0  0  0  0  0  0
    2.1052    3.6095    8.7146 O   0  0  0  0  0  0  0  0  0  0  0  0
   -0.4375    2.0340    9.0287 O   0  0  0  0  0  0  0  0  0  0  0  0
  1  2  1  0
  2  3  1  0
  3  4  1  0
  4  5  2  0
  4  6  1  0
  6  7  1  0
  7  8  1  0
  8  9  1  0
  9 10  1  0
  9 11  1  0
 11 12  1  0
 12 13  2  0
 13 14  1  0
 14 15  2  0
 15 16  1  0
 16 17  2  0
 17 18  1  0
 18 19  2  0
 17 20  1  0
 20 21  2  0
 20 22  1  0
 22 23  1  0
 23 24  1  0
 24 25  1  0
 25 26  1  0
 26 27  2  0
 26 28  1  0
 28 29  1  0
 29 30  1  0
 30 31  1  0
 31 32  1  0
 32 33  1  0
 33 34  1  0
 32 35  1  0
 35 36  2  0
 36 37  1  0
 37 38  2  0
 38 39  1  0
 39 40  2  0
 15 41  1  0
 41 42  1  0
 42 43  1  0
 43 44  1  0
 44 45  2  0
 45 46  1  0
 46 47  2  0
 47 48  1  0
 48 49  2  0
 43 50  1  0
 50 51  2  0
 51 52  1  0
 52 53  2  0
 53 54  1  0
 54 55  2  0
  8 56  1  0
  7 57  1  0
 10  6  1  0
 19 11  1  0
 19 14  1  0
 34 29  1  0
 40 35  1  0
 49 44  1  0
 55 50  1  0
M  END
$$$$
