
     RDKit          3D

 57 63  0  0  0  0  0  0  0  0999 V2000
    6.2448   -3.8066   12.9781 C   0  0  0  0  0  0  0  0  0  0  0  0
    6.8410   -2.7965   12.0204 C   0  0  0  0  0  0  0  0  0  0  0  0
    5.8490   -2.3789   11.0556 N   0  0  0  0  0  0  0  0  0  0  0  0
    5.1037   -1.2037   11.2338 C   0  0  0  0  0  0  0  0  0  0  0  0
    5.3758   -0.4727   12.2478 O   0  0  0  0  0  0  0  0  0  0  0  0
    4.0316   -0.7351   10.3545 C   0  0  0  0  0  0  0  0  0  0  0  0
    4.4920   -0.2615    8.9975 C   0  0  0  0  0  0  0  0  0  0  0  0
    3.3612    0.7385    8.6940 C   0  0  0  0  0  0  0  0  0  0  0  0
    3.1899    1.3294   10.0668 C   0  0  0  0  0  0  0  0  0  0  0  0
    3.2619    0.2479   10.9029 O   0  0  0  0  0  0  0  0  0  0  0  0
    1.9666    2.0621   10.2184 N   0  0  0  0  0  0  0  0  0  0  0  0
    0.9720    2.0741    9.3139 C   0  0  0  0  0  0  0  0  0  0  0  0
   -0.0357    2.8468    9.7248 N   0  0  0  0  0  0  0  0  0  0  0  0
    0.2933    3.3601   10.9268 C   0  0  0  0  0  0  0  0  0  0  0  0
   -0.3345    4.2061   11.8181 C   0  0  0  0  0  0  0  0  0  0  0  0
    0.2917    4.5214   12.9497 N   0  0  0  0  0  0  0  0  0  0  0  0
    1.5247    4.0419   13.2604 C   0  0  0  0  0  0  0  0  0  0  0  0
    2.1101    3.2234   12.3783 N   0  0  0  0  0  0  0  0  0  0  0  0
    1.5510    2.8533   11.2131 C   0  0  0  0  0  0  0  0  0  0  0  0
    2.1658    4.4415   14.5307 C   0  0  0  0  0  0  0  0  0  0  0  0
    3.3397    4.0830   14.7817 O   0  0  0  0  0  0  0  0  0  0  0  0
    1.4701    5.2309   15.4773 N   0  0  0  0  0  0  0  0  0  0  0  0
    1.6623    5.0452   16.9191 C   0  0  0  0  0  0  0  0  0  0  0  0
    2.1573    6.3315   17.5469 C   0  0  0  0  0  0  0  0  0  0  0  0
    3.5933    6.2985   17.5971 N   0  0  0  0  0  0  0  0  0  0  0  0
    4.4261    7.3346   18.0848 C   0  0  0  0  0  0  0  0  0  0  0  0
    4.1944    8.5062   17.7609 O   0  0  0  0  0  0  0  0  0  0  0  0
    5.5127    7.0416   18.9334 N   0  0  0  0  0  0  0  0  0  0  0  0
    6.2245    8.0623   19.6854 C   0  0  0  0  0  0  0  0  0  0  0  0
    7.1262    7.4584   20.7547 C   0  0  0  0  0  0  0  0  0  0  0  0
    7.9526    6.3546   20.1515 C   0  0  0  0  0  0  0  0  0  0  0  0
    8.5766    6.8826   18.9277 N   0  0  0  0  0  0  0  0  0  0  0  0
    8.5585    8.2980   18.7665 C   0  0  0  0  0  0  0  0  0  0  0  0
    7.1339    8.8226   18.7491 C   0  0  0  0  0  0  0  0  0  0  0  0
    9.1391    5.9586   18.0191 C   0  0  0  0  0  0  0  0  0  0  0  0
    9.9078    6.3491   16.9543 C   0  0  0  0  0  0  0  0  0  0  0  0
   10.4217    5.3635   16.1075 C   0  0  0  0  0  0  0  0  0  0  0  0
   10.1767    4.0391   16.3171 C   0  0  0  0  0  0  0  0  0  0  0  0
    9.4038    3.6820   17.3916 C   0  0  0  0  0  0  0  0  0  0  0  0
    8.9167    4.6260   18.1954 N   0  0  0  0  0  0  0  0  0  0  0  0
   -1.6246    4.7335   11.5351 N   0  0  0  0  0  0  0  0  0  0  0  0
   -2.2499    5.5898   12.4713 C   0  0  0  0  0  0  0  0  0  0  0  0
   -1.7906    6.9931   12.5525 C   0  0  0  0  0  0  0  0  0  0  0  0
   -2.8009    8.0401   12.4745 C   0  0  0  0  0  0  0  0  0  0  0  0
   -2.5427    9.3097   12.0202 C   0  0  0  0  0  0  0  0  0  0  0  0
   -3.5930   10.2074   11.9897 C   0  0  0  0  0  0  0  0  0  0  0  0
   -4.8619    9.8566   12.3980 C   0  0  0  0  0  0  0  0  0  0  0  0
   -5.1396    8.5840   12.8581 C   0  0  0  0  0  0  0  0  0  0  0  0
   -4.0943    7.6997   12.8853 C   0  0  0  0  0  0  0  0  0  0  0  0
   -1.0892    7.1723   13.8748 C   0  0  0  0  0  0  0  0  0  0  0  0
   -1.3426    6.3536   14.9539 C   0  0  0  0  0  0  0  0  0  0  0  0
   -0.6567    6.5645   16.1145 C   0  0  0  0  0  0  0  0  0  0  0  0
    0.2754    7.5705   16.2273 C   0  0  0  0  0  0  0  0  0  0  0  0
    0.5332    8.3843   15.1679 C   0  0  0  0  0  0  0  0  0  0  0  0
   -0.1627    8.1795   13.9705 C   0  0  0  0  0  0  0  0  0  0  0  0
    3.7945    1.6462    7.7603 O   0  0  0  0  0  0  0  0  0  0  0  0
    4.4571   -1.2712    8.0696 O   0  0  0  0  0  0  0  0  0  0  0  0
  1  2  1  0
  2  3  1  0
  3  4  1  0
  4  5  2  0
  4  6  1  0
  6  7  1  0
  7  8  1  0
  8  9  1  0
  9 10  1  0
  9 11  1  0
 11 12  1  0
 12 13  2  0
 13 14  1  0
 14 15  2  0
 15 16  1  0
 16 17  2  0
 17 18  1  0
 18 19  2  0
 17 20  1  0
 20 21  2  0
 20 22  1  0
 22 23  1  0
 23 24  1  0
 24 25  1  0
 25 26  1  0
 26 27  2  0
 26 28  1  0
 28 29  1  0
 29 30  1  0
 30 31  1  0
 31 32  1  0
 32 33  1  0
 33 34  1  0
 32 35  1  0
 35 36  2  0
 36 37  1  0
 37 38  2  0
 38 39  1  0
 39 40  2  0
 15 41  1  0
 41 42  1  0
 42 43  1  0
 43 44  1  0
 44 45  2  0
 45 46  1  0
 46 47  2  0
 47 48  1  0
 48 49  2  0
 43 50  1  0
 50 51  2  0
 51 52  1  0
 52 53  2  0
 53 54  1  0
 54 55  2  0
  8 56  1  0
  7 57  1  0
 10  6  1  0
 19 11  1  0
 19 14  1  0
 34 29  1  0
 40 35  1  0
 49 44  1  0
 55 50  1  0
M  END
$$$$
