
     RDKit          3D

 57 63  0  0  0  0  0  0  0  0999 V2000
    0.7980    6.6109   19.8195 C   0  0  0  0  0  0  0  0  0  0  0  0
    1.8892    7.3571   19.0812 C   0  0  0  0  0  0  0  0  0  0  0  0
    2.5619    6.4711   18.1582 N   0  0  0  0  0  0  0  0  0  0  0  0
    3.3841    6.9667   17.1351 C   0  0  0  0  0  0  0  0  0  0  0  0
    3.2282    8.1866   16.7828 O   0  0  0  0  0  0  0  0  0  0  0  0
    4.4141    6.2047   16.4276 C   0  0  0  0  0  0  0  0  0  0  0  0
    5.4595    7.0477   15.7391 C   0  0  0  0  0  0  0  0  0  0  0  0
    5.8573    6.0709   14.6172 C   0  0  0  0  0  0  0  0  0  0  0  0
    4.4975    5.5176   14.2888 C   0  0  0  0  0  0  0  0  0  0  0  0
    3.9151    5.3253   15.5127 O   0  0  0  0  0  0  0  0  0  0  0  0
    4.5495    4.3155   13.5088 N   0  0  0  0  0  0  0  0  0  0  0  0
    5.6853    3.6922   13.1498 C   0  0  0  0  0  0  0  0  0  0  0  0
    5.4219    2.6034   12.4242 N   0  0  0  0  0  0  0  0  0  0  0  0
    4.0843    2.4985   12.2968 C   0  0  0  0  0  0  0  0  0  0  0  0
    3.2431    1.6014   11.6709 C   0  0  0  0  0  0  0  0  0  0  0  0
    1.9288    1.8000   11.7430 N   0  0  0  0  0  0  0  0  0  0  0  0
    1.3844    2.8520   12.4092 C   0  0  0  0  0  0  0  0  0  0  0  0
    2.2233    3.7062   13.0070 N   0  0  0  0  0  0  0  0  0  0  0  0
    3.5617    3.5822   12.9848 C   0  0  0  0  0  0  0  0  0  0  0  0
   -0.0840    3.0170   12.4402 C   0  0  0  0  0  0  0  0  0  0  0  0
   -0.8242    2.1543   11.9137 O   0  0  0  0  0  0  0  0  0  0  0  0
   -0.6742    4.1433   13.0617 N   0  0  0  0  0  0  0  0  0  0  0  0
   -0.6175    4.3342   14.5145 C   0  0  0  0  0  0  0  0  0  0  0  0
    0.0680    5.6450   14.8396 C   0  0  0  0  0  0  0  0  0  0  0  0
   -0.0604    5.8967   16.2488 N   0  0  0  0  0  0  0  0  0  0  0  0
    0.1520    7.1424   16.8875 C   0  0  0  0  0  0  0  0  0  0  0  0
   -0.4587    8.1428   16.4904 O   0  0  0  0  0  0  0  0  0  0  0  0
    1.0505    7.2502   17.9680 N   0  0  0  0  0  0  0  0  0  0  0  0
    0.8549    8.1814   19.0673 C   0  0  0  0  0  0  0  0  0  0  0  0
    1.0468    7.5126   20.4227 C   0  0  0  0  0  0  0  0  0  0  0  0
    2.3280    6.7228   20.4173 C   0  0  0  0  0  0  0  0  0  0  0  0
    3.3937    7.6055   19.9162 N   0  0  0  0  0  0  0  0  0  0  0  0
    3.0969    8.9983   19.8756 C   0  0  0  0  0  0  0  0  0  0  0  0
    1.8982    9.2706   18.9846 C   0  0  0  0  0  0  0  0  0  0  0  0
    4.6134    7.0127   19.5200 C   0  0  0  0  0  0  0  0  0  0  0  0
    5.0319    5.7999   20.0005 C   0  0  0  0  0  0  0  0  0  0  0  0
    6.2540    5.2921   19.5520 C   0  0  0  0  0  0  0  0  0  0  0  0
    7.0275    5.9705   18.6579 C   0  0  0  0  0  0  0  0  0  0  0  0
    6.5798    7.1814   18.1967 C   0  0  0  0  0  0  0  0  0  0  0  0
    5.4140    7.6603   18.6279 N   0  0  0  0  0  0  0  0  0  0  0  0
    3.7674    0.4862   10.9610 N   0  0  0  0  0  0  0  0  0  0  0  0
    2.8844   -0.3961   10.2955 C   0  0  0  0  0  0  0  0  0  0  0  0
    2.7935   -0.3161    8.8217 C   0  0  0  0  0  0  0  0  0  0  0  0
    2.2439   -1.4659    8.1155 C   0  0  0  0  0  0  0  0  0  0  0  0
    2.8068   -1.9991    6.9824 C   0  0  0  0  0  0  0  0  0  0  0  0
    2.1893   -3.0967    6.4133 C   0  0  0  0  0  0  0  0  0  0  0  0
    1.0470   -3.6491    6.9517 C   0  0  0  0  0  0  0  0  0  0  0  0
    0.4670   -3.1256    8.0909 C   0  0  0  0  0  0  0  0  0  0  0  0
    1.0842   -2.0383    8.6496 C   0  0  0  0  0  0  0  0  0  0  0  0
    1.9136    0.8586    8.4777 C   0  0  0  0  0  0  0  0  0  0  0  0
    0.7881    1.1685    9.2100 C   0  0  0  0  0  0  0  0  0  0  0  0
    0.0489    2.2575    8.8502 C   0  0  0  0  0  0  0  0  0  0  0  0
    0.4026    3.0459    7.7791 C   0  0  0  0  0  0  0  0  0  0  0  0
    1.5120    2.7489    7.0498 C   0  0  0  0  0  0  0  0  0  0  0  0
    2.2803    1.6346    7.4075 C   0  0  0  0  0  0  0  0  0  0  0  0
    6.4245    6.7722   13.5829 O   0  0  0  0  0  0  0  0  0  0  0  0
    6.5461    7.2674   16.5469 O   0  0  0  0  0  0  0  0  0  0  0  0
  1  2  1  0
  2  3  1  0
  3  4  1  0
  4  5  2  0
  4  6  1  0
  6  7  1  0
  7  8  1  0
  8  9  1  0
  9 10  1  0
  9 11  1  0
 11 12  1  0
 12 13  2  0
 13 14  1  0
 14 15  2  0
 15 16  1  0
 16 17  2  0
 17 18  1  0
 18 19  2  0
 17 20  1  0
 20 21  2  0
 20 22  1  0
 22 23  1  0
 23 24  1  0
 24 25  1  0
 25 26  1  0
 26 27  2  0
 26 28  1  0
 28 29  1  0
 29 30  1  0
 30 31  1  0
 31 32  1  0
 32 33  1  0
 33 34  1  0
 32 35  1  0
 35 36  2  0
 36 37  1  0
 37 38  2  0
 38 39  1  0
 39 40  2  0
 15 41  1  0
 41 42  1  0
 42 43  1  0
 43 44  1  0
 44 45  2  0
 45 46  1  0
 46 47  2  0
 47 48  1  0
 48 49  2  0
 43 50  1  0
 50 51  2  0
 51 52  1  0
 52 53  2  0
 53 54  1  0
 54 55  2  0
  8 56  1  0
  7 57  1  0
 10  6  1  0
 19 11  1  0
 19 14  1  0
 34 29  1  0
 40 35  1  0
 49 44  1  0
 55 50  1  0
M  END
$$$$
