
     RDKit          3D

 57 63  0  0  0  0  0  0  0  0999 V2000
    3.6444   -5.4978   10.3812 C   0  0  0  0  0  0  0  0  0  0  0  0
    4.1881   -4.5866    9.3010 C   0  0  0  0  0  0  0  0  0  0  0  0
    3.2151   -3.5702    8.9702 N   0  0  0  0  0  0  0  0  0  0  0  0
    3.4829   -2.2076    9.1700 C   0  0  0  0  0  0  0  0  0  0  0  0
    4.6432   -1.8848    9.6011 O   0  0  0  0  0  0  0  0  0  0  0  0
    2.5435   -1.1118    8.9273 C   0  0  0  0  0  0  0  0  0  0  0  0
    2.8269   -0.3031    7.6849 C   0  0  0  0  0  0  0  0  0  0  0  0
    2.2023    1.0353    8.1201 C   0  0  0  0  0  0  0  0  0  0  0  0
    2.6337    1.0431    9.5612 C   0  0  0  0  0  0  0  0  0  0  0  0
    2.4279   -0.2458    9.9742 O   0  0  0  0  0  0  0  0  0  0  0  0
    1.9212    1.9975   10.3596 N   0  0  0  0  0  0  0  0  0  0  0  0
    0.7426    2.5455   10.0159 C   0  0  0  0  0  0  0  0  0  0  0  0
    0.3249    3.4014   10.9509 N   0  0  0  0  0  0  0  0  0  0  0  0
    1.2428    3.4247   11.9375 C   0  0  0  0  0  0  0  0  0  0  0  0
    1.3544    4.1024   13.1344 C   0  0  0  0  0  0  0  0  0  0  0  0
    2.4254    3.8854   13.8945 N   0  0  0  0  0  0  0  0  0  0  0  0
    3.4123    3.0224   13.5369 C   0  0  0  0  0  0  0  0  0  0  0  0
    3.2783    2.3785   12.3714 N   0  0  0  0  0  0  0  0  0  0  0  0
    2.2315    2.5373   11.5431 C   0  0  0  0  0  0  0  0  0  0  0  0
    4.5791    2.8372   14.4251 C   0  0  0  0  0  0  0  0  0  0  0  0
    5.5297    2.1034   14.0684 O   0  0  0  0  0  0  0  0  0  0  0  0
    4.6421    3.4820   15.6834 N   0  0  0  0  0  0  0  0  0  0  0  0
    3.4512    4.0727   16.3022 C   0  0  0  0  0  0  0  0  0  0  0  0
    3.8125    4.6931   17.6357 C   0  0  0  0  0  0  0  0  0  0  0  0
    3.8886    6.1196   17.4763 N   0  0  0  0  0  0  0  0  0  0  0  0
    4.0324    7.0607   18.5244 C   0  0  0  0  0  0  0  0  0  0  0  0
    3.0337    7.4236   19.1588 O   0  0  0  0  0  0  0  0  0  0  0  0
    5.3000    7.5847   18.8487 N   0  0  0  0  0  0  0  0  0  0  0  0
    5.4780    8.8637   19.5166 C   0  0  0  0  0  0  0  0  0  0  0  0
    5.0326    8.8140   20.9728 C   0  0  0  0  0  0  0  0  0  0  0  0
    5.6317    7.6059   21.6413 C   0  0  0  0  0  0  0  0  0  0  0  0
    7.0745    7.6056   21.3513 N   0  0  0  0  0  0  0  0  0  0  0  0
    7.6196    8.8197   20.8429 C   0  0  0  0  0  0  0  0  0  0  0  0
    6.9481    9.2100   19.5384 C   0  0  0  0  0  0  0  0  0  0  0  0
    7.7994    6.4180   21.5967 C   0  0  0  0  0  0  0  0  0  0  0  0
    7.4809    5.5592   22.6155 C   0  0  0  0  0  0  0  0  0  0  0  0
    8.2556    4.4083   22.7825 C   0  0  0  0  0  0  0  0  0  0  0  0
    9.3076    4.1270   21.9629 C   0  0  0  0  0  0  0  0  0  0  0  0
    9.5996    5.0070   20.9530 C   0  0  0  0  0  0  0  0  0  0  0  0
    8.8576    6.1024   20.7987 N   0  0  0  0  0  0  0  0  0  0  0  0
    0.3470    5.0164   13.5494 N   0  0  0  0  0  0  0  0  0  0  0  0
    0.2224    5.3436   14.9200 C   0  0  0  0  0  0  0  0  0  0  0  0
    1.1189    6.3795   15.4767 C   0  0  0  0  0  0  0  0  0  0  0  0
    1.8553    7.2125   14.5350 C   0  0  0  0  0  0  0  0  0  0  0  0
    1.2683    7.8586   13.4752 C   0  0  0  0  0  0  0  0  0  0  0  0
    2.0798    8.6249   12.6603 C   0  0  0  0  0  0  0  0  0  0  0  0
    3.4336    8.7466   12.8892 C   0  0  0  0  0  0  0  0  0  0  0  0
    4.0408    8.1036   13.9503 C   0  0  0  0  0  0  0  0  0  0  0  0
    3.2308    7.3463   14.7538 C   0  0  0  0  0  0  0  0  0  0  0  0
    0.2803    7.3144   16.3106 C   0  0  0  0  0  0  0  0  0  0  0  0
    0.0864    8.6328   15.9594 C   0  0  0  0  0  0  0  0  0  0  0  0
   -0.6997    9.4159   16.7536 C   0  0  0  0  0  0  0  0  0  0  0  0
   -1.2977    8.9187   17.8889 C   0  0  0  0  0  0  0  0  0  0  0  0
   -1.1130    7.6185   18.2444 C   0  0  0  0  0  0  0  0  0  0  0  0
   -0.3091    6.8031   17.4388 C   0  0  0  0  0  0  0  0  0  0  0  0
    2.7498    2.0545    7.3820 O   0  0  0  0  0  0  0  0  0  0  0  0
    2.1407   -0.7848    6.5992 O   0  0  0  0  0  0  0  0  0  0  0  0
  1  2  1  0
  2  3  1  0
  3  4  1  0
  4  5  2  0
  4  6  1  0
  6  7  1  0
  7  8  1  0
  8  9  1  0
  9 10  1  0
  9 11  1  0
 11 12  1  0
 12 13  2  0
 13 14  1  0
 14 15  2  0
 15 16  1  0
 16 17  2  0
 17 18  1  0
 18 19  2  0
 17 20  1  0
 20 21  2  0
 20 22  1  0
 22 23  1  0
 23 24  1  0
 24 25  1  0
 25 26  1  0
 26 27  2  0
 26 28  1  0
 28 29  1  0
 29 30  1  0
 30 31  1  0
 31 32  1  0
 32 33  1  0
 33 34  1  0
 32 35  1  0
 35 36  2  0
 36 37  1  0
 37 38  2  0
 38 39  1  0
 39 40  2  0
 15 41  1  0
 41 42  1  0
 42 43  1  0
 43 44  1  0
 44 45  2  0
 45 46  1  0
 46 47  2  0
 47 48  1  0
 48 49  2  0
 43 50  1  0
 50 51  2  0
 51 52  1  0
 52 53  2  0
 53 54  1  0
 54 55  2  0
  8 56  1  0
  7 57  1  0
 10  6  1  0
 19 11  1  0
 19 14  1  0
 34 29  1  0
 40 35  1  0
 49 44  1  0
 55 50  1  0
M  END
$$$$
