
     RDKit          3D

 57 63  0  0  0  0  0  0  0  0999 V2000
    0.1679   -2.6847    6.0578 C   0  0  0  0  0  0  0  0  0  0  0  0
    1.2814   -1.6586    6.0577 C   0  0  0  0  0  0  0  0  0  0  0  0
    1.7707   -1.4542    7.4024 N   0  0  0  0  0  0  0  0  0  0  0  0
    1.4527   -0.2971    8.1291 C   0  0  0  0  0  0  0  0  0  0  0  0
    1.0073    0.7113    7.4802 O   0  0  0  0  0  0  0  0  0  0  0  0
    1.5870   -0.1391    9.5780 C   0  0  0  0  0  0  0  0  0  0  0  0
    0.3425    0.3525   10.2758 C   0  0  0  0  0  0  0  0  0  0  0  0
    1.0001    1.0449   11.4838 C   0  0  0  0  0  0  0  0  0  0  0  0
    2.1884    1.6550   10.7917 C   0  0  0  0  0  0  0  0  0  0  0  0
    2.6221    0.6675    9.9486 O   0  0  0  0  0  0  0  0  0  0  0  0
    3.2089    2.0914   11.6997 N   0  0  0  0  0  0  0  0  0  0  0  0
    4.3949    1.4789   11.8597 C   0  0  0  0  0  0  0  0  0  0  0  0
    5.1355    2.1073   12.7751 N   0  0  0  0  0  0  0  0  0  0  0  0
    4.4295    3.1594   13.2346 C   0  0  0  0  0  0  0  0  0  0  0  0
    4.6701    4.1487   14.1661 C   0  0  0  0  0  0  0  0  0  0  0  0
    3.7280    5.0633   14.3851 N   0  0  0  0  0  0  0  0  0  0  0  0
    2.5393    5.0599   13.7266 C   0  0  0  0  0  0  0  0  0  0  0  0
    2.3327    4.0894   12.8287 N   0  0  0  0  0  0  0  0  0  0  0  0
    3.2277    3.1271   12.5453 C   0  0  0  0  0  0  0  0  0  0  0  0
    1.5340    6.1008   14.0269 C   0  0  0  0  0  0  0  0  0  0  0  0
    0.3423    5.9436   13.6739 O   0  0  0  0  0  0  0  0  0  0  0  0
    1.8977    7.2834   14.7142 N   0  0  0  0  0  0  0  0  0  0  0  0
    1.8199    7.3750   16.1756 C   0  0  0  0  0  0  0  0  0  0  0  0
    0.3993    7.6820   16.6017 C   0  0  0  0  0  0  0  0  0  0  0  0
    0.4358    8.4199   17.8346 N   0  0  0  0  0  0  0  0  0  0  0  0
   -0.2635    8.0835   19.0189 C   0  0  0  0  0  0  0  0  0  0  0  0
   -0.5580    6.9016   19.2379 O   0  0  0  0  0  0  0  0  0  0  0  0
   -0.6248    9.0814   19.9463 N   0  0  0  0  0  0  0  0  0  0  0  0
   -2.0069    9.4327   20.2295 C   0  0  0  0  0  0  0  0  0  0  0  0
   -2.7463    8.3087   20.9444 C   0  0  0  0  0  0  0  0  0  0  0  0
   -1.9171    7.8159   22.0997 C   0  0  0  0  0  0  0  0  0  0  0  0
   -1.5034    8.9902   22.8844 N   0  0  0  0  0  0  0  0  0  0  0  0
   -2.1967   10.2063   22.6196 C   0  0  0  0  0  0  0  0  0  0  0  0
   -2.0343   10.6167   21.1670 C   0  0  0  0  0  0  0  0  0  0  0  0
   -0.4651    8.8242   23.8280 C   0  0  0  0  0  0  0  0  0  0  0  0
    0.0407    9.8686   24.5564 C   0  0  0  0  0  0  0  0  0  0  0  0
    1.0686    9.6090   25.4667 C   0  0  0  0  0  0  0  0  0  0  0  0
    1.5712    8.3542   25.6420 C   0  0  0  0  0  0  0  0  0  0  0  0
    1.0428    7.3313   24.8975 C   0  0  0  0  0  0  0  0  0  0  0  0
    0.0631    7.5849   24.0313 N   0  0  0  0  0  0  0  0  0  0  0  0
    5.8990    4.1918   14.8806 N   0  0  0  0  0  0  0  0  0  0  0  0
    5.8869    4.1471   16.2944 C   0  0  0  0  0  0  0  0  0  0  0  0
    5.9360    5.4257   17.0357 C   0  0  0  0  0  0  0  0  0  0  0  0
    6.3228    5.3780   18.4396 C   0  0  0  0  0  0  0  0  0  0  0  0
    7.6119    5.5575   18.8769 C   0  0  0  0  0  0  0  0  0  0  0  0
    7.8435    5.4953   20.2378 C   0  0  0  0  0  0  0  0  0  0  0  0
    6.8269    5.2615   21.1388 C   0  0  0  0  0  0  0  0  0  0  0  0
    5.5244    5.0784   20.7167 C   0  0  0  0  0  0  0  0  0  0  0  0
    5.3021    5.1417   19.3670 C   0  0  0  0  0  0  0  0  0  0  0  0
    6.9350    6.3197   16.3463 C   0  0  0  0  0  0  0  0  0  0  0  0
    6.7407    6.7793   15.0617 C   0  0  0  0  0  0  0  0  0  0  0  0
    7.6800    7.5996   14.5079 C   0  0  0  0  0  0  0  0  0  0  0  0
    8.8081    7.9739   15.2015 C   0  0  0  0  0  0  0  0  0  0  0  0
    9.0093    7.5259   16.4704 C   0  0  0  0  0  0  0  0  0  0  0  0
    8.0538    6.6838   17.0516 C   0  0  0  0  0  0  0  0  0  0  0  0
    0.1346    1.9752   12.0021 O   0  0  0  0  0  0  0  0  0  0  0  0
   -0.4320   -0.6874   10.7235 O   0  0  0  0  0  0  0  0  0  0  0  0
  1  2  1  0
  2  3  1  0
  3  4  1  0
  4  5  2  0
  4  6  1  0
  6  7  1  0
  7  8  1  0
  8  9  1  0
  9 10  1  0
  9 11  1  0
 11 12  1  0
 12 13  2  0
 13 14  1  0
 14 15  2  0
 15 16  1  0
 16 17  2  0
 17 18  1  0
 18 19  2  0
 17 20  1  0
 20 21  2  0
 20 22  1  0
 22 23  1  0
 23 24  1  0
 24 25  1  0
 25 26  1  0
 26 27  2  0
 26 28  1  0
 28 29  1  0
 29 30  1  0
 30 31  1  0
 31 32  1  0
 32 33  1  0
 33 34  1  0
 32 35  1  0
 35 36  2  0
 36 37  1  0
 37 38  2  0
 38 39  1  0
 39 40  2  0
 15 41  1  0
 41 42  1  0
 42 43  1  0
 43 44  1  0
 44 45  2  0
 45 46  1  0
 46 47  2  0
 47 48  1  0
 48 49  2  0
 43 50  1  0
 50 51  2  0
 51 52  1  0
 52 53  2  0
 53 54  1  0
 54 55  2  0
  8 56  1  0
  7 57  1  0
 10  6  1  0
 19 11  1  0
 19 14  1  0
 34 29  1  0
 40 35  1  0
 49 44  1  0
 55 50  1  0
M  END
$$$$
