
     RDKit          3D

 57 63  0  0  0  0  0  0  0  0999 V2000
    7.7936    3.0897   22.3291 C   0  0  0  0  0  0  0  0  0  0  0  0
    6.9617    4.1116   21.5832 C   0  0  0  0  0  0  0  0  0  0  0  0
    7.3013    4.1009   20.1782 N   0  0  0  0  0  0  0  0  0  0  0  0
    6.7566    5.0367   19.2862 C   0  0  0  0  0  0  0  0  0  0  0  0
    5.9776    5.9323   19.7632 O   0  0  0  0  0  0  0  0  0  0  0  0
    7.0021    5.0796   17.8439 C   0  0  0  0  0  0  0  0  0  0  0  0
    6.9942    6.4648   17.2449 C   0  0  0  0  0  0  0  0  0  0  0  0
    6.5648    6.1054   15.8105 C   0  0  0  0  0  0  0  0  0  0  0  0
    5.5548    5.0357   16.1244 C   0  0  0  0  0  0  0  0  0  0  0  0
    6.1472    4.3039   17.1182 O   0  0  0  0  0  0  0  0  0  0  0  0
    5.2050    4.2368   14.9861 N   0  0  0  0  0  0  0  0  0  0  0  0
    6.0851    3.7891   14.0737 C   0  0  0  0  0  0  0  0  0  0  0  0
    5.4692    3.0774   13.1275 N   0  0  0  0  0  0  0  0  0  0  0  0
    4.1526    3.0499   13.4144 C   0  0  0  0  0  0  0  0  0  0  0  0
    3.0469    2.4832   12.8139 C   0  0  0  0  0  0  0  0  0  0  0  0
    1.8539    2.6559   13.3786 N   0  0  0  0  0  0  0  0  0  0  0  0
    1.6836    3.3685   14.5230 C   0  0  0  0  0  0  0  0  0  0  0  0
    2.7728    3.9068   15.0841 N   0  0  0  0  0  0  0  0  0  0  0  0
    4.0138    3.7827   14.5824 C   0  0  0  0  0  0  0  0  0  0  0  0
    0.3280    3.5285   15.0899 C   0  0  0  0  0  0  0  0  0  0  0  0
   -0.6640    3.6177   14.3300 O   0  0  0  0  0  0  0  0  0  0  0  0
    0.1292    3.5823   16.4901 N   0  0  0  0  0  0  0  0  0  0  0  0
    1.2543    3.7315   17.4186 C   0  0  0  0  0  0  0  0  0  0  0  0
    0.8123    4.4909   18.6522 C   0  0  0  0  0  0  0  0  0  0  0  0
    0.9808    5.8982   18.4135 N   0  0  0  0  0  0  0  0  0  0  0  0
    1.9813    6.7189   18.9883 C   0  0  0  0  0  0  0  0  0  0  0  0
    2.8199    6.2166   19.7471 O   0  0  0  0  0  0  0  0  0  0  0  0
    2.0283    8.0984   18.7031 N   0  0  0  0  0  0  0  0  0  0  0  0
    2.5207    9.0842   19.6515 C   0  0  0  0  0  0  0  0  0  0  0  0
    4.0392    9.0529   19.7705 C   0  0  0  0  0  0  0  0  0  0  0  0
    4.6521    9.0631   18.3959 C   0  0  0  0  0  0  0  0  0  0  0  0
    4.0328   10.1635   17.6399 N   0  0  0  0  0  0  0  0  0  0  0  0
    3.3059   11.1247   18.3997 C   0  0  0  0  0  0  0  0  0  0  0  0
    2.1663   10.4667   19.1568 C   0  0  0  0  0  0  0  0  0  0  0  0
    4.2047   10.1830   16.2377 C   0  0  0  0  0  0  0  0  0  0  0  0
    5.2209    9.5102   15.6120 C   0  0  0  0  0  0  0  0  0  0  0  0
    5.3124    9.5880   14.2197 C   0  0  0  0  0  0  0  0  0  0  0  0
    4.4225   10.3103   13.4820 C   0  0  0  0  0  0  0  0  0  0  0  0
    3.4174   10.9717   14.1391 C   0  0  0  0  0  0  0  0  0  0  0  0
    3.3352   10.8938   15.4664 N   0  0  0  0  0  0  0  0  0  0  0  0
    3.1764    1.7300   11.6145 N   0  0  0  0  0  0  0  0  0  0  0  0
    2.0171    1.3607   10.8931 C   0  0  0  0  0  0  0  0  0  0  0  0
    1.5816    2.2272    9.7767 C   0  0  0  0  0  0  0  0  0  0  0  0
    0.7707    1.6218    8.7285 C   0  0  0  0  0  0  0  0  0  0  0  0
    0.3248    2.3062    7.6249 C   0  0  0  0  0  0  0  0  0  0  0  0
   -0.4311    1.6116    6.6998 C   0  0  0  0  0  0  0  0  0  0  0  0
   -0.7363    0.2775    6.8642 C   0  0  0  0  0  0  0  0  0  0  0  0
   -0.2965   -0.4266    7.9683 C   0  0  0  0  0  0  0  0  0  0  0  0
    0.4522    0.2678    8.8807 C   0  0  0  0  0  0  0  0  0  0  0  0
    0.7610    3.3501   10.3584 C   0  0  0  0  0  0  0  0  0  0  0  0
   -0.1541    3.1405   11.3672 C   0  0  0  0  0  0  0  0  0  0  0  0
   -0.8488    4.2079   11.8568 C   0  0  0  0  0  0  0  0  0  0  0  0
   -0.6549    5.4792   11.3668 C   0  0  0  0  0  0  0  0  0  0  0  0
    0.2462    5.6970   10.3711 C   0  0  0  0  0  0  0  0  0  0  0  0
    0.9666    4.6111    9.8592 C   0  0  0  0  0  0  0  0  0  0  0  0
    6.0183    7.2110   15.2084 O   0  0  0  0  0  0  0  0  0  0  0  0
    8.2526    7.0099   17.2117 O   0  0  0  0  0  0  0  0  0  0  0  0
  1  2  1  0
  2  3  1  0
  3  4  1  0
  4  5  2  0
  4  6  1  0
  6  7  1  0
  7  8  1  0
  8  9  1  0
  9 10  1  0
  9 11  1  0
 11 12  1  0
 12 13  2  0
 13 14  1  0
 14 15  2  0
 15 16  1  0
 16 17  2  0
 17 18  1  0
 18 19  2  0
 17 20  1  0
 20 21  2  0
 20 22  1  0
 22 23  1  0
 23 24  1  0
 24 25  1  0
 25 26  1  0
 26 27  2  0
 26 28  1  0
 28 29  1  0
 29 30  1  0
 30 31  1  0
 31 32  1  0
 32 33  1  0
 33 34  1  0
 32 35  1  0
 35 36  2  0
 36 37  1  0
 37 38  2  0
 38 39  1  0
 39 40  2  0
 15 41  1  0
 41 42  1  0
 42 43  1  0
 43 44  1  0
 44 45  2  0
 45 46  1  0
 46 47  2  0
 47 48  1  0
 48 49  2  0
 43 50  1  0
 50 51  2  0
 51 52  1  0
 52 53  2  0
 53 54  1  0
 54 55  2  0
  8 56  1  0
  7 57  1  0
 10  6  1  0
 19 11  1  0
 19 14  1  0
 34 29  1  0
 40 35  1  0
 49 44  1  0
 55 50  1  0
M  END
$$$$
