
     RDKit          3D

 57 63  0  0  0  0  0  0  0  0999 V2000
    1.8520   -4.6142    5.6895 C   0  0  0  0  0  0  0  0  0  0  0  0
    2.2440   -3.1524    5.7357 C   0  0  0  0  0  0  0  0  0  0  0  0
    2.1748   -2.6606    7.0931 N   0  0  0  0  0  0  0  0  0  0  0  0
    1.5650   -1.4343    7.3974 C   0  0  0  0  0  0  0  0  0  0  0  0
    1.0208   -0.7847    6.4391 O   0  0  0  0  0  0  0  0  0  0  0  0
    1.4957   -0.8257    8.7267 C   0  0  0  0  0  0  0  0  0  0  0  0
    0.3420    0.1271    8.9235 C   0  0  0  0  0  0  0  0  0  0  0  0
    0.9578    1.0318   10.0067 C   0  0  0  0  0  0  0  0  0  0  0  0
    2.3675    1.1021    9.4863 C   0  0  0  0  0  0  0  0  0  0  0  0
    2.6395   -0.1814    9.0957 O   0  0  0  0  0  0  0  0  0  0  0  0
    3.3040    1.5931   10.4549 N   0  0  0  0  0  0  0  0  0  0  0  0
    4.5897    1.2075   10.5309 C   0  0  0  0  0  0  0  0  0  0  0  0
    5.2145    1.8289   11.5333 N   0  0  0  0  0  0  0  0  0  0  0  0
    4.3282    2.6448   12.1376 C   0  0  0  0  0  0  0  0  0  0  0  0
    4.3929    3.5161   13.2057 C   0  0  0  0  0  0  0  0  0  0  0  0
    3.2963    4.1874   13.5506 N   0  0  0  0  0  0  0  0  0  0  0  0
    2.1164    4.0473   12.8911 C   0  0  0  0  0  0  0  0  0  0  0  0
    2.0821    3.1959   11.8592 N   0  0  0  0  0  0  0  0  0  0  0  0
    3.1403    2.4786   11.4435 C   0  0  0  0  0  0  0  0  0  0  0  0
    0.9351    4.8170   13.3345 C   0  0  0  0  0  0  0  0  0  0  0  0
   -0.2152    4.4493   13.0014 O   0  0  0  0  0  0  0  0  0  0  0  0
    1.0824    5.9729   14.1378 N   0  0  0  0  0  0  0  0  0  0  0  0
    1.0075    5.9041   15.6006 C   0  0  0  0  0  0  0  0  0  0  0  0
    1.1634    7.2887   16.1941 C   0  0  0  0  0  0  0  0  0  0  0  0
   -0.0276    8.0455   15.9208 N   0  0  0  0  0  0  0  0  0  0  0  0
   -0.9544    8.5040   16.8881 C   0  0  0  0  0  0  0  0  0  0  0  0
   -1.8874    7.7686   17.2347 O   0  0  0  0  0  0  0  0  0  0  0  0
   -0.8219    9.7869   17.4566 N   0  0  0  0  0  0  0  0  0  0  0  0
   -1.9588   10.5675   17.9170 C   0  0  0  0  0  0  0  0  0  0  0  0
   -2.6029    9.9607   19.1571 C   0  0  0  0  0  0  0  0  0  0  0  0
   -1.5385    9.6416   20.1722 C   0  0  0  0  0  0  0  0  0  0  0  0
   -0.7033   10.8425   20.3348 N   0  0  0  0  0  0  0  0  0  0  0  0
   -1.2322   12.0582   19.8135 C   0  0  0  0  0  0  0  0  0  0  0  0
   -1.4833   11.9432   18.3207 C   0  0  0  0  0  0  0  0  0  0  0  0
    0.5417   10.7002   20.9873 C   0  0  0  0  0  0  0  0  0  0  0  0
    1.5955   11.5438   20.7530 C   0  0  0  0  0  0  0  0  0  0  0  0
    2.7897   11.3251   21.4448 C   0  0  0  0  0  0  0  0  0  0  0  0
    2.9250   10.3029   22.3362 C   0  0  0  0  0  0  0  0  0  0  0  0
    1.8514    9.4770   22.5476 C   0  0  0  0  0  0  0  0  0  0  0  0
    0.7155    9.6904   21.8852 N   0  0  0  0  0  0  0  0  0  0  0  0
    5.6058    3.6944   13.9266 N   0  0  0  0  0  0  0  0  0  0  0  0
    5.7014    4.7272   14.8884 C   0  0  0  0  0  0  0  0  0  0  0  0
    5.2071    4.4583   16.2560 C   0  0  0  0  0  0  0  0  0  0  0  0
    5.8287    5.1866   17.3542 C   0  0  0  0  0  0  0  0  0  0  0  0
    6.7670    4.6372   18.1926 C   0  0  0  0  0  0  0  0  0  0  0  0
    7.2845    5.4395   19.1918 C   0  0  0  0  0  0  0  0  0  0  0  0
    6.8831    6.7480   19.3551 C   0  0  0  0  0  0  0  0  0  0  0  0
    5.9403    7.3169   18.5211 C   0  0  0  0  0  0  0  0  0  0  0  0
    5.4320    6.5163   17.5331 C   0  0  0  0  0  0  0  0  0  0  0  0
    3.7395    4.8012   16.2910 C   0  0  0  0  0  0  0  0  0  0  0  0
    3.1542    5.6080   15.3394 C   0  0  0  0  0  0  0  0  0  0  0  0
    1.8161    5.8613   15.4252 C   0  0  0  0  0  0  0  0  0  0  0  0
    1.0463    5.3311   16.4351 C   0  0  0  0  0  0  0  0  0  0  0  0
    1.6143    4.5332   17.3795 C   0  0  0  0  0  0  0  0  0  0  0  0
    2.9862    4.2643   17.3039 C   0  0  0  0  0  0  0  0  0  0  0  0
    0.3156    2.2447   10.0060 O   0  0  0  0  0  0  0  0  0  0  0  0
   -0.7570   -0.5082    9.4433 O   0  0  0  0  0  0  0  0  0  0  0  0
  1  2  1  0
  2  3  1  0
  3  4  1  0
  4  5  2  0
  4  6  1  0
  6  7  1  0
  7  8  1  0
  8  9  1  0
  9 10  1  0
  9 11  1  0
 11 12  1  0
 12 13  2  0
 13 14  1  0
 14 15  2  0
 15 16  1  0
 16 17  2  0
 17 18  1  0
 18 19  2  0
 17 20  1  0
 20 21  2  0
 20 22  1  0
 22 23  1  0
 23 24  1  0
 24 25  1  0
 25 26  1  0
 26 27  2  0
 26 28  1  0
 28 29  1  0
 29 30  1  0
 30 31  1  0
 31 32  1  0
 32 33  1  0
 33 34  1  0
 32 35  1  0
 35 36  2  0
 36 37  1  0
 37 38  2  0
 38 39  1  0
 39 40  2  0
 15 41  1  0
 41 42  1  0
 42 43  1  0
 43 44  1  0
 44 45  2  0
 45 46  1  0
 46 47  2  0
 47 48  1  0
 48 49  2  0
 43 50  1  0
 50 51  2  0
 51 52  1  0
 52 53  2  0
 53 54  1  0
 54 55  2  0
  8 56  1  0
  7 57  1  0
 10  6  1  0
 19 11  1  0
 19 14  1  0
 34 29  1  0
 40 35  1  0
 49 44  1  0
 55 50  1  0
M  END
$$$$
