
     RDKit          3D

 57 63  0  0  0  0  0  0  0  0999 V2000
   10.6434    4.5613    6.6213 C   0  0  0  0  0  0  0  0  0  0  0  0
    9.9671    5.8854    6.9080 C   0  0  0  0  0  0  0  0  0  0  0  0
    8.5569    5.6821    7.1515 N   0  0  0  0  0  0  0  0  0  0  0  0
    7.8447    6.4916    8.0492 C   0  0  0  0  0  0  0  0  0  0  0  0
    8.4334    7.5279    8.5139 O   0  0  0  0  0  0  0  0  0  0  0  0
    6.4749    6.2533    8.5064 C   0  0  0  0  0  0  0  0  0  0  0  0
    5.9381    7.2956    9.4568 C   0  0  0  0  0  0  0  0  0  0  0  0
    4.9223    6.4261   10.2204 C   0  0  0  0  0  0  0  0  0  0  0  0
    5.7207    5.1549   10.3170 C   0  0  0  0  0  0  0  0  0  0  0  0
    6.2925    5.0295    9.0795 O   0  0  0  0  0  0  0  0  0  0  0  0
    4.9278    4.0150   10.6752 N   0  0  0  0  0  0  0  0  0  0  0  0
    4.8697    2.8766    9.9624 C   0  0  0  0  0  0  0  0  0  0  0  0
    4.0466    1.9969   10.5369 N   0  0  0  0  0  0  0  0  0  0  0  0
    3.5461    2.5596   11.6546 C   0  0  0  0  0  0  0  0  0  0  0  0
    2.6670    2.1425   12.6330 C   0  0  0  0  0  0  0  0  0  0  0  0
    2.3792    2.9751   13.6310 N   0  0  0  0  0  0  0  0  0  0  0  0
    2.9181    4.2193   13.7228 C   0  0  0  0  0  0  0  0  0  0  0  0
    3.7676    4.5977   12.7605 N   0  0  0  0  0  0  0  0  0  0  0  0
    4.1135    3.8223   11.7183 C   0  0  0  0  0  0  0  0  0  0  0  0
    2.5463    5.0955   14.8536 C   0  0  0  0  0  0  0  0  0  0  0  0
    3.2977    6.0399   15.1897 O   0  0  0  0  0  0  0  0  0  0  0  0
    1.3438    4.8847   15.5695 N   0  0  0  0  0  0  0  0  0  0  0  0
    0.4171    5.9855   15.8517 C   0  0  0  0  0  0  0  0  0  0  0  0
    0.8406    6.7105   17.1122 C   0  0  0  0  0  0  0  0  0  0  0  0
    0.9855    5.7498   18.1714 N   0  0  0  0  0  0  0  0  0  0  0  0
    0.2349    5.7252   19.3718 C   0  0  0  0  0  0  0  0  0  0  0  0
   -0.9939    5.8632   19.3250 O   0  0  0  0  0  0  0  0  0  0  0  0
    0.8754    5.5451   20.6143 N   0  0  0  0  0  0  0  0  0  0  0  0
    0.2454    5.8755   21.8823 C   0  0  0  0  0  0  0  0  0  0  0  0
    0.9200    5.1741   23.0545 C   0  0  0  0  0  0  0  0  0  0  0  0
    2.4104    5.3624   22.9636 C   0  0  0  0  0  0  0  0  0  0  0  0
    2.6671    6.7981   22.7666 N   0  0  0  0  0  0  0  0  0  0  0  0
    1.5788    7.6790   23.0297 C   0  0  0  0  0  0  0  0  0  0  0  0
    0.3937    7.3570   22.1371 C   0  0  0  0  0  0  0  0  0  0  0  0
    3.9557    7.1881   22.3382 C   0  0  0  0  0  0  0  0  0  0  0  0
    4.2720    8.4894   22.0490 C   0  0  0  0  0  0  0  0  0  0  0  0
    5.5733    8.7809   21.6312 C   0  0  0  0  0  0  0  0  0  0  0  0
    6.5212    7.8093   21.5074 C   0  0  0  0  0  0  0  0  0  0  0  0
    6.1719    6.5173   21.8048 C   0  0  0  0  0  0  0  0  0  0  0  0
    4.9300    6.2455   22.2026 N   0  0  0  0  0  0  0  0  0  0  0  0
    2.0773    0.8495   12.5780 N   0  0  0  0  0  0  0  0  0  0  0  0
    1.1515    0.4611   13.5744 C   0  0  0  0  0  0  0  0  0  0  0  0
   -0.2890    0.6642   13.3090 C   0  0  0  0  0  0  0  0  0  0  0  0
   -0.7108    1.9779   12.8407 C   0  0  0  0  0  0  0  0  0  0  0  0
   -1.2196    2.2076   11.5863 C   0  0  0  0  0  0  0  0  0  0  0  0
   -1.5896    3.5010   11.2697 C   0  0  0  0  0  0  0  0  0  0  0  0
   -1.4586    4.5362   12.1703 C   0  0  0  0  0  0  0  0  0  0  0  0
   -0.9485    4.3234   13.4363 C   0  0  0  0  0  0  0  0  0  0  0  0
   -0.5843    3.0395   13.7433 C   0  0  0  0  0  0  0  0  0  0  0  0
   -0.7056   -0.3227   12.2484 C   0  0  0  0  0  0  0  0  0  0  0  0
   -2.0299   -0.5589   11.9490 C   0  0  0  0  0  0  0  0  0  0  0  0
   -2.3317   -1.4539   10.9642 C   0  0  0  0  0  0  0  0  0  0  0  0
   -1.3475   -2.1198   10.2701 C   0  0  0  0  0  0  0  0  0  0  0  0
   -0.0371   -1.8937   10.5578 C   0  0  0  0  0  0  0  0  0  0  0  0
    0.2876   -0.9777   11.5656 C   0  0  0  0  0  0  0  0  0  0  0  0
    4.6591    6.9983   11.4397 O   0  0  0  0  0  0  0  0  0  0  0  0
    5.2657    8.2894    8.7919 O   0  0  0  0  0  0  0  0  0  0  0  0
  1  2  1  0
  2  3  1  0
  3  4  1  0
  4  5  2  0
  4  6  1  0
  6  7  1  0
  7  8  1  0
  8  9  1  0
  9 10  1  0
  9 11  1  0
 11 12  1  0
 12 13  2  0
 13 14  1  0
 14 15  2  0
 15 16  1  0
 16 17  2  0
 17 18  1  0
 18 19  2  0
 17 20  1  0
 20 21  2  0
 20 22  1  0
 22 23  1  0
 23 24  1  0
 24 25  1  0
 25 26  1  0
 26 27  2  0
 26 28  1  0
 28 29  1  0
 29 30  1  0
 30 31  1  0
 31 32  1  0
 32 33  1  0
 33 34  1  0
 32 35  1  0
 35 36  2  0
 36 37  1  0
 37 38  2  0
 38 39  1  0
 39 40  2  0
 15 41  1  0
 41 42  1  0
 42 43  1  0
 43 44  1  0
 44 45  2  0
 45 46  1  0
 46 47  2  0
 47 48  1  0
 48 49  2  0
 43 50  1  0
 50 51  2  0
 51 52  1  0
 52 53  2  0
 53 54  1  0
 54 55  2  0
  8 56  1  0
  7 57  1  0
 10  6  1  0
 19 11  1  0
 19 14  1  0
 34 29  1  0
 40 35  1  0
 49 44  1  0
 55 50  1  0
M  END
$$$$
