
     RDKit          3D

 57 63  0  0  0  0  0  0  0  0999 V2000
   12.4531    4.4923   20.6123 C   0  0  0  0  0  0  0  0  0  0  0  0
   11.4243    3.3824   20.6601 C   0  0  0  0  0  0  0  0  0  0  0  0
   10.4983    3.5135   19.5579 N   0  0  0  0  0  0  0  0  0  0  0  0
    9.3543    4.3198   19.6548 C   0  0  0  0  0  0  0  0  0  0  0  0
    9.0962    4.8553   20.7875 O   0  0  0  0  0  0  0  0  0  0  0  0
    8.4203    4.6051   18.5647 C   0  0  0  0  0  0  0  0  0  0  0  0
    7.2480    5.4734   18.9512 C   0  0  0  0  0  0  0  0  0  0  0  0
    6.2273    4.9792   17.9095 C   0  0  0  0  0  0  0  0  0  0  0  0
    6.5632    3.5129   17.9228 C   0  0  0  0  0  0  0  0  0  0  0  0
    7.9316    3.4881   17.9540 O   0  0  0  0  0  0  0  0  0  0  0  0
    6.0250    2.7994   16.8015 N   0  0  0  0  0  0  0  0  0  0  0  0
    6.6132    1.7370   16.2245 C   0  0  0  0  0  0  0  0  0  0  0  0
    5.8839    1.2863   15.2017 N   0  0  0  0  0  0  0  0  0  0  0  0
    4.7878    2.0632   15.0944 C   0  0  0  0  0  0  0  0  0  0  0  0
    3.6991    2.0822   14.2468 C   0  0  0  0  0  0  0  0  0  0  0  0
    2.7673    3.0162   14.4237 N   0  0  0  0  0  0  0  0  0  0  0  0
    2.8474    3.9511   15.4067 C   0  0  0  0  0  0  0  0  0  0  0  0
    3.9137    3.9093   16.2143 N   0  0  0  0  0  0  0  0  0  0  0  0
    4.9002    3.0023   16.1073 C   0  0  0  0  0  0  0  0  0  0  0  0
    1.7810    4.9658   15.5395 C   0  0  0  0  0  0  0  0  0  0  0  0
    1.9614    5.9762   16.2578 O   0  0  0  0  0  0  0  0  0  0  0  0
    0.5478    4.8147   14.8617 N   0  0  0  0  0  0  0  0  0  0  0  0
    0.3975    5.1889   13.4519 C   0  0  0  0  0  0  0  0  0  0  0  0
    0.3253    6.6959   13.3195 C   0  0  0  0  0  0  0  0  0  0  0  0
   -1.0307    7.0695   13.0239 N   0  0  0  0  0  0  0  0  0  0  0  0
   -1.8361    7.9367   13.8011 C   0  0  0  0  0  0  0  0  0  0  0  0
   -2.0866    7.6449   14.9774 O   0  0  0  0  0  0  0  0  0  0  0  0
   -2.3522    9.1252   13.2464 N   0  0  0  0  0  0  0  0  0  0  0  0
   -3.7167    9.5739   13.4716 C   0  0  0  0  0  0  0  0  0  0  0  0
   -3.9282   10.0636   14.8987 C   0  0  0  0  0  0  0  0  0  0  0  0
   -2.8259   11.0179   15.2719 C   0  0  0  0  0  0  0  0  0  0  0  0
   -2.7200   12.0186   14.1980 N   0  0  0  0  0  0  0  0  0  0  0  0
   -3.8097   12.0844   13.2827 C   0  0  0  0  0  0  0  0  0  0  0  0
   -4.0032   10.7553   12.5750 C   0  0  0  0  0  0  0  0  0  0  0  0
   -1.5622   12.8273   14.1577 C   0  0  0  0  0  0  0  0  0  0  0  0
   -0.5660   12.7325   15.0934 C   0  0  0  0  0  0  0  0  0  0  0  0
    0.5426   13.5747   14.9730 C   0  0  0  0  0  0  0  0  0  0  0  0
    0.6509   14.4764   13.9566 C   0  0  0  0  0  0  0  0  0  0  0  0
   -0.3635   14.5458   13.0370 C   0  0  0  0  0  0  0  0  0  0  0  0
   -1.4177   13.7404   13.1569 N   0  0  0  0  0  0  0  0  0  0  0  0
    3.5731    1.1246   13.2029 N   0  0  0  0  0  0  0  0  0  0  0  0
    2.4631    1.1867   12.3283 C   0  0  0  0  0  0  0  0  0  0  0  0
    2.5282    2.1152   11.1792 C   0  0  0  0  0  0  0  0  0  0  0  0
    3.4202    1.7687   10.0805 C   0  0  0  0  0  0  0  0  0  0  0  0
    3.6135    2.5676    8.9807 C   0  0  0  0  0  0  0  0  0  0  0  0
    4.4939    2.1253    8.0117 C   0  0  0  0  0  0  0  0  0  0  0  0
    5.1628    0.9258    8.1295 C   0  0  0  0  0  0  0  0  0  0  0  0
    4.9804    0.1095    9.2288 C   0  0  0  0  0  0  0  0  0  0  0  0
    4.1069    0.5541   10.1852 C   0  0  0  0  0  0  0  0  0  0  0  0
    1.1440    2.2179   10.5910 C   0  0  0  0  0  0  0  0  0  0  0  0
    0.8757    1.8639    9.2865 C   0  0  0  0  0  0  0  0  0  0  0  0
   -0.4052    1.9669    8.8276 C   0  0  0  0  0  0  0  0  0  0  0  0
   -1.4258    2.4136    9.6355 C   0  0  0  0  0  0  0  0  0  0  0  0
   -1.1716    2.7653   10.9249 C   0  0  0  0  0  0  0  0  0  0  0  0
    0.1379    2.6645   11.4097 C   0  0  0  0  0  0  0  0  0  0  0  0
    4.9571    5.2513   18.3520 O   0  0  0  0  0  0  0  0  0  0  0  0
    7.5063    6.8021   18.7287 O   0  0  0  0  0  0  0  0  0  0  0  0
  1  2  1  0
  2  3  1  0
  3  4  1  0
  4  5  2  0
  4  6  1  0
  6  7  1  0
  7  8  1  0
  8  9  1  0
  9 10  1  0
  9 11  1  0
 11 12  1  0
 12 13  2  0
 13 14  1  0
 14 15  2  0
 15 16  1  0
 16 17  2  0
 17 18  1  0
 18 19  2  0
 17 20  1  0
 20 21  2  0
 20 22  1  0
 22 23  1  0
 23 24  1  0
 24 25  1  0
 25 26  1  0
 26 27  2  0
 26 28  1  0
 28 29  1  0
 29 30  1  0
 30 31  1  0
 31 32  1  0
 32 33  1  0
 33 34  1  0
 32 35  1  0
 35 36  2  0
 36 37  1  0
 37 38  2  0
 38 39  1  0
 39 40  2  0
 15 41  1  0
 41 42  1  0
 42 43  1  0
 43 44  1  0
 44 45  2  0
 45 46  1  0
 46 47  2  0
 47 48  1  0
 48 49  2  0
 43 50  1  0
 50 51  2  0
 51 52  1  0
 52 53  2  0
 53 54  1  0
 54 55  2  0
  8 56  1  0
  7 57  1  0
 10  6  1  0
 19 11  1  0
 19 14  1  0
 34 29  1  0
 40 35  1  0
 49 44  1  0
 55 50  1  0
M  END
$$$$
