
     RDKit          3D

 57 63  0  0  0  0  0  0  0  0999 V2000
    0.4245    6.2791   24.6488 C   0  0  0  0  0  0  0  0  0  0  0  0
   -0.2495    6.6175   23.3359 C   0  0  0  0  0  0  0  0  0  0  0  0
    0.7294    7.0799   22.3780 N   0  0  0  0  0  0  0  0  0  0  0  0
    0.3806    7.3468   21.0456 C   0  0  0  0  0  0  0  0  0  0  0  0
   -0.8540    7.5540   20.7822 O   0  0  0  0  0  0  0  0  0  0  0  0
    1.3126    7.4094   19.9188 C   0  0  0  0  0  0  0  0  0  0  0  0
    0.9223    8.3814   18.8322 C   0  0  0  0  0  0  0  0  0  0  0  0
    1.6138    7.6989   17.6376 C   0  0  0  0  0  0  0  0  0  0  0  0
    1.3290    6.2632   17.9850 C   0  0  0  0  0  0  0  0  0  0  0  0
    1.5495    6.2002   19.3346 O   0  0  0  0  0  0  0  0  0  0  0  0
    2.1367    5.3330   17.2511 N   0  0  0  0  0  0  0  0  0  0  0  0
    3.3856    4.9747   17.5968 C   0  0  0  0  0  0  0  0  0  0  0  0
    3.8884    4.0992   16.7238 N   0  0  0  0  0  0  0  0  0  0  0  0
    2.9566    3.8691   15.7776 C   0  0  0  0  0  0  0  0  0  0  0  0
    2.9051    3.0785   14.6478 C   0  0  0  0  0  0  0  0  0  0  0  0
    1.7961    3.0870   13.9115 N   0  0  0  0  0  0  0  0  0  0  0  0
    0.7136    3.8442   14.2300 C   0  0  0  0  0  0  0  0  0  0  0  0
    0.7909    4.6011   15.3309 N   0  0  0  0  0  0  0  0  0  0  0  0
    1.8700    4.6532   16.1309 C   0  0  0  0  0  0  0  0  0  0  0  0
   -0.4818    3.8128   13.3615 C   0  0  0  0  0  0  0  0  0  0  0  0
   -1.5060    4.4607   13.6789 O   0  0  0  0  0  0  0  0  0  0  0  0
   -0.4892    3.0570   12.1649 N   0  0  0  0  0  0  0  0  0  0  0  0
   -1.3973    3.3803   11.0599 C   0  0  0  0  0  0  0  0  0  0  0  0
   -1.0106    2.5957    9.8235 C   0  0  0  0  0  0  0  0  0  0  0  0
    0.4067    2.7219    9.6206 N   0  0  0  0  0  0  0  0  0  0  0  0
    1.0991    2.4202    8.4229 C   0  0  0  0  0  0  0  0  0  0  0  0
    0.5868    1.6509    7.6000 O   0  0  0  0  0  0  0  0  0  0  0  0
    2.3625    2.9881    8.1626 N   0  0  0  0  0  0  0  0  0  0  0  0
    3.2819    2.4486    7.1740 C   0  0  0  0  0  0  0  0  0  0  0  0
    3.5192    3.4205    6.0250 C   0  0  0  0  0  0  0  0  0  0  0  0
    3.8343    4.7848    6.5769 C   0  0  0  0  0  0  0  0  0  0  0  0
    4.8934    4.6237    7.5861 N   0  0  0  0  0  0  0  0  0  0  0  0
    5.5868    3.3792    7.5847 C   0  0  0  0  0  0  0  0  0  0  0  0
    4.6287    2.2254    7.8206 C   0  0  0  0  0  0  0  0  0  0  0  0
    5.1388    5.7009    8.4666 C   0  0  0  0  0  0  0  0  0  0  0  0
    5.9818    5.5948    9.5414 C   0  0  0  0  0  0  0  0  0  0  0  0
    6.1627    6.7140   10.3584 C   0  0  0  0  0  0  0  0  0  0  0  0
    5.5257    7.8931   10.1105 C   0  0  0  0  0  0  0  0  0  0  0  0
    4.6890    7.9659    9.0269 C   0  0  0  0  0  0  0  0  0  0  0  0
    4.5205    6.8958    8.2517 N   0  0  0  0  0  0  0  0  0  0  0  0
    4.0142    2.2704   14.2742 N   0  0  0  0  0  0  0  0  0  0  0  0
    4.3581    2.1446   12.9079 C   0  0  0  0  0  0  0  0  0  0  0  0
    3.9380    0.9221   12.1898 C   0  0  0  0  0  0  0  0  0  0  0  0
    2.5281    0.7914   11.8462 C   0  0  0  0  0  0  0  0  0  0  0  0
    2.0715    0.6562   10.5584 C   0  0  0  0  0  0  0  0  0  0  0  0
    0.7080    0.5334   10.3694 C   0  0  0  0  0  0  0  0  0  0  0  0
   -0.1768    0.5446   11.4263 C   0  0  0  0  0  0  0  0  0  0  0  0
    0.2649    0.6799   12.7282 C   0  0  0  0  0  0  0  0  0  0  0  0
    1.6170    0.8009   12.9080 C   0  0  0  0  0  0  0  0  0  0  0  0
    4.7023    0.8648   10.8917 C   0  0  0  0  0  0  0  0  0  0  0  0
    4.7164   -0.2635   10.1006 C   0  0  0  0  0  0  0  0  0  0  0  0
    5.4164   -0.2367    8.9297 C   0  0  0  0  0  0  0  0  0  0  0  0
    6.1029    0.8859    8.5267 C   0  0  0  0  0  0  0  0  0  0  0  0
    6.0952    2.0051    9.3003 C   0  0  0  0  0  0  0  0  0  0  0  0
    5.3809    1.9922   10.5043 C   0  0  0  0  0  0  0  0  0  0  0  0
    1.0155    8.1064   16.4717 O   0  0  0  0  0  0  0  0  0  0  0  0
    1.4866    9.6160   19.0300 O   0  0  0  0  0  0  0  0  0  0  0  0
  1  2  1  0
  2  3  1  0
  3  4  1  0
  4  5  2  0
  4  6  1  0
  6  7  1  0
  7  8  1  0
  8  9  1  0
  9 10  1  0
  9 11  1  0
 11 12  1  0
 12 13  2  0
 13 14  1  0
 14 15  2  0
 15 16  1  0
 16 17  2  0
 17 18  1  0
 18 19  2  0
 17 20  1  0
 20 21  2  0
 20 22  1  0
 22 23  1  0
 23 24  1  0
 24 25  1  0
 25 26  1  0
 26 27  2  0
 26 28  1  0
 28 29  1  0
 29 30  1  0
 30 31  1  0
 31 32  1  0
 32 33  1  0
 33 34  1  0
 32 35  1  0
 35 36  2  0
 36 37  1  0
 37 38  2  0
 38 39  1  0
 39 40  2  0
 15 41  1  0
 41 42  1  0
 42 43  1  0
 43 44  1  0
 44 45  2  0
 45 46  1  0
 46 47  2  0
 47 48  1  0
 48 49  2  0
 43 50  1  0
 50 51  2  0
 51 52  1  0
 52 53  2  0
 53 54  1  0
 54 55  2  0
  8 56  1  0
  7 57  1  0
 10  6  1  0
 19 11  1  0
 19 14  1  0
 34 29  1  0
 40 35  1  0
 49 44  1  0
 55 50  1  0
M  END
$$$$
