
     RDKit          3D

 57 63  0  0  0  0  0  0  0  0999 V2000
    2.2091   -3.5311    4.2376 C   0  0  0  0  0  0  0  0  0  0  0  0
    3.2701   -3.0530    5.2063 C   0  0  0  0  0  0  0  0  0  0  0  0
    2.6974   -2.8663    6.5202 N   0  0  0  0  0  0  0  0  0  0  0  0
    2.6031   -1.5940    7.1038 C   0  0  0  0  0  0  0  0  0  0  0  0
    2.7696   -0.5766    6.3465 O   0  0  0  0  0  0  0  0  0  0  0  0
    2.3290   -1.3244    8.5160 C   0  0  0  0  0  0  0  0  0  0  0  0
    0.9145   -0.8886    8.8108 C   0  0  0  0  0  0  0  0  0  0  0  0
    1.1764   -0.0617   10.0830 C   0  0  0  0  0  0  0  0  0  0  0  0
    2.4692    0.5936    9.6801 C   0  0  0  0  0  0  0  0  0  0  0  0
    3.1741   -0.4117    9.0747 O   0  0  0  0  0  0  0  0  0  0  0  0
    3.1765    1.1748   10.7838 N   0  0  0  0  0  0  0  0  0  0  0  0
    4.4120    0.8112   11.1695 C   0  0  0  0  0  0  0  0  0  0  0  0
    4.8088    1.5218   12.2274 N   0  0  0  0  0  0  0  0  0  0  0  0
    3.8185    2.3758   12.5536 C   0  0  0  0  0  0  0  0  0  0  0  0
    3.6562    3.3347   13.5325 C   0  0  0  0  0  0  0  0  0  0  0  0
    2.5160    4.0205   13.5729 N   0  0  0  0  0  0  0  0  0  0  0  0
    1.5065    3.8124   12.6873 C   0  0  0  0  0  0  0  0  0  0  0  0
    1.6909    2.8767   11.7485 N   0  0  0  0  0  0  0  0  0  0  0  0
    2.8086    2.1386   11.6346 C   0  0  0  0  0  0  0  0  0  0  0  0
    0.2630    4.6035   12.7968 C   0  0  0  0  0  0  0  0  0  0  0  0
   -0.7076    4.3553   12.0446 O   0  0  0  0  0  0  0  0  0  0  0  0
    0.1481    5.6462   13.7469 N   0  0  0  0  0  0  0  0  0  0  0  0
   -0.8678    5.6114   14.8037 C   0  0  0  0  0  0  0  0  0  0  0  0
   -0.2208    5.8409   16.1537 C   0  0  0  0  0  0  0  0  0  0  0  0
    0.6710    6.9637   16.0539 N   0  0  0  0  0  0  0  0  0  0  0  0
    0.5703    8.1662   16.7947 C   0  0  0  0  0  0  0  0  0  0  0  0
   -0.5063    8.7756   16.8237 O   0  0  0  0  0  0  0  0  0  0  0  0
    1.6834    8.6715   17.4962 N   0  0  0  0  0  0  0  0  0  0  0  0
    1.6697    9.9548   18.1794 C   0  0  0  0  0  0  0  0  0  0  0  0
    2.6908   10.0111   19.3086 C   0  0  0  0  0  0  0  0  0  0  0  0
    4.0221    9.5187   18.8082 C   0  0  0  0  0  0  0  0  0  0  0  0
    4.3216   10.2361   17.5586 N   0  0  0  0  0  0  0  0  0  0  0  0
    3.5359   11.3931   17.2875 C   0  0  0  0  0  0  0  0  0  0  0  0
    2.0619   11.0390   17.2035 C   0  0  0  0  0  0  0  0  0  0  0  0
    5.3520    9.7303   16.7348 C   0  0  0  0  0  0  0  0  0  0  0  0
    6.4875    9.1581   17.2451 C   0  0  0  0  0  0  0  0  0  0  0  0
    7.4536    8.6860   16.3527 C   0  0  0  0  0  0  0  0  0  0  0  0
    7.2908    8.7821   15.0029 C   0  0  0  0  0  0  0  0  0  0  0  0
    6.1431    9.3599   14.5250 C   0  0  0  0  0  0  0  0  0  0  0  0
    5.2256    9.8082   15.3805 N   0  0  0  0  0  0  0  0  0  0  0  0
    4.6848    3.5865   14.4818 N   0  0  0  0  0  0  0  0  0  0  0  0
    4.4324    3.3758   15.8576 C   0  0  0  0  0  0  0  0  0  0  0  0
    4.1243    4.5509   16.7009 C   0  0  0  0  0  0  0  0  0  0  0  0
    2.8030    4.6162   17.3115 C   0  0  0  0  0  0  0  0  0  0  0  0
    2.4837    3.9971   18.4947 C   0  0  0  0  0  0  0  0  0  0  0  0
    1.1944    4.1444   18.9697 C   0  0  0  0  0  0  0  0  0  0  0  0
    0.2492    4.8836   18.2912 C   0  0  0  0  0  0  0  0  0  0  0  0
    0.5528    5.5130   17.0996 C   0  0  0  0  0  0  0  0  0  0  0  0
    1.8323    5.3630   16.6351 C   0  0  0  0  0  0  0  0  0  0  0  0
    5.1208    4.5802   17.8317 C   0  0  0  0  0  0  0  0  0  0  0  0
    5.8581    5.7062   18.1276 C   0  0  0  0  0  0  0  0  0  0  0  0
    6.7290    5.6646   19.1772 C   0  0  0  0  0  0  0  0  0  0  0  0
    6.8840    4.5296   19.9397 C   0  0  0  0  0  0  0  0  0  0  0  0
    6.1607    3.4126   19.6561 C   0  0  0  0  0  0  0  0  0  0  0  0
    5.2630    3.4408   18.5822 C   0  0  0  0  0  0  0  0  0  0  0  0
    0.1484    0.8286   10.2671 O   0  0  0  0  0  0  0  0  0  0  0  0
    0.1114   -1.9546    9.1277 O   0  0  0  0  0  0  0  0  0  0  0  0
  1  2  1  0
  2  3  1  0
  3  4  1  0
  4  5  2  0
  4  6  1  0
  6  7  1  0
  7  8  1  0
  8  9  1  0
  9 10  1  0
  9 11  1  0
 11 12  1  0
 12 13  2  0
 13 14  1  0
 14 15  2  0
 15 16  1  0
 16 17  2  0
 17 18  1  0
 18 19  2  0
 17 20  1  0
 20 21  2  0
 20 22  1  0
 22 23  1  0
 23 24  1  0
 24 25  1  0
 25 26  1  0
 26 27  2  0
 26 28  1  0
 28 29  1  0
 29 30  1  0
 30 31  1  0
 31 32  1  0
 32 33  1  0
 33 34  1  0
 32 35  1  0
 35 36  2  0
 36 37  1  0
 37 38  2  0
 38 39  1  0
 39 40  2  0
 15 41  1  0
 41 42  1  0
 42 43  1  0
 43 44  1  0
 44 45  2  0
 45 46  1  0
 46 47  2  0
 47 48  1  0
 48 49  2  0
 43 50  1  0
 50 51  2  0
 51 52  1  0
 52 53  2  0
 53 54  1  0
 54 55  2  0
  8 56  1  0
  7 57  1  0
 10  6  1  0
 19 11  1  0
 19 14  1  0
 34 29  1  0
 40 35  1  0
 49 44  1  0
 55 50  1  0
M  END
$$$$
