
     RDKit          3D

 57 63  0  0  0  0  0  0  0  0999 V2000
   -3.8063    9.3956   19.0214 C   0  0  0  0  0  0  0  0  0  0  0  0
   -2.8170   10.4370   18.5425 C   0  0  0  0  0  0  0  0  0  0  0  0
   -1.4856    9.8759   18.4976 N   0  0  0  0  0  0  0  0  0  0  0  0
   -0.3855   10.6344   18.0701 C   0  0  0  0  0  0  0  0  0  0  0  0
   -0.6190   11.7604   17.5096 O   0  0  0  0  0  0  0  0  0  0  0  0
    1.0194   10.2481   18.2092 C   0  0  0  0  0  0  0  0  0  0  0  0
    2.0031   11.2269   17.6161 C   0  0  0  0  0  0  0  0  0  0  0  0
    3.1530   10.2526   17.3005 C   0  0  0  0  0  0  0  0  0  0  0  0
    2.3455    9.0768   16.8225 C   0  0  0  0  0  0  0  0  0  0  0  0
    1.3014    9.0127   17.7056 O   0  0  0  0  0  0  0  0  0  0  0  0
    3.0984    7.8575   16.7706 N   0  0  0  0  0  0  0  0  0  0  0  0
    4.2951    7.6789   17.3566 C   0  0  0  0  0  0  0  0  0  0  0  0
    4.7552    6.4461   17.1332 N   0  0  0  0  0  0  0  0  0  0  0  0
    3.8476    5.7897   16.3837 C   0  0  0  0  0  0  0  0  0  0  0  0
    3.7743    4.5181   15.8530 C   0  0  0  0  0  0  0  0  0  0  0  0
    2.7025    4.1847   15.1374 N   0  0  0  0  0  0  0  0  0  0  0  0
    1.6783    5.0485   14.9101 C   0  0  0  0  0  0  0  0  0  0  0  0
    1.7754    6.2749   15.4367 N   0  0  0  0  0  0  0  0  0  0  0  0
    2.8203    6.6952   16.1708 C   0  0  0  0  0  0  0  0  0  0  0  0
    0.5225    4.6145   14.0976 C   0  0  0  0  0  0  0  0  0  0  0  0
   -0.0402    5.4232   13.3238 O   0  0  0  0  0  0  0  0  0  0  0  0
    0.0363    3.2878   14.1787 N   0  0  0  0  0  0  0  0  0  0  0  0
    0.9031    2.1363   13.9090 C   0  0  0  0  0  0  0  0  0  0  0  0
    0.8519    1.7812   12.4376 C   0  0  0  0  0  0  0  0  0  0  0  0
   -0.2312    2.5012   11.8258 N   0  0  0  0  0  0  0  0  0  0  0  0
   -0.6671    2.3552   10.4866 C   0  0  0  0  0  0  0  0  0  0  0  0
   -1.6238    3.0270   10.0804 O   0  0  0  0  0  0  0  0  0  0  0  0
   -0.0213    1.4538    9.6166 N   0  0  0  0  0  0  0  0  0  0  0  0
   -0.5901    1.0403    8.3441 C   0  0  0  0  0  0  0  0  0  0  0  0
   -0.2278    2.0006    7.2181 C   0  0  0  0  0  0  0  0  0  0  0  0
    1.2517    2.2750    7.2472 C   0  0  0  0  0  0  0  0  0  0  0  0
    1.9445    0.9780    7.3097 N   0  0  0  0  0  0  0  0  0  0  0  0
    1.1637   -0.1735    7.0031 C   0  0  0  0  0  0  0  0  0  0  0  0
   -0.0115   -0.3000    7.9558 C   0  0  0  0  0  0  0  0  0  0  0  0
    3.3124    0.9739    7.6632 C   0  0  0  0  0  0  0  0  0  0  0  0
    4.0578    2.1213    7.7311 C   0  0  0  0  0  0  0  0  0  0  0  0
    5.4048    2.0196    8.0889 C   0  0  0  0  0  0  0  0  0  0  0  0
    5.9838    0.8177    8.3678 C   0  0  0  0  0  0  0  0  0  0  0  0
    5.2099   -0.3114    8.2906 C   0  0  0  0  0  0  0  0  0  0  0  0
    3.9265   -0.2082    7.9491 N   0  0  0  0  0  0  0  0  0  0  0  0
    4.8227    3.5804   16.0635 N   0  0  0  0  0  0  0  0  0  0  0  0
    4.6291    2.2248   15.7088 C   0  0  0  0  0  0  0  0  0  0  0  0
    5.7860    1.4654   15.1878 C   0  0  0  0  0  0  0  0  0  0  0  0
    5.6473    0.0198   15.0701 C   0  0  0  0  0  0  0  0  0  0  0  0
    5.2793   -0.7935   16.1133 C   0  0  0  0  0  0  0  0  0  0  0  0
    5.1770   -2.1493   15.8662 C   0  0  0  0  0  0  0  0  0  0  0  0
    5.4325   -2.6832   14.6213 C   0  0  0  0  0  0  0  0  0  0  0  0
    5.8040   -1.8801   13.5606 C   0  0  0  0  0  0  0  0  0  0  0  0
    5.9031   -0.5377   13.8125 C   0  0  0  0  0  0  0  0  0  0  0  0
    6.0896    1.9806   13.8040 C   0  0  0  0  0  0  0  0  0  0  0  0
    5.0942    2.3669   12.9328 C   0  0  0  0  0  0  0  0  0  0  0  0
    5.4450    2.8399   11.7019 C   0  0  0  0  0  0  0  0  0  0  0  0
    6.7625    2.9379   11.3168 C   0  0  0  0  0  0  0  0  0  0  0  0
    7.7529    2.5595   12.1694 C   0  0  0  0  0  0  0  0  0  0  0  0
    7.4079    2.0725   13.4359 C   0  0  0  0  0  0  0  0  0  0  0  0
    3.9548   10.7946   16.3274 O   0  0  0  0  0  0  0  0  0  0  0  0
    2.4328   12.1397   18.5455 O   0  0  0  0  0  0  0  0  0  0  0  0
  1  2  1  0
  2  3  1  0
  3  4  1  0
  4  5  2  0
  4  6  1  0
  6  7  1  0
  7  8  1  0
  8  9  1  0
  9 10  1  0
  9 11  1  0
 11 12  1  0
 12 13  2  0
 13 14  1  0
 14 15  2  0
 15 16  1  0
 16 17  2  0
 17 18  1  0
 18 19  2  0
 17 20  1  0
 20 21  2  0
 20 22  1  0
 22 23  1  0
 23 24  1  0
 24 25  1  0
 25 26  1  0
 26 27  2  0
 26 28  1  0
 28 29  1  0
 29 30  1  0
 30 31  1  0
 31 32  1  0
 32 33  1  0
 33 34  1  0
 32 35  1  0
 35 36  2  0
 36 37  1  0
 37 38  2  0
 38 39  1  0
 39 40  2  0
 15 41  1  0
 41 42  1  0
 42 43  1  0
 43 44  1  0
 44 45  2  0
 45 46  1  0
 46 47  2  0
 47 48  1  0
 48 49  2  0
 43 50  1  0
 50 51  2  0
 51 52  1  0
 52 53  2  0
 53 54  1  0
 54 55  2  0
  8 56  1  0
  7 57  1  0
 10  6  1  0
 19 11  1  0
 19 14  1  0
 34 29  1  0
 40 35  1  0
 49 44  1  0
 55 50  1  0
M  END
$$$$
