
     RDKit          3D

 57 63  0  0  0  0  0  0  0  0999 V2000
   -1.4086    3.7466    2.6612 C   0  0  0  0  0  0  0  0  0  0  0  0
   -0.5422    2.8174    3.4849 C   0  0  0  0  0  0  0  0  0  0  0  0
   -0.7295    3.0798    4.8939 N   0  0  0  0  0  0  0  0  0  0  0  0
    0.1895    2.6256    5.8517 C   0  0  0  0  0  0  0  0  0  0  0  0
    1.4311    2.6473    5.5445 O   0  0  0  0  0  0  0  0  0  0  0  0
   -0.1492    2.1235    7.1841 C   0  0  0  0  0  0  0  0  0  0  0  0
   -0.9710    3.0707    8.0238 C   0  0  0  0  0  0  0  0  0  0  0  0
   -0.5274    2.6017    9.4217 C   0  0  0  0  0  0  0  0  0  0  0  0
    0.9309    2.3609    9.1413 C   0  0  0  0  0  0  0  0  0  0  0  0
    0.9345    1.7435    7.9195 O   0  0  0  0  0  0  0  0  0  0  0  0
    1.5801    1.5809   10.1543 N   0  0  0  0  0  0  0  0  0  0  0  0
    1.6362    0.2376   10.1584 C   0  0  0  0  0  0  0  0  0  0  0  0
    2.3000   -0.2078   11.2272 N   0  0  0  0  0  0  0  0  0  0  0  0
    2.6943    0.8592   11.9500 C   0  0  0  0  0  0  0  0  0  0  0  0
    3.3981    1.0199   13.1260 C   0  0  0  0  0  0  0  0  0  0  0  0
    3.6197    2.2533   13.5751 N   0  0  0  0  0  0  0  0  0  0  0  0
    3.1796    3.3594   12.9197 C   0  0  0  0  0  0  0  0  0  0  0  0
    2.5000    3.1744   11.7818 N   0  0  0  0  0  0  0  0  0  0  0  0
    2.2314    1.9663   11.2568 C   0  0  0  0  0  0  0  0  0  0  0  0
    3.4529    4.6991   13.4810 C   0  0  0  0  0  0  0  0  0  0  0  0
    3.0186    5.7225   12.9036 O   0  0  0  0  0  0  0  0  0  0  0  0
    4.2032    4.8471   14.6719 N   0  0  0  0  0  0  0  0  0  0  0  0
    3.5494    5.0257   15.9722 C   0  0  0  0  0  0  0  0  0  0  0  0
    3.8504    6.4054   16.5195 C   0  0  0  0  0  0  0  0  0  0  0  0
    3.1391    6.5772   17.7566 N   0  0  0  0  0  0  0  0  0  0  0  0
    3.5544    7.3860   18.8421 C   0  0  0  0  0  0  0  0  0  0  0  0
    4.3954    6.9513   19.6391 O   0  0  0  0  0  0  0  0  0  0  0  0
    3.0188    8.6774   19.0201 N   0  0  0  0  0  0  0  0  0  0  0  0
    2.8652    9.2949   20.3274 C   0  0  0  0  0  0  0  0  0  0  0  0
    2.4584   10.7594   20.2225 C   0  0  0  0  0  0  0  0  0  0  0  0
    1.3054   10.8941   19.2647 C   0  0  0  0  0  0  0  0  0  0  0  0
    0.2828    9.9110   19.6570 N   0  0  0  0  0  0  0  0  0  0  0  0
    0.4243    9.3304   20.9502 C   0  0  0  0  0  0  0  0  0  0  0  0
    1.7503    8.6015   21.0742 C   0  0  0  0  0  0  0  0  0  0  0  0
   -0.7475    9.6226   18.7343 C   0  0  0  0  0  0  0  0  0  0  0  0
   -0.8420   10.2472   17.5186 C   0  0  0  0  0  0  0  0  0  0  0  0
   -1.8965    9.8975   16.6709 C   0  0  0  0  0  0  0  0  0  0  0  0
   -2.8203    8.9600   17.0249 C   0  0  0  0  0  0  0  0  0  0  0  0
   -2.6969    8.3538   18.2484 C   0  0  0  0  0  0  0  0  0  0  0  0
   -1.6896    8.6912   19.0521 N   0  0  0  0  0  0  0  0  0  0  0  0
    3.8773   -0.1085   13.8470 N   0  0  0  0  0  0  0  0  0  0  0  0
    5.1011   -0.0195   14.5507 C   0  0  0  0  0  0  0  0  0  0  0  0
    6.2270   -0.8697   14.1076 C   0  0  0  0  0  0  0  0  0  0  0  0
    6.8312   -0.5710   12.8159 C   0  0  0  0  0  0  0  0  0  0  0  0
    7.0561   -1.5180   11.8475 C   0  0  0  0  0  0  0  0  0  0  0  0
    7.6302   -1.1010   10.6616 C   0  0  0  0  0  0  0  0  0  0  0  0
    7.9716    0.2164   10.4425 C   0  0  0  0  0  0  0  0  0  0  0  0
    7.7528    1.1822   11.4055 C   0  0  0  0  0  0  0  0  0  0  0  0
    7.1834    0.7620   12.5779 C   0  0  0  0  0  0  0  0  0  0  0  0
    7.3259   -0.7497   15.1325 C   0  0  0  0  0  0  0  0  0  0  0  0
    8.4379   -1.5633   15.1111 C   0  0  0  0  0  0  0  0  0  0  0  0
    9.4010   -1.3856   16.0612 C   0  0  0  0  0  0  0  0  0  0  0  0
    9.2844   -0.4176   17.0323 C   0  0  0  0  0  0  0  0  0  0  0  0
    8.1907    0.3911   17.0623 C   0  0  0  0  0  0  0  0  0  0  0  0
    7.1946    0.2205   16.0935 C   0  0  0  0  0  0  0  0  0  0  0  0
   -0.7489    3.6059   10.3304 O   0  0  0  0  0  0  0  0  0  0  0  0
   -2.3154    2.8392    7.8801 O   0  0  0  0  0  0  0  0  0  0  0  0
  1  2  1  0
  2  3  1  0
  3  4  1  0
  4  5  2  0
  4  6  1  0
  6  7  1  0
  7  8  1  0
  8  9  1  0
  9 10  1  0
  9 11  1  0
 11 12  1  0
 12 13  2  0
 13 14  1  0
 14 15  2  0
 15 16  1  0
 16 17  2  0
 17 18  1  0
 18 19  2  0
 17 20  1  0
 20 21  2  0
 20 22  1  0
 22 23  1  0
 23 24  1  0
 24 25  1  0
 25 26  1  0
 26 27  2  0
 26 28  1  0
 28 29  1  0
 29 30  1  0
 30 31  1  0
 31 32  1  0
 32 33  1  0
 33 34  1  0
 32 35  1  0
 35 36  2  0
 36 37  1  0
 37 38  2  0
 38 39  1  0
 39 40  2  0
 15 41  1  0
 41 42  1  0
 42 43  1  0
 43 44  1  0
 44 45  2  0
 45 46  1  0
 46 47  2  0
 47 48  1  0
 48 49  2  0
 43 50  1  0
 50 51  2  0
 51 52  1  0
 52 53  2  0
 53 54  1  0
 54 55  2  0
  8 56  1  0
  7 57  1  0
 10  6  1  0
 19 11  1  0
 19 14  1  0
 34 29  1  0
 40 35  1  0
 49 44  1  0
 55 50  1  0
M  END
$$$$
