
     RDKit          3D

 57 63  0  0  0  0  0  0  0  0999 V2000
   10.2389    4.0317   21.3881 C   0  0  0  0  0  0  0  0  0  0  0  0
    8.7607    4.3571   21.3468 C   0  0  0  0  0  0  0  0  0  0  0  0
    8.3405    4.5940   19.9842 N   0  0  0  0  0  0  0  0  0  0  0  0
    7.2929    5.4775   19.6842 C   0  0  0  0  0  0  0  0  0  0  0  0
    6.6832    6.0336   20.6616 O   0  0  0  0  0  0  0  0  0  0  0  0
    6.8304    5.8228   18.3391 C   0  0  0  0  0  0  0  0  0  0  0  0
    5.4910    6.5165   18.2926 C   0  0  0  0  0  0  0  0  0  0  0  0
    5.0405    6.0783   16.8869 C   0  0  0  0  0  0  0  0  0  0  0  0
    5.5469    4.6619   16.9043 C   0  0  0  0  0  0  0  0  0  0  0  0
    6.7824    4.7604   17.4856 O   0  0  0  0  0  0  0  0  0  0  0  0
    5.5971    4.0633   15.6023 N   0  0  0  0  0  0  0  0  0  0  0  0
    6.7052    3.5394   15.0500 C   0  0  0  0  0  0  0  0  0  0  0  0
    6.4486    3.0603   13.8310 N   0  0  0  0  0  0  0  0  0  0  0  0
    5.1439    3.2687   13.5651 C   0  0  0  0  0  0  0  0  0  0  0  0
    4.3238    2.9954   12.4896 C   0  0  0  0  0  0  0  0  0  0  0  0
    3.0418    3.3474   12.5574 N   0  0  0  0  0  0  0  0  0  0  0  0
    2.5104    3.9652   13.6449 C   0  0  0  0  0  0  0  0  0  0  0  0
    3.3283    4.2180   14.6735 N   0  0  0  0  0  0  0  0  0  0  0  0
    4.6338    3.8977   14.6898 C   0  0  0  0  0  0  0  0  0  0  0  0
    1.0800    4.3372   13.6484 C   0  0  0  0  0  0  0  0  0  0  0  0
    0.5814    4.9060   14.6470 O   0  0  0  0  0  0  0  0  0  0  0  0
    0.2559    4.0601   12.5315 N   0  0  0  0  0  0  0  0  0  0  0  0
    0.7772    4.1158   11.1621 C   0  0  0  0  0  0  0  0  0  0  0  0
   -0.3681    4.1493   10.1716 C   0  0  0  0  0  0  0  0  0  0  0  0
   -1.4935    4.7969   10.7881 N   0  0  0  0  0  0  0  0  0  0  0  0
   -2.0722    6.0200   10.3711 C   0  0  0  0  0  0  0  0  0  0  0  0
   -1.9492    6.3825    9.1942 O   0  0  0  0  0  0  0  0  0  0  0  0
   -2.7845    6.8241   11.2835 N   0  0  0  0  0  0  0  0  0  0  0  0
   -3.5387    7.9992   10.8785 C   0  0  0  0  0  0  0  0  0  0  0  0
   -4.5010    8.4621   11.9651 C   0  0  0  0  0  0  0  0  0  0  0  0
   -3.7752    8.5376   13.2814 C   0  0  0  0  0  0  0  0  0  0  0  0
   -2.5406    9.3092   13.0661 N   0  0  0  0  0  0  0  0  0  0  0  0
   -2.4630   10.0570   11.8560 C   0  0  0  0  0  0  0  0  0  0  0  0
   -2.5824    9.1455   10.6478 C   0  0  0  0  0  0  0  0  0  0  0  0
   -1.5407    9.2510   14.0625 C   0  0  0  0  0  0  0  0  0  0  0  0
   -0.3480    9.9152   13.9472 C   0  0  0  0  0  0  0  0  0  0  0  0
    0.5819    9.7982   14.9837 C   0  0  0  0  0  0  0  0  0  0  0  0
    0.3291    9.0466   16.0922 C   0  0  0  0  0  0  0  0  0  0  0  0
   -0.8741    8.3948   16.1765 C   0  0  0  0  0  0  0  0  0  0  0  0
   -1.7566    8.5100   15.1853 N   0  0  0  0  0  0  0  0  0  0  0  0
    4.8358    2.3515   11.3295 N   0  0  0  0  0  0  0  0  0  0  0  0
    4.2135    1.1744   10.8518 C   0  0  0  0  0  0  0  0  0  0  0  0
    3.3227    1.2811    9.6763 C   0  0  0  0  0  0  0  0  0  0  0  0
    3.1800    0.1051    8.8280 C   0  0  0  0  0  0  0  0  0  0  0  0
    2.1808   -0.0414    7.8978 C   0  0  0  0  0  0  0  0  0  0  0  0
    2.1630   -1.2043    7.1514 C   0  0  0  0  0  0  0  0  0  0  0  0
    3.1079   -2.1932    7.3227 C   0  0  0  0  0  0  0  0  0  0  0  0
    4.1198   -2.0628    8.2539 C   0  0  0  0  0  0  0  0  0  0  0  0
    4.1316   -0.9078    8.9896 C   0  0  0  0  0  0  0  0  0  0  0  0
    1.9409    1.6199   10.1747 C   0  0  0  0  0  0  0  0  0  0  0  0
    1.3526    0.9388   11.2182 C   0  0  0  0  0  0  0  0  0  0  0  0
    0.1055    1.3124   11.6271 C   0  0  0  0  0  0  0  0  0  0  0  0
   -0.5704    2.3475   11.0226 C   0  0  0  0  0  0  0  0  0  0  0  0
    0.0016    3.0266    9.9918 C   0  0  0  0  0  0  0  0  0  0  0  0
    1.2809    2.6545    9.5617 C   0  0  0  0  0  0  0  0  0  0  0  0
    3.6739    6.1673   16.7984 O   0  0  0  0  0  0  0  0  0  0  0  0
    5.6262    7.8814   18.3137 O   0  0  0  0  0  0  0  0  0  0  0  0
  1  2  1  0
  2  3  1  0
  3  4  1  0
  4  5  2  0
  4  6  1  0
  6  7  1  0
  7  8  1  0
  8  9  1  0
  9 10  1  0
  9 11  1  0
 11 12  1  0
 12 13  2  0
 13 14  1  0
 14 15  2  0
 15 16  1  0
 16 17  2  0
 17 18  1  0
 18 19  2  0
 17 20  1  0
 20 21  2  0
 20 22  1  0
 22 23  1  0
 23 24  1  0
 24 25  1  0
 25 26  1  0
 26 27  2  0
 26 28  1  0
 28 29  1  0
 29 30  1  0
 30 31  1  0
 31 32  1  0
 32 33  1  0
 33 34  1  0
 32 35  1  0
 35 36  2  0
 36 37  1  0
 37 38  2  0
 38 39  1  0
 39 40  2  0
 15 41  1  0
 41 42  1  0
 42 43  1  0
 43 44  1  0
 44 45  2  0
 45 46  1  0
 46 47  2  0
 47 48  1  0
 48 49  2  0
 43 50  1  0
 50 51  2  0
 51 52  1  0
 52 53  2  0
 53 54  1  0
 54 55  2  0
  8 56  1  0
  7 57  1  0
 10  6  1  0
 19 11  1  0
 19 14  1  0
 34 29  1  0
 40 35  1  0
 49 44  1  0
 55 50  1  0
M  END
$$$$
