
     RDKit          3D

 57 63  0  0  0  0  0  0  0  0999 V2000
   -2.4647    9.7610    7.5062 C   0  0  0  0  0  0  0  0  0  0  0  0
   -3.4624    8.6634    7.8105 C   0  0  0  0  0  0  0  0  0  0  0  0
   -3.4455    8.3521    9.2219 N   0  0  0  0  0  0  0  0  0  0  0  0
   -2.2728    7.9264    9.8638 C   0  0  0  0  0  0  0  0  0  0  0  0
   -1.2152    8.6273    9.7002 O   0  0  0  0  0  0  0  0  0  0  0  0
   -2.1503    6.7398   10.7119 C   0  0  0  0  0  0  0  0  0  0  0  0
   -2.2218    7.0152   12.1940 C   0  0  0  0  0  0  0  0  0  0  0  0
   -1.3910    5.8223   12.7018 C   0  0  0  0  0  0  0  0  0  0  0  0
   -0.3296    5.7993   11.6360 C   0  0  0  0  0  0  0  0  0  0  0  0
   -1.0235    6.0095   10.4748 O   0  0  0  0  0  0  0  0  0  0  0  0
    0.4235    4.5793   11.6143 N   0  0  0  0  0  0  0  0  0  0  0  0
    0.0546    3.4714   10.9481 C   0  0  0  0  0  0  0  0  0  0  0  0
    0.9489    2.4950   11.1162 N   0  0  0  0  0  0  0  0  0  0  0  0
    1.9333    2.9608   11.9101 C   0  0  0  0  0  0  0  0  0  0  0  0
    3.0974    2.4221   12.4190 C   0  0  0  0  0  0  0  0  0  0  0  0
    3.8668    3.1810   13.1962 N   0  0  0  0  0  0  0  0  0  0  0  0
    3.5497    4.4654   13.5071 C   0  0  0  0  0  0  0  0  0  0  0  0
    2.4154    4.9623   12.9999 N   0  0  0  0  0  0  0  0  0  0  0  0
    1.5806    4.2676   12.2077 C   0  0  0  0  0  0  0  0  0  0  0  0
    4.4455    5.2478   14.3845 C   0  0  0  0  0  0  0  0  0  0  0  0
    5.5676    4.7914   14.7038 O   0  0  0  0  0  0  0  0  0  0  0  0
    4.0541    6.5168   14.8740 N   0  0  0  0  0  0  0  0  0  0  0  0
    3.9579    6.7869   16.3120 C   0  0  0  0  0  0  0  0  0  0  0  0
    2.6606    7.5053   16.6198 C   0  0  0  0  0  0  0  0  0  0  0  0
    2.0412    6.8754   17.7535 N   0  0  0  0  0  0  0  0  0  0  0  0
    1.4124    7.5473   18.8296 C   0  0  0  0  0  0  0  0  0  0  0  0
    1.3039    8.7796   18.7986 O   0  0  0  0  0  0  0  0  0  0  0  0
    0.9112    6.8249   19.9312 N   0  0  0  0  0  0  0  0  0  0  0  0
    0.1206    7.4402   20.9849 C   0  0  0  0  0  0  0  0  0  0  0  0
   -0.6379    6.4059   21.8071 C   0  0  0  0  0  0  0  0  0  0  0  0
    0.2993    5.3008   22.2141 C   0  0  0  0  0  0  0  0  0  0  0  0
    1.4938    5.9246   22.8057 N   0  0  0  0  0  0  0  0  0  0  0  0
    1.3809    7.2994   23.1619 C   0  0  0  0  0  0  0  0  0  0  0  0
    1.0448    8.1472   21.9481 C   0  0  0  0  0  0  0  0  0  0  0  0
    2.6453    5.1234   22.9739 C   0  0  0  0  0  0  0  0  0  0  0  0
    2.5838    3.7580   23.0675 C   0  0  0  0  0  0  0  0  0  0  0  0
    3.7759    3.0480   23.2337 C   0  0  0  0  0  0  0  0  0  0  0  0
    4.9822    3.6786   23.3036 C   0  0  0  0  0  0  0  0  0  0  0  0
    5.0088    5.0458   23.2064 C   0  0  0  0  0  0  0  0  0  0  0  0
    3.8692    5.7173   23.0480 N   0  0  0  0  0  0  0  0  0  0  0  0
    3.4695    1.0820   12.1218 N   0  0  0  0  0  0  0  0  0  0  0  0
    4.6225    0.5271   12.7248 C   0  0  0  0  0  0  0  0  0  0  0  0
    5.3749   -0.5047   11.9791 C   0  0  0  0  0  0  0  0  0  0  0  0
    4.6939   -1.7597   11.6891 C   0  0  0  0  0  0  0  0  0  0  0  0
    5.3113   -2.8404   11.1096 C   0  0  0  0  0  0  0  0  0  0  0  0
    4.5526   -3.9754   10.8950 C   0  0  0  0  0  0  0  0  0  0  0  0
    3.2206   -4.0368   11.2443 C   0  0  0  0  0  0  0  0  0  0  0  0
    2.5833   -2.9591   11.8279 C   0  0  0  0  0  0  0  0  0  0  0  0
    3.3411   -1.8380   12.0379 C   0  0  0  0  0  0  0  0  0  0  0  0
    5.7708    0.0850   10.6494 C   0  0  0  0  0  0  0  0  0  0  0  0
    5.2916    1.3029   10.2178 C   0  0  0  0  0  0  0  0  0  0  0  0
    5.7073    1.7823    9.0098 C   0  0  0  0  0  0  0  0  0  0  0  0
    6.5887    1.0791    8.2208 C   0  0  0  0  0  0  0  0  0  0  0  0
    7.0680   -0.1241    8.6377 C   0  0  0  0  0  0  0  0  0  0  0  0
    6.6503   -0.6283    9.8752 C   0  0  0  0  0  0  0  0  0  0  0  0
   -0.9018    6.1075   13.9519 O   0  0  0  0  0  0  0  0  0  0  0  0
   -3.5036    6.9021   12.6693 O   0  0  0  0  0  0  0  0  0  0  0  0
  1  2  1  0
  2  3  1  0
  3  4  1  0
  4  5  2  0
  4  6  1  0
  6  7  1  0
  7  8  1  0
  8  9  1  0
  9 10  1  0
  9 11  1  0
 11 12  1  0
 12 13  2  0
 13 14  1  0
 14 15  2  0
 15 16  1  0
 16 17  2  0
 17 18  1  0
 18 19  2  0
 17 20  1  0
 20 21  2  0
 20 22  1  0
 22 23  1  0
 23 24  1  0
 24 25  1  0
 25 26  1  0
 26 27  2  0
 26 28  1  0
 28 29  1  0
 29 30  1  0
 30 31  1  0
 31 32  1  0
 32 33  1  0
 33 34  1  0
 32 35  1  0
 35 36  2  0
 36 37  1  0
 37 38  2  0
 38 39  1  0
 39 40  2  0
 15 41  1  0
 41 42  1  0
 42 43  1  0
 43 44  1  0
 44 45  2  0
 45 46  1  0
 46 47  2  0
 47 48  1  0
 48 49  2  0
 43 50  1  0
 50 51  2  0
 51 52  1  0
 52 53  2  0
 53 54  1  0
 54 55  2  0
  8 56  1  0
  7 57  1  0
 10  6  1  0
 19 11  1  0
 19 14  1  0
 34 29  1  0
 40 35  1  0
 49 44  1  0
 55 50  1  0
M  END
$$$$
