
     RDKit          3D

 57 63  0  0  0  0  0  0  0  0999 V2000
    4.9341    9.7219   22.0288 C   0  0  0  0  0  0  0  0  0  0  0  0
    3.8265   10.4357   21.2830 C   0  0  0  0  0  0  0  0  0  0  0  0
    3.8505   10.0692   19.8850 N   0  0  0  0  0  0  0  0  0  0  0  0
    2.7398    9.4789   19.2636 C   0  0  0  0  0  0  0  0  0  0  0  0
    1.6928    9.2851   19.9726 O   0  0  0  0  0  0  0  0  0  0  0  0
    2.6717    9.0605   17.8627 C   0  0  0  0  0  0  0  0  0  0  0  0
    1.2740    8.9627   17.3021 C   0  0  0  0  0  0  0  0  0  0  0  0
    1.5225    7.8983   16.2175 C   0  0  0  0  0  0  0  0  0  0  0  0
    2.4717    7.0068   16.9707 C   0  0  0  0  0  0  0  0  0  0  0  0
    3.3083    7.8813   17.6105 O   0  0  0  0  0  0  0  0  0  0  0  0
    3.1773    6.0890   16.1244 N   0  0  0  0  0  0  0  0  0  0  0  0
    4.4771    5.7747   16.2628 C   0  0  0  0  0  0  0  0  0  0  0  0
    4.8573    4.8999   15.3293 N   0  0  0  0  0  0  0  0  0  0  0  0
    3.7902    4.6254   14.5532 C   0  0  0  0  0  0  0  0  0  0  0  0
    3.5788    3.8142   13.4571 C   0  0  0  0  0  0  0  0  0  0  0  0
    2.3638    3.7764   12.9144 N   0  0  0  0  0  0  0  0  0  0  0  0
    1.3245    4.5058   13.3987 C   0  0  0  0  0  0  0  0  0  0  0  0
    1.5576    5.2836   14.4624 N   0  0  0  0  0  0  0  0  0  0  0  0
    2.7517    5.3822   15.0721 C   0  0  0  0  0  0  0  0  0  0  0  0
    0.0038    4.4232   12.7404 C   0  0  0  0  0  0  0  0  0  0  0  0
   -0.9531    5.1122   13.1637 O   0  0  0  0  0  0  0  0  0  0  0  0
   -0.2003    3.5716   11.6285 N   0  0  0  0  0  0  0  0  0  0  0  0
    0.2250    2.1685   11.6498 C   0  0  0  0  0  0  0  0  0  0  0  0
   -0.9193    1.2726   11.2236 C   0  0  0  0  0  0  0  0  0  0  0  0
   -0.4265    0.3144   10.2722 N   0  0  0  0  0  0  0  0  0  0  0  0
   -0.4228    0.4750    8.8654 C   0  0  0  0  0  0  0  0  0  0  0  0
   -0.6903    1.5803    8.3775 O   0  0  0  0  0  0  0  0  0  0  0  0
   -0.1178   -0.6112    8.0207 N   0  0  0  0  0  0  0  0  0  0  0  0
   -0.2074   -0.5336    6.5716 C   0  0  0  0  0  0  0  0  0  0  0  0
    1.1282   -0.1685    5.9360 C   0  0  0  0  0  0  0  0  0  0  0  0
    2.2127   -1.0422    6.5067 C   0  0  0  0  0  0  0  0  0  0  0  0
    1.7542   -2.4378    6.4170 N   0  0  0  0  0  0  0  0  0  0  0  0
    0.6368   -2.6850    5.5686 C   0  0  0  0  0  0  0  0  0  0  0  0
   -0.5753   -1.8929    6.0252 C   0  0  0  0  0  0  0  0  0  0  0  0
    2.4482   -3.4127    7.1680 C   0  0  0  0  0  0  0  0  0  0  0  0
    3.7277   -3.2207    7.6185 C   0  0  0  0  0  0  0  0  0  0  0  0
    4.3347   -4.2423    8.3537 C   0  0  0  0  0  0  0  0  0  0  0  0
    3.6878   -5.4102    8.6277 C   0  0  0  0  0  0  0  0  0  0  0  0
    2.4082   -5.5705    8.1623 C   0  0  0  0  0  0  0  0  0  0  0  0
    1.8347   -4.5931    7.4621 N   0  0  0  0  0  0  0  0  0  0  0  0
    4.6369    3.0338   12.9148 N   0  0  0  0  0  0  0  0  0  0  0  0
    4.8606    1.7251   13.4029 C   0  0  0  0  0  0  0  0  0  0  0  0
    4.2716    0.5905   12.6596 C   0  0  0  0  0  0  0  0  0  0  0  0
    2.8471    0.6468   12.3588 C   0  0  0  0  0  0  0  0  0  0  0  0
    1.8663    0.5446   13.3141 C   0  0  0  0  0  0  0  0  0  0  0  0
    0.5513    0.6214   12.8961 C   0  0  0  0  0  0  0  0  0  0  0  0
    0.2185    0.7941   11.5697 C   0  0  0  0  0  0  0  0  0  0  0  0
    1.1920    0.8987   10.5952 C   0  0  0  0  0  0  0  0  0  0  0  0
    2.4928    0.8220   11.0166 C   0  0  0  0  0  0  0  0  0  0  0  0
    4.9852    0.4869   11.3358 C   0  0  0  0  0  0  0  0  0  0  0  0
    4.5514   -0.3554   10.3351 C   0  0  0  0  0  0  0  0  0  0  0  0
    5.2376   -0.3837    9.1561 C   0  0  0  0  0  0  0  0  0  0  0  0
    6.3453    0.4062    8.9486 C   0  0  0  0  0  0  0  0  0  0  0  0
    6.7817    1.2414    9.9298 C   0  0  0  0  0  0  0  0  0  0  0  0
    6.0872    1.2812   11.1448 C   0  0  0  0  0  0  0  0  0  0  0  0
    0.3360    7.2861   15.9000 O   0  0  0  0  0  0  0  0  0  0  0  0
    0.8864   10.1327   16.6999 O   0  0  0  0  0  0  0  0  0  0  0  0
  1  2  1  0
  2  3  1  0
  3  4  1  0
  4  5  2  0
  4  6  1  0
  6  7  1  0
  7  8  1  0
  8  9  1  0
  9 10  1  0
  9 11  1  0
 11 12  1  0
 12 13  2  0
 13 14  1  0
 14 15  2  0
 15 16  1  0
 16 17  2  0
 17 18  1  0
 18 19  2  0
 17 20  1  0
 20 21  2  0
 20 22  1  0
 22 23  1  0
 23 24  1  0
 24 25  1  0
 25 26  1  0
 26 27  2  0
 26 28  1  0
 28 29  1  0
 29 30  1  0
 30 31  1  0
 31 32  1  0
 32 33  1  0
 33 34  1  0
 32 35  1  0
 35 36  2  0
 36 37  1  0
 37 38  2  0
 38 39  1  0
 39 40  2  0
 15 41  1  0
 41 42  1  0
 42 43  1  0
 43 44  1  0
 44 45  2  0
 45 46  1  0
 46 47  2  0
 47 48  1  0
 48 49  2  0
 43 50  1  0
 50 51  2  0
 51 52  1  0
 52 53  2  0
 53 54  1  0
 54 55  2  0
  8 56  1  0
  7 57  1  0
 10  6  1  0
 19 11  1  0
 19 14  1  0
 34 29  1  0
 40 35  1  0
 49 44  1  0
 55 50  1  0
M  END
$$$$
