
     RDKit          3D

 57 63  0  0  0  0  0  0  0  0999 V2000
    1.8851   -2.1851    4.9224 C   0  0  0  0  0  0  0  0  0  0  0  0
    1.8585   -2.9304    6.2401 C   0  0  0  0  0  0  0  0  0  0  0  0
    2.7416   -2.2935    7.1908 N   0  0  0  0  0  0  0  0  0  0  0  0
    2.2551   -1.4014    8.1582 C   0  0  0  0  0  0  0  0  0  0  0  0
    0.9956   -1.1789    8.1847 O   0  0  0  0  0  0  0  0  0  0  0  0
    3.0683   -0.6953    9.1493 C   0  0  0  0  0  0  0  0  0  0  0  0
    3.0462   -1.3033   10.5304 C   0  0  0  0  0  0  0  0  0  0  0  0
    3.3341   -0.0364   11.3569 C   0  0  0  0  0  0  0  0  0  0  0  0
    2.5113    0.9510   10.5751 C   0  0  0  0  0  0  0  0  0  0  0  0
    2.7618    0.6281    9.2686 O   0  0  0  0  0  0  0  0  0  0  0  0
    2.8304    2.3163   10.8758 N   0  0  0  0  0  0  0  0  0  0  0  0
    3.2366    3.2189    9.9659 C   0  0  0  0  0  0  0  0  0  0  0  0
    3.4639    4.4028   10.5386 N   0  0  0  0  0  0  0  0  0  0  0  0
    3.2041    4.2876   11.8560 C   0  0  0  0  0  0  0  0  0  0  0  0
    3.2580    5.1543   12.9284 C   0  0  0  0  0  0  0  0  0  0  0  0
    2.9246    4.7005   14.1347 N   0  0  0  0  0  0  0  0  0  0  0  0
    2.5335    3.4170   14.3499 C   0  0  0  0  0  0  0  0  0  0  0  0
    2.4901    2.5983   13.2922 N   0  0  0  0  0  0  0  0  0  0  0  0
    2.8093    2.9721   12.0409 C   0  0  0  0  0  0  0  0  0  0  0  0
    2.1869    2.9778   15.7179 C   0  0  0  0  0  0  0  0  0  0  0  0
    2.0373    1.7592   15.9672 O   0  0  0  0  0  0  0  0  0  0  0  0
    2.0206    3.9192   16.7615 N   0  0  0  0  0  0  0  0  0  0  0  0
    2.9224    5.0660   16.9098 C   0  0  0  0  0  0  0  0  0  0  0  0
    3.6309    4.9998   18.2467 C   0  0  0  0  0  0  0  0  0  0  0  0
    2.7421    5.4876   19.2655 N   0  0  0  0  0  0  0  0  0  0  0  0
    3.0482    5.5996   20.6434 C   0  0  0  0  0  0  0  0  0  0  0  0
    3.9842    4.9418   21.1152 O   0  0  0  0  0  0  0  0  0  0  0  0
    2.2970    6.4517   21.4778 N   0  0  0  0  0  0  0  0  0  0  0  0
    2.7509    6.8676   22.7949 C   0  0  0  0  0  0  0  0  0  0  0  0
    1.9340    8.0332   23.3383 C   0  0  0  0  0  0  0  0  0  0  0  0
    0.4669    7.7341   23.1852 C   0  0  0  0  0  0  0  0  0  0  0  0
    0.2252    6.3925   23.7398 N   0  0  0  0  0  0  0  0  0  0  0  0
    1.2610    5.8453   24.5505 C   0  0  0  0  0  0  0  0  0  0  0  0
    2.5565    5.7285   23.7677 C   0  0  0  0  0  0  0  0  0  0  0  0
   -0.9991    5.7586   23.4310 C   0  0  0  0  0  0  0  0  0  0  0  0
   -1.9683    6.3608   22.6728 C   0  0  0  0  0  0  0  0  0  0  0  0
   -3.1485    5.6567   22.4195 C   0  0  0  0  0  0  0  0  0  0  0  0
   -3.3515    4.3995   22.9053 C   0  0  0  0  0  0  0  0  0  0  0  0
   -2.3617    3.8255   23.6605 C   0  0  0  0  0  0  0  0  0  0  0  0
   -1.2389    4.5016   23.8986 N   0  0  0  0  0  0  0  0  0  0  0  0
    3.6627    6.5062   12.7516 N   0  0  0  0  0  0  0  0  0  0  0  0
    3.4210    7.4478   13.7791 C   0  0  0  0  0  0  0  0  0  0  0  0
    4.2137    7.3453   15.0233 C   0  0  0  0  0  0  0  0  0  0  0  0
    5.6542    7.5402   14.9243 C   0  0  0  0  0  0  0  0  0  0  0  0
    6.5468    6.5135   14.7391 C   0  0  0  0  0  0  0  0  0  0  0  0
    7.8881    6.8354   14.6543 C   0  0  0  0  0  0  0  0  0  0  0  0
    8.3314    8.1370   14.7508 C   0  0  0  0  0  0  0  0  0  0  0  0
    7.4477    9.1821   14.9374 C   0  0  0  0  0  0  0  0  0  0  0  0
    6.1202    8.8560   15.0202 C   0  0  0  0  0  0  0  0  0  0  0  0
    3.7046    8.3920   15.9813 C   0  0  0  0  0  0  0  0  0  0  0  0
    4.5406    9.0500   16.8573 C   0  0  0  0  0  0  0  0  0  0  0  0
    4.0119    9.9983   17.6837 C   0  0  0  0  0  0  0  0  0  0  0  0
    2.6712   10.3079   17.6595 C   0  0  0  0  0  0  0  0  0  0  0  0
    1.8373    9.6644   16.7983 C   0  0  0  0  0  0  0  0  0  0  0  0
    2.3659    8.6891   15.9442 C   0  0  0  0  0  0  0  0  0  0  0  0
    2.8888   -0.2202   12.6419 O   0  0  0  0  0  0  0  0  0  0  0  0
    4.0726   -2.1958   10.7078 O   0  0  0  0  0  0  0  0  0  0  0  0
  1  2  1  0
  2  3  1  0
  3  4  1  0
  4  5  2  0
  4  6  1  0
  6  7  1  0
  7  8  1  0
  8  9  1  0
  9 10  1  0
  9 11  1  0
 11 12  1  0
 12 13  2  0
 13 14  1  0
 14 15  2  0
 15 16  1  0
 16 17  2  0
 17 18  1  0
 18 19  2  0
 17 20  1  0
 20 21  2  0
 20 22  1  0
 22 23  1  0
 23 24  1  0
 24 25  1  0
 25 26  1  0
 26 27  2  0
 26 28  1  0
 28 29  1  0
 29 30  1  0
 30 31  1  0
 31 32  1  0
 32 33  1  0
 33 34  1  0
 32 35  1  0
 35 36  2  0
 36 37  1  0
 37 38  2  0
 38 39  1  0
 39 40  2  0
 15 41  1  0
 41 42  1  0
 42 43  1  0
 43 44  1  0
 44 45  2  0
 45 46  1  0
 46 47  2  0
 47 48  1  0
 48 49  2  0
 43 50  1  0
 50 51  2  0
 51 52  1  0
 52 53  2  0
 53 54  1  0
 54 55  2  0
  8 56  1  0
  7 57  1  0
 10  6  1  0
 19 11  1  0
 19 14  1  0
 34 29  1  0
 40 35  1  0
 49 44  1  0
 55 50  1  0
M  END
$$$$
