
     RDKit          3D

 57 63  0  0  0  0  0  0  0  0999 V2000
   12.3543    7.3260   20.6551 C   0  0  0  0  0  0  0  0  0  0  0  0
   11.0485    6.5637   20.7365 C   0  0  0  0  0  0  0  0  0  0  0  0
   10.4103    6.5287   19.4401 N   0  0  0  0  0  0  0  0  0  0  0  0
    9.0217    6.6746   19.3034 C   0  0  0  0  0  0  0  0  0  0  0  0
    8.3332    6.8531   20.3667 O   0  0  0  0  0  0  0  0  0  0  0  0
    8.2833    6.6400   18.0402 C   0  0  0  0  0  0  0  0  0  0  0  0
    7.1293    7.6093   17.9587 C   0  0  0  0  0  0  0  0  0  0  0  0
    6.2443    6.8475   16.9550 C   0  0  0  0  0  0  0  0  0  0  0  0
    6.4720    5.4458   17.4514 C   0  0  0  0  0  0  0  0  0  0  0  0
    7.8153    5.4021   17.7116 O   0  0  0  0  0  0  0  0  0  0  0  0
    6.0594    4.4406   16.5156 N   0  0  0  0  0  0  0  0  0  0  0  0
    6.8387    3.4286   16.0961 C   0  0  0  0  0  0  0  0  0  0  0  0
    6.1873    2.6563   15.2239 N   0  0  0  0  0  0  0  0  0  0  0  0
    4.9495    3.1632   15.0585 C   0  0  0  0  0  0  0  0  0  0  0  0
    3.8540    2.8035   14.3005 C   0  0  0  0  0  0  0  0  0  0  0  0
    2.7530    3.5479   14.3745 N   0  0  0  0  0  0  0  0  0  0  0  0
    2.6669    4.6480   15.1678 C   0  0  0  0  0  0  0  0  0  0  0  0
    3.7440    4.9737   15.8921 N   0  0  0  0  0  0  0  0  0  0  0  0
    4.8951    4.2794   15.8781 C   0  0  0  0  0  0  0  0  0  0  0  0
    1.4159    5.4347   15.1937 C   0  0  0  0  0  0  0  0  0  0  0  0
    1.3786    6.5355   15.7905 O   0  0  0  0  0  0  0  0  0  0  0  0
    0.2483    4.9617   14.5487 N   0  0  0  0  0  0  0  0  0  0  0  0
   -0.5565    3.8771   15.1196 C   0  0  0  0  0  0  0  0  0  0  0  0
   -1.9895    4.3331   15.2992 C   0  0  0  0  0  0  0  0  0  0  0  0
   -2.6802    4.1911   14.0467 N   0  0  0  0  0  0  0  0  0  0  0  0
   -4.0856    4.1526   13.8788 C   0  0  0  0  0  0  0  0  0  0  0  0
   -4.7259    3.1899   14.3199 O   0  0  0  0  0  0  0  0  0  0  0  0
   -4.7574    5.1992   13.2156 N   0  0  0  0  0  0  0  0  0  0  0  0
   -5.0514    6.4746   13.8486 C   0  0  0  0  0  0  0  0  0  0  0  0
   -5.8925    7.3756   12.9531 C   0  0  0  0  0  0  0  0  0  0  0  0
   -7.0612    6.5972   12.4115 C   0  0  0  0  0  0  0  0  0  0  0  0
   -7.7182    5.9311   13.5476 N   0  0  0  0  0  0  0  0  0  0  0  0
   -7.3632    6.3956   14.8468 C   0  0  0  0  0  0  0  0  0  0  0  0
   -5.8740    6.2318   15.0920 C   0  0  0  0  0  0  0  0  0  0  0  0
   -8.6388    4.8968   13.2671 C   0  0  0  0  0  0  0  0  0  0  0  0
   -9.0119    4.5707   11.9898 C   0  0  0  0  0  0  0  0  0  0  0  0
   -9.9298    3.5327   11.8091 C   0  0  0  0  0  0  0  0  0  0  0  0
  -10.4542    2.8475   12.8642 C   0  0  0  0  0  0  0  0  0  0  0  0
  -10.0599    3.1987   14.1294 C   0  0  0  0  0  0  0  0  0  0  0  0
   -9.1845    4.1891   14.2955 N   0  0  0  0  0  0  0  0  0  0  0  0
    3.8981    1.6609   13.4548 N   0  0  0  0  0  0  0  0  0  0  0  0
    2.7410    1.2782   12.7368 C   0  0  0  0  0  0  0  0  0  0  0  0
    2.9170    0.6277   11.4206 C   0  0  0  0  0  0  0  0  0  0  0  0
    1.7422    0.4986   10.5684 C   0  0  0  0  0  0  0  0  0  0  0  0
    0.5322    1.0818   10.8529 C   0  0  0  0  0  0  0  0  0  0  0  0
   -0.5015    0.8874    9.9565 C   0  0  0  0  0  0  0  0  0  0  0  0
   -0.3403    0.1364    8.8119 C   0  0  0  0  0  0  0  0  0  0  0  0
    0.8697   -0.4576    8.5101 C   0  0  0  0  0  0  0  0  0  0  0  0
    1.8896   -0.2605    9.4024 C   0  0  0  0  0  0  0  0  0  0  0  0
    3.9256    1.4320   10.6406 C   0  0  0  0  0  0  0  0  0  0  0  0
    4.0383    2.7981   10.7816 C   0  0  0  0  0  0  0  0  0  0  0  0
    4.9864    3.4581   10.0554 C   0  0  0  0  0  0  0  0  0  0  0  0
    5.8254    2.7913    9.1921 C   0  0  0  0  0  0  0  0  0  0  0  0
    5.7226    1.4426    9.0456 C   0  0  0  0  0  0  0  0  0  0  0  0
    4.7545    0.7522    9.7846 C   0  0  0  0  0  0  0  0  0  0  0  0
    4.9440    7.2670   17.0848 O   0  0  0  0  0  0  0  0  0  0  0  0
    7.5094    8.8043   17.4027 O   0  0  0  0  0  0  0  0  0  0  0  0
  1  2  1  0
  2  3  1  0
  3  4  1  0
  4  5  2  0
  4  6  1  0
  6  7  1  0
  7  8  1  0
  8  9  1  0
  9 10  1  0
  9 11  1  0
 11 12  1  0
 12 13  2  0
 13 14  1  0
 14 15  2  0
 15 16  1  0
 16 17  2  0
 17 18  1  0
 18 19  2  0
 17 20  1  0
 20 21  2  0
 20 22  1  0
 22 23  1  0
 23 24  1  0
 24 25  1  0
 25 26  1  0
 26 27  2  0
 26 28  1  0
 28 29  1  0
 29 30  1  0
 30 31  1  0
 31 32  1  0
 32 33  1  0
 33 34  1  0
 32 35  1  0
 35 36  2  0
 36 37  1  0
 37 38  2  0
 38 39  1  0
 39 40  2  0
 15 41  1  0
 41 42  1  0
 42 43  1  0
 43 44  1  0
 44 45  2  0
 45 46  1  0
 46 47  2  0
 47 48  1  0
 48 49  2  0
 43 50  1  0
 50 51  2  0
 51 52  1  0
 52 53  2  0
 53 54  1  0
 54 55  2  0
  8 56  1  0
  7 57  1  0
 10  6  1  0
 19 11  1  0
 19 14  1  0
 34 29  1  0
 40 35  1  0
 49 44  1  0
 55 50  1  0
M  END
$$$$
