
     RDKit          3D

 57 63  0  0  0  0  0  0  0  0999 V2000
    1.5651   -3.4624    4.2959 C   0  0  0  0  0  0  0  0  0  0  0  0
    2.3915   -2.2886    4.7773 C   0  0  0  0  0  0  0  0  0  0  0  0
    2.2607   -2.1410    6.2092 N   0  0  0  0  0  0  0  0  0  0  0  0
    2.7253   -0.9955    6.8727 C   0  0  0  0  0  0  0  0  0  0  0  0
    3.1598   -0.0274    6.1582 O   0  0  0  0  0  0  0  0  0  0  0  0
    2.7580   -0.8077    8.3239 C   0  0  0  0  0  0  0  0  0  0  0  0
    1.4184   -0.9403    9.0062 C   0  0  0  0  0  0  0  0  0  0  0  0
    1.6779   -0.0367   10.2257 C   0  0  0  0  0  0  0  0  0  0  0  0
    2.4677    1.0523    9.5525 C   0  0  0  0  0  0  0  0  0  0  0  0
    3.3109    0.3768    8.7118 O   0  0  0  0  0  0  0  0  0  0  0  0
    3.1698    1.8951   10.4761 N   0  0  0  0  0  0  0  0  0  0  0  0
    4.5088    1.9616   10.5759 C   0  0  0  0  0  0  0  0  0  0  0  0
    4.8730    2.8270   11.5245 N   0  0  0  0  0  0  0  0  0  0  0  0
    3.7549    3.3478   12.0679 C   0  0  0  0  0  0  0  0  0  0  0  0
    3.5067    4.2687   13.0652 C   0  0  0  0  0  0  0  0  0  0  0  0
    2.2432    4.5647   13.3620 N   0  0  0  0  0  0  0  0  0  0  0  0
    1.1894    3.9949   12.7206 C   0  0  0  0  0  0  0  0  0  0  0  0
    1.4590    3.1055   11.7578 N   0  0  0  0  0  0  0  0  0  0  0  0
    2.7029    2.7481   11.3940 C   0  0  0  0  0  0  0  0  0  0  0  0
   -0.1885    4.3629   13.1084 C   0  0  0  0  0  0  0  0  0  0  0  0
   -1.1606    3.9645   12.4261 O   0  0  0  0  0  0  0  0  0  0  0  0
   -0.4311    5.1646   14.2493 N   0  0  0  0  0  0  0  0  0  0  0  0
   -1.0277    6.4993   14.1351 C   0  0  0  0  0  0  0  0  0  0  0  0
    0.0433    7.5606   14.2777 C   0  0  0  0  0  0  0  0  0  0  0  0
   -0.1693    8.2691   15.5100 N   0  0  0  0  0  0  0  0  0  0  0  0
   -1.1041    9.3136   15.7109 C   0  0  0  0  0  0  0  0  0  0  0  0
   -1.9878    9.5111   14.8675 O   0  0  0  0  0  0  0  0  0  0  0  0
   -1.0350   10.1263   16.8603 N   0  0  0  0  0  0  0  0  0  0  0  0
   -2.0017   11.1742   17.1454 C   0  0  0  0  0  0  0  0  0  0  0  0
   -2.1302   11.4409   18.6398 C   0  0  0  0  0  0  0  0  0  0  0  0
   -0.7600   11.5942   19.2433 C   0  0  0  0  0  0  0  0  0  0  0  0
   -0.0169   12.5631   18.4217 N   0  0  0  0  0  0  0  0  0  0  0  0
   -0.7866   13.3496   17.5170 C   0  0  0  0  0  0  0  0  0  0  0  0
   -1.5261   12.4676   16.5269 C   0  0  0  0  0  0  0  0  0  0  0  0
    1.3836   12.6391   18.5911 C   0  0  0  0  0  0  0  0  0  0  0  0
    2.1797   13.4188   17.7940 C   0  0  0  0  0  0  0  0  0  0  0  0
    3.5559   13.4303   18.0357 C   0  0  0  0  0  0  0  0  0  0  0  0
    4.1145   12.6911   19.0355 C   0  0  0  0  0  0  0  0  0  0  0  0
    3.2899   11.9216   19.8149 C   0  0  0  0  0  0  0  0  0  0  0  0
    1.9788   11.9147   19.5798 N   0  0  0  0  0  0  0  0  0  0  0  0
    4.5778    4.8899   13.7648 N   0  0  0  0  0  0  0  0  0  0  0  0
    4.3030    5.6726   14.9105 C   0  0  0  0  0  0  0  0  0  0  0  0
    4.5314    5.0699   16.2414 C   0  0  0  0  0  0  0  0  0  0  0  0
    5.3480    3.8650   16.3061 C   0  0  0  0  0  0  0  0  0  0  0  0
    4.8640    2.6420   16.7000 C   0  0  0  0  0  0  0  0  0  0  0  0
    5.7431    1.5757   16.7099 C   0  0  0  0  0  0  0  0  0  0  0  0
    7.0634    1.7180   16.3405 C   0  0  0  0  0  0  0  0  0  0  0  0
    7.5674    2.9408   15.9418 C   0  0  0  0  0  0  0  0  0  0  0  0
    6.6907    3.9928   15.9341 C   0  0  0  0  0  0  0  0  0  0  0  0
    5.2186    6.0997   17.1015 C   0  0  0  0  0  0  0  0  0  0  0  0
    6.1502    6.9764   16.5892 C   0  0  0  0  0  0  0  0  0  0  0  0
    6.7187    7.8936   17.4243 C   0  0  0  0  0  0  0  0  0  0  0  0
    6.3826    7.9596   18.7572 C   0  0  0  0  0  0  0  0  0  0  0  0
    5.4638    7.0988   19.2729 C   0  0  0  0  0  0  0  0  0  0  0  0
    4.8720    6.1526   18.4278 C   0  0  0  0  0  0  0  0  0  0  0  0
    0.4791    0.3952   10.7355 O   0  0  0  0  0  0  0  0  0  0  0  0
    1.1949   -2.2226    9.4392 O   0  0  0  0  0  0  0  0  0  0  0  0
  1  2  1  0
  2  3  1  0
  3  4  1  0
  4  5  2  0
  4  6  1  0
  6  7  1  0
  7  8  1  0
  8  9  1  0
  9 10  1  0
  9 11  1  0
 11 12  1  0
 12 13  2  0
 13 14  1  0
 14 15  2  0
 15 16  1  0
 16 17  2  0
 17 18  1  0
 18 19  2  0
 17 20  1  0
 20 21  2  0
 20 22  1  0
 22 23  1  0
 23 24  1  0
 24 25  1  0
 25 26  1  0
 26 27  2  0
 26 28  1  0
 28 29  1  0
 29 30  1  0
 30 31  1  0
 31 32  1  0
 32 33  1  0
 33 34  1  0
 32 35  1  0
 35 36  2  0
 36 37  1  0
 37 38  2  0
 38 39  1  0
 39 40  2  0
 15 41  1  0
 41 42  1  0
 42 43  1  0
 43 44  1  0
 44 45  2  0
 45 46  1  0
 46 47  2  0
 47 48  1  0
 48 49  2  0
 43 50  1  0
 50 51  2  0
 51 52  1  0
 52 53  2  0
 53 54  1  0
 54 55  2  0
  8 56  1  0
  7 57  1  0
 10  6  1  0
 19 11  1  0
 19 14  1  0
 34 29  1  0
 40 35  1  0
 49 44  1  0
 55 50  1  0
M  END
$$$$
