
     RDKit          3D

 57 63  0  0  0  0  0  0  0  0999 V2000
    2.1330   -3.0297    4.4500 C   0  0  0  0  0  0  0  0  0  0  0  0
    1.5576   -1.8577    5.2168 C   0  0  0  0  0  0  0  0  0  0  0  0
    1.8945   -1.9655    6.6183 N   0  0  0  0  0  0  0  0  0  0  0  0
    1.7377   -0.8812    7.4945 C   0  0  0  0  0  0  0  0  0  0  0  0
    1.2814    0.2130    7.0138 O   0  0  0  0  0  0  0  0  0  0  0  0
    2.0533   -0.8901    8.9237 C   0  0  0  0  0  0  0  0  0  0  0  0
    0.8542   -1.0077    9.8325 C   0  0  0  0  0  0  0  0  0  0  0  0
    1.4217   -0.2962   11.0746 C   0  0  0  0  0  0  0  0  0  0  0  0
    2.1814    0.8078   10.3913 C   0  0  0  0  0  0  0  0  0  0  0  0
    2.7846    0.1863    9.3312 O   0  0  0  0  0  0  0  0  0  0  0  0
    3.1216    1.4642   11.2524 N   0  0  0  0  0  0  0  0  0  0  0  0
    4.4548    1.4380   11.0807 C   0  0  0  0  0  0  0  0  0  0  0  0
    5.0719    2.1324   12.0390 N   0  0  0  0  0  0  0  0  0  0  0  0
    4.1319    2.6315   12.8659 C   0  0  0  0  0  0  0  0  0  0  0  0
    4.1653    3.4089   14.0055 C   0  0  0  0  0  0  0  0  0  0  0  0
    3.0154    3.7306   14.5939 N   0  0  0  0  0  0  0  0  0  0  0  0
    1.8107    3.3228   14.1152 C   0  0  0  0  0  0  0  0  0  0  0  0
    1.8077    2.5702   13.0087 N   0  0  0  0  0  0  0  0  0  0  0  0
    2.9200    2.1989   12.3514 C   0  0  0  0  0  0  0  0  0  0  0  0
    0.5731    3.7089   14.8250 C   0  0  0  0  0  0  0  0  0  0  0  0
   -0.5411    3.5561   14.2732 O   0  0  0  0  0  0  0  0  0  0  0  0
    0.6256    4.2525   16.1308 N   0  0  0  0  0  0  0  0  0  0  0  0
   -0.4558    5.0928   16.6549 C   0  0  0  0  0  0  0  0  0  0  0  0
    0.0135    6.5277   16.7755 C   0  0  0  0  0  0  0  0  0  0  0  0
    1.2781    6.5445   17.4584 N   0  0  0  0  0  0  0  0  0  0  0  0
    1.8847    7.6819   18.0443 C   0  0  0  0  0  0  0  0  0  0  0  0
    1.4541    8.8099   17.7729 O   0  0  0  0  0  0  0  0  0  0  0  0
    2.9710    7.5386   18.9308 N   0  0  0  0  0  0  0  0  0  0  0  0
    3.6443    8.6719   19.5439 C   0  0  0  0  0  0  0  0  0  0  0  0
    4.1634    8.3416   20.9376 C   0  0  0  0  0  0  0  0  0  0  0  0
    4.9174    7.0396   20.8983 C   0  0  0  0  0  0  0  0  0  0  0  0
    5.8853    7.1183   19.7925 N   0  0  0  0  0  0  0  0  0  0  0  0
    6.1343    8.4154   19.2585 C   0  0  0  0  0  0  0  0  0  0  0  0
    4.8568    9.0328   18.7184 C   0  0  0  0  0  0  0  0  0  0  0  0
    6.4862    5.9181   19.3513 C   0  0  0  0  0  0  0  0  0  0  0  0
    7.5237    5.9007   18.4567 C   0  0  0  0  0  0  0  0  0  0  0  0
    8.0545    4.6650   18.0772 C   0  0  0  0  0  0  0  0  0  0  0  0
    7.5671    3.4926   18.5729 C   0  0  0  0  0  0  0  0  0  0  0  0
    6.5286    3.5451   19.4663 C   0  0  0  0  0  0  0  0  0  0  0  0
    6.0267    4.7259   19.8243 N   0  0  0  0  0  0  0  0  0  0  0  0
    5.4027    3.8580   14.5438 N   0  0  0  0  0  0  0  0  0  0  0  0
    5.4821    5.1392   15.1381 C   0  0  0  0  0  0  0  0  0  0  0  0
    5.2418    5.2522   16.5928 C   0  0  0  0  0  0  0  0  0  0  0  0
    6.2587    5.9189   17.3955 C   0  0  0  0  0  0  0  0  0  0  0  0
    6.5403    7.2594   17.3007 C   0  0  0  0  0  0  0  0  0  0  0  0
    7.5246    7.7693   18.1259 C   0  0  0  0  0  0  0  0  0  0  0  0
    8.2099    6.9733   19.0185 C   0  0  0  0  0  0  0  0  0  0  0  0
    7.9399    5.6230   19.1271 C   0  0  0  0  0  0  0  0  0  0  0  0
    6.9632    5.1246   18.3067 C   0  0  0  0  0  0  0  0  0  0  0  0
    3.9642    6.0278   16.7896 C   0  0  0  0  0  0  0  0  0  0  0  0
    3.7453    7.2436   16.1788 C   0  0  0  0  0  0  0  0  0  0  0  0
    2.5572    7.8807   16.3895 C   0  0  0  0  0  0  0  0  0  0  0  0
    1.5814    7.3372   17.1934 C   0  0  0  0  0  0  0  0  0  0  0  0
    1.7874    6.1374   17.8009 C   0  0  0  0  0  0  0  0  0  0  0  0
    3.0016    5.4721   17.5936 C   0  0  0  0  0  0  0  0  0  0  0  0
    0.3859    0.1559   11.8532 O   0  0  0  0  0  0  0  0  0  0  0  0
    0.5850   -2.3148   10.1499 O   0  0  0  0  0  0  0  0  0  0  0  0
  1  2  1  0
  2  3  1  0
  3  4  1  0
  4  5  2  0
  4  6  1  0
  6  7  1  0
  7  8  1  0
  8  9  1  0
  9 10  1  0
  9 11  1  0
 11 12  1  0
 12 13  2  0
 13 14  1  0
 14 15  2  0
 15 16  1  0
 16 17  2  0
 17 18  1  0
 18 19  2  0
 17 20  1  0
 20 21  2  0
 20 22  1  0
 22 23  1  0
 23 24  1  0
 24 25  1  0
 25 26  1  0
 26 27  2  0
 26 28  1  0
 28 29  1  0
 29 30  1  0
 30 31  1  0
 31 32  1  0
 32 33  1  0
 33 34  1  0
 32 35  1  0
 35 36  2  0
 36 37  1  0
 37 38  2  0
 38 39  1  0
 39 40  2  0
 15 41  1  0
 41 42  1  0
 42 43  1  0
 43 44  1  0
 44 45  2  0
 45 46  1  0
 46 47  2  0
 47 48  1  0
 48 49  2  0
 43 50  1  0
 50 51  2  0
 51 52  1  0
 52 53  2  0
 53 54  1  0
 54 55  2  0
  8 56  1  0
  7 57  1  0
 10  6  1  0
 19 11  1  0
 19 14  1  0
 34 29  1  0
 40 35  1  0
 49 44  1  0
 55 50  1  0
M  END
$$$$
