
     RDKit          3D

 57 63  0  0  0  0  0  0  0  0999 V2000
   -2.3872   -1.3781   11.8243 C   0  0  0  0  0  0  0  0  0  0  0  0
   -1.4810   -1.5033   10.6177 C   0  0  0  0  0  0  0  0  0  0  0  0
   -0.3817   -0.5704   10.7213 N   0  0  0  0  0  0  0  0  0  0  0  0
    0.6352   -0.5271    9.7558 C   0  0  0  0  0  0  0  0  0  0  0  0
    0.7976   -1.5566    9.0140 O   0  0  0  0  0  0  0  0  0  0  0  0
    1.5360    0.6020    9.5196 C   0  0  0  0  0  0  0  0  0  0  0  0
    2.4113    0.4643    8.2979 C   0  0  0  0  0  0  0  0  0  0  0  0
    3.5955    1.3389    8.7491 C   0  0  0  0  0  0  0  0  0  0  0  0
    3.6538    0.9340   10.1967 C   0  0  0  0  0  0  0  0  0  0  0  0
    2.3405    0.8938   10.5812 O   0  0  0  0  0  0  0  0  0  0  0  0
    4.4363    1.8256   11.0022 N   0  0  0  0  0  0  0  0  0  0  0  0
    5.7371    2.0933   10.7933 C   0  0  0  0  0  0  0  0  0  0  0  0
    6.1982    2.9536   11.7036 N   0  0  0  0  0  0  0  0  0  0  0  0
    5.1851    3.2658   12.5359 C   0  0  0  0  0  0  0  0  0  0  0  0
    5.0624    4.0835   13.6406 C   0  0  0  0  0  0  0  0  0  0  0  0
    3.8806    4.1644   14.2480 N   0  0  0  0  0  0  0  0  0  0  0  0
    2.7912    3.4728   13.8217 C   0  0  0  0  0  0  0  0  0  0  0  0
    2.9386    2.6877   12.7481 N   0  0  0  0  0  0  0  0  0  0  0  0
    4.0937    2.5467   12.0750 C   0  0  0  0  0  0  0  0  0  0  0  0
    1.5118    3.6023   14.5502 C   0  0  0  0  0  0  0  0  0  0  0  0
    1.4153    4.3974   15.5135 O   0  0  0  0  0  0  0  0  0  0  0  0
    0.3824    2.8367   14.1740 N   0  0  0  0  0  0  0  0  0  0  0  0
   -0.8463    3.4720   13.6874 C   0  0  0  0  0  0  0  0  0  0  0  0
   -0.5129    4.7571   12.9586 C   0  0  0  0  0  0  0  0  0  0  0  0
   -1.3827    5.7976   13.4349 N   0  0  0  0  0  0  0  0  0  0  0  0
   -2.4363    6.3933   12.7002 C   0  0  0  0  0  0  0  0  0  0  0  0
   -3.4178    5.7109   12.3801 O   0  0  0  0  0  0  0  0  0  0  0  0
   -2.3750    7.7525   12.3326 N   0  0  0  0  0  0  0  0  0  0  0  0
   -3.2455    8.3380   11.3259 C   0  0  0  0  0  0  0  0  0  0  0  0
   -4.6770    8.4864   11.8258 C   0  0  0  0  0  0  0  0  0  0  0  0
   -4.6711    9.1356   13.1837 C   0  0  0  0  0  0  0  0  0  0  0  0
   -3.8322   10.3418   13.0974 N   0  0  0  0  0  0  0  0  0  0  0  0
   -3.5135   10.8003   11.7868 C   0  0  0  0  0  0  0  0  0  0  0  0
   -2.7646    9.7341   11.0075 C   0  0  0  0  0  0  0  0  0  0  0  0
   -3.4135   10.9453   14.3043 C   0  0  0  0  0  0  0  0  0  0  0  0
   -2.4280   11.8960   14.3480 C   0  0  0  0  0  0  0  0  0  0  0  0
   -2.0794   12.4368   15.5884 C   0  0  0  0  0  0  0  0  0  0  0  0
   -2.6922   12.0424   16.7402 C   0  0  0  0  0  0  0  0  0  0  0  0
   -3.6744   11.0892   16.6618 C   0  0  0  0  0  0  0  0  0  0  0  0
   -4.0025   10.5773   15.4765 N   0  0  0  0  0  0  0  0  0  0  0  0
    6.1753    4.8254   14.1237 N   0  0  0  0  0  0  0  0  0  0  0  0
    5.9967    5.7384   15.1893 C   0  0  0  0  0  0  0  0  0  0  0  0
    6.3219    5.2874   16.5596 C   0  0  0  0  0  0  0  0  0  0  0  0
    7.7180    5.3375   16.9737 C   0  0  0  0  0  0  0  0  0  0  0  0
    8.2219    4.6167   18.0280 C   0  0  0  0  0  0  0  0  0  0  0  0
    9.5678    4.7488   18.3121 C   0  0  0  0  0  0  0  0  0  0  0  0
   10.3900    5.5719   17.5727 C   0  0  0  0  0  0  0  0  0  0  0  0
    9.9001    6.3044   16.5089 C   0  0  0  0  0  0  0  0  0  0  0  0
    8.5657    6.1684   16.2330 C   0  0  0  0  0  0  0  0  0  0  0  0
    5.5575    6.1576   17.5245 C   0  0  0  0  0  0  0  0  0  0  0  0
    4.1799    6.1833   17.5523 C   0  0  0  0  0  0  0  0  0  0  0  0
    3.5557    6.9828   18.4651 C   0  0  0  0  0  0  0  0  0  0  0  0
    4.2692    7.7573   19.3510 C   0  0  0  0  0  0  0  0  0  0  0  0
    5.6295    7.7391   19.3319 C   0  0  0  0  0  0  0  0  0  0  0  0
    6.2836    6.9233   18.4010 C   0  0  0  0  0  0  0  0  0  0  0  0
    4.7168    0.9883    8.0397 O   0  0  0  0  0  0  0  0  0  0  0  0
    1.8314    1.0325    7.1922 O   0  0  0  0  0  0  0  0  0  0  0  0
  1  2  1  0
  2  3  1  0
  3  4  1  0
  4  5  2  0
  4  6  1  0
  6  7  1  0
  7  8  1  0
  8  9  1  0
  9 10  1  0
  9 11  1  0
 11 12  1  0
 12 13  2  0
 13 14  1  0
 14 15  2  0
 15 16  1  0
 16 17  2  0
 17 18  1  0
 18 19  2  0
 17 20  1  0
 20 21  2  0
 20 22  1  0
 22 23  1  0
 23 24  1  0
 24 25  1  0
 25 26  1  0
 26 27  2  0
 26 28  1  0
 28 29  1  0
 29 30  1  0
 30 31  1  0
 31 32  1  0
 32 33  1  0
 33 34  1  0
 32 35  1  0
 35 36  2  0
 36 37  1  0
 37 38  2  0
 38 39  1  0
 39 40  2  0
 15 41  1  0
 41 42  1  0
 42 43  1  0
 43 44  1  0
 44 45  2  0
 45 46  1  0
 46 47  2  0
 47 48  1  0
 48 49  2  0
 43 50  1  0
 50 51  2  0
 51 52  1  0
 52 53  2  0
 53 54  1  0
 54 55  2  0
  8 56  1  0
  7 57  1  0
 10  6  1  0
 19 11  1  0
 19 14  1  0
 34 29  1  0
 40 35  1  0
 49 44  1  0
 55 50  1  0
M  END
$$$$
