
     RDKit          3D

 37 41  0  0  0  0  0  0  0  0999 V2000
  -11.8030    5.4121   -5.7199 C   0  0  0  0  0  0  0  0  0  0  0  0
  -11.0015    6.6534   -5.8587 C   0  0  0  0  0  0  0  0  0  0  0  0
  -11.2037    7.7367   -5.0016 C   0  0  0  0  0  0  0  0  0  0  0  0
  -10.4783    8.8945   -5.1081 C   0  0  0  0  0  0  0  0  0  0  0  0
   -9.5121    8.9662   -6.1135 C   0  0  0  0  0  0  0  0  0  0  0  0
   -9.3104    7.9079   -6.9548 C   0  0  0  0  0  0  0  0  0  0  0  0
  -10.0409    6.7610   -6.8374 C   0  0  0  0  0  0  0  0  0  0  0  0
   -9.8170    5.6210   -7.7516 C   0  0  0  0  0  0  0  0  0  0  0  0
   -9.2172    4.4618   -7.3091 C   0  0  0  0  0  0  0  0  0  0  0  0
   -9.0157    3.4088   -8.1751 C   0  0  0  0  0  0  0  0  0  0  0  0
   -9.4077    3.4767   -9.5192 C   0  0  0  0  0  0  0  0  0  0  0  0
  -10.0038    4.6258   -9.9602 C   0  0  0  0  0  0  0  0  0  0  0  0
  -10.2015    5.6864   -9.0700 C   0  0  0  0  0  0  0  0  0  0  0  0
  -10.4922    4.8372  -11.3394 C   0  0  0  0  0  0  0  0  0  0  0  0
   -9.4338    5.0074  -12.2100 O   0  0  0  0  0  0  0  0  0  0  0  0
   -9.5338    5.1855  -13.5482 C   0  0  0  0  0  0  0  0  0  0  0  0
  -10.6857    5.2914  -14.2042 N   0  0  0  0  0  0  0  0  0  0  0  0
  -10.7863    5.4676  -15.5251 C   0  0  0  0  0  0  0  0  0  0  0  0
   -9.6535    5.5537  -16.3205 C   0  0  0  0  0  0  0  0  0  0  0  0
   -9.3176    5.7653  -17.7009 C   0  0  0  0  0  0  0  0  0  0  0  0
   -8.1518    4.7207  -17.7261 C   0  0  0  0  0  0  0  0  0  0  0  0
   -8.9446    5.0165  -18.8376 C   0  0  0  0  0  0  0  0  0  0  0  0
   -8.2731    5.6607  -19.9941 C   0  0  0  0  0  0  0  0  0  0  0  0
   -7.5091    6.6295  -19.7949 O   0  0  0  0  0  0  0  0  0  0  0  0
   -8.4530    5.2360  -21.3035 O   0  0  0  0  0  0  0  0  0  0  0  0
   -7.3740    5.5158  -16.7156 C   0  0  0  0  0  0  0  0  0  0  0  0
   -8.4488    5.4425  -15.6447 C   0  0  0  0  0  0  0  0  0  0  0  0
   -8.3459    5.2632  -14.2945 C   0  0  0  0  0  0  0  0  0  0  0  0
   -8.2776    7.9518   -8.0489 C   0  0  0  0  0  0  0  0  0  0  0  0
  -10.6232    9.9756   -4.3193 O   0  0  0  0  0  0  0  0  0  0  0  0
  -11.2558   10.2241   -3.1213 C   0  0  0  0  0  0  0  0  0  0  0  0
  -11.1521   11.6002   -2.5683 C   0  0  0  0  0  0  0  0  0  0  0  0
  -11.7013   12.6440   -3.4814 C   0  0  0  0  0  0  0  0  0  0  0  0
  -12.2601   14.1293   -2.7733 S   0  0  0  0  0  6  0  0  0  0  0  0
  -11.3923   15.2903   -3.2193 O   0  0  0  0  0  0  0  0  0  0  0  0
  -12.1047   14.0102   -1.2545 O   0  0  0  0  0  0  0  0  0  0  0  0
  -13.9262   14.5542   -3.1095 C   0  0  0  0  0  0  0  0  0  0  0  0
  1  2  1  0
  2  3  2  0
  3  4  1  0
  4  5  2  0
  5  6  1  0
  6  7  2  0
  7  8  1  0
  8  9  2  0
  9 10  1  0
 10 11  2  0
 11 12  1  0
 12 13  2  0
 12 14  1  0
 14 15  1  0
 15 16  1  0
 16 17  2  0
 17 18  1  0
 18 19  2  0
 19 20  1  0
 20 21  1  0
 21 22  1  0
 22 23  1  0
 23 24  2  0
 23 25  1  0
 21 26  1  0
 26 27  1  0
 27 28  2  0
  6 29  1  0
  4 30  1  0
 30 31  1  0
 31 32  1  0
 32 33  1  0
 33 34  1  0
 34 35  2  0
 34 36  2  0
 34 37  1  0
  7  2  1  0
 13  8  1  0
 28 16  1  0
 27 19  1  0
 22 20  1  0
M  END
$$$$
