
     RDKit          3D

 37 41  0  0  0  0  0  0  0  0999 V2000
    3.4707    8.6712    5.5694 C   0  0  0  0  0  0  0  0  0  0  0  0
    2.4208    9.1300    4.6263 C   0  0  0  0  0  0  0  0  0  0  0  0
    2.1685    8.4357    3.4416 C   0  0  0  0  0  0  0  0  0  0  0  0
    1.2057    8.8379    2.5531 C   0  0  0  0  0  0  0  0  0  0  0  0
    0.4674    9.9805    2.8674 C   0  0  0  0  0  0  0  0  0  0  0  0
    0.7107   10.6633    4.0264 C   0  0  0  0  0  0  0  0  0  0  0  0
    1.6735   10.2515    4.9018 C   0  0  0  0  0  0  0  0  0  0  0  0
    1.9307   10.9957    6.1529 C   0  0  0  0  0  0  0  0  0  0  0  0
    2.4348   12.2781    6.1268 C   0  0  0  0  0  0  0  0  0  0  0  0
    2.6690   12.9572    7.3029 C   0  0  0  0  0  0  0  0  0  0  0  0
    2.4069   12.3772    8.5518 C   0  0  0  0  0  0  0  0  0  0  0  0
    1.9058   11.1051    8.5800 C   0  0  0  0  0  0  0  0  0  0  0  0
    1.6735   10.4279    7.3784 C   0  0  0  0  0  0  0  0  0  0  0  0
    1.5576   10.3718    9.8154 C   0  0  0  0  0  0  0  0  0  0  0  0
    0.1885   10.3416    9.9944 O   0  0  0  0  0  0  0  0  0  0  0  0
   -0.4625    9.7042   10.9956 C   0  0  0  0  0  0  0  0  0  0  0  0
    0.1302    9.2182   12.0822 N   0  0  0  0  0  0  0  0  0  0  0  0
   -0.5109    8.5891   13.0717 C   0  0  0  0  0  0  0  0  0  0  0  0
   -1.8836    8.3982   13.0229 C   0  0  0  0  0  0  0  0  0  0  0  0
   -2.9251    7.8382   13.8384 C   0  0  0  0  0  0  0  0  0  0  0  0
   -3.7029    7.1840   12.6475 C   0  0  0  0  0  0  0  0  0  0  0  0
   -3.6832    6.6521   13.9391 C   0  0  0  0  0  0  0  0  0  0  0  0
   -4.9703    6.6248   14.6780 C   0  0  0  0  0  0  0  0  0  0  0  0
   -5.6792    7.6536   14.7085 O   0  0  0  0  0  0  0  0  0  0  0  0
   -5.4330    5.4991   15.3461 O   0  0  0  0  0  0  0  0  0  0  0  0
   -3.9750    8.5322   12.0420 C   0  0  0  0  0  0  0  0  0  0  0  0
   -2.5088    8.9004   11.8927 C   0  0  0  0  0  0  0  0  0  0  0  0
   -1.8537    9.5442   10.8816 C   0  0  0  0  0  0  0  0  0  0  0  0
   -0.0663   11.8984    4.3957 C   0  0  0  0  0  0  0  0  0  0  0  0
    0.9130    8.2188    1.3941 O   0  0  0  0  0  0  0  0  0  0  0  0
    0.0969    8.5035    0.3218 C   0  0  0  0  0  0  0  0  0  0  0  0
    0.3349    7.7473   -0.9358 C   0  0  0  0  0  0  0  0  0  0  0  0
    0.0382    6.2908   -0.8113 C   0  0  0  0  0  0  0  0  0  0  0  0
   -0.4136    5.4286   -2.2509 S   0  0  0  0  0  6  0  0  0  0  0  0
    0.8146    5.0803   -3.0695 O   0  0  0  0  0  0  0  0  0  0  0  0
   -1.2723    6.3648   -3.1060 O   0  0  0  0  0  0  0  0  0  0  0  0
   -1.3197    3.9501   -2.0008 C   0  0  0  0  0  0  0  0  0  0  0  0
  1  2  1  0
  2  3  2  0
  3  4  1  0
  4  5  2  0
  5  6  1  0
  6  7  2  0
  7  8  1  0
  8  9  2  0
  9 10  1  0
 10 11  2  0
 11 12  1  0
 12 13  2  0
 12 14  1  0
 14 15  1  0
 15 16  1  0
 16 17  2  0
 17 18  1  0
 18 19  2  0
 19 20  1  0
 20 21  1  0
 21 22  1  0
 22 23  1  0
 23 24  2  0
 23 25  1  0
 21 26  1  0
 26 27  1  0
 27 28  2  0
  6 29  1  0
  4 30  1  0
 30 31  1  0
 31 32  1  0
 32 33  1  0
 33 34  1  0
 34 35  2  0
 34 36  2  0
 34 37  1  0
  7  2  1  0
 13  8  1  0
 28 16  1  0
 27 19  1  0
 22 20  1  0
M  END
$$$$
