
     RDKit          3D

 37 41  0  0  0  0  0  0  0  0999 V2000
  -10.8306    5.3645   -5.2438 C   0  0  0  0  0  0  0  0  0  0  0  0
  -10.7763    6.8165   -5.5459 C   0  0  0  0  0  0  0  0  0  0  0  0
  -11.3194    7.7527   -4.6640 C   0  0  0  0  0  0  0  0  0  0  0  0
  -11.2835    9.0989   -4.9187 C   0  0  0  0  0  0  0  0  0  0  0  0
  -10.6778    9.5205   -6.1040 C   0  0  0  0  0  0  0  0  0  0  0  0
  -10.1444    8.6073   -6.9702 C   0  0  0  0  0  0  0  0  0  0  0  0
  -10.1880    7.2694   -6.7038 C   0  0  0  0  0  0  0  0  0  0  0  0
   -9.6092    6.2883   -7.6460 C   0  0  0  0  0  0  0  0  0  0  0  0
   -8.4666    5.5860   -7.3285 C   0  0  0  0  0  0  0  0  0  0  0  0
   -7.9403    4.6753   -8.2190 C   0  0  0  0  0  0  0  0  0  0  0  0
   -8.5389    4.4328   -9.4631 C   0  0  0  0  0  0  0  0  0  0  0  0
   -9.6732    5.1280   -9.7798 C   0  0  0  0  0  0  0  0  0  0  0  0
  -10.1958    6.0494   -8.8663 C   0  0  0  0  0  0  0  0  0  0  0  0
  -10.4290    4.9640  -11.0396 C   0  0  0  0  0  0  0  0  0  0  0  0
  -10.0009    5.8737  -11.9863 O   0  0  0  0  0  0  0  0  0  0  0  0
   -9.7444    5.5977  -13.2865 C   0  0  0  0  0  0  0  0  0  0  0  0
  -10.1338    4.4872  -13.9059 N   0  0  0  0  0  0  0  0  0  0  0  0
   -9.8817    4.2133  -15.1893 C   0  0  0  0  0  0  0  0  0  0  0  0
   -9.1727    5.1035  -15.9818 C   0  0  0  0  0  0  0  0  0  0  0  0
   -8.7323    5.2215  -17.3439 C   0  0  0  0  0  0  0  0  0  0  0  0
   -7.3327    5.8273  -16.9895 C   0  0  0  0  0  0  0  0  0  0  0  0
   -7.5634    5.0262  -18.1104 C   0  0  0  0  0  0  0  0  0  0  0  0
   -7.4033    5.6641  -19.4411 C   0  0  0  0  0  0  0  0  0  0  0  0
   -8.2912    5.5044  -20.3060 O   0  0  0  0  0  0  0  0  0  0  0  0
   -6.3024    6.4398  -19.7784 O   0  0  0  0  0  0  0  0  0  0  0  0
   -7.9761    7.0427  -16.3835 C   0  0  0  0  0  0  0  0  0  0  0  0
   -8.7618    6.2628  -15.3433 C   0  0  0  0  0  0  0  0  0  0  0  0
   -9.0201    6.5433  -14.0317 C   0  0  0  0  0  0  0  0  0  0  0  0
   -9.4846    9.0274   -8.2562 C   0  0  0  0  0  0  0  0  0  0  0  0
  -11.7891   10.0536   -4.1157 O   0  0  0  0  0  0  0  0  0  0  0  0
  -12.4435   10.0549   -2.9037 C   0  0  0  0  0  0  0  0  0  0  0  0
  -12.9079   11.3669   -2.3812 C   0  0  0  0  0  0  0  0  0  0  0  0
  -11.8494   12.1136   -1.6417 C   0  0  0  0  0  0  0  0  0  0  0  0
  -12.2877   13.6235   -0.9015 S   0  0  0  0  0  6  0  0  0  0  0  0
  -12.3858   14.7188   -1.9458 O   0  0  0  0  0  0  0  0  0  0  0  0
  -11.1613   14.0176    0.0581 O   0  0  0  0  0  0  0  0  0  0  0  0
  -13.7870   13.6208    0.0050 C   0  0  0  0  0  0  0  0  0  0  0  0
  1  2  1  0
  2  3  2  0
  3  4  1  0
  4  5  2  0
  5  6  1  0
  6  7  2  0
  7  8  1  0
  8  9  2  0
  9 10  1  0
 10 11  2  0
 11 12  1  0
 12 13  2  0
 12 14  1  0
 14 15  1  0
 15 16  1  0
 16 17  2  0
 17 18  1  0
 18 19  2  0
 19 20  1  0
 20 21  1  0
 21 22  1  0
 22 23  1  0
 23 24  2  0
 23 25  1  0
 21 26  1  0
 26 27  1  0
 27 28  2  0
  6 29  1  0
  4 30  1  0
 30 31  1  0
 31 32  1  0
 32 33  1  0
 33 34  1  0
 34 35  2  0
 34 36  2  0
 34 37  1  0
  7  2  1  0
 13  8  1  0
 28 16  1  0
 27 19  1  0
 22 20  1  0
M  END
$$$$
