
     RDKit          3D

 37 41  0  0  0  0  0  0  0  0999 V2000
   -7.4706    7.4459   -8.3205 C   0  0  0  0  0  0  0  0  0  0  0  0
   -8.0371    6.4772   -7.3494 C   0  0  0  0  0  0  0  0  0  0  0  0
   -7.5445    6.3984   -6.0454 C   0  0  0  0  0  0  0  0  0  0  0  0
   -8.0487    5.5128   -5.1290 C   0  0  0  0  0  0  0  0  0  0  0  0
   -9.0883    4.6753   -5.5380 C   0  0  0  0  0  0  0  0  0  0  0  0
   -9.5740    4.7492   -6.8137 C   0  0  0  0  0  0  0  0  0  0  0  0
   -9.0616    5.6357   -7.7161 C   0  0  0  0  0  0  0  0  0  0  0  0
   -9.5923    5.7091   -9.0939 C   0  0  0  0  0  0  0  0  0  0  0  0
  -10.5239    6.6612   -9.4473 C   0  0  0  0  0  0  0  0  0  0  0  0
  -11.0083    6.7151  -10.7365 C   0  0  0  0  0  0  0  0  0  0  0  0
  -10.5776    5.8163  -11.7221 C   0  0  0  0  0  0  0  0  0  0  0  0
   -9.6526    4.8713  -11.3737 C   0  0  0  0  0  0  0  0  0  0  0  0
   -9.1702    4.8283  -10.0615 C   0  0  0  0  0  0  0  0  0  0  0  0
   -9.0860    3.8736  -12.3059 C   0  0  0  0  0  0  0  0  0  0  0  0
   -9.6118    4.0367  -13.5724 O   0  0  0  0  0  0  0  0  0  0  0  0
   -8.8981    4.2690  -14.6990 C   0  0  0  0  0  0  0  0  0  0  0  0
   -7.5939    4.5282  -14.7177 N   0  0  0  0  0  0  0  0  0  0  0  0
   -6.8879    4.7574  -15.8289 C   0  0  0  0  0  0  0  0  0  0  0  0
   -7.4953    4.7381  -17.0754 C   0  0  0  0  0  0  0  0  0  0  0  0
   -7.1296    4.8864  -18.4565 C   0  0  0  0  0  0  0  0  0  0  0  0
   -8.4008    5.7098  -18.8533 C   0  0  0  0  0  0  0  0  0  0  0  0
   -7.1577    5.8676  -19.4706 C   0  0  0  0  0  0  0  0  0  0  0  0
   -7.0627    5.4926  -20.9037 C   0  0  0  0  0  0  0  0  0  0  0  0
   -7.8825    4.6767  -21.3773 O   0  0  0  0  0  0  0  0  0  0  0  0
   -6.0964    6.0091  -21.7563 O   0  0  0  0  0  0  0  0  0  0  0  0
   -9.2964    4.5512  -18.5158 C   0  0  0  0  0  0  0  0  0  0  0  0
   -8.8549    4.4704  -17.0646 C   0  0  0  0  0  0  0  0  0  0  0  0
   -9.5766    4.2353  -15.9289 C   0  0  0  0  0  0  0  0  0  0  0  0
  -10.6935    3.8615   -7.2872 C   0  0  0  0  0  0  0  0  0  0  0  0
   -7.6199    5.3822   -3.8598 O   0  0  0  0  0  0  0  0  0  0  0  0
   -6.8542    6.1505   -3.0110 C   0  0  0  0  0  0  0  0  0  0  0  0
   -6.6462    5.6400   -1.6303 C   0  0  0  0  0  0  0  0  0  0  0  0
   -6.1600    4.2304   -1.5915 C   0  0  0  0  0  0  0  0  0  0  0  0
   -4.7354    3.8887   -0.6569 S   0  0  0  0  0  6  0  0  0  0  0  0
   -3.7660    3.0396   -1.4565 O   0  0  0  0  0  0  0  0  0  0  0  0
   -5.1616    3.0597    0.5581 O   0  0  0  0  0  0  0  0  0  0  0  0
   -3.8557    5.2856   -0.0702 C   0  0  0  0  0  0  0  0  0  0  0  0
  1  2  1  0
  2  3  2  0
  3  4  1  0
  4  5  2  0
  5  6  1  0
  6  7  2  0
  7  8  1  0
  8  9  2  0
  9 10  1  0
 10 11  2  0
 11 12  1  0
 12 13  2  0
 12 14  1  0
 14 15  1  0
 15 16  1  0
 16 17  2  0
 17 18  1  0
 18 19  2  0
 19 20  1  0
 20 21  1  0
 21 22  1  0
 22 23  1  0
 23 24  2  0
 23 25  1  0
 21 26  1  0
 26 27  1  0
 27 28  2  0
  6 29  1  0
  4 30  1  0
 30 31  1  0
 31 32  1  0
 32 33  1  0
 33 34  1  0
 34 35  2  0
 34 36  2  0
 34 37  1  0
  7  2  1  0
 13  8  1  0
 28 16  1  0
 27 19  1  0
 22 20  1  0
M  END
$$$$
