
     RDKit          3D

 37 41  0  0  0  0  0  0  0  0999 V2000
  -11.2026    3.9434   -7.8570 C   0  0  0  0  0  0  0  0  0  0  0  0
  -10.3046    5.0970   -7.6014 C   0  0  0  0  0  0  0  0  0  0  0  0
  -10.2532    5.7002   -6.3434 C   0  0  0  0  0  0  0  0  0  0  0  0
   -9.4337    6.7668   -6.0805 C   0  0  0  0  0  0  0  0  0  0  0  0
   -8.6347    7.2448   -7.1210 C   0  0  0  0  0  0  0  0  0  0  0  0
   -8.6815    6.6571   -8.3543 C   0  0  0  0  0  0  0  0  0  0  0  0
   -9.5031    5.5957   -8.6019 C   0  0  0  0  0  0  0  0  0  0  0  0
   -9.5481    4.9659   -9.9386 C   0  0  0  0  0  0  0  0  0  0  0  0
   -8.7593    3.8763  -10.2382 C   0  0  0  0  0  0  0  0  0  0  0  0
   -8.8137    3.3017  -11.4898 C   0  0  0  0  0  0  0  0  0  0  0  0
   -9.6612    3.7971  -12.4903 C   0  0  0  0  0  0  0  0  0  0  0  0
  -10.4453    4.8778  -12.1948 C   0  0  0  0  0  0  0  0  0  0  0  0
  -10.3793    5.4508  -10.9205 C   0  0  0  0  0  0  0  0  0  0  0  0
  -11.4041    5.4961  -13.1349 C   0  0  0  0  0  0  0  0  0  0  0  0
  -10.7423    6.2764  -14.0624 O   0  0  0  0  0  0  0  0  0  0  0  0
  -10.1904    5.8331  -15.2163 C   0  0  0  0  0  0  0  0  0  0  0  0
  -10.4624    4.6555  -15.7710 N   0  0  0  0  0  0  0  0  0  0  0  0
   -9.9187    4.2165  -16.9101 C   0  0  0  0  0  0  0  0  0  0  0  0
   -9.0044    4.9912  -17.6080 C   0  0  0  0  0  0  0  0  0  0  0  0
   -8.2435    4.9291  -18.8246 C   0  0  0  0  0  0  0  0  0  0  0  0
   -6.9481    5.5634  -18.2156 C   0  0  0  0  0  0  0  0  0  0  0  0
   -6.9328    4.6267  -19.2518 C   0  0  0  0  0  0  0  0  0  0  0  0
   -6.4305    5.0866  -20.5707 C   0  0  0  0  0  0  0  0  0  0  0  0
   -7.1224    5.8791  -21.2454 O   0  0  0  0  0  0  0  0  0  0  0  0
   -5.2147    4.6756  -21.1002 O   0  0  0  0  0  0  0  0  0  0  0  0
   -7.6699    6.8522  -17.9393 C   0  0  0  0  0  0  0  0  0  0  0  0
   -8.7141    6.2195  -17.0356 C   0  0  0  0  0  0  0  0  0  0  0  0
   -9.2703    6.6686  -15.8717 C   0  0  0  0  0  0  0  0  0  0  0  0
   -7.8339    7.1471   -9.4975 C   0  0  0  0  0  0  0  0  0  0  0  0
   -9.3370    7.3964   -4.8947 O   0  0  0  0  0  0  0  0  0  0  0  0
   -9.9766    7.2809   -3.6804 C   0  0  0  0  0  0  0  0  0  0  0  0
  -10.0456    8.4968   -2.8278 C   0  0  0  0  0  0  0  0  0  0  0  0
  -11.4345    8.8428   -2.4081 C   0  0  0  0  0  0  0  0  0  0  0  0
  -11.6317   10.0282   -1.1528 S   0  0  0  0  0  6  0  0  0  0  0  0
  -11.0885   11.3716   -1.6002 O   0  0  0  0  0  0  0  0  0  0  0  0
  -10.7920    9.5816    0.0473 O   0  0  0  0  0  0  0  0  0  0  0  0
  -13.2728   10.2805   -0.5940 C   0  0  0  0  0  0  0  0  0  0  0  0
  1  2  1  0
  2  3  2  0
  3  4  1  0
  4  5  2  0
  5  6  1  0
  6  7  2  0
  7  8  1  0
  8  9  2  0
  9 10  1  0
 10 11  2  0
 11 12  1  0
 12 13  2  0
 12 14  1  0
 14 15  1  0
 15 16  1  0
 16 17  2  0
 17 18  1  0
 18 19  2  0
 19 20  1  0
 20 21  1  0
 21 22  1  0
 22 23  1  0
 23 24  2  0
 23 25  1  0
 21 26  1  0
 26 27  1  0
 27 28  2  0
  6 29  1  0
  4 30  1  0
 30 31  1  0
 31 32  1  0
 32 33  1  0
 33 34  1  0
 34 35  2  0
 34 36  2  0
 34 37  1  0
  7  2  1  0
 13  8  1  0
 28 16  1  0
 27 19  1  0
 22 20  1  0
M  END
$$$$
