
     RDKit          3D

 37 41  0  0  0  0  0  0  0  0999 V2000
   -0.3588   15.9381    7.9153 C   0  0  0  0  0  0  0  0  0  0  0  0
    0.9688   16.0967    8.5591 C   0  0  0  0  0  0  0  0  0  0  0  0
    1.1594   17.0173    9.5913 C   0  0  0  0  0  0  0  0  0  0  0  0
    2.3746   17.1843   10.2025 C   0  0  0  0  0  0  0  0  0  0  0  0
    3.4386   16.3957    9.7605 C   0  0  0  0  0  0  0  0  0  0  0  0
    3.2566   15.4929    8.7503 C   0  0  0  0  0  0  0  0  0  0  0  0
    2.0406   15.3376    8.1503 C   0  0  0  0  0  0  0  0  0  0  0  0
    1.8521   14.3592    7.0582 C   0  0  0  0  0  0  0  0  0  0  0  0
    1.6534   14.7733    5.7589 C   0  0  0  0  0  0  0  0  0  0  0  0
    1.4790   13.8474    4.7530 C   0  0  0  0  0  0  0  0  0  0  0  0
    1.4969   12.4696    5.0104 C   0  0  0  0  0  0  0  0  0  0  0  0
    1.6947   12.0566    6.2990 C   0  0  0  0  0  0  0  0  0  0  0  0
    1.8699   13.0076    7.3096 C   0  0  0  0  0  0  0  0  0  0  0  0
    1.7630   10.6415    6.7214 C   0  0  0  0  0  0  0  0  0  0  0  0
    0.5049   10.1653    7.0339 O   0  0  0  0  0  0  0  0  0  0  0  0
    0.2393    9.0852    7.8053 C   0  0  0  0  0  0  0  0  0  0  0  0
    1.1554    8.4244    8.5072 N   0  0  0  0  0  0  0  0  0  0  0  0
    0.8949    7.3581    9.2695 C   0  0  0  0  0  0  0  0  0  0  0  0
   -0.3940    6.8582    9.3785 C   0  0  0  0  0  0  0  0  0  0  0  0
   -1.0910    5.8134   10.0755 C   0  0  0  0  0  0  0  0  0  0  0  0
   -2.0141    5.4290    8.8708 C   0  0  0  0  0  0  0  0  0  0  0  0
   -1.5864    4.5138    9.8357 C   0  0  0  0  0  0  0  0  0  0  0  0
   -2.6278    3.9167   10.7088 C   0  0  0  0  0  0  0  0  0  0  0  0
   -3.5084    4.6541   11.2016 O   0  0  0  0  0  0  0  0  0  0  0  0
   -2.6741    2.5622   11.0100 O   0  0  0  0  0  0  0  0  0  0  0  0
   -2.6535    6.7889    8.8847 C   0  0  0  0  0  0  0  0  0  0  0  0
   -1.3545    7.5402    8.6486 C   0  0  0  0  0  0  0  0  0  0  0  0
   -1.0885    8.6305    7.8700 C   0  0  0  0  0  0  0  0  0  0  0  0
    4.3817   14.6273    8.2498 C   0  0  0  0  0  0  0  0  0  0  0  0
    2.6284   18.0532   11.1988 O   0  0  0  0  0  0  0  0  0  0  0  0
    1.8507   18.8007   12.0553 C   0  0  0  0  0  0  0  0  0  0  0  0
    2.5368   19.8393   12.8681 C   0  0  0  0  0  0  0  0  0  0  0  0
    3.2942   19.2767   14.0234 C   0  0  0  0  0  0  0  0  0  0  0  0
    3.9419   20.3906   15.1893 S   0  0  0  0  0  6  0  0  0  0  0  0
    2.8279   20.9994   16.0189 O   0  0  0  0  0  0  0  0  0  0  0  0
    4.6071   21.5363   14.4212 O   0  0  0  0  0  0  0  0  0  0  0  0
    5.1269   19.7300   16.2978 C   0  0  0  0  0  0  0  0  0  0  0  0
  1  2  1  0
  2  3  2  0
  3  4  1  0
  4  5  2  0
  5  6  1  0
  6  7  2  0
  7  8  1  0
  8  9  2  0
  9 10  1  0
 10 11  2  0
 11 12  1  0
 12 13  2  0
 12 14  1  0
 14 15  1  0
 15 16  1  0
 16 17  2  0
 17 18  1  0
 18 19  2  0
 19 20  1  0
 20 21  1  0
 21 22  1  0
 22 23  1  0
 23 24  2  0
 23 25  1  0
 21 26  1  0
 26 27  1  0
 27 28  2  0
  6 29  1  0
  4 30  1  0
 30 31  1  0
 31 32  1  0
 32 33  1  0
 33 34  1  0
 34 35  2  0
 34 36  2  0
 34 37  1  0
  7  2  1  0
 13  8  1  0
 28 16  1  0
 27 19  1  0
 22 20  1  0
M  END
$$$$
