
     RDKit          3D

 37 41  0  0  0  0  0  0  0  0999 V2000
  -10.9403    3.5556   -8.4908 C   0  0  0  0  0  0  0  0  0  0  0  0
  -10.1092    4.7192   -8.0935 C   0  0  0  0  0  0  0  0  0  0  0  0
   -9.1463    4.6025   -7.0893 C   0  0  0  0  0  0  0  0  0  0  0  0
   -8.3659    5.6607   -6.7027 C   0  0  0  0  0  0  0  0  0  0  0  0
   -8.5598    6.8824   -7.3503 C   0  0  0  0  0  0  0  0  0  0  0  0
   -9.5012    7.0011   -8.3343 C   0  0  0  0  0  0  0  0  0  0  0  0
  -10.2718    5.9387   -8.7087 C   0  0  0  0  0  0  0  0  0  0  0  0
  -11.2880    6.0755   -9.7735 C   0  0  0  0  0  0  0  0  0  0  0  0
  -12.4749    6.7370   -9.5431 C   0  0  0  0  0  0  0  0  0  0  0  0
  -13.4115    6.8549  -10.5473 C   0  0  0  0  0  0  0  0  0  0  0  0
  -13.1949    6.3140  -11.8222 C   0  0  0  0  0  0  0  0  0  0  0  0
  -12.0176    5.6578  -12.0531 C   0  0  0  0  0  0  0  0  0  0  0  0
  -11.0765    5.5456  -11.0244 C   0  0  0  0  0  0  0  0  0  0  0  0
  -11.6363    5.0573  -13.3491 C   0  0  0  0  0  0  0  0  0  0  0  0
  -10.5494    5.7157  -13.8899 O   0  0  0  0  0  0  0  0  0  0  0  0
   -9.8745    5.3425  -15.0024 C   0  0  0  0  0  0  0  0  0  0  0  0
  -10.2192    4.3185  -15.7777 N   0  0  0  0  0  0  0  0  0  0  0  0
   -9.5543    3.9490  -16.8764 C   0  0  0  0  0  0  0  0  0  0  0  0
   -8.4230    4.6367  -17.2894 C   0  0  0  0  0  0  0  0  0  0  0  0
   -7.4757    4.6065  -18.3687 C   0  0  0  0  0  0  0  0  0  0  0  0
   -6.2286    4.9118  -17.4728 C   0  0  0  0  0  0  0  0  0  0  0  0
   -6.1714    4.1371  -18.6338 C   0  0  0  0  0  0  0  0  0  0  0  0
   -5.3778    4.6755  -19.7668 C   0  0  0  0  0  0  0  0  0  0  0  0
   -5.2763    5.9132  -19.9079 O   0  0  0  0  0  0  0  0  0  0  0  0
   -4.7339    3.8632  -20.6903 O   0  0  0  0  0  0  0  0  0  0  0  0
   -6.7834    6.2586  -17.1029 C   0  0  0  0  0  0  0  0  0  0  0  0
   -8.0560    5.7044  -16.4859 C   0  0  0  0  0  0  0  0  0  0  0  0
   -8.7360    6.0826  -15.3632 C   0  0  0  0  0  0  0  0  0  0  0  0
   -9.7359    8.3029   -9.0525 C   0  0  0  0  0  0  0  0  0  0  0  0
   -7.4235    5.6190   -5.7423 O   0  0  0  0  0  0  0  0  0  0  0  0
   -7.0631    4.7057   -4.7764 C   0  0  0  0  0  0  0  0  0  0  0  0
   -5.9511    5.0814   -3.8640 C   0  0  0  0  0  0  0  0  0  0  0  0
   -4.8094    4.1223   -3.9023 C   0  0  0  0  0  0  0  0  0  0  0  0
   -3.3393    4.5778   -3.0953 S   0  0  0  0  0  6  0  0  0  0  0  0
   -3.4259    4.2620   -1.6146 O   0  0  0  0  0  0  0  0  0  0  0  0
   -3.1879    6.0963   -3.2224 O   0  0  0  0  0  0  0  0  0  0  0  0
   -1.8734    3.8403   -3.7089 C   0  0  0  0  0  0  0  0  0  0  0  0
  1  2  1  0
  2  3  2  0
  3  4  1  0
  4  5  2  0
  5  6  1  0
  6  7  2  0
  7  8  1  0
  8  9  2  0
  9 10  1  0
 10 11  2  0
 11 12  1  0
 12 13  2  0
 12 14  1  0
 14 15  1  0
 15 16  1  0
 16 17  2  0
 17 18  1  0
 18 19  2  0
 19 20  1  0
 20 21  1  0
 21 22  1  0
 22 23  1  0
 23 24  2  0
 23 25  1  0
 21 26  1  0
 26 27  1  0
 27 28  2  0
  6 29  1  0
  4 30  1  0
 30 31  1  0
 31 32  1  0
 32 33  1  0
 33 34  1  0
 34 35  2  0
 34 36  2  0
 34 37  1  0
  7  2  1  0
 13  8  1  0
 28 16  1  0
 27 19  1  0
 22 20  1  0
M  END
$$$$
