
     RDKit          3D

 37 41  0  0  0  0  0  0  0  0999 V2000
  -10.0662    7.6206   -8.4657 C   0  0  0  0  0  0  0  0  0  0  0  0
   -9.7228    6.4227   -7.6597 C   0  0  0  0  0  0  0  0  0  0  0  0
   -8.9450    6.5344   -6.5057 C   0  0  0  0  0  0  0  0  0  0  0  0
   -8.6127    5.4449   -5.7436 C   0  0  0  0  0  0  0  0  0  0  0  0
   -9.0806    4.1957   -6.1561 C   0  0  0  0  0  0  0  0  0  0  0  0
   -9.8427    4.0817   -7.2852 C   0  0  0  0  0  0  0  0  0  0  0  0
  -10.1654    5.1756   -8.0349 C   0  0  0  0  0  0  0  0  0  0  0  0
  -10.9898    5.0438   -9.2549 C   0  0  0  0  0  0  0  0  0  0  0  0
  -12.3306    5.3620   -9.2449 C   0  0  0  0  0  0  0  0  0  0  0  0
  -13.0845    5.2328  -10.3914 C   0  0  0  0  0  0  0  0  0  0  0  0
  -12.5235    4.7793  -11.5932 C   0  0  0  0  0  0  0  0  0  0  0  0
  -11.1930    4.4637  -11.6055 C   0  0  0  0  0  0  0  0  0  0  0  0
  -10.4404    4.5994  -10.4343 C   0  0  0  0  0  0  0  0  0  0  0  0
  -10.4563    3.9970  -12.7992 C   0  0  0  0  0  0  0  0  0  0  0  0
  -10.1342    5.0605  -13.6193 O   0  0  0  0  0  0  0  0  0  0  0  0
   -9.4893    4.9743  -14.8064 C   0  0  0  0  0  0  0  0  0  0  0  0
   -9.1579    3.8292  -15.3957 N   0  0  0  0  0  0  0  0  0  0  0  0
   -8.5217    3.7423  -16.5677 C   0  0  0  0  0  0  0  0  0  0  0  0
   -8.1552    4.8832  -17.2655 C   0  0  0  0  0  0  0  0  0  0  0  0
   -7.5247    5.2326  -18.5080 C   0  0  0  0  0  0  0  0  0  0  0  0
   -6.6971    6.4236  -17.9183 C   0  0  0  0  0  0  0  0  0  0  0  0
   -6.2616    5.6390  -18.9889 C   0  0  0  0  0  0  0  0  0  0  0  0
   -6.1218    6.3103  -20.3054 C   0  0  0  0  0  0  0  0  0  0  0  0
   -6.9742    7.1551  -20.6540 O   0  0  0  0  0  0  0  0  0  0  0  0
   -5.0780    6.0437  -21.1811 O   0  0  0  0  0  0  0  0  0  0  0  0
   -7.9553    7.1681  -17.5705 C   0  0  0  0  0  0  0  0  0  0  0  0
   -8.4955    6.0810  -16.6573 C   0  0  0  0  0  0  0  0  0  0  0  0
   -9.1466    6.1700  -15.4598 C   0  0  0  0  0  0  0  0  0  0  0  0
  -10.3631    2.7509   -7.7580 C   0  0  0  0  0  0  0  0  0  0  0  0
   -7.8659    5.4803   -4.6242 O   0  0  0  0  0  0  0  0  0  0  0  0
   -6.8467    4.7073   -4.1135 C   0  0  0  0  0  0  0  0  0  0  0  0
   -6.3037    5.0877   -2.7829 C   0  0  0  0  0  0  0  0  0  0  0  0
   -4.8246    5.2803   -2.7845 C   0  0  0  0  0  0  0  0  0  0  0  0
   -4.0853    5.9016   -1.3397 S   0  0  0  0  0  6  0  0  0  0  0  0
   -4.8369    5.4263   -0.1113 O   0  0  0  0  0  0  0  0  0  0  0  0
   -4.2020    7.4281   -1.3748 O   0  0  0  0  0  0  0  0  0  0  0  0
   -2.3952    5.4987   -1.1148 C   0  0  0  0  0  0  0  0  0  0  0  0
  1  2  1  0
  2  3  2  0
  3  4  1  0
  4  5  2  0
  5  6  1  0
  6  7  2  0
  7  8  1  0
  8  9  2  0
  9 10  1  0
 10 11  2  0
 11 12  1  0
 12 13  2  0
 12 14  1  0
 14 15  1  0
 15 16  1  0
 16 17  2  0
 17 18  1  0
 18 19  2  0
 19 20  1  0
 20 21  1  0
 21 22  1  0
 22 23  1  0
 23 24  2  0
 23 25  1  0
 21 26  1  0
 26 27  1  0
 27 28  2  0
  6 29  1  0
  4 30  1  0
 30 31  1  0
 31 32  1  0
 32 33  1  0
 33 34  1  0
 34 35  2  0
 34 36  2  0
 34 37  1  0
  7  2  1  0
 13  8  1  0
 28 16  1  0
 27 19  1  0
 22 20  1  0
M  END
$$$$
