
     RDKit          3D

 37 41  0  0  0  0  0  0  0  0999 V2000
  -13.3345    5.2258  -11.2639 C   0  0  0  0  0  0  0  0  0  0  0  0
  -12.4793    4.9871  -12.4530 C   0  0  0  0  0  0  0  0  0  0  0  0
  -12.9811    5.1638  -13.7438 C   0  0  0  0  0  0  0  0  0  0  0  0
  -12.2135    4.9497  -14.8588 C   0  0  0  0  0  0  0  0  0  0  0  0
  -10.8911    4.5436  -14.6697 C   0  0  0  0  0  0  0  0  0  0  0  0
  -10.3954    4.3697  -13.4076 C   0  0  0  0  0  0  0  0  0  0  0  0
  -11.1717    4.5859  -12.3061 C   0  0  0  0  0  0  0  0  0  0  0  0
  -10.6282    4.3953  -10.9447 C   0  0  0  0  0  0  0  0  0  0  0  0
  -10.9501    3.2811  -10.2001 C   0  0  0  0  0  0  0  0  0  0  0  0
  -10.4346    3.1195   -8.9321 C   0  0  0  0  0  0  0  0  0  0  0  0
   -9.5760    4.0688   -8.3608 C   0  0  0  0  0  0  0  0  0  0  0  0
   -9.2547    5.1747   -9.0983 C   0  0  0  0  0  0  0  0  0  0  0  0
   -9.7857    5.3256  -10.3835 C   0  0  0  0  0  0  0  0  0  0  0  0
   -8.3453    6.2474   -8.6424 C   0  0  0  0  0  0  0  0  0  0  0  0
   -7.0519    5.9984   -9.0574 O   0  0  0  0  0  0  0  0  0  0  0  0
   -5.9375    6.1589   -8.3059 C   0  0  0  0  0  0  0  0  0  0  0  0
   -5.9445    6.5200   -7.0261 N   0  0  0  0  0  0  0  0  0  0  0  0
   -4.8454    6.6786   -6.2826 C   0  0  0  0  0  0  0  0  0  0  0  0
   -3.5848    6.4682   -6.8210 C   0  0  0  0  0  0  0  0  0  0  0  0
   -2.2128    6.4882   -6.3963 C   0  0  0  0  0  0  0  0  0  0  0  0
   -1.6681    7.1544   -7.7042 C   0  0  0  0  0  0  0  0  0  0  0  0
   -1.0904    7.3423   -6.4463 C   0  0  0  0  0  0  0  0  0  0  0  0
    0.2834    6.8160   -6.2485 C   0  0  0  0  0  0  0  0  0  0  0  0
    0.4695    5.5802   -6.2446 O   0  0  0  0  0  0  0  0  0  0  0  0
    1.3871    7.6380   -6.0651 O   0  0  0  0  0  0  0  0  0  0  0  0
   -2.1004    5.9723   -8.5252 C   0  0  0  0  0  0  0  0  0  0  0  0
   -3.5686    6.0932   -8.1550 C   0  0  0  0  0  0  0  0  0  0  0  0
   -4.6920    5.9303   -8.9148 C   0  0  0  0  0  0  0  0  0  0  0  0
   -8.9750    3.9328  -13.1681 C   0  0  0  0  0  0  0  0  0  0  0  0
  -12.6333    5.0978  -16.1292 O   0  0  0  0  0  0  0  0  0  0  0  0
  -13.3804    6.0406  -16.7999 C   0  0  0  0  0  0  0  0  0  0  0  0
  -13.5377    5.8674  -18.2681 C   0  0  0  0  0  0  0  0  0  0  0  0
  -12.5418    6.6439  -19.0619 C   0  0  0  0  0  0  0  0  0  0  0  0
  -11.9634    5.9458  -20.5444 S   0  0  0  0  0  6  0  0  0  0  0  0
  -11.3514    4.5824  -20.2867 O   0  0  0  0  0  0  0  0  0  0  0  0
  -10.8459    6.8456  -21.0796 O   0  0  0  0  0  0  0  0  0  0  0  0
  -13.1554    5.7593  -21.8147 C   0  0  0  0  0  0  0  0  0  0  0  0
  1  2  1  0
  2  3  2  0
  3  4  1  0
  4  5  2  0
  5  6  1  0
  6  7  2  0
  7  8  1  0
  8  9  2  0
  9 10  1  0
 10 11  2  0
 11 12  1  0
 12 13  2  0
 12 14  1  0
 14 15  1  0
 15 16  1  0
 16 17  2  0
 17 18  1  0
 18 19  2  0
 19 20  1  0
 20 21  1  0
 21 22  1  0
 22 23  1  0
 23 24  2  0
 23 25  1  0
 21 26  1  0
 26 27  1  0
 27 28  2  0
  6 29  1  0
  4 30  1  0
 30 31  1  0
 31 32  1  0
 32 33  1  0
 33 34  1  0
 34 35  2  0
 34 36  2  0
 34 37  1  0
  7  2  1  0
 13  8  1  0
 28 16  1  0
 27 19  1  0
 22 20  1  0
M  END
$$$$
