
     RDKit          3D

 37 41  0  0  0  0  0  0  0  0999 V2000
  -12.0573    4.8862   -6.3533 C   0  0  0  0  0  0  0  0  0  0  0  0
  -11.4480    6.2185   -6.1164 C   0  0  0  0  0  0  0  0  0  0  0  0
  -12.0029    7.1064   -5.1929 C   0  0  0  0  0  0  0  0  0  0  0  0
  -11.4611    8.3426   -4.9553 C   0  0  0  0  0  0  0  0  0  0  0  0
  -10.3175    8.6999   -5.6723 C   0  0  0  0  0  0  0  0  0  0  0  0
   -9.7706    7.8337   -6.5774 C   0  0  0  0  0  0  0  0  0  0  0  0
  -10.3215    6.6057   -6.8042 C   0  0  0  0  0  0  0  0  0  0  0  0
   -9.7241    5.6748   -7.7850 C   0  0  0  0  0  0  0  0  0  0  0  0
   -8.8359    4.6983   -7.3891 C   0  0  0  0  0  0  0  0  0  0  0  0
   -8.2881    3.8391   -8.3170 C   0  0  0  0  0  0  0  0  0  0  0  0
   -8.6093    3.9251   -9.6787 C   0  0  0  0  0  0  0  0  0  0  0  0
   -9.4911    4.8929  -10.0736 C   0  0  0  0  0  0  0  0  0  0  0  0
  -10.0388    5.7582   -9.1208 C   0  0  0  0  0  0  0  0  0  0  0  0
   -9.9445    5.0916  -11.4666 C   0  0  0  0  0  0  0  0  0  0  0  0
   -8.9478    5.6739  -12.2247 O   0  0  0  0  0  0  0  0  0  0  0  0
   -8.9377    5.7696  -13.5750 C   0  0  0  0  0  0  0  0  0  0  0  0
  -10.0307    5.7739  -14.3323 N   0  0  0  0  0  0  0  0  0  0  0  0
  -10.0225    5.8687  -15.6653 C   0  0  0  0  0  0  0  0  0  0  0  0
   -8.8295    5.9720  -16.3648 C   0  0  0  0  0  0  0  0  0  0  0  0
   -8.3836    6.1230  -17.7218 C   0  0  0  0  0  0  0  0  0  0  0  0
   -7.1691    5.1449  -17.5828 C   0  0  0  0  0  0  0  0  0  0  0  0
   -7.8741    5.3324  -18.7741 C   0  0  0  0  0  0  0  0  0  0  0  0
   -7.1360    5.9460  -19.9064 C   0  0  0  0  0  0  0  0  0  0  0  0
   -6.6429    7.0860  -19.7682 O   0  0  0  0  0  0  0  0  0  0  0  0
   -6.9632    5.3092  -21.1279 O   0  0  0  0  0  0  0  0  0  0  0  0
   -6.5249    6.0382  -16.5604 C   0  0  0  0  0  0  0  0  0  0  0  0
   -7.6854    5.9665  -15.5829 C   0  0  0  0  0  0  0  0  0  0  0  0
   -7.6937    5.8705  -14.2203 C   0  0  0  0  0  0  0  0  0  0  0  0
   -8.5388    8.1870   -7.3670 C   0  0  0  0  0  0  0  0  0  0  0  0
  -11.9452    9.2468   -4.0835 O   0  0  0  0  0  0  0  0  0  0  0  0
  -11.7630   10.5977   -3.8862 C   0  0  0  0  0  0  0  0  0  0  0  0
  -12.7751   11.3088   -3.0616 C   0  0  0  0  0  0  0  0  0  0  0  0
  -13.5330   12.3431   -3.8235 C   0  0  0  0  0  0  0  0  0  0  0  0
  -14.0738   13.7521   -2.9620 S   0  0  0  0  0  6  0  0  0  0  0  0
  -15.3172   14.3279   -3.6117 O   0  0  0  0  0  0  0  0  0  0  0  0
  -12.9771   14.8154   -3.0706 O   0  0  0  0  0  0  0  0  0  0  0  0
  -14.4254   13.5172   -1.2618 C   0  0  0  0  0  0  0  0  0  0  0  0
  1  2  1  0
  2  3  2  0
  3  4  1  0
  4  5  2  0
  5  6  1  0
  6  7  2  0
  7  8  1  0
  8  9  2  0
  9 10  1  0
 10 11  2  0
 11 12  1  0
 12 13  2  0
 12 14  1  0
 14 15  1  0
 15 16  1  0
 16 17  2  0
 17 18  1  0
 18 19  2  0
 19 20  1  0
 20 21  1  0
 21 22  1  0
 22 23  1  0
 23 24  2  0
 23 25  1  0
 21 26  1  0
 26 27  1  0
 27 28  2  0
  6 29  1  0
  4 30  1  0
 30 31  1  0
 31 32  1  0
 32 33  1  0
 33 34  1  0
 34 35  2  0
 34 36  2  0
 34 37  1  0
  7  2  1  0
 13  8  1  0
 28 16  1  0
 27 19  1  0
 22 20  1  0
M  END
$$$$
