
     RDKit          3D

 37 41  0  0  0  0  0  0  0  0999 V2000
    2.0616   12.1985   10.6359 C   0  0  0  0  0  0  0  0  0  0  0  0
    2.0141   13.5701   10.0712 C   0  0  0  0  0  0  0  0  0  0  0  0
    2.0317   14.6895   10.9052 C   0  0  0  0  0  0  0  0  0  0  0  0
    1.9882   15.9668   10.4103 C   0  0  0  0  0  0  0  0  0  0  0  0
    1.9256   16.1253    9.0245 C   0  0  0  0  0  0  0  0  0  0  0  0
    1.9084   15.0321    8.2040 C   0  0  0  0  0  0  0  0  0  0  0  0
    1.9516   13.7657    8.7110 C   0  0  0  0  0  0  0  0  0  0  0  0
    1.9323   12.5886    7.8169 C   0  0  0  0  0  0  0  0  0  0  0  0
    3.0080   12.2925    7.0078 C   0  0  0  0  0  0  0  0  0  0  0  0
    2.9729   11.1912    6.1799 C   0  0  0  0  0  0  0  0  0  0  0  0
    1.8577   10.3434    6.1306 C   0  0  0  0  0  0  0  0  0  0  0  0
    0.7896   10.6350    6.9332 C   0  0  0  0  0  0  0  0  0  0  0  0
    0.8392   11.7562    7.7681 C   0  0  0  0  0  0  0  0  0  0  0  0
   -0.4439    9.8238    7.0096 C   0  0  0  0  0  0  0  0  0  0  0  0
   -0.4559    9.0632    8.1623 O   0  0  0  0  0  0  0  0  0  0  0  0
   -1.0269    7.8432    8.2966 C   0  0  0  0  0  0  0  0  0  0  0  0
   -1.7895    7.2688    7.3709 N   0  0  0  0  0  0  0  0  0  0  0  0
   -2.3537    6.0644    7.5017 C   0  0  0  0  0  0  0  0  0  0  0  0
   -2.1711    5.3136    8.6532 C   0  0  0  0  0  0  0  0  0  0  0  0
   -2.5417    4.0267    9.1726 C   0  0  0  0  0  0  0  0  0  0  0  0
   -2.8075    4.5320   10.6304 C   0  0  0  0  0  0  0  0  0  0  0  0
   -3.4911    3.4608   10.0503 C   0  0  0  0  0  0  0  0  0  0  0  0
   -3.2781    2.1195   10.6494 C   0  0  0  0  0  0  0  0  0  0  0  0
   -2.1243    1.7770   10.9861 O   0  0  0  0  0  0  0  0  0  0  0  0
   -4.3095    1.2138   10.8577 O   0  0  0  0  0  0  0  0  0  0  0  0
   -1.3675    4.9316   10.7891 C   0  0  0  0  0  0  0  0  0  0  0  0
   -1.3789    5.9059    9.6238 C   0  0  0  0  0  0  0  0  0  0  0  0
   -0.8015    7.1365    9.4899 C   0  0  0  0  0  0  0  0  0  0  0  0
    1.8413   15.1673    6.7064 C   0  0  0  0  0  0  0  0  0  0  0  0
    1.9989   17.0878   11.1555 O   0  0  0  0  0  0  0  0  0  0  0  0
    1.8882   17.3586   12.5014 C   0  0  0  0  0  0  0  0  0  0  0  0
    1.1163   18.5676   12.8922 C   0  0  0  0  0  0  0  0  0  0  0  0
    1.9825   19.7239   13.2631 C   0  0  0  0  0  0  0  0  0  0  0  0
    1.5454   21.2928   12.6572 S   0  0  0  0  0  6  0  0  0  0  0  0
    1.5995   21.3115   11.1417 O   0  0  0  0  0  0  0  0  0  0  0  0
    2.5911   22.2942   13.1560 O   0  0  0  0  0  0  0  0  0  0  0  0
   -0.0328   21.8826   13.1377 C   0  0  0  0  0  0  0  0  0  0  0  0
  1  2  1  0
  2  3  2  0
  3  4  1  0
  4  5  2  0
  5  6  1  0
  6  7  2  0
  7  8  1  0
  8  9  2  0
  9 10  1  0
 10 11  2  0
 11 12  1  0
 12 13  2  0
 12 14  1  0
 14 15  1  0
 15 16  1  0
 16 17  2  0
 17 18  1  0
 18 19  2  0
 19 20  1  0
 20 21  1  0
 21 22  1  0
 22 23  1  0
 23 24  2  0
 23 25  1  0
 21 26  1  0
 26 27  1  0
 27 28  2  0
  6 29  1  0
  4 30  1  0
 30 31  1  0
 31 32  1  0
 32 33  1  0
 33 34  1  0
 34 35  2  0
 34 36  2  0
 34 37  1  0
  7  2  1  0
 13  8  1  0
 28 16  1  0
 27 19  1  0
 22 20  1  0
M  END
$$$$
