
     RDKit          3D

 37 41  0  0  0  0  0  0  0  0999 V2000
  -10.6628    8.2241   -8.2826 C   0  0  0  0  0  0  0  0  0  0  0  0
  -10.9412    7.8205   -6.8818 C   0  0  0  0  0  0  0  0  0  0  0  0
  -11.8221    8.5552   -6.0860 C   0  0  0  0  0  0  0  0  0  0  0  0
  -12.0965    8.2052   -4.7896 C   0  0  0  0  0  0  0  0  0  0  0  0
  -11.4623    7.0733   -4.2736 C   0  0  0  0  0  0  0  0  0  0  0  0
  -10.5993    6.3508   -5.0494 C   0  0  0  0  0  0  0  0  0  0  0  0
  -10.3350    6.7116   -6.3388 C   0  0  0  0  0  0  0  0  0  0  0  0
   -9.4000    5.9251   -7.1710 C   0  0  0  0  0  0  0  0  0  0  0  0
   -8.1083    5.6841   -6.7554 C   0  0  0  0  0  0  0  0  0  0  0  0
   -7.2498    4.9490   -7.5441 C   0  0  0  0  0  0  0  0  0  0  0  0
   -7.6527    4.4266   -8.7809 C   0  0  0  0  0  0  0  0  0  0  0  0
   -8.9342    4.6639   -9.1948 C   0  0  0  0  0  0  0  0  0  0  0  0
   -9.7943    5.4119   -8.3841 C   0  0  0  0  0  0  0  0  0  0  0  0
   -9.5104    4.1596  -10.4594 C   0  0  0  0  0  0  0  0  0  0  0  0
   -8.5883    4.2473  -11.4838 O   0  0  0  0  0  0  0  0  0  0  0  0
   -8.7945    4.8418  -12.6823 C   0  0  0  0  0  0  0  0  0  0  0  0
   -9.9107    5.4828  -13.0166 N   0  0  0  0  0  0  0  0  0  0  0  0
  -10.1159    6.0705  -14.1991 C   0  0  0  0  0  0  0  0  0  0  0  0
   -9.1410    6.0464  -15.1851 C   0  0  0  0  0  0  0  0  0  0  0  0
   -8.9372    6.5526  -16.5139 C   0  0  0  0  0  0  0  0  0  0  0  0
   -8.2291    5.2636  -17.0507 C   0  0  0  0  0  0  0  0  0  0  0  0
   -9.0057    6.1052  -17.8507 C   0  0  0  0  0  0  0  0  0  0  0  0
   -8.3089    6.8339  -18.9400 C   0  0  0  0  0  0  0  0  0  0  0  0
   -7.1540    7.2689  -18.7428 O   0  0  0  0  0  0  0  0  0  0  0  0
   -8.8826    7.0600  -20.1839 O   0  0  0  0  0  0  0  0  0  0  0  0
   -7.0949    5.4437  -16.0816 C   0  0  0  0  0  0  0  0  0  0  0  0
   -7.9752    5.3788  -14.8453 C   0  0  0  0  0  0  0  0  0  0  0  0
   -7.7651    4.7787  -13.6364 C   0  0  0  0  0  0  0  0  0  0  0  0
   -9.8991    5.1261   -4.5247 C   0  0  0  0  0  0  0  0  0  0  0  0
  -12.9308    8.8684   -3.9675 O   0  0  0  0  0  0  0  0  0  0  0  0
  -13.6945   10.0096   -4.0754 C   0  0  0  0  0  0  0  0  0  0  0  0
  -12.9900   11.3142   -3.9669 C   0  0  0  0  0  0  0  0  0  0  0  0
  -13.8934   12.4413   -3.5952 C   0  0  0  0  0  0  0  0  0  0  0  0
  -13.5172   14.0210   -4.2140 S   0  0  0  0  0  6  0  0  0  0  0  0
  -12.0231   14.2736   -4.1539 O   0  0  0  0  0  0  0  0  0  0  0  0
  -14.1839   15.0520   -3.2988 O   0  0  0  0  0  0  0  0  0  0  0  0
  -14.0427   14.3418   -5.8542 C   0  0  0  0  0  0  0  0  0  0  0  0
  1  2  1  0
  2  3  2  0
  3  4  1  0
  4  5  2  0
  5  6  1  0
  6  7  2  0
  7  8  1  0
  8  9  2  0
  9 10  1  0
 10 11  2  0
 11 12  1  0
 12 13  2  0
 12 14  1  0
 14 15  1  0
 15 16  1  0
 16 17  2  0
 17 18  1  0
 18 19  2  0
 19 20  1  0
 20 21  1  0
 21 22  1  0
 22 23  1  0
 23 24  2  0
 23 25  1  0
 21 26  1  0
 26 27  1  0
 27 28  2  0
  6 29  1  0
  4 30  1  0
 30 31  1  0
 31 32  1  0
 32 33  1  0
 33 34  1  0
 34 35  2  0
 34 36  2  0
 34 37  1  0
  7  2  1  0
 13  8  1  0
 28 16  1  0
 27 19  1  0
 22 20  1  0
M  END
$$$$
