
     RDKit          3D

 37 41  0  0  0  0  0  0  0  0999 V2000
   -7.4598    7.9500   -8.4685 C   0  0  0  0  0  0  0  0  0  0  0  0
   -7.9133    6.9266   -7.4942 C   0  0  0  0  0  0  0  0  0  0  0  0
   -7.1920    6.6815   -6.3242 C   0  0  0  0  0  0  0  0  0  0  0  0
   -7.5879    5.7421   -5.4083 C   0  0  0  0  0  0  0  0  0  0  0  0
   -8.7535    5.0223   -5.6775 C   0  0  0  0  0  0  0  0  0  0  0  0
   -9.4632    5.2591   -6.8216 C   0  0  0  0  0  0  0  0  0  0  0  0
   -9.0566    6.1975   -7.7254 C   0  0  0  0  0  0  0  0  0  0  0  0
   -9.8295    6.4473   -8.9606 C   0  0  0  0  0  0  0  0  0  0  0  0
  -10.7442    7.4757   -9.0312 C   0  0  0  0  0  0  0  0  0  0  0  0
  -11.4566    7.6942  -10.1907 C   0  0  0  0  0  0  0  0  0  0  0  0
  -11.2797    6.8900  -11.3251 C   0  0  0  0  0  0  0  0  0  0  0  0
  -10.3719    5.8695  -11.2573 C   0  0  0  0  0  0  0  0  0  0  0  0
   -9.6565    5.6594  -10.0739 C   0  0  0  0  0  0  0  0  0  0  0  0
  -10.0586    4.9548  -12.3756 C   0  0  0  0  0  0  0  0  0  0  0  0
   -9.0294    5.4607  -13.1449 O   0  0  0  0  0  0  0  0  0  0  0  0
   -8.9518    5.4033  -14.4952 C   0  0  0  0  0  0  0  0  0  0  0  0
   -9.8874    4.8705  -15.2757 N   0  0  0  0  0  0  0  0  0  0  0  0
   -9.8126    4.8133  -16.6087 C   0  0  0  0  0  0  0  0  0  0  0  0
   -8.7143    5.3251  -17.2831 C   0  0  0  0  0  0  0  0  0  0  0  0
   -8.2625    5.4976  -18.6357 C   0  0  0  0  0  0  0  0  0  0  0  0
   -6.7697    5.1336  -18.3353 C   0  0  0  0  0  0  0  0  0  0  0  0
   -7.3927    4.8797  -19.5595 C   0  0  0  0  0  0  0  0  0  0  0  0
   -6.8819    5.6160  -20.7429 C   0  0  0  0  0  0  0  0  0  0  0  0
   -6.9601    6.8631  -20.7671 O   0  0  0  0  0  0  0  0  0  0  0  0
   -6.3140    4.9811  -21.8392 O   0  0  0  0  0  0  0  0  0  0  0  0
   -6.6300    6.3199  -17.4235 C   0  0  0  0  0  0  0  0  0  0  0  0
   -7.7337    5.8808  -16.4768 C   0  0  0  0  0  0  0  0  0  0  0  0
   -7.8104    5.9400  -15.1143 C   0  0  0  0  0  0  0  0  0  0  0  0
  -10.7235    4.5014   -7.1427 C   0  0  0  0  0  0  0  0  0  0  0  0
   -6.9399    5.4534   -4.2642 O   0  0  0  0  0  0  0  0  0  0  0  0
   -5.7628    5.8719   -3.6843 C   0  0  0  0  0  0  0  0  0  0  0  0
   -5.6771    5.8190   -2.2011 C   0  0  0  0  0  0  0  0  0  0  0  0
   -5.4281    4.4456   -1.6750 C   0  0  0  0  0  0  0  0  0  0  0  0
   -5.2620    4.2526    0.0440 S   0  0  0  0  0  6  0  0  0  0  0  0
   -5.0098    5.5927    0.7076 O   0  0  0  0  0  0  0  0  0  0  0  0
   -4.0258    3.3856    0.2993 O   0  0  0  0  0  0  0  0  0  0  0  0
   -6.6189    3.5043    0.8614 C   0  0  0  0  0  0  0  0  0  0  0  0
  1  2  1  0
  2  3  2  0
  3  4  1  0
  4  5  2  0
  5  6  1  0
  6  7  2  0
  7  8  1  0
  8  9  2  0
  9 10  1  0
 10 11  2  0
 11 12  1  0
 12 13  2  0
 12 14  1  0
 14 15  1  0
 15 16  1  0
 16 17  2  0
 17 18  1  0
 18 19  2  0
 19 20  1  0
 20 21  1  0
 21 22  1  0
 22 23  1  0
 23 24  2  0
 23 25  1  0
 21 26  1  0
 26 27  1  0
 27 28  2  0
  6 29  1  0
  4 30  1  0
 30 31  1  0
 31 32  1  0
 32 33  1  0
 33 34  1  0
 34 35  2  0
 34 36  2  0
 34 37  1  0
  7  2  1  0
 13  8  1  0
 28 16  1  0
 27 19  1  0
 22 20  1  0
M  END
$$$$
