
     RDKit          3D

 37 41  0  0  0  0  0  0  0  0999 V2000
  -10.0658    2.6173  -10.5059 C   0  0  0  0  0  0  0  0  0  0  0  0
  -10.2379    3.6198   -9.4253 C   0  0  0  0  0  0  0  0  0  0  0  0
   -9.3935    3.6273   -8.3135 C   0  0  0  0  0  0  0  0  0  0  0  0
   -9.5307    4.5411   -7.3014 C   0  0  0  0  0  0  0  0  0  0  0  0
  -10.5546    5.4840   -7.4111 C   0  0  0  0  0  0  0  0  0  0  0  0
  -11.3835    5.4807   -8.4980 C   0  0  0  0  0  0  0  0  0  0  0  0
  -11.2355    4.5640   -9.4983 C   0  0  0  0  0  0  0  0  0  0  0  0
  -12.1364    4.5669  -10.6704 C   0  0  0  0  0  0  0  0  0  0  0  0
  -13.3473    3.9097  -10.6383 C   0  0  0  0  0  0  0  0  0  0  0  0
  -14.1748    3.9224  -11.7404 C   0  0  0  0  0  0  0  0  0  0  0  0
  -13.8206    4.5947  -12.9182 C   0  0  0  0  0  0  0  0  0  0  0  0
  -12.6198    5.2482  -12.9520 C   0  0  0  0  0  0  0  0  0  0  0  0
  -11.7902    5.2264  -11.8261 C   0  0  0  0  0  0  0  0  0  0  0  0
  -12.1208    6.0192  -14.1104 C   0  0  0  0  0  0  0  0  0  0  0  0
  -11.5004    5.1852  -15.0196 O   0  0  0  0  0  0  0  0  0  0  0  0
  -10.3581    5.4610  -15.6916 C   0  0  0  0  0  0  0  0  0  0  0  0
   -9.7136    6.6224  -15.6252 N   0  0  0  0  0  0  0  0  0  0  0  0
   -8.5857    6.8962  -16.2876 C   0  0  0  0  0  0  0  0  0  0  0  0
   -7.9978    5.9509  -17.1145 C   0  0  0  0  0  0  0  0  0  0  0  0
   -6.8304    5.8161  -17.9404 C   0  0  0  0  0  0  0  0  0  0  0  0
   -7.5593    5.0491  -19.0942 C   0  0  0  0  0  0  0  0  0  0  0  0
   -6.4688    5.8970  -19.3022 C   0  0  0  0  0  0  0  0  0  0  0  0
   -5.2162    5.2765  -19.8015 C   0  0  0  0  0  0  0  0  0  0  0  0
   -4.8990    5.4211  -21.0016 O   0  0  0  0  0  0  0  0  0  0  0  0
   -4.3677    4.5334  -18.9921 O   0  0  0  0  0  0  0  0  0  0  0  0
   -7.8705    3.8997  -18.1776 C   0  0  0  0  0  0  0  0  0  0  0  0
   -8.6642    4.7382  -17.1905 C   0  0  0  0  0  0  0  0  0  0  0  0
   -9.8167    4.4579  -16.5129 C   0  0  0  0  0  0  0  0  0  0  0  0
  -12.4968    6.4826   -8.6477 C   0  0  0  0  0  0  0  0  0  0  0  0
   -8.7557    4.6031   -6.2025 O   0  0  0  0  0  0  0  0  0  0  0  0
   -8.6576    5.4647   -5.1324 C   0  0  0  0  0  0  0  0  0  0  0  0
   -7.5913    5.1919   -4.1330 C   0  0  0  0  0  0  0  0  0  0  0  0
   -6.3057    5.8826   -4.4413 C   0  0  0  0  0  0  0  0  0  0  0  0
   -5.0410    5.8125   -3.2515 S   0  0  0  0  0  6  0  0  0  0  0  0
   -5.5971    6.0877   -1.8677 O   0  0  0  0  0  0  0  0  0  0  0  0
   -4.0428    6.9308   -3.5647 O   0  0  0  0  0  0  0  0  0  0  0  0
   -4.1505    4.3058   -3.1741 C   0  0  0  0  0  0  0  0  0  0  0  0
  1  2  1  0
  2  3  2  0
  3  4  1  0
  4  5  2  0
  5  6  1  0
  6  7  2  0
  7  8  1  0
  8  9  2  0
  9 10  1  0
 10 11  2  0
 11 12  1  0
 12 13  2  0
 12 14  1  0
 14 15  1  0
 15 16  1  0
 16 17  2  0
 17 18  1  0
 18 19  2  0
 19 20  1  0
 20 21  1  0
 21 22  1  0
 22 23  1  0
 23 24  2  0
 23 25  1  0
 21 26  1  0
 26 27  1  0
 27 28  2  0
  6 29  1  0
  4 30  1  0
 30 31  1  0
 31 32  1  0
 32 33  1  0
 33 34  1  0
 34 35  2  0
 34 36  2  0
 34 37  1  0
  7  2  1  0
 13  8  1  0
 28 16  1  0
 27 19  1  0
 22 20  1  0
M  END
$$$$
