
     RDKit          3D

 37 41  0  0  0  0  0  0  0  0999 V2000
   -9.0002    2.5504   -9.1519 C   0  0  0  0  0  0  0  0  0  0  0  0
   -9.4164    3.7410   -8.3697 C   0  0  0  0  0  0  0  0  0  0  0  0
   -8.7721    4.0761   -7.1773 C   0  0  0  0  0  0  0  0  0  0  0  0
   -9.1365    5.1692   -6.4353 C   0  0  0  0  0  0  0  0  0  0  0  0
  -10.1877    5.9561   -6.9099 C   0  0  0  0  0  0  0  0  0  0  0  0
  -10.8212    5.6320   -8.0771 C   0  0  0  0  0  0  0  0  0  0  0  0
  -10.4479    4.5398   -8.8055 C   0  0  0  0  0  0  0  0  0  0  0  0
  -11.1384    4.1959  -10.0666 C   0  0  0  0  0  0  0  0  0  0  0  0
  -12.1370    3.2465  -10.0945 C   0  0  0  0  0  0  0  0  0  0  0  0
  -12.7700    2.9379  -11.2792 C   0  0  0  0  0  0  0  0  0  0  0  0
  -12.4266    3.5691  -12.4827 C   0  0  0  0  0  0  0  0  0  0  0  0
  -11.4365    4.5120  -12.4571 C   0  0  0  0  0  0  0  0  0  0  0  0
  -10.8026    4.8147  -11.2475 C   0  0  0  0  0  0  0  0  0  0  0  0
  -10.9819    5.2782  -13.6368 C   0  0  0  0  0  0  0  0  0  0  0  0
  -10.3079    4.4580  -14.5200 O   0  0  0  0  0  0  0  0  0  0  0  0
   -9.4754    4.8728  -15.5036 C   0  0  0  0  0  0  0  0  0  0  0  0
   -9.3071    6.1447  -15.8535 N   0  0  0  0  0  0  0  0  0  0  0  0
   -8.4855    6.5560  -16.8239 C   0  0  0  0  0  0  0  0  0  0  0  0
   -7.7312    5.6476  -17.5512 C   0  0  0  0  0  0  0  0  0  0  0  0
   -6.7481    5.6548  -18.5985 C   0  0  0  0  0  0  0  0  0  0  0  0
   -7.3169    4.3969  -19.3370 C   0  0  0  0  0  0  0  0  0  0  0  0
   -6.6690    5.4469  -19.9922 C   0  0  0  0  0  0  0  0  0  0  0  0
   -5.3746    5.1368  -20.6492 C   0  0  0  0  0  0  0  0  0  0  0  0
   -4.7343    4.1251  -20.2907 O   0  0  0  0  0  0  0  0  0  0  0  0
   -4.8315    5.9242  -21.6555 O   0  0  0  0  0  0  0  0  0  0  0  0
   -7.0253    3.5263  -18.1474 C   0  0  0  0  0  0  0  0  0  0  0  0
   -7.9020    4.3196  -17.1938 C   0  0  0  0  0  0  0  0  0  0  0  0
   -8.7412    3.8992  -16.2015 C   0  0  0  0  0  0  0  0  0  0  0  0
  -11.9575    6.4583   -8.6170 C   0  0  0  0  0  0  0  0  0  0  0  0
   -8.5619    5.5474   -5.2783 O   0  0  0  0  0  0  0  0  0  0  0  0
   -7.6123    5.0014   -4.4432 C   0  0  0  0  0  0  0  0  0  0  0  0
   -6.6565    5.9369   -3.7940 C   0  0  0  0  0  0  0  0  0  0  0  0
   -7.3256    6.9727   -2.9547 C   0  0  0  0  0  0  0  0  0  0  0  0
   -6.9404    7.0178   -1.2608 S   0  0  0  0  0  6  0  0  0  0  0  0
   -7.8444    6.0795   -0.4848 O   0  0  0  0  0  0  0  0  0  0  0  0
   -7.2241    8.4351   -0.7549 O   0  0  0  0  0  0  0  0  0  0  0  0
   -5.2851    6.6221   -0.8451 C   0  0  0  0  0  0  0  0  0  0  0  0
  1  2  1  0
  2  3  2  0
  3  4  1  0
  4  5  2  0
  5  6  1  0
  6  7  2  0
  7  8  1  0
  8  9  2  0
  9 10  1  0
 10 11  2  0
 11 12  1  0
 12 13  2  0
 12 14  1  0
 14 15  1  0
 15 16  1  0
 16 17  2  0
 17 18  1  0
 18 19  2  0
 19 20  1  0
 20 21  1  0
 21 22  1  0
 22 23  1  0
 23 24  2  0
 23 25  1  0
 21 26  1  0
 26 27  1  0
 27 28  2  0
  6 29  1  0
  4 30  1  0
 30 31  1  0
 31 32  1  0
 32 33  1  0
 33 34  1  0
 34 35  2  0
 34 36  2  0
 34 37  1  0
  7  2  1  0
 13  8  1  0
 28 16  1  0
 27 19  1  0
 22 20  1  0
M  END
$$$$
