
     RDKit          3D

 37 41  0  0  0  0  0  0  0  0999 V2000
   -7.2773    4.0077   -6.9948 C   0  0  0  0  0  0  0  0  0  0  0  0
   -7.9403    5.2064   -6.4239 C   0  0  0  0  0  0  0  0  0  0  0  0
   -7.6047    5.6733   -5.1517 C   0  0  0  0  0  0  0  0  0  0  0  0
   -8.2016    6.7770   -4.6006 C   0  0  0  0  0  0  0  0  0  0  0  0
   -9.1719    7.4373   -5.3568 C   0  0  0  0  0  0  0  0  0  0  0  0
   -9.5035    6.9838   -6.6030 C   0  0  0  0  0  0  0  0  0  0  0  0
   -8.9011    5.8827   -7.1392 C   0  0  0  0  0  0  0  0  0  0  0  0
   -9.2656    5.3985   -8.4875 C   0  0  0  0  0  0  0  0  0  0  0  0
  -10.0909    4.3071   -8.6521 C   0  0  0  0  0  0  0  0  0  0  0  0
  -10.4202    3.8688   -9.9166 C   0  0  0  0  0  0  0  0  0  0  0  0
   -9.9350    4.5078  -11.0660 C   0  0  0  0  0  0  0  0  0  0  0  0
   -9.1166    5.5915  -10.9049 C   0  0  0  0  0  0  0  0  0  0  0  0
   -8.7906    6.0247   -9.6155 C   0  0  0  0  0  0  0  0  0  0  0  0
   -8.5479    6.3815  -12.0175 C   0  0  0  0  0  0  0  0  0  0  0  0
   -9.2574    6.1633  -13.1821 O   0  0  0  0  0  0  0  0  0  0  0  0
   -8.7190    5.9438  -14.4046 C   0  0  0  0  0  0  0  0  0  0  0  0
   -7.4289    6.0924  -14.6909 N   0  0  0  0  0  0  0  0  0  0  0  0
   -6.8957    5.8758  -15.8970 C   0  0  0  0  0  0  0  0  0  0  0  0
   -7.6849    5.4679  -16.9618 C   0  0  0  0  0  0  0  0  0  0  0  0
   -7.5303    5.1053  -18.3431 C   0  0  0  0  0  0  0  0  0  0  0  0
   -8.8343    5.8243  -18.8265 C   0  0  0  0  0  0  0  0  0  0  0  0
   -7.6967    5.6754  -19.6233 C   0  0  0  0  0  0  0  0  0  0  0  0
   -7.8253    4.8230  -20.8318 C   0  0  0  0  0  0  0  0  0  0  0  0
   -8.3258    5.3064  -21.8700 O   0  0  0  0  0  0  0  0  0  0  0  0
   -7.4122    3.4981  -20.8679 O   0  0  0  0  0  0  0  0  0  0  0  0
   -9.6859    4.9164  -17.9845 C   0  0  0  0  0  0  0  0  0  0  0  0
   -9.0312    5.3123  -16.6722 C   0  0  0  0  0  0  0  0  0  0  0  0
   -9.5761    5.5329  -15.4393 C   0  0  0  0  0  0  0  0  0  0  0  0
  -10.5447    7.6716   -7.4447 C   0  0  0  0  0  0  0  0  0  0  0  0
   -7.9288    7.2785   -3.3815 O   0  0  0  0  0  0  0  0  0  0  0  0
   -6.9934    7.0059   -2.4079 C   0  0  0  0  0  0  0  0  0  0  0  0
   -6.8466    7.9949   -1.3077 C   0  0  0  0  0  0  0  0  0  0  0  0
   -7.9471    7.9249   -0.3033 C   0  0  0  0  0  0  0  0  0  0  0  0
   -7.5103    7.8917    1.3784 S   0  0  0  0  0  6  0  0  0  0  0  0
   -8.7217    7.5813    2.2363 O   0  0  0  0  0  0  0  0  0  0  0  0
   -7.0340    9.2948    1.7651 O   0  0  0  0  0  0  0  0  0  0  0  0
   -6.2479    6.7582    1.8154 C   0  0  0  0  0  0  0  0  0  0  0  0
  1  2  1  0
  2  3  2  0
  3  4  1  0
  4  5  2  0
  5  6  1  0
  6  7  2  0
  7  8  1  0
  8  9  2  0
  9 10  1  0
 10 11  2  0
 11 12  1  0
 12 13  2  0
 12 14  1  0
 14 15  1  0
 15 16  1  0
 16 17  2  0
 17 18  1  0
 18 19  2  0
 19 20  1  0
 20 21  1  0
 21 22  1  0
 22 23  1  0
 23 24  2  0
 23 25  1  0
 21 26  1  0
 26 27  1  0
 27 28  2  0
  6 29  1  0
  4 30  1  0
 30 31  1  0
 31 32  1  0
 32 33  1  0
 33 34  1  0
 34 35  2  0
 34 36  2  0
 34 37  1  0
  7  2  1  0
 13  8  1  0
 28 16  1  0
 27 19  1  0
 22 20  1  0
M  END
$$$$
