
     RDKit          3D

 37 41  0  0  0  0  0  0  0  0999 V2000
    0.9782   11.7258   12.0765 C   0  0  0  0  0  0  0  0  0  0  0  0
    1.3147   12.4986   10.8550 C   0  0  0  0  0  0  0  0  0  0  0  0
    1.3075   13.8947   10.8655 C   0  0  0  0  0  0  0  0  0  0  0  0
    1.6136   14.6326    9.7520 C   0  0  0  0  0  0  0  0  0  0  0  0
    1.9403   13.9415    8.5836 C   0  0  0  0  0  0  0  0  0  0  0  0
    1.9490   12.5746    8.5688 C   0  0  0  0  0  0  0  0  0  0  0  0
    1.6413   11.8526    9.6853 C   0  0  0  0  0  0  0  0  0  0  0  0
    1.6526   10.3745    9.6609 C   0  0  0  0  0  0  0  0  0  0  0  0
    2.8282    9.6699    9.8055 C   0  0  0  0  0  0  0  0  0  0  0  0
    2.8205    8.2919    9.7799 C   0  0  0  0  0  0  0  0  0  0  0  0
    1.6336    7.5661    9.6083 C   0  0  0  0  0  0  0  0  0  0  0  0
    0.4659    8.2634    9.4654 C   0  0  0  0  0  0  0  0  0  0  0  0
    0.4890    9.6617    9.4931 C   0  0  0  0  0  0  0  0  0  0  0  0
   -0.8644    7.6400    9.3012 C   0  0  0  0  0  0  0  0  0  0  0  0
   -0.7433    6.2784    9.1052 O   0  0  0  0  0  0  0  0  0  0  0  0
   -1.7668    5.4169    8.8981 C   0  0  0  0  0  0  0  0  0  0  0  0
   -2.7735    5.2342    9.7476 N   0  0  0  0  0  0  0  0  0  0  0  0
   -3.7848    4.3845    9.5446 C   0  0  0  0  0  0  0  0  0  0  0  0
   -3.8475    3.6138    8.3934 C   0  0  0  0  0  0  0  0  0  0  0  0
   -4.7240    2.6523    7.7848 C   0  0  0  0  0  0  0  0  0  0  0  0
   -3.5766    1.7287    7.2542 C   0  0  0  0  0  0  0  0  0  0  0  0
   -4.8352    1.2538    7.6307 C   0  0  0  0  0  0  0  0  0  0  0  0
   -5.6819    0.6646    6.5633 C   0  0  0  0  0  0  0  0  0  0  0  0
   -5.7972    1.2654    5.4735 O   0  0  0  0  0  0  0  0  0  0  0  0
   -6.3615   -0.5363    6.7161 O   0  0  0  0  0  0  0  0  0  0  0  0
   -3.0608    2.8252    6.3654 C   0  0  0  0  0  0  0  0  0  0  0  0
   -2.8011    3.7970    7.5036 C   0  0  0  0  0  0  0  0  0  0  0  0
   -1.7677    4.6661    7.7106 C   0  0  0  0  0  0  0  0  0  0  0  0
    2.2964   11.7985    7.3267 C   0  0  0  0  0  0  0  0  0  0  0  0
    1.6231   15.9773    9.6915 O   0  0  0  0  0  0  0  0  0  0  0  0
    1.9694   16.9024    8.7316 C   0  0  0  0  0  0  0  0  0  0  0  0
    1.7892   18.3382    9.0723 C   0  0  0  0  0  0  0  0  0  0  0  0
    2.8235   18.8531   10.0157 C   0  0  0  0  0  0  0  0  0  0  0  0
    3.2750   20.5266    9.8908 S   0  0  0  0  0  6  0  0  0  0  0  0
    2.2380   21.4083   10.5594 O   0  0  0  0  0  0  0  0  0  0  0  0
    3.2883   20.8970    8.4049 O   0  0  0  0  0  0  0  0  0  0  0  0
    4.8382   20.9461   10.5613 C   0  0  0  0  0  0  0  0  0  0  0  0
  1  2  1  0
  2  3  2  0
  3  4  1  0
  4  5  2  0
  5  6  1  0
  6  7  2  0
  7  8  1  0
  8  9  2  0
  9 10  1  0
 10 11  2  0
 11 12  1  0
 12 13  2  0
 12 14  1  0
 14 15  1  0
 15 16  1  0
 16 17  2  0
 17 18  1  0
 18 19  2  0
 19 20  1  0
 20 21  1  0
 21 22  1  0
 22 23  1  0
 23 24  2  0
 23 25  1  0
 21 26  1  0
 26 27  1  0
 27 28  2  0
  6 29  1  0
  4 30  1  0
 30 31  1  0
 31 32  1  0
 32 33  1  0
 33 34  1  0
 34 35  2  0
 34 36  2  0
 34 37  1  0
  7  2  1  0
 13  8  1  0
 28 16  1  0
 27 19  1  0
 22 20  1  0
M  END
$$$$
