
     RDKit          3D

 37 41  0  0  0  0  0  0  0  0999 V2000
   -1.9223    8.1383   12.3681 C   0  0  0  0  0  0  0  0  0  0  0  0
   -0.7358    8.7911   11.7610 C   0  0  0  0  0  0  0  0  0  0  0  0
   -0.2883   10.0320   12.2180 C   0  0  0  0  0  0  0  0  0  0  0  0
    0.8037   10.6571   11.6750 C   0  0  0  0  0  0  0  0  0  0  0  0
    1.4722   10.0103   10.6337 C   0  0  0  0  0  0  0  0  0  0  0  0
    1.0377    8.7950   10.1832 C   0  0  0  0  0  0  0  0  0  0  0  0
   -0.0520    8.1844   10.7331 C   0  0  0  0  0  0  0  0  0  0  0  0
   -0.5156    6.8702   10.2399 C   0  0  0  0  0  0  0  0  0  0  0  0
   -0.0487    5.6977   10.7937 C   0  0  0  0  0  0  0  0  0  0  0  0
   -0.4914    4.4811   10.3213 C   0  0  0  0  0  0  0  0  0  0  0  0
   -1.4199    4.3921    9.2749 C   0  0  0  0  0  0  0  0  0  0  0  0
   -1.8850    5.5544    8.7245 C   0  0  0  0  0  0  0  0  0  0  0  0
   -1.4265    6.7818    9.2139 C   0  0  0  0  0  0  0  0  0  0  0  0
   -2.8816    5.6222    7.6347 C   0  0  0  0  0  0  0  0  0  0  0  0
   -3.1297    4.3639    7.1226 O   0  0  0  0  0  0  0  0  0  0  0  0
   -2.9073    3.9738    5.8456 C   0  0  0  0  0  0  0  0  0  0  0  0
   -2.1213    4.6230    4.9917 N   0  0  0  0  0  0  0  0  0  0  0  0
   -1.9004    4.2392    3.7309 C   0  0  0  0  0  0  0  0  0  0  0  0
   -2.4997    3.0986    3.2181 C   0  0  0  0  0  0  0  0  0  0  0  0
   -2.5116    2.3413    1.9977 C   0  0  0  0  0  0  0  0  0  0  0  0
   -4.0465    2.0347    2.0346 C   0  0  0  0  0  0  0  0  0  0  0  0
   -3.3174    2.1735    0.8512 C   0  0  0  0  0  0  0  0  0  0  0  0
   -3.1882    0.9698   -0.0077 C   0  0  0  0  0  0  0  0  0  0  0  0
   -3.2204   -0.1630    0.5192 O   0  0  0  0  0  0  0  0  0  0  0  0
   -3.0313    1.0393   -1.3854 O   0  0  0  0  0  0  0  0  0  0  0  0
   -3.8927    1.2532    3.3090 C   0  0  0  0  0  0  0  0  0  0  0  0
   -3.3220    2.4170    4.1012 C   0  0  0  0  0  0  0  0  0  0  0  0
   -3.5472    2.8088    5.3902 C   0  0  0  0  0  0  0  0  0  0  0  0
    1.7348    8.0706    9.0629 C   0  0  0  0  0  0  0  0  0  0  0  0
    1.2864   11.8519   12.0642 O   0  0  0  0  0  0  0  0  0  0  0  0
    0.8361   12.8568   12.8916 C   0  0  0  0  0  0  0  0  0  0  0  0
    1.7579   13.9952   13.1455 C   0  0  0  0  0  0  0  0  0  0  0  0
    1.0795   15.3228   13.0990 C   0  0  0  0  0  0  0  0  0  0  0  0
    1.6448   16.4829   11.9352 S   0  0  0  0  0  6  0  0  0  0  0  0
    0.9865   16.2497   10.5891 O   0  0  0  0  0  0  0  0  0  0  0  0
    3.1477   16.2591   11.7447 O   0  0  0  0  0  0  0  0  0  0  0  0
    1.4034   18.1659   12.3579 C   0  0  0  0  0  0  0  0  0  0  0  0
  1  2  1  0
  2  3  2  0
  3  4  1  0
  4  5  2  0
  5  6  1  0
  6  7  2  0
  7  8  1  0
  8  9  2  0
  9 10  1  0
 10 11  2  0
 11 12  1  0
 12 13  2  0
 12 14  1  0
 14 15  1  0
 15 16  1  0
 16 17  2  0
 17 18  1  0
 18 19  2  0
 19 20  1  0
 20 21  1  0
 21 22  1  0
 22 23  1  0
 23 24  2  0
 23 25  1  0
 21 26  1  0
 26 27  1  0
 27 28  2  0
  6 29  1  0
  4 30  1  0
 30 31  1  0
 31 32  1  0
 32 33  1  0
 33 34  1  0
 34 35  2  0
 34 36  2  0
 34 37  1  0
  7  2  1  0
 13  8  1  0
 28 16  1  0
 27 19  1  0
 22 20  1  0
M  END
$$$$
