
     RDKit          3D

 37 41  0  0  0  0  0  0  0  0999 V2000
   -8.5936    8.4951   -8.8547 C   0  0  0  0  0  0  0  0  0  0  0  0
   -9.4813    8.3700   -7.6720 C   0  0  0  0  0  0  0  0  0  0  0  0
   -9.7690    9.4771   -6.8716 C   0  0  0  0  0  0  0  0  0  0  0  0
  -10.5847    9.3894   -5.7738 C   0  0  0  0  0  0  0  0  0  0  0  0
  -11.1330    8.1420   -5.4691 C   0  0  0  0  0  0  0  0  0  0  0  0
  -10.8543    7.0553   -6.2502 C   0  0  0  0  0  0  0  0  0  0  0  0
  -10.0396    7.1573   -7.3404 C   0  0  0  0  0  0  0  0  0  0  0  0
   -9.7428    5.9772   -8.1798 C   0  0  0  0  0  0  0  0  0  0  0  0
   -8.8767    4.9965   -7.7471 C   0  0  0  0  0  0  0  0  0  0  0  0
   -8.6110    3.9030   -8.5428 C   0  0  0  0  0  0  0  0  0  0  0  0
   -9.2035    3.7498   -9.8039 C   0  0  0  0  0  0  0  0  0  0  0  0
  -10.0639    4.7214  -10.2348 C   0  0  0  0  0  0  0  0  0  0  0  0
  -10.3237    5.8258   -9.4166 C   0  0  0  0  0  0  0  0  0  0  0  0
  -10.7822    4.6881  -11.5265 C   0  0  0  0  0  0  0  0  0  0  0  0
  -10.2466    5.6088  -12.4054 O   0  0  0  0  0  0  0  0  0  0  0  0
   -9.8641    5.3542  -13.6787 C   0  0  0  0  0  0  0  0  0  0  0  0
  -10.1859    4.2521  -14.3497 N   0  0  0  0  0  0  0  0  0  0  0  0
   -9.8095    3.9993  -15.6068 C   0  0  0  0  0  0  0  0  0  0  0  0
   -9.0318    4.9045  -16.3132 C   0  0  0  0  0  0  0  0  0  0  0  0
   -8.4623    5.0455  -17.6243 C   0  0  0  0  0  0  0  0  0  0  0  0
   -7.1068    5.6508  -17.1270 C   0  0  0  0  0  0  0  0  0  0  0  0
   -7.2238    4.8665  -18.2770 C   0  0  0  0  0  0  0  0  0  0  0  0
   -6.9390    5.5258  -19.5761 C   0  0  0  0  0  0  0  0  0  0  0  0
   -7.3686    6.6813  -19.7819 O   0  0  0  0  0  0  0  0  0  0  0  0
   -6.2099    4.9159  -20.5879 O   0  0  0  0  0  0  0  0  0  0  0  0
   -7.8120    6.8541  -16.5676 C   0  0  0  0  0  0  0  0  0  0  0  0
   -8.6906    6.0551  -15.6204 C   0  0  0  0  0  0  0  0  0  0  0  0
   -9.0760    6.3140  -14.3358 C   0  0  0  0  0  0  0  0  0  0  0  0
  -11.4285    5.6966   -5.9503 C   0  0  0  0  0  0  0  0  0  0  0  0
  -10.9009   10.4132   -4.9590 O   0  0  0  0  0  0  0  0  0  0  0  0
  -11.7986   10.5920   -3.9298 C   0  0  0  0  0  0  0  0  0  0  0  0
  -11.8220   11.9236   -3.2692 C   0  0  0  0  0  0  0  0  0  0  0  0
  -12.4893   12.9755   -4.0897 C   0  0  0  0  0  0  0  0  0  0  0  0
  -13.4140   14.1889   -3.2577 S   0  0  0  0  0  6  0  0  0  0  0  0
  -12.5787   15.4351   -3.0363 O   0  0  0  0  0  0  0  0  0  0  0  0
  -13.7719   13.6368   -1.8748 O   0  0  0  0  0  0  0  0  0  0  0  0
  -14.9026   14.6814   -4.0392 C   0  0  0  0  0  0  0  0  0  0  0  0
  1  2  1  0
  2  3  2  0
  3  4  1  0
  4  5  2  0
  5  6  1  0
  6  7  2  0
  7  8  1  0
  8  9  2  0
  9 10  1  0
 10 11  2  0
 11 12  1  0
 12 13  2  0
 12 14  1  0
 14 15  1  0
 15 16  1  0
 16 17  2  0
 17 18  1  0
 18 19  2  0
 19 20  1  0
 20 21  1  0
 21 22  1  0
 22 23  1  0
 23 24  2  0
 23 25  1  0
 21 26  1  0
 26 27  1  0
 27 28  2  0
  6 29  1  0
  4 30  1  0
 30 31  1  0
 31 32  1  0
 32 33  1  0
 33 34  1  0
 34 35  2  0
 34 36  2  0
 34 37  1  0
  7  2  1  0
 13  8  1  0
 28 16  1  0
 27 19  1  0
 22 20  1  0
M  END
$$$$
