
     RDKit          3D

 37 41  0  0  0  0  0  0  0  0999 V2000
  -12.9942    6.3670   -9.7585 C   0  0  0  0  0  0  0  0  0  0  0  0
  -11.9041    5.4998   -9.2465 C   0  0  0  0  0  0  0  0  0  0  0  0
  -11.1906    5.8482   -8.0982 C   0  0  0  0  0  0  0  0  0  0  0  0
  -10.1792    5.0661   -7.6044 C   0  0  0  0  0  0  0  0  0  0  0  0
   -9.8739    3.8888   -8.2899 C   0  0  0  0  0  0  0  0  0  0  0  0
  -10.5701    3.5435   -9.4145 C   0  0  0  0  0  0  0  0  0  0  0  0
  -11.5746    4.3325   -9.8953 C   0  0  0  0  0  0  0  0  0  0  0  0
  -12.3225    3.9522  -11.1124 C   0  0  0  0  0  0  0  0  0  0  0  0
  -13.3566    3.0429  -11.0566 C   0  0  0  0  0  0  0  0  0  0  0  0
  -14.0430    2.6994  -12.2013 C   0  0  0  0  0  0  0  0  0  0  0  0
  -13.7195    3.2543  -13.4473 C   0  0  0  0  0  0  0  0  0  0  0  0
  -12.6942    4.1574  -13.5047 C   0  0  0  0  0  0  0  0  0  0  0  0
  -12.0063    4.4962  -12.3349 C   0  0  0  0  0  0  0  0  0  0  0  0
  -12.2539    4.8438  -14.7378 C   0  0  0  0  0  0  0  0  0  0  0  0
  -11.2525    4.1271  -15.3629 O   0  0  0  0  0  0  0  0  0  0  0  0
  -10.2519    4.6540  -16.1070 C   0  0  0  0  0  0  0  0  0  0  0  0
  -10.2286    5.9085  -16.5474 N   0  0  0  0  0  0  0  0  0  0  0  0
   -9.2415    6.4303  -17.2817 C   0  0  0  0  0  0  0  0  0  0  0  0
   -8.1415    5.6666  -17.6420 C   0  0  0  0  0  0  0  0  0  0  0  0
   -6.9034    5.8255  -18.3528 C   0  0  0  0  0  0  0  0  0  0  0  0
   -6.9668    4.4318  -19.0633 C   0  0  0  0  0  0  0  0  0  0  0  0
   -6.3602    5.5566  -19.6273 C   0  0  0  0  0  0  0  0  0  0  0  0
   -4.8920    5.4978  -19.8385 C   0  0  0  0  0  0  0  0  0  0  0  0
   -4.2080    4.7046  -19.1567 O   0  0  0  0  0  0  0  0  0  0  0  0
   -4.2311    6.2900  -20.7676 O   0  0  0  0  0  0  0  0  0  0  0  0
   -6.8966    3.7188  -17.7423 C   0  0  0  0  0  0  0  0  0  0  0  0
   -8.1588    4.3573  -17.1884 C   0  0  0  0  0  0  0  0  0  0  0  0
   -9.1673    3.8241  -16.4371 C   0  0  0  0  0  0  0  0  0  0  0  0
  -10.2668    2.2818  -10.1773 C   0  0  0  0  0  0  0  0  0  0  0  0
   -9.4504    5.3429   -6.5070 O   0  0  0  0  0  0  0  0  0  0  0  0
   -8.1816    5.0206   -6.0789 C   0  0  0  0  0  0  0  0  0  0  0  0
   -7.7888    5.4646   -4.7156 C   0  0  0  0  0  0  0  0  0  0  0  0
   -7.2898    6.8696   -4.6756 C   0  0  0  0  0  0  0  0  0  0  0  0
   -5.6165    7.1259   -4.2824 S   0  0  0  0  0  6  0  0  0  0  0  0
   -5.4876    7.8844   -2.9756 O   0  0  0  0  0  0  0  0  0  0  0  0
   -5.0098    8.0095   -5.3761 O   0  0  0  0  0  0  0  0  0  0  0  0
   -4.6339    5.6810   -4.1548 C   0  0  0  0  0  0  0  0  0  0  0  0
  1  2  1  0
  2  3  2  0
  3  4  1  0
  4  5  2  0
  5  6  1  0
  6  7  2  0
  7  8  1  0
  8  9  2  0
  9 10  1  0
 10 11  2  0
 11 12  1  0
 12 13  2  0
 12 14  1  0
 14 15  1  0
 15 16  1  0
 16 17  2  0
 17 18  1  0
 18 19  2  0
 19 20  1  0
 20 21  1  0
 21 22  1  0
 22 23  1  0
 23 24  2  0
 23 25  1  0
 21 26  1  0
 26 27  1  0
 27 28  2  0
  6 29  1  0
  4 30  1  0
 30 31  1  0
 31 32  1  0
 32 33  1  0
 33 34  1  0
 34 35  2  0
 34 36  2  0
 34 37  1  0
  7  2  1  0
 13  8  1  0
 28 16  1  0
 27 19  1  0
 22 20  1  0
M  END
$$$$
