
     RDKit          3D

 37 41  0  0  0  0  0  0  0  0999 V2000
  -10.4887    7.3878   -8.1054 C   0  0  0  0  0  0  0  0  0  0  0  0
   -9.7643    6.1403   -7.7570 C   0  0  0  0  0  0  0  0  0  0  0  0
   -8.8223    6.1225   -6.7267 C   0  0  0  0  0  0  0  0  0  0  0  0
   -8.1388    4.9849   -6.3849 C   0  0  0  0  0  0  0  0  0  0  0  0
   -8.4129    3.8206   -7.1050 C   0  0  0  0  0  0  0  0  0  0  0  0
   -9.3347    3.8332   -8.1144 C   0  0  0  0  0  0  0  0  0  0  0  0
  -10.0075    4.9739   -8.4444 C   0  0  0  0  0  0  0  0  0  0  0  0
  -11.0025    4.9794   -9.5377 C   0  0  0  0  0  0  0  0  0  0  0  0
  -12.2650    4.4584   -9.3528 C   0  0  0  0  0  0  0  0  0  0  0  0
  -13.1802    4.4713  -10.3832 C   0  0  0  0  0  0  0  0  0  0  0  0
  -12.8656    5.0072  -11.6397 C   0  0  0  0  0  0  0  0  0  0  0  0
  -11.6137    5.5253  -11.8250 C   0  0  0  0  0  0  0  0  0  0  0  0
  -10.6951    5.5051  -10.7703 C   0  0  0  0  0  0  0  0  0  0  0  0
  -11.1439    6.1452  -13.0822 C   0  0  0  0  0  0  0  0  0  0  0  0
  -10.0183    5.4984  -13.5531 O   0  0  0  0  0  0  0  0  0  0  0  0
   -9.3507    5.8037  -14.6905 C   0  0  0  0  0  0  0  0  0  0  0  0
   -9.6424    6.8381  -15.4737 N   0  0  0  0  0  0  0  0  0  0  0  0
   -8.9843    7.1412  -16.5966 C   0  0  0  0  0  0  0  0  0  0  0  0
   -7.9183    6.3666  -17.0286 C   0  0  0  0  0  0  0  0  0  0  0  0
   -6.9591    6.3507  -18.0977 C   0  0  0  0  0  0  0  0  0  0  0  0
   -6.9954    4.7985  -18.2992 C   0  0  0  0  0  0  0  0  0  0  0  0
   -6.7462    5.7035  -19.3337 C   0  0  0  0  0  0  0  0  0  0  0  0
   -5.3994    5.6633  -19.9565 C   0  0  0  0  0  0  0  0  0  0  0  0
   -4.4263    5.2621  -19.2826 O   0  0  0  0  0  0  0  0  0  0  0  0
   -5.1625    6.0541  -21.2675 O   0  0  0  0  0  0  0  0  0  0  0  0
   -6.4606    4.5734  -16.9130 C   0  0  0  0  0  0  0  0  0  0  0  0
   -7.6088    5.2854  -16.2188 C   0  0  0  0  0  0  0  0  0  0  0  0
   -8.2809    4.9760  -15.0705 C   0  0  0  0  0  0  0  0  0  0  0  0
   -9.6541    2.5963   -8.9104 C   0  0  0  0  0  0  0  0  0  0  0  0
   -7.2178    4.8981   -5.4070 O   0  0  0  0  0  0  0  0  0  0  0  0
   -6.2026    4.0170   -5.1065 C   0  0  0  0  0  0  0  0  0  0  0  0
   -5.4128    4.2814   -3.8751 C   0  0  0  0  0  0  0  0  0  0  0  0
   -4.2286    5.1566   -4.1125 C   0  0  0  0  0  0  0  0  0  0  0  0
   -3.1193    5.3961   -2.7965 S   0  0  0  0  0  6  0  0  0  0  0  0
   -2.9554    4.1162   -1.9997 O   0  0  0  0  0  0  0  0  0  0  0  0
   -3.7307    6.4366   -1.8538 O   0  0  0  0  0  0  0  0  0  0  0  0
   -1.5182    5.9515   -3.2410 C   0  0  0  0  0  0  0  0  0  0  0  0
  1  2  1  0
  2  3  2  0
  3  4  1  0
  4  5  2  0
  5  6  1  0
  6  7  2  0
  7  8  1  0
  8  9  2  0
  9 10  1  0
 10 11  2  0
 11 12  1  0
 12 13  2  0
 12 14  1  0
 14 15  1  0
 15 16  1  0
 16 17  2  0
 17 18  1  0
 18 19  2  0
 19 20  1  0
 20 21  1  0
 21 22  1  0
 22 23  1  0
 23 24  2  0
 23 25  1  0
 21 26  1  0
 26 27  1  0
 27 28  2  0
  6 29  1  0
  4 30  1  0
 30 31  1  0
 31 32  1  0
 32 33  1  0
 33 34  1  0
 34 35  2  0
 34 36  2  0
 34 37  1  0
  7  2  1  0
 13  8  1  0
 28 16  1  0
 27 19  1  0
 22 20  1  0
M  END
$$$$
