
     RDKit          3D

 37 41  0  0  0  0  0  0  0  0999 V2000
  -11.1536    2.9610  -10.1946 C   0  0  0  0  0  0  0  0  0  0  0  0
  -12.2595    3.7155   -9.5541 C   0  0  0  0  0  0  0  0  0  0  0  0
  -13.5354    3.1599   -9.4420 C   0  0  0  0  0  0  0  0  0  0  0  0
  -14.5743    3.8348   -8.8559 C   0  0  0  0  0  0  0  0  0  0  0  0
  -14.3213    5.1163   -8.3628 C   0  0  0  0  0  0  0  0  0  0  0  0
  -13.0735    5.6641   -8.4700 C   0  0  0  0  0  0  0  0  0  0  0  0
  -12.0483    4.9805   -9.0569 C   0  0  0  0  0  0  0  0  0  0  0  0
  -10.7018    5.5802   -9.1693 C   0  0  0  0  0  0  0  0  0  0  0  0
   -9.7921    5.4838   -8.1385 C   0  0  0  0  0  0  0  0  0  0  0  0
   -8.5411    6.0492   -8.2601 C   0  0  0  0  0  0  0  0  0  0  0  0
   -8.1529    6.7336   -9.4201 C   0  0  0  0  0  0  0  0  0  0  0  0
   -9.0538    6.8298  -10.4445 C   0  0  0  0  0  0  0  0  0  0  0  0
  -10.3199    6.2514  -10.3068 C   0  0  0  0  0  0  0  0  0  0  0  0
   -8.7826    7.4971  -11.7354 C   0  0  0  0  0  0  0  0  0  0  0  0
   -7.8876    6.7604  -12.4859 O   0  0  0  0  0  0  0  0  0  0  0  0
   -7.7309    6.8392  -13.8282 C   0  0  0  0  0  0  0  0  0  0  0  0
   -8.4094    7.6716  -14.6124 N   0  0  0  0  0  0  0  0  0  0  0  0
   -8.2558    7.7509  -15.9375 C   0  0  0  0  0  0  0  0  0  0  0  0
   -7.3458    6.9399  -16.5989 C   0  0  0  0  0  0  0  0  0  0  0  0
   -6.8582    6.7300  -17.9336 C   0  0  0  0  0  0  0  0  0  0  0  0
   -6.7889    5.1703  -17.8167 C   0  0  0  0  0  0  0  0  0  0  0  0
   -7.0479    5.8418  -19.0139 C   0  0  0  0  0  0  0  0  0  0  0  0
   -6.0346    5.7170  -20.0913 C   0  0  0  0  0  0  0  0  0  0  0  0
   -4.8282    5.6031  -19.7852 O   0  0  0  0  0  0  0  0  0  0  0  0
   -6.3631    5.7204  -21.4402 O   0  0  0  0  0  0  0  0  0  0  0  0
   -5.7547    5.2652  -16.7305 C   0  0  0  0  0  0  0  0  0  0  0  0
   -6.6356    6.0682  -15.7889 C   0  0  0  0  0  0  0  0  0  0  0  0
   -6.7920    5.9876  -14.4344 C   0  0  0  0  0  0  0  0  0  0  0  0
  -12.7666    7.0426   -7.9493 C   0  0  0  0  0  0  0  0  0  0  0  0
  -15.8267    3.3613   -8.7178 O   0  0  0  0  0  0  0  0  0  0  0  0
  -16.4886    2.2311   -9.1440 C   0  0  0  0  0  0  0  0  0  0  0  0
  -17.9702    2.2218   -9.0214 C   0  0  0  0  0  0  0  0  0  0  0  0
  -18.4438    2.2876   -7.6085 C   0  0  0  0  0  0  0  0  0  0  0  0
  -20.0817    1.8099   -7.2783 S   0  0  0  0  0  6  0  0  0  0  0  0
  -21.0094    3.0074   -7.3494 O   0  0  0  0  0  0  0  0  0  0  0  0
  -20.1344    1.2858   -5.8404 O   0  0  0  0  0  0  0  0  0  0  0  0
  -20.7389    0.5683   -8.3252 C   0  0  0  0  0  0  0  0  0  0  0  0
  1  2  1  0
  2  3  2  0
  3  4  1  0
  4  5  2  0
  5  6  1  0
  6  7  2  0
  7  8  1  0
  8  9  2  0
  9 10  1  0
 10 11  2  0
 11 12  1  0
 12 13  2  0
 12 14  1  0
 14 15  1  0
 15 16  1  0
 16 17  2  0
 17 18  1  0
 18 19  2  0
 19 20  1  0
 20 21  1  0
 21 22  1  0
 22 23  1  0
 23 24  2  0
 23 25  1  0
 21 26  1  0
 26 27  1  0
 27 28  2  0
  6 29  1  0
  4 30  1  0
 30 31  1  0
 31 32  1  0
 32 33  1  0
 33 34  1  0
 34 35  2  0
 34 36  2  0
 34 37  1  0
  7  2  1  0
 13  8  1  0
 28 16  1  0
 27 19  1  0
 22 20  1  0
M  END
$$$$
