
     RDKit          3D

 37 41  0  0  0  0  0  0  0  0999 V2000
    4.3774   13.3786    7.9507 C   0  0  0  0  0  0  0  0  0  0  0  0
    3.1986   14.1399    8.4336 C   0  0  0  0  0  0  0  0  0  0  0  0
    3.3464   15.1890    9.3428 C   0  0  0  0  0  0  0  0  0  0  0  0
    2.2751   15.9078    9.8053 C   0  0  0  0  0  0  0  0  0  0  0  0
    1.0072   15.5600    9.3356 C   0  0  0  0  0  0  0  0  0  0  0  0
    0.8577   14.5337    8.4450 C   0  0  0  0  0  0  0  0  0  0  0  0
    1.9337   13.8260    7.9934 C   0  0  0  0  0  0  0  0  0  0  0  0
    1.7636   12.7172    7.0306 C   0  0  0  0  0  0  0  0  0  0  0  0
    1.5794   12.9638    5.6873 C   0  0  0  0  0  0  0  0  0  0  0  0
    1.4219   11.9181    4.8035 C   0  0  0  0  0  0  0  0  0  0  0  0
    1.4431   10.5836    5.2320 C   0  0  0  0  0  0  0  0  0  0  0  0
    1.6266   10.3366    6.5644 C   0  0  0  0  0  0  0  0  0  0  0  0
    1.7846   11.4079    7.4497 C   0  0  0  0  0  0  0  0  0  0  0  0
    1.6961    8.9861    7.1617 C   0  0  0  0  0  0  0  0  0  0  0  0
    0.4502    8.3904    7.1651 O   0  0  0  0  0  0  0  0  0  0  0  0
    0.0443    7.4150    8.0115 C   0  0  0  0  0  0  0  0  0  0  0  0
    0.7190    7.0350    9.0926 N   0  0  0  0  0  0  0  0  0  0  0  0
    0.3196    6.0726    9.9294 C   0  0  0  0  0  0  0  0  0  0  0  0
   -0.8662    5.3870    9.7125 C   0  0  0  0  0  0  0  0  0  0  0  0
   -1.6511    4.3623   10.3426 C   0  0  0  0  0  0  0  0  0  0  0  0
   -2.0473    3.6451    9.0085 C   0  0  0  0  0  0  0  0  0  0  0  0
   -1.8931    2.9768   10.2254 C   0  0  0  0  0  0  0  0  0  0  0  0
   -3.1067    2.3575   10.8145 C   0  0  0  0  0  0  0  0  0  0  0  0
   -4.2111    2.9259   10.6760 O   0  0  0  0  0  0  0  0  0  0  0  0
   -3.0770    1.1628   11.5210 O   0  0  0  0  0  0  0  0  0  0  0  0
   -2.7883    4.8639    8.5354 C   0  0  0  0  0  0  0  0  0  0  0  0
   -1.5746    5.7759    8.5868 C   0  0  0  0  0  0  0  0  0  0  0  0
   -1.1669    6.7601    7.7319 C   0  0  0  0  0  0  0  0  0  0  0  0
   -0.4943   14.1328    7.9187 C   0  0  0  0  0  0  0  0  0  0  0  0
    2.3455   16.9267   10.6822 O   0  0  0  0  0  0  0  0  0  0  0  0
    1.4250   17.6310   11.4263 C   0  0  0  0  0  0  0  0  0  0  0  0
    1.9454   18.6952   12.3246 C   0  0  0  0  0  0  0  0  0  0  0  0
    2.6220   18.1592   13.5410 C   0  0  0  0  0  0  0  0  0  0  0  0
    2.3761   18.9982   15.0428 S   0  0  0  0  0  6  0  0  0  0  0  0
    3.3381   20.1642   15.1642 O   0  0  0  0  0  0  0  0  0  0  0  0
    2.7032   18.0260   16.1799 O   0  0  0  0  0  0  0  0  0  0  0  0
    0.7592   19.6156   15.3147 C   0  0  0  0  0  0  0  0  0  0  0  0
  1  2  1  0
  2  3  2  0
  3  4  1  0
  4  5  2  0
  5  6  1  0
  6  7  2  0
  7  8  1  0
  8  9  2  0
  9 10  1  0
 10 11  2  0
 11 12  1  0
 12 13  2  0
 12 14  1  0
 14 15  1  0
 15 16  1  0
 16 17  2  0
 17 18  1  0
 18 19  2  0
 19 20  1  0
 20 21  1  0
 21 22  1  0
 22 23  1  0
 23 24  2  0
 23 25  1  0
 21 26  1  0
 26 27  1  0
 27 28  2  0
  6 29  1  0
  4 30  1  0
 30 31  1  0
 31 32  1  0
 32 33  1  0
 33 34  1  0
 34 35  2  0
 34 36  2  0
 34 37  1  0
  7  2  1  0
 13  8  1  0
 28 16  1  0
 27 19  1  0
 22 20  1  0
M  END
$$$$
