
     RDKit          3D

 37 41  0  0  0  0  0  0  0  0999 V2000
   -0.5791   11.6726   12.0629 C   0  0  0  0  0  0  0  0  0  0  0  0
    0.4736   12.1725   11.1440 C   0  0  0  0  0  0  0  0  0  0  0  0
    1.3861   13.1437   11.5603 C   0  0  0  0  0  0  0  0  0  0  0  0
    2.3673   13.6231   10.7322 C   0  0  0  0  0  0  0  0  0  0  0  0
    2.4347   13.1064    9.4369 C   0  0  0  0  0  0  0  0  0  0  0  0
    1.5435   12.1552    9.0251 C   0  0  0  0  0  0  0  0  0  0  0  0
    0.5710   11.6873    9.8606 C   0  0  0  0  0  0  0  0  0  0  0  0
   -0.3893   10.6587    9.4074 C   0  0  0  0  0  0  0  0  0  0  0  0
   -1.3142   10.9336    8.4235 C   0  0  0  0  0  0  0  0  0  0  0  0
   -2.2024    9.9628    8.0133 C   0  0  0  0  0  0  0  0  0  0  0  0
   -2.1980    8.6780    8.5737 C   0  0  0  0  0  0  0  0  0  0  0  0
   -1.2805    8.4029    9.5496 C   0  0  0  0  0  0  0  0  0  0  0  0
   -0.3856    9.3981    9.9561 C   0  0  0  0  0  0  0  0  0  0  0  0
   -1.1377    7.0910   10.2159 C   0  0  0  0  0  0  0  0  0  0  0  0
   -0.5598    6.1717    9.3626 O   0  0  0  0  0  0  0  0  0  0  0  0
   -0.8330    4.8463    9.3286 C   0  0  0  0  0  0  0  0  0  0  0  0
   -1.4679    4.1889   10.2946 N   0  0  0  0  0  0  0  0  0  0  0  0
   -1.7386    2.8806   10.2625 C   0  0  0  0  0  0  0  0  0  0  0  0
   -1.3598    2.1012    9.1799 C   0  0  0  0  0  0  0  0  0  0  0  0
   -1.4739    0.7392    8.7381 C   0  0  0  0  0  0  0  0  0  0  0  0
   -0.0263    0.6589    8.1472 C   0  0  0  0  0  0  0  0  0  0  0  0
   -0.6975   -0.4385    8.6918 C   0  0  0  0  0  0  0  0  0  0  0  0
   -1.0405   -1.5476    7.7668 C   0  0  0  0  0  0  0  0  0  0  0  0
   -1.2845   -1.2903    6.5684 O   0  0  0  0  0  0  0  0  0  0  0  0
   -1.1050   -2.8742    8.1707 O   0  0  0  0  0  0  0  0  0  0  0  0
   -0.3454    1.7228    7.1350 C   0  0  0  0  0  0  0  0  0  0  0  0
   -0.6960    2.7785    8.1694 C   0  0  0  0  0  0  0  0  0  0  0  0
   -0.4199    4.1159    8.2017 C   0  0  0  0  0  0  0  0  0  0  0  0
    1.5880   11.5770    7.6361 C   0  0  0  0  0  0  0  0  0  0  0  0
    3.2755   14.5586   11.0668 O   0  0  0  0  0  0  0  0  0  0  0  0
    3.5505   15.2787   12.2082 C   0  0  0  0  0  0  0  0  0  0  0  0
    4.6727   16.2519   12.1465 C   0  0  0  0  0  0  0  0  0  0  0  0
    4.3276   17.5014   11.4086 C   0  0  0  0  0  0  0  0  0  0  0  0
    5.3754   18.8742   11.6025 S   0  0  0  0  0  6  0  0  0  0  0  0
    6.8147   18.4255   11.7665 O   0  0  0  0  0  0  0  0  0  0  0  0
    4.9768   19.5866   12.8981 O   0  0  0  0  0  0  0  0  0  0  0  0
    5.3329   20.0539   10.3079 C   0  0  0  0  0  0  0  0  0  0  0  0
  1  2  1  0
  2  3  2  0
  3  4  1  0
  4  5  2  0
  5  6  1  0
  6  7  2  0
  7  8  1  0
  8  9  2  0
  9 10  1  0
 10 11  2  0
 11 12  1  0
 12 13  2  0
 12 14  1  0
 14 15  1  0
 15 16  1  0
 16 17  2  0
 17 18  1  0
 18 19  2  0
 19 20  1  0
 20 21  1  0
 21 22  1  0
 22 23  1  0
 23 24  2  0
 23 25  1  0
 21 26  1  0
 26 27  1  0
 27 28  2  0
  6 29  1  0
  4 30  1  0
 30 31  1  0
 31 32  1  0
 32 33  1  0
 33 34  1  0
 34 35  2  0
 34 36  2  0
 34 37  1  0
  7  2  1  0
 13  8  1  0
 28 16  1  0
 27 19  1  0
 22 20  1  0
M  END
$$$$
