
     RDKit          3D

 37 41  0  0  0  0  0  0  0  0999 V2000
  -12.1453    8.8877   -9.9000 C   0  0  0  0  0  0  0  0  0  0  0  0
  -13.0261    7.7896   -9.4303 C   0  0  0  0  0  0  0  0  0  0  0  0
  -14.4138    7.9417   -9.4125 C   0  0  0  0  0  0  0  0  0  0  0  0
  -15.2499    6.9444   -8.9832 C   0  0  0  0  0  0  0  0  0  0  0  0
  -14.6698    5.7482   -8.5565 C   0  0  0  0  0  0  0  0  0  0  0  0
  -13.3116    5.5947   -8.5725 C   0  0  0  0  0  0  0  0  0  0  0  0
  -12.4909    6.5970   -9.0021 C   0  0  0  0  0  0  0  0  0  0  0  0
  -11.0229    6.4231   -9.0160 C   0  0  0  0  0  0  0  0  0  0  0  0
  -10.2399    6.9059   -7.9898 C   0  0  0  0  0  0  0  0  0  0  0  0
   -8.8726    6.7353   -8.0191 C   0  0  0  0  0  0  0  0  0  0  0  0
   -8.2365    6.0738   -9.0786 C   0  0  0  0  0  0  0  0  0  0  0  0
   -9.0117    5.5932  -10.0975 C   0  0  0  0  0  0  0  0  0  0  0  0
  -10.3980    5.7740  -10.0545 C   0  0  0  0  0  0  0  0  0  0  0  0
   -8.4900    4.8550  -11.2672 C   0  0  0  0  0  0  0  0  0  0  0  0
   -8.0492    5.7314  -12.2392 O   0  0  0  0  0  0  0  0  0  0  0  0
   -7.9141    5.4467  -13.5557 C   0  0  0  0  0  0  0  0  0  0  0  0
   -8.2591    4.2877  -14.1091 N   0  0  0  0  0  0  0  0  0  0  0  0
   -8.1268    4.0050  -15.4085 C   0  0  0  0  0  0  0  0  0  0  0  0
   -7.6024    4.9379  -16.2905 C   0  0  0  0  0  0  0  0  0  0  0  0
   -7.3312    5.0612  -17.6957 C   0  0  0  0  0  0  0  0  0  0  0  0
   -5.9674    5.8080  -17.5130 C   0  0  0  0  0  0  0  0  0  0  0  0
   -6.2422    4.9587  -18.5875 C   0  0  0  0  0  0  0  0  0  0  0  0
   -6.2960    5.5733  -19.9377 C   0  0  0  0  0  0  0  0  0  0  0  0
   -6.6653    6.7616  -20.0538 O   0  0  0  0  0  0  0  0  0  0  0  0
   -5.9522    4.8858  -21.0938 O   0  0  0  0  0  0  0  0  0  0  0  0
   -6.6554    6.9717  -16.8566 C   0  0  0  0  0  0  0  0  0  0  0  0
   -7.2387    6.1479  -15.7215 C   0  0  0  0  0  0  0  0  0  0  0  0
   -7.3747    6.4372  -14.3934 C   0  0  0  0  0  0  0  0  0  0  0  0
  -12.6536    4.3189   -8.1195 C   0  0  0  0  0  0  0  0  0  0  0  0
  -16.5929    7.0248   -8.9370 O   0  0  0  0  0  0  0  0  0  0  0  0
  -17.5252    7.9394   -9.3745 C   0  0  0  0  0  0  0  0  0  0  0  0
  -18.9543    7.6458   -9.0888 C   0  0  0  0  0  0  0  0  0  0  0  0
  -19.5458    8.5489   -8.0595 C   0  0  0  0  0  0  0  0  0  0  0  0
  -21.2736    8.5465   -7.8741 S   0  0  0  0  0  6  0  0  0  0  0  0
  -21.9101    9.5565   -8.8093 O   0  0  0  0  0  0  0  0  0  0  0  0
  -21.5906    8.9961   -6.4449 O   0  0  0  0  0  0  0  0  0  0  0  0
  -22.0663    7.0068   -8.1393 C   0  0  0  0  0  0  0  0  0  0  0  0
  1  2  1  0
  2  3  2  0
  3  4  1  0
  4  5  2  0
  5  6  1  0
  6  7  2  0
  7  8  1  0
  8  9  2  0
  9 10  1  0
 10 11  2  0
 11 12  1  0
 12 13  2  0
 12 14  1  0
 14 15  1  0
 15 16  1  0
 16 17  2  0
 17 18  1  0
 18 19  2  0
 19 20  1  0
 20 21  1  0
 21 22  1  0
 22 23  1  0
 23 24  2  0
 23 25  1  0
 21 26  1  0
 26 27  1  0
 27 28  2  0
  6 29  1  0
  4 30  1  0
 30 31  1  0
 31 32  1  0
 32 33  1  0
 33 34  1  0
 34 35  2  0
 34 36  2  0
 34 37  1  0
  7  2  1  0
 13  8  1  0
 28 16  1  0
 27 19  1  0
 22 20  1  0
M  END
$$$$
