
     RDKit          3D

 37 41  0  0  0  0  0  0  0  0999 V2000
   -8.9004    7.4152   -6.7805 C   0  0  0  0  0  0  0  0  0  0  0  0
   -8.4681    5.9997   -6.6715 C   0  0  0  0  0  0  0  0  0  0  0  0
   -7.6951    5.5675   -5.5922 C   0  0  0  0  0  0  0  0  0  0  0  0
   -7.2820    4.2668   -5.4674 C   0  0  0  0  0  0  0  0  0  0  0  0
   -7.6608    3.3658   -6.4644 C   0  0  0  0  0  0  0  0  0  0  0  0
   -8.4178    3.7844   -7.5228 C   0  0  0  0  0  0  0  0  0  0  0  0
   -8.8217    5.0833   -7.6345 C   0  0  0  0  0  0  0  0  0  0  0  0
   -9.6400    5.5282   -8.7824 C   0  0  0  0  0  0  0  0  0  0  0  0
  -11.0165    5.5295   -8.7164 C   0  0  0  0  0  0  0  0  0  0  0  0
  -11.7640    5.9472   -9.7964 C   0  0  0  0  0  0  0  0  0  0  0  0
  -11.1606    6.3800  -10.9852 C   0  0  0  0  0  0  0  0  0  0  0  0
   -9.7947    6.3802  -11.0525 C   0  0  0  0  0  0  0  0  0  0  0  0
   -9.0491    5.9533   -9.9488 C   0  0  0  0  0  0  0  0  0  0  0  0
   -9.0164    6.8302  -12.2260 C   0  0  0  0  0  0  0  0  0  0  0  0
   -9.0128    5.8603  -13.2091 O   0  0  0  0  0  0  0  0  0  0  0  0
   -8.4475    5.9798  -14.4333 C   0  0  0  0  0  0  0  0  0  0  0  0
   -7.8505    7.0822  -14.8766 N   0  0  0  0  0  0  0  0  0  0  0  0
   -7.2917    7.2018  -16.0846 C   0  0  0  0  0  0  0  0  0  0  0  0
   -7.3012    6.1443  -16.9817 C   0  0  0  0  0  0  0  0  0  0  0  0
   -6.8130    5.8413  -18.2981 C   0  0  0  0  0  0  0  0  0  0  0  0
   -8.0872    5.0485  -18.7442 C   0  0  0  0  0  0  0  0  0  0  0  0
   -7.2867    5.7785  -19.6261 C   0  0  0  0  0  0  0  0  0  0  0  0
   -6.5552    5.0126  -20.6661 C   0  0  0  0  0  0  0  0  0  0  0  0
   -5.8090    4.0716  -20.3202 O   0  0  0  0  0  0  0  0  0  0  0  0
   -6.6591    5.2922  -22.0220 O   0  0  0  0  0  0  0  0  0  0  0  0
   -7.8515    4.0095  -17.6843 C   0  0  0  0  0  0  0  0  0  0  0  0
   -7.9231    4.9920  -16.5280 C   0  0  0  0  0  0  0  0  0  0  0  0
   -8.4936    4.8694  -15.2929 C   0  0  0  0  0  0  0  0  0  0  0  0
   -8.8435    2.8397   -8.6146 C   0  0  0  0  0  0  0  0  0  0  0  0
   -6.5346    3.7842   -4.4571 O   0  0  0  0  0  0  0  0  0  0  0  0
   -5.7554    4.3489   -3.4718 C   0  0  0  0  0  0  0  0  0  0  0  0
   -4.6758    3.5081   -2.8908 C   0  0  0  0  0  0  0  0  0  0  0  0
   -5.1797    2.2459   -2.2762 C   0  0  0  0  0  0  0  0  0  0  0  0
   -4.0099    1.1304   -1.6380 S   0  0  0  0  0  6  0  0  0  0  0  0
   -4.7013   -0.0730   -1.0267 O   0  0  0  0  0  0  0  0  0  0  0  0
   -3.2579    1.8384   -0.5074 O   0  0  0  0  0  0  0  0  0  0  0  0
   -2.8225    0.5350   -2.7803 C   0  0  0  0  0  0  0  0  0  0  0  0
  1  2  1  0
  2  3  2  0
  3  4  1  0
  4  5  2  0
  5  6  1  0
  6  7  2  0
  7  8  1  0
  8  9  2  0
  9 10  1  0
 10 11  2  0
 11 12  1  0
 12 13  2  0
 12 14  1  0
 14 15  1  0
 15 16  1  0
 16 17  2  0
 17 18  1  0
 18 19  2  0
 19 20  1  0
 20 21  1  0
 21 22  1  0
 22 23  1  0
 23 24  2  0
 23 25  1  0
 21 26  1  0
 26 27  1  0
 27 28  2  0
  6 29  1  0
  4 30  1  0
 30 31  1  0
 31 32  1  0
 32 33  1  0
 33 34  1  0
 34 35  2  0
 34 36  2  0
 34 37  1  0
  7  2  1  0
 13  8  1  0
 28 16  1  0
 27 19  1  0
 22 20  1  0
M  END
$$$$
