
     RDKit          3D

 37 41  0  0  0  0  0  0  0  0999 V2000
   -8.7346    3.1531   -5.0669 C   0  0  0  0  0  0  0  0  0  0  0  0
   -8.1890    4.5200   -4.8768 C   0  0  0  0  0  0  0  0  0  0  0  0
   -8.1678    5.1140   -3.6135 C   0  0  0  0  0  0  0  0  0  0  0  0
   -7.6704    6.3747   -3.4102 C   0  0  0  0  0  0  0  0  0  0  0  0
   -7.1746    7.0646   -4.5182 C   0  0  0  0  0  0  0  0  0  0  0  0
   -7.1930    6.4869   -5.7569 C   0  0  0  0  0  0  0  0  0  0  0  0
   -7.6921    5.2305   -5.9447 C   0  0  0  0  0  0  0  0  0  0  0  0
   -7.7088    4.6129   -7.2878 C   0  0  0  0  0  0  0  0  0  0  0  0
   -7.0395    3.4342   -7.5368 C   0  0  0  0  0  0  0  0  0  0  0  0
   -7.0653    2.8725   -8.7951 C   0  0  0  0  0  0  0  0  0  0  0  0
   -7.7633    3.4706   -9.8533 C   0  0  0  0  0  0  0  0  0  0  0  0
   -8.4288    4.6399   -9.6081 C   0  0  0  0  0  0  0  0  0  0  0  0
   -8.3934    5.1986   -8.3263 C   0  0  0  0  0  0  0  0  0  0  0  0
   -9.2264    5.3736  -10.6135 C   0  0  0  0  0  0  0  0  0  0  0  0
   -8.4219    5.8153  -11.6455 O   0  0  0  0  0  0  0  0  0  0  0  0
   -8.7246    5.7542  -12.9635 C   0  0  0  0  0  0  0  0  0  0  0  0
   -9.9637    5.7339  -13.4457 N   0  0  0  0  0  0  0  0  0  0  0  0
  -10.2644    5.6740  -14.7464 C   0  0  0  0  0  0  0  0  0  0  0  0
   -9.2652    5.6277  -15.7070 C   0  0  0  0  0  0  0  0  0  0  0  0
   -9.1445    5.5956  -17.1380 C   0  0  0  0  0  0  0  0  0  0  0  0
   -7.9600    4.5721  -17.1586 C   0  0  0  0  0  0  0  0  0  0  0  0
   -8.9180    4.6613  -18.1712 C   0  0  0  0  0  0  0  0  0  0  0  0
   -8.4473    5.0971  -19.5099 C   0  0  0  0  0  0  0  0  0  0  0  0
   -7.5289    5.9410  -19.5897 O   0  0  0  0  0  0  0  0  0  0  0  0
   -8.9827    4.6084  -20.6939 O   0  0  0  0  0  0  0  0  0  0  0  0
   -7.0692    5.5388  -16.4304 C   0  0  0  0  0  0  0  0  0  0  0  0
   -7.9708    5.6467  -15.2126 C   0  0  0  0  0  0  0  0  0  0  0  0
   -7.6634    5.7088  -13.8831 C   0  0  0  0  0  0  0  0  0  0  0  0
   -6.6667    7.2024   -6.9721 C   0  0  0  0  0  0  0  0  0  0  0  0
   -7.6224    7.0071   -2.2228 O   0  0  0  0  0  0  0  0  0  0  0  0
   -6.9527    8.1083   -1.7370 C   0  0  0  0  0  0  0  0  0  0  0  0
   -7.1667    8.4609   -0.3087 C   0  0  0  0  0  0  0  0  0  0  0  0
   -6.7284    7.3907    0.6333 C   0  0  0  0  0  0  0  0  0  0  0  0
   -6.6463    7.7817    2.3246 S   0  0  0  0  0  6  0  0  0  0  0  0
   -7.9362    8.4343    2.7826 O   0  0  0  0  0  0  0  0  0  0  0  0
   -5.5301    8.8133    2.5117 O   0  0  0  0  0  0  0  0  0  0  0  0
   -6.3207    6.4391    3.4020 C   0  0  0  0  0  0  0  0  0  0  0  0
  1  2  1  0
  2  3  2  0
  3  4  1  0
  4  5  2  0
  5  6  1  0
  6  7  2  0
  7  8  1  0
  8  9  2  0
  9 10  1  0
 10 11  2  0
 11 12  1  0
 12 13  2  0
 12 14  1  0
 14 15  1  0
 15 16  1  0
 16 17  2  0
 17 18  1  0
 18 19  2  0
 19 20  1  0
 20 21  1  0
 21 22  1  0
 22 23  1  0
 23 24  2  0
 23 25  1  0
 21 26  1  0
 26 27  1  0
 27 28  2  0
  6 29  1  0
  4 30  1  0
 30 31  1  0
 31 32  1  0
 32 33  1  0
 33 34  1  0
 34 35  2  0
 34 36  2  0
 34 37  1  0
  7  2  1  0
 13  8  1  0
 28 16  1  0
 27 19  1  0
 22 20  1  0
M  END
$$$$
