
     RDKit          3D

 37 41  0  0  0  0  0  0  0  0999 V2000
   -8.7607    6.1756  -13.7922 C   0  0  0  0  0  0  0  0  0  0  0  0
  -10.0449    5.6977  -14.3620 C   0  0  0  0  0  0  0  0  0  0  0  0
  -10.4532    6.0909  -15.6379 C   0  0  0  0  0  0  0  0  0  0  0  0
  -11.6342    5.6650  -16.1877 C   0  0  0  0  0  0  0  0  0  0  0  0
  -12.4349    4.8109  -15.4270 C   0  0  0  0  0  0  0  0  0  0  0  0
  -12.0389    4.4230  -14.1774 C   0  0  0  0  0  0  0  0  0  0  0  0
  -10.8603    4.8556  -13.6422 C   0  0  0  0  0  0  0  0  0  0  0  0
  -10.4395    4.4318  -12.2899 C   0  0  0  0  0  0  0  0  0  0  0  0
  -10.0310    3.1386  -12.0449 C   0  0  0  0  0  0  0  0  0  0  0  0
   -9.6423    2.7605  -10.7778 C   0  0  0  0  0  0  0  0  0  0  0  0
   -9.6479    3.6643   -9.7064 C   0  0  0  0  0  0  0  0  0  0  0  0
  -10.0521    4.9483   -9.9476 C   0  0  0  0  0  0  0  0  0  0  0  0
  -10.4442    5.3177  -11.2385 C   0  0  0  0  0  0  0  0  0  0  0  0
  -10.0885    6.0180   -8.9279 C   0  0  0  0  0  0  0  0  0  0  0  0
   -8.8090    6.4137   -8.5913 O   0  0  0  0  0  0  0  0  0  0  0  0
   -8.2988    6.4516   -7.3380 C   0  0  0  0  0  0  0  0  0  0  0  0
   -9.0205    6.2949   -6.2321 N   0  0  0  0  0  0  0  0  0  0  0  0
   -8.5185    6.3316   -4.9941 C   0  0  0  0  0  0  0  0  0  0  0  0
   -7.1647    6.5431   -4.7805 C   0  0  0  0  0  0  0  0  0  0  0  0
   -6.2444    6.6174   -3.6801 C   0  0  0  0  0  0  0  0  0  0  0  0
   -5.4134    7.8065   -4.2688 C   0  0  0  0  0  0  0  0  0  0  0  0
   -5.5877    7.5926   -2.8994 C   0  0  0  0  0  0  0  0  0  0  0  0
   -4.3773    7.2550   -2.1091 C   0  0  0  0  0  0  0  0  0  0  0  0
   -3.4291    6.6621   -2.6671 O   0  0  0  0  0  0  0  0  0  0  0  0
   -4.2433    7.5686   -0.7634 O   0  0  0  0  0  0  0  0  0  0  0  0
   -4.9898    6.9713   -5.4441 C   0  0  0  0  0  0  0  0  0  0  0  0
   -6.4056    6.7091   -5.9280 C   0  0  0  0  0  0  0  0  0  0  0  0
   -6.9185    6.6708   -7.1934 C   0  0  0  0  0  0  0  0  0  0  0  0
  -12.8777    3.5035  -13.3309 C   0  0  0  0  0  0  0  0  0  0  0  0
  -12.0891    6.0066  -17.4077 O   0  0  0  0  0  0  0  0  0  0  0  0
  -13.2631    5.8000  -18.0978 C   0  0  0  0  0  0  0  0  0  0  0  0
  -13.3639    6.3831  -19.4616 C   0  0  0  0  0  0  0  0  0  0  0  0
  -12.0426    6.5278  -20.1384 C   0  0  0  0  0  0  0  0  0  0  0  0
  -11.9737    6.2490  -21.8523 S   0  0  0  0  0  6  0  0  0  0  0  0
  -10.6097    6.6255  -22.3978 O   0  0  0  0  0  0  0  0  0  0  0  0
  -12.9948    7.1762  -22.5177 O   0  0  0  0  0  0  0  0  0  0  0  0
  -12.3182    4.6119  -22.3724 C   0  0  0  0  0  0  0  0  0  0  0  0
  1  2  1  0
  2  3  2  0
  3  4  1  0
  4  5  2  0
  5  6  1  0
  6  7  2  0
  7  8  1  0
  8  9  2  0
  9 10  1  0
 10 11  2  0
 11 12  1  0
 12 13  2  0
 12 14  1  0
 14 15  1  0
 15 16  1  0
 16 17  2  0
 17 18  1  0
 18 19  2  0
 19 20  1  0
 20 21  1  0
 21 22  1  0
 22 23  1  0
 23 24  2  0
 23 25  1  0
 21 26  1  0
 26 27  1  0
 27 28  2  0
  6 29  1  0
  4 30  1  0
 30 31  1  0
 31 32  1  0
 32 33  1  0
 33 34  1  0
 34 35  2  0
 34 36  2  0
 34 37  1  0
  7  2  1  0
 13  8  1  0
 28 16  1  0
 27 19  1  0
 22 20  1  0
M  END
$$$$
