
     RDKit          3D

 37 41  0  0  0  0  0  0  0  0999 V2000
   -9.3603    3.5394   -9.8351 C   0  0  0  0  0  0  0  0  0  0  0  0
   -9.3134    4.4099   -8.6341 C   0  0  0  0  0  0  0  0  0  0  0  0
   -8.3405    4.2222   -7.6506 C   0  0  0  0  0  0  0  0  0  0  0  0
   -8.2748    5.0110   -6.5318 C   0  0  0  0  0  0  0  0  0  0  0  0
   -9.2221    6.0277   -6.3965 C   0  0  0  0  0  0  0  0  0  0  0  0
  -10.1763    6.2154   -7.3572 C   0  0  0  0  0  0  0  0  0  0  0  0
  -10.2301    5.4216   -8.4661 C   0  0  0  0  0  0  0  0  0  0  0  0
  -11.2654    5.6309   -9.5004 C   0  0  0  0  0  0  0  0  0  0  0  0
  -12.5894    5.3419   -9.2499 C   0  0  0  0  0  0  0  0  0  0  0  0
  -13.5417    5.5427  -10.2258 C   0  0  0  0  0  0  0  0  0  0  0  0
  -13.2037    6.0413  -11.4915 C   0  0  0  0  0  0  0  0  0  0  0  0
  -11.8906    6.3295  -11.7419 C   0  0  0  0  0  0  0  0  0  0  0  0
  -10.9351    6.1203  -10.7420 C   0  0  0  0  0  0  0  0  0  0  0  0
  -11.3852    6.8828  -13.0162 C   0  0  0  0  0  0  0  0  0  0  0  0
  -10.8571    5.8810  -13.8067 O   0  0  0  0  0  0  0  0  0  0  0  0
   -9.9349    6.0500  -14.7831 C   0  0  0  0  0  0  0  0  0  0  0  0
   -9.4748    7.2328  -15.1802 N   0  0  0  0  0  0  0  0  0  0  0  0
   -8.5643    7.4014  -16.1437 C   0  0  0  0  0  0  0  0  0  0  0  0
   -8.0245    6.3127  -16.8120 C   0  0  0  0  0  0  0  0  0  0  0  0
   -7.0476    6.0480  -17.8313 C   0  0  0  0  0  0  0  0  0  0  0  0
   -7.8753    4.9194  -18.5329 C   0  0  0  0  0  0  0  0  0  0  0  0
   -6.9936    5.7633  -19.2125 C   0  0  0  0  0  0  0  0  0  0  0  0
   -5.7928    5.1372  -19.8204 C   0  0  0  0  0  0  0  0  0  0  0  0
   -5.9268    4.4096  -20.8277 O   0  0  0  0  0  0  0  0  0  0  0  0
   -4.5109    5.3213  -19.3200 O   0  0  0  0  0  0  0  0  0  0  0  0
   -7.8108    4.0612  -17.3009 C   0  0  0  0  0  0  0  0  0  0  0  0
   -8.5000    5.0763  -16.4053 C   0  0  0  0  0  0  0  0  0  0  0  0
   -9.4301    4.9038  -15.4199 C   0  0  0  0  0  0  0  0  0  0  0  0
  -11.2120    7.3015   -7.2428 C   0  0  0  0  0  0  0  0  0  0  0  0
   -7.3675    4.8836   -5.5455 O   0  0  0  0  0  0  0  0  0  0  0  0
   -7.0465    5.6142   -4.4229 C   0  0  0  0  0  0  0  0  0  0  0  0
   -6.0889    5.0041   -3.4633 C   0  0  0  0  0  0  0  0  0  0  0  0
   -5.1293    4.0620   -4.1087 C   0  0  0  0  0  0  0  0  0  0  0  0
   -3.8850    3.3644   -3.1164 S   0  0  0  0  0  6  0  0  0  0  0  0
   -4.3321    3.3022   -1.6686 O   0  0  0  0  0  0  0  0  0  0  0  0
   -2.6686    4.2930   -3.1711 O   0  0  0  0  0  0  0  0  0  0  0  0
   -3.3544    1.7592   -3.5759 C   0  0  0  0  0  0  0  0  0  0  0  0
  1  2  1  0
  2  3  2  0
  3  4  1  0
  4  5  2  0
  5  6  1  0
  6  7  2  0
  7  8  1  0
  8  9  2  0
  9 10  1  0
 10 11  2  0
 11 12  1  0
 12 13  2  0
 12 14  1  0
 14 15  1  0
 15 16  1  0
 16 17  2  0
 17 18  1  0
 18 19  2  0
 19 20  1  0
 20 21  1  0
 21 22  1  0
 22 23  1  0
 23 24  2  0
 23 25  1  0
 21 26  1  0
 26 27  1  0
 27 28  2  0
  6 29  1  0
  4 30  1  0
 30 31  1  0
 31 32  1  0
 32 33  1  0
 33 34  1  0
 34 35  2  0
 34 36  2  0
 34 37  1  0
  7  2  1  0
 13  8  1  0
 28 16  1  0
 27 19  1  0
 22 20  1  0
M  END
$$$$
