
     RDKit          3D

 37 41  0  0  0  0  0  0  0  0999 V2000
  -11.7439    7.3391   -7.1077 C   0  0  0  0  0  0  0  0  0  0  0  0
  -12.2672    6.1162   -7.7658 C   0  0  0  0  0  0  0  0  0  0  0  0
  -13.5999    5.7316   -7.6075 C   0  0  0  0  0  0  0  0  0  0  0  0
  -14.1086    4.6071   -8.2032 C   0  0  0  0  0  0  0  0  0  0  0  0
  -13.2457    3.8403   -8.9886 C   0  0  0  0  0  0  0  0  0  0  0  0
  -11.9401    4.2132   -9.1466 C   0  0  0  0  0  0  0  0  0  0  0  0
  -11.4469    5.3356   -8.5467 C   0  0  0  0  0  0  0  0  0  0  0  0
  -10.0336    5.7318   -8.7224 C   0  0  0  0  0  0  0  0  0  0  0  0
   -9.0983    5.4839   -7.7410 C   0  0  0  0  0  0  0  0  0  0  0  0
   -7.7848    5.8605   -7.9212 C   0  0  0  0  0  0  0  0  0  0  0  0
   -7.3574    6.5006   -9.0927 C   0  0  0  0  0  0  0  0  0  0  0  0
   -8.2837    6.7469  -10.0681 C   0  0  0  0  0  0  0  0  0  0  0  0
   -9.6132    6.3594   -9.8712 C   0  0  0  0  0  0  0  0  0  0  0  0
   -7.9809    7.3897  -11.3644 C   0  0  0  0  0  0  0  0  0  0  0  0
   -7.3621    6.4974  -12.2177 O   0  0  0  0  0  0  0  0  0  0  0  0
   -7.3179    6.5973  -13.5670 C   0  0  0  0  0  0  0  0  0  0  0  0
   -7.9406    7.5406  -14.2676 N   0  0  0  0  0  0  0  0  0  0  0  0
   -7.8977    7.6409  -15.5995 C   0  0  0  0  0  0  0  0  0  0  0  0
   -7.1746    6.7336  -16.3592 C   0  0  0  0  0  0  0  0  0  0  0  0
   -6.8442    6.5016  -17.7377 C   0  0  0  0  0  0  0  0  0  0  0  0
   -6.9849    4.9444  -17.6582 C   0  0  0  0  0  0  0  0  0  0  0  0
   -7.2540    5.6838  -18.8124 C   0  0  0  0  0  0  0  0  0  0  0  0
   -6.3699    5.4549  -19.9826 C   0  0  0  0  0  0  0  0  0  0  0  0
   -5.1434    5.2984  -19.8004 O   0  0  0  0  0  0  0  0  0  0  0  0
   -6.8426    5.4052  -21.2870 O   0  0  0  0  0  0  0  0  0  0  0  0
   -5.8538    4.8599  -16.6725 C   0  0  0  0  0  0  0  0  0  0  0  0
   -6.5240    5.7461  -15.6367 C   0  0  0  0  0  0  0  0  0  0  0  0
   -6.5671    5.6440  -14.2753 C   0  0  0  0  0  0  0  0  0  0  0  0
  -10.9833    3.4098   -9.9860 C   0  0  0  0  0  0  0  0  0  0  0  0
  -15.3794    4.1775   -8.0907 O   0  0  0  0  0  0  0  0  0  0  0  0
  -16.0860    3.1011   -8.5796 C   0  0  0  0  0  0  0  0  0  0  0  0
  -17.3539    2.7472   -7.8886 C   0  0  0  0  0  0  0  0  0  0  0  0
  -17.1493    1.8819   -6.6910 C   0  0  0  0  0  0  0  0  0  0  0  0
  -18.4007    0.7457   -6.2872 S   0  0  0  0  0  6  0  0  0  0  0  0
  -19.5104    1.4301   -5.5127 O   0  0  0  0  0  0  0  0  0  0  0  0
  -17.7915   -0.3102   -5.3604 O   0  0  0  0  0  0  0  0  0  0  0  0
  -19.1368   -0.0897   -7.6399 C   0  0  0  0  0  0  0  0  0  0  0  0
  1  2  1  0
  2  3  2  0
  3  4  1  0
  4  5  2  0
  5  6  1  0
  6  7  2  0
  7  8  1  0
  8  9  2  0
  9 10  1  0
 10 11  2  0
 11 12  1  0
 12 13  2  0
 12 14  1  0
 14 15  1  0
 15 16  1  0
 16 17  2  0
 17 18  1  0
 18 19  2  0
 19 20  1  0
 20 21  1  0
 21 22  1  0
 22 23  1  0
 23 24  2  0
 23 25  1  0
 21 26  1  0
 26 27  1  0
 27 28  2  0
  6 29  1  0
  4 30  1  0
 30 31  1  0
 31 32  1  0
 32 33  1  0
 33 34  1  0
 34 35  2  0
 34 36  2  0
 34 37  1  0
  7  2  1  0
 13  8  1  0
 28 16  1  0
 27 19  1  0
 22 20  1  0
M  END
$$$$
