
     RDKit          3D

 37 41  0  0  0  0  0  0  0  0999 V2000
   -7.5178    6.0101   -5.8945 C   0  0  0  0  0  0  0  0  0  0  0  0
   -8.8472    6.6362   -5.6870 C   0  0  0  0  0  0  0  0  0  0  0  0
   -9.3817    6.7749   -4.4048 C   0  0  0  0  0  0  0  0  0  0  0  0
  -10.6069    7.3484   -4.1850 C   0  0  0  0  0  0  0  0  0  0  0  0
  -11.3217    7.8008   -5.2958 C   0  0  0  0  0  0  0  0  0  0  0  0
  -10.8021    7.6674   -6.5531 C   0  0  0  0  0  0  0  0  0  0  0  0
   -9.5807    7.0934   -6.7571 C   0  0  0  0  0  0  0  0  0  0  0  0
   -9.0259    6.9526   -8.1201 C   0  0  0  0  0  0  0  0  0  0  0  0
   -8.2758    7.9584   -8.6900 C   0  0  0  0  0  0  0  0  0  0  0  0
   -7.7665    7.8105   -9.9621 C   0  0  0  0  0  0  0  0  0  0  0  0
   -7.9894    6.6480  -10.7129 C   0  0  0  0  0  0  0  0  0  0  0  0
   -8.7329    5.6484  -10.1490 C   0  0  0  0  0  0  0  0  0  0  0  0
   -9.2436    5.8126   -8.8572 C   0  0  0  0  0  0  0  0  0  0  0  0
   -9.0318    4.3579  -10.8052 C   0  0  0  0  0  0  0  0  0  0  0  0
   -9.6436    4.5626  -12.0263 O   0  0  0  0  0  0  0  0  0  0  0  0
   -9.0111    4.6597  -13.2192 C   0  0  0  0  0  0  0  0  0  0  0  0
   -7.7568    5.0754  -13.3686 N   0  0  0  0  0  0  0  0  0  0  0  0
   -7.1308    5.1716  -14.5454 C   0  0  0  0  0  0  0  0  0  0  0  0
   -7.7754    4.8309  -15.7250 C   0  0  0  0  0  0  0  0  0  0  0  0
   -7.4852    4.7519  -17.1296 C   0  0  0  0  0  0  0  0  0  0  0  0
   -8.8718    5.3116  -17.5937 C   0  0  0  0  0  0  0  0  0  0  0  0
   -7.6861    5.5039  -18.3069 C   0  0  0  0  0  0  0  0  0  0  0  0
   -7.5933    4.8711  -19.6464 C   0  0  0  0  0  0  0  0  0  0  0  0
   -8.1048    3.7451  -19.8269 O   0  0  0  0  0  0  0  0  0  0  0  0
   -6.9587    5.4746  -20.7236 O   0  0  0  0  0  0  0  0  0  0  0  0
   -9.5856    4.1362  -16.9878 C   0  0  0  0  0  0  0  0  0  0  0  0
   -9.0837    4.3982  -15.5782 C   0  0  0  0  0  0  0  0  0  0  0  0
   -9.7234    4.2992  -14.3753 C   0  0  0  0  0  0  0  0  0  0  0  0
  -11.5458    8.1440   -7.7718 C   0  0  0  0  0  0  0  0  0  0  0  0
  -11.1819    7.5105   -2.9787 O   0  0  0  0  0  0  0  0  0  0  0  0
  -12.4018    7.9762   -2.5407 C   0  0  0  0  0  0  0  0  0  0  0  0
  -12.5966    8.1009   -1.0721 C   0  0  0  0  0  0  0  0  0  0  0  0
  -12.0501    9.3708   -0.5121 C   0  0  0  0  0  0  0  0  0  0  0  0
  -13.0823   10.3130    0.5207 S   0  0  0  0  0  6  0  0  0  0  0  0
  -14.1651   10.9973   -0.2912 O   0  0  0  0  0  0  0  0  0  0  0  0
  -12.2292   11.4170    1.1520 O   0  0  0  0  0  0  0  0  0  0  0  0
  -13.8680    9.4357    1.8178 C   0  0  0  0  0  0  0  0  0  0  0  0
  1  2  1  0
  2  3  2  0
  3  4  1  0
  4  5  2  0
  5  6  1  0
  6  7  2  0
  7  8  1  0
  8  9  2  0
  9 10  1  0
 10 11  2  0
 11 12  1  0
 12 13  2  0
 12 14  1  0
 14 15  1  0
 15 16  1  0
 16 17  2  0
 17 18  1  0
 18 19  2  0
 19 20  1  0
 20 21  1  0
 21 22  1  0
 22 23  1  0
 23 24  2  0
 23 25  1  0
 21 26  1  0
 26 27  1  0
 27 28  2  0
  6 29  1  0
  4 30  1  0
 30 31  1  0
 31 32  1  0
 32 33  1  0
 33 34  1  0
 34 35  2  0
 34 36  2  0
 34 37  1  0
  7  2  1  0
 13  8  1  0
 28 16  1  0
 27 19  1  0
 22 20  1  0
M  END
$$$$
