
     RDKit          3D

 37 41  0  0  0  0  0  0  0  0999 V2000
    2.2339    9.9984   10.0519 C   0  0  0  0  0  0  0  0  0  0  0  0
    1.5719    9.2338    8.9658 C   0  0  0  0  0  0  0  0  0  0  0  0
    0.9425    8.0155    9.2278 C   0  0  0  0  0  0  0  0  0  0  0  0
    0.3245    7.2889    8.2438 C   0  0  0  0  0  0  0  0  0  0  0  0
    0.3386    7.8067    6.9472 C   0  0  0  0  0  0  0  0  0  0  0  0
    0.9534    8.9993    6.6860 C   0  0  0  0  0  0  0  0  0  0  0  0
    1.5656    9.7120    7.6760 C   0  0  0  0  0  0  0  0  0  0  0  0
    2.2286   11.0009    7.3852 C   0  0  0  0  0  0  0  0  0  0  0  0
    3.4013   11.0503    6.6629 C   0  0  0  0  0  0  0  0  0  0  0  0
    4.0062   12.2607    6.4013 C   0  0  0  0  0  0  0  0  0  0  0  0
    3.4591   13.4694    6.8537 C   0  0  0  0  0  0  0  0  0  0  0  0
    2.2951   13.4226    7.5699 C   0  0  0  0  0  0  0  0  0  0  0  0
    1.6926   12.1869    7.8282 C   0  0  0  0  0  0  0  0  0  0  0  0
    1.5869   14.6108    8.0913 C   0  0  0  0  0  0  0  0  0  0  0  0
    1.8860   14.8100    9.4247 O   0  0  0  0  0  0  0  0  0  0  0  0
    1.4170   15.8183   10.1965 C   0  0  0  0  0  0  0  0  0  0  0  0
    0.7372   16.8621    9.7308 N   0  0  0  0  0  0  0  0  0  0  0  0
    0.2732   17.8582   10.4913 C   0  0  0  0  0  0  0  0  0  0  0  0
    0.4803   17.8635   11.8625 C   0  0  0  0  0  0  0  0  0  0  0  0
    0.1438   18.6711   13.0017 C   0  0  0  0  0  0  0  0  0  0  0  0
    1.5340   18.5131   13.7044 C   0  0  0  0  0  0  0  0  0  0  0  0
    0.7330   19.6507   13.8294 C   0  0  0  0  0  0  0  0  0  0  0  0
    0.1853   19.9465   15.1770 C   0  0  0  0  0  0  0  0  0  0  0  0
    0.2232   19.0623   16.0594 O   0  0  0  0  0  0  0  0  0  0  0  0
   -0.3743   21.1722   15.5116 O   0  0  0  0  0  0  0  0  0  0  0  0
    1.3298   17.0312   13.8472 C   0  0  0  0  0  0  0  0  0  0  0  0
    1.1896   16.7799   12.3557 C   0  0  0  0  0  0  0  0  0  0  0  0
    1.6632   15.7613   11.5786 C   0  0  0  0  0  0  0  0  0  0  0  0
    0.9872    9.5859    5.3002 C   0  0  0  0  0  0  0  0  0  0  0  0
   -0.2970    6.1088    8.4256 O   0  0  0  0  0  0  0  0  0  0  0  0
   -0.6266    5.3455    9.5237 C   0  0  0  0  0  0  0  0  0  0  0  0
   -1.3171    4.0530    9.2730 C   0  0  0  0  0  0  0  0  0  0  0  0
   -2.7706    4.2103    8.9776 C   0  0  0  0  0  0  0  0  0  0  0  0
   -3.8413    2.9318    9.4662 S   0  0  0  0  0  6  0  0  0  0  0  0
   -4.6040    3.3257   10.7164 O   0  0  0  0  0  0  0  0  0  0  0  0
   -2.9827    1.7165    9.8284 O   0  0  0  0  0  0  0  0  0  0  0  0
   -5.0144    2.4211    8.2694 C   0  0  0  0  0  0  0  0  0  0  0  0
  1  2  1  0
  2  3  2  0
  3  4  1  0
  4  5  2  0
  5  6  1  0
  6  7  2  0
  7  8  1  0
  8  9  2  0
  9 10  1  0
 10 11  2  0
 11 12  1  0
 12 13  2  0
 12 14  1  0
 14 15  1  0
 15 16  1  0
 16 17  2  0
 17 18  1  0
 18 19  2  0
 19 20  1  0
 20 21  1  0
 21 22  1  0
 22 23  1  0
 23 24  2  0
 23 25  1  0
 21 26  1  0
 26 27  1  0
 27 28  2  0
  6 29  1  0
  4 30  1  0
 30 31  1  0
 31 32  1  0
 32 33  1  0
 33 34  1  0
 34 35  2  0
 34 36  2  0
 34 37  1  0
  7  2  1  0
 13  8  1  0
 28 16  1  0
 27 19  1  0
 22 20  1  0
M  END
$$$$
