
     RDKit          3D

 41 44  0  0  0  0  0  0  0  0999 V2000
   -5.2758   -3.8983    8.8161 C   0  0  0  0  0  0  0  0  0  0  0  0
   -5.3212   -5.1597    9.5501 C   0  0  0  0  0  0  0  0  0  0  0  0
   -5.1191   -5.2032   10.8960 C   0  0  0  0  0  0  0  0  0  0  0  0
   -5.1341   -6.4597   11.5268 C   0  0  0  0  0  0  0  0  0  0  0  0
   -5.3449   -7.6265   10.8369 C   0  0  0  0  0  0  0  0  0  0  0  0
   -5.5485   -7.5658    9.4815 C   0  0  0  0  0  0  0  0  0  0  0  0
   -5.5368   -6.3457    8.8448 C   0  0  0  0  0  0  0  0  0  0  0  0
   -5.3551   -8.8134   11.4595 F   0  0  0  0  0  0  0  0  0  0  0  0
   -4.9354   -4.0082   11.6946 C   0  0  0  0  0  0  0  0  0  0  0  0
   -4.1450   -2.9174   11.1255 C   0  0  0  0  0  0  0  0  0  0  0  0
   -4.0397   -1.5635   11.6623 C   0  0  0  0  0  0  0  0  0  0  0  0
   -2.7443   -1.1611   12.3021 C   0  0  0  0  0  0  0  0  0  0  0  0
   -2.8173    0.0864   12.8728 O   0  0  0  0  0  0  0  0  0  0  0  0
   -1.9110    0.9331   13.3999 C   0  0  0  0  0  0  0  0  0  0  0  0
   -0.6872    0.3885   13.8629 C   0  0  0  0  0  0  0  0  0  0  0  0
    0.2766    1.1935   14.4127 C   0  0  0  0  0  0  0  0  0  0  0  0
    0.0986    2.5532   14.5372 C   0  0  0  0  0  0  0  0  0  0  0  0
   -1.0977    3.0830   14.0847 C   0  0  0  0  0  0  0  0  0  0  0  0
   -2.1014    2.2867   13.5192 C   0  0  0  0  0  0  0  0  0  0  0  0
    1.1021    3.4304   15.1184 C   0  0  0  0  0  0  0  0  0  0  0  0
    0.8785    4.6556   15.1755 O   0  0  0  0  0  0  0  0  0  0  0  0
    2.3261    2.9416   15.6229 N   0  0  0  0  0  0  0  0  0  0  0  0
    3.2836    3.8047   16.2508 C   0  0  0  0  0  0  0  0  0  0  0  0
    4.0132    3.2601   17.2846 C   0  0  0  0  0  0  0  0  0  0  0  0
    4.9455    4.0739   17.9093 C   0  0  0  0  0  0  0  0  0  0  0  0
    5.1525    5.3681   17.5348 C   0  0  0  0  0  0  0  0  0  0  0  0
    4.3955    5.8954   16.4796 C   0  0  0  0  0  0  0  0  0  0  0  0
    3.4674    5.0997   15.8508 C   0  0  0  0  0  0  0  0  0  0  0  0
    5.7140    3.5010   18.9897 N   0  0  0  0  0  0  0  0  0  0  0  0
    5.1030    2.3385   19.5979 C   0  0  0  0  0  0  0  0  0  0  0  0
    4.7985    1.3288   18.5071 C   0  0  0  0  0  0  0  0  0  0  0  0
    3.8151    1.9557   17.6733 O   0  0  0  0  0  0  0  0  0  0  0  0
    4.2122    0.1145   19.0796 C   0  0  0  0  0  0  0  0  0  0  0  0
    4.1450   -0.9673   18.4432 O   0  0  0  0  0  0  0  0  0  0  0  0
    3.7098    0.1443   20.3671 O   0  0  0  0  0  0  0  0  0  0  0  0
    6.9754    4.0428   19.3998 C   0  0  0  0  0  0  0  0  0  0  0  0
    6.9161    5.0751   20.4611 C   0  0  0  0  0  0  0  0  0  0  0  0
    7.3511    4.7257   21.8283 C   0  0  0  0  0  0  0  0  0  0  0  0
    7.2154    5.7778   22.8463 C   0  0  0  0  0  0  0  0  0  0  0  0
    7.4185    6.9631   22.5824 O   0  0  0  0  0  0  0  0  0  0  0  0
    6.8479    5.4723   24.1645 O   0  0  0  0  0  0  0  0  0  0  0  0
  1  2  1  0
  2  3  2  0
  3  4  1  0
  4  5  2  0
  5  6  1  0
  6  7  2  0
  5  8  1  0
  3  9  1  0
  9 10  1  0
 10 11  1  0
 11 12  1  0
 12 13  1  0
 13 14  1  0
 14 15  2  0
 15 16  1  0
 16 17  2  0
 17 18  1  0
 18 19  2  0
 17 20  1  0
 20 21  2  0
 20 22  1  0
 22 23  1  0
 23 24  2  0
 24 25  1  0
 25 26  2  0
 26 27  1  0
 27 28  2  0
 25 29  1  0
 29 30  1  0
 30 31  1  0
 31 32  1  0
 31 33  1  0
 33 34  2  0
 33 35  1  0
 29 36  1  0
 36 37  1  0
 37 38  1  0
 38 39  1  0
 39 40  2  0
 39 41  1  0
  7  2  1  0
 19 14  1  0
 28 23  1  0
 32 24  1  0
M  END
$$$$
