
     RDKit          3D

 41 44  0  0  0  0  0  0  0  0999 V2000
   -5.0546   -6.1638   11.1781 C   0  0  0  0  0  0  0  0  0  0  0  0
   -5.2373   -5.6982    9.8063 C   0  0  0  0  0  0  0  0  0  0  0  0
   -5.5185   -4.3942    9.5329 C   0  0  0  0  0  0  0  0  0  0  0  0
   -5.7247   -4.0293    8.1908 C   0  0  0  0  0  0  0  0  0  0  0  0
   -5.6505   -4.9347    7.1628 C   0  0  0  0  0  0  0  0  0  0  0  0
   -5.3648   -6.2445    7.4545 C   0  0  0  0  0  0  0  0  0  0  0  0
   -5.1603   -6.6224    8.7620 C   0  0  0  0  0  0  0  0  0  0  0  0
   -5.8507   -4.5640    5.8905 F   0  0  0  0  0  0  0  0  0  0  0  0
   -5.5677   -3.3761   10.5627 C   0  0  0  0  0  0  0  0  0  0  0  0
   -4.5635   -2.3137   10.5257 C   0  0  0  0  0  0  0  0  0  0  0  0
   -4.2324   -1.4076   11.6219 C   0  0  0  0  0  0  0  0  0  0  0  0
   -3.3791   -1.9364   12.7361 C   0  0  0  0  0  0  0  0  0  0  0  0
   -2.5296   -0.9782   13.2337 O   0  0  0  0  0  0  0  0  0  0  0  0
   -1.4981   -0.9958   14.1007 C   0  0  0  0  0  0  0  0  0  0  0  0
   -0.8973    0.2422   14.4399 C   0  0  0  0  0  0  0  0  0  0  0  0
    0.1580    0.2949   15.3134 C   0  0  0  0  0  0  0  0  0  0  0  0
    0.6744   -0.8422   15.8933 C   0  0  0  0  0  0  0  0  0  0  0  0
    0.0862   -2.0504   15.5603 C   0  0  0  0  0  0  0  0  0  0  0  0
   -0.9921   -2.1367   14.6710 C   0  0  0  0  0  0  0  0  0  0  0  0
    1.7941   -0.8162   16.8207 C   0  0  0  0  0  0  0  0  0  0  0  0
    2.2314   -1.8915   17.2755 O   0  0  0  0  0  0  0  0  0  0  0  0
    2.4065    0.3889   17.2258 N   0  0  0  0  0  0  0  0  0  0  0  0
    3.5206    0.4047   18.1283 C   0  0  0  0  0  0  0  0  0  0  0  0
    3.9680    1.6450   18.5269 C   0  0  0  0  0  0  0  0  0  0  0  0
    5.0447    1.6881   19.3990 C   0  0  0  0  0  0  0  0  0  0  0  0
    5.6565    0.5607   19.8603 C   0  0  0  0  0  0  0  0  0  0  0  0
    5.1795   -0.6877   19.4377 C   0  0  0  0  0  0  0  0  0  0  0  0
    4.1123   -0.7456   18.5730 C   0  0  0  0  0  0  0  0  0  0  0  0
    5.5104    2.9887   19.8207 N   0  0  0  0  0  0  0  0  0  0  0  0
    5.1293    4.0684   18.9355 C   0  0  0  0  0  0  0  0  0  0  0  0
    3.6244    4.0272   18.7464 C   0  0  0  0  0  0  0  0  0  0  0  0
    3.3606    2.7912   18.0696 O   0  0  0  0  0  0  0  0  0  0  0  0
    3.1840    5.1280   17.8858 C   0  0  0  0  0  0  0  0  0  0  0  0
    2.5489    6.1181   18.3286 O   0  0  0  0  0  0  0  0  0  0  0  0
    3.4704    5.0901   16.5341 O   0  0  0  0  0  0  0  0  0  0  0  0
    6.2704    3.1747   21.0210 C   0  0  0  0  0  0  0  0  0  0  0  0
    7.6698    3.6234   20.8316 C   0  0  0  0  0  0  0  0  0  0  0  0
    7.9342    5.0456   20.5350 C   0  0  0  0  0  0  0  0  0  0  0  0
    9.3455    5.4575   20.5147 C   0  0  0  0  0  0  0  0  0  0  0  0
   10.2602    4.6342   20.5518 O   0  0  0  0  0  0  0  0  0  0  0  0
    9.7082    6.8106   20.4522 O   0  0  0  0  0  0  0  0  0  0  0  0
  1  2  1  0
  2  3  2  0
  3  4  1  0
  4  5  2  0
  5  6  1  0
  6  7  2  0
  5  8  1  0
  3  9  1  0
  9 10  1  0
 10 11  1  0
 11 12  1  0
 12 13  1  0
 13 14  1  0
 14 15  2  0
 15 16  1  0
 16 17  2  0
 17 18  1  0
 18 19  2  0
 17 20  1  0
 20 21  2  0
 20 22  1  0
 22 23  1  0
 23 24  2  0
 24 25  1  0
 25 26  2  0
 26 27  1  0
 27 28  2  0
 25 29  1  0
 29 30  1  0
 30 31  1  0
 31 32  1  0
 31 33  1  0
 33 34  2  0
 33 35  1  0
 29 36  1  0
 36 37  1  0
 37 38  1  0
 38 39  1  0
 39 40  2  0
 39 41  1  0
  7  2  1  0
 19 14  1  0
 28 23  1  0
 32 24  1  0
M  END
$$$$
