
     RDKit          3D

 41 44  0  0  0  0  0  0  0  0999 V2000
    3.8701    8.0719   13.8570 C   0  0  0  0  0  0  0  0  0  0  0  0
    4.8083    8.2247   14.9654 C   0  0  0  0  0  0  0  0  0  0  0  0
    5.1902    7.1587   15.7216 C   0  0  0  0  0  0  0  0  0  0  0  0
    6.0625    7.3910   16.7996 C   0  0  0  0  0  0  0  0  0  0  0  0
    6.5349    8.6417   17.1071 C   0  0  0  0  0  0  0  0  0  0  0  0
    6.1419    9.7053   16.3346 C   0  0  0  0  0  0  0  0  0  0  0  0
    5.2878    9.4993   15.2752 C   0  0  0  0  0  0  0  0  0  0  0  0
    7.3659    8.8395   18.1397 F   0  0  0  0  0  0  0  0  0  0  0  0
    4.7671    5.8044   15.4278 C   0  0  0  0  0  0  0  0  0  0  0  0
    3.5506    5.3106   16.0719 C   0  0  0  0  0  0  0  0  0  0  0  0
    3.0372    3.9454   16.0033 C   0  0  0  0  0  0  0  0  0  0  0  0
    1.7027    3.6653   16.6280 C   0  0  0  0  0  0  0  0  0  0  0  0
    0.6662    3.9102   15.7602 O   0  0  0  0  0  0  0  0  0  0  0  0
   -0.3038    3.1489   15.2166 C   0  0  0  0  0  0  0  0  0  0  0  0
   -0.3678    1.7857   15.5987 C   0  0  0  0  0  0  0  0  0  0  0  0
   -1.3279    0.9553   15.0810 C   0  0  0  0  0  0  0  0  0  0  0  0
   -2.2627    1.4062   14.1761 C   0  0  0  0  0  0  0  0  0  0  0  0
   -2.1981    2.7381   13.8039 C   0  0  0  0  0  0  0  0  0  0  0  0
   -1.2291    3.6106   14.3145 C   0  0  0  0  0  0  0  0  0  0  0  0
   -3.2902    0.5476   13.6091 C   0  0  0  0  0  0  0  0  0  0  0  0
   -4.0899    1.0235   12.7795 O   0  0  0  0  0  0  0  0  0  0  0  0
   -3.4144   -0.8121   13.9659 N   0  0  0  0  0  0  0  0  0  0  0  0
   -3.6249   -1.8353   12.9837 C   0  0  0  0  0  0  0  0  0  0  0  0
   -2.9874   -3.0363   13.2046 C   0  0  0  0  0  0  0  0  0  0  0  0
   -3.1739   -4.0423   12.2692 C   0  0  0  0  0  0  0  0  0  0  0  0
   -3.9533   -3.8760   11.1634 C   0  0  0  0  0  0  0  0  0  0  0  0
   -4.5898   -2.6431   10.9647 C   0  0  0  0  0  0  0  0  0  0  0  0
   -4.4139   -1.6364   11.8843 C   0  0  0  0  0  0  0  0  0  0  0  0
   -2.5095   -5.3032   12.5037 N   0  0  0  0  0  0  0  0  0  0  0  0
   -1.3749   -5.2159   13.3980 C   0  0  0  0  0  0  0  0  0  0  0  0
   -1.8270   -4.5530   14.6858 C   0  0  0  0  0  0  0  0  0  0  0  0
   -2.1978   -3.2185   14.3159 O   0  0  0  0  0  0  0  0  0  0  0  0
   -0.7191   -4.4765   15.6412 C   0  0  0  0  0  0  0  0  0  0  0  0
   -0.3484   -3.3930   16.1592 O   0  0  0  0  0  0  0  0  0  0  0  0
   -0.0467   -5.6310   15.9957 O   0  0  0  0  0  0  0  0  0  0  0  0
   -2.9581   -6.5250   11.9048 C   0  0  0  0  0  0  0  0  0  0  0  0
   -2.7619   -6.6316   10.4399 C   0  0  0  0  0  0  0  0  0  0  0  0
   -1.4050   -6.8795    9.9130 C   0  0  0  0  0  0  0  0  0  0  0  0
   -1.2485   -6.8113    8.4526 C   0  0  0  0  0  0  0  0  0  0  0  0
   -1.9089   -7.5248    7.6973 O   0  0  0  0  0  0  0  0  0  0  0  0
   -0.3365   -5.9271    7.8587 O   0  0  0  0  0  0  0  0  0  0  0  0
  1  2  1  0
  2  3  2  0
  3  4  1  0
  4  5  2  0
  5  6  1  0
  6  7  2  0
  5  8  1  0
  3  9  1  0
  9 10  1  0
 10 11  1  0
 11 12  1  0
 12 13  1  0
 13 14  1  0
 14 15  2  0
 15 16  1  0
 16 17  2  0
 17 18  1  0
 18 19  2  0
 17 20  1  0
 20 21  2  0
 20 22  1  0
 22 23  1  0
 23 24  2  0
 24 25  1  0
 25 26  2  0
 26 27  1  0
 27 28  2  0
 25 29  1  0
 29 30  1  0
 30 31  1  0
 31 32  1  0
 31 33  1  0
 33 34  2  0
 33 35  1  0
 29 36  1  0
 36 37  1  0
 37 38  1  0
 38 39  1  0
 39 40  2  0
 39 41  1  0
  7  2  1  0
 19 14  1  0
 28 23  1  0
 32 24  1  0
M  END
$$$$
