
     RDKit          3D

 41 44  0  0  0  0  0  0  0  0999 V2000
   -7.2555   -6.1565   14.1128 C   0  0  0  0  0  0  0  0  0  0  0  0
   -5.9403   -6.0901   14.7436 C   0  0  0  0  0  0  0  0  0  0  0  0
   -4.8898   -5.4808   14.1275 C   0  0  0  0  0  0  0  0  0  0  0  0
   -3.6430   -5.4953   14.7773 C   0  0  0  0  0  0  0  0  0  0  0  0
   -3.4562   -6.0949   15.9969 C   0  0  0  0  0  0  0  0  0  0  0  0
   -4.5249   -6.7033   16.6053 C   0  0  0  0  0  0  0  0  0  0  0  0
   -5.7537   -6.7010   15.9855 C   0  0  0  0  0  0  0  0  0  0  0  0
   -2.2582   -6.0962   16.5978 F   0  0  0  0  0  0  0  0  0  0  0  0
   -5.0244   -4.7892   12.8614 C   0  0  0  0  0  0  0  0  0  0  0  0
   -3.8025   -4.4253   12.1451 C   0  0  0  0  0  0  0  0  0  0  0  0
   -3.7332   -3.8405   10.8089 C   0  0  0  0  0  0  0  0  0  0  0  0
   -2.3964   -3.3714   10.3167 C   0  0  0  0  0  0  0  0  0  0  0  0
   -1.8272   -2.4545   11.1670 O   0  0  0  0  0  0  0  0  0  0  0  0
   -1.0842   -1.3442   10.9905 C   0  0  0  0  0  0  0  0  0  0  0  0
   -0.7799   -0.5628   12.1331 C   0  0  0  0  0  0  0  0  0  0  0  0
   -0.0311    0.5802   12.0233 C   0  0  0  0  0  0  0  0  0  0  0  0
    0.4531    1.0139   10.8094 C   0  0  0  0  0  0  0  0  0  0  0  0
    0.1542    0.2494    9.6946 C   0  0  0  0  0  0  0  0  0  0  0  0
   -0.6086   -0.9223    9.7745 C   0  0  0  0  0  0  0  0  0  0  0  0
    1.2473    2.2231   10.6632 C   0  0  0  0  0  0  0  0  0  0  0  0
    1.5201    2.8971   11.6760 O   0  0  0  0  0  0  0  0  0  0  0  0
    1.7229    2.6628    9.4094 N   0  0  0  0  0  0  0  0  0  0  0  0
    2.3470    3.9431    9.2441 C   0  0  0  0  0  0  0  0  0  0  0  0
    2.7646    4.2607    7.9705 C   0  0  0  0  0  0  0  0  0  0  0  0
    3.3720    5.4927    7.7837 C   0  0  0  0  0  0  0  0  0  0  0  0
    3.5614    6.3758    8.8047 C   0  0  0  0  0  0  0  0  0  0  0  0
    3.1261    6.0256   10.0902 C   0  0  0  0  0  0  0  0  0  0  0  0
    2.5220    4.8069   10.2901 C   0  0  0  0  0  0  0  0  0  0  0  0
    3.8051    5.8276    6.4472 N   0  0  0  0  0  0  0  0  0  0  0  0
    3.9925    4.6822    5.5824 C   0  0  0  0  0  0  0  0  0  0  0  0
    2.7163    3.8616    5.5873 C   0  0  0  0  0  0  0  0  0  0  0  0
    2.5802    3.3796    6.9305 O   0  0  0  0  0  0  0  0  0  0  0  0
    2.8434    2.7080    4.6933 C   0  0  0  0  0  0  0  0  0  0  0  0
    2.4217    1.5651    5.0024 O   0  0  0  0  0  0  0  0  0  0  0  0
    3.4476    2.8673    3.4603 O   0  0  0  0  0  0  0  0  0  0  0  0
    4.0125    7.1823    6.0292 C   0  0  0  0  0  0  0  0  0  0  0  0
    5.3316    7.4709    5.4189 C   0  0  0  0  0  0  0  0  0  0  0  0
    5.5014    8.7044    4.6252 C   0  0  0  0  0  0  0  0  0  0  0  0
    6.8028    8.8826    3.9646 C   0  0  0  0  0  0  0  0  0  0  0  0
    7.6675    8.0066    3.9924 O   0  0  0  0  0  0  0  0  0  0  0  0
    7.1130   10.0625    3.2735 O   0  0  0  0  0  0  0  0  0  0  0  0
  1  2  1  0
  2  3  2  0
  3  4  1  0
  4  5  2  0
  5  6  1  0
  6  7  2  0
  5  8  1  0
  3  9  1  0
  9 10  1  0
 10 11  1  0
 11 12  1  0
 12 13  1  0
 13 14  1  0
 14 15  2  0
 15 16  1  0
 16 17  2  0
 17 18  1  0
 18 19  2  0
 17 20  1  0
 20 21  2  0
 20 22  1  0
 22 23  1  0
 23 24  2  0
 24 25  1  0
 25 26  2  0
 26 27  1  0
 27 28  2  0
 25 29  1  0
 29 30  1  0
 30 31  1  0
 31 32  1  0
 31 33  1  0
 33 34  2  0
 33 35  1  0
 29 36  1  0
 36 37  1  0
 37 38  1  0
 38 39  1  0
 39 40  2  0
 39 41  1  0
  7  2  1  0
 19 14  1  0
 28 23  1  0
 32 24  1  0
M  END
$$$$
