
     RDKit          3D

 41 44  0  0  0  0  0  0  0  0999 V2000
    1.0783   10.7783   12.0124 C   0  0  0  0  0  0  0  0  0  0  0  0
    2.0456    9.9183   11.3364 C   0  0  0  0  0  0  0  0  0  0  0  0
    1.7350    8.6381   10.9918 C   0  0  0  0  0  0  0  0  0  0  0  0
    2.7327    7.8563   10.3832 C   0  0  0  0  0  0  0  0  0  0  0  0
    3.9915    8.3386   10.1283 C   0  0  0  0  0  0  0  0  0  0  0  0
    4.2883    9.6310   10.4802 C   0  0  0  0  0  0  0  0  0  0  0  0
    3.3259   10.4126   11.0778 C   0  0  0  0  0  0  0  0  0  0  0  0
    4.9269    7.5750    9.5468 F   0  0  0  0  0  0  0  0  0  0  0  0
    0.4136    8.0775   11.1895 C   0  0  0  0  0  0  0  0  0  0  0  0
   -0.0057    7.7747   12.5573 C   0  0  0  0  0  0  0  0  0  0  0  0
   -1.3766    7.5411   13.0026 C   0  0  0  0  0  0  0  0  0  0  0  0
   -1.6401    6.3418   13.8636 C   0  0  0  0  0  0  0  0  0  0  0  0
   -1.8991    5.2182   13.1166 O   0  0  0  0  0  0  0  0  0  0  0  0
   -1.9987    3.9044   13.3992 C   0  0  0  0  0  0  0  0  0  0  0  0
   -1.4505    3.4472   14.6235 C   0  0  0  0  0  0  0  0  0  0  0  0
   -1.5149    2.1226   14.9710 C   0  0  0  0  0  0  0  0  0  0  0  0
   -2.1099    1.1884   14.1529 C   0  0  0  0  0  0  0  0  0  0  0  0
   -2.6444    1.6371   12.9572 C   0  0  0  0  0  0  0  0  0  0  0  0
   -2.5935    2.9832   12.5743 C   0  0  0  0  0  0  0  0  0  0  0  0
   -2.1903   -0.2227   14.4946 C   0  0  0  0  0  0  0  0  0  0  0  0
   -2.2326   -0.5556   15.6954 O   0  0  0  0  0  0  0  0  0  0  0  0
   -2.2227   -1.2336   13.5105 N   0  0  0  0  0  0  0  0  0  0  0  0
   -1.2008   -2.2356   13.4220 C   0  0  0  0  0  0  0  0  0  0  0  0
   -1.3999   -3.2324   12.4923 C   0  0  0  0  0  0  0  0  0  0  0  0
   -0.4269   -4.2141   12.3871 C   0  0  0  0  0  0  0  0  0  0  0  0
    0.6944   -4.2171   13.1623 C   0  0  0  0  0  0  0  0  0  0  0  0
    0.8702   -3.1901   14.0997 C   0  0  0  0  0  0  0  0  0  0  0  0
   -0.0866   -2.2096   14.2149 C   0  0  0  0  0  0  0  0  0  0  0  0
   -0.6334   -5.2564   11.4087 N   0  0  0  0  0  0  0  0  0  0  0  0
   -2.0135   -5.4242   11.0064 C   0  0  0  0  0  0  0  0  0  0  0  0
   -2.5458   -4.0817   10.5412 C   0  0  0  0  0  0  0  0  0  0  0  0
   -2.5264   -3.2423   11.7033 O   0  0  0  0  0  0  0  0  0  0  0  0
   -3.9324   -4.2081   10.0859 C   0  0  0  0  0  0  0  0  0  0  0  0
   -4.8023   -3.3318   10.3205 O   0  0  0  0  0  0  0  0  0  0  0  0
   -4.3132   -5.3279    9.3703 O   0  0  0  0  0  0  0  0  0  0  0  0
    0.4485   -6.0358   10.8843 C   0  0  0  0  0  0  0  0  0  0  0  0
    0.8655   -7.1929   11.7108 C   0  0  0  0  0  0  0  0  0  0  0  0
    1.4505   -6.9493   13.0445 C   0  0  0  0  0  0  0  0  0  0  0  0
    1.6870   -8.1352   13.8809 C   0  0  0  0  0  0  0  0  0  0  0  0
    2.2270   -8.0513   14.9842 O   0  0  0  0  0  0  0  0  0  0  0  0
    1.3055   -9.4151   13.4538 O   0  0  0  0  0  0  0  0  0  0  0  0
  1  2  1  0
  2  3  2  0
  3  4  1  0
  4  5  2  0
  5  6  1  0
  6  7  2  0
  5  8  1  0
  3  9  1  0
  9 10  1  0
 10 11  1  0
 11 12  1  0
 12 13  1  0
 13 14  1  0
 14 15  2  0
 15 16  1  0
 16 17  2  0
 17 18  1  0
 18 19  2  0
 17 20  1  0
 20 21  2  0
 20 22  1  0
 22 23  1  0
 23 24  2  0
 24 25  1  0
 25 26  2  0
 26 27  1  0
 27 28  2  0
 25 29  1  0
 29 30  1  0
 30 31  1  0
 31 32  1  0
 31 33  1  0
 33 34  2  0
 33 35  1  0
 29 36  1  0
 36 37  1  0
 37 38  1  0
 38 39  1  0
 39 40  2  0
 39 41  1  0
  7  2  1  0
 19 14  1  0
 28 23  1  0
 32 24  1  0
M  END
$$$$
