
     RDKit          3D

 41 44  0  0  0  0  0  0  0  0999 V2000
   -3.8357   -6.3133    9.8755 C   0  0  0  0  0  0  0  0  0  0  0  0
   -5.0746   -5.5423    9.8212 C   0  0  0  0  0  0  0  0  0  0  0  0
   -5.5870   -4.9468   10.9333 C   0  0  0  0  0  0  0  0  0  0  0  0
   -6.8070   -4.2583   10.8123 C   0  0  0  0  0  0  0  0  0  0  0  0
   -7.4859   -4.1683    9.6237 C   0  0  0  0  0  0  0  0  0  0  0  0
   -6.9557   -4.7725    8.5118 C   0  0  0  0  0  0  0  0  0  0  0  0
   -5.7629   -5.4522    8.6093 C   0  0  0  0  0  0  0  0  0  0  0  0
   -8.6476   -3.5063    9.5319 F   0  0  0  0  0  0  0  0  0  0  0  0
   -4.9024   -4.9625   12.2103 C   0  0  0  0  0  0  0  0  0  0  0  0
   -4.3758   -3.6978   12.7220 C   0  0  0  0  0  0  0  0  0  0  0  0
   -3.4573   -3.5433   13.8466 C   0  0  0  0  0  0  0  0  0  0  0  0
   -2.9508   -2.1657   14.1548 C   0  0  0  0  0  0  0  0  0  0  0  0
   -1.5928   -2.1506   14.3623 O   0  0  0  0  0  0  0  0  0  0  0  0
   -0.6354   -1.2090   14.2490 C   0  0  0  0  0  0  0  0  0  0  0  0
   -1.0274    0.1491   14.3503 C   0  0  0  0  0  0  0  0  0  0  0  0
   -0.1042    1.1567   14.2411 C   0  0  0  0  0  0  0  0  0  0  0  0
    1.2310    0.8946   14.0305 C   0  0  0  0  0  0  0  0  0  0  0  0
    1.6116   -0.4327   13.9314 C   0  0  0  0  0  0  0  0  0  0  0  0
    0.6923   -1.4838   14.0380 C   0  0  0  0  0  0  0  0  0  0  0  0
    2.2311    1.9430   13.9082 C   0  0  0  0  0  0  0  0  0  0  0  0
    3.3767    1.6471   13.5153 O   0  0  0  0  0  0  0  0  0  0  0  0
    1.9495    3.2904   14.2196 N   0  0  0  0  0  0  0  0  0  0  0  0
    2.9906    4.2641   14.3741 C   0  0  0  0  0  0  0  0  0  0  0  0
    3.1426    4.8032   15.6327 C   0  0  0  0  0  0  0  0  0  0  0  0
    4.1419    5.7478   15.8088 C   0  0  0  0  0  0  0  0  0  0  0  0
    4.9574    6.1464   14.7919 C   0  0  0  0  0  0  0  0  0  0  0  0
    4.7796    5.5806   13.5219 C   0  0  0  0  0  0  0  0  0  0  0  0
    3.7925    4.6425   13.3327 C   0  0  0  0  0  0  0  0  0  0  0  0
    4.3044    6.3090   17.1297 N   0  0  0  0  0  0  0  0  0  0  0  0
    3.1329    6.1890   17.9710 C   0  0  0  0  0  0  0  0  0  0  0  0
    2.7161    4.7306   18.0105 C   0  0  0  0  0  0  0  0  0  0  0  0
    2.3271    4.4106   16.6683 O   0  0  0  0  0  0  0  0  0  0  0  0
    1.5534    4.5516   18.8835 C   0  0  0  0  0  0  0  0  0  0  0  0
    1.6224    3.9485   19.9841 O   0  0  0  0  0  0  0  0  0  0  0  0
    0.3278    5.0595   18.4954 O   0  0  0  0  0  0  0  0  0  0  0  0
    5.5308    6.9152   17.5555 C   0  0  0  0  0  0  0  0  0  0  0  0
    5.7614    8.2997   17.0803 C   0  0  0  0  0  0  0  0  0  0  0  0
    5.9961    9.3694   18.0708 C   0  0  0  0  0  0  0  0  0  0  0  0
    5.9975   10.7470   17.5569 C   0  0  0  0  0  0  0  0  0  0  0  0
    5.9662   10.9871   16.3497 O   0  0  0  0  0  0  0  0  0  0  0  0
    6.0350   11.8477   18.4248 O   0  0  0  0  0  0  0  0  0  0  0  0
  1  2  1  0
  2  3  2  0
  3  4  1  0
  4  5  2  0
  5  6  1  0
  6  7  2  0
  5  8  1  0
  3  9  1  0
  9 10  1  0
 10 11  1  0
 11 12  1  0
 12 13  1  0
 13 14  1  0
 14 15  2  0
 15 16  1  0
 16 17  2  0
 17 18  1  0
 18 19  2  0
 17 20  1  0
 20 21  2  0
 20 22  1  0
 22 23  1  0
 23 24  2  0
 24 25  1  0
 25 26  2  0
 26 27  1  0
 27 28  2  0
 25 29  1  0
 29 30  1  0
 30 31  1  0
 31 32  1  0
 31 33  1  0
 33 34  2  0
 33 35  1  0
 29 36  1  0
 36 37  1  0
 37 38  1  0
 38 39  1  0
 39 40  2  0
 39 41  1  0
  7  2  1  0
 19 14  1  0
 28 23  1  0
 32 24  1  0
M  END
$$$$
