
     RDKit          3D

 41 44  0  0  0  0  0  0  0  0999 V2000
   -5.1604   -4.9508   13.2767 C   0  0  0  0  0  0  0  0  0  0  0  0
   -4.7130   -4.7566   11.9004 C   0  0  0  0  0  0  0  0  0  0  0  0
   -4.1433   -3.5865   11.4998 C   0  0  0  0  0  0  0  0  0  0  0  0
   -3.7779   -3.4575   10.1482 C   0  0  0  0  0  0  0  0  0  0  0  0
   -3.9740   -4.4616    9.2343 C   0  0  0  0  0  0  0  0  0  0  0  0
   -4.5478   -5.6350    9.6539 C   0  0  0  0  0  0  0  0  0  0  0  0
   -4.9135   -5.7811   10.9727 C   0  0  0  0  0  0  0  0  0  0  0  0
   -3.6175   -4.3162    7.9505 F   0  0  0  0  0  0  0  0  0  0  0  0
   -3.8650   -2.5014   12.4188 C   0  0  0  0  0  0  0  0  0  0  0  0
   -4.3867   -1.1749   12.0923 C   0  0  0  0  0  0  0  0  0  0  0  0
   -3.6142   -0.0568   11.5580 C   0  0  0  0  0  0  0  0  0  0  0  0
   -2.9067    0.8366   12.5330 C   0  0  0  0  0  0  0  0  0  0  0  0
   -1.5499    0.6205   12.5389 O   0  0  0  0  0  0  0  0  0  0  0  0
   -0.6334    0.4280   13.5079 C   0  0  0  0  0  0  0  0  0  0  0  0
    0.2866   -0.6379   13.3467 C   0  0  0  0  0  0  0  0  0  0  0  0
    1.2425   -0.8905   14.2963 C   0  0  0  0  0  0  0  0  0  0  0  0
    1.3487   -0.1264   15.4368 C   0  0  0  0  0  0  0  0  0  0  0  0
    0.4488    0.9141   15.5925 C   0  0  0  0  0  0  0  0  0  0  0  0
   -0.5389    1.1966   14.6408 C   0  0  0  0  0  0  0  0  0  0  0  0
    2.3507   -0.3730   16.4613 C   0  0  0  0  0  0  0  0  0  0  0  0
    2.8972   -1.4920   16.5197 O   0  0  0  0  0  0  0  0  0  0  0  0
    2.7284    0.6144   17.3962 N   0  0  0  0  0  0  0  0  0  0  0  0
    4.0263    0.6211   18.0058 C   0  0  0  0  0  0  0  0  0  0  0  0
    4.4954    1.8438   18.4330 C   0  0  0  0  0  0  0  0  0  0  0  0
    5.7483    1.8781   19.0253 C   0  0  0  0  0  0  0  0  0  0  0  0
    6.5086    0.7589   19.1910 C   0  0  0  0  0  0  0  0  0  0  0  0
    6.0054   -0.4715   18.7466 C   0  0  0  0  0  0  0  0  0  0  0  0
    4.7642   -0.5204   18.1574 C   0  0  0  0  0  0  0  0  0  0  0  0
    6.2378    3.1594   19.4779 N   0  0  0  0  0  0  0  0  0  0  0  0
    5.6003    4.2932   18.8433 C   0  0  0  0  0  0  0  0  0  0  0  0
    4.0984    4.1567   19.0108 C   0  0  0  0  0  0  0  0  0  0  0  0
    3.7394    2.9815   18.2725 O   0  0  0  0  0  0  0  0  0  0  0  0
    3.4084    5.3043   18.4165 C   0  0  0  0  0  0  0  0  0  0  0  0
    3.6791    6.4909   18.7302 O   0  0  0  0  0  0  0  0  0  0  0  0
    2.4203    5.0894   17.4741 O   0  0  0  0  0  0  0  0  0  0  0  0
    7.2565    3.2769   20.4785 C   0  0  0  0  0  0  0  0  0  0  0  0
    6.8823    2.8085   21.8336 C   0  0  0  0  0  0  0  0  0  0  0  0
    5.8071    3.5088   22.5643 C   0  0  0  0  0  0  0  0  0  0  0  0
    6.0161    3.7027   24.0067 C   0  0  0  0  0  0  0  0  0  0  0  0
    5.1608    4.2287   24.7192 O   0  0  0  0  0  0  0  0  0  0  0  0
    7.2033    3.2949   24.6316 O   0  0  0  0  0  0  0  0  0  0  0  0
  1  2  1  0
  2  3  2  0
  3  4  1  0
  4  5  2  0
  5  6  1  0
  6  7  2  0
  5  8  1  0
  3  9  1  0
  9 10  1  0
 10 11  1  0
 11 12  1  0
 12 13  1  0
 13 14  1  0
 14 15  2  0
 15 16  1  0
 16 17  2  0
 17 18  1  0
 18 19  2  0
 17 20  1  0
 20 21  2  0
 20 22  1  0
 22 23  1  0
 23 24  2  0
 24 25  1  0
 25 26  2  0
 26 27  1  0
 27 28  2  0
 25 29  1  0
 29 30  1  0
 30 31  1  0
 31 32  1  0
 31 33  1  0
 33 34  2  0
 33 35  1  0
 29 36  1  0
 36 37  1  0
 37 38  1  0
 38 39  1  0
 39 40  2  0
 39 41  1  0
  7  2  1  0
 19 14  1  0
 28 23  1  0
 32 24  1  0
M  END
$$$$
