
     RDKit          3D

 41 44  0  0  0  0  0  0  0  0999 V2000
   -3.2570    2.7519   16.3272 C   0  0  0  0  0  0  0  0  0  0  0  0
   -3.7824    3.7614   17.2421 C   0  0  0  0  0  0  0  0  0  0  0  0
   -2.9662    4.4298   18.1029 C   0  0  0  0  0  0  0  0  0  0  0  0
   -3.5511    5.3559   18.9845 C   0  0  0  0  0  0  0  0  0  0  0  0
   -4.9003    5.6039   19.0019 C   0  0  0  0  0  0  0  0  0  0  0  0
   -5.7091    4.9233   18.1273 C   0  0  0  0  0  0  0  0  0  0  0  0
   -5.1563    4.0118   17.2566 C   0  0  0  0  0  0  0  0  0  0  0  0
   -5.4359    6.4915   19.8513 F   0  0  0  0  0  0  0  0  0  0  0  0
   -1.5283    4.2519   18.1090 C   0  0  0  0  0  0  0  0  0  0  0  0
   -0.7409    4.9944   17.1255 C   0  0  0  0  0  0  0  0  0  0  0  0
    0.6957    4.8619   16.9000 C   0  0  0  0  0  0  0  0  0  0  0  0
    1.1810    3.6521   16.1582 C   0  0  0  0  0  0  0  0  0  0  0  0
    0.8451    3.6952   14.8267 O   0  0  0  0  0  0  0  0  0  0  0  0
    0.5626    2.7603   13.8982 C   0  0  0  0  0  0  0  0  0  0  0  0
    0.7116    3.1157   12.5344 C   0  0  0  0  0  0  0  0  0  0  0  0
    0.4381    2.2131   11.5393 C   0  0  0  0  0  0  0  0  0  0  0  0
    0.0111    0.9346   11.8200 C   0  0  0  0  0  0  0  0  0  0  0  0
   -0.1342    0.5897   13.1529 C   0  0  0  0  0  0  0  0  0  0  0  0
    0.1366    1.4893   14.1914 C   0  0  0  0  0  0  0  0  0  0  0  0
   -0.2887   -0.0421   10.7852 C   0  0  0  0  0  0  0  0  0  0  0  0
    0.3800   -0.0371    9.7330 O   0  0  0  0  0  0  0  0  0  0  0  0
   -1.3143   -1.0005   10.9309 N   0  0  0  0  0  0  0  0  0  0  0  0
   -1.3461   -2.1991   10.1446 C   0  0  0  0  0  0  0  0  0  0  0  0
   -1.3859   -3.3870   10.8409 C   0  0  0  0  0  0  0  0  0  0  0  0
   -1.4166   -4.5609   10.1042 C   0  0  0  0  0  0  0  0  0  0  0  0
   -1.4083   -4.5681    8.7411 C   0  0  0  0  0  0  0  0  0  0  0  0
   -1.3675   -3.3442    8.0593 C   0  0  0  0  0  0  0  0  0  0  0  0
   -1.3369   -2.1720    8.7771 C   0  0  0  0  0  0  0  0  0  0  0  0
   -1.4635   -5.8062   10.8345 N   0  0  0  0  0  0  0  0  0  0  0  0
   -0.9955   -5.7081   12.2005 C   0  0  0  0  0  0  0  0  0  0  0  0
   -1.7670   -4.6017   12.8953 C   0  0  0  0  0  0  0  0  0  0  0  0
   -1.3948   -3.3952   12.2162 O   0  0  0  0  0  0  0  0  0  0  0  0
   -1.3547   -4.4890   14.2965 C   0  0  0  0  0  0  0  0  0  0  0  0
   -0.9846   -3.4011   14.8056 O   0  0  0  0  0  0  0  0  0  0  0  0
   -1.3680   -5.6129   15.1011 O   0  0  0  0  0  0  0  0  0  0  0  0
   -1.9474   -7.0189   10.2445 C   0  0  0  0  0  0  0  0  0  0  0  0
   -2.9175   -6.8515    9.1371 C   0  0  0  0  0  0  0  0  0  0  0  0
   -2.4128   -6.6607    7.7626 C   0  0  0  0  0  0  0  0  0  0  0  0
   -3.3551   -6.9570    6.6734 C   0  0  0  0  0  0  0  0  0  0  0  0
   -4.2682   -7.7711    6.8117 O   0  0  0  0  0  0  0  0  0  0  0  0
   -3.2510   -6.3215    5.4278 O   0  0  0  0  0  0  0  0  0  0  0  0
  1  2  1  0
  2  3  2  0
  3  4  1  0
  4  5  2  0
  5  6  1  0
  6  7  2  0
  5  8  1  0
  3  9  1  0
  9 10  1  0
 10 11  1  0
 11 12  1  0
 12 13  1  0
 13 14  1  0
 14 15  2  0
 15 16  1  0
 16 17  2  0
 17 18  1  0
 18 19  2  0
 17 20  1  0
 20 21  2  0
 20 22  1  0
 22 23  1  0
 23 24  2  0
 24 25  1  0
 25 26  2  0
 26 27  1  0
 27 28  2  0
 25 29  1  0
 29 30  1  0
 30 31  1  0
 31 32  1  0
 31 33  1  0
 33 34  2  0
 33 35  1  0
 29 36  1  0
 36 37  1  0
 37 38  1  0
 38 39  1  0
 39 40  2  0
 39 41  1  0
  7  2  1  0
 19 14  1  0
 28 23  1  0
 32 24  1  0
M  END
$$$$
