
     RDKit          3D

 41 44  0  0  0  0  0  0  0  0999 V2000
   -4.7919   -6.8129   10.7506 C   0  0  0  0  0  0  0  0  0  0  0  0
   -5.7713   -6.5539   11.8021 C   0  0  0  0  0  0  0  0  0  0  0  0
   -5.5440   -5.6200   12.7666 C   0  0  0  0  0  0  0  0  0  0  0  0
   -6.5138   -5.4576   13.7717 C   0  0  0  0  0  0  0  0  0  0  0  0
   -7.6666   -6.2002   13.8082 C   0  0  0  0  0  0  0  0  0  0  0  0
   -7.8817   -7.1361   12.8283 C   0  0  0  0  0  0  0  0  0  0  0  0
   -6.9443   -7.3112   11.8359 C   0  0  0  0  0  0  0  0  0  0  0  0
   -8.5774   -6.0280   14.7762 F   0  0  0  0  0  0  0  0  0  0  0  0
   -4.3712   -4.7691   12.7654 C   0  0  0  0  0  0  0  0  0  0  0  0
   -4.0885   -3.9921   11.5592 C   0  0  0  0  0  0  0  0  0  0  0  0
   -2.9443   -3.1077   11.3569 C   0  0  0  0  0  0  0  0  0  0  0  0
   -2.7108   -2.0210   12.3638 C   0  0  0  0  0  0  0  0  0  0  0  0
   -1.3738   -1.7541   12.5330 O   0  0  0  0  0  0  0  0  0  0  0  0
   -0.6254   -0.6345   12.4824 C   0  0  0  0  0  0  0  0  0  0  0  0
   -0.9840    0.4404   13.3335 C   0  0  0  0  0  0  0  0  0  0  0  0
   -0.2668    1.6088   13.3297 C   0  0  0  0  0  0  0  0  0  0  0  0
    0.8226    1.7861   12.5066 C   0  0  0  0  0  0  0  0  0  0  0  0
    1.1709    0.7349   11.6757 C   0  0  0  0  0  0  0  0  0  0  0  0
    0.4578   -0.4702   11.6563 C   0  0  0  0  0  0  0  0  0  0  0  0
    1.5997    3.0148   12.4799 C   0  0  0  0  0  0  0  0  0  0  0  0
    2.5550    3.1124   11.6848 O   0  0  0  0  0  0  0  0  0  0  0  0
    1.3091    4.1063   13.3259 N   0  0  0  0  0  0  0  0  0  0  0  0
    2.1292    5.2823   13.3515 C   0  0  0  0  0  0  0  0  0  0  0  0
    2.5867    5.6827   14.5875 C   0  0  0  0  0  0  0  0  0  0  0  0
    3.3812    6.8175   14.6400 C   0  0  0  0  0  0  0  0  0  0  0  0
    3.7124    7.5292   13.5257 C   0  0  0  0  0  0  0  0  0  0  0  0
    3.2324    7.0982   12.2814 C   0  0  0  0  0  0  0  0  0  0  0  0
    2.4435    5.9743   12.2143 C   0  0  0  0  0  0  0  0  0  0  0  0
    3.8650    7.2341   15.9356 N   0  0  0  0  0  0  0  0  0  0  0  0
    3.0923    6.7228   17.0474 C   0  0  0  0  0  0  0  0  0  0  0  0
    3.0076    5.2132   16.9207 C   0  0  0  0  0  0  0  0  0  0  0  0
    2.2606    4.9744   15.7205 O   0  0  0  0  0  0  0  0  0  0  0  0
    2.2651    4.6435   18.0478 C   0  0  0  0  0  0  0  0  0  0  0  0
    2.3829    5.0771   19.2216 O   0  0  0  0  0  0  0  0  0  0  0  0
    1.3990    3.5890   17.8273 O   0  0  0  0  0  0  0  0  0  0  0  0
    5.0191    8.0698   16.0865 C   0  0  0  0  0  0  0  0  0  0  0  0
    4.7567    9.5279   16.1125 C   0  0  0  0  0  0  0  0  0  0  0  0
    3.6732   10.0779   15.2734 C   0  0  0  0  0  0  0  0  0  0  0  0
    3.4603   11.5307   15.3505 C   0  0  0  0  0  0  0  0  0  0  0  0
    3.6108   12.1515   16.4030 O   0  0  0  0  0  0  0  0  0  0  0  0
    3.0753   12.2708   14.2235 O   0  0  0  0  0  0  0  0  0  0  0  0
  1  2  1  0
  2  3  2  0
  3  4  1  0
  4  5  2  0
  5  6  1  0
  6  7  2  0
  5  8  1  0
  3  9  1  0
  9 10  1  0
 10 11  1  0
 11 12  1  0
 12 13  1  0
 13 14  1  0
 14 15  2  0
 15 16  1  0
 16 17  2  0
 17 18  1  0
 18 19  2  0
 17 20  1  0
 20 21  2  0
 20 22  1  0
 22 23  1  0
 23 24  2  0
 24 25  1  0
 25 26  2  0
 26 27  1  0
 27 28  2  0
 25 29  1  0
 29 30  1  0
 30 31  1  0
 31 32  1  0
 31 33  1  0
 33 34  2  0
 33 35  1  0
 29 36  1  0
 36 37  1  0
 37 38  1  0
 38 39  1  0
 39 40  2  0
 39 41  1  0
  7  2  1  0
 19 14  1  0
 28 23  1  0
 32 24  1  0
M  END
$$$$
