
     RDKit          3D

 41 44  0  0  0  0  0  0  0  0999 V2000
   -2.6004   -4.0498    7.9382 C   0  0  0  0  0  0  0  0  0  0  0  0
   -3.8909   -4.6793    8.2034 C   0  0  0  0  0  0  0  0  0  0  0  0
   -4.8064   -4.0974    9.0264 C   0  0  0  0  0  0  0  0  0  0  0  0
   -6.0090   -4.7845    9.2688 C   0  0  0  0  0  0  0  0  0  0  0  0
   -6.2843   -6.0056    8.7076 C   0  0  0  0  0  0  0  0  0  0  0  0
   -5.3522   -6.5780    7.8794 C   0  0  0  0  0  0  0  0  0  0  0  0
   -4.1682   -5.9221    7.6299 C   0  0  0  0  0  0  0  0  0  0  0  0
   -7.4378   -6.6424    8.9529 F   0  0  0  0  0  0  0  0  0  0  0  0
   -4.6024   -2.7901    9.6171 C   0  0  0  0  0  0  0  0  0  0  0  0
   -4.8544   -2.6376   11.0495 C   0  0  0  0  0  0  0  0  0  0  0  0
   -4.6195   -1.4314   11.8382 C   0  0  0  0  0  0  0  0  0  0  0  0
   -3.9363   -1.5824   13.1648 C   0  0  0  0  0  0  0  0  0  0  0  0
   -2.8976   -0.6955   13.3133 O   0  0  0  0  0  0  0  0  0  0  0  0
   -2.0266   -0.4263   14.3057 C   0  0  0  0  0  0  0  0  0  0  0  0
   -1.1809    0.7011   14.1564 C   0  0  0  0  0  0  0  0  0  0  0  0
   -0.2701    1.0295   15.1270 C   0  0  0  0  0  0  0  0  0  0  0  0
   -0.1395    0.2850   16.2779 C   0  0  0  0  0  0  0  0  0  0  0  0
   -0.9663   -0.8161   16.4215 C   0  0  0  0  0  0  0  0  0  0  0  0
   -1.9057   -1.1773   15.4477 C   0  0  0  0  0  0  0  0  0  0  0  0
    0.8192    0.6084   17.3223 C   0  0  0  0  0  0  0  0  0  0  0  0
    0.6242    0.1845   18.4785 O   0  0  0  0  0  0  0  0  0  0  0  0
    1.9683    1.3885   17.0723 N   0  0  0  0  0  0  0  0  0  0  0  0
    2.9970    1.5565   18.0570 C   0  0  0  0  0  0  0  0  0  0  0  0
    3.5080    2.8279   18.1975 C   0  0  0  0  0  0  0  0  0  0  0  0
    4.5045    3.0173   19.1424 C   0  0  0  0  0  0  0  0  0  0  0  0
    4.9792    2.0009   19.9168 C   0  0  0  0  0  0  0  0  0  0  0  0
    4.4404    0.7176   19.7519 C   0  0  0  0  0  0  0  0  0  0  0  0
    3.4515    0.5151   18.8185 C   0  0  0  0  0  0  0  0  0  0  0  0
    5.0365    4.3516   19.2932 N   0  0  0  0  0  0  0  0  0  0  0  0
    4.8238    5.2058   18.1444 C   0  0  0  0  0  0  0  0  0  0  0  0
    3.3428    5.2085   17.8143 C   0  0  0  0  0  0  0  0  0  0  0  0
    3.0387    3.8632   17.4231 O   0  0  0  0  0  0  0  0  0  0  0  0
    3.0708    6.0925   16.6783 C   0  0  0  0  0  0  0  0  0  0  0  0
    3.3067    7.3266   16.7120 O   0  0  0  0  0  0  0  0  0  0  0  0
    2.5346    5.5638   15.5191 O   0  0  0  0  0  0  0  0  0  0  0  0
    5.7016    4.7773   20.4887 C   0  0  0  0  0  0  0  0  0  0  0  0
    7.1185    4.3631   20.6172 C   0  0  0  0  0  0  0  0  0  0  0  0
    8.0531    4.6468   19.5098 C   0  0  0  0  0  0  0  0  0  0  0  0
    9.3836    4.0280   19.6027 C   0  0  0  0  0  0  0  0  0  0  0  0
    9.5326    2.8063   19.5687 O   0  0  0  0  0  0  0  0  0  0  0  0
   10.5416    4.8078   19.7347 O   0  0  0  0  0  0  0  0  0  0  0  0
  1  2  1  0
  2  3  2  0
  3  4  1  0
  4  5  2  0
  5  6  1  0
  6  7  2  0
  5  8  1  0
  3  9  1  0
  9 10  1  0
 10 11  1  0
 11 12  1  0
 12 13  1  0
 13 14  1  0
 14 15  2  0
 15 16  1  0
 16 17  2  0
 17 18  1  0
 18 19  2  0
 17 20  1  0
 20 21  2  0
 20 22  1  0
 22 23  1  0
 23 24  2  0
 24 25  1  0
 25 26  2  0
 26 27  1  0
 27 28  2  0
 25 29  1  0
 29 30  1  0
 30 31  1  0
 31 32  1  0
 31 33  1  0
 33 34  2  0
 33 35  1  0
 29 36  1  0
 36 37  1  0
 37 38  1  0
 38 39  1  0
 39 40  2  0
 39 41  1  0
  7  2  1  0
 19 14  1  0
 28 23  1  0
 32 24  1  0
M  END
$$$$
