
     RDKit          3D

 41 44  0  0  0  0  0  0  0  0999 V2000
   -2.1825   -6.2147   10.6407 C   0  0  0  0  0  0  0  0  0  0  0  0
   -3.3311   -5.6915    9.9063 C   0  0  0  0  0  0  0  0  0  0  0  0
   -4.4541   -5.2737   10.5531 C   0  0  0  0  0  0  0  0  0  0  0  0
   -5.5361   -4.8235    9.7761 C   0  0  0  0  0  0  0  0  0  0  0  0
   -5.4941   -4.7916    8.4053 C   0  0  0  0  0  0  0  0  0  0  0  0
   -4.3548   -5.2146    7.7685 C   0  0  0  0  0  0  0  0  0  0  0  0
   -3.2847   -5.6598    8.5108 C   0  0  0  0  0  0  0  0  0  0  0  0
   -6.5379   -4.3583    7.6849 F   0  0  0  0  0  0  0  0  0  0  0  0
   -4.5521   -5.2371   11.9983 C   0  0  0  0  0  0  0  0  0  0  0  0
   -4.2125   -3.9874   12.6776 C   0  0  0  0  0  0  0  0  0  0  0  0
   -4.0899   -3.8013   14.1207 C   0  0  0  0  0  0  0  0  0  0  0  0
   -3.0665   -2.8241   14.6178 C   0  0  0  0  0  0  0  0  0  0  0  0
   -3.1320   -1.6252   13.9502 O   0  0  0  0  0  0  0  0  0  0  0  0
   -2.4535   -0.4640   14.0353 C   0  0  0  0  0  0  0  0  0  0  0  0
   -2.7289    0.5360   13.0696 C   0  0  0  0  0  0  0  0  0  0  0  0
   -2.0719    1.7389   13.0970 C   0  0  0  0  0  0  0  0  0  0  0  0
   -1.1253    2.0244   14.0552 C   0  0  0  0  0  0  0  0  0  0  0  0
   -0.8574    1.0459   14.9973 C   0  0  0  0  0  0  0  0  0  0  0  0
   -1.5112   -0.1925   14.9952 C   0  0  0  0  0  0  0  0  0  0  0  0
   -0.4115    3.2902   14.1068 C   0  0  0  0  0  0  0  0  0  0  0  0
   -0.7015    4.1850   13.2885 O   0  0  0  0  0  0  0  0  0  0  0  0
    0.6026    3.5430   15.0551 N   0  0  0  0  0  0  0  0  0  0  0  0
    1.4285    4.7131   14.9850 C   0  0  0  0  0  0  0  0  0  0  0  0
    2.4748    4.7781   15.8786 C   0  0  0  0  0  0  0  0  0  0  0  0
    3.2883    5.8996   15.8322 C   0  0  0  0  0  0  0  0  0  0  0  0
    3.0830    6.9146   14.9458 C   0  0  0  0  0  0  0  0  0  0  0  0
    2.0105    6.8211   14.0484 C   0  0  0  0  0  0  0  0  0  0  0  0
    1.1955    5.7144   14.0829 C   0  0  0  0  0  0  0  0  0  0  0  0
    4.3885    5.9651   16.7658 N   0  0  0  0  0  0  0  0  0  0  0  0
    4.2298    5.1155   17.9267 C   0  0  0  0  0  0  0  0  0  0  0  0
    3.9576    3.6999   17.4534 C   0  0  0  0  0  0  0  0  0  0  0  0
    2.6942    3.7615   16.7787 O   0  0  0  0  0  0  0  0  0  0  0  0
    3.8274    2.7919   18.5956 C   0  0  0  0  0  0  0  0  0  0  0  0
    4.7962    2.5045   19.3431 O   0  0  0  0  0  0  0  0  0  0  0  0
    2.5992    2.2221   18.8741 O   0  0  0  0  0  0  0  0  0  0  0  0
    5.5342    6.7948   16.5380 C   0  0  0  0  0  0  0  0  0  0  0  0
    5.4151    8.1960   17.0049 C   0  0  0  0  0  0  0  0  0  0  0  0
    6.0204    8.5765   18.2970 C   0  0  0  0  0  0  0  0  0  0  0  0
    6.5574    9.9421   18.3902 C   0  0  0  0  0  0  0  0  0  0  0  0
    7.6581   10.1714   18.8917 O   0  0  0  0  0  0  0  0  0  0  0  0
    5.8342   11.0431   17.9096 O   0  0  0  0  0  0  0  0  0  0  0  0
  1  2  1  0
  2  3  2  0
  3  4  1  0
  4  5  2  0
  5  6  1  0
  6  7  2  0
  5  8  1  0
  3  9  1  0
  9 10  1  0
 10 11  1  0
 11 12  1  0
 12 13  1  0
 13 14  1  0
 14 15  2  0
 15 16  1  0
 16 17  2  0
 17 18  1  0
 18 19  2  0
 17 20  1  0
 20 21  2  0
 20 22  1  0
 22 23  1  0
 23 24  2  0
 24 25  1  0
 25 26  2  0
 26 27  1  0
 27 28  2  0
 25 29  1  0
 29 30  1  0
 30 31  1  0
 31 32  1  0
 31 33  1  0
 33 34  2  0
 33 35  1  0
 29 36  1  0
 36 37  1  0
 37 38  1  0
 38 39  1  0
 39 40  2  0
 39 41  1  0
  7  2  1  0
 19 14  1  0
 28 23  1  0
 32 24  1  0
M  END
$$$$
