
     RDKit          3D

 41 44  0  0  0  0  0  0  0  0999 V2000
    3.7589   -4.4373   -2.2737 C   0  0  0  0  0  0  0  0  0  0  0  0
    3.5899   -3.0520   -1.8440 C   0  0  0  0  0  0  0  0  0  0  0  0
    3.4246   -2.0462   -2.7468 C   0  0  0  0  0  0  0  0  0  0  0  0
    3.3124   -0.7320   -2.2596 C   0  0  0  0  0  0  0  0  0  0  0  0
    3.3620   -0.4372   -0.9207 C   0  0  0  0  0  0  0  0  0  0  0  0
    3.5275   -1.4621   -0.0237 C   0  0  0  0  0  0  0  0  0  0  0  0
    3.6403   -2.7556   -0.4802 C   0  0  0  0  0  0  0  0  0  0  0  0
    3.2526    0.8234   -0.4790 F   0  0  0  0  0  0  0  0  0  0  0  0
    3.3179   -2.2884   -4.1714 C   0  0  0  0  0  0  0  0  0  0  0  0
    2.1889   -1.6939   -4.8858 C   0  0  0  0  0  0  0  0  0  0  0  0
    1.7439   -2.0457   -6.2313 C   0  0  0  0  0  0  0  0  0  0  0  0
    1.7898   -0.9808   -7.2864 C   0  0  0  0  0  0  0  0  0  0  0  0
    1.7933   -1.5112   -8.5538 O   0  0  0  0  0  0  0  0  0  0  0  0
    1.2175   -1.1606   -9.7206 C   0  0  0  0  0  0  0  0  0  0  0  0
    1.2593   -2.0941  -10.7862 C   0  0  0  0  0  0  0  0  0  0  0  0
    0.6955   -1.7997  -12.0006 C   0  0  0  0  0  0  0  0  0  0  0  0
    0.0700   -0.5956  -12.2347 C   0  0  0  0  0  0  0  0  0  0  0  0
    0.0307    0.3150  -11.1926 C   0  0  0  0  0  0  0  0  0  0  0  0
    0.5981    0.0437   -9.9413 C   0  0  0  0  0  0  0  0  0  0  0  0
   -0.5340   -0.2556  -13.5130 C   0  0  0  0  0  0  0  0  0  0  0  0
   -0.9819    0.8949  -13.6865 O   0  0  0  0  0  0  0  0  0  0  0  0
   -0.6313   -1.1863  -14.5694 N   0  0  0  0  0  0  0  0  0  0  0  0
   -1.1929   -0.8315  -15.8401 C   0  0  0  0  0  0  0  0  0  0  0  0
   -0.6113   -1.4068  -16.9484 C   0  0  0  0  0  0  0  0  0  0  0  0
   -1.1351   -1.0797  -18.1895 C   0  0  0  0  0  0  0  0  0  0  0  0
   -2.1856   -0.2236  -18.3363 C   0  0  0  0  0  0  0  0  0  0  0  0
   -2.7573    0.3468  -17.1907 C   0  0  0  0  0  0  0  0  0  0  0  0
   -2.2482    0.0313  -15.9532 C   0  0  0  0  0  0  0  0  0  0  0  0
   -0.5284   -1.6871  -19.3511 N   0  0  0  0  0  0  0  0  0  0  0  0
    0.8192   -2.1670  -19.1311 C   0  0  0  0  0  0  0  0  0  0  0  0
    0.8092   -3.0967  -17.9321 C   0  0  0  0  0  0  0  0  0  0  0  0
    0.4492   -2.2725  -16.8157 O   0  0  0  0  0  0  0  0  0  0  0  0
    2.1481   -3.6405  -17.6919 C   0  0  0  0  0  0  0  0  0  0  0  0
    2.5962   -3.8444  -16.5354 O   0  0  0  0  0  0  0  0  0  0  0  0
    2.9606   -3.9456  -18.7678 O   0  0  0  0  0  0  0  0  0  0  0  0
   -1.2216   -1.8069  -20.5993 C   0  0  0  0  0  0  0  0  0  0  0  0
   -1.8311   -3.1300  -20.8706 C   0  0  0  0  0  0  0  0  0  0  0  0
   -3.2920   -3.2909  -20.7272 C   0  0  0  0  0  0  0  0  0  0  0  0
   -4.0505   -3.5080  -21.9679 C   0  0  0  0  0  0  0  0  0  0  0  0
   -4.7716   -4.4940  -22.1210 O   0  0  0  0  0  0  0  0  0  0  0  0
   -3.9827   -2.5967  -23.0315 O   0  0  0  0  0  0  0  0  0  0  0  0
  1  2  1  0
  2  3  2  0
  3  4  1  0
  4  5  2  0
  5  6  1  0
  6  7  2  0
  5  8  1  0
  3  9  1  0
  9 10  1  0
 10 11  1  0
 11 12  1  0
 12 13  1  0
 13 14  1  0
 14 15  2  0
 15 16  1  0
 16 17  2  0
 17 18  1  0
 18 19  2  0
 17 20  1  0
 20 21  2  0
 20 22  1  0
 22 23  1  0
 23 24  2  0
 24 25  1  0
 25 26  2  0
 26 27  1  0
 27 28  2  0
 25 29  1  0
 29 30  1  0
 30 31  1  0
 31 32  1  0
 31 33  1  0
 33 34  2  0
 33 35  1  0
 29 36  1  0
 36 37  1  0
 37 38  1  0
 38 39  1  0
 39 40  2  0
 39 41  1  0
  7  2  1  0
 19 14  1  0
 28 23  1  0
 32 24  1  0
M  END
$$$$
