
     RDKit          3D

 41 44  0  0  0  0  0  0  0  0999 V2000
    0.7397   -5.1359    4.5023 C   0  0  0  0  0  0  0  0  0  0  0  0
    1.1864   -6.5037    4.2540 C   0  0  0  0  0  0  0  0  0  0  0  0
    0.8861   -7.5138    5.1164 C   0  0  0  0  0  0  0  0  0  0  0  0
    1.3884   -8.7963    4.8335 C   0  0  0  0  0  0  0  0  0  0  0  0
    2.1596   -9.0570    3.7293 C   0  0  0  0  0  0  0  0  0  0  0  0
    2.4520   -8.0288    2.8692 C   0  0  0  0  0  0  0  0  0  0  0  0
    1.9707   -6.7658    3.1286 C   0  0  0  0  0  0  0  0  0  0  0  0
    2.6274  -10.2878    3.4796 F   0  0  0  0  0  0  0  0  0  0  0  0
    0.0403   -7.3210    6.2770 C   0  0  0  0  0  0  0  0  0  0  0  0
    0.6853   -7.2038    7.5842 C   0  0  0  0  0  0  0  0  0  0  0  0
    0.0148   -6.9157    8.8489 C   0  0  0  0  0  0  0  0  0  0  0  0
    0.2873   -5.5936    9.5024 C   0  0  0  0  0  0  0  0  0  0  0  0
   -0.8175   -5.1049   10.1567 O   0  0  0  0  0  0  0  0  0  0  0  0
   -1.0674   -3.9948   10.8786 C   0  0  0  0  0  0  0  0  0  0  0  0
   -2.3822   -3.4669   10.8475 C   0  0  0  0  0  0  0  0  0  0  0  0
   -2.7031   -2.3383   11.5566 C   0  0  0  0  0  0  0  0  0  0  0  0
   -1.7702   -1.6757   12.3224 C   0  0  0  0  0  0  0  0  0  0  0  0
   -0.4863   -2.1928   12.3510 C   0  0  0  0  0  0  0  0  0  0  0  0
   -0.1278   -3.3431   11.6373 C   0  0  0  0  0  0  0  0  0  0  0  0
   -2.0818   -0.4757   13.0823 C   0  0  0  0  0  0  0  0  0  0  0  0
   -3.2356   -0.0062   13.0304 O   0  0  0  0  0  0  0  0  0  0  0  0
   -1.1198    0.1792   13.8807 N   0  0  0  0  0  0  0  0  0  0  0  0
   -1.2873    1.5390   14.3033 C   0  0  0  0  0  0  0  0  0  0  0  0
   -0.2982    2.0551   15.1114 C   0  0  0  0  0  0  0  0  0  0  0  0
   -0.4365    3.3678   15.5347 C   0  0  0  0  0  0  0  0  0  0  0  0
   -1.5013    4.1413   15.1797 C   0  0  0  0  0  0  0  0  0  0  0  0
   -2.4925    3.5895   14.3565 C   0  0  0  0  0  0  0  0  0  0  0  0
   -2.3683    2.2888   13.9290 C   0  0  0  0  0  0  0  0  0  0  0  0
    0.6033    3.9103   16.3777 N   0  0  0  0  0  0  0  0  0  0  0  0
    1.3934    2.9082   17.0605 C   0  0  0  0  0  0  0  0  0  0  0  0
    1.9348    1.9368   16.0282 C   0  0  0  0  0  0  0  0  0  0  0  0
    0.7819    1.2865   15.4777 O   0  0  0  0  0  0  0  0  0  0  0  0
    2.7758    0.9223   16.6683 C   0  0  0  0  0  0  0  0  0  0  0  0
    2.9475   -0.2209   16.1750 O   0  0  0  0  0  0  0  0  0  0  0  0
    3.4105    1.2191   17.8598 O   0  0  0  0  0  0  0  0  0  0  0  0
    0.8259    5.3202   16.5032 C   0  0  0  0  0  0  0  0  0  0  0  0
    2.2160    5.7249   16.8187 C   0  0  0  0  0  0  0  0  0  0  0  0
    3.1746    5.9243   15.7134 C   0  0  0  0  0  0  0  0  0  0  0  0
    4.4073    6.6556   16.0414 C   0  0  0  0  0  0  0  0  0  0  0  0
    5.0839    7.2054   15.1720 O   0  0  0  0  0  0  0  0  0  0  0  0
    4.8642    6.7564   17.3633 O   0  0  0  0  0  0  0  0  0  0  0  0
  1  2  1  0
  2  3  2  0
  3  4  1  0
  4  5  2  0
  5  6  1  0
  6  7  2  0
  5  8  1  0
  3  9  1  0
  9 10  1  0
 10 11  1  0
 11 12  1  0
 12 13  1  0
 13 14  1  0
 14 15  2  0
 15 16  1  0
 16 17  2  0
 17 18  1  0
 18 19  2  0
 17 20  1  0
 20 21  2  0
 20 22  1  0
 22 23  1  0
 23 24  2  0
 24 25  1  0
 25 26  2  0
 26 27  1  0
 27 28  2  0
 25 29  1  0
 29 30  1  0
 30 31  1  0
 31 32  1  0
 31 33  1  0
 33 34  2  0
 33 35  1  0
 29 36  1  0
 36 37  1  0
 37 38  1  0
 38 39  1  0
 39 40  2  0
 39 41  1  0
  7  2  1  0
 19 14  1  0
 28 23  1  0
 32 24  1  0
M  END
$$$$
