
     RDKit          3D

 41 44  0  0  0  0  0  0  0  0999 V2000
   -0.7913    9.6584   10.0647 C   0  0  0  0  0  0  0  0  0  0  0  0
   -0.6093    9.6084   11.5126 C   0  0  0  0  0  0  0  0  0  0  0  0
    0.4625    8.9801   12.0699 C   0  0  0  0  0  0  0  0  0  0  0  0
    0.5470    8.9351   13.4728 C   0  0  0  0  0  0  0  0  0  0  0  0
   -0.4038    9.4988   14.2852 C   0  0  0  0  0  0  0  0  0  0  0  0
   -1.4770   10.1296   13.7083 C   0  0  0  0  0  0  0  0  0  0  0  0
   -1.5788   10.1840   12.3368 C   0  0  0  0  0  0  0  0  0  0  0  0
   -0.3025    9.4438   15.6205 F   0  0  0  0  0  0  0  0  0  0  0  0
    1.5268    8.4027   11.2742 C   0  0  0  0  0  0  0  0  0  0  0  0
    2.0258    7.0809   11.6514 C   0  0  0  0  0  0  0  0  0  0  0  0
    3.3952    6.7610   12.0449 C   0  0  0  0  0  0  0  0  0  0  0  0
    3.5994    5.6623   13.0451 C   0  0  0  0  0  0  0  0  0  0  0  0
    3.1357    4.4538   12.5846 O   0  0  0  0  0  0  0  0  0  0  0  0
    2.0354    3.7150   12.8283 C   0  0  0  0  0  0  0  0  0  0  0  0
    1.9273    2.4565   12.1856 C   0  0  0  0  0  0  0  0  0  0  0  0
    0.8326    1.6563   12.3875 C   0  0  0  0  0  0  0  0  0  0  0  0
   -0.1990    2.0375   13.2159 C   0  0  0  0  0  0  0  0  0  0  0  0
   -0.0916    3.2674   13.8423 C   0  0  0  0  0  0  0  0  0  0  0  0
    1.0134    4.1072   13.6557 C   0  0  0  0  0  0  0  0  0  0  0  0
   -1.3727    1.2105   13.4463 C   0  0  0  0  0  0  0  0  0  0  0  0
   -2.3370    1.6865   14.0771 O   0  0  0  0  0  0  0  0  0  0  0  0
   -1.4594   -0.1181   12.9786 N   0  0  0  0  0  0  0  0  0  0  0  0
   -2.6395   -0.9105   13.1672 C   0  0  0  0  0  0  0  0  0  0  0  0
   -2.6009   -2.1941   12.6690 C   0  0  0  0  0  0  0  0  0  0  0  0
   -3.7296   -2.9811   12.8375 C   0  0  0  0  0  0  0  0  0  0  0  0
   -4.8491   -2.5267   13.4686 C   0  0  0  0  0  0  0  0  0  0  0  0
   -4.8596   -1.2162   13.9655 C   0  0  0  0  0  0  0  0  0  0  0  0
   -3.7472   -0.4244   13.8056 C   0  0  0  0  0  0  0  0  0  0  0  0
   -3.6870   -4.3287   12.3196 N   0  0  0  0  0  0  0  0  0  0  0  0
   -2.6906   -4.5350   11.2904 C   0  0  0  0  0  0  0  0  0  0  0  0
   -1.3456   -4.0788   11.8244 C   0  0  0  0  0  0  0  0  0  0  0  0
   -1.4782   -2.6662   12.0299 O   0  0  0  0  0  0  0  0  0  0  0  0
   -0.2942   -4.3041   10.8295 C   0  0  0  0  0  0  0  0  0  0  0  0
   -0.0952   -3.5190    9.8683 O   0  0  0  0  0  0  0  0  0  0  0  0
    0.5174   -5.4177   10.9389 O   0  0  0  0  0  0  0  0  0  0  0  0
   -4.5547   -5.3605   12.8049 C   0  0  0  0  0  0  0  0  0  0  0  0
   -3.8831   -6.5132   13.4498 C   0  0  0  0  0  0  0  0  0  0  0  0
   -3.3316   -6.3542   14.8104 C   0  0  0  0  0  0  0  0  0  0  0  0
   -2.6128   -7.5114   15.3636 C   0  0  0  0  0  0  0  0  0  0  0  0
   -2.9889   -8.6654   15.1574 O   0  0  0  0  0  0  0  0  0  0  0  0
   -1.4649   -7.3464   16.1519 O   0  0  0  0  0  0  0  0  0  0  0  0
  1  2  1  0
  2  3  2  0
  3  4  1  0
  4  5  2  0
  5  6  1  0
  6  7  2  0
  5  8  1  0
  3  9  1  0
  9 10  1  0
 10 11  1  0
 11 12  1  0
 12 13  1  0
 13 14  1  0
 14 15  2  0
 15 16  1  0
 16 17  2  0
 17 18  1  0
 18 19  2  0
 17 20  1  0
 20 21  2  0
 20 22  1  0
 22 23  1  0
 23 24  2  0
 24 25  1  0
 25 26  2  0
 26 27  1  0
 27 28  2  0
 25 29  1  0
 29 30  1  0
 30 31  1  0
 31 32  1  0
 31 33  1  0
 33 34  2  0
 33 35  1  0
 29 36  1  0
 36 37  1  0
 37 38  1  0
 38 39  1  0
 39 40  2  0
 39 41  1  0
  7  2  1  0
 19 14  1  0
 28 23  1  0
 32 24  1  0
M  END
$$$$
