
     RDKit          3D

 41 44  0  0  0  0  0  0  0  0999 V2000
   -3.0078   -5.4087   10.1989 C   0  0  0  0  0  0  0  0  0  0  0  0
   -4.0066   -5.1549    9.1643 C   0  0  0  0  0  0  0  0  0  0  0  0
   -5.1909   -4.5501    9.4569 C   0  0  0  0  0  0  0  0  0  0  0  0
   -6.1212   -4.3792    8.4166 C   0  0  0  0  0  0  0  0  0  0  0  0
   -5.8741   -4.7963    7.1332 C   0  0  0  0  0  0  0  0  0  0  0  0
   -4.6754   -5.4027    6.8542 C   0  0  0  0  0  0  0  0  0  0  0  0
   -3.7515   -5.5802    7.8587 C   0  0  0  0  0  0  0  0  0  0  0  0
   -6.7759   -4.6228    6.1571 F   0  0  0  0  0  0  0  0  0  0  0  0
   -5.5009   -4.0441   10.7788 C   0  0  0  0  0  0  0  0  0  0  0  0
   -5.3107   -2.6158   11.0288 C   0  0  0  0  0  0  0  0  0  0  0  0
   -5.5815   -1.9211   12.2843 C   0  0  0  0  0  0  0  0  0  0  0  0
   -4.5297   -0.9919   12.8131 C   0  0  0  0  0  0  0  0  0  0  0  0
   -3.8220   -1.5512   13.8492 O   0  0  0  0  0  0  0  0  0  0  0  0
   -2.5696   -1.3975   14.3226 C   0  0  0  0  0  0  0  0  0  0  0  0
   -2.0060   -0.0975   14.2937 C   0  0  0  0  0  0  0  0  0  0  0  0
   -0.7355    0.1278   14.7569 C   0  0  0  0  0  0  0  0  0  0  0  0
    0.0399   -0.8900   15.2656 C   0  0  0  0  0  0  0  0  0  0  0  0
   -0.5125   -2.1592   15.2925 C   0  0  0  0  0  0  0  0  0  0  0  0
   -1.8067   -2.4209   14.8261 C   0  0  0  0  0  0  0  0  0  0  0  0
    1.3909   -0.6805   15.7612 C   0  0  0  0  0  0  0  0  0  0  0  0
    2.0707   -1.6665   16.1076 O   0  0  0  0  0  0  0  0  0  0  0  0
    1.9626    0.6056   15.8639 N   0  0  0  0  0  0  0  0  0  0  0  0
    3.1589    0.8431   16.6179 C   0  0  0  0  0  0  0  0  0  0  0  0
    3.4950    2.1614   16.8334 C   0  0  0  0  0  0  0  0  0  0  0  0
    4.6478    2.4185   17.5591 C   0  0  0  0  0  0  0  0  0  0  0  0
    5.4374    1.4229   18.0525 C   0  0  0  0  0  0  0  0  0  0  0  0
    5.0705    0.0907   17.8177 C   0  0  0  0  0  0  0  0  0  0  0  0
    3.9297   -0.1791   17.0995 C   0  0  0  0  0  0  0  0  0  0  0  0
    4.9972    3.8009   17.7894 N   0  0  0  0  0  0  0  0  0  0  0  0
    4.3945    4.7264   16.8540 C   0  0  0  0  0  0  0  0  0  0  0  0
    2.8938    4.5022   16.8546 C   0  0  0  0  0  0  0  0  0  0  0  0
    2.7079    3.1765   16.3416 O   0  0  0  0  0  0  0  0  0  0  0  0
    2.2328    5.4449   15.9488 C   0  0  0  0  0  0  0  0  0  0  0  0
    2.6957    6.5887   15.7100 O   0  0  0  0  0  0  0  0  0  0  0  0
    1.0549    5.0765   15.3262 O   0  0  0  0  0  0  0  0  0  0  0  0
    5.8563    4.2021   18.8636 C   0  0  0  0  0  0  0  0  0  0  0  0
    7.3099    4.0931   18.5979 C   0  0  0  0  0  0  0  0  0  0  0  0
    8.1676    3.3899   19.5728 C   0  0  0  0  0  0  0  0  0  0  0  0
    8.4785    4.1161   20.8129 C   0  0  0  0  0  0  0  0  0  0  0  0
    9.6184    4.5070   21.0651 O   0  0  0  0  0  0  0  0  0  0  0  0
    7.4850    4.3936   21.7627 O   0  0  0  0  0  0  0  0  0  0  0  0
  1  2  1  0
  2  3  2  0
  3  4  1  0
  4  5  2  0
  5  6  1  0
  6  7  2  0
  5  8  1  0
  3  9  1  0
  9 10  1  0
 10 11  1  0
 11 12  1  0
 12 13  1  0
 13 14  1  0
 14 15  2  0
 15 16  1  0
 16 17  2  0
 17 18  1  0
 18 19  2  0
 17 20  1  0
 20 21  2  0
 20 22  1  0
 22 23  1  0
 23 24  2  0
 24 25  1  0
 25 26  2  0
 26 27  1  0
 27 28  2  0
 25 29  1  0
 29 30  1  0
 30 31  1  0
 31 32  1  0
 31 33  1  0
 33 34  2  0
 33 35  1  0
 29 36  1  0
 36 37  1  0
 37 38  1  0
 38 39  1  0
 39 40  2  0
 39 41  1  0
  7  2  1  0
 19 14  1  0
 28 23  1  0
 32 24  1  0
M  END
$$$$
