
     RDKit          3D

 41 44  0  0  0  0  0  0  0  0999 V2000
    3.1852   10.2191   14.6534 C   0  0  0  0  0  0  0  0  0  0  0  0
    2.8371   11.1942   13.6237 C   0  0  0  0  0  0  0  0  0  0  0  0
    1.6477   11.1327   12.9638 C   0  0  0  0  0  0  0  0  0  0  0  0
    1.4017   12.0798   11.9541 C   0  0  0  0  0  0  0  0  0  0  0  0
    2.3106   13.0514   11.6199 C   0  0  0  0  0  0  0  0  0  0  0  0
    3.5039   13.1010   12.2952 C   0  0  0  0  0  0  0  0  0  0  0  0
    3.7646   12.1824   13.2864 C   0  0  0  0  0  0  0  0  0  0  0  0
    2.0544   13.9442   10.6538 F   0  0  0  0  0  0  0  0  0  0  0  0
    0.6232   10.1628   13.2945 C   0  0  0  0  0  0  0  0  0  0  0  0
    0.6384    8.8815   12.5898 C   0  0  0  0  0  0  0  0  0  0  0  0
   -0.2562    7.7547   12.8393 C   0  0  0  0  0  0  0  0  0  0  0  0
    0.3576    6.4480   13.2458 C   0  0  0  0  0  0  0  0  0  0  0  0
   -0.5798    5.4492   13.3511 O   0  0  0  0  0  0  0  0  0  0  0  0
   -0.5824    4.1302   13.0750 C   0  0  0  0  0  0  0  0  0  0  0  0
    0.6179    3.5528   12.5907 C   0  0  0  0  0  0  0  0  0  0  0  0
    0.6827    2.2174   12.2875 C   0  0  0  0  0  0  0  0  0  0  0  0
   -0.4056    1.3877   12.4394 C   0  0  0  0  0  0  0  0  0  0  0  0
   -1.5772    1.9538   12.9122 C   0  0  0  0  0  0  0  0  0  0  0  0
   -1.6747    3.3142   13.2298 C   0  0  0  0  0  0  0  0  0  0  0  0
   -0.3662   -0.0312   12.1234 C   0  0  0  0  0  0  0  0  0  0  0  0
    0.7266   -0.5606   11.8406 O   0  0  0  0  0  0  0  0  0  0  0  0
   -1.5267   -0.8341   12.1258 N   0  0  0  0  0  0  0  0  0  0  0  0
   -1.6135   -2.0397   11.3545 C   0  0  0  0  0  0  0  0  0  0  0  0
   -2.3525   -3.0650   11.9023 C   0  0  0  0  0  0  0  0  0  0  0  0
   -2.4516   -4.2421   11.1769 C   0  0  0  0  0  0  0  0  0  0  0  0
   -1.8503   -4.4057    9.9645 C   0  0  0  0  0  0  0  0  0  0  0  0
   -1.1048   -3.3451    9.4317 C   0  0  0  0  0  0  0  0  0  0  0  0
   -0.9979   -2.1717   10.1402 C   0  0  0  0  0  0  0  0  0  0  0  0
   -3.2308   -5.3152   11.7492 N   0  0  0  0  0  0  0  0  0  0  0  0
   -3.4058   -5.2190   13.1826 C   0  0  0  0  0  0  0  0  0  0  0  0
   -3.9795   -3.8523   13.5067 C   0  0  0  0  0  0  0  0  0  0  0  0
   -2.9648   -2.9144   13.1247 O   0  0  0  0  0  0  0  0  0  0  0  0
   -4.2115   -3.7204   14.9472 C   0  0  0  0  0  0  0  0  0  0  0  0
   -3.8367   -2.7150   15.6018 O   0  0  0  0  0  0  0  0  0  0  0  0
   -4.8657   -4.7318   15.6254 O   0  0  0  0  0  0  0  0  0  0  0  0
   -3.7850   -6.3666   10.9490 C   0  0  0  0  0  0  0  0  0  0  0  0
   -3.0563   -7.6562   10.9895 C   0  0  0  0  0  0  0  0  0  0  0  0
   -2.2606   -8.0689    9.8160 C   0  0  0  0  0  0  0  0  0  0  0  0
   -1.8210   -9.4716    9.7851 C   0  0  0  0  0  0  0  0  0  0  0  0
   -1.5736  -10.0948   10.8176 O   0  0  0  0  0  0  0  0  0  0  0  0
   -1.6648  -10.1590    8.5729 O   0  0  0  0  0  0  0  0  0  0  0  0
  1  2  1  0
  2  3  2  0
  3  4  1  0
  4  5  2  0
  5  6  1  0
  6  7  2  0
  5  8  1  0
  3  9  1  0
  9 10  1  0
 10 11  1  0
 11 12  1  0
 12 13  1  0
 13 14  1  0
 14 15  2  0
 15 16  1  0
 16 17  2  0
 17 18  1  0
 18 19  2  0
 17 20  1  0
 20 21  2  0
 20 22  1  0
 22 23  1  0
 23 24  2  0
 24 25  1  0
 25 26  2  0
 26 27  1  0
 27 28  2  0
 25 29  1  0
 29 30  1  0
 30 31  1  0
 31 32  1  0
 31 33  1  0
 33 34  2  0
 33 35  1  0
 29 36  1  0
 36 37  1  0
 37 38  1  0
 38 39  1  0
 39 40  2  0
 39 41  1  0
  7  2  1  0
 19 14  1  0
 28 23  1  0
 32 24  1  0
M  END
$$$$
