
     RDKit          3D

 41 44  0  0  0  0  0  0  0  0999 V2000
    0.4900   -4.6256    9.7681 C   0  0  0  0  0  0  0  0  0  0  0  0
    1.2162   -5.8906    9.8362 C   0  0  0  0  0  0  0  0  0  0  0  0
    0.6787   -6.9835   10.4450 C   0  0  0  0  0  0  0  0  0  0  0  0
    1.4558   -8.1535   10.5099 C   0  0  0  0  0  0  0  0  0  0  0  0
    2.7207   -8.2264    9.9842 C   0  0  0  0  0  0  0  0  0  0  0  0
    3.2476   -7.1170    9.3725 C   0  0  0  0  0  0  0  0  0  0  0  0
    2.5035   -5.9615    9.2992 C   0  0  0  0  0  0  0  0  0  0  0  0
    3.4432   -9.3528   10.0576 F   0  0  0  0  0  0  0  0  0  0  0  0
   -0.6671   -6.9924   10.9818 C   0  0  0  0  0  0  0  0  0  0  0  0
   -1.0537   -5.9072   11.8826 C   0  0  0  0  0  0  0  0  0  0  0  0
   -2.3814   -5.6978   12.4532 C   0  0  0  0  0  0  0  0  0  0  0  0
   -2.6024   -4.4686   13.2836 C   0  0  0  0  0  0  0  0  0  0  0  0
   -2.3109   -3.3191   12.5900 O   0  0  0  0  0  0  0  0  0  0  0  0
   -2.3743   -2.0047   12.8806 C   0  0  0  0  0  0  0  0  0  0  0  0
   -1.1816   -1.2459   12.7789 C   0  0  0  0  0  0  0  0  0  0  0  0
   -1.1758    0.0952   13.0632 C   0  0  0  0  0  0  0  0  0  0  0  0
   -2.3181    0.7562   13.4557 C   0  0  0  0  0  0  0  0  0  0  0  0
   -3.4820    0.0131   13.5547 C   0  0  0  0  0  0  0  0  0  0  0  0
   -3.5195   -1.3580   13.2719 C   0  0  0  0  0  0  0  0  0  0  0  0
   -2.3406    2.1767   13.7658 C   0  0  0  0  0  0  0  0  0  0  0  0
   -3.4363    2.7688   13.8234 O   0  0  0  0  0  0  0  0  0  0  0  0
   -1.1604    2.9124   14.0055 N   0  0  0  0  0  0  0  0  0  0  0  0
   -1.1669    4.3433   14.0972 C   0  0  0  0  0  0  0  0  0  0  0  0
   -0.0116    4.9321   14.5620 C   0  0  0  0  0  0  0  0  0  0  0  0
    0.0079    6.3147   14.6610 C   0  0  0  0  0  0  0  0  0  0  0  0
   -1.0620    7.0866   14.3181 C   0  0  0  0  0  0  0  0  0  0  0  0
   -2.2242    6.4599   13.8482 C   0  0  0  0  0  0  0  0  0  0  0  0
   -2.2578    5.0894   13.7447 C   0  0  0  0  0  0  0  0  0  0  0  0
    1.2212    6.9322   15.1435 N   0  0  0  0  0  0  0  0  0  0  0  0
    2.0741    6.0442   15.9042 C   0  0  0  0  0  0  0  0  0  0  0  0
    2.3482    4.8076   15.0688 C   0  0  0  0  0  0  0  0  0  0  0  0
    1.0758    4.1660   14.9117 O   0  0  0  0  0  0  0  0  0  0  0  0
    3.2418    3.8923   15.7830 C   0  0  0  0  0  0  0  0  0  0  0  0
    3.1046    2.6437   15.7387 O   0  0  0  0  0  0  0  0  0  0  0  0
    4.2792    4.4067   16.5379 O   0  0  0  0  0  0  0  0  0  0  0  0
    1.5409    8.3020   14.8707 C   0  0  0  0  0  0  0  0  0  0  0  0
    1.2461    8.7683   13.4955 C   0  0  0  0  0  0  0  0  0  0  0  0
    2.3309    8.7825   12.4937 C   0  0  0  0  0  0  0  0  0  0  0  0
    3.2684    9.9131   12.5616 C   0  0  0  0  0  0  0  0  0  0  0  0
    3.1706   10.7834   13.4270 O   0  0  0  0  0  0  0  0  0  0  0  0
    4.3162   10.0464   11.6394 O   0  0  0  0  0  0  0  0  0  0  0  0
  1  2  1  0
  2  3  2  0
  3  4  1  0
  4  5  2  0
  5  6  1  0
  6  7  2  0
  5  8  1  0
  3  9  1  0
  9 10  1  0
 10 11  1  0
 11 12  1  0
 12 13  1  0
 13 14  1  0
 14 15  2  0
 15 16  1  0
 16 17  2  0
 17 18  1  0
 18 19  2  0
 17 20  1  0
 20 21  2  0
 20 22  1  0
 22 23  1  0
 23 24  2  0
 24 25  1  0
 25 26  2  0
 26 27  1  0
 27 28  2  0
 25 29  1  0
 29 30  1  0
 30 31  1  0
 31 32  1  0
 31 33  1  0
 33 34  2  0
 33 35  1  0
 29 36  1  0
 36 37  1  0
 37 38  1  0
 38 39  1  0
 39 40  2  0
 39 41  1  0
  7  2  1  0
 19 14  1  0
 28 23  1  0
 32 24  1  0
M  END
$$$$
