
     RDKit          3D

 41 44  0  0  0  0  0  0  0  0999 V2000
   -0.5757   -1.6078   10.7853 C   0  0  0  0  0  0  0  0  0  0  0  0
   -1.6488   -2.4865   11.2419 C   0  0  0  0  0  0  0  0  0  0  0  0
   -2.1627   -2.3820   12.4985 C   0  0  0  0  0  0  0  0  0  0  0  0
   -3.1639   -3.2920   12.8814 C   0  0  0  0  0  0  0  0  0  0  0  0
   -3.6330   -4.2671   12.0382 C   0  0  0  0  0  0  0  0  0  0  0  0
   -3.1059   -4.3584   10.7747 C   0  0  0  0  0  0  0  0  0  0  0  0
   -2.1244   -3.4777   10.3807 C   0  0  0  0  0  0  0  0  0  0  0  0
   -4.5883   -5.1238   12.4249 F   0  0  0  0  0  0  0  0  0  0  0  0
   -1.7477   -1.3490   13.4259 C   0  0  0  0  0  0  0  0  0  0  0  0
   -2.5091   -0.1006   13.4481 C   0  0  0  0  0  0  0  0  0  0  0  0
   -2.5978    0.8696   12.3604 C   0  0  0  0  0  0  0  0  0  0  0  0
   -3.3750    2.1287   12.6049 C   0  0  0  0  0  0  0  0  0  0  0  0
   -2.5548    3.2228   12.7377 O   0  0  0  0  0  0  0  0  0  0  0  0
   -2.7518    4.5553   12.6968 C   0  0  0  0  0  0  0  0  0  0  0  0
   -4.0332    5.0236   12.3130 C   0  0  0  0  0  0  0  0  0  0  0  0
   -4.2999    6.3667   12.2479 C   0  0  0  0  0  0  0  0  0  0  0  0
   -3.3430    7.3095   12.5501 C   0  0  0  0  0  0  0  0  0  0  0  0
   -2.0918    6.8500   12.9243 C   0  0  0  0  0  0  0  0  0  0  0  0
   -1.7888    5.4848   12.9995 C   0  0  0  0  0  0  0  0  0  0  0  0
   -3.5971    8.7399   12.4871 C   0  0  0  0  0  0  0  0  0  0  0  0
   -2.7595    9.5276   12.9693 O   0  0  0  0  0  0  0  0  0  0  0  0
   -4.7635    9.2706   11.8962 N   0  0  0  0  0  0  0  0  0  0  0  0
   -5.0867   10.6651   11.9812 C   0  0  0  0  0  0  0  0  0  0  0  0
   -6.2712   11.0555   11.3964 C   0  0  0  0  0  0  0  0  0  0  0  0
   -6.6069   12.3989   11.4638 C   0  0  0  0  0  0  0  0  0  0  0  0
   -5.8128   13.3200   12.0795 C   0  0  0  0  0  0  0  0  0  0  0  0
   -4.6133   12.8937   12.6658 C   0  0  0  0  0  0  0  0  0  0  0  0
   -4.2677   11.5643   12.6067 C   0  0  0  0  0  0  0  0  0  0  0  0
   -7.8515   12.8072   10.8551 N   0  0  0  0  0  0  0  0  0  0  0  0
   -8.3499   11.8873    9.8551 C   0  0  0  0  0  0  0  0  0  0  0  0
   -8.4359   10.5045   10.4735 C   0  0  0  0  0  0  0  0  0  0  0  0
   -7.0826   10.1372   10.7718 O   0  0  0  0  0  0  0  0  0  0  0  0
   -8.9736    9.5422    9.5086 C   0  0  0  0  0  0  0  0  0  0  0  0
   -9.8289    9.8597    8.6441 O   0  0  0  0  0  0  0  0  0  0  0  0
   -8.5332    8.2323    9.5380 O   0  0  0  0  0  0  0  0  0  0  0  0
   -8.5252   14.0143   11.2318 C   0  0  0  0  0  0  0  0  0  0  0  0
   -8.4312   15.1311   10.2625 C   0  0  0  0  0  0  0  0  0  0  0  0
   -7.1019   15.5458    9.7711 C   0  0  0  0  0  0  0  0  0  0  0  0
   -7.0089   16.8971    9.1991 C   0  0  0  0  0  0  0  0  0  0  0  0
   -7.9998   17.4856    8.7658 O   0  0  0  0  0  0  0  0  0  0  0  0
   -5.7826   17.5728    9.1234 O   0  0  0  0  0  0  0  0  0  0  0  0
  1  2  1  0
  2  3  2  0
  3  4  1  0
  4  5  2  0
  5  6  1  0
  6  7  2  0
  5  8  1  0
  3  9  1  0
  9 10  1  0
 10 11  1  0
 11 12  1  0
 12 13  1  0
 13 14  1  0
 14 15  2  0
 15 16  1  0
 16 17  2  0
 17 18  1  0
 18 19  2  0
 17 20  1  0
 20 21  2  0
 20 22  1  0
 22 23  1  0
 23 24  2  0
 24 25  1  0
 25 26  2  0
 26 27  1  0
 27 28  2  0
 25 29  1  0
 29 30  1  0
 30 31  1  0
 31 32  1  0
 31 33  1  0
 33 34  2  0
 33 35  1  0
 29 36  1  0
 36 37  1  0
 37 38  1  0
 38 39  1  0
 39 40  2  0
 39 41  1  0
  7  2  1  0
 19 14  1  0
 28 23  1  0
 32 24  1  0
M  END
$$$$
