
     RDKit          3D

 41 44  0  0  0  0  0  0  0  0999 V2000
    3.0170    8.0132   12.1027 C   0  0  0  0  0  0  0  0  0  0  0  0
    2.2741    8.7465   11.0816 C   0  0  0  0  0  0  0  0  0  0  0  0
    1.0380    9.2578   11.3359 C   0  0  0  0  0  0  0  0  0  0  0  0
    0.3654    9.9135   10.2897 C   0  0  0  0  0  0  0  0  0  0  0  0
    0.9103   10.0530    9.0385 C   0  0  0  0  0  0  0  0  0  0  0  0
    2.1573    9.5336    8.7986 C   0  0  0  0  0  0  0  0  0  0  0  0
    2.8321    8.8873    9.8091 C   0  0  0  0  0  0  0  0  0  0  0  0
    0.2505   10.6822    8.0561 F   0  0  0  0  0  0  0  0  0  0  0  0
    0.4206    9.1873   12.6449 C   0  0  0  0  0  0  0  0  0  0  0  0
   -0.4899    8.0753   12.9150 C   0  0  0  0  0  0  0  0  0  0  0  0
   -1.1655    7.8080   14.1817 C   0  0  0  0  0  0  0  0  0  0  0  0
   -1.2869    6.3802   14.6245 C   0  0  0  0  0  0  0  0  0  0  0  0
   -1.6923    5.5566   13.6024 O   0  0  0  0  0  0  0  0  0  0  0  0
   -1.8607    4.2253   13.4791 C   0  0  0  0  0  0  0  0  0  0  0  0
   -2.6764    3.7565   12.4192 C   0  0  0  0  0  0  0  0  0  0  0  0
   -2.8916    2.4147   12.2390 C   0  0  0  0  0  0  0  0  0  0  0  0
   -2.3295    1.4737   13.0723 C   0  0  0  0  0  0  0  0  0  0  0  0
   -1.5334    1.9337   14.1073 C   0  0  0  0  0  0  0  0  0  0  0  0
   -1.2954    3.2976   14.3175 C   0  0  0  0  0  0  0  0  0  0  0  0
   -2.5427    0.0449   12.9063 C   0  0  0  0  0  0  0  0  0  0  0  0
   -3.4724   -0.3499   12.1755 O   0  0  0  0  0  0  0  0  0  0  0  0
   -1.7301   -0.9155   13.5459 N   0  0  0  0  0  0  0  0  0  0  0  0
   -1.6084   -2.2548   13.0485 C   0  0  0  0  0  0  0  0  0  0  0  0
   -0.6876   -3.0611   13.6804 C   0  0  0  0  0  0  0  0  0  0  0  0
   -0.5498   -4.3608   13.2182 C   0  0  0  0  0  0  0  0  0  0  0  0
   -1.2852   -4.8481   12.1791 C   0  0  0  0  0  0  0  0  0  0  0  0
   -2.2147   -4.0047   11.5552 C   0  0  0  0  0  0  0  0  0  0  0  0
   -2.3620   -2.7133   12.0032 C   0  0  0  0  0  0  0  0  0  0  0  0
    0.4121   -5.2076   13.8843 N   0  0  0  0  0  0  0  0  0  0  0  0
    1.4333   -4.4839   14.6110 C   0  0  0  0  0  0  0  0  0  0  0  0
    0.7532   -3.5205   15.5657 C   0  0  0  0  0  0  0  0  0  0  0  0
    0.0615   -2.5831   14.7302 O   0  0  0  0  0  0  0  0  0  0  0  0
    1.7482   -2.7897   16.3543 C   0  0  0  0  0  0  0  0  0  0  0  0
    2.5900   -3.3711   17.0846 O   0  0  0  0  0  0  0  0  0  0  0  0
    1.7745   -1.4086   16.3035 O   0  0  0  0  0  0  0  0  0  0  0  0
    0.3369   -6.6374   13.8297 C   0  0  0  0  0  0  0  0  0  0  0  0
    0.6013   -7.2439   12.5039 C   0  0  0  0  0  0  0  0  0  0  0  0
    1.8962   -6.9875   11.8420 C   0  0  0  0  0  0  0  0  0  0  0  0
    2.2180   -7.8358   10.6850 C   0  0  0  0  0  0  0  0  0  0  0  0
    3.0594   -8.7320   10.7541 O   0  0  0  0  0  0  0  0  0  0  0  0
    1.5768   -7.6575    9.4507 O   0  0  0  0  0  0  0  0  0  0  0  0
  1  2  1  0
  2  3  2  0
  3  4  1  0
  4  5  2  0
  5  6  1  0
  6  7  2  0
  5  8  1  0
  3  9  1  0
  9 10  1  0
 10 11  1  0
 11 12  1  0
 12 13  1  0
 13 14  1  0
 14 15  2  0
 15 16  1  0
 16 17  2  0
 17 18  1  0
 18 19  2  0
 17 20  1  0
 20 21  2  0
 20 22  1  0
 22 23  1  0
 23 24  2  0
 24 25  1  0
 25 26  2  0
 26 27  1  0
 27 28  2  0
 25 29  1  0
 29 30  1  0
 30 31  1  0
 31 32  1  0
 31 33  1  0
 33 34  2  0
 33 35  1  0
 29 36  1  0
 36 37  1  0
 37 38  1  0
 38 39  1  0
 39 40  2  0
 39 41  1  0
  7  2  1  0
 19 14  1  0
 28 23  1  0
 32 24  1  0
M  END
$$$$
