
     RDKit          3D

 41 44  0  0  0  0  0  0  0  0999 V2000
    6.1194   -2.5166   11.1617 C   0  0  0  0  0  0  0  0  0  0  0  0
    6.3736   -2.6398   12.5943 C   0  0  0  0  0  0  0  0  0  0  0  0
    6.6988   -1.5557   13.3512 C   0  0  0  0  0  0  0  0  0  0  0  0
    6.9728   -1.7595   14.7152 C   0  0  0  0  0  0  0  0  0  0  0  0
    6.9213   -3.0002   15.2983 C   0  0  0  0  0  0  0  0  0  0  0  0
    6.5906   -4.0823   14.5224 C   0  0  0  0  0  0  0  0  0  0  0  0
    6.3197   -3.9043   13.1848 C   0  0  0  0  0  0  0  0  0  0  0  0
    7.1863   -3.1707   16.6009 F   0  0  0  0  0  0  0  0  0  0  0  0
    6.7281   -0.2108   12.8128 C   0  0  0  0  0  0  0  0  0  0  0  0
    5.8515    0.7903   13.4195 C   0  0  0  0  0  0  0  0  0  0  0  0
    5.5821    2.1258   12.8942 C   0  0  0  0  0  0  0  0  0  0  0  0
    4.1980    2.4177   12.3957 C   0  0  0  0  0  0  0  0  0  0  0  0
    3.2519    2.2574   13.3789 O   0  0  0  0  0  0  0  0  0  0  0  0
    1.9842    1.8008   13.3974 C   0  0  0  0  0  0  0  0  0  0  0  0
    1.2934    1.8153   14.6348 C   0  0  0  0  0  0  0  0  0  0  0  0
    0.0026    1.3622   14.7241 C   0  0  0  0  0  0  0  0  0  0  0  0
   -0.6717    0.8783   13.6255 C   0  0  0  0  0  0  0  0  0  0  0  0
    0.0051    0.8646   12.4178 C   0  0  0  0  0  0  0  0  0  0  0  0
    1.3237    1.3199   12.2949 C   0  0  0  0  0  0  0  0  0  0  0  0
   -2.0395    0.3892   13.6915 C   0  0  0  0  0  0  0  0  0  0  0  0
   -2.6274    0.0841   12.6352 O   0  0  0  0  0  0  0  0  0  0  0  0
   -2.7283    0.2464   14.9149 N   0  0  0  0  0  0  0  0  0  0  0  0
   -4.1195   -0.0973   14.9636 C   0  0  0  0  0  0  0  0  0  0  0  0
   -4.8479    0.4443   15.9997 C   0  0  0  0  0  0  0  0  0  0  0  0
   -6.1955    0.1270   16.0701 C   0  0  0  0  0  0  0  0  0  0  0  0
   -6.8024   -0.6879   15.1615 C   0  0  0  0  0  0  0  0  0  0  0  0
   -6.0362   -1.2246   14.1178 C   0  0  0  0  0  0  0  0  0  0  0  0
   -4.6984   -0.9184   14.0354 C   0  0  0  0  0  0  0  0  0  0  0  0
   -6.9602    0.6993   17.1537 N   0  0  0  0  0  0  0  0  0  0  0  0
   -6.1593    1.1271   18.2806 C   0  0  0  0  0  0  0  0  0  0  0  0
   -5.0809    2.0674   17.7753 C   0  0  0  0  0  0  0  0  0  0  0  0
   -4.2491    1.2683   16.9240 O   0  0  0  0  0  0  0  0  0  0  0  0
   -4.2652    2.5596   18.8881 C   0  0  0  0  0  0  0  0  0  0  0  0
   -3.0096    2.5016   18.8817 O   0  0  0  0  0  0  0  0  0  0  0  0
   -4.8856    3.1111   19.9934 O   0  0  0  0  0  0  0  0  0  0  0  0
   -8.3853    0.8352   17.0933 C   0  0  0  0  0  0  0  0  0  0  0  0
   -9.1415    0.1496   18.1675 C   0  0  0  0  0  0  0  0  0  0  0  0
   -8.4309   -0.7872   19.0608 C   0  0  0  0  0  0  0  0  0  0  0  0
   -9.2160   -1.3616   20.1633 C   0  0  0  0  0  0  0  0  0  0  0  0
   -9.1671   -0.8973   21.3025 O   0  0  0  0  0  0  0  0  0  0  0  0
  -10.0557   -2.4662   19.9608 O   0  0  0  0  0  0  0  0  0  0  0  0
  1  2  1  0
  2  3  2  0
  3  4  1  0
  4  5  2  0
  5  6  1  0
  6  7  2  0
  5  8  1  0
  3  9  1  0
  9 10  1  0
 10 11  1  0
 11 12  1  0
 12 13  1  0
 13 14  1  0
 14 15  2  0
 15 16  1  0
 16 17  2  0
 17 18  1  0
 18 19  2  0
 17 20  1  0
 20 21  2  0
 20 22  1  0
 22 23  1  0
 23 24  2  0
 24 25  1  0
 25 26  2  0
 26 27  1  0
 27 28  2  0
 25 29  1  0
 29 30  1  0
 30 31  1  0
 31 32  1  0
 31 33  1  0
 33 34  2  0
 33 35  1  0
 29 36  1  0
 36 37  1  0
 37 38  1  0
 38 39  1  0
 39 40  2  0
 39 41  1  0
  7  2  1  0
 19 14  1  0
 28 23  1  0
 32 24  1  0
M  END
$$$$
