
     RDKit          3D

 41 44  0  0  0  0  0  0  0  0999 V2000
   -0.9976   -2.9013   11.0189 C   0  0  0  0  0  0  0  0  0  0  0  0
   -2.0817   -3.8281   11.3320 C   0  0  0  0  0  0  0  0  0  0  0  0
   -2.7242   -3.7864   12.5318 C   0  0  0  0  0  0  0  0  0  0  0  0
   -3.7282   -4.7396   12.7780 C   0  0  0  0  0  0  0  0  0  0  0  0
   -4.0760   -5.6957   11.8577 C   0  0  0  0  0  0  0  0  0  0  0  0
   -3.4203   -5.7235   10.6529 C   0  0  0  0  0  0  0  0  0  0  0  0
   -2.4338   -4.7997   10.3926 C   0  0  0  0  0  0  0  0  0  0  0  0
   -5.0367   -6.5944   12.1142 F   0  0  0  0  0  0  0  0  0  0  0  0
   -2.4405   -2.7773   13.5322 C   0  0  0  0  0  0  0  0  0  0  0  0
   -3.0730   -1.4672   13.3838 C   0  0  0  0  0  0  0  0  0  0  0  0
   -2.7458   -0.2653   14.1458 C   0  0  0  0  0  0  0  0  0  0  0  0
   -1.9797    0.8199   13.4497 C   0  0  0  0  0  0  0  0  0  0  0  0
   -2.8089    1.7854   12.9322 O   0  0  0  0  0  0  0  0  0  0  0  0
   -2.7574    3.1302   12.8642 C   0  0  0  0  0  0  0  0  0  0  0  0
   -3.9115    3.8147   12.4079 C   0  0  0  0  0  0  0  0  0  0  0  0
   -3.9251    5.1822   12.3118 C   0  0  0  0  0  0  0  0  0  0  0  0
   -2.8284    5.9421   12.6516 C   0  0  0  0  0  0  0  0  0  0  0  0
   -1.7019    5.2714   13.0966 C   0  0  0  0  0  0  0  0  0  0  0  0
   -1.6571    3.8759   13.2050 C   0  0  0  0  0  0  0  0  0  0  0  0
   -2.8139    7.3931   12.5572 C   0  0  0  0  0  0  0  0  0  0  0  0
   -1.9769    8.0367   13.2202 O   0  0  0  0  0  0  0  0  0  0  0  0
   -3.7178    8.1019   11.7374 N   0  0  0  0  0  0  0  0  0  0  0  0
   -3.8073    9.5325   11.7717 C   0  0  0  0  0  0  0  0  0  0  0  0
   -4.9534   10.0869   11.2456 C   0  0  0  0  0  0  0  0  0  0  0  0
   -5.0646   11.4685   11.2658 C   0  0  0  0  0  0  0  0  0  0  0  0
   -4.0913   12.2721   11.7808 C   0  0  0  0  0  0  0  0  0  0  0  0
   -2.9360   11.6800   12.3093 C   0  0  0  0  0  0  0  0  0  0  0  0
   -2.8122   10.3108   12.2960 C   0  0  0  0  0  0  0  0  0  0  0  0
   -6.2686   12.0493   10.7189 N   0  0  0  0  0  0  0  0  0  0  0  0
   -6.9784   11.1835    9.8017 C   0  0  0  0  0  0  0  0  0  0  0  0
   -7.2391    9.8590   10.4943 C   0  0  0  0  0  0  0  0  0  0  0  0
   -5.9438    9.2886   10.7227 O   0  0  0  0  0  0  0  0  0  0  0  0
   -7.9918    8.9592    9.6167 C   0  0  0  0  0  0  0  0  0  0  0  0
   -7.6005    7.7954    9.3479 O   0  0  0  0  0  0  0  0  0  0  0  0
   -9.1785    9.3926    9.0559 O   0  0  0  0  0  0  0  0  0  0  0  0
   -6.7121   13.3641   11.0762 C   0  0  0  0  0  0  0  0  0  0  0  0
   -6.1300   14.4745   10.2863 C   0  0  0  0  0  0  0  0  0  0  0  0
   -6.3878   14.5349    8.8336 C   0  0  0  0  0  0  0  0  0  0  0  0
   -6.1024   15.8164    8.1719 C   0  0  0  0  0  0  0  0  0  0  0  0
   -6.4516   16.8900    8.6633 O   0  0  0  0  0  0  0  0  0  0  0  0
   -5.4181   15.8679    6.9490 O   0  0  0  0  0  0  0  0  0  0  0  0
  1  2  1  0
  2  3  2  0
  3  4  1  0
  4  5  2  0
  5  6  1  0
  6  7  2  0
  5  8  1  0
  3  9  1  0
  9 10  1  0
 10 11  1  0
 11 12  1  0
 12 13  1  0
 13 14  1  0
 14 15  2  0
 15 16  1  0
 16 17  2  0
 17 18  1  0
 18 19  2  0
 17 20  1  0
 20 21  2  0
 20 22  1  0
 22 23  1  0
 23 24  2  0
 24 25  1  0
 25 26  2  0
 26 27  1  0
 27 28  2  0
 25 29  1  0
 29 30  1  0
 30 31  1  0
 31 32  1  0
 31 33  1  0
 33 34  2  0
 33 35  1  0
 29 36  1  0
 36 37  1  0
 37 38  1  0
 38 39  1  0
 39 40  2  0
 39 41  1  0
  7  2  1  0
 19 14  1  0
 28 23  1  0
 32 24  1  0
M  END
$$$$
