
     RDKit          3D

 41 44  0  0  0  0  0  0  0  0999 V2000
    5.0740   -6.8936   -0.0212 C   0  0  0  0  0  0  0  0  0  0  0  0
    4.2178   -5.8012   -0.4749 C   0  0  0  0  0  0  0  0  0  0  0  0
    2.9566   -5.6411    0.0127 C   0  0  0  0  0  0  0  0  0  0  0  0
    2.1758   -4.5923   -0.5044 C   0  0  0  0  0  0  0  0  0  0  0  0
    2.6407   -3.7366   -1.4706 C   0  0  0  0  0  0  0  0  0  0  0  0
    3.9142   -3.9103   -1.9506 C   0  0  0  0  0  0  0  0  0  0  0  0
    4.6945   -4.9315   -1.4582 C   0  0  0  0  0  0  0  0  0  0  0  0
    1.8783   -2.7434   -1.9488 F   0  0  0  0  0  0  0  0  0  0  0  0
    2.4165   -6.4784    1.0647 C   0  0  0  0  0  0  0  0  0  0  0  0
    2.4439   -5.9638    2.4333 C   0  0  0  0  0  0  0  0  0  0  0  0
    2.0373   -6.6920    3.6319 C   0  0  0  0  0  0  0  0  0  0  0  0
    2.1134   -5.9760    4.9475 C   0  0  0  0  0  0  0  0  0  0  0  0
    1.4694   -4.7629    4.9118 O   0  0  0  0  0  0  0  0  0  0  0  0
    1.2137   -3.8076    5.8273 C   0  0  0  0  0  0  0  0  0  0  0  0
    1.7516   -2.5156    5.6038 C   0  0  0  0  0  0  0  0  0  0  0  0
    1.5321   -1.4991    6.4971 C   0  0  0  0  0  0  0  0  0  0  0  0
    0.7862   -1.6882    7.6390 C   0  0  0  0  0  0  0  0  0  0  0  0
    0.2621   -2.9512    7.8555 C   0  0  0  0  0  0  0  0  0  0  0  0
    0.4694   -4.0096    6.9622 C   0  0  0  0  0  0  0  0  0  0  0  0
    0.5395   -0.6294    8.6046 C   0  0  0  0  0  0  0  0  0  0  0  0
    0.9837    0.5136    8.3797 O   0  0  0  0  0  0  0  0  0  0  0  0
   -0.1888   -0.8508    9.7929 N   0  0  0  0  0  0  0  0  0  0  0  0
   -0.3654    0.1794   10.7744 C   0  0  0  0  0  0  0  0  0  0  0  0
   -0.6477   -0.2384   12.0563 C   0  0  0  0  0  0  0  0  0  0  0  0
   -0.8238    0.7381   13.0244 C   0  0  0  0  0  0  0  0  0  0  0  0
   -0.7269    2.0688   12.7455 C   0  0  0  0  0  0  0  0  0  0  0  0
   -0.4386    2.4645   11.4322 C   0  0  0  0  0  0  0  0  0  0  0  0
   -0.2613    1.5069   10.4618 C   0  0  0  0  0  0  0  0  0  0  0  0
   -1.1147    0.2996   14.3695 N   0  0  0  0  0  0  0  0  0  0  0  0
   -1.6542   -1.0410   14.4503 C   0  0  0  0  0  0  0  0  0  0  0  0
   -0.7108   -1.9838   13.7269 C   0  0  0  0  0  0  0  0  0  0  0  0
   -0.7485   -1.5777   12.3525 O   0  0  0  0  0  0  0  0  0  0  0  0
   -1.1955   -3.3634   13.8144 C   0  0  0  0  0  0  0  0  0  0  0  0
   -1.3541   -4.0885   12.8000 O   0  0  0  0  0  0  0  0  0  0  0  0
   -1.4938   -3.9016   15.0521 O   0  0  0  0  0  0  0  0  0  0  0  0
   -0.8708    1.1291   15.5120 C   0  0  0  0  0  0  0  0  0  0  0  0
   -1.9904    2.0122   15.9148 C   0  0  0  0  0  0  0  0  0  0  0  0
   -2.5428    1.8949   17.2792 C   0  0  0  0  0  0  0  0  0  0  0  0
   -4.0062    1.8003   17.3859 C   0  0  0  0  0  0  0  0  0  0  0  0
   -4.7468    2.1818   16.4794 O   0  0  0  0  0  0  0  0  0  0  0  0
   -4.6199    1.2697   18.5296 O   0  0  0  0  0  0  0  0  0  0  0  0
  1  2  1  0
  2  3  2  0
  3  4  1  0
  4  5  2  0
  5  6  1  0
  6  7  2  0
  5  8  1  0
  3  9  1  0
  9 10  1  0
 10 11  1  0
 11 12  1  0
 12 13  1  0
 13 14  1  0
 14 15  2  0
 15 16  1  0
 16 17  2  0
 17 18  1  0
 18 19  2  0
 17 20  1  0
 20 21  2  0
 20 22  1  0
 22 23  1  0
 23 24  2  0
 24 25  1  0
 25 26  2  0
 26 27  1  0
 27 28  2  0
 25 29  1  0
 29 30  1  0
 30 31  1  0
 31 32  1  0
 31 33  1  0
 33 34  2  0
 33 35  1  0
 29 36  1  0
 36 37  1  0
 37 38  1  0
 38 39  1  0
 39 40  2  0
 39 41  1  0
  7  2  1  0
 19 14  1  0
 28 23  1  0
 32 24  1  0
M  END
$$$$
