
     RDKit          3D

 41 44  0  0  0  0  0  0  0  0999 V2000
   -6.2333   -4.7972   10.3139 C   0  0  0  0  0  0  0  0  0  0  0  0
   -4.8151   -5.1447   10.3263 C   0  0  0  0  0  0  0  0  0  0  0  0
   -3.9267   -4.4655   11.1031 C   0  0  0  0  0  0  0  0  0  0  0  0
   -2.5703   -4.8286   11.0287 C   0  0  0  0  0  0  0  0  0  0  0  0
   -2.1219   -5.8336   10.2097 C   0  0  0  0  0  0  0  0  0  0  0  0
   -3.0298   -6.5094    9.4343 C   0  0  0  0  0  0  0  0  0  0  0  0
   -4.3621   -6.1689    9.4918 C   0  0  0  0  0  0  0  0  0  0  0  0
   -0.8238   -6.1627   10.1552 F   0  0  0  0  0  0  0  0  0  0  0  0
   -4.3351   -3.4243   12.0243 C   0  0  0  0  0  0  0  0  0  0  0  0
   -4.1789   -2.0334   11.6005 C   0  0  0  0  0  0  0  0  0  0  0  0
   -4.4564   -0.8525   12.4135 C   0  0  0  0  0  0  0  0  0  0  0  0
   -3.4295   -0.4407   13.4261 C   0  0  0  0  0  0  0  0  0  0  0  0
   -2.9691    0.8344   13.2035 O   0  0  0  0  0  0  0  0  0  0  0  0
   -2.0105    1.5983   13.7634 C   0  0  0  0  0  0  0  0  0  0  0  0
   -1.3953    1.1250   14.9492 C   0  0  0  0  0  0  0  0  0  0  0  0
   -0.4153    1.8542   15.5715 C   0  0  0  0  0  0  0  0  0  0  0  0
    0.0094    3.0664   15.0755 C   0  0  0  0  0  0  0  0  0  0  0  0
   -0.5932    3.5271   13.9174 C   0  0  0  0  0  0  0  0  0  0  0  0
   -1.5970    2.8057   13.2593 C   0  0  0  0  0  0  0  0  0  0  0  0
    1.0445    3.8620   15.7159 C   0  0  0  0  0  0  0  0  0  0  0  0
    1.2553    5.0228   15.3127 O   0  0  0  0  0  0  0  0  0  0  0  0
    1.8223    3.3646   16.7831 N   0  0  0  0  0  0  0  0  0  0  0  0
    3.2314    3.6148   16.8724 C   0  0  0  0  0  0  0  0  0  0  0  0
    3.8862    3.0518   17.9456 C   0  0  0  0  0  0  0  0  0  0  0  0
    5.2492    3.2792   18.0558 C   0  0  0  0  0  0  0  0  0  0  0  0
    5.9402    4.0279   17.1503 C   0  0  0  0  0  0  0  0  0  0  0  0
    5.2476    4.5884   16.0683 C   0  0  0  0  0  0  0  0  0  0  0  0
    3.8956    4.3711   15.9463 C   0  0  0  0  0  0  0  0  0  0  0  0
    5.9365    2.6845   19.1783 N   0  0  0  0  0  0  0  0  0  0  0  0
    5.0711    2.3404   20.2862 C   0  0  0  0  0  0  0  0  0  0  0  0
    3.9486    1.4625   19.7653 C   0  0  0  0  0  0  0  0  0  0  0  0
    3.2020    2.2939   18.8672 O   0  0  0  0  0  0  0  0  0  0  0  0
    3.0645    1.0548   20.8600 C   0  0  0  0  0  0  0  0  0  0  0  0
    3.4662    0.9423   22.0456 O   0  0  0  0  0  0  0  0  0  0  0  0
    1.7360    0.7803   20.5942 O   0  0  0  0  0  0  0  0  0  0  0  0
    7.3502    2.4513   19.1710 C   0  0  0  0  0  0  0  0  0  0  0  0
    8.1359    3.2404   20.1485 C   0  0  0  0  0  0  0  0  0  0  0  0
    8.0210    4.7125   20.1416 C   0  0  0  0  0  0  0  0  0  0  0  0
    8.6050    5.4191   21.2911 C   0  0  0  0  0  0  0  0  0  0  0  0
    9.1671    4.8145   22.2045 O   0  0  0  0  0  0  0  0  0  0  0  0
    8.5448    6.8163   21.3940 O   0  0  0  0  0  0  0  0  0  0  0  0
  1  2  1  0
  2  3  2  0
  3  4  1  0
  4  5  2  0
  5  6  1  0
  6  7  2  0
  5  8  1  0
  3  9  1  0
  9 10  1  0
 10 11  1  0
 11 12  1  0
 12 13  1  0
 13 14  1  0
 14 15  2  0
 15 16  1  0
 16 17  2  0
 17 18  1  0
 18 19  2  0
 17 20  1  0
 20 21  2  0
 20 22  1  0
 22 23  1  0
 23 24  2  0
 24 25  1  0
 25 26  2  0
 26 27  1  0
 27 28  2  0
 25 29  1  0
 29 30  1  0
 30 31  1  0
 31 32  1  0
 31 33  1  0
 33 34  2  0
 33 35  1  0
 29 36  1  0
 36 37  1  0
 37 38  1  0
 38 39  1  0
 39 40  2  0
 39 41  1  0
  7  2  1  0
 19 14  1  0
 28 23  1  0
 32 24  1  0
M  END
$$$$
