
     RDKit          3D

 41 44  0  0  0  0  0  0  0  0999 V2000
   -2.3562   10.1343   11.5417 C   0  0  0  0  0  0  0  0  0  0  0  0
   -2.6688   10.0222   12.9637 C   0  0  0  0  0  0  0  0  0  0  0  0
   -1.8146    9.4110   13.8301 C   0  0  0  0  0  0  0  0  0  0  0  0
   -2.2042    9.3022   15.1768 C   0  0  0  0  0  0  0  0  0  0  0  0
   -3.4014    9.7880   15.6376 C   0  0  0  0  0  0  0  0  0  0  0  0
   -4.2505   10.4027   14.7523 C   0  0  0  0  0  0  0  0  0  0  0  0
   -3.8883   10.5186   13.4296 C   0  0  0  0  0  0  0  0  0  0  0  0
   -3.7518    9.6731   16.9261 F   0  0  0  0  0  0  0  0  0  0  0  0
   -0.5155    8.9151   13.4229 C   0  0  0  0  0  0  0  0  0  0  0  0
   -0.4172    7.5208   12.9932 C   0  0  0  0  0  0  0  0  0  0  0  0
    0.7051    6.9209   12.2770 C   0  0  0  0  0  0  0  0  0  0  0  0
    0.5926    5.4798   11.8770 C   0  0  0  0  0  0  0  0  0  0  0  0
    0.6659    4.6375   12.9599 O   0  0  0  0  0  0  0  0  0  0  0  0
    0.4487    3.3201   13.1419 C   0  0  0  0  0  0  0  0  0  0  0  0
    0.8400    2.7492   14.3786 C   0  0  0  0  0  0  0  0  0  0  0  0
    0.6504    1.4145   14.6276 C   0  0  0  0  0  0  0  0  0  0  0  0
    0.0768    0.5792   13.6953 C   0  0  0  0  0  0  0  0  0  0  0  0
   -0.3043    1.1388   12.4877 C   0  0  0  0  0  0  0  0  0  0  0  0
   -0.1232    2.4981   12.2037 C   0  0  0  0  0  0  0  0  0  0  0  0
   -0.1340   -0.8400   13.9313 C   0  0  0  0  0  0  0  0  0  0  0  0
    0.3203   -1.3572   14.9707 O   0  0  0  0  0  0  0  0  0  0  0  0
   -0.8385   -1.6567   13.0211 N   0  0  0  0  0  0  0  0  0  0  0  0
   -0.3795   -2.9693   12.6714 C   0  0  0  0  0  0  0  0  0  0  0  0
   -1.2664   -3.7635   11.9785 C   0  0  0  0  0  0  0  0  0  0  0  0
   -0.8475   -5.0378   11.6288 C   0  0  0  0  0  0  0  0  0  0  0  0
    0.3902   -5.5124   11.9463 C   0  0  0  0  0  0  0  0  0  0  0  0
    1.2717   -4.6819   12.6518 C   0  0  0  0  0  0  0  0  0  0  0  0
    0.8696   -3.4155   13.0051 C   0  0  0  0  0  0  0  0  0  0  0  0
   -1.7759   -5.8684   10.8978 N   0  0  0  0  0  0  0  0  0  0  0  0
   -3.1604   -5.4703   11.0361 C   0  0  0  0  0  0  0  0  0  0  0  0
   -3.2792   -4.0045   10.6625 C   0  0  0  0  0  0  0  0  0  0  0  0
   -2.5186   -3.2980   11.6512 O   0  0  0  0  0  0  0  0  0  0  0  0
   -4.6734   -3.5630   10.7499 C   0  0  0  0  0  0  0  0  0  0  0  0
   -5.6157   -4.1918   10.2054 O   0  0  0  0  0  0  0  0  0  0  0  0
   -4.9792   -2.4135   11.4541 O   0  0  0  0  0  0  0  0  0  0  0  0
   -1.3429   -6.9770   10.1000 C   0  0  0  0  0  0  0  0  0  0  0  0
   -1.1670   -8.2583   10.8232 C   0  0  0  0  0  0  0  0  0  0  0  0
   -0.3111   -8.2928   12.0260 C   0  0  0  0  0  0  0  0  0  0  0  0
   -0.5086   -9.4303   12.9363 C   0  0  0  0  0  0  0  0  0  0  0  0
   -1.0260   -9.2895   14.0446 O   0  0  0  0  0  0  0  0  0  0  0  0
   -0.1138  -10.7271   12.5775 O   0  0  0  0  0  0  0  0  0  0  0  0
  1  2  1  0
  2  3  2  0
  3  4  1  0
  4  5  2  0
  5  6  1  0
  6  7  2  0
  5  8  1  0
  3  9  1  0
  9 10  1  0
 10 11  1  0
 11 12  1  0
 12 13  1  0
 13 14  1  0
 14 15  2  0
 15 16  1  0
 16 17  2  0
 17 18  1  0
 18 19  2  0
 17 20  1  0
 20 21  2  0
 20 22  1  0
 22 23  1  0
 23 24  2  0
 24 25  1  0
 25 26  2  0
 26 27  1  0
 27 28  2  0
 25 29  1  0
 29 30  1  0
 30 31  1  0
 31 32  1  0
 31 33  1  0
 33 34  2  0
 33 35  1  0
 29 36  1  0
 36 37  1  0
 37 38  1  0
 38 39  1  0
 39 40  2  0
 39 41  1  0
  7  2  1  0
 19 14  1  0
 28 23  1  0
 32 24  1  0
M  END
$$$$
