
     RDKit          3D

 41 44  0  0  0  0  0  0  0  0999 V2000
   -3.4177   -7.3397    7.6673 C   0  0  0  0  0  0  0  0  0  0  0  0
   -4.0197   -7.3408    8.9976 C   0  0  0  0  0  0  0  0  0  0  0  0
   -3.7482   -6.3562    9.8982 C   0  0  0  0  0  0  0  0  0  0  0  0
   -4.3305   -6.4485   11.1747 C   0  0  0  0  0  0  0  0  0  0  0  0
   -5.1537   -7.4852   11.5343 C   0  0  0  0  0  0  0  0  0  0  0  0
   -5.4187   -8.4687   10.6151 C   0  0  0  0  0  0  0  0  0  0  0  0
   -4.8579   -8.3975    9.3603 C   0  0  0  0  0  0  0  0  0  0  0  0
   -5.6979   -7.5524   12.7572 F   0  0  0  0  0  0  0  0  0  0  0  0
   -2.9249   -5.2091    9.5728 C   0  0  0  0  0  0  0  0  0  0  0  0
   -3.2610   -3.9264   10.1893 C   0  0  0  0  0  0  0  0  0  0  0  0
   -2.5332   -2.6728   10.0128 C   0  0  0  0  0  0  0  0  0  0  0  0
   -1.1225   -2.6035   10.5170 C   0  0  0  0  0  0  0  0  0  0  0  0
   -0.9948   -1.7333   11.5725 O   0  0  0  0  0  0  0  0  0  0  0  0
   -0.5327   -0.4740   11.7014 C   0  0  0  0  0  0  0  0  0  0  0  0
   -0.1760   -0.0293   12.9989 C   0  0  0  0  0  0  0  0  0  0  0  0
    0.2980    1.2411   13.2005 C   0  0  0  0  0  0  0  0  0  0  0  0
    0.4467    2.1311   12.1605 C   0  0  0  0  0  0  0  0  0  0  0  0
    0.0973    1.6948   10.8939 C   0  0  0  0  0  0  0  0  0  0  0  0
   -0.3902    0.4037   10.6563 C   0  0  0  0  0  0  0  0  0  0  0  0
    0.9444    3.4848   12.3454 C   0  0  0  0  0  0  0  0  0  0  0  0
    1.5391    4.0473   11.4050 O   0  0  0  0  0  0  0  0  0  0  0  0
    0.7768    4.1881   13.5574 N   0  0  0  0  0  0  0  0  0  0  0  0
    1.4275    5.4426   13.7997 C   0  0  0  0  0  0  0  0  0  0  0  0
    2.0626    5.5781   15.0146 C   0  0  0  0  0  0  0  0  0  0  0  0
    2.6990    6.7820   15.2742 C   0  0  0  0  0  0  0  0  0  0  0  0
    2.7112    7.8096   14.3787 C   0  0  0  0  0  0  0  0  0  0  0  0
    2.0567    7.6432   13.1505 C   0  0  0  0  0  0  0  0  0  0  0  0
    1.4214    6.4544   12.8794 C   0  0  0  0  0  0  0  0  0  0  0  0
    3.3692    6.9220   16.5460 N   0  0  0  0  0  0  0  0  0  0  0  0
    2.9014    6.0062   17.5644 C   0  0  0  0  0  0  0  0  0  0  0  0
    2.9888    4.5934   17.0180 C   0  0  0  0  0  0  0  0  0  0  0  0
    2.0586    4.5498   15.9279 O   0  0  0  0  0  0  0  0  0  0  0  0
    2.5610    3.6236   18.0292 C   0  0  0  0  0  0  0  0  0  0  0  0
    3.1350    2.5168   18.1882 O   0  0  0  0  0  0  0  0  0  0  0  0
    1.4872    3.9232   18.8465 O   0  0  0  0  0  0  0  0  0  0  0  0
    4.4130    7.8806   16.7570 C   0  0  0  0  0  0  0  0  0  0  0  0
    4.7649    8.1453   18.1718 C   0  0  0  0  0  0  0  0  0  0  0  0
    5.7263    7.2543   18.8517 C   0  0  0  0  0  0  0  0  0  0  0  0
    6.0741    7.6036   20.2369 C   0  0  0  0  0  0  0  0  0  0  0  0
    5.2626    7.4902   21.1558 O   0  0  0  0  0  0  0  0  0  0  0  0
    7.3497    8.0823   20.5687 O   0  0  0  0  0  0  0  0  0  0  0  0
  1  2  1  0
  2  3  2  0
  3  4  1  0
  4  5  2  0
  5  6  1  0
  6  7  2  0
  5  8  1  0
  3  9  1  0
  9 10  1  0
 10 11  1  0
 11 12  1  0
 12 13  1  0
 13 14  1  0
 14 15  2  0
 15 16  1  0
 16 17  2  0
 17 18  1  0
 18 19  2  0
 17 20  1  0
 20 21  2  0
 20 22  1  0
 22 23  1  0
 23 24  2  0
 24 25  1  0
 25 26  2  0
 26 27  1  0
 27 28  2  0
 25 29  1  0
 29 30  1  0
 30 31  1  0
 31 32  1  0
 31 33  1  0
 33 34  2  0
 33 35  1  0
 29 36  1  0
 36 37  1  0
 37 38  1  0
 38 39  1  0
 39 40  2  0
 39 41  1  0
  7  2  1  0
 19 14  1  0
 28 23  1  0
 32 24  1  0
M  END
$$$$
