
     RDKit          3D

 41 44  0  0  0  0  0  0  0  0999 V2000
   -2.4423    1.6409   13.2242 C   0  0  0  0  0  0  0  0  0  0  0  0
   -1.1292    1.6390   13.8628 C   0  0  0  0  0  0  0  0  0  0  0  0
   -0.0121    2.0224   13.1851 C   0  0  0  0  0  0  0  0  0  0  0  0
    1.2233    1.9521   13.8529 C   0  0  0  0  0  0  0  0  0  0  0  0
    1.3351    1.5164   15.1489 C   0  0  0  0  0  0  0  0  0  0  0  0
    0.1999    1.1350   15.8185 C   0  0  0  0  0  0  0  0  0  0  0  0
   -1.0191    1.1956   15.1826 C   0  0  0  0  0  0  0  0  0  0  0  0
    2.5236    1.4579   15.7655 F   0  0  0  0  0  0  0  0  0  0  0  0
   -0.0607    2.5354   11.8309 C   0  0  0  0  0  0  0  0  0  0  0  0
    0.7707    1.8833   10.8199 C   0  0  0  0  0  0  0  0  0  0  0  0
    0.7684    2.1747    9.3891 C   0  0  0  0  0  0  0  0  0  0  0  0
    1.1030    1.0584    8.4451 C   0  0  0  0  0  0  0  0  0  0  0  0
    1.0005    1.4467    7.1312 O   0  0  0  0  0  0  0  0  0  0  0  0
    1.1934    0.8265    5.9504 C   0  0  0  0  0  0  0  0  0  0  0  0
    1.3424   -0.5828    5.9594 C   0  0  0  0  0  0  0  0  0  0  0  0
    1.5444   -1.2753    4.7937 C   0  0  0  0  0  0  0  0  0  0  0  0
    1.6104   -0.6370    3.5754 C   0  0  0  0  0  0  0  0  0  0  0  0
    1.4650    0.7397    3.5690 C   0  0  0  0  0  0  0  0  0  0  0  0
    1.2582    1.4749    4.7428 C   0  0  0  0  0  0  0  0  0  0  0  0
    1.8262   -1.3456    2.3241 C   0  0  0  0  0  0  0  0  0  0  0  0
    1.9659   -2.5843    2.3435 O   0  0  0  0  0  0  0  0  0  0  0  0
    1.8828   -0.6775    1.0823 N   0  0  0  0  0  0  0  0  0  0  0  0
    1.9837   -1.3921   -0.1567 C   0  0  0  0  0  0  0  0  0  0  0  0
    1.5464   -0.7299   -1.2827 C   0  0  0  0  0  0  0  0  0  0  0  0
    1.6325   -1.3991   -2.4936 C   0  0  0  0  0  0  0  0  0  0  0  0
    2.1270   -2.6653   -2.5948 C   0  0  0  0  0  0  0  0  0  0  0  0
    2.5646   -3.3145   -1.4322 C   0  0  0  0  0  0  0  0  0  0  0  0
    2.4853   -2.6628   -0.2243 C   0  0  0  0  0  0  0  0  0  0  0  0
    1.1787   -0.7026   -3.6748 N   0  0  0  0  0  0  0  0  0  0  0  0
    0.2656    0.3872   -3.4040 C   0  0  0  0  0  0  0  0  0  0  0  0
    0.9137    1.3191   -2.3972 C   0  0  0  0  0  0  0  0  0  0  0  0
    1.0451    0.5479   -1.1959 O   0  0  0  0  0  0  0  0  0  0  0  0
    0.0411    2.4625   -2.1189 C   0  0  0  0  0  0  0  0  0  0  0  0
    0.2786    3.6155   -2.5592 O   0  0  0  0  0  0  0  0  0  0  0  0
   -1.0895    2.2817   -1.3444 O   0  0  0  0  0  0  0  0  0  0  0  0
    1.6164   -1.0654   -4.9900 C   0  0  0  0  0  0  0  0  0  0  0  0
    2.2225    0.0258   -5.7885 C   0  0  0  0  0  0  0  0  0  0  0  0
    3.0010   -0.3148   -6.9961 C   0  0  0  0  0  0  0  0  0  0  0  0
    3.3426    0.8015   -7.8899 C   0  0  0  0  0  0  0  0  0  0  0  0
    2.6298    1.8016   -7.9773 O   0  0  0  0  0  0  0  0  0  0  0  0
    4.4989    0.7719   -8.6826 O   0  0  0  0  0  0  0  0  0  0  0  0
  1  2  1  0
  2  3  2  0
  3  4  1  0
  4  5  2  0
  5  6  1  0
  6  7  2  0
  5  8  1  0
  3  9  1  0
  9 10  1  0
 10 11  1  0
 11 12  1  0
 12 13  1  0
 13 14  1  0
 14 15  2  0
 15 16  1  0
 16 17  2  0
 17 18  1  0
 18 19  2  0
 17 20  1  0
 20 21  2  0
 20 22  1  0
 22 23  1  0
 23 24  2  0
 24 25  1  0
 25 26  2  0
 26 27  1  0
 27 28  2  0
 25 29  1  0
 29 30  1  0
 30 31  1  0
 31 32  1  0
 31 33  1  0
 33 34  2  0
 33 35  1  0
 29 36  1  0
 36 37  1  0
 37 38  1  0
 38 39  1  0
 39 40  2  0
 39 41  1  0
  7  2  1  0
 19 14  1  0
 28 23  1  0
 32 24  1  0
M  END
$$$$
