
     RDKit          3D

 41 44  0  0  0  0  0  0  0  0999 V2000
    4.2010    8.4193   16.9128 C   0  0  0  0  0  0  0  0  0  0  0  0
    4.6338    7.1487   16.3382 C   0  0  0  0  0  0  0  0  0  0  0  0
    4.0195    6.6211   15.2435 C   0  0  0  0  0  0  0  0  0  0  0  0
    4.4630    5.3722   14.7738 C   0  0  0  0  0  0  0  0  0  0  0  0
    5.4829    4.6799   15.3759 C   0  0  0  0  0  0  0  0  0  0  0  0
    6.0927    5.2257   16.4771 C   0  0  0  0  0  0  0  0  0  0  0  0
    5.6729    6.4469   16.9532 C   0  0  0  0  0  0  0  0  0  0  0  0
    5.8892    3.4906   14.9104 F   0  0  0  0  0  0  0  0  0  0  0  0
    2.9671    7.3166   14.5306 C   0  0  0  0  0  0  0  0  0  0  0  0
    1.5904    7.1319   14.9880 C   0  0  0  0  0  0  0  0  0  0  0  0
    0.4190    6.9561   14.1341 C   0  0  0  0  0  0  0  0  0  0  0  0
    0.0926    5.5687   13.6674 C   0  0  0  0  0  0  0  0  0  0  0  0
   -1.0106    5.0565   14.3062 O   0  0  0  0  0  0  0  0  0  0  0  0
   -1.6488    3.8701   14.2733 C   0  0  0  0  0  0  0  0  0  0  0  0
   -1.1647    2.8824   13.3797 C   0  0  0  0  0  0  0  0  0  0  0  0
   -1.7696    1.6552   13.2942 C   0  0  0  0  0  0  0  0  0  0  0  0
   -2.8633    1.3326   14.0660 C   0  0  0  0  0  0  0  0  0  0  0  0
   -3.3348    2.2990   14.9380 C   0  0  0  0  0  0  0  0  0  0  0  0
   -2.7390    3.5615   15.0475 C   0  0  0  0  0  0  0  0  0  0  0  0
   -3.5261    0.0403   13.9943 C   0  0  0  0  0  0  0  0  0  0  0  0
   -4.2730   -0.3121   14.9283 O   0  0  0  0  0  0  0  0  0  0  0  0
   -3.3533   -0.8332   12.8995 N   0  0  0  0  0  0  0  0  0  0  0  0
   -3.4535   -2.2562   13.0445 C   0  0  0  0  0  0  0  0  0  0  0  0
   -2.4875   -3.0056   12.4099 C   0  0  0  0  0  0  0  0  0  0  0  0
   -2.5620   -4.3843   12.5337 C   0  0  0  0  0  0  0  0  0  0  0  0
   -3.5438   -5.0012   13.2504 C   0  0  0  0  0  0  0  0  0  0  0  0
   -4.5133   -4.2131   13.8855 C   0  0  0  0  0  0  0  0  0  0  0  0
   -4.4518   -2.8444   13.7713 C   0  0  0  0  0  0  0  0  0  0  0  0
   -1.5460   -5.1697   11.8726 N   0  0  0  0  0  0  0  0  0  0  0  0
   -0.8757   -4.4792   10.7916 C   0  0  0  0  0  0  0  0  0  0  0  0
   -0.3351   -3.1645   11.3223 C   0  0  0  0  0  0  0  0  0  0  0  0
   -1.4908   -2.3970   11.6833 O   0  0  0  0  0  0  0  0  0  0  0  0
    0.3879   -2.4441   10.2713 C   0  0  0  0  0  0  0  0  0  0  0  0
    0.2936   -2.7503    9.0559 O   0  0  0  0  0  0  0  0  0  0  0  0
    1.2084   -1.3858   10.6141 O   0  0  0  0  0  0  0  0  0  0  0  0
   -1.2344   -6.5089   12.2753 C   0  0  0  0  0  0  0  0  0  0  0  0
   -1.8829   -7.5834   11.4876 C   0  0  0  0  0  0  0  0  0  0  0  0
   -2.0663   -7.3978   10.0342 C   0  0  0  0  0  0  0  0  0  0  0  0
   -3.2442   -8.0437    9.4364 C   0  0  0  0  0  0  0  0  0  0  0  0
   -3.4285   -9.2581    9.5208 O   0  0  0  0  0  0  0  0  0  0  0  0
   -4.2091   -7.2994    8.7428 O   0  0  0  0  0  0  0  0  0  0  0  0
  1  2  1  0
  2  3  2  0
  3  4  1  0
  4  5  2  0
  5  6  1  0
  6  7  2  0
  5  8  1  0
  3  9  1  0
  9 10  1  0
 10 11  1  0
 11 12  1  0
 12 13  1  0
 13 14  1  0
 14 15  2  0
 15 16  1  0
 16 17  2  0
 17 18  1  0
 18 19  2  0
 17 20  1  0
 20 21  2  0
 20 22  1  0
 22 23  1  0
 23 24  2  0
 24 25  1  0
 25 26  2  0
 26 27  1  0
 27 28  2  0
 25 29  1  0
 29 30  1  0
 30 31  1  0
 31 32  1  0
 31 33  1  0
 33 34  2  0
 33 35  1  0
 29 36  1  0
 36 37  1  0
 37 38  1  0
 38 39  1  0
 39 40  2  0
 39 41  1  0
  7  2  1  0
 19 14  1  0
 28 23  1  0
 32 24  1  0
M  END
$$$$
