
     RDKit          3D

 41 44  0  0  0  0  0  0  0  0999 V2000
   -6.6392   -4.5130   11.7204 C   0  0  0  0  0  0  0  0  0  0  0  0
   -5.9473   -5.0144   10.5364 C   0  0  0  0  0  0  0  0  0  0  0  0
   -4.7244   -5.6061   10.6288 C   0  0  0  0  0  0  0  0  0  0  0  0
   -4.1004   -6.0242    9.4401 C   0  0  0  0  0  0  0  0  0  0  0  0
   -4.6794   -5.8577    8.2077 C   0  0  0  0  0  0  0  0  0  0  0  0
   -5.9126   -5.2611    8.1315 C   0  0  0  0  0  0  0  0  0  0  0  0
   -6.5399   -4.8439    9.2833 C   0  0  0  0  0  0  0  0  0  0  0  0
   -4.0659   -6.2643    7.0877 F   0  0  0  0  0  0  0  0  0  0  0  0
   -4.0740   -5.8551   11.8994 C   0  0  0  0  0  0  0  0  0  0  0  0
   -3.2609   -4.7848   12.4754 C   0  0  0  0  0  0  0  0  0  0  0  0
   -2.5331   -4.8460   13.7398 C   0  0  0  0  0  0  0  0  0  0  0  0
   -1.8664   -3.5940   14.2271 C   0  0  0  0  0  0  0  0  0  0  0  0
   -2.1039   -2.5267   13.3953 O   0  0  0  0  0  0  0  0  0  0  0  0
   -1.6250   -1.2694   13.3200 C   0  0  0  0  0  0  0  0  0  0  0  0
   -1.6597   -0.4764   14.4942 C   0  0  0  0  0  0  0  0  0  0  0  0
   -1.1913    0.8120   14.4858 C   0  0  0  0  0  0  0  0  0  0  0  0
   -0.6718    1.3853   13.3469 C   0  0  0  0  0  0  0  0  0  0  0  0
   -0.6393    0.6091   12.2010 C   0  0  0  0  0  0  0  0  0  0  0  0
   -1.1107   -0.7094   12.1778 C   0  0  0  0  0  0  0  0  0  0  0  0
   -0.1705    2.7498   13.3085 C   0  0  0  0  0  0  0  0  0  0  0  0
    0.1382    3.2530   12.2104 O   0  0  0  0  0  0  0  0  0  0  0  0
   -0.0208    3.5285   14.4759 N   0  0  0  0  0  0  0  0  0  0  0  0
    0.9101    4.6169   14.5443 C   0  0  0  0  0  0  0  0  0  0  0  0
    1.8618    4.5468   15.5377 C   0  0  0  0  0  0  0  0  0  0  0  0
    2.7737    5.5872   15.6261 C   0  0  0  0  0  0  0  0  0  0  0  0
    2.7519    6.6517   14.7751 C   0  0  0  0  0  0  0  0  0  0  0  0
    1.7720    6.6962   13.7739 C   0  0  0  0  0  0  0  0  0  0  0  0
    0.8612    5.6712   13.6743 C   0  0  0  0  0  0  0  0  0  0  0  0
    3.7747    5.5108   16.6646 N   0  0  0  0  0  0  0  0  0  0  0  0
    3.4229    4.6343   17.7612 C   0  0  0  0  0  0  0  0  0  0  0  0
    3.0737    3.2708   17.1944 C   0  0  0  0  0  0  0  0  0  0  0  0
    1.8961    3.4788   16.4037 O   0  0  0  0  0  0  0  0  0  0  0  0
    2.7468    2.3342   18.2723 C   0  0  0  0  0  0  0  0  0  0  0  0
    1.7947    1.5177   18.1912 O   0  0  0  0  0  0  0  0  0  0  0  0
    3.5050    2.3371   19.4282 O   0  0  0  0  0  0  0  0  0  0  0  0
    5.0078    6.2367   16.5906 C   0  0  0  0  0  0  0  0  0  0  0  0
    5.0340    7.5325   17.3089 C   0  0  0  0  0  0  0  0  0  0  0  0
    5.1625    8.7819   16.5324 C   0  0  0  0  0  0  0  0  0  0  0  0
    5.9037    9.8773   17.1748 C   0  0  0  0  0  0  0  0  0  0  0  0
    6.2971    9.7967   18.3386 O   0  0  0  0  0  0  0  0  0  0  0  0
    6.1933   11.0631   16.4848 O   0  0  0  0  0  0  0  0  0  0  0  0
  1  2  1  0
  2  3  2  0
  3  4  1  0
  4  5  2  0
  5  6  1  0
  6  7  2  0
  5  8  1  0
  3  9  1  0
  9 10  1  0
 10 11  1  0
 11 12  1  0
 12 13  1  0
 13 14  1  0
 14 15  2  0
 15 16  1  0
 16 17  2  0
 17 18  1  0
 18 19  2  0
 17 20  1  0
 20 21  2  0
 20 22  1  0
 22 23  1  0
 23 24  2  0
 24 25  1  0
 25 26  2  0
 26 27  1  0
 27 28  2  0
 25 29  1  0
 29 30  1  0
 30 31  1  0
 31 32  1  0
 31 33  1  0
 33 34  2  0
 33 35  1  0
 29 36  1  0
 36 37  1  0
 37 38  1  0
 38 39  1  0
 39 40  2  0
 39 41  1  0
  7  2  1  0
 19 14  1  0
 28 23  1  0
 32 24  1  0
M  END
$$$$
