
     RDKit          3D

 41 44  0  0  0  0  0  0  0  0999 V2000
    8.8931    6.2263   12.5106 C   0  0  0  0  0  0  0  0  0  0  0  0
    8.1871    6.2236   13.7888 C   0  0  0  0  0  0  0  0  0  0  0  0
    6.8268    6.2014   13.8459 C   0  0  0  0  0  0  0  0  0  0  0  0
    6.2172    6.2451   15.1122 C   0  0  0  0  0  0  0  0  0  0  0  0
    6.9417    6.3068   16.2755 C   0  0  0  0  0  0  0  0  0  0  0  0
    8.3116    6.3268   16.2011 C   0  0  0  0  0  0  0  0  0  0  0  0
    8.9278    6.2857   14.9711 C   0  0  0  0  0  0  0  0  0  0  0  0
    6.3389    6.3474   17.4718 F   0  0  0  0  0  0  0  0  0  0  0  0
    5.9996    6.0913   12.6614 C   0  0  0  0  0  0  0  0  0  0  0  0
    5.3191    7.2950   12.1854 C   0  0  0  0  0  0  0  0  0  0  0  0
    4.4546    7.3845   11.0120 C   0  0  0  0  0  0  0  0  0  0  0  0
    2.9893    7.1248   11.1985 C   0  0  0  0  0  0  0  0  0  0  0  0
    2.6811    5.7927   11.0642 O   0  0  0  0  0  0  0  0  0  0  0  0
    1.7145    4.9970   11.5628 C   0  0  0  0  0  0  0  0  0  0  0  0
    1.6126    3.6792   11.0515 C   0  0  0  0  0  0  0  0  0  0  0  0
    0.6499    2.8191   11.5128 C   0  0  0  0  0  0  0  0  0  0  0  0
   -0.2508    3.1954   12.4840 C   0  0  0  0  0  0  0  0  0  0  0  0
   -0.1497    4.4833   12.9818 C   0  0  0  0  0  0  0  0  0  0  0  0
    0.8221    5.3849   12.5303 C   0  0  0  0  0  0  0  0  0  0  0  0
   -1.2833    2.3053   12.9899 C   0  0  0  0  0  0  0  0  0  0  0  0
   -2.0075    2.6872   13.9302 O   0  0  0  0  0  0  0  0  0  0  0  0
   -1.4961    1.0183   12.4514 N   0  0  0  0  0  0  0  0  0  0  0  0
   -2.6750    0.2589   12.7508 C   0  0  0  0  0  0  0  0  0  0  0  0
   -2.5093   -1.1022   12.8822 C   0  0  0  0  0  0  0  0  0  0  0  0
   -3.6338   -1.8597   13.1710 C   0  0  0  0  0  0  0  0  0  0  0  0
   -4.8691   -1.3041   13.3241 C   0  0  0  0  0  0  0  0  0  0  0  0
   -5.0075    0.0837   13.1847 C   0  0  0  0  0  0  0  0  0  0  0  0
   -3.9008    0.8475   12.8985 C   0  0  0  0  0  0  0  0  0  0  0  0
   -3.4589   -3.2863   13.3138 N   0  0  0  0  0  0  0  0  0  0  0  0
   -2.2646   -3.8017   12.6792 C   0  0  0  0  0  0  0  0  0  0  0  0
   -1.0706   -3.0192   13.1932 C   0  0  0  0  0  0  0  0  0  0  0  0
   -1.2689   -1.6768   12.7305 O   0  0  0  0  0  0  0  0  0  0  0  0
    0.1706   -3.5311   12.6070 C   0  0  0  0  0  0  0  0  0  0  0  0
    0.4785   -4.7493   12.6364 O   0  0  0  0  0  0  0  0  0  0  0  0
    1.0458   -2.6532   11.9954 O   0  0  0  0  0  0  0  0  0  0  0  0
   -4.3905   -4.1007   14.0362 C   0  0  0  0  0  0  0  0  0  0  0  0
   -5.5473   -4.5989   13.2557 C   0  0  0  0  0  0  0  0  0  0  0  0
   -5.3240   -5.6196   12.2122 C   0  0  0  0  0  0  0  0  0  0  0  0
   -6.4961   -6.0031   11.4117 C   0  0  0  0  0  0  0  0  0  0  0  0
   -7.1942   -6.9723   11.7103 O   0  0  0  0  0  0  0  0  0  0  0  0
   -6.8674   -5.2776   10.2707 O   0  0  0  0  0  0  0  0  0  0  0  0
  1  2  1  0
  2  3  2  0
  3  4  1  0
  4  5  2  0
  5  6  1  0
  6  7  2  0
  5  8  1  0
  3  9  1  0
  9 10  1  0
 10 11  1  0
 11 12  1  0
 12 13  1  0
 13 14  1  0
 14 15  2  0
 15 16  1  0
 16 17  2  0
 17 18  1  0
 18 19  2  0
 17 20  1  0
 20 21  2  0
 20 22  1  0
 22 23  1  0
 23 24  2  0
 24 25  1  0
 25 26  2  0
 26 27  1  0
 27 28  2  0
 25 29  1  0
 29 30  1  0
 30 31  1  0
 31 32  1  0
 31 33  1  0
 33 34  2  0
 33 35  1  0
 29 36  1  0
 36 37  1  0
 37 38  1  0
 38 39  1  0
 39 40  2  0
 39 41  1  0
  7  2  1  0
 19 14  1  0
 28 23  1  0
 32 24  1  0
M  END
$$$$
