
     RDKit          3D

 41 44  0  0  0  0  0  0  0  0999 V2000
    8.3263    7.9308   10.8315 C   0  0  0  0  0  0  0  0  0  0  0  0
    8.5240    7.9303    9.3848 C   0  0  0  0  0  0  0  0  0  0  0  0
    7.4738    8.0525    8.5268 C   0  0  0  0  0  0  0  0  0  0  0  0
    7.7375    7.9991    7.1467 C   0  0  0  0  0  0  0  0  0  0  0  0
    9.0035    7.8315    6.6458 C   0  0  0  0  0  0  0  0  0  0  0  0
   10.0513    7.7114    7.5233 C   0  0  0  0  0  0  0  0  0  0  0  0
    9.8144    7.7602    8.8782 C   0  0  0  0  0  0  0  0  0  0  0  0
    9.2313    7.7836    5.3259 F   0  0  0  0  0  0  0  0  0  0  0  0
    6.1173    8.2771    8.9838 C   0  0  0  0  0  0  0  0  0  0  0  0
    5.3699    7.1324    9.5032 C   0  0  0  0  0  0  0  0  0  0  0  0
    4.0601    7.1837   10.1468 C   0  0  0  0  0  0  0  0  0  0  0  0
    3.3679    5.8844   10.4335 C   0  0  0  0  0  0  0  0  0  0  0  0
    2.2194    6.0633   11.1660 O   0  0  0  0  0  0  0  0  0  0  0  0
    1.2342    5.2443   11.5835 C   0  0  0  0  0  0  0  0  0  0  0  0
    0.4119    5.6875   12.6493 C   0  0  0  0  0  0  0  0  0  0  0  0
   -0.6064    4.9022   13.1244 C   0  0  0  0  0  0  0  0  0  0  0  0
   -0.8715    3.6608   12.5911 C   0  0  0  0  0  0  0  0  0  0  0  0
   -0.0668    3.2295   11.5504 C   0  0  0  0  0  0  0  0  0  0  0  0
    0.9811    4.0083   11.0438 C   0  0  0  0  0  0  0  0  0  0  0  0
   -1.9428    2.8058   13.0767 C   0  0  0  0  0  0  0  0  0  0  0  0
   -2.7482    3.2574   13.9144 O   0  0  0  0  0  0  0  0  0  0  0  0
   -2.1042    1.4767   12.6308 N   0  0  0  0  0  0  0  0  0  0  0  0
   -2.9105    0.5316   13.3470 C   0  0  0  0  0  0  0  0  0  0  0  0
   -2.4948   -0.7811   13.3083 C   0  0  0  0  0  0  0  0  0  0  0  0
   -3.2573   -1.7152   13.9922 C   0  0  0  0  0  0  0  0  0  0  0  0
   -4.3809   -1.3747   14.6848 C   0  0  0  0  0  0  0  0  0  0  0  0
   -4.7799   -0.0312   14.7066 C   0  0  0  0  0  0  0  0  0  0  0  0
   -4.0331    0.9061   14.0329 C   0  0  0  0  0  0  0  0  0  0  0  0
   -2.8183   -3.0907   13.9557 N   0  0  0  0  0  0  0  0  0  0  0  0
   -1.9418   -3.4021   12.8469 C   0  0  0  0  0  0  0  0  0  0  0  0
   -0.7807   -2.4255   12.8624 C   0  0  0  0  0  0  0  0  0  0  0  0
   -1.3631   -1.1394   12.6136 O   0  0  0  0  0  0  0  0  0  0  0  0
    0.1577   -2.7252   11.7781 C   0  0  0  0  0  0  0  0  0  0  0  0
    0.9513   -1.8670   11.3160 O   0  0  0  0  0  0  0  0  0  0  0  0
    0.1827   -3.9951   11.2327 O   0  0  0  0  0  0  0  0  0  0  0  0
   -3.2160   -4.0451   14.9477 C   0  0  0  0  0  0  0  0  0  0  0  0
   -4.4959   -4.7451   14.6882 C   0  0  0  0  0  0  0  0  0  0  0  0
   -4.9258   -4.9622   13.2922 C   0  0  0  0  0  0  0  0  0  0  0  0
   -6.2103   -5.6523   13.1038 C   0  0  0  0  0  0  0  0  0  0  0  0
   -7.1185   -5.1575   12.4358 O   0  0  0  0  0  0  0  0  0  0  0  0
   -6.4540   -6.9072   13.6800 O   0  0  0  0  0  0  0  0  0  0  0  0
  1  2  1  0
  2  3  2  0
  3  4  1  0
  4  5  2  0
  5  6  1  0
  6  7  2  0
  5  8  1  0
  3  9  1  0
  9 10  1  0
 10 11  1  0
 11 12  1  0
 12 13  1  0
 13 14  1  0
 14 15  2  0
 15 16  1  0
 16 17  2  0
 17 18  1  0
 18 19  2  0
 17 20  1  0
 20 21  2  0
 20 22  1  0
 22 23  1  0
 23 24  2  0
 24 25  1  0
 25 26  2  0
 26 27  1  0
 27 28  2  0
 25 29  1  0
 29 30  1  0
 30 31  1  0
 31 32  1  0
 31 33  1  0
 33 34  2  0
 33 35  1  0
 29 36  1  0
 36 37  1  0
 37 38  1  0
 38 39  1  0
 39 40  2  0
 39 41  1  0
  7  2  1  0
 19 14  1  0
 28 23  1  0
 32 24  1  0
M  END
$$$$
