
     RDKit          3D

 41 44  0  0  0  0  0  0  0  0999 V2000
   -1.4988   -6.1817   11.7657 C   0  0  0  0  0  0  0  0  0  0  0  0
   -2.5877   -5.9841   10.8130 C   0  0  0  0  0  0  0  0  0  0  0  0
   -3.8370   -5.6365   11.2282 C   0  0  0  0  0  0  0  0  0  0  0  0
   -4.8449   -5.5073   10.2564 C   0  0  0  0  0  0  0  0  0  0  0  0
   -4.6101   -5.7164    8.9210 C   0  0  0  0  0  0  0  0  0  0  0  0
   -3.3456   -6.0646    8.5186 C   0  0  0  0  0  0  0  0  0  0  0  0
   -2.3450   -6.1971    9.4543 C   0  0  0  0  0  0  0  0  0  0  0  0
   -5.5865   -5.5873    8.0121 F   0  0  0  0  0  0  0  0  0  0  0  0
   -4.1464   -5.3563   12.6158 C   0  0  0  0  0  0  0  0  0  0  0  0
   -4.3594   -3.9624   13.0032 C   0  0  0  0  0  0  0  0  0  0  0  0
   -4.4493   -3.4560   14.3699 C   0  0  0  0  0  0  0  0  0  0  0  0
   -3.4725   -2.3992   14.7923 C   0  0  0  0  0  0  0  0  0  0  0  0
   -3.4466   -1.3417   13.9157 O   0  0  0  0  0  0  0  0  0  0  0  0
   -2.6736   -0.2452   13.7889 C   0  0  0  0  0  0  0  0  0  0  0  0
   -1.4955   -0.1715   14.5731 C   0  0  0  0  0  0  0  0  0  0  0  0
   -0.6663    0.9175   14.4947 C   0  0  0  0  0  0  0  0  0  0  0  0
   -0.9402    1.9763   13.6581 C   0  0  0  0  0  0  0  0  0  0  0  0
   -2.0919    1.9024   12.8933 C   0  0  0  0  0  0  0  0  0  0  0  0
   -2.9587    0.8041   12.9518 C   0  0  0  0  0  0  0  0  0  0  0  0
   -0.0804    3.1446   13.5566 C   0  0  0  0  0  0  0  0  0  0  0  0
   -0.4257    4.0911   12.8223 O   0  0  0  0  0  0  0  0  0  0  0  0
    1.1367    3.2456   14.2636 N   0  0  0  0  0  0  0  0  0  0  0  0
    1.7822    4.5074   14.4812 C   0  0  0  0  0  0  0  0  0  0  0  0
    2.5172    4.6271   15.6400 C   0  0  0  0  0  0  0  0  0  0  0  0
    3.1508    5.8376   15.8748 C   0  0  0  0  0  0  0  0  0  0  0  0
    3.0662    6.8863   15.0082 C   0  0  0  0  0  0  0  0  0  0  0  0
    2.3112    6.7356   13.8369 C   0  0  0  0  0  0  0  0  0  0  0  0
    1.6774    5.5406   13.5910 C   0  0  0  0  0  0  0  0  0  0  0  0
    3.9256    5.9611   17.0874 N   0  0  0  0  0  0  0  0  0  0  0  0
    3.5650    5.0116   18.1185 C   0  0  0  0  0  0  0  0  0  0  0  0
    3.6315    3.6145   17.5305 C   0  0  0  0  0  0  0  0  0  0  0  0
    2.6116    3.5774   16.5237 O   0  0  0  0  0  0  0  0  0  0  0  0
    3.3111    2.6120   18.5496 C   0  0  0  0  0  0  0  0  0  0  0  0
    2.1674    2.1022   18.6586 O   0  0  0  0  0  0  0  0  0  0  0  0
    4.2932    2.2017   19.4315 O   0  0  0  0  0  0  0  0  0  0  0  0
    4.9654    6.9361   17.2325 C   0  0  0  0  0  0  0  0  0  0  0  0
    6.3284    6.4793   16.8729 C   0  0  0  0  0  0  0  0  0  0  0  0
    7.2975    6.1929   17.9496 C   0  0  0  0  0  0  0  0  0  0  0  0
    8.4671    5.3832   17.5778 C   0  0  0  0  0  0  0  0  0  0  0  0
    9.2851    5.7731   16.7444 O   0  0  0  0  0  0  0  0  0  0  0  0
    8.6989    4.1288   18.1599 O   0  0  0  0  0  0  0  0  0  0  0  0
  1  2  1  0
  2  3  2  0
  3  4  1  0
  4  5  2  0
  5  6  1  0
  6  7  2  0
  5  8  1  0
  3  9  1  0
  9 10  1  0
 10 11  1  0
 11 12  1  0
 12 13  1  0
 13 14  1  0
 14 15  2  0
 15 16  1  0
 16 17  2  0
 17 18  1  0
 18 19  2  0
 17 20  1  0
 20 21  2  0
 20 22  1  0
 22 23  1  0
 23 24  2  0
 24 25  1  0
 25 26  2  0
 26 27  1  0
 27 28  2  0
 25 29  1  0
 29 30  1  0
 30 31  1  0
 31 32  1  0
 31 33  1  0
 33 34  2  0
 33 35  1  0
 29 36  1  0
 36 37  1  0
 37 38  1  0
 38 39  1  0
 39 40  2  0
 39 41  1  0
  7  2  1  0
 19 14  1  0
 28 23  1  0
 32 24  1  0
M  END
$$$$
