
     RDKit          3D

 41 44  0  0  0  0  0  0  0  0999 V2000
   -1.8409   -5.1388    8.0367 C   0  0  0  0  0  0  0  0  0  0  0  0
   -1.2767   -6.2728    8.7633 C   0  0  0  0  0  0  0  0  0  0  0  0
   -1.6482   -6.5485   10.0440 C   0  0  0  0  0  0  0  0  0  0  0  0
   -1.0290   -7.6306   10.6939 C   0  0  0  0  0  0  0  0  0  0  0  0
   -0.0763   -8.4071   10.0844 C   0  0  0  0  0  0  0  0  0  0  0  0
    0.2861   -8.1173    8.7933 C   0  0  0  0  0  0  0  0  0  0  0  0
   -0.3076   -7.0616    8.1396 C   0  0  0  0  0  0  0  0  0  0  0  0
    0.5006   -9.4341   10.7237 F   0  0  0  0  0  0  0  0  0  0  0  0
   -2.6792   -5.7997   10.7338 C   0  0  0  0  0  0  0  0  0  0  0  0
   -2.2604   -4.7425   11.6533 C   0  0  0  0  0  0  0  0  0  0  0  0
   -3.1054   -3.6683   12.1674 C   0  0  0  0  0  0  0  0  0  0  0  0
   -3.2349   -3.5282   13.6550 C   0  0  0  0  0  0  0  0  0  0  0  0
   -2.2871   -2.6817   14.1772 O   0  0  0  0  0  0  0  0  0  0  0  0
   -2.1001   -1.3475   14.1471 C   0  0  0  0  0  0  0  0  0  0  0  0
   -0.8773   -0.8389   14.6517 C   0  0  0  0  0  0  0  0  0  0  0  0
   -0.6243    0.5085   14.6535 C   0  0  0  0  0  0  0  0  0  0  0  0
   -1.5389    1.4168   14.1692 C   0  0  0  0  0  0  0  0  0  0  0  0
   -2.7328    0.9178   13.6771 C   0  0  0  0  0  0  0  0  0  0  0  0
   -3.0206   -0.4527   13.6625 C   0  0  0  0  0  0  0  0  0  0  0  0
   -1.2983    2.8508   14.1611 C   0  0  0  0  0  0  0  0  0  0  0  0
   -2.1475    3.6065   13.6491 O   0  0  0  0  0  0  0  0  0  0  0  0
   -0.1321    3.4203   14.7154 N   0  0  0  0  0  0  0  0  0  0  0  0
    0.2211    4.7914   14.4883 C   0  0  0  0  0  0  0  0  0  0  0  0
    1.3690    5.2379   15.1051 C   0  0  0  0  0  0  0  0  0  0  0  0
    1.7326    6.5602   14.9023 C   0  0  0  0  0  0  0  0  0  0  0  0
    0.9997    7.4084   14.1267 C   0  0  0  0  0  0  0  0  0  0  0  0
   -0.1637    6.9262   13.5116 C   0  0  0  0  0  0  0  0  0  0  0  0
   -0.5364    5.6169   13.7038 C   0  0  0  0  0  0  0  0  0  0  0  0
    2.9391    7.0267   15.5449 N   0  0  0  0  0  0  0  0  0  0  0  0
    3.3505    6.2287   16.6800 C   0  0  0  0  0  0  0  0  0  0  0  0
    3.4543    4.7809   16.2381 C   0  0  0  0  0  0  0  0  0  0  0  0
    2.1186    4.3934   15.8905 O   0  0  0  0  0  0  0  0  0  0  0  0
    3.9065    3.9362   17.3464 C   0  0  0  0  0  0  0  0  0  0  0  0
    3.3497    2.8471   17.6356 O   0  0  0  0  0  0  0  0  0  0  0  0
    4.9848    4.3391   18.1117 O   0  0  0  0  0  0  0  0  0  0  0  0
    3.6588    8.1734   15.0760 C   0  0  0  0  0  0  0  0  0  0  0  0
    3.7420    9.3103   16.0228 C   0  0  0  0  0  0  0  0  0  0  0  0
    4.7928    9.3057   17.0602 C   0  0  0  0  0  0  0  0  0  0  0  0
    4.7562   10.4081   18.0324 C   0  0  0  0  0  0  0  0  0  0  0  0
    4.4888   10.2158   19.2187 O   0  0  0  0  0  0  0  0  0  0  0  0
    5.0254   11.7289   17.6458 O   0  0  0  0  0  0  0  0  0  0  0  0
  1  2  1  0
  2  3  2  0
  3  4  1  0
  4  5  2  0
  5  6  1  0
  6  7  2  0
  5  8  1  0
  3  9  1  0
  9 10  1  0
 10 11  1  0
 11 12  1  0
 12 13  1  0
 13 14  1  0
 14 15  2  0
 15 16  1  0
 16 17  2  0
 17 18  1  0
 18 19  2  0
 17 20  1  0
 20 21  2  0
 20 22  1  0
 22 23  1  0
 23 24  2  0
 24 25  1  0
 25 26  2  0
 26 27  1  0
 27 28  2  0
 25 29  1  0
 29 30  1  0
 30 31  1  0
 31 32  1  0
 31 33  1  0
 33 34  2  0
 33 35  1  0
 29 36  1  0
 36 37  1  0
 37 38  1  0
 38 39  1  0
 39 40  2  0
 39 41  1  0
  7  2  1  0
 19 14  1  0
 28 23  1  0
 32 24  1  0
M  END
$$$$
