
     RDKit          3D

 41 44  0  0  0  0  0  0  0  0999 V2000
    5.5796    7.9915    6.7925 C   0  0  0  0  0  0  0  0  0  0  0  0
    6.2304    8.8293    7.7958 C   0  0  0  0  0  0  0  0  0  0  0  0
    5.5318    9.3559    8.8393 C   0  0  0  0  0  0  0  0  0  0  0  0
    6.2173   10.1892    9.7408 C   0  0  0  0  0  0  0  0  0  0  0  0
    7.5505   10.4820    9.6035 C   0  0  0  0  0  0  0  0  0  0  0  0
    8.2407    9.9424    8.5476 C   0  0  0  0  0  0  0  0  0  0  0  0
    7.5879    9.1248    7.6533 C   0  0  0  0  0  0  0  0  0  0  0  0
    8.1835   11.2790   10.4754 F   0  0  0  0  0  0  0  0  0  0  0  0
    4.1340    9.0536    9.0719 C   0  0  0  0  0  0  0  0  0  0  0  0
    3.8100    8.0151   10.0493 C   0  0  0  0  0  0  0  0  0  0  0  0
    2.4817    7.7201   10.5791 C   0  0  0  0  0  0  0  0  0  0  0  0
    2.3637    6.6458   11.6190 C   0  0  0  0  0  0  0  0  0  0  0  0
    1.0999    6.5834   12.1541 O   0  0  0  0  0  0  0  0  0  0  0  0
    0.2898    5.5764   12.5357 C   0  0  0  0  0  0  0  0  0  0  0  0
    0.8693    4.2976   12.7289 C   0  0  0  0  0  0  0  0  0  0  0  0
    0.1014    3.2292   13.1140 C   0  0  0  0  0  0  0  0  0  0  0  0
   -1.2533    3.3519   13.3278 C   0  0  0  0  0  0  0  0  0  0  0  0
   -1.8174    4.6019   13.1381 C   0  0  0  0  0  0  0  0  0  0  0  0
   -1.0597    5.7119   12.7445 C   0  0  0  0  0  0  0  0  0  0  0  0
   -2.0923    2.2359   13.7340 C   0  0  0  0  0  0  0  0  0  0  0  0
   -3.2553    2.4602   14.1231 O   0  0  0  0  0  0  0  0  0  0  0  0
   -1.6346    0.9013   13.7026 N   0  0  0  0  0  0  0  0  0  0  0  0
   -2.5413   -0.2094   13.7199 C   0  0  0  0  0  0  0  0  0  0  0  0
   -2.0398   -1.4015   14.1942 C   0  0  0  0  0  0  0  0  0  0  0  0
   -2.8959   -2.4915   14.2207 C   0  0  0  0  0  0  0  0  0  0  0  0
   -4.1898   -2.4143   13.7991 C   0  0  0  0  0  0  0  0  0  0  0  0
   -4.6727   -1.1883   13.3215 C   0  0  0  0  0  0  0  0  0  0  0  0
   -3.8349   -0.0987   13.2896 C   0  0  0  0  0  0  0  0  0  0  0  0
   -2.3713   -3.7401   14.7230 N   0  0  0  0  0  0  0  0  0  0  0  0
   -0.9276   -3.8329   14.6836 C   0  0  0  0  0  0  0  0  0  0  0  0
   -0.3482   -2.6309   15.4059 C   0  0  0  0  0  0  0  0  0  0  0  0
   -0.7363   -1.4944   14.6230 O   0  0  0  0  0  0  0  0  0  0  0  0
    1.1150   -2.6996   15.4265 C   0  0  0  0  0  0  0  0  0  0  0  0
    1.8407   -1.7541   15.0275 O   0  0  0  0  0  0  0  0  0  0  0  0
    1.7351   -3.8407   15.9000 O   0  0  0  0  0  0  0  0  0  0  0  0
   -3.2218   -4.7783   15.2246 C   0  0  0  0  0  0  0  0  0  0  0  0
   -3.9362   -5.5743   14.1992 C   0  0  0  0  0  0  0  0  0  0  0  0
   -3.1692   -6.1607   13.0819 C   0  0  0  0  0  0  0  0  0  0  0  0
   -3.9270   -6.9895   12.1328 C   0  0  0  0  0  0  0  0  0  0  0  0
   -5.1427   -7.1505   12.2421 O   0  0  0  0  0  0  0  0  0  0  0  0
   -3.2927   -7.6328   11.0604 O   0  0  0  0  0  0  0  0  0  0  0  0
  1  2  1  0
  2  3  2  0
  3  4  1  0
  4  5  2  0
  5  6  1  0
  6  7  2  0
  5  8  1  0
  3  9  1  0
  9 10  1  0
 10 11  1  0
 11 12  1  0
 12 13  1  0
 13 14  1  0
 14 15  2  0
 15 16  1  0
 16 17  2  0
 17 18  1  0
 18 19  2  0
 17 20  1  0
 20 21  2  0
 20 22  1  0
 22 23  1  0
 23 24  2  0
 24 25  1  0
 25 26  2  0
 26 27  1  0
 27 28  2  0
 25 29  1  0
 29 30  1  0
 30 31  1  0
 31 32  1  0
 31 33  1  0
 33 34  2  0
 33 35  1  0
 29 36  1  0
 36 37  1  0
 37 38  1  0
 38 39  1  0
 39 40  2  0
 39 41  1  0
  7  2  1  0
 19 14  1  0
 28 23  1  0
 32 24  1  0
M  END
$$$$
