
     RDKit          3D

 41 44  0  0  0  0  0  0  0  0999 V2000
   -4.2435   -2.6860    7.2436 C   0  0  0  0  0  0  0  0  0  0  0  0
   -4.2978   -3.9693    7.9383 C   0  0  0  0  0  0  0  0  0  0  0  0
   -4.8908   -4.0892    9.1582 C   0  0  0  0  0  0  0  0  0  0  0  0
   -4.8652   -5.3474    9.7852 C   0  0  0  0  0  0  0  0  0  0  0  0
   -4.2705   -6.4428    9.2121 C   0  0  0  0  0  0  0  0  0  0  0  0
   -3.6786   -6.3060    7.9819 C   0  0  0  0  0  0  0  0  0  0  0  0
   -3.6921   -5.0825    7.3516 C   0  0  0  0  0  0  0  0  0  0  0  0
   -4.2583   -7.6328    9.8284 F   0  0  0  0  0  0  0  0  0  0  0  0
   -5.5765   -2.9871    9.8021 C   0  0  0  0  0  0  0  0  0  0  0  0
   -4.8073   -2.1367   10.7097 C   0  0  0  0  0  0  0  0  0  0  0  0
   -5.3353   -1.4176   11.8657 C   0  0  0  0  0  0  0  0  0  0  0  0
   -4.6337   -1.5904   13.1800 C   0  0  0  0  0  0  0  0  0  0  0  0
   -3.4340   -0.9220   13.2153 O   0  0  0  0  0  0  0  0  0  0  0  0
   -2.3383   -0.9986   13.9961 C   0  0  0  0  0  0  0  0  0  0  0  0
   -1.4071    0.0681   13.9366 C   0  0  0  0  0  0  0  0  0  0  0  0
   -0.2701    0.0515   14.7024 C   0  0  0  0  0  0  0  0  0  0  0  0
    0.0130   -0.9924   15.5544 C   0  0  0  0  0  0  0  0  0  0  0  0
   -0.8978   -2.0336   15.6106 C   0  0  0  0  0  0  0  0  0  0  0  0
   -2.0674   -2.0458   14.8405 C   0  0  0  0  0  0  0  0  0  0  0  0
    1.2119   -1.0375   16.3760 C   0  0  0  0  0  0  0  0  0  0  0  0
    1.3505   -1.9644   17.1982 O   0  0  0  0  0  0  0  0  0  0  0  0
    2.2293   -0.0648   16.2747 N   0  0  0  0  0  0  0  0  0  0  0  0
    3.2612    0.0555   17.2629 C   0  0  0  0  0  0  0  0  0  0  0  0
    3.4788    1.3176   17.7702 C   0  0  0  0  0  0  0  0  0  0  0  0
    4.4717    1.4614   18.7268 C   0  0  0  0  0  0  0  0  0  0  0  0
    5.2196    0.4101   19.1668 C   0  0  0  0  0  0  0  0  0  0  0  0
    4.9760   -0.8626   18.6328 C   0  0  0  0  0  0  0  0  0  0  0  0
    3.9942   -1.0201   17.6833 C   0  0  0  0  0  0  0  0  0  0  0  0
    4.6961    2.7839   19.2623 N   0  0  0  0  0  0  0  0  0  0  0  0
    4.2125    3.8539   18.4162 C   0  0  0  0  0  0  0  0  0  0  0  0
    2.7498    3.5974   18.1048 C   0  0  0  0  0  0  0  0  0  0  0  0
    2.7319    2.3877   17.3358 O   0  0  0  0  0  0  0  0  0  0  0  0
    2.2027    4.6773   17.2798 C   0  0  0  0  0  0  0  0  0  0  0  0
    1.3788    4.4680   16.3539 O   0  0  0  0  0  0  0  0  0  0  0  0
    2.5982    5.9805   17.5167 O   0  0  0  0  0  0  0  0  0  0  0  0
    5.3316    2.9967   20.5287 C   0  0  0  0  0  0  0  0  0  0  0  0
    6.7294    3.4851   20.4714 C   0  0  0  0  0  0  0  0  0  0  0  0
    7.4815    3.3637   19.2064 C   0  0  0  0  0  0  0  0  0  0  0  0
    8.8366    3.9342   19.1945 C   0  0  0  0  0  0  0  0  0  0  0  0
    9.6259    3.7457   20.1204 O   0  0  0  0  0  0  0  0  0  0  0  0
    9.2864    4.7195   18.1234 O   0  0  0  0  0  0  0  0  0  0  0  0
  1  2  1  0
  2  3  2  0
  3  4  1  0
  4  5  2  0
  5  6  1  0
  6  7  2  0
  5  8  1  0
  3  9  1  0
  9 10  1  0
 10 11  1  0
 11 12  1  0
 12 13  1  0
 13 14  1  0
 14 15  2  0
 15 16  1  0
 16 17  2  0
 17 18  1  0
 18 19  2  0
 17 20  1  0
 20 21  2  0
 20 22  1  0
 22 23  1  0
 23 24  2  0
 24 25  1  0
 25 26  2  0
 26 27  1  0
 27 28  2  0
 25 29  1  0
 29 30  1  0
 30 31  1  0
 31 32  1  0
 31 33  1  0
 33 34  2  0
 33 35  1  0
 29 36  1  0
 36 37  1  0
 37 38  1  0
 38 39  1  0
 39 40  2  0
 39 41  1  0
  7  2  1  0
 19 14  1  0
 28 23  1  0
 32 24  1  0
M  END
$$$$
