
     RDKit          3D

 17 17  0  0  0  0  0  0  0  0999 V2000
   -0.4929    7.6949    4.4387 O   0  0  0  0  0  0  0  0  0  0  0  0
   -1.5155    6.7779    4.2314 C   0  0  0  0  0  0  0  0  0  0  0  0
   -1.7339    6.0162    5.4938 C   0  0  0  0  0  0  0  0  0  0  0  0
   -1.0966    4.7917    5.7074 C   0  0  0  0  0  0  0  0  0  0  0  0
   -1.2803    4.0658    6.8642 C   0  0  0  0  0  0  0  0  0  0  0  0
   -2.1410    4.6222    7.8145 C   0  0  0  0  0  0  0  0  0  0  0  0
   -2.7716    5.8310    7.6051 C   0  0  0  0  0  0  0  0  0  0  0  0
   -2.5751    6.5398    6.4452 C   0  0  0  0  0  0  0  0  0  0  0  0
   -3.1928    7.7594    6.2001 O   0  0  0  0  0  0  0  0  0  0  0  0
   -0.6177    2.7643    7.1166 C   0  0  2  0  0  0  0  0  0  0  0  0
    0.4787    2.8889    8.1552 C   0  0  0  0  0  0  0  0  0  0  0  0
    1.1192    1.6364    8.4207 N   0  0  0  0  0  4  0  0  0  0  0  0
    1.9193    1.5925    9.6042 C   0  0  0  0  0  0  0  0  0  0  0  0
    2.6299    0.2560    9.7996 C   0  0  0  0  0  0  0  0  0  0  0  0
    3.0222    2.6317    9.4778 C   0  0  0  0  0  0  0  0  0  0  0  0
    1.1297    1.9673   10.8466 C   0  0  0  0  0  0  0  0  0  0  0  0
   -0.0708    2.2483    5.9577 O   0  0  0  0  0  0  0  0  0  0  0  0
  1  2  1  0
  2  3  1  0
  3  4  2  0
  4  5  1  0
  5  6  2  0
  6  7  1  0
  7  8  2  0
  8  9  1  0
  5 10  1  0
 10 11  1  0
 11 12  1  0
 12 13  1  0
 13 14  1  0
 13 15  1  0
 13 16  1  0
 10 17  1  6
  8  3  1  0
M  CHG  1  12   1
M  END
$$$$
