
     RDKit          3D

 17 17  0  0  0  0  0  0  0  0999 V2000
   -0.2307    6.7913    4.2634 O   0  0  0  0  0  0  0  0  0  0  0  0
   -1.3870    6.0231    4.3125 C   0  0  0  0  0  0  0  0  0  0  0  0
   -1.8466    5.9461    5.7283 C   0  0  0  0  0  0  0  0  0  0  0  0
   -1.1641    5.1580    6.6579 C   0  0  0  0  0  0  0  0  0  0  0  0
   -1.5667    5.0676    7.9727 C   0  0  0  0  0  0  0  0  0  0  0  0
   -2.6976    5.8085    8.3266 C   0  0  0  0  0  0  0  0  0  0  0  0
   -3.3732    6.5870    7.4098 C   0  0  0  0  0  0  0  0  0  0  0  0
   -2.9558    6.6642    6.1036 C   0  0  0  0  0  0  0  0  0  0  0  0
   -3.6109    7.4372    5.1535 O   0  0  0  0  0  0  0  0  0  0  0  0
   -0.8620    4.2391    8.9795 C   0  0  2  0  0  0  0  0  0  0  0  0
   -0.3409    2.9508    8.3754 C   0  0  0  0  0  0  0  0  0  0  0  0
    0.2721    2.1026    9.3523 N   0  0  0  0  0  4  0  0  0  0  0  0
    0.8667    0.9067    8.8434 C   0  0  0  0  0  0  0  0  0  0  0  0
    2.3880    0.9852    8.7497 C   0  0  0  0  0  0  0  0  0  0  0  0
    0.5709   -0.2274    9.8122 C   0  0  0  0  0  0  0  0  0  0  0  0
    0.2678    0.4881    7.5117 C   0  0  0  0  0  0  0  0  0  0  0  0
   -1.6915    3.9256   10.0387 O   0  0  0  0  0  0  0  0  0  0  0  0
  1  2  1  0
  2  3  1  0
  3  4  2  0
  4  5  1  0
  5  6  2  0
  6  7  1  0
  7  8  2  0
  8  9  1  0
  5 10  1  0
 10 11  1  0
 11 12  1  0
 12 13  1  0
 13 14  1  0
 13 15  1  0
 13 16  1  0
 10 17  1  1
  8  3  1  0
M  CHG  1  12   1
M  END
$$$$
