
     RDKit          3D

 17 17  0  0  0  0  0  0  0  0999 V2000
   -2.3764    7.5155    8.7691 O   0  0  0  0  0  0  0  0  0  0  0  0
   -3.1294    6.8719    7.7951 C   0  0  0  0  0  0  0  0  0  0  0  0
   -2.2056    6.1147    6.9036 C   0  0  0  0  0  0  0  0  0  0  0  0
   -1.7052    4.8684    7.2882 C   0  0  0  0  0  0  0  0  0  0  0  0
   -0.8494    4.1467    6.4847 C   0  0  0  0  0  0  0  0  0  0  0  0
   -0.5080    4.7303    5.2616 C   0  0  0  0  0  0  0  0  0  0  0  0
   -1.0008    5.9610    4.8804 C   0  0  0  0  0  0  0  0  0  0  0  0
   -1.8533    6.6649    5.6954 C   0  0  0  0  0  0  0  0  0  0  0  0
   -2.3688    7.9060    5.3446 O   0  0  0  0  0  0  0  0  0  0  0  0
   -0.3032    2.8232    6.8679 C   0  0  2  0  0  0  0  0  0  0  0  0
    0.6107    2.9246    8.0723 C   0  0  0  0  0  0  0  0  0  0  0  0
    1.1361    1.6515    8.4633 N   0  0  0  0  0  4  0  0  0  0  0  0
    1.8185    1.6262    9.7188 C   0  0  0  0  0  0  0  0  0  0  0  0
    2.8618    2.7314    9.8578 C   0  0  0  0  0  0  0  0  0  0  0  0
    0.8033    1.8757   10.8230 C   0  0  0  0  0  0  0  0  0  0  0  0
    2.4327    0.2682   10.0124 C   0  0  0  0  0  0  0  0  0  0  0  0
    0.4018    2.2522    5.8261 O   0  0  0  0  0  0  0  0  0  0  0  0
  1  2  1  0
  2  3  1  0
  3  4  2  0
  4  5  1  0
  5  6  2  0
  6  7  1  0
  7  8  2  0
  8  9  1  0
  5 10  1  0
 10 11  1  0
 11 12  1  0
 12 13  1  0
 13 14  1  0
 13 15  1  0
 13 16  1  0
 10 17  1  6
  8  3  1  0
M  CHG  1  12   1
M  END
$$$$
