
     RDKit          3D

 17 17  0  0  0  0  0  0  0  0999 V2000
   -4.5907    6.4613    8.1247 O   0  0  0  0  0  0  0  0  0  0  0  0
   -3.3406    7.0331    7.9243 C   0  0  0  0  0  0  0  0  0  0  0  0
   -2.5747    6.1794    6.9724 C   0  0  0  0  0  0  0  0  0  0  0  0
   -2.0975    4.9261    7.3634 C   0  0  0  0  0  0  0  0  0  0  0  0
   -1.3863    4.1162    6.5049 C   0  0  0  0  0  0  0  0  0  0  0  0
   -1.1674    4.6176    5.2189 C   0  0  0  0  0  0  0  0  0  0  0  0
   -1.6374    5.8551    4.8311 C   0  0  0  0  0  0  0  0  0  0  0  0
   -2.3449    6.6476    5.7017 C   0  0  0  0  0  0  0  0  0  0  0  0
   -2.8332    7.8984    5.3462 O   0  0  0  0  0  0  0  0  0  0  0  0
   -0.8679    2.7831    6.8935 C   0  0  2  0  0  0  0  0  0  0  0  0
    0.1835    2.8885    7.9795 C   0  0  0  0  0  0  0  0  0  0  0  0
    0.7245    1.6120    8.3365 N   0  0  0  0  0  4  0  0  0  0  0  0
    1.5085    1.5877    9.5313 C   0  0  0  0  0  0  0  0  0  0  0  0
    2.1355    0.2246    9.8106 C   0  0  0  0  0  0  0  0  0  0  0  0
    2.6730    2.5508    9.3621 C   0  0  0  0  0  0  0  0  0  0  0  0
    0.7301    2.0784   10.7400 C   0  0  0  0  0  0  0  0  0  0  0  0
   -0.3187    2.1247    5.8103 O   0  0  0  0  0  0  0  0  0  0  0  0
  1  2  1  0
  2  3  1  0
  3  4  2  0
  4  5  1  0
  5  6  2  0
  6  7  1  0
  7  8  2  0
  8  9  1  0
  5 10  1  0
 10 11  1  0
 11 12  1  0
 12 13  1  0
 13 14  1  0
 13 15  1  0
 13 16  1  0
 10 17  1  6
  8  3  1  0
M  CHG  1  12   1
M  END
$$$$
