
     RDKit          3D

 17 17  0  0  0  0  0  0  0  0999 V2000
   -4.3499    6.6582    7.7903 O   0  0  0  0  0  0  0  0  0  0  0  0
   -3.0248    7.0461    7.9427 C   0  0  0  0  0  0  0  0  0  0  0  0
   -2.1851    6.2472    7.0055 C   0  0  0  0  0  0  0  0  0  0  0  0
   -1.7183    4.9815    7.3681 C   0  0  0  0  0  0  0  0  0  0  0  0
   -0.9401    4.2214    6.5223 C   0  0  0  0  0  0  0  0  0  0  0  0
   -0.6420    4.7865    5.2793 C   0  0  0  0  0  0  0  0  0  0  0  0
   -1.1016    6.0364    4.9197 C   0  0  0  0  0  0  0  0  0  0  0  0
   -1.8767    6.7786    5.7769 C   0  0  0  0  0  0  0  0  0  0  0  0
   -2.3569    8.0400    5.4489 O   0  0  0  0  0  0  0  0  0  0  0  0
   -0.4310    2.8765    6.8813 C   0  0  2  0  0  0  0  0  0  0  0  0
    0.6516    2.9541    7.9388 C   0  0  0  0  0  0  0  0  0  0  0  0
    1.1740    1.6645    8.2758 N   0  0  0  0  0  4  0  0  0  0  0  0
    1.8969    1.5954    9.5068 C   0  0  0  0  0  0  0  0  0  0  0  0
    2.4514    0.2041    9.8005 C   0  0  0  0  0  0  0  0  0  0  0  0
    3.1080    2.5093    9.4053 C   0  0  0  0  0  0  0  0  0  0  0  0
    1.0820    2.1074   10.6820 C   0  0  0  0  0  0  0  0  0  0  0  0
    0.0781    2.2227    5.7760 O   0  0  0  0  0  0  0  0  0  0  0  0
  1  2  1  0
  2  3  1  0
  3  4  2  0
  4  5  1  0
  5  6  2  0
  6  7  1  0
  7  8  2  0
  8  9  1  0
  5 10  1  0
 10 11  1  0
 11 12  1  0
 12 13  1  0
 13 14  1  0
 13 15  1  0
 13 16  1  0
 10 17  1  6
  8  3  1  0
M  CHG  1  12   1
M  END
$$$$
