
     RDKit          3D

 17 17  0  0  0  0  0  0  0  0999 V2000
   -2.6553    7.5184    8.7997 O   0  0  0  0  0  0  0  0  0  0  0  0
   -3.3970    6.7674    7.8966 C   0  0  0  0  0  0  0  0  0  0  0  0
   -2.4562    6.0239    7.0113 C   0  0  0  0  0  0  0  0  0  0  0  0
   -1.9444    4.7826    7.3968 C   0  0  0  0  0  0  0  0  0  0  0  0
   -1.0728    4.0735    6.5991 C   0  0  0  0  0  0  0  0  0  0  0  0
   -0.7274    4.6648    5.3807 C   0  0  0  0  0  0  0  0  0  0  0  0
   -1.2315    5.8906    4.9986 C   0  0  0  0  0  0  0  0  0  0  0  0
   -2.0997    6.5819    5.8079 C   0  0  0  0  0  0  0  0  0  0  0  0
   -2.6269    7.8178    5.4560 O   0  0  0  0  0  0  0  0  0  0  0  0
   -0.5142    2.7555    6.9834 C   0  0  2  0  0  0  0  0  0  0  0  0
    0.4211    2.8709    8.1700 C   0  0  0  0  0  0  0  0  0  0  0  0
    0.9720    1.6057    8.5514 N   0  0  0  0  0  4  0  0  0  0  0  0
    1.6284    1.5773    9.8207 C   0  0  0  0  0  0  0  0  0  0  0  0
    0.6579    1.5345   10.9979 C   0  0  0  0  0  0  0  0  0  0  0  0
    2.4443    0.2974    9.9116 C   0  0  0  0  0  0  0  0  0  0  0  0
    2.6181    2.7184    9.9822 C   0  0  0  0  0  0  0  0  0  0  0  0
    0.1740    2.1785    5.9337 O   0  0  0  0  0  0  0  0  0  0  0  0
  1  2  1  0
  2  3  1  0
  3  4  2  0
  4  5  1  0
  5  6  2  0
  6  7  1  0
  7  8  2  0
  8  9  1  0
  5 10  1  0
 10 11  1  0
 11 12  1  0
 12 13  1  0
 13 14  1  0
 13 15  1  0
 13 16  1  0
 10 17  1  6
  8  3  1  0
M  CHG  1  12   1
M  END
$$$$
