
     RDKit          3D

 17 17  0  0  0  0  0  0  0  0999 V2000
   -4.8847    4.0414   11.8569 O   0  0  0  0  0  0  0  0  0  0  0  0
   -4.0334    4.8629   11.1287 C   0  0  0  0  0  0  0  0  0  0  0  0
   -2.8859    4.0456   10.6418 C   0  0  0  0  0  0  0  0  0  0  0  0
   -2.5213    4.0600    9.2934 C   0  0  0  0  0  0  0  0  0  0  0  0
   -1.4657    3.3142    8.8154 C   0  0  0  0  0  0  0  0  0  0  0  0
   -0.7782    2.5407    9.7547 C   0  0  0  0  0  0  0  0  0  0  0  0
   -1.1371    2.5249   11.0865 C   0  0  0  0  0  0  0  0  0  0  0  0
   -2.1924    3.2757   11.5435 C   0  0  0  0  0  0  0  0  0  0  0  0
   -2.5821    3.2846   12.8767 O   0  0  0  0  0  0  0  0  0  0  0  0
   -1.0577    3.3101    7.3906 C   0  0  2  0  0  0  0  0  0  0  0  0
   -1.0757    4.7061    6.8014 C   0  0  0  0  0  0  0  0  0  0  0  0
   -0.6870    4.7184    5.4236 N   0  0  0  0  0  4  0  0  0  0  0  0
   -0.7431    5.9929    4.7792 C   0  0  0  0  0  0  0  0  0  0  0  0
   -0.4747    5.9196    3.2786 C   0  0  0  0  0  0  0  0  0  0  0  0
   -2.1544    6.5412    4.9198 C   0  0  0  0  0  0  0  0  0  0  0  0
    0.1706    7.0116    5.4388 C   0  0  0  0  0  0  0  0  0  0  0  0
   -1.8853    2.5020    6.6354 O   0  0  0  0  0  0  0  0  0  0  0  0
  1  2  1  0
  2  3  1  0
  3  4  2  0
  4  5  1  0
  5  6  2  0
  6  7  1  0
  7  8  2  0
  8  9  1  0
  5 10  1  0
 10 11  1  0
 11 12  1  0
 12 13  1  0
 13 14  1  0
 13 15  1  0
 13 16  1  0
 10 17  1  6
  8  3  1  0
M  CHG  1  12   1
M  END
$$$$
