
     RDKit          3D

 17 17  0  0  0  0  0  0  0  0999 V2000
    0.6929    5.9861    3.9907 O   0  0  0  0  0  0  0  0  0  0  0  0
   -0.6780    5.8004    4.1166 C   0  0  0  0  0  0  0  0  0  0  0  0
   -1.0459    5.9368    5.5545 C   0  0  0  0  0  0  0  0  0  0  0  0
   -0.9784    4.8387    6.4153 C   0  0  0  0  0  0  0  0  0  0  0  0
   -1.3130    4.9356    7.7486 C   0  0  0  0  0  0  0  0  0  0  0  0
   -1.7249    6.1947    8.1940 C   0  0  0  0  0  0  0  0  0  0  0  0
   -1.7926    7.2800    7.3453 C   0  0  0  0  0  0  0  0  0  0  0  0
   -1.4544    7.1631    6.0193 C   0  0  0  0  0  0  0  0  0  0  0  0
   -1.5104    8.2336    5.1360 O   0  0  0  0  0  0  0  0  0  0  0  0
   -1.2513    3.7873    8.6837 C   0  0  2  0  0  0  0  0  0  0  0  0
    0.1418    3.1943    8.7472 C   0  0  0  0  0  0  0  0  0  0  0  0
    0.2344    2.1278    9.6978 N   0  0  0  0  0  4  0  0  0  0  0  0
    1.5205    1.5151    9.8125 C   0  0  0  0  0  0  0  0  0  0  0  0
    1.9407    0.7605    8.5541 C   0  0  0  0  0  0  0  0  0  0  0  0
    2.5591    2.6091   10.0037 C   0  0  0  0  0  0  0  0  0  0  0  0
    1.6241    0.6196   11.0351 C   0  0  0  0  0  0  0  0  0  0  0  0
   -2.1372    2.7936    8.3150 O   0  0  0  0  0  0  0  0  0  0  0  0
  1  2  1  0
  2  3  1  0
  3  4  2  0
  4  5  1  0
  5  6  2  0
  6  7  1  0
  7  8  2  0
  8  9  1  0
  5 10  1  0
 10 11  1  0
 11 12  1  0
 12 13  1  0
 13 14  1  0
 13 15  1  0
 13 16  1  0
 10 17  1  6
  8  3  1  0
M  CHG  1  12   1
M  END
$$$$
