
     RDKit          3D

 17 17  0  0  0  0  0  0  0  0999 V2000
   -2.4531    7.4468    8.9970 O   0  0  0  0  0  0  0  0  0  0  0  0
   -3.1760    6.8692    7.9609 C   0  0  0  0  0  0  0  0  0  0  0  0
   -2.2234    6.1871    7.0395 C   0  0  0  0  0  0  0  0  0  0  0  0
   -1.7568    4.9007    7.3202 C   0  0  0  0  0  0  0  0  0  0  0  0
   -0.8756    4.2465    6.4869 C   0  0  0  0  0  0  0  0  0  0  0  0
   -0.4727    4.9413    5.3432 C   0  0  0  0  0  0  0  0  0  0  0  0
   -0.9320    6.2118    5.0645 C   0  0  0  0  0  0  0  0  0  0  0  0
   -1.8106    6.8470    5.9077 C   0  0  0  0  0  0  0  0  0  0  0  0
   -2.2939    8.1253    5.6594 O   0  0  0  0  0  0  0  0  0  0  0  0
   -0.3642    2.8826    6.7606 C   0  0  2  0  0  0  0  0  0  0  0  0
    0.5784    2.8682    7.9470 C   0  0  0  0  0  0  0  0  0  0  0  0
    1.0871    1.5580    8.2197 N   0  0  0  0  0  4  0  0  0  0  0  0
    1.6983    1.3890    9.5005 C   0  0  0  0  0  0  0  0  0  0  0  0
    2.3934    0.0397    9.6610 C   0  0  0  0  0  0  0  0  0  0  0  0
    2.7898    2.4364    9.6545 C   0  0  0  0  0  0  0  0  0  0  0  0
    0.7226    1.6290   10.6397 C   0  0  0  0  0  0  0  0  0  0  0  0
    0.2992    2.3676    5.6639 O   0  0  0  0  0  0  0  0  0  0  0  0
  1  2  1  0
  2  3  1  0
  3  4  2  0
  4  5  1  0
  5  6  2  0
  6  7  1  0
  7  8  2  0
  8  9  1  0
  5 10  1  0
 10 11  1  0
 11 12  1  0
 12 13  1  0
 13 14  1  0
 13 15  1  0
 13 16  1  0
 10 17  1  6
  8  3  1  0
M  CHG  1  12   1
M  END
$$$$
