
     RDKit          3D

 17 17  0  0  0  0  0  0  0  0999 V2000
   -4.3484    7.0333    7.7226 O   0  0  0  0  0  0  0  0  0  0  0  0
   -3.0094    7.1124    8.0841 C   0  0  0  0  0  0  0  0  0  0  0  0
   -2.2120    6.2813    7.1381 C   0  0  0  0  0  0  0  0  0  0  0  0
   -1.7447    5.0203    7.5161 C   0  0  0  0  0  0  0  0  0  0  0  0
   -1.0049    4.2308    6.6627 C   0  0  0  0  0  0  0  0  0  0  0  0
   -0.7465    4.7611    5.3957 C   0  0  0  0  0  0  0  0  0  0  0  0
   -1.2068    6.0063    5.0209 C   0  0  0  0  0  0  0  0  0  0  0  0
   -1.9431    6.7781    5.8861 C   0  0  0  0  0  0  0  0  0  0  0  0
   -2.4226    8.0358    5.5433 O   0  0  0  0  0  0  0  0  0  0  0  0
   -0.4963    2.8901    7.0376 C   0  0  2  0  0  0  0  0  0  0  0  0
    0.5435    2.9755    8.1366 C   0  0  0  0  0  0  0  0  0  0  0  0
    1.0780    1.6921    8.4785 N   0  0  0  0  0  4  0  0  0  0  0  0
    1.7596    1.6232    9.7329 C   0  0  0  0  0  0  0  0  0  0  0  0
    2.2610    0.2212   10.0678 C   0  0  0  0  0  0  0  0  0  0  0  0
    3.0011    2.4977    9.6542 C   0  0  0  0  0  0  0  0  0  0  0  0
    0.9247    2.1812   10.8726 C   0  0  0  0  0  0  0  0  0  0  0  0
    0.0622    2.2450    5.9512 O   0  0  0  0  0  0  0  0  0  0  0  0
  1  2  1  0
  2  3  1  0
  3  4  2  0
  4  5  1  0
  5  6  2  0
  6  7  1  0
  7  8  2  0
  8  9  1  0
  5 10  1  0
 10 11  1  0
 11 12  1  0
 12 13  1  0
 13 14  1  0
 13 15  1  0
 13 16  1  0
 10 17  1  6
  8  3  1  0
M  CHG  1  12   1
M  END
$$$$
