
     RDKit          3D

 17 17  0  0  0  0  0  0  0  0999 V2000
   -4.2317    6.7867    7.7946 O   0  0  0  0  0  0  0  0  0  0  0  0
   -2.9102    7.1797    7.9647 C   0  0  0  0  0  0  0  0  0  0  0  0
   -2.0563    6.3919    7.0311 C   0  0  0  0  0  0  0  0  0  0  0  0
   -1.6056    5.1168    7.3807 C   0  0  0  0  0  0  0  0  0  0  0  0
   -0.8146    4.3664    6.5379 C   0  0  0  0  0  0  0  0  0  0  0  0
   -0.4867    4.9515    5.3118 C   0  0  0  0  0  0  0  0  0  0  0  0
   -0.9305    6.2107    4.9651 C   0  0  0  0  0  0  0  0  0  0  0  0
   -1.7186    6.9429    5.8191 C   0  0  0  0  0  0  0  0  0  0  0  0
   -2.1835    8.2132    5.5038 O   0  0  0  0  0  0  0  0  0  0  0  0
   -0.3221    3.0118    6.8834 C   0  0  2  0  0  0  0  0  0  0  0  0
    0.6691    3.0542    8.0288 C   0  0  0  0  0  0  0  0  0  0  0  0
    1.1812    1.7568    8.3512 N   0  0  0  0  0  4  0  0  0  0  0  0
    1.9412    1.6774    9.5591 C   0  0  0  0  0  0  0  0  0  0  0  0
    1.0951    1.8695   10.8147 C   0  0  0  0  0  0  0  0  0  0  0  0
    2.5282    0.2789    9.6669 C   0  0  0  0  0  0  0  0  0  0  0  0
    3.1242    2.6303    9.5581 C   0  0  0  0  0  0  0  0  0  0  0  0
    0.2832    2.4078    5.7984 O   0  0  0  0  0  0  0  0  0  0  0  0
  1  2  1  0
  2  3  1  0
  3  4  2  0
  4  5  1  0
  5  6  2  0
  6  7  1  0
  7  8  2  0
  8  9  1  0
  5 10  1  0
 10 11  1  0
 11 12  1  0
 12 13  1  0
 13 14  1  0
 13 15  1  0
 13 16  1  0
 10 17  1  6
  8  3  1  0
M  CHG  1  12   1
M  END
$$$$
