
     RDKit          3D

 17 17  0  0  0  0  0  0  0  0999 V2000
   -0.2719    8.1440    5.4886 O   0  0  0  0  0  0  0  0  0  0  0  0
   -1.2146    7.3208    4.8857 C   0  0  0  0  0  0  0  0  0  0  0  0
   -1.6772    6.3165    5.8852 C   0  0  0  0  0  0  0  0  0  0  0  0
   -0.9988    5.1061    6.0466 C   0  0  0  0  0  0  0  0  0  0  0  0
   -1.4042    4.1593    6.9621 C   0  0  0  0  0  0  0  0  0  0  0  0
   -2.5336    4.4761    7.7221 C   0  0  0  0  0  0  0  0  0  0  0  0
   -3.2049    5.6707    7.5637 C   0  0  0  0  0  0  0  0  0  0  0  0
   -2.7848    6.6019    6.6457 C   0  0  0  0  0  0  0  0  0  0  0  0
   -3.4357    7.8147    6.4591 O   0  0  0  0  0  0  0  0  0  0  0  0
   -0.7040    2.8672    7.1536 C   0  0  2  0  0  0  0  0  0  0  0  0
    0.4309    2.9903    8.1502 C   0  0  0  0  0  0  0  0  0  0  0  0
    1.0521    1.7297    8.4232 N   0  0  0  0  0  4  0  0  0  0  0  0
    1.9878    1.7255    9.5036 C   0  0  0  0  0  0  0  0  0  0  0  0
    2.7061    0.3893    9.6708 C   0  0  0  0  0  0  0  0  0  0  0  0
    3.0758    2.7439    9.2016 C   0  0  0  0  0  0  0  0  0  0  0  0
    1.3556    2.1626   10.8138 C   0  0  0  0  0  0  0  0  0  0  0  0
   -0.1939    2.3929    5.9607 O   0  0  0  0  0  0  0  0  0  0  0  0
  1  2  1  0
  2  3  1  0
  3  4  2  0
  4  5  1  0
  5  6  2  0
  6  7  1  0
  7  8  2  0
  8  9  1  0
  5 10  1  0
 10 11  1  0
 11 12  1  0
 12 13  1  0
 13 14  1  0
 13 15  1  0
 13 16  1  0
 10 17  1  6
  8  3  1  0
M  CHG  1  12   1
M  END
$$$$
