
     RDKit          3D

 17 17  0  0  0  0  0  0  0  0999 V2000
   -1.8194    6.6936    3.1932 O   0  0  0  0  0  0  0  0  0  0  0  0
   -0.7455    6.6794    4.0743 C   0  0  0  0  0  0  0  0  0  0  0  0
   -1.1639    5.9798    5.3221 C   0  0  0  0  0  0  0  0  0  0  0  0
   -0.6720    4.7082    5.6261 C   0  0  0  0  0  0  0  0  0  0  0  0
   -1.0419    4.0379    6.7718 C   0  0  0  0  0  0  0  0  0  0  0  0
   -1.9380    4.7004    7.6152 C   0  0  0  0  0  0  0  0  0  0  0  0
   -2.4251    5.9559    7.3165 C   0  0  0  0  0  0  0  0  0  0  0  0
   -2.0440    6.6079    6.1693 C   0  0  0  0  0  0  0  0  0  0  0  0
   -2.5137    7.8719    5.8361 O   0  0  0  0  0  0  0  0  0  0  0  0
   -0.5363    2.6885    7.1186 C   0  0  2  0  0  0  0  0  0  0  0  0
    0.4962    2.7476    8.2262 C   0  0  0  0  0  0  0  0  0  0  0  0
    0.9660    1.4478    8.5997 N   0  0  0  0  0  4  0  0  0  0  0  0
    1.6940    1.3856    9.8280 C   0  0  0  0  0  0  0  0  0  0  0  0
    2.1487   -0.0267   10.1859 C   0  0  0  0  0  0  0  0  0  0  0  0
    2.9672    2.2026    9.6743 C   0  0  0  0  0  0  0  0  0  0  0  0
    0.9300    2.0120   10.9819 C   0  0  0  0  0  0  0  0  0  0  0  0
    0.0292    2.0688    6.0211 O   0  0  0  0  0  0  0  0  0  0  0  0
  1  2  1  0
  2  3  1  0
  3  4  2  0
  4  5  1  0
  5  6  2  0
  6  7  1  0
  7  8  2  0
  8  9  1  0
  5 10  1  0
 10 11  1  0
 11 12  1  0
 12 13  1  0
 13 14  1  0
 13 15  1  0
 13 16  1  0
 10 17  1  6
  8  3  1  0
M  CHG  1  12   1
M  END
$$$$
