
     RDKit          3D

 17 17  0  0  0  0  0  0  0  0999 V2000
   -2.1215    6.6995    3.6959 O   0  0  0  0  0  0  0  0  0  0  0  0
   -1.3047    6.9404    4.7935 C   0  0  0  0  0  0  0  0  0  0  0  0
   -1.7076    6.0222    5.8963 C   0  0  0  0  0  0  0  0  0  0  0  0
   -1.0628    4.7959    6.0748 C   0  0  0  0  0  0  0  0  0  0  0  0
   -1.4146    3.9272    7.0850 C   0  0  0  0  0  0  0  0  0  0  0  0
   -2.4541    4.3401    7.9230 C   0  0  0  0  0  0  0  0  0  0  0  0
   -3.0923    5.5503    7.7479 C   0  0  0  0  0  0  0  0  0  0  0  0
   -2.7266    6.4028    6.7350 C   0  0  0  0  0  0  0  0  0  0  0  0
   -3.3464    7.6286    6.5286 O   0  0  0  0  0  0  0  0  0  0  0  0
   -0.7482    2.6204    7.2969 C   0  0  2  0  0  0  0  0  0  0  0  0
    0.2090    2.6665    8.4708 C   0  0  0  0  0  0  0  0  0  0  0  0
    0.8808    1.4184    8.6722 N   0  0  0  0  0  4  0  0  0  0  0  0
    1.5842    1.2904    9.9097 C   0  0  0  0  0  0  0  0  0  0  0  0
    2.7158    2.3027   10.0649 C   0  0  0  0  0  0  0  0  0  0  0  0
    0.6150    1.5774   11.0457 C   0  0  0  0  0  0  0  0  0  0  0  0
    2.0929   -0.1225   10.1387 C   0  0  0  0  0  0  0  0  0  0  0  0
   -0.0486    2.2274    6.1725 O   0  0  0  0  0  0  0  0  0  0  0  0
  1  2  1  0
  2  3  1  0
  3  4  2  0
  4  5  1  0
  5  6  2  0
  6  7  1  0
  7  8  2  0
  8  9  1  0
  5 10  1  0
 10 11  1  0
 11 12  1  0
 12 13  1  0
 13 14  1  0
 13 15  1  0
 13 16  1  0
 10 17  1  6
  8  3  1  0
M  CHG  1  12   1
M  END
$$$$
