
     RDKit          3D

 17 17  0  0  0  0  0  0  0  0999 V2000
   -1.5484    8.0915    8.9432 O   0  0  0  0  0  0  0  0  0  0  0  0
   -2.4812    7.1352    8.5623 C   0  0  0  0  0  0  0  0  0  0  0  0
   -1.8807    6.2839    7.4964 C   0  0  0  0  0  0  0  0  0  0  0  0
   -1.0544    5.2066    7.8249 C   0  0  0  0  0  0  0  0  0  0  0  0
   -0.4854    4.4034    6.8606 C   0  0  0  0  0  0  0  0  0  0  0  0
   -0.7801    4.7256    5.5330 C   0  0  0  0  0  0  0  0  0  0  0  0
   -1.5955    5.7893    5.2067 C   0  0  0  0  0  0  0  0  0  0  0  0
   -2.1537    6.5781    6.1827 C   0  0  0  0  0  0  0  0  0  0  0  0
   -2.9790    7.6567    5.8916 O   0  0  0  0  0  0  0  0  0  0  0  0
    0.3952    3.2549    7.1807 C   0  0  2  0  0  0  0  0  0  0  0  0
    0.0987    2.6912    8.5556 C   0  0  0  0  0  0  0  0  0  0  0  0
    0.9097    1.5517    8.8611 N   0  0  0  0  0  4  0  0  0  0  0  0
    0.6906    0.9666   10.1466 C   0  0  0  0  0  0  0  0  0  0  0  0
    1.1959    1.8348   11.2956 C   0  0  0  0  0  0  0  0  0  0  0  0
   -0.8081    0.8276   10.3625 C   0  0  0  0  0  0  0  0  0  0  0  0
    1.2608   -0.4379   10.2441 C   0  0  0  0  0  0  0  0  0  0  0  0
    1.7275    3.6167    7.1303 O   0  0  0  0  0  0  0  0  0  0  0  0
  1  2  1  0
  2  3  1  0
  3  4  2  0
  4  5  1  0
  5  6  2  0
  6  7  1  0
  7  8  2  0
  8  9  1  0
  5 10  1  0
 10 11  1  0
 11 12  1  0
 12 13  1  0
 13 14  1  0
 13 15  1  0
 13 16  1  0
 10 17  1  1
  8  3  1  0
M  CHG  1  12   1
M  END
$$$$
