
     RDKit          3D

 17 17  0  0  0  0  0  0  0  0999 V2000
   -4.2636    6.8622    7.7309 O   0  0  0  0  0  0  0  0  0  0  0  0
   -2.9462    7.2241    7.9824 C   0  0  0  0  0  0  0  0  0  0  0  0
   -2.0565    6.4323    7.0862 C   0  0  0  0  0  0  0  0  0  0  0  0
   -1.6202    5.1585    7.4585 C   0  0  0  0  0  0  0  0  0  0  0  0
   -0.7971    4.4045    6.6505 C   0  0  0  0  0  0  0  0  0  0  0  0
   -0.4213    4.9844    5.4357 C   0  0  0  0  0  0  0  0  0  0  0  0
   -0.8508    6.2422    5.0666 C   0  0  0  0  0  0  0  0  0  0  0  0
   -1.6714    6.9781    5.8860 C   0  0  0  0  0  0  0  0  0  0  0  0
   -2.1233    8.2472    5.5475 O   0  0  0  0  0  0  0  0  0  0  0  0
   -0.3189    3.0513    7.0206 C   0  0  2  0  0  0  0  0  0  0  0  0
    0.6957    3.1067    8.1447 C   0  0  0  0  0  0  0  0  0  0  0  0
    1.0900    1.8024    8.5841 N   0  0  0  0  0  4  0  0  0  0  0  0
    1.7577    1.7538    9.8469 C   0  0  0  0  0  0  0  0  0  0  0  0
    0.8853    2.2276   11.0062 C   0  0  0  0  0  0  0  0  0  0  0  0
    2.1007    0.3046   10.1540 C   0  0  0  0  0  0  0  0  0  0  0  0
    3.0789    2.5030    9.8283 C   0  0  0  0  0  0  0  0  0  0  0  0
    0.2549    2.4104    5.9397 O   0  0  0  0  0  0  0  0  0  0  0  0
  1  2  1  0
  2  3  1  0
  3  4  2  0
  4  5  1  0
  5  6  2  0
  6  7  1  0
  7  8  2  0
  8  9  1  0
  5 10  1  0
 10 11  1  0
 11 12  1  0
 12 13  1  0
 13 14  1  0
 13 15  1  0
 13 16  1  0
 10 17  1  6
  8  3  1  0
M  CHG  1  12   1
M  END
$$$$
