
     RDKit          3D

 17 17  0  0  0  0  0  0  0  0999 V2000
   -4.3208    6.6476    7.9334 O   0  0  0  0  0  0  0  0  0  0  0  0
   -3.0097    7.0748    8.1019 C   0  0  0  0  0  0  0  0  0  0  0  0
   -2.1321    6.2856    7.1917 C   0  0  0  0  0  0  0  0  0  0  0  0
   -1.6745    5.0191    7.5630 C   0  0  0  0  0  0  0  0  0  0  0  0
   -0.8619    4.2677    6.7421 C   0  0  0  0  0  0  0  0  0  0  0  0
   -0.5192    4.8425    5.5152 C   0  0  0  0  0  0  0  0  0  0  0  0
   -0.9697    6.0932    5.1470 C   0  0  0  0  0  0  0  0  0  0  0  0
   -1.7795    6.8266    5.9794 C   0  0  0  0  0  0  0  0  0  0  0  0
   -2.2519    8.0885    5.6421 O   0  0  0  0  0  0  0  0  0  0  0  0
   -0.3616    2.9222    7.1110 C   0  0  2  0  0  0  0  0  0  0  0  0
    0.6358    2.9910    8.2497 C   0  0  0  0  0  0  0  0  0  0  0  0
    1.1261    1.6979    8.6202 N   0  0  0  0  0  4  0  0  0  0  0  0
    1.7382    1.6176    9.9092 C   0  0  0  0  0  0  0  0  0  0  0  0
    0.8126    2.0533   11.0419 C   0  0  0  0  0  0  0  0  0  0  0  0
    2.0778    0.1623   10.1905 C   0  0  0  0  0  0  0  0  0  0  0  0
    3.0536    2.3748    9.9696 C   0  0  0  0  0  0  0  0  0  0  0  0
    0.2403    2.2997    6.0345 O   0  0  0  0  0  0  0  0  0  0  0  0
  1  2  1  0
  2  3  1  0
  3  4  2  0
  4  5  1  0
  5  6  2  0
  6  7  1  0
  7  8  2  0
  8  9  1  0
  5 10  1  0
 10 11  1  0
 11 12  1  0
 12 13  1  0
 13 14  1  0
 13 15  1  0
 13 16  1  0
 10 17  1  6
  8  3  1  0
M  CHG  1  12   1
M  END
$$$$
