
     RDKit          3D

 17 17  0  0  0  0  0  0  0  0999 V2000
   -3.5234    6.8878    9.2454 O   0  0  0  0  0  0  0  0  0  0  0  0
   -2.3412    7.3334    8.6677 C   0  0  0  0  0  0  0  0  0  0  0  0
   -1.9802    6.4120    7.5531 C   0  0  0  0  0  0  0  0  0  0  0  0
   -1.2578    5.2422    7.8003 C   0  0  0  0  0  0  0  0  0  0  0  0
   -0.9098    4.3727    6.7895 C   0  0  0  0  0  0  0  0  0  0  0  0
   -1.3193    4.7253    5.5006 C   0  0  0  0  0  0  0  0  0  0  0  0
   -2.0324    5.8802    5.2546 C   0  0  0  0  0  0  0  0  0  0  0  0
   -2.3700    6.7341    6.2760 C   0  0  0  0  0  0  0  0  0  0  0  0
   -3.0867    7.9052    6.0658 O   0  0  0  0  0  0  0  0  0  0  0  0
   -0.1436    3.1256    7.0232 C   0  0  2  0  0  0  0  0  0  0  0  0
   -0.0914    2.7708    8.4954 C   0  0  0  0  0  0  0  0  0  0  0  0
    0.6627    1.5787    8.7397 N   0  0  0  0  0  4  0  0  0  0  0  0
    0.7952    1.2042   10.1126 C   0  0  0  0  0  0  0  0  0  0  0  0
    1.6087    2.2026   10.9317 C   0  0  0  0  0  0  0  0  0  0  0  0
   -0.5890    1.1851   10.7416 C   0  0  0  0  0  0  0  0  0  0  0  0
    1.3494   -0.2008   10.2747 C   0  0  0  0  0  0  0  0  0  0  0  0
    1.1495    3.2369    6.5502 O   0  0  0  0  0  0  0  0  0  0  0  0
  1  2  1  0
  2  3  1  0
  3  4  2  0
  4  5  1  0
  5  6  2  0
  6  7  1  0
  7  8  2  0
  8  9  1  0
  5 10  1  0
 10 11  1  0
 11 12  1  0
 12 13  1  0
 13 14  1  0
 13 15  1  0
 13 16  1  0
 10 17  1  1
  8  3  1  0
M  CHG  1  12   1
M  END
$$$$
