
     RDKit          3D

 17 17  0  0  0  0  0  0  0  0999 V2000
   -2.5720    8.5098    8.0508 O   0  0  0  0  0  0  0  0  0  0  0  0
   -3.1920    7.5755    7.2308 C   0  0  0  0  0  0  0  0  0  0  0  0
   -2.2316    6.4678    6.9619 C   0  0  0  0  0  0  0  0  0  0  0  0
   -2.0584    5.4339    7.8851 C   0  0  0  0  0  0  0  0  0  0  0  0
   -1.1774    4.3978    7.6631 C   0  0  0  0  0  0  0  0  0  0  0  0
   -0.4646    4.4375    6.4616 C   0  0  0  0  0  0  0  0  0  0  0  0
   -0.6339    5.4579    5.5490 C   0  0  0  0  0  0  0  0  0  0  0  0
   -1.5175    6.4818    5.7886 C   0  0  0  0  0  0  0  0  0  0  0  0
   -1.7139    7.5252    4.8930 O   0  0  0  0  0  0  0  0  0  0  0  0
   -0.9736    3.2890    8.6252 C   0  0  2  0  0  0  0  0  0  0  0  0
    0.4394    2.7455    8.5584 C   0  0  0  0  0  0  0  0  0  0  0  0
    0.6527    1.6740    9.4836 N   0  0  0  0  0  4  0  0  0  0  0  0
    1.9994    1.2062    9.5842 C   0  0  0  0  0  0  0  0  0  0  0  0
    2.9678    2.2689   10.0963 C   0  0  0  0  0  0  0  0  0  0  0  0
    2.0427    0.0814   10.6065 C   0  0  0  0  0  0  0  0  0  0  0  0
    2.4995    0.6080    8.2805 C   0  0  0  0  0  0  0  0  0  0  0  0
   -1.8563    2.2530    8.3890 O   0  0  0  0  0  0  0  0  0  0  0  0
  1  2  1  0
  2  3  1  0
  3  4  2  0
  4  5  1  0
  5  6  2  0
  6  7  1  0
  7  8  2  0
  8  9  1  0
  5 10  1  0
 10 11  1  0
 11 12  1  0
 12 13  1  0
 13 14  1  0
 13 15  1  0
 13 16  1  0
 10 17  1  6
  8  3  1  0
M  CHG  1  12   1
M  END
$$$$
