
     RDKit          3D

 17 17  0  0  0  0  0  0  0  0999 V2000
   -1.6770    8.1591    8.4182 O   0  0  0  0  0  0  0  0  0  0  0  0
   -2.5080    7.0580    8.2546 C   0  0  0  0  0  0  0  0  0  0  0  0
   -1.9563    6.2041    7.1646 C   0  0  0  0  0  0  0  0  0  0  0  0
   -1.3456    4.9820    7.4558 C   0  0  0  0  0  0  0  0  0  0  0  0
   -0.8264    4.1727    6.4687 C   0  0  0  0  0  0  0  0  0  0  0  0
   -0.9439    4.6418    5.1574 C   0  0  0  0  0  0  0  0  0  0  0  0
   -1.5463    5.8485    4.8681 C   0  0  0  0  0  0  0  0  0  0  0  0
   -2.0581    6.6410    5.8664 C   0  0  0  0  0  0  0  0  0  0  0  0
   -2.6710    7.8613    5.6125 O   0  0  0  0  0  0  0  0  0  0  0  0
   -0.1729    2.8723    6.7491 C   0  0  2  0  0  0  0  0  0  0  0  0
   -0.0351    2.6271    8.2381 C   0  0  0  0  0  0  0  0  0  0  0  0
    0.7012    1.4334    8.5254 N   0  0  0  0  0  4  0  0  0  0  0  0
    0.8831    1.1409    9.9126 C   0  0  0  0  0  0  0  0  0  0  0  0
   -0.4297    1.0636   10.6872 C   0  0  0  0  0  0  0  0  0  0  0  0
    1.5161   -0.2362   10.0347 C   0  0  0  0  0  0  0  0  0  0  0  0
    1.8456    2.1063   10.5826 C   0  0  0  0  0  0  0  0  0  0  0  0
    1.0813    2.8082    6.1737 O   0  0  0  0  0  0  0  0  0  0  0  0
  1  2  1  0
  2  3  1  0
  3  4  2  0
  4  5  1  0
  5  6  2  0
  6  7  1  0
  7  8  2  0
  8  9  1  0
  5 10  1  0
 10 11  1  0
 11 12  1  0
 12 13  1  0
 13 14  1  0
 13 15  1  0
 13 16  1  0
 10 17  1  6
  8  3  1  0
M  CHG  1  12   1
M  END
$$$$
