
     RDKit          3D

 17 17  0  0  0  0  0  0  0  0999 V2000
   -1.9996    6.8440    3.4737 O   0  0  0  0  0  0  0  0  0  0  0  0
   -1.0065    7.0095    4.4308 C   0  0  0  0  0  0  0  0  0  0  0  0
   -1.3707    6.2120    5.6362 C   0  0  0  0  0  0  0  0  0  0  0  0
   -0.8167    4.9474    5.8490 C   0  0  0  0  0  0  0  0  0  0  0  0
   -1.1356    4.1880    6.9537 C   0  0  0  0  0  0  0  0  0  0  0  0
   -2.0456    4.7525    7.8518 C   0  0  0  0  0  0  0  0  0  0  0  0
   -2.5939    6.0009    7.6432 C   0  0  0  0  0  0  0  0  0  0  0  0
   -2.2630    6.7427    6.5356 C   0  0  0  0  0  0  0  0  0  0  0  0
   -2.7950    8.0026    6.2929 O   0  0  0  0  0  0  0  0  0  0  0  0
   -0.5637    2.8438    7.2039 C   0  0  2  0  0  0  0  0  0  0  0  0
    0.3865    2.8529    8.3843 C   0  0  0  0  0  0  0  0  0  0  0  0
    0.9905    1.5737    8.6044 N   0  0  0  0  0  4  0  0  0  0  0  0
    1.6948    1.4296    9.8396 C   0  0  0  0  0  0  0  0  0  0  0  0
    0.7775    1.4449   11.0594 C   0  0  0  0  0  0  0  0  0  0  0  0
    2.3731    0.0687    9.8505 C   0  0  0  0  0  0  0  0  0  0  0  0
    2.8062    2.4539    9.9910 C   0  0  0  0  0  0  0  0  0  0  0  0
    0.1143    2.3743    6.0956 O   0  0  0  0  0  0  0  0  0  0  0  0
  1  2  1  0
  2  3  1  0
  3  4  2  0
  4  5  1  0
  5  6  2  0
  6  7  1  0
  7  8  2  0
  8  9  1  0
  5 10  1  0
 10 11  1  0
 11 12  1  0
 12 13  1  0
 13 14  1  0
 13 15  1  0
 13 16  1  0
 10 17  1  6
  8  3  1  0
M  CHG  1  12   1
M  END
$$$$
