
     RDKit          3D

 17 17  0  0  0  0  0  0  0  0999 V2000
   -3.6679    8.1222    8.0499 O   0  0  0  0  0  0  0  0  0  0  0  0
   -3.9561    7.0795    7.1784 C   0  0  0  0  0  0  0  0  0  0  0  0
   -2.7448    6.2208    7.0479 C   0  0  0  0  0  0  0  0  0  0  0  0
   -2.3723    5.3518    8.0762 C   0  0  0  0  0  0  0  0  0  0  0  0
   -1.2575    4.5472    7.9830 C   0  0  0  0  0  0  0  0  0  0  0  0
   -0.5178    4.6479    6.8015 C   0  0  0  0  0  0  0  0  0  0  0  0
   -0.8839    5.5057    5.7852 C   0  0  0  0  0  0  0  0  0  0  0  0
   -1.9991    6.2997    5.8970 C   0  0  0  0  0  0  0  0  0  0  0  0
   -2.3978    7.1747    4.8948 O   0  0  0  0  0  0  0  0  0  0  0  0
   -0.8390    3.6170    9.0583 C   0  0  2  0  0  0  0  0  0  0  0  0
    0.1620    2.5969    8.5549 C   0  0  0  0  0  0  0  0  0  0  0  0
    0.4382    1.5826    9.5268 N   0  0  0  0  0  4  0  0  0  0  0  0
    1.5886    0.7759    9.2650 C   0  0  0  0  0  0  0  0  0  0  0  0
    1.8522   -0.2644   10.3502 C   0  0  0  0  0  0  0  0  0  0  0  0
    1.3426   -0.0127    7.9884 C   0  0  0  0  0  0  0  0  0  0  0  0
    2.8311    1.6116    9.0094 C   0  0  0  0  0  0  0  0  0  0  0  0
   -1.9234    2.9460    9.5895 O   0  0  0  0  0  0  0  0  0  0  0  0
  1  2  1  0
  2  3  1  0
  3  4  2  0
  4  5  1  0
  5  6  2  0
  6  7  1  0
  7  8  2  0
  8  9  1  0
  5 10  1  0
 10 11  1  0
 11 12  1  0
 12 13  1  0
 13 14  1  0
 13 15  1  0
 13 16  1  0
 10 17  1  6
  8  3  1  0
M  CHG  1  12   1
M  END
$$$$
