
     RDKit          3D

 17 17  0  0  0  0  0  0  0  0999 V2000
   -4.4678    6.7325    7.8503 O   0  0  0  0  0  0  0  0  0  0  0  0
   -3.1395    7.1039    8.0157 C   0  0  0  0  0  0  0  0  0  0  0  0
   -2.3058    6.3275    7.0546 C   0  0  0  0  0  0  0  0  0  0  0  0
   -1.8814    5.0327    7.3626 C   0  0  0  0  0  0  0  0  0  0  0  0
   -1.1097    4.2922    6.4937 C   0  0  0  0  0  0  0  0  0  0  0  0
   -0.7735    4.9080    5.2850 C   0  0  0  0  0  0  0  0  0  0  0  0
   -1.1913    6.1866    4.9793 C   0  0  0  0  0  0  0  0  0  0  0  0
   -1.9605    6.9086    5.8588 C   0  0  0  0  0  0  0  0  0  0  0  0
   -2.3991    8.1977    5.5850 O   0  0  0  0  0  0  0  0  0  0  0  0
   -0.6452    2.9174    6.7949 C   0  0  2  0  0  0  0  0  0  0  0  0
    0.3663    2.9052    7.9232 C   0  0  0  0  0  0  0  0  0  0  0  0
    0.8400    1.5856    8.2128 N   0  0  0  0  0  4  0  0  0  0  0  0
    1.5723    1.4481    9.4324 C   0  0  0  0  0  0  0  0  0  0  0  0
    2.0824    0.0294    9.6701 C   0  0  0  0  0  0  0  0  0  0  0  0
    2.8125    2.3241    9.3501 C   0  0  0  0  0  0  0  0  0  0  0  0
    0.7869    1.9444   10.6342 C   0  0  0  0  0  0  0  0  0  0  0  0
   -0.0739    2.3276    5.6840 O   0  0  0  0  0  0  0  0  0  0  0  0
  1  2  1  0
  2  3  1  0
  3  4  2  0
  4  5  1  0
  5  6  2  0
  6  7  1  0
  7  8  2  0
  8  9  1  0
  5 10  1  0
 10 11  1  0
 11 12  1  0
 12 13  1  0
 13 14  1  0
 13 15  1  0
 13 16  1  0
 10 17  1  6
  8  3  1  0
M  CHG  1  12   1
M  END
$$$$
