
     RDKit          3D

 17 17  0  0  0  0  0  0  0  0999 V2000
   -4.4593    6.6768    7.9994 O   0  0  0  0  0  0  0  0  0  0  0  0
   -3.1455    7.0955    8.1673 C   0  0  0  0  0  0  0  0  0  0  0  0
   -2.2715    6.2906    7.2674 C   0  0  0  0  0  0  0  0  0  0  0  0
   -1.8115    5.0311    7.6592 C   0  0  0  0  0  0  0  0  0  0  0  0
   -1.0022    4.2655    6.8482 C   0  0  0  0  0  0  0  0  0  0  0  0
   -0.6654    4.8185    5.6096 C   0  0  0  0  0  0  0  0  0  0  0  0
   -1.1184    6.0622    5.2212 C   0  0  0  0  0  0  0  0  0  0  0  0
   -1.9248    6.8100    6.0440 C   0  0  0  0  0  0  0  0  0  0  0  0
   -2.3994    8.0654    5.6864 O   0  0  0  0  0  0  0  0  0  0  0  0
   -0.4995    2.9271    7.2388 C   0  0  2  0  0  0  0  0  0  0  0  0
    0.4415    3.0088    8.4237 C   0  0  0  0  0  0  0  0  0  0  0  0
    0.9712    1.7288    8.7850 N   0  0  0  0  0  4  0  0  0  0  0  0
    1.6228    1.6683   10.0556 C   0  0  0  0  0  0  0  0  0  0  0  0
    2.7959    2.6373   10.1758 C   0  0  0  0  0  0  0  0  0  0  0  0
    0.6286    2.0891   11.1264 C   0  0  0  0  0  0  0  0  0  0  0  0
    2.0538    0.2566   10.4145 C   0  0  0  0  0  0  0  0  0  0  0  0
    0.1623    2.3159    6.1914 O   0  0  0  0  0  0  0  0  0  0  0  0
  1  2  1  0
  2  3  1  0
  3  4  2  0
  4  5  1  0
  5  6  2  0
  6  7  1  0
  7  8  2  0
  8  9  1  0
  5 10  1  0
 10 11  1  0
 11 12  1  0
 12 13  1  0
 13 14  1  0
 13 15  1  0
 13 16  1  0
 10 17  1  6
  8  3  1  0
M  CHG  1  12   1
M  END
$$$$
