
     RDKit          3D

 17 17  0  0  0  0  0  0  0  0999 V2000
   -2.9251    8.4084    7.6762 O   0  0  0  0  0  0  0  0  0  0  0  0
   -3.3848    7.1014    7.5753 C   0  0  0  0  0  0  0  0  0  0  0  0
   -2.2543    6.2321    7.1419 C   0  0  0  0  0  0  0  0  0  0  0  0
   -1.4218    5.6223    8.0833 C   0  0  0  0  0  0  0  0  0  0  0  0
   -0.3692    4.8145    7.7114 C   0  0  0  0  0  0  0  0  0  0  0  0
   -0.1789    4.6381    6.3381 C   0  0  0  0  0  0  0  0  0  0  0  0
   -0.9997    5.2398    5.4070 C   0  0  0  0  0  0  0  0  0  0  0  0
   -2.0442    6.0414    5.7979 C   0  0  0  0  0  0  0  0  0  0  0  0
   -2.8907    6.6632    4.8890 O   0  0  0  0  0  0  0  0  0  0  0  0
    0.5298    4.1559    8.6885 C   0  0  2  0  0  0  0  0  0  0  0  0
    0.4009    2.6470    8.6359 C   0  0  0  0  0  0  0  0  0  0  0  0
    1.3130    1.9934    9.5250 N   0  0  0  0  0  4  0  0  0  0  0  0
    1.2836    0.5647    9.4964 C   0  0  0  0  0  0  0  0  0  0  0  0
    2.4370   -0.0752   10.2642 C   0  0  0  0  0  0  0  0  0  0  0  0
    0.0149    0.0957   10.1909 C   0  0  0  0  0  0  0  0  0  0  0  0
    1.2133    0.0191    8.0805 C   0  0  0  0  0  0  0  0  0  0  0  0
    0.2626    4.5767    9.9769 O   0  0  0  0  0  0  0  0  0  0  0  0
  1  2  1  0
  2  3  1  0
  3  4  2  0
  4  5  1  0
  5  6  2  0
  6  7  1  0
  7  8  2  0
  8  9  1  0
  5 10  1  0
 10 11  1  0
 11 12  1  0
 12 13  1  0
 13 14  1  0
 13 15  1  0
 13 16  1  0
 10 17  1  1
  8  3  1  0
M  CHG  1  12   1
M  END
$$$$
