
     RDKit          3D

 17 17  0  0  0  0  0  0  0  0999 V2000
   -2.3666    7.6419    8.5537 O   0  0  0  0  0  0  0  0  0  0  0  0
   -3.1172    6.9392    7.6196 C   0  0  0  0  0  0  0  0  0  0  0  0
   -2.1861    6.1971    6.7229 C   0  0  0  0  0  0  0  0  0  0  0  0
   -1.7304    4.9219    7.0659 C   0  0  0  0  0  0  0  0  0  0  0  0
   -0.8690    4.2133    6.2567 C   0  0  0  0  0  0  0  0  0  0  0  0
   -0.4748    4.8408    5.0717 C   0  0  0  0  0  0  0  0  0  0  0  0
   -0.9235    6.1001    4.7317 C   0  0  0  0  0  0  0  0  0  0  0  0
   -1.7823    6.7903    5.5517 C   0  0  0  0  0  0  0  0  0  0  0  0
   -2.2544    8.0594    5.2419 O   0  0  0  0  0  0  0  0  0  0  0  0
   -0.3695    2.8598    6.5961 C   0  0  2  0  0  0  0  0  0  0  0  0
    0.4663    2.8746    7.8600 C   0  0  0  0  0  0  0  0  0  0  0  0
    0.9763    1.5777    8.1882 N   0  0  0  0  0  4  0  0  0  0  0  0
    1.5811    1.4622    9.4781 C   0  0  0  0  0  0  0  0  0  0  0  0
    2.3563    0.1607    9.6635 C   0  0  0  0  0  0  0  0  0  0  0  0
    2.6036    2.5771    9.6313 C   0  0  0  0  0  0  0  0  0  0  0  0
    0.5784    1.6547   10.6029 C   0  0  0  0  0  0  0  0  0  0  0  0
    0.3924    2.3357    5.5697 O   0  0  0  0  0  0  0  0  0  0  0  0
  1  2  1  0
  2  3  1  0
  3  4  2  0
  4  5  1  0
  5  6  2  0
  6  7  1  0
  7  8  2  0
  8  9  1  0
  5 10  1  0
 10 11  1  0
 11 12  1  0
 12 13  1  0
 13 14  1  0
 13 15  1  0
 13 16  1  0
 10 17  1  6
  8  3  1  0
M  CHG  1  12   1
M  END
$$$$
