
     RDKit          3D

 17 17  0  0  0  0  0  0  0  0999 V2000
   -2.7393    7.0808    9.0238 O   0  0  0  0  0  0  0  0  0  0  0  0
   -3.3294    6.8265    7.7921 C   0  0  0  0  0  0  0  0  0  0  0  0
   -2.3355    6.1349    6.9229 C   0  0  0  0  0  0  0  0  0  0  0  0
   -1.8232    4.8853    7.2798 C   0  0  0  0  0  0  0  0  0  0  0  0
   -0.9032    4.2234    6.4960 C   0  0  0  0  0  0  0  0  0  0  0  0
   -0.5092    4.8714    5.3221 C   0  0  0  0  0  0  0  0  0  0  0  0
   -1.0137    6.1055    4.9683 C   0  0  0  0  0  0  0  0  0  0  0  0
   -1.9305    6.7492    5.7630 C   0  0  0  0  0  0  0  0  0  0  0  0
   -2.4597    7.9918    5.4387 O   0  0  0  0  0  0  0  0  0  0  0  0
   -0.3429    2.8979    6.8507 C   0  0  2  0  0  0  0  0  0  0  0  0
    0.5410    2.9767    8.0790 C   0  0  0  0  0  0  0  0  0  0  0  0
    1.0891    1.7031    8.4354 N   0  0  0  0  0  4  0  0  0  0  0  0
    1.7051    1.6364    9.7234 C   0  0  0  0  0  0  0  0  0  0  0  0
    2.6483    2.8042    9.9993 C   0  0  0  0  0  0  0  0  0  0  0  0
    0.6172    1.7256   10.7820 C   0  0  0  0  0  0  0  0  0  0  0  0
    2.4096    0.3109    9.9562 C   0  0  0  0  0  0  0  0  0  0  0  0
    0.3959    2.3719    5.8087 O   0  0  0  0  0  0  0  0  0  0  0  0
  1  2  1  0
  2  3  1  0
  3  4  2  0
  4  5  1  0
  5  6  2  0
  6  7  1  0
  7  8  2  0
  8  9  1  0
  5 10  1  0
 10 11  1  0
 11 12  1  0
 12 13  1  0
 13 14  1  0
 13 15  1  0
 13 16  1  0
 10 17  1  6
  8  3  1  0
M  CHG  1  12   1
M  END
$$$$
