
     RDKit          3D

 17 17  0  0  0  0  0  0  0  0999 V2000
   -2.5230    7.7098    8.9797 O   0  0  0  0  0  0  0  0  0  0  0  0
   -3.2697    7.0701    7.9984 C   0  0  0  0  0  0  0  0  0  0  0  0
   -2.3384    6.3354    7.0960 C   0  0  0  0  0  0  0  0  0  0  0  0
   -1.8773    5.0603    7.4320 C   0  0  0  0  0  0  0  0  0  0  0  0
   -1.0156    4.3583    6.6174 C   0  0  0  0  0  0  0  0  0  0  0  0
   -0.6267    4.9925    5.4342 C   0  0  0  0  0  0  0  0  0  0  0  0
   -1.0807    6.2518    5.1010 C   0  0  0  0  0  0  0  0  0  0  0  0
   -1.9398    6.9353    5.9264 C   0  0  0  0  0  0  0  0  0  0  0  0
   -2.4171    8.2040    5.6235 O   0  0  0  0  0  0  0  0  0  0  0  0
   -0.5104    3.0051    6.9494 C   0  0  2  0  0  0  0  0  0  0  0  0
    0.3450    3.0206    8.2001 C   0  0  0  0  0  0  0  0  0  0  0  0
    0.8819    1.7291    8.5061 N   0  0  0  0  0  4  0  0  0  0  0  0
    1.5122    1.6111    9.7834 C   0  0  0  0  0  0  0  0  0  0  0  0
    2.5322    2.7137   10.0540 C   0  0  0  0  0  0  0  0  0  0  0  0
    0.4486    1.7595   10.8600 C   0  0  0  0  0  0  0  0  0  0  0  0
    2.1340    0.2412    9.9936 C   0  0  0  0  0  0  0  0  0  0  0  0
    0.2354    2.4809    5.9114 O   0  0  0  0  0  0  0  0  0  0  0  0
  1  2  1  0
  2  3  1  0
  3  4  2  0
  4  5  1  0
  5  6  2  0
  6  7  1  0
  7  8  2  0
  8  9  1  0
  5 10  1  0
 10 11  1  0
 11 12  1  0
 12 13  1  0
 13 14  1  0
 13 15  1  0
 13 16  1  0
 10 17  1  6
  8  3  1  0
M  CHG  1  12   1
M  END
$$$$
