
     RDKit          3D

 17 17  0  0  0  0  0  0  0  0999 V2000
   -2.8362    6.6513    9.2508 O   0  0  0  0  0  0  0  0  0  0  0  0
   -3.1888    6.9506    7.9409 C   0  0  0  0  0  0  0  0  0  0  0  0
   -2.2633    6.2282    7.0228 C   0  0  0  0  0  0  0  0  0  0  0  0
   -1.7738    4.9625    7.3542 C   0  0  0  0  0  0  0  0  0  0  0  0
   -0.9166    4.2720    6.5251 C   0  0  0  0  0  0  0  0  0  0  0  0
   -0.5623    4.9080    5.3321 C   0  0  0  0  0  0  0  0  0  0  0  0
   -1.0443    6.1580    5.0034 C   0  0  0  0  0  0  0  0  0  0  0  0
   -1.8983    6.8301    5.8432 C   0  0  0  0  0  0  0  0  0  0  0  0
   -2.4033    8.0892    5.5453 O   0  0  0  0  0  0  0  0  0  0  0  0
   -0.3817    2.9289    6.8519 C   0  0  2  0  0  0  0  0  0  0  0  0
    0.4678    2.9572    8.1063 C   0  0  0  0  0  0  0  0  0  0  0  0
    0.9982    1.6677    8.4314 N   0  0  0  0  0  4  0  0  0  0  0  0
    1.6351    1.5675    9.7069 C   0  0  0  0  0  0  0  0  0  0  0  0
    2.4422    0.2832    9.8760 C   0  0  0  0  0  0  0  0  0  0  0  0
    2.6369    2.7043    9.8348 C   0  0  0  0  0  0  0  0  0  0  0  0
    0.6550    1.7405   10.8545 C   0  0  0  0  0  0  0  0  0  0  0  0
    0.3802    2.4278    5.8143 O   0  0  0  0  0  0  0  0  0  0  0  0
  1  2  1  0
  2  3  1  0
  3  4  2  0
  4  5  1  0
  5  6  2  0
  6  7  1  0
  7  8  2  0
  8  9  1  0
  5 10  1  0
 10 11  1  0
 11 12  1  0
 12 13  1  0
 13 14  1  0
 13 15  1  0
 13 16  1  0
 10 17  1  6
  8  3  1  0
M  CHG  1  12   1
M  END
$$$$
