
     RDKit          3D

 17 17  0  0  0  0  0  0  0  0999 V2000
   -1.7290    6.6171    3.0894 O   0  0  0  0  0  0  0  0  0  0  0  0
   -0.7111    6.8050    4.0158 C   0  0  0  0  0  0  0  0  0  0  0  0
   -1.0938    6.1262    5.2864 C   0  0  0  0  0  0  0  0  0  0  0  0
   -0.6503    4.8312    5.5650 C   0  0  0  0  0  0  0  0  0  0  0  0
   -0.9889    4.1794    6.7309 C   0  0  0  0  0  0  0  0  0  0  0  0
   -1.8022    4.8854    7.6216 C   0  0  0  0  0  0  0  0  0  0  0  0
   -2.2415    6.1640    7.3480 C   0  0  0  0  0  0  0  0  0  0  0  0
   -1.8926    6.7971    6.1801 C   0  0  0  0  0  0  0  0  0  0  0  0
   -2.3161    8.0833    5.8712 O   0  0  0  0  0  0  0  0  0  0  0  0
   -0.5332    2.8060    7.0516 C   0  0  2  0  0  0  0  0  0  0  0  0
    0.5636    2.8123    8.0971 C   0  0  0  0  0  0  0  0  0  0  0  0
    0.8408    1.5010    8.6003 N   0  0  0  0  0  4  0  0  0  0  0  0
    1.7647    1.4418    9.6892 C   0  0  0  0  0  0  0  0  0  0  0  0
    3.1421    1.9983    9.3391 C   0  0  0  0  0  0  0  0  0  0  0  0
    1.2389    2.3193   10.8143 C   0  0  0  0  0  0  0  0  0  0  0  0
    1.8825    0.0425   10.2683 C   0  0  0  0  0  0  0  0  0  0  0  0
   -0.0647    2.1584    5.9248 O   0  0  0  0  0  0  0  0  0  0  0  0
  1  2  1  0
  2  3  1  0
  3  4  2  0
  4  5  1  0
  5  6  2  0
  6  7  1  0
  7  8  2  0
  8  9  1  0
  5 10  1  0
 10 11  1  0
 11 12  1  0
 12 13  1  0
 13 14  1  0
 13 15  1  0
 13 16  1  0
 10 17  1  6
  8  3  1  0
M  CHG  1  12   1
M  END
$$$$
