
     RDKit          3D

 17 17  0  0  0  0  0  0  0  0999 V2000
   -4.4266    6.6694    7.8123 O   0  0  0  0  0  0  0  0  0  0  0  0
   -3.0958    7.0439    7.9482 C   0  0  0  0  0  0  0  0  0  0  0  0
   -2.2734    6.2223    7.0154 C   0  0  0  0  0  0  0  0  0  0  0  0
   -1.8157    4.9577    7.3930 C   0  0  0  0  0  0  0  0  0  0  0  0
   -1.0534    4.1768    6.5517 C   0  0  0  0  0  0  0  0  0  0  0  0
   -0.7618    4.7197    5.2973 C   0  0  0  0  0  0  0  0  0  0  0  0
   -1.2125    5.9685    4.9228 C   0  0  0  0  0  0  0  0  0  0  0  0
   -1.9717    6.7316    5.7759 C   0  0  0  0  0  0  0  0  0  0  0  0
   -2.4425    7.9926    5.4330 O   0  0  0  0  0  0  0  0  0  0  0  0
   -0.5542    2.8325    6.9266 C   0  0  2  0  0  0  0  0  0  0  0  0
    0.5276    2.9145    7.9844 C   0  0  0  0  0  0  0  0  0  0  0  0
    1.0200    1.6231    8.3579 N   0  0  0  0  0  4  0  0  0  0  0  0
    1.7883    1.5817    9.5624 C   0  0  0  0  0  0  0  0  0  0  0  0
    0.9706    1.9121   10.8080 C   0  0  0  0  0  0  0  0  0  0  0  0
    2.2909    0.1607    9.7636 C   0  0  0  0  0  0  0  0  0  0  0  0
    3.0267    2.4580    9.4852 C   0  0  0  0  0  0  0  0  0  0  0  0
   -0.0484    2.1627    5.8294 O   0  0  0  0  0  0  0  0  0  0  0  0
  1  2  1  0
  2  3  1  0
  3  4  2  0
  4  5  1  0
  5  6  2  0
  6  7  1  0
  7  8  2  0
  8  9  1  0
  5 10  1  0
 10 11  1  0
 11 12  1  0
 12 13  1  0
 13 14  1  0
 13 15  1  0
 13 16  1  0
 10 17  1  6
  8  3  1  0
M  CHG  1  12   1
M  END
$$$$
