
     RDKit          3D

 17 17  0  0  0  0  0  0  0  0999 V2000
   -2.3195    6.9367    3.5985 O   0  0  0  0  0  0  0  0  0  0  0  0
   -1.2578    6.9532    4.4942 C   0  0  0  0  0  0  0  0  0  0  0  0
   -1.6284    6.1373    5.6853 C   0  0  0  0  0  0  0  0  0  0  0  0
   -1.0758    4.8694    5.8812 C   0  0  0  0  0  0  0  0  0  0  0  0
   -1.4005    4.0931    6.9725 C   0  0  0  0  0  0  0  0  0  0  0  0
   -2.3149    4.6439    7.8746 C   0  0  0  0  0  0  0  0  0  0  0  0
   -2.8618    5.8956    7.6825 C   0  0  0  0  0  0  0  0  0  0  0  0
   -2.5251    6.6543    6.5882 C   0  0  0  0  0  0  0  0  0  0  0  0
   -3.0555    7.9180    6.3624 O   0  0  0  0  0  0  0  0  0  0  0  0
   -0.8302    2.7449    7.2047 C   0  0  2  0  0  0  0  0  0  0  0  0
    0.2866    2.7807    8.2282 C   0  0  0  0  0  0  0  0  0  0  0  0
    0.8447    1.4842    8.4677 N   0  0  0  0  0  4  0  0  0  0  0  0
    1.6344    1.3629    9.6528 C   0  0  0  0  0  0  0  0  0  0  0  0
    2.2972   -0.0044    9.7955 C   0  0  0  0  0  0  0  0  0  0  0  0
    2.7732    2.3677    9.5767 C   0  0  0  0  0  0  0  0  0  0  0  0
    0.8493    1.7123   10.9054 C   0  0  0  0  0  0  0  0  0  0  0  0
   -0.3382    2.2013    6.0339 O   0  0  0  0  0  0  0  0  0  0  0  0
  1  2  1  0
  2  3  1  0
  3  4  2  0
  4  5  1  0
  5  6  2  0
  6  7  1  0
  7  8  2  0
  8  9  1  0
  5 10  1  0
 10 11  1  0
 11 12  1  0
 12 13  1  0
 13 14  1  0
 13 15  1  0
 13 16  1  0
 10 17  1  6
  8  3  1  0
M  CHG  1  12   1
M  END
$$$$
