
     RDKit          3D

 17 17  0  0  0  0  0  0  0  0999 V2000
   -2.5499    7.5493    8.8573 O   0  0  0  0  0  0  0  0  0  0  0  0
   -3.2508    6.8558    7.8787 C   0  0  0  0  0  0  0  0  0  0  0  0
   -2.2725    6.1453    7.0071 C   0  0  0  0  0  0  0  0  0  0  0  0
   -1.7873    4.8838    7.3603 C   0  0  0  0  0  0  0  0  0  0  0  0
   -0.8821    4.2043    6.5743 C   0  0  0  0  0  0  0  0  0  0  0  0
   -0.4746    4.8469    5.4020 C   0  0  0  0  0  0  0  0  0  0  0  0
   -0.9523    6.0927    5.0518 C   0  0  0  0  0  0  0  0  0  0  0  0
   -1.8547    6.7539    5.8488 C   0  0  0  0  0  0  0  0  0  0  0  0
   -2.3569    8.0086    5.5282 O   0  0  0  0  0  0  0  0  0  0  0  0
   -0.3506    2.8659    6.9250 C   0  0  2  0  0  0  0  0  0  0  0  0
    0.5651    2.9281    8.1307 C   0  0  0  0  0  0  0  0  0  0  0  0
    1.0490    1.6356    8.5115 N   0  0  0  0  0  4  0  0  0  0  0  0
    1.7117    1.5742    9.7764 C   0  0  0  0  0  0  0  0  0  0  0  0
    2.6915    0.4091    9.8851 C   0  0  0  0  0  0  0  0  0  0  0  0
    2.5477    2.8334    9.9429 C   0  0  0  0  0  0  0  0  0  0  0  0
    0.7334    1.5631   10.9384 C   0  0  0  0  0  0  0  0  0  0  0  0
    0.3473    2.3124    5.8692 O   0  0  0  0  0  0  0  0  0  0  0  0
  1  2  1  0
  2  3  1  0
  3  4  2  0
  4  5  1  0
  5  6  2  0
  6  7  1  0
  7  8  2  0
  8  9  1  0
  5 10  1  0
 10 11  1  0
 11 12  1  0
 12 13  1  0
 13 14  1  0
 13 15  1  0
 13 16  1  0
 10 17  1  6
  8  3  1  0
M  CHG  1  12   1
M  END
$$$$
