
     RDKit          3D

 17 17  0  0  0  0  0  0  0  0999 V2000
   -3.8458    7.2839    8.2490 O   0  0  0  0  0  0  0  0  0  0  0  0
   -2.4600    7.1885    8.2385 C   0  0  0  0  0  0  0  0  0  0  0  0
   -2.0535    6.2970    7.1153 C   0  0  0  0  0  0  0  0  0  0  0  0
   -1.3971    5.0895    7.3648 C   0  0  0  0  0  0  0  0  0  0  0  0
   -1.0093    4.2462    6.3463 C   0  0  0  0  0  0  0  0  0  0  0  0
   -1.3086    4.6654    5.0471 C   0  0  0  0  0  0  0  0  0  0  0  0
   -1.9563    5.8577    4.7988 C   0  0  0  0  0  0  0  0  0  0  0  0
   -2.3352    6.6846    5.8280 C   0  0  0  0  0  0  0  0  0  0  0  0
   -2.9887    7.8917    5.6158 O   0  0  0  0  0  0  0  0  0  0  0  0
   -0.3112    2.9602    6.5822 C   0  0  2  0  0  0  0  0  0  0  0  0
    0.0123    2.7623    8.0493 C   0  0  0  0  0  0  0  0  0  0  0  0
    0.7040    1.5324    8.2911 N   0  0  0  0  0  4  0  0  0  0  0  0
    1.0234    1.2640    9.6581 C   0  0  0  0  0  0  0  0  0  0  0  0
    1.6714   -0.1021    9.8664 C   0  0  0  0  0  0  0  0  0  0  0  0
    2.0523    2.2836   10.1207 C   0  0  0  0  0  0  0  0  0  0  0  0
   -0.1769    1.4339   10.5734 C   0  0  0  0  0  0  0  0  0  0  0  0
    0.8630    2.8881    5.8580 O   0  0  0  0  0  0  0  0  0  0  0  0
  1  2  1  0
  2  3  1  0
  3  4  2  0
  4  5  1  0
  5  6  2  0
  6  7  1  0
  7  8  2  0
  8  9  1  0
  5 10  1  0
 10 11  1  0
 11 12  1  0
 12 13  1  0
 13 14  1  0
 13 15  1  0
 13 16  1  0
 10 17  1  6
  8  3  1  0
M  CHG  1  12   1
M  END
$$$$
