
     RDKit          3D

 17 17  0  0  0  0  0  0  0  0999 V2000
   -2.5228    7.5504    8.9602 O   0  0  0  0  0  0  0  0  0  0  0  0
   -3.2817    6.9931    7.9389 C   0  0  0  0  0  0  0  0  0  0  0  0
   -2.3676    6.2783    7.0034 C   0  0  0  0  0  0  0  0  0  0  0  0
   -1.8868    5.0033    7.3110 C   0  0  0  0  0  0  0  0  0  0  0  0
   -1.0402    4.3196    6.4655 C   0  0  0  0  0  0  0  0  0  0  0  0
   -0.6876    4.9723    5.2810 C   0  0  0  0  0  0  0  0  0  0  0  0
   -1.1611    6.2314    4.9759 C   0  0  0  0  0  0  0  0  0  0  0  0
   -2.0045    6.8966    5.8318 C   0  0  0  0  0  0  0  0  0  0  0  0
   -2.5007    8.1647    5.5577 O   0  0  0  0  0  0  0  0  0  0  0  0
   -0.5148    2.9669    6.7669 C   0  0  2  0  0  0  0  0  0  0  0  0
    0.2725    2.9503    8.0616 C   0  0  0  0  0  0  0  0  0  0  0  0
    0.8205    1.6587    8.3466 N   0  0  0  0  0  4  0  0  0  0  0  0
    1.3758    1.5002    9.6540 C   0  0  0  0  0  0  0  0  0  0  0  0
    1.9067    0.0932    9.9145 C   0  0  0  0  0  0  0  0  0  0  0  0
    2.5763    2.4246    9.7820 C   0  0  0  0  0  0  0  0  0  0  0  0
    0.4056    1.9185   10.7455 C   0  0  0  0  0  0  0  0  0  0  0  0
    0.2995    2.5083    5.7496 O   0  0  0  0  0  0  0  0  0  0  0  0
  1  2  1  0
  2  3  1  0
  3  4  2  0
  4  5  1  0
  5  6  2  0
  6  7  1  0
  7  8  2  0
  8  9  1  0
  5 10  1  0
 10 11  1  0
 11 12  1  0
 12 13  1  0
 13 14  1  0
 13 15  1  0
 13 16  1  0
 10 17  1  6
  8  3  1  0
M  CHG  1  12   1
M  END
$$$$
