
     RDKit          3D

 17 17  0  0  0  0  0  0  0  0999 V2000
   -4.4431    6.6986    7.8847 O   0  0  0  0  0  0  0  0  0  0  0  0
   -3.1188    7.1043    7.9911 C   0  0  0  0  0  0  0  0  0  0  0  0
   -2.2909    6.2688    7.0756 C   0  0  0  0  0  0  0  0  0  0  0  0
   -1.8285    5.0136    7.4779 C   0  0  0  0  0  0  0  0  0  0  0  0
   -1.0611    4.2203    6.6529 C   0  0  0  0  0  0  0  0  0  0  0  0
   -0.7694    4.7407    5.3891 C   0  0  0  0  0  0  0  0  0  0  0  0
   -1.2247    5.9802    4.9902 C   0  0  0  0  0  0  0  0  0  0  0  0
   -1.9890    6.7559    5.8273 C   0  0  0  0  0  0  0  0  0  0  0  0
   -2.4646    8.0081    5.4598 O   0  0  0  0  0  0  0  0  0  0  0  0
   -0.5569    2.8855    7.0541 C   0  0  2  0  0  0  0  0  0  0  0  0
    0.4038    2.9803    8.2221 C   0  0  0  0  0  0  0  0  0  0  0  0
    0.9532    1.7069    8.5773 N   0  0  0  0  0  4  0  0  0  0  0  0
    1.6784    1.6708    9.8083 C   0  0  0  0  0  0  0  0  0  0  0  0
    2.6935    2.8028    9.9409 C   0  0  0  0  0  0  0  0  0  0  0  0
    0.6947    1.8626   10.9518 C   0  0  0  0  0  0  0  0  0  0  0  0
    2.3413    0.3248   10.0462 C   0  0  0  0  0  0  0  0  0  0  0  0
    0.0853    2.2571    6.0048 O   0  0  0  0  0  0  0  0  0  0  0  0
  1  2  1  0
  2  3  1  0
  3  4  2  0
  4  5  1  0
  5  6  2  0
  6  7  1  0
  7  8  2  0
  8  9  1  0
  5 10  1  0
 10 11  1  0
 11 12  1  0
 12 13  1  0
 13 14  1  0
 13 15  1  0
 13 16  1  0
 10 17  1  6
  8  3  1  0
M  CHG  1  12   1
M  END
$$$$
