
     RDKit          3D

 17 17  0  0  0  0  0  0  0  0999 V2000
   -1.5626    7.8868    8.1906 O   0  0  0  0  0  0  0  0  0  0  0  0
   -2.5364    7.0427    7.6722 C   0  0  0  0  0  0  0  0  0  0  0  0
   -1.8975    6.1338    6.6786 C   0  0  0  0  0  0  0  0  0  0  0  0
   -1.3861    4.8945    7.0711 C   0  0  0  0  0  0  0  0  0  0  0  0
   -0.7899    4.0346    6.1745 C   0  0  0  0  0  0  0  0  0  0  0  0
   -0.7239    4.4703    4.8482 C   0  0  0  0  0  0  0  0  0  0  0  0
   -1.2280    5.6939    4.4589 C   0  0  0  0  0  0  0  0  0  0  0  0
   -1.8191    6.5370    5.3679 C   0  0  0  0  0  0  0  0  0  0  0  0
   -2.3373    7.7756    5.0122 O   0  0  0  0  0  0  0  0  0  0  0  0
   -0.2386    2.7149    6.5635 C   0  0  2  0  0  0  0  0  0  0  0  0
    0.4638    2.7774    7.9047 C   0  0  0  0  0  0  0  0  0  0  0  0
    0.9958    1.5078    8.2981 N   0  0  0  0  0  4  0  0  0  0  0  0
    1.5662    1.4582    9.6076 C   0  0  0  0  0  0  0  0  0  0  0  0
    2.4531    2.6598    9.9224 C   0  0  0  0  0  0  0  0  0  0  0  0
    0.4376    1.5002   10.6258 C   0  0  0  0  0  0  0  0  0  0  0  0
    2.3122    0.1595    9.8612 C   0  0  0  0  0  0  0  0  0  0  0  0
    0.6550    2.2479    5.6191 O   0  0  0  0  0  0  0  0  0  0  0  0
  1  2  1  0
  2  3  1  0
  3  4  2  0
  4  5  1  0
  5  6  2  0
  6  7  1  0
  7  8  2  0
  8  9  1  0
  5 10  1  0
 10 11  1  0
 11 12  1  0
 12 13  1  0
 13 14  1  0
 13 15  1  0
 13 16  1  0
 10 17  1  6
  8  3  1  0
M  CHG  1  12   1
M  END
$$$$
