
     RDKit          3D

 17 17  0  0  0  0  0  0  0  0999 V2000
    0.1199    6.7698    3.9673 O   0  0  0  0  0  0  0  0  0  0  0  0
   -1.1653    6.2431    3.9455 C   0  0  0  0  0  0  0  0  0  0  0  0
   -1.5818    5.9479    5.3458 C   0  0  0  0  0  0  0  0  0  0  0  0
   -1.2480    4.7325    5.9481 C   0  0  0  0  0  0  0  0  0  0  0  0
   -1.6201    4.4325    7.2405 C   0  0  0  0  0  0  0  0  0  0  0  0
   -2.3515    5.4122    7.9178 C   0  0  0  0  0  0  0  0  0  0  0  0
   -2.6824    6.6127    7.3246 C   0  0  0  0  0  0  0  0  0  0  0  0
   -2.3017    6.8931    6.0350 C   0  0  0  0  0  0  0  0  0  0  0  0
   -2.6169    8.0906    5.4057 O   0  0  0  0  0  0  0  0  0  0  0  0
   -1.2802    3.1513    7.9036 C   0  0  2  0  0  0  0  0  0  0  0  0
    0.2131    3.0157    8.1225 C   0  0  0  0  0  0  0  0  0  0  0  0
    0.5467    1.8448    8.8757 N   0  0  0  0  0  4  0  0  0  0  0  0
    1.9330    1.6857    9.1849 C   0  0  0  0  0  0  0  0  0  0  0  0
    2.7036    0.9205    8.1125 C   0  0  0  0  0  0  0  0  0  0  0  0
    2.5727    3.0638    9.2485 C   0  0  0  0  0  0  0  0  0  0  0  0
    2.1494    1.0589   10.5515 C   0  0  0  0  0  0  0  0  0  0  0  0
   -1.7168    2.0719    7.1602 O   0  0  0  0  0  0  0  0  0  0  0  0
  1  2  1  0
  2  3  1  0
  3  4  2  0
  4  5  1  0
  5  6  2  0
  6  7  1  0
  7  8  2  0
  8  9  1  0
  5 10  1  0
 10 11  1  0
 11 12  1  0
 12 13  1  0
 13 14  1  0
 13 15  1  0
 13 16  1  0
 10 17  1  6
  8  3  1  0
M  CHG  1  12   1
M  END
$$$$
