
     RDKit          3D

 17 17  0  0  0  0  0  0  0  0999 V2000
   -3.1262    7.3608    8.9303 O   0  0  0  0  0  0  0  0  0  0  0  0
   -3.8094    6.7771    7.8710 C   0  0  0  0  0  0  0  0  0  0  0  0
   -2.8269    6.0612    7.0086 C   0  0  0  0  0  0  0  0  0  0  0  0
   -2.3260    4.8122    7.3833 C   0  0  0  0  0  0  0  0  0  0  0  0
   -1.4166    4.1282    6.6061 C   0  0  0  0  0  0  0  0  0  0  0  0
   -1.0213    4.7530    5.4202 C   0  0  0  0  0  0  0  0  0  0  0  0
   -1.5146    5.9865    5.0488 C   0  0  0  0  0  0  0  0  0  0  0  0
   -2.4209    6.6525    5.8371 C   0  0  0  0  0  0  0  0  0  0  0  0
   -2.9387    7.8952    5.4952 O   0  0  0  0  0  0  0  0  0  0  0  0
   -0.8685    2.8027    6.9797 C   0  0  2  0  0  0  0  0  0  0  0  0
    0.0853    2.9042    8.1527 C   0  0  0  0  0  0  0  0  0  0  0  0
    0.5920    1.6261    8.5519 N   0  0  0  0  0  4  0  0  0  0  0  0
    1.2759    1.5993    9.8067 C   0  0  0  0  0  0  0  0  0  0  0  0
    2.2885    2.7305    9.9631 C   0  0  0  0  0  0  0  0  0  0  0  0
    0.2550    1.8030   10.9151 C   0  0  0  0  0  0  0  0  0  0  0  0
    1.9275    0.2543   10.0781 C   0  0  0  0  0  0  0  0  0  0  0  0
   -0.2027    2.2196    5.9190 O   0  0  0  0  0  0  0  0  0  0  0  0
  1  2  1  0
  2  3  1  0
  3  4  2  0
  4  5  1  0
  5  6  2  0
  6  7  1  0
  7  8  2  0
  8  9  1  0
  5 10  1  0
 10 11  1  0
 11 12  1  0
 12 13  1  0
 13 14  1  0
 13 15  1  0
 13 16  1  0
 10 17  1  6
  8  3  1  0
M  CHG  1  12   1
M  END
$$$$
