
     RDKit          3D

 39 43  0  0  0  0  0  0  0  0999 V2000
   -0.9099    6.2771   19.2574 C   0  0  0  0  0  0  0  0  0  0  0  0
   -2.2935    6.3762   19.7144 N   0  0  0  0  0  0  0  0  0  0  0  0
   -3.3628    6.4154   18.8779 C   0  0  0  0  0  0  0  0  0  0  0  0
   -4.5012    6.5078   19.6190 C   0  0  0  0  0  0  0  0  0  0  0  0
   -4.0922    6.5250   20.9537 C   0  0  0  0  0  0  0  0  0  0  0  0
   -2.7541    6.4425   20.9293 N   0  0  0  0  0  0  0  0  0  0  0  0
   -3.2472    6.3771   17.4375 C   0  0  0  0  0  0  0  0  0  0  0  0
   -2.4372    7.2882   16.8722 N   0  0  0  0  0  0  0  0  0  0  0  0
   -2.2684    7.3357   15.5740 N   0  0  0  0  0  0  0  0  0  0  0  0
   -2.9278    6.4445   14.7960 C   0  0  0  0  0  0  0  0  0  0  0  0
   -3.7673    5.4941   15.3086 C   0  0  0  0  0  0  0  0  0  0  0  0
   -4.4444    4.6077   14.5071 C   0  0  0  0  0  0  0  0  0  0  0  0
   -5.2811    3.6932   15.0710 C   0  0  0  0  0  0  0  0  0  0  0  0
   -5.4614    3.6413   16.4311 C   0  0  0  0  0  0  0  0  0  0  0  0
   -4.7899    4.5246   17.2575 C   0  0  0  0  0  0  0  0  0  0  0  0
   -3.9377    5.4561   16.6989 C   0  0  0  0  0  0  0  0  0  0  0  0
   -2.6731    6.5381   13.3844 N   0  0  0  0  0  0  0  0  0  0  0  0
   -3.6787    6.2495   12.4183 C   0  0  0  0  0  0  0  0  0  0  0  0
   -3.6769    7.1863   11.2646 C   0  0  0  0  0  0  0  0  0  0  0  0
   -2.3255    7.7157   10.8646 C   0  0  0  0  0  0  0  0  0  0  0  0
   -1.5027    8.1434   12.0571 C   0  0  0  0  0  0  0  0  0  0  0  0
   -1.3516    6.9252   12.9387 C   0  0  0  0  0  0  0  0  0  0  0  0
   -2.5191    8.7881    9.9213 N   0  0  0  0  0  0  0  0  0  0  0  0
   -3.8046    9.4519    9.8004 C   0  0  0  0  0  0  0  0  0  0  0  0
   -1.4357    9.2117    9.1191 C   0  0  0  0  0  0  0  0  0  0  0  0
   -1.5490   10.2946    8.4873 O   0  0  0  0  0  0  0  0  0  0  0  0
   -0.2450    8.3852    9.0569 C   0  0  0  0  0  0  0  0  0  0  0  0
    0.7855    8.5695    9.9536 C   0  0  0  0  0  0  0  0  0  0  0  0
    1.9271    7.7577    9.8931 C   0  0  0  0  0  0  0  0  0  0  0  0
    2.0615    6.7622    8.9517 C   0  0  0  0  0  0  0  0  0  0  0  0
    1.0234    6.5901    8.0617 C   0  0  0  0  0  0  0  0  0  0  0  0
   -0.1159    7.3817    8.1031 C   0  0  0  0  0  0  0  0  0  0  0  0
    3.2273    5.9438    8.9009 N   0  0  0  0  0  4  0  0  0  0  0  0
    3.2575    4.9985    8.0925 O   0  0  0  0  0  0  0  0  0  0  0  0
    4.3056    6.1496    9.6947 O   0  0  0  0  0  1  0  0  0  0  0  0
    0.6767    9.6364   10.9661 C   0  0  0  0  0  0  0  0  0  0  0  0
    1.8498   10.0794   11.4816 F   0  0  0  0  0  0  0  0  0  0  0  0
   -0.1326    9.2565   12.0295 F   0  0  0  0  0  0  0  0  0  0  0  0
    0.0361   10.7462   10.3984 F   0  0  0  0  0  0  0  0  0  0  0  0
  1  2  1  0
  2  3  1  0
  3  4  2  0
  4  5  1  0
  5  6  2  0
  3  7  1  0
  7  8  2  0
  8  9  1  0
  9 10  2  0
 10 11  1  0
 11 12  2  0
 12 13  1  0
 13 14  2  0
 14 15  1  0
 15 16  2  0
 10 17  1  0
 17 18  1  0
 18 19  1  0
 19 20  1  0
 20 21  1  0
 21 22  1  0
 20 23  1  0
 23 24  1  0
 23 25  1  0
 25 26  2  0
 25 27  1  0
 27 28  2  0
 28 29  1  0
 29 30  2  0
 30 31  1  0
 31 32  2  0
 30 33  1  0
 33 34  2  0
 33 35  1  0
 28 36  1  0
 36 37  1  0
 36 38  1  0
 36 39  1  0
  6  2  1  0
 16  7  1  0
 16 11  1  0
 22 17  1  0
 32 27  1  0
M  CHG  2  33   1  35  -1
M  END
$$$$
