
     RDKit          3D

 39 43  0  0  0  0  0  0  0  0999 V2000
    0.6749    7.3267   20.6395 C   0  0  0  0  0  0  0  0  0  0  0  0
   -0.5276    6.7506   21.2355 N   0  0  0  0  0  0  0  0  0  0  0  0
   -1.5779    6.2833   20.5122 C   0  0  0  0  0  0  0  0  0  0  0  0
   -2.5298    5.8156   21.3658 C   0  0  0  0  0  0  0  0  0  0  0  0
   -2.0252    6.0136   22.6523 C   0  0  0  0  0  0  0  0  0  0  0  0
   -0.8199    6.5786   22.4915 N   0  0  0  0  0  0  0  0  0  0  0  0
   -1.6265    6.3177   19.0679 C   0  0  0  0  0  0  0  0  0  0  0  0
   -1.3976    7.5061   18.4840 N   0  0  0  0  0  0  0  0  0  0  0  0
   -1.4222    7.6396   17.1810 N   0  0  0  0  0  0  0  0  0  0  0  0
   -1.6845    6.5523   16.4172 C   0  0  0  0  0  0  0  0  0  0  0  0
   -1.9275    5.3159   16.9493 C   0  0  0  0  0  0  0  0  0  0  0  0
   -2.2102    4.2248   16.1642 C   0  0  0  0  0  0  0  0  0  0  0  0
   -2.4612    3.0210   16.7492 C   0  0  0  0  0  0  0  0  0  0  0  0
   -2.4374    2.8776   18.1144 C   0  0  0  0  0  0  0  0  0  0  0  0
   -2.1554    3.9630   18.9245 C   0  0  0  0  0  0  0  0  0  0  0  0
   -1.8979    5.1891   18.3444 C   0  0  0  0  0  0  0  0  0  0  0  0
   -1.6679    6.7676   14.9962 N   0  0  0  0  0  0  0  0  0  0  0  0
   -1.3194    5.7321   14.0829 C   0  0  0  0  0  0  0  0  0  0  0  0
   -2.1662    5.7105   12.8618 C   0  0  0  0  0  0  0  0  0  0  0  0
   -2.6472    7.0552   12.3856 C   0  0  0  0  0  0  0  0  0  0  0  0
   -3.1537    7.9160   13.5189 C   0  0  0  0  0  0  0  0  0  0  0  0
   -2.0039    8.0798   14.4859 C   0  0  0  0  0  0  0  0  0  0  0  0
   -3.6475    6.8456   11.3692 N   0  0  0  0  0  0  0  0  0  0  0  0
   -4.8697    6.1197   11.6642 C   0  0  0  0  0  0  0  0  0  0  0  0
   -3.4432    7.3730   10.0743 C   0  0  0  0  0  0  0  0  0  0  0  0
   -4.4498    7.5669    9.3437 O   0  0  0  0  0  0  0  0  0  0  0  0
   -2.0896    7.6667    9.6430 C   0  0  0  0  0  0  0  0  0  0  0  0
   -1.6464    8.9693    9.5588 C   0  0  0  0  0  0  0  0  0  0  0  0
   -0.3325    9.2425    9.1525 C   0  0  0  0  0  0  0  0  0  0  0  0
    0.5511    8.2382    8.8271 C   0  0  0  0  0  0  0  0  0  0  0  0
    0.0936    6.9412    8.9157 C   0  0  0  0  0  0  0  0  0  0  0  0
   -1.2026    6.6472    9.3156 C   0  0  0  0  0  0  0  0  0  0  0  0
    1.8842    8.5295    8.4155 N   0  0  0  0  0  4  0  0  0  0  0  0
    2.2310    9.7203    8.3167 O   0  0  0  0  0  0  0  0  0  0  0  0
    2.7919    7.5662    8.1267 O   0  0  0  0  0  1  0  0  0  0  0  0
   -2.5733   10.0679    9.8885 C   0  0  0  0  0  0  0  0  0  0  0  0
   -3.1837    9.9797   11.0960 F   0  0  0  0  0  0  0  0  0  0  0  0
   -3.5649   10.2115    8.9261 F   0  0  0  0  0  0  0  0  0  0  0  0
   -1.8725   11.2816    9.8740 F   0  0  0  0  0  0  0  0  0  0  0  0
  1  2  1  0
  2  3  1  0
  3  4  2  0
  4  5  1  0
  5  6  2  0
  3  7  1  0
  7  8  2  0
  8  9  1  0
  9 10  2  0
 10 11  1  0
 11 12  2  0
 12 13  1  0
 13 14  2  0
 14 15  1  0
 15 16  2  0
 10 17  1  0
 17 18  1  0
 18 19  1  0
 19 20  1  0
 20 21  1  0
 21 22  1  0
 20 23  1  0
 23 24  1  0
 23 25  1  0
 25 26  2  0
 25 27  1  0
 27 28  2  0
 28 29  1  0
 29 30  2  0
 30 31  1  0
 31 32  2  0
 30 33  1  0
 33 34  2  0
 33 35  1  0
 28 36  1  0
 36 37  1  0
 36 38  1  0
 36 39  1  0
  6  2  1  0
 16  7  1  0
 16 11  1  0
 22 17  1  0
 32 27  1  0
M  CHG  2  33   1  35  -1
M  END
$$$$
