
     RDKit          3D

 39 43  0  0  0  0  0  0  0  0999 V2000
   -0.7942    2.9963   21.7585 C   0  0  0  0  0  0  0  0  0  0  0  0
   -1.8030    3.7108   22.5361 N   0  0  0  0  0  0  0  0  0  0  0  0
   -2.5873    4.6967   22.0286 C   0  0  0  0  0  0  0  0  0  0  0  0
   -3.4164    5.1511   23.0083 C   0  0  0  0  0  0  0  0  0  0  0  0
   -3.1122    4.4044   24.1481 C   0  0  0  0  0  0  0  0  0  0  0  0
   -2.1347    3.5613   23.7851 N   0  0  0  0  0  0  0  0  0  0  0  0
   -2.4995    5.1580   20.6615 C   0  0  0  0  0  0  0  0  0  0  0  0
   -2.6640    4.2334   19.7004 N   0  0  0  0  0  0  0  0  0  0  0  0
   -2.5998    4.5527   18.4315 N   0  0  0  0  0  0  0  0  0  0  0  0
   -2.3625    5.8424   18.0930 C   0  0  0  0  0  0  0  0  0  0  0  0
   -2.1847    6.8303   19.0222 C   0  0  0  0  0  0  0  0  0  0  0  0
   -1.9266    8.1314   18.6658 C   0  0  0  0  0  0  0  0  0  0  0  0
   -1.7407    9.0708   19.6341 C   0  0  0  0  0  0  0  0  0  0  0  0
   -1.8062    8.7396   20.9649 C   0  0  0  0  0  0  0  0  0  0  0  0
   -2.0644    7.4352   21.3468 C   0  0  0  0  0  0  0  0  0  0  0  0
   -2.2560    6.4731   20.3753 C   0  0  0  0  0  0  0  0  0  0  0  0
   -2.3331    6.1239   16.6838 N   0  0  0  0  0  0  0  0  0  0  0  0
   -2.5769    7.4305   16.1727 C   0  0  0  0  0  0  0  0  0  0  0  0
   -1.6799    7.8027   15.0478 C   0  0  0  0  0  0  0  0  0  0  0  0
   -1.2652    6.6678   14.1498 C   0  0  0  0  0  0  0  0  0  0  0  0
   -0.8620    5.4387   14.9301 C   0  0  0  0  0  0  0  0  0  0  0  0
   -2.0594    5.0417   15.7623 C   0  0  0  0  0  0  0  0  0  0  0  0
   -0.2119    7.1354   13.2842 N   0  0  0  0  0  0  0  0  0  0  0  0
    1.1214    7.3871   13.8008 C   0  0  0  0  0  0  0  0  0  0  0  0
   -0.4773    7.3308   11.9101 C   0  0  0  0  0  0  0  0  0  0  0  0
    0.4393    7.8010   11.1866 O   0  0  0  0  0  0  0  0  0  0  0  0
   -1.7879    6.9841   11.3936 C   0  0  0  0  0  0  0  0  0  0  0  0
   -2.6592    7.9658   10.9727 C   0  0  0  0  0  0  0  0  0  0  0  0
   -3.9190    7.6200   10.4637 C   0  0  0  0  0  0  0  0  0  0  0  0
   -4.3285    6.3092   10.3663 C   0  0  0  0  0  0  0  0  0  0  0  0
   -3.4469    5.3389   10.7914 C   0  0  0  0  0  0  0  0  0  0  0  0
   -2.1949    5.6579   11.2984 C   0  0  0  0  0  0  0  0  0  0  0  0
   -5.6120    5.9711    9.8469 N   0  0  0  0  0  4  0  0  0  0  0  0
   -5.9166    4.7690    9.7459 O   0  0  0  0  0  0  0  0  0  0  0  0
   -6.5164    6.9016    9.4578 O   0  0  0  0  0  1  0  0  0  0  0  0
   -2.2545    9.3802   11.0762 C   0  0  0  0  0  0  0  0  0  0  0  0
   -0.9894    9.6605   10.6771 F   0  0  0  0  0  0  0  0  0  0  0  0
   -2.4042    9.8654   12.3694 F   0  0  0  0  0  0  0  0  0  0  0  0
   -3.1121   10.1631   10.2913 F   0  0  0  0  0  0  0  0  0  0  0  0
  1  2  1  0
  2  3  1  0
  3  4  2  0
  4  5  1  0
  5  6  2  0
  3  7  1  0
  7  8  2  0
  8  9  1  0
  9 10  2  0
 10 11  1  0
 11 12  2  0
 12 13  1  0
 13 14  2  0
 14 15  1  0
 15 16  2  0
 10 17  1  0
 17 18  1  0
 18 19  1  0
 19 20  1  0
 20 21  1  0
 21 22  1  0
 20 23  1  0
 23 24  1  0
 23 25  1  0
 25 26  2  0
 25 27  1  0
 27 28  2  0
 28 29  1  0
 29 30  2  0
 30 31  1  0
 31 32  2  0
 30 33  1  0
 33 34  2  0
 33 35  1  0
 28 36  1  0
 36 37  1  0
 36 38  1  0
 36 39  1  0
  6  2  1  0
 16  7  1  0
 16 11  1  0
 22 17  1  0
 32 27  1  0
M  CHG  2  33   1  35  -1
M  END
$$$$
