
     RDKit          3D

 39 43  0  0  0  0  0  0  0  0999 V2000
    1.1630    8.0330   21.8258 C   0  0  0  0  0  0  0  0  0  0  0  0
    0.5190    6.8884   22.4648 N   0  0  0  0  0  0  0  0  0  0  0  0
   -0.3072    6.0284   21.8149 C   0  0  0  0  0  0  0  0  0  0  0  0
   -0.7358    5.0789   22.6914 C   0  0  0  0  0  0  0  0  0  0  0  0
   -0.1399    5.3870   23.9157 C   0  0  0  0  0  0  0  0  0  0  0  0
    0.5980    6.4855   23.6992 N   0  0  0  0  0  0  0  0  0  0  0  0
   -0.6518    6.1603   20.4172 C   0  0  0  0  0  0  0  0  0  0  0  0
    0.3602    6.0882   19.5362 N   0  0  0  0  0  0  0  0  0  0  0  0
    0.1496    6.1986   18.2480 N   0  0  0  0  0  0  0  0  0  0  0  0
   -1.1165    6.3891   17.8065 C   0  0  0  0  0  0  0  0  0  0  0  0
   -2.1894    6.4731   18.6507 C   0  0  0  0  0  0  0  0  0  0  0  0
   -3.4665    6.6847   18.1913 C   0  0  0  0  0  0  0  0  0  0  0  0
   -4.4950    6.7771   19.0790 C   0  0  0  0  0  0  0  0  0  0  0  0
   -4.2778    6.6630   20.4298 C   0  0  0  0  0  0  0  0  0  0  0  0
   -2.9998    6.4502   20.9149 C   0  0  0  0  0  0  0  0  0  0  0  0
   -1.9481    6.3533   20.0257 C   0  0  0  0  0  0  0  0  0  0  0  0
   -1.2755    6.4736   16.3804 N   0  0  0  0  0  0  0  0  0  0  0  0
   -2.5590    6.4479   15.7641 C   0  0  0  0  0  0  0  0  0  0  0  0
   -2.6906    7.4011   14.6316 C   0  0  0  0  0  0  0  0  0  0  0  0
   -1.4354    7.6332   13.8335 C   0  0  0  0  0  0  0  0  0  0  0  0
   -0.2243    7.8268   14.7153 C   0  0  0  0  0  0  0  0  0  0  0  0
   -0.0929    6.5751   15.5520 C   0  0  0  0  0  0  0  0  0  0  0  0
   -1.6567    8.7543   12.9551 N   0  0  0  0  0  0  0  0  0  0  0  0
   -1.4260   10.1140   13.4087 C   0  0  0  0  0  0  0  0  0  0  0  0
   -2.0840    8.5233   11.6281 C   0  0  0  0  0  0  0  0  0  0  0  0
   -2.4358    9.5130   10.9341 O   0  0  0  0  0  0  0  0  0  0  0  0
   -2.0999    7.1631   11.1240 C   0  0  0  0  0  0  0  0  0  0  0  0
   -3.2585    6.4167   11.1538 C   0  0  0  0  0  0  0  0  0  0  0  0
   -3.2669    5.1071   10.6531 C   0  0  0  0  0  0  0  0  0  0  0  0
   -2.1381    4.5250   10.1218 C   0  0  0  0  0  0  0  0  0  0  0  0
   -0.9874    5.2833   10.0992 C   0  0  0  0  0  0  0  0  0  0  0  0
   -0.9559    6.5816   10.5890 C   0  0  0  0  0  0  0  0  0  0  0  0
   -2.1601    3.1927    9.6161 N   0  0  0  0  0  4  0  0  0  0  0  0
   -1.1073    2.7099    9.1616 O   0  0  0  0  0  0  0  0  0  0  0  0
   -3.2778    2.4274    9.6082 O   0  0  0  0  0  1  0  0  0  0  0  0
   -4.4813    7.0079   11.7285 C   0  0  0  0  0  0  0  0  0  0  0  0
   -4.8758    8.1860   11.1858 F   0  0  0  0  0  0  0  0  0  0  0  0
   -4.3671    7.1947   13.1005 F   0  0  0  0  0  0  0  0  0  0  0  0
   -5.5454    6.1095   11.5700 F   0  0  0  0  0  0  0  0  0  0  0  0
  1  2  1  0
  2  3  1  0
  3  4  2  0
  4  5  1  0
  5  6  2  0
  3  7  1  0
  7  8  2  0
  8  9  1  0
  9 10  2  0
 10 11  1  0
 11 12  2  0
 12 13  1  0
 13 14  2  0
 14 15  1  0
 15 16  2  0
 10 17  1  0
 17 18  1  0
 18 19  1  0
 19 20  1  0
 20 21  1  0
 21 22  1  0
 20 23  1  0
 23 24  1  0
 23 25  1  0
 25 26  2  0
 25 27  1  0
 27 28  2  0
 28 29  1  0
 29 30  2  0
 30 31  1  0
 31 32  2  0
 30 33  1  0
 33 34  2  0
 33 35  1  0
 28 36  1  0
 36 37  1  0
 36 38  1  0
 36 39  1  0
  6  2  1  0
 16  7  1  0
 16 11  1  0
 22 17  1  0
 32 27  1  0
M  CHG  2  33   1  35  -1
M  END
$$$$
