
     RDKit          3D

 39 43  0  0  0  0  0  0  0  0999 V2000
   -4.0679    3.6960   15.3843 C   0  0  0  0  0  0  0  0  0  0  0  0
   -3.0046    3.8518   16.3733 N   0  0  0  0  0  0  0  0  0  0  0  0
   -1.9281    4.6620   16.2017 C   0  0  0  0  0  0  0  0  0  0  0  0
   -1.1317    4.5790   17.3028 C   0  0  0  0  0  0  0  0  0  0  0  0
   -1.7605    3.6804   18.1667 C   0  0  0  0  0  0  0  0  0  0  0  0
   -2.8781    3.2874   17.5386 N   0  0  0  0  0  0  0  0  0  0  0  0
   -1.7092    5.4515   15.0107 C   0  0  0  0  0  0  0  0  0  0  0  0
   -0.8094    4.9805   14.1309 N   0  0  0  0  0  0  0  0  0  0  0  0
   -0.5397    5.6253   13.0229 N   0  0  0  0  0  0  0  0  0  0  0  0
   -1.1861    6.7882   12.7693 C   0  0  0  0  0  0  0  0  0  0  0  0
   -2.1111    7.3218   13.6240 C   0  0  0  0  0  0  0  0  0  0  0  0
   -2.7464    8.5115   13.3637 C   0  0  0  0  0  0  0  0  0  0  0  0
   -3.6462    9.0045   14.2590 C   0  0  0  0  0  0  0  0  0  0  0  0
   -3.9305    8.3320   15.4218 C   0  0  0  0  0  0  0  0  0  0  0  0
   -3.3022    7.1324   15.7047 C   0  0  0  0  0  0  0  0  0  0  0  0
   -2.3885    6.6206   14.8050 C   0  0  0  0  0  0  0  0  0  0  0  0
   -0.8603    7.4258   11.5230 N   0  0  0  0  0  0  0  0  0  0  0  0
    0.2204    6.9797   10.7101 C   0  0  0  0  0  0  0  0  0  0  0  0
   -0.0893    6.9890    9.2567 C   0  0  0  0  0  0  0  0  0  0  0  0
   -1.0220    8.0798    8.8021 C   0  0  0  0  0  0  0  0  0  0  0  0
   -2.2066    8.2414    9.7254 C   0  0  0  0  0  0  0  0  0  0  0  0
   -1.6493    8.5607   11.0934 C   0  0  0  0  0  0  0  0  0  0  0  0
   -1.4206    7.8000    7.4455 N   0  0  0  0  0  0  0  0  0  0  0  0
   -2.8112    7.5472    7.1139 C   0  0  0  0  0  0  0  0  0  0  0  0
   -0.4459    7.7931    6.4225 C   0  0  0  0  0  0  0  0  0  0  0  0
   -0.3984    6.7997    5.6507 O   0  0  0  0  0  0  0  0  0  0  0  0
    0.4548    8.9243    6.3054 C   0  0  0  0  0  0  0  0  0  0  0  0
    0.1208   10.0101    5.5245 C   0  0  0  0  0  0  0  0  0  0  0  0
    0.9925   11.1040    5.4272 C   0  0  0  0  0  0  0  0  0  0  0  0
    2.1956   11.1360    6.0958 C   0  0  0  0  0  0  0  0  0  0  0  0
    2.5159   10.0433    6.8722 C   0  0  0  0  0  0  0  0  0  0  0  0
    1.6685    8.9497    6.9834 C   0  0  0  0  0  0  0  0  0  0  0  0
    3.0728   12.2542    5.9885 N   0  0  0  0  0  4  0  0  0  0  0  0
    4.0970   12.2785    6.6944 O   0  0  0  0  0  0  0  0  0  0  0  0
    2.8406   13.2933    5.1509 O   0  0  0  0  0  1  0  0  0  0  0  0
   -1.1555   10.0001    4.7856 C   0  0  0  0  0  0  0  0  0  0  0  0
   -1.4501    8.8468    4.1366 F   0  0  0  0  0  0  0  0  0  0  0  0
   -1.2218   11.0327    3.8584 F   0  0  0  0  0  0  0  0  0  0  0  0
   -2.2070   10.2446    5.6796 F   0  0  0  0  0  0  0  0  0  0  0  0
  1  2  1  0
  2  3  1  0
  3  4  2  0
  4  5  1  0
  5  6  2  0
  3  7  1  0
  7  8  2  0
  8  9  1  0
  9 10  2  0
 10 11  1  0
 11 12  2  0
 12 13  1  0
 13 14  2  0
 14 15  1  0
 15 16  2  0
 10 17  1  0
 17 18  1  0
 18 19  1  0
 19 20  1  0
 20 21  1  0
 21 22  1  0
 20 23  1  0
 23 24  1  0
 23 25  1  0
 25 26  2  0
 25 27  1  0
 27 28  2  0
 28 29  1  0
 29 30  2  0
 30 31  1  0
 31 32  2  0
 30 33  1  0
 33 34  2  0
 33 35  1  0
 28 36  1  0
 36 37  1  0
 36 38  1  0
 36 39  1  0
  6  2  1  0
 16  7  1  0
 16 11  1  0
 22 17  1  0
 32 27  1  0
M  CHG  2  33   1  35  -1
M  END
$$$$
