
     RDKit          3D

 39 43  0  0  0  0  0  0  0  0999 V2000
   -0.4318    2.2629   20.6112 C   0  0  0  0  0  0  0  0  0  0  0  0
   -0.2077    3.3403   21.5715 N   0  0  0  0  0  0  0  0  0  0  0  0
   -0.3343    4.6583   21.2691 C   0  0  0  0  0  0  0  0  0  0  0  0
   -0.0585    5.3957   22.3798 C   0  0  0  0  0  0  0  0  0  0  0  0
    0.2461    4.4776   23.3865 C   0  0  0  0  0  0  0  0  0  0  0  0
    0.1348    3.2653   22.8243 N   0  0  0  0  0  0  0  0  0  0  0  0
   -0.6928    5.1414   19.9546 C   0  0  0  0  0  0  0  0  0  0  0  0
    0.1370    4.8226   18.9470 N   0  0  0  0  0  0  0  0  0  0  0  0
   -0.1006    5.2157   17.7201 N   0  0  0  0  0  0  0  0  0  0  0  0
   -1.2067    5.9575   17.4739 C   0  0  0  0  0  0  0  0  0  0  0  0
   -2.0896    6.3170   18.4548 C   0  0  0  0  0  0  0  0  0  0  0  0
   -3.1983    7.0851   18.1949 C   0  0  0  0  0  0  0  0  0  0  0  0
   -4.0343    7.4276   19.2137 C   0  0  0  0  0  0  0  0  0  0  0  0
   -3.7879    7.0183   20.5009 C   0  0  0  0  0  0  0  0  0  0  0  0
   -2.6770    6.2445   20.7858 C   0  0  0  0  0  0  0  0  0  0  0  0
   -1.8218    5.8891   19.7619 C   0  0  0  0  0  0  0  0  0  0  0  0
   -1.4175    6.3294   16.1016 N   0  0  0  0  0  0  0  0  0  0  0  0
   -2.3395    5.6350   15.2676 C   0  0  0  0  0  0  0  0  0  0  0  0
   -3.1258    6.5313   14.3805 C   0  0  0  0  0  0  0  0  0  0  0  0
   -2.4049    7.7647   13.9057 C   0  0  0  0  0  0  0  0  0  0  0  0
   -1.6444    8.4469   15.0184 C   0  0  0  0  0  0  0  0  0  0  0  0
   -0.6591    7.4340   15.5543 C   0  0  0  0  0  0  0  0  0  0  0  0
   -3.3655    8.6406   13.2832 N   0  0  0  0  0  0  0  0  0  0  0  0
   -4.5656    9.0528   13.9885 C   0  0  0  0  0  0  0  0  0  0  0  0
   -3.1233    9.1204   11.9763 C   0  0  0  0  0  0  0  0  0  0  0  0
   -3.9635    9.9055   11.4640 O   0  0  0  0  0  0  0  0  0  0  0  0
   -1.9238    8.6901   11.2831 C   0  0  0  0  0  0  0  0  0  0  0  0
   -1.9924    7.7465   10.2805 C   0  0  0  0  0  0  0  0  0  0  0  0
   -0.8291    7.3459    9.6080 C   0  0  0  0  0  0  0  0  0  0  0  0
    0.4059    7.8697    9.9175 C   0  0  0  0  0  0  0  0  0  0  0  0
    0.4587    8.8116   10.9222 C   0  0  0  0  0  0  0  0  0  0  0  0
   -0.6797    9.2232   11.6011 C   0  0  0  0  0  0  0  0  0  0  0  0
    1.5809    7.4538    9.2262 N   0  0  0  0  0  4  0  0  0  0  0  0
    1.4573    6.7261    8.2246 O   0  0  0  0  0  0  0  0  0  0  0  0
    2.8280    7.8161    9.6116 O   0  0  0  0  0  1  0  0  0  0  0  0
   -3.2993    7.1573    9.9345 C   0  0  0  0  0  0  0  0  0  0  0  0
   -4.2399    8.0297    9.4957 F   0  0  0  0  0  0  0  0  0  0  0  0
   -3.8448    6.4524   11.0003 F   0  0  0  0  0  0  0  0  0  0  0  0
   -3.1216    6.2058    8.9208 F   0  0  0  0  0  0  0  0  0  0  0  0
  1  2  1  0
  2  3  1  0
  3  4  2  0
  4  5  1  0
  5  6  2  0
  3  7  1  0
  7  8  2  0
  8  9  1  0
  9 10  2  0
 10 11  1  0
 11 12  2  0
 12 13  1  0
 13 14  2  0
 14 15  1  0
 15 16  2  0
 10 17  1  0
 17 18  1  0
 18 19  1  0
 19 20  1  0
 20 21  1  0
 21 22  1  0
 20 23  1  0
 23 24  1  0
 23 25  1  0
 25 26  2  0
 25 27  1  0
 27 28  2  0
 28 29  1  0
 29 30  2  0
 30 31  1  0
 31 32  2  0
 30 33  1  0
 33 34  2  0
 33 35  1  0
 28 36  1  0
 36 37  1  0
 36 38  1  0
 36 39  1  0
  6  2  1  0
 16  7  1  0
 16 11  1  0
 22 17  1  0
 32 27  1  0
M  CHG  2  33   1  35  -1
M  END
$$$$
