
     RDKit          3D

 39 43  0  0  0  0  0  0  0  0999 V2000
   -2.4315    7.5542   20.3121 C   0  0  0  0  0  0  0  0  0  0  0  0
   -2.6166    6.1090   20.4135 N   0  0  0  0  0  0  0  0  0  0  0  0
   -2.5177    5.2604   19.3578 C   0  0  0  0  0  0  0  0  0  0  0  0
   -2.7436    3.9890   19.7893 C   0  0  0  0  0  0  0  0  0  0  0  0
   -2.9882    4.0848   21.1605 C   0  0  0  0  0  0  0  0  0  0  0  0
   -2.8944    5.3884   21.4604 N   0  0  0  0  0  0  0  0  0  0  0  0
   -2.2308    5.6979   18.0102 C   0  0  0  0  0  0  0  0  0  0  0  0
   -3.2533    5.6790   17.1386 N   0  0  0  0  0  0  0  0  0  0  0  0
   -3.0928    6.0545   15.8938 N   0  0  0  0  0  0  0  0  0  0  0  0
   -1.8685    6.4680   15.4883 C   0  0  0  0  0  0  0  0  0  0  0  0
   -0.7872    6.5093   16.3249 C   0  0  0  0  0  0  0  0  0  0  0  0
    0.4537    6.9134   15.8965 C   0  0  0  0  0  0  0  0  0  0  0  0
    1.4990    6.9182   16.7692 C   0  0  0  0  0  0  0  0  0  0  0  0
    1.3348    6.5242   18.0742 C   0  0  0  0  0  0  0  0  0  0  0  0
    0.0940    6.1128   18.5272 C   0  0  0  0  0  0  0  0  0  0  0  0
   -0.9746    6.1043   17.6532 C   0  0  0  0  0  0  0  0  0  0  0  0
   -1.7735    6.8910   14.1179 N   0  0  0  0  0  0  0  0  0  0  0  0
   -2.2203    6.0688   13.0445 C   0  0  0  0  0  0  0  0  0  0  0  0
   -2.9259    6.8227   11.9758 C   0  0  0  0  0  0  0  0  0  0  0  0
   -2.4349    8.2268   11.7441 C   0  0  0  0  0  0  0  0  0  0  0  0
   -2.2128    8.9760   13.0368 C   0  0  0  0  0  0  0  0  0  0  0  0
   -1.1951    8.1855   13.8264 C   0  0  0  0  0  0  0  0  0  0  0  0
   -3.3710    8.8978   10.8775 N   0  0  0  0  0  0  0  0  0  0  0  0
   -4.2783    9.9050   11.3971 C   0  0  0  0  0  0  0  0  0  0  0  0
   -3.3896    8.5846    9.4997 C   0  0  0  0  0  0  0  0  0  0  0  0
   -4.5059    8.4489    8.9339 O   0  0  0  0  0  0  0  0  0  0  0  0
   -2.1286    8.4325    8.7988 C   0  0  0  0  0  0  0  0  0  0  0  0
   -1.6341    7.1794    8.5066 C   0  0  0  0  0  0  0  0  0  0  0  0
   -0.4204    7.0428    7.8181 C   0  0  0  0  0  0  0  0  0  0  0  0
    0.3128    8.1358    7.4141 C   0  0  0  0  0  0  0  0  0  0  0  0
   -0.1939    9.3819    7.7137 C   0  0  0  0  0  0  0  0  0  0  0  0
   -1.3932    9.5410    8.3940 C   0  0  0  0  0  0  0  0  0  0  0  0
    1.5453    7.9832    6.7148 N   0  0  0  0  0  4  0  0  0  0  0  0
    1.9021    6.8399    6.3779 O   0  0  0  0  0  0  0  0  0  0  0  0
    2.3468    9.0290    6.4002 O   0  0  0  0  0  1  0  0  0  0  0  0
   -2.3902    5.9887    8.9373 C   0  0  0  0  0  0  0  0  0  0  0  0
   -3.6560    5.8921    8.4613 F   0  0  0  0  0  0  0  0  0  0  0  0
   -2.4536    5.8920   10.3219 F   0  0  0  0  0  0  0  0  0  0  0  0
   -1.7096    4.8360    8.5220 F   0  0  0  0  0  0  0  0  0  0  0  0
  1  2  1  0
  2  3  1  0
  3  4  2  0
  4  5  1  0
  5  6  2  0
  3  7  1  0
  7  8  2  0
  8  9  1  0
  9 10  2  0
 10 11  1  0
 11 12  2  0
 12 13  1  0
 13 14  2  0
 14 15  1  0
 15 16  2  0
 10 17  1  0
 17 18  1  0
 18 19  1  0
 19 20  1  0
 20 21  1  0
 21 22  1  0
 20 23  1  0
 23 24  1  0
 23 25  1  0
 25 26  2  0
 25 27  1  0
 27 28  2  0
 28 29  1  0
 29 30  2  0
 30 31  1  0
 31 32  2  0
 30 33  1  0
 33 34  2  0
 33 35  1  0
 28 36  1  0
 36 37  1  0
 36 38  1  0
 36 39  1  0
  6  2  1  0
 16  7  1  0
 16 11  1  0
 22 17  1  0
 32 27  1  0
M  CHG  2  33   1  35  -1
M  END
$$$$
