
     RDKit          3D

 39 43  0  0  0  0  0  0  0  0999 V2000
   -0.1727    3.4890   20.6103 C   0  0  0  0  0  0  0  0  0  0  0  0
    0.0060    4.7764   21.2765 N   0  0  0  0  0  0  0  0  0  0  0  0
   -0.3220    5.9683   20.7140 C   0  0  0  0  0  0  0  0  0  0  0  0
   -0.0326    6.9670   21.5929 C   0  0  0  0  0  0  0  0  0  0  0  0
    0.4907    6.3431   22.7270 C   0  0  0  0  0  0  0  0  0  0  0  0
    0.4817    5.0290   22.4607 N   0  0  0  0  0  0  0  0  0  0  0  0
   -0.8732    6.0947   19.3836 C   0  0  0  0  0  0  0  0  0  0  0  0
   -0.0424    5.8389   18.3589 N   0  0  0  0  0  0  0  0  0  0  0  0
   -0.4475    5.9285   17.1163 N   0  0  0  0  0  0  0  0  0  0  0  0
   -1.7304    6.2867   16.8712 C   0  0  0  0  0  0  0  0  0  0  0  0
   -2.6250    6.5617   17.8686 C   0  0  0  0  0  0  0  0  0  0  0  0
   -3.9186    6.9417   17.6061 C   0  0  0  0  0  0  0  0  0  0  0  0
   -4.7615    7.2202   18.6388 C   0  0  0  0  0  0  0  0  0  0  0  0
   -4.3401    7.1284   19.9423 C   0  0  0  0  0  0  0  0  0  0  0  0
   -3.0414    6.7481   20.2299 C   0  0  0  0  0  0  0  0  0  0  0  0
   -2.1767    6.4617   19.1924 C   0  0  0  0  0  0  0  0  0  0  0  0
   -2.1117    6.3375   15.4862 N   0  0  0  0  0  0  0  0  0  0  0  0
   -2.8359    7.4381   14.9457 C   0  0  0  0  0  0  0  0  0  0  0  0
   -2.3722    7.8447   13.5936 C   0  0  0  0  0  0  0  0  0  0  0  0
   -1.8659    6.7270   12.7212 C   0  0  0  0  0  0  0  0  0  0  0  0
   -0.9538    5.7845   13.4707 C   0  0  0  0  0  0  0  0  0  0  0  0
   -1.7572    5.2300   14.6244 C   0  0  0  0  0  0  0  0  0  0  0  0
   -1.2246    7.3063   11.5677 N   0  0  0  0  0  0  0  0  0  0  0  0
    0.2199    7.2791   11.4253 C   0  0  0  0  0  0  0  0  0  0  0  0
   -2.0161    7.8896   10.5527 C   0  0  0  0  0  0  0  0  0  0  0  0
   -3.2383    8.0812   10.7856 O   0  0  0  0  0  0  0  0  0  0  0  0
   -1.3908    8.2404    9.2916 C   0  0  0  0  0  0  0  0  0  0  0  0
   -1.0825    9.5523    9.0016 C   0  0  0  0  0  0  0  0  0  0  0  0
   -0.4673    9.8801    7.7851 C   0  0  0  0  0  0  0  0  0  0  0  0
   -0.1527    8.9214    6.8484 C   0  0  0  0  0  0  0  0  0  0  0  0
   -0.4673    7.6144    7.1522 C   0  0  0  0  0  0  0  0  0  0  0  0
   -1.0762    7.2668    8.3501 C   0  0  0  0  0  0  0  0  0  0  0  0
    0.4728    9.2679    5.6155 N   0  0  0  0  0  4  0  0  0  0  0  0
    0.8451    8.3537    4.8581 O   0  0  0  0  0  0  0  0  0  0  0  0
    0.6803   10.5501    5.2309 O   0  0  0  0  0  1  0  0  0  0  0  0
   -1.4186   10.6040    9.9794 C   0  0  0  0  0  0  0  0  0  0  0  0
   -1.0273   11.8596    9.6501 F   0  0  0  0  0  0  0  0  0  0  0  0
   -0.9040   10.3202   11.2383 F   0  0  0  0  0  0  0  0  0  0  0  0
   -2.8088   10.6431   10.1539 F   0  0  0  0  0  0  0  0  0  0  0  0
  1  2  1  0
  2  3  1  0
  3  4  2  0
  4  5  1  0
  5  6  2  0
  3  7  1  0
  7  8  2  0
  8  9  1  0
  9 10  2  0
 10 11  1  0
 11 12  2  0
 12 13  1  0
 13 14  2  0
 14 15  1  0
 15 16  2  0
 10 17  1  0
 17 18  1  0
 18 19  1  0
 19 20  1  0
 20 21  1  0
 21 22  1  0
 20 23  1  0
 23 24  1  0
 23 25  1  0
 25 26  2  0
 25 27  1  0
 27 28  2  0
 28 29  1  0
 29 30  2  0
 30 31  1  0
 31 32  2  0
 30 33  1  0
 33 34  2  0
 33 35  1  0
 28 36  1  0
 36 37  1  0
 36 38  1  0
 36 39  1  0
  6  2  1  0
 16  7  1  0
 16 11  1  0
 22 17  1  0
 32 27  1  0
M  CHG  2  33   1  35  -1
M  END
$$$$
