
     RDKit          3D

 39 43  0  0  0  0  0  0  0  0999 V2000
   -1.7112    2.2072   21.2420 C   0  0  0  0  0  0  0  0  0  0  0  0
   -1.7743    3.4077   22.0713 N   0  0  0  0  0  0  0  0  0  0  0  0
   -1.7359    4.6708   21.5735 C   0  0  0  0  0  0  0  0  0  0  0  0
   -1.8151    5.5556   22.6052 C   0  0  0  0  0  0  0  0  0  0  0  0
   -1.9037    4.7865   23.7670 C   0  0  0  0  0  0  0  0  0  0  0  0
   -1.8731    3.5078   23.3647 N   0  0  0  0  0  0  0  0  0  0  0  0
   -1.6141    4.9663   20.1638 C   0  0  0  0  0  0  0  0  0  0  0  0
   -1.1286    3.9876   19.3814 N   0  0  0  0  0  0  0  0  0  0  0  0
   -0.9786    4.1596   18.0914 N   0  0  0  0  0  0  0  0  0  0  0  0
   -1.3225    5.3508   17.5463 C   0  0  0  0  0  0  0  0  0  0  0  0
   -1.8204    6.3871   18.2873 C   0  0  0  0  0  0  0  0  0  0  0  0
   -2.1484    7.5966   17.7250 C   0  0  0  0  0  0  0  0  0  0  0  0
   -2.6239    8.5994   18.5141 C   0  0  0  0  0  0  0  0  0  0  0  0
   -2.7813    8.4231   19.8666 C   0  0  0  0  0  0  0  0  0  0  0  0
   -2.4569    7.2134   20.4543 C   0  0  0  0  0  0  0  0  0  0  0  0
   -1.9748    6.1879   19.6656 C   0  0  0  0  0  0  0  0  0  0  0  0
   -1.1571    5.4581   16.1225 N   0  0  0  0  0  0  0  0  0  0  0  0
   -0.7308    4.3545   15.3299 C   0  0  0  0  0  0  0  0  0  0  0  0
   -1.4479    4.2457   14.0328 C   0  0  0  0  0  0  0  0  0  0  0  0
   -1.8591    5.5534   13.4104 C   0  0  0  0  0  0  0  0  0  0  0  0
   -2.4675    6.5003   14.4179 C   0  0  0  0  0  0  0  0  0  0  0  0
   -1.4210    6.7299   15.4838 C   0  0  0  0  0  0  0  0  0  0  0  0
   -2.7524    5.2736   12.3145 N   0  0  0  0  0  0  0  0  0  0  0  0
   -3.5422    4.0557   12.2885 C   0  0  0  0  0  0  0  0  0  0  0  0
   -2.8755    6.2089   11.2624 C   0  0  0  0  0  0  0  0  0  0  0  0
   -3.9038    6.1597   10.5379 O   0  0  0  0  0  0  0  0  0  0  0  0
   -1.8173    7.1808   11.0618 C   0  0  0  0  0  0  0  0  0  0  0  0
   -1.9892    8.4946   11.4420 C   0  0  0  0  0  0  0  0  0  0  0  0
   -0.9562    9.4241   11.2551 C   0  0  0  0  0  0  0  0  0  0  0  0
    0.2493    9.0674   10.6939 C   0  0  0  0  0  0  0  0  0  0  0  0
    0.4062    7.7506   10.3184 C   0  0  0  0  0  0  0  0  0  0  0  0
   -0.6024    6.8135   10.4941 C   0  0  0  0  0  0  0  0  0  0  0  0
    1.2915   10.0220   10.5094 N   0  0  0  0  0  4  0  0  0  0  0  0
    1.0787   11.2059   10.8274 O   0  0  0  0  0  0  0  0  0  0  0  0
    2.5051    9.6973   10.0026 O   0  0  0  0  0  1  0  0  0  0  0  0
   -3.2741    8.9105   12.0345 C   0  0  0  0  0  0  0  0  0  0  0  0
   -4.2495    7.9688   12.0437 F   0  0  0  0  0  0  0  0  0  0  0  0
   -3.7873   10.0406   11.4102 F   0  0  0  0  0  0  0  0  0  0  0  0
   -3.0646    9.2931   13.3665 F   0  0  0  0  0  0  0  0  0  0  0  0
  1  2  1  0
  2  3  1  0
  3  4  2  0
  4  5  1  0
  5  6  2  0
  3  7  1  0
  7  8  2  0
  8  9  1  0
  9 10  2  0
 10 11  1  0
 11 12  2  0
 12 13  1  0
 13 14  2  0
 14 15  1  0
 15 16  2  0
 10 17  1  0
 17 18  1  0
 18 19  1  0
 19 20  1  0
 20 21  1  0
 21 22  1  0
 20 23  1  0
 23 24  1  0
 23 25  1  0
 25 26  2  0
 25 27  1  0
 27 28  2  0
 28 29  1  0
 29 30  2  0
 30 31  1  0
 31 32  2  0
 30 33  1  0
 33 34  2  0
 33 35  1  0
 28 36  1  0
 36 37  1  0
 36 38  1  0
 36 39  1  0
  6  2  1  0
 16  7  1  0
 16 11  1  0
 22 17  1  0
 32 27  1  0
M  CHG  2  33   1  35  -1
M  END
$$$$
