
     RDKit          3D

 39 43  0  0  0  0  0  0  0  0999 V2000
   -3.5678    8.0087   16.8542 C   0  0  0  0  0  0  0  0  0  0  0  0
   -3.3457    6.5788   17.0514 N   0  0  0  0  0  0  0  0  0  0  0  0
   -2.9865    5.7272   16.0562 C   0  0  0  0  0  0  0  0  0  0  0  0
   -2.8607    4.4731   16.5708 C   0  0  0  0  0  0  0  0  0  0  0  0
   -3.1583    4.5823   17.9304 C   0  0  0  0  0  0  0  0  0  0  0  0
   -3.4392    5.8762   18.1424 N   0  0  0  0  0  0  0  0  0  0  0  0
   -2.7974    6.1423   14.6845 C   0  0  0  0  0  0  0  0  0  0  0  0
   -1.6233    6.7234   14.3857 N   0  0  0  0  0  0  0  0  0  0  0  0
   -1.3583    7.1359   13.1709 N   0  0  0  0  0  0  0  0  0  0  0  0
   -2.2930    6.9684   12.2051 C   0  0  0  0  0  0  0  0  0  0  0  0
   -3.5074    6.3864   12.4442 C   0  0  0  0  0  0  0  0  0  0  0  0
   -4.4540    6.2390   11.4598 C   0  0  0  0  0  0  0  0  0  0  0  0
   -5.6533    5.6675   11.7588 C   0  0  0  0  0  0  0  0  0  0  0  0
   -5.9350    5.2351   13.0311 C   0  0  0  0  0  0  0  0  0  0  0  0
   -4.9967    5.3740   14.0383 C   0  0  0  0  0  0  0  0  0  0  0  0
   -3.7762    5.9506   13.7485 C   0  0  0  0  0  0  0  0  0  0  0  0
   -1.9226    7.4194   10.8915 N   0  0  0  0  0  0  0  0  0  0  0  0
   -1.0631    8.5377   10.6950 C   0  0  0  0  0  0  0  0  0  0  0  0
   -0.0792    8.3421    9.5986 C   0  0  0  0  0  0  0  0  0  0  0  0
   -0.5559    7.4998    8.4455 C   0  0  0  0  0  0  0  0  0  0  0  0
   -1.2793    6.2562    8.9060 C   0  0  0  0  0  0  0  0  0  0  0  0
   -2.4514    6.7203    9.7397 C   0  0  0  0  0  0  0  0  0  0  0  0
    0.5764    7.1947    7.6076 N   0  0  0  0  0  0  0  0  0  0  0  0
    1.6380    6.3228    8.0770 C   0  0  0  0  0  0  0  0  0  0  0  0
    0.6416    7.7358    6.3038 C   0  0  0  0  0  0  0  0  0  0  0  0
    1.6345    7.4453    5.5865 O   0  0  0  0  0  0  0  0  0  0  0  0
   -0.4319    8.5992    5.8492 C   0  0  0  0  0  0  0  0  0  0  0  0
   -0.2618    9.9664    5.8029 C   0  0  0  0  0  0  0  0  0  0  0  0
   -1.3011   10.7917    5.3506 C   0  0  0  0  0  0  0  0  0  0  0  0
   -2.5115   10.2781    4.9424 C   0  0  0  0  0  0  0  0  0  0  0  0
   -2.6669    8.9097    4.9947 C   0  0  0  0  0  0  0  0  0  0  0  0
   -1.6519    8.0735    5.4387 C   0  0  0  0  0  0  0  0  0  0  0  0
   -3.5599   11.1282    4.4846 N   0  0  0  0  0  4  0  0  0  0  0  0
   -4.6345   10.6113    4.1296 O   0  0  0  0  0  0  0  0  0  0  0  0
   -3.4384   12.4758    4.4188 O   0  0  0  0  0  1  0  0  0  0  0  0
    1.0192   10.5479    6.2457 C   0  0  0  0  0  0  0  0  0  0  0  0
    2.0580   10.4048    5.3863 F   0  0  0  0  0  0  0  0  0  0  0  0
    1.4181   10.0390    7.4754 F   0  0  0  0  0  0  0  0  0  0  0  0
    0.8517   11.9233    6.4571 F   0  0  0  0  0  0  0  0  0  0  0  0
  1  2  1  0
  2  3  1  0
  3  4  2  0
  4  5  1  0
  5  6  2  0
  3  7  1  0
  7  8  2  0
  8  9  1  0
  9 10  2  0
 10 11  1  0
 11 12  2  0
 12 13  1  0
 13 14  2  0
 14 15  1  0
 15 16  2  0
 10 17  1  0
 17 18  1  0
 18 19  1  0
 19 20  1  0
 20 21  1  0
 21 22  1  0
 20 23  1  0
 23 24  1  0
 23 25  1  0
 25 26  2  0
 25 27  1  0
 27 28  2  0
 28 29  1  0
 29 30  2  0
 30 31  1  0
 31 32  2  0
 30 33  1  0
 33 34  2  0
 33 35  1  0
 28 36  1  0
 36 37  1  0
 36 38  1  0
 36 39  1  0
  6  2  1  0
 16  7  1  0
 16 11  1  0
 22 17  1  0
 32 27  1  0
M  CHG  2  33   1  35  -1
M  END
$$$$
