
     RDKit          3D

 39 43  0  0  0  0  0  0  0  0999 V2000
    4.0685   10.8772    9.0282 C   0  0  0  0  0  0  0  0  0  0  0  0
    4.0205   10.8985    7.5686 N   0  0  0  0  0  0  0  0  0  0  0  0
    3.0671   10.2666    6.8363 C   0  0  0  0  0  0  0  0  0  0  0  0
    3.3084   10.4837    5.5141 C   0  0  0  0  0  0  0  0  0  0  0  0
    4.4548   11.2783    5.4566 C   0  0  0  0  0  0  0  0  0  0  0  0
    4.8230   11.4850    6.7293 N   0  0  0  0  0  0  0  0  0  0  0  0
    1.9992    9.4890    7.4234 C   0  0  0  0  0  0  0  0  0  0  0  0
    2.2194    8.9913    8.6519 N   0  0  0  0  0  0  0  0  0  0  0  0
    1.3135    8.2720    9.2667 N   0  0  0  0  0  0  0  0  0  0  0  0
    0.1357    8.0313    8.6427 C   0  0  0  0  0  0  0  0  0  0  0  0
   -0.1498    8.5073    7.3926 C   0  0  0  0  0  0  0  0  0  0  0  0
   -1.3412    8.2408    6.7633 C   0  0  0  0  0  0  0  0  0  0  0  0
   -1.5648    8.7264    5.5108 C   0  0  0  0  0  0  0  0  0  0  0  0
   -0.6172    9.4798    4.8630 C   0  0  0  0  0  0  0  0  0  0  0  0
    0.5901    9.7601    5.4777 C   0  0  0  0  0  0  0  0  0  0  0  0
    0.8293    9.2749    6.7479 C   0  0  0  0  0  0  0  0  0  0  0  0
   -0.8203    7.2589    9.3879 N   0  0  0  0  0  0  0  0  0  0  0  0
   -0.5624    5.9126    9.7735 C   0  0  0  0  0  0  0  0  0  0  0  0
   -1.0270    5.5915   11.1482 C   0  0  0  0  0  0  0  0  0  0  0  0
   -2.2665    6.3184   11.5972 C   0  0  0  0  0  0  0  0  0  0  0  0
   -2.2280    7.7868   11.2449 C   0  0  0  0  0  0  0  0  0  0  0  0
   -2.0843    7.8684    9.7427 C   0  0  0  0  0  0  0  0  0  0  0  0
   -2.4333    6.1000   13.0121 N   0  0  0  0  0  0  0  0  0  0  0  0
   -1.3559    5.5485   13.8137 C   0  0  0  0  0  0  0  0  0  0  0  0
   -3.6560    6.4479   13.6293 C   0  0  0  0  0  0  0  0  0  0  0  0
   -3.7842    6.2315   14.8628 O   0  0  0  0  0  0  0  0  0  0  0  0
   -4.7068    7.0358   12.8201 C   0  0  0  0  0  0  0  0  0  0  0  0
   -5.6131    6.2363   12.1571 C   0  0  0  0  0  0  0  0  0  0  0  0
   -6.6326    6.8142   11.3872 C   0  0  0  0  0  0  0  0  0  0  0  0
   -6.7659    8.1790   11.2649 C   0  0  0  0  0  0  0  0  0  0  0  0
   -5.8523    8.9652   11.9331 C   0  0  0  0  0  0  0  0  0  0  0  0
   -4.8353    8.4152   12.7009 C   0  0  0  0  0  0  0  0  0  0  0  0
   -7.8069    8.7537   10.4791 N   0  0  0  0  0  4  0  0  0  0  0  0
   -7.9398    9.9908   10.4786 O   0  0  0  0  0  0  0  0  0  0  0  0
   -8.6592    8.0120    9.7317 O   0  0  0  0  0  1  0  0  0  0  0  0
   -5.4889    4.7703   12.2582 C   0  0  0  0  0  0  0  0  0  0  0  0
   -5.6868    4.2473   13.4933 F   0  0  0  0  0  0  0  0  0  0  0  0
   -4.2523    4.3259   11.8071 F   0  0  0  0  0  0  0  0  0  0  0  0
   -6.4255    4.1690   11.4063 F   0  0  0  0  0  0  0  0  0  0  0  0
  1  2  1  0
  2  3  1  0
  3  4  2  0
  4  5  1  0
  5  6  2  0
  3  7  1  0
  7  8  2  0
  8  9  1  0
  9 10  2  0
 10 11  1  0
 11 12  2  0
 12 13  1  0
 13 14  2  0
 14 15  1  0
 15 16  2  0
 10 17  1  0
 17 18  1  0
 18 19  1  0
 19 20  1  0
 20 21  1  0
 21 22  1  0
 20 23  1  0
 23 24  1  0
 23 25  1  0
 25 26  2  0
 25 27  1  0
 27 28  2  0
 28 29  1  0
 29 30  2  0
 30 31  1  0
 31 32  2  0
 30 33  1  0
 33 34  2  0
 33 35  1  0
 28 36  1  0
 36 37  1  0
 36 38  1  0
 36 39  1  0
  6  2  1  0
 16  7  1  0
 16 11  1  0
 22 17  1  0
 32 27  1  0
M  CHG  2  33   1  35  -1
M  END
$$$$
