
     RDKit          3D

 39 43  0  0  0  0  0  0  0  0999 V2000
   -2.8770    7.8846   21.0830 C   0  0  0  0  0  0  0  0  0  0  0  0
   -1.9496    6.8071   21.4172 N   0  0  0  0  0  0  0  0  0  0  0  0
   -1.3371    6.0251   20.4910 C   0  0  0  0  0  0  0  0  0  0  0  0
   -0.5416    5.1233   21.1294 C   0  0  0  0  0  0  0  0  0  0  0  0
   -0.6872    5.3788   22.4942 C   0  0  0  0  0  0  0  0  0  0  0  0
   -1.5477    6.4030   22.5867 N   0  0  0  0  0  0  0  0  0  0  0  0
   -1.5476    6.1654   19.0677 C   0  0  0  0  0  0  0  0  0  0  0  0
   -1.4569    7.4075   18.5634 N   0  0  0  0  0  0  0  0  0  0  0  0
   -1.6339    7.6374   17.2859 N   0  0  0  0  0  0  0  0  0  0  0  0
   -1.9132    6.5957   16.4667 C   0  0  0  0  0  0  0  0  0  0  0  0
   -2.0207    5.3087   16.9172 C   0  0  0  0  0  0  0  0  0  0  0  0
   -2.3225    4.2634   16.0788 C   0  0  0  0  0  0  0  0  0  0  0  0
   -2.4341    3.0042   16.5853 C   0  0  0  0  0  0  0  0  0  0  0  0
   -2.2504    2.7598   17.9238 C   0  0  0  0  0  0  0  0  0  0  0  0
   -1.9462    3.7975   18.7867 C   0  0  0  0  0  0  0  0  0  0  0  0
   -1.8290    5.0789   18.2861 C   0  0  0  0  0  0  0  0  0  0  0  0
   -2.0673    6.9186   15.0746 N   0  0  0  0  0  0  0  0  0  0  0  0
   -2.1831    8.2643   14.6233 C   0  0  0  0  0  0  0  0  0  0  0  0
   -1.4318    8.5347   13.3699 C   0  0  0  0  0  0  0  0  0  0  0  0
   -1.3492    7.3821   12.4050 C   0  0  0  0  0  0  0  0  0  0  0  0
   -1.0227    6.0793   13.0964 C   0  0  0  0  0  0  0  0  0  0  0  0
   -2.1178    5.8404   14.1102 C   0  0  0  0  0  0  0  0  0  0  0  0
   -0.3890    7.7138   11.3826 N   0  0  0  0  0  0  0  0  0  0  0  0
    1.0358    7.6831   11.6595 C   0  0  0  0  0  0  0  0  0  0  0  0
   -0.8421    8.0528   10.0878 C   0  0  0  0  0  0  0  0  0  0  0  0
    0.0124    8.3837    9.2246 O   0  0  0  0  0  0  0  0  0  0  0  0
   -2.2650    8.0064    9.8090 C   0  0  0  0  0  0  0  0  0  0  0  0
   -2.9881    9.1693    9.6518 C   0  0  0  0  0  0  0  0  0  0  0  0
   -4.3606    9.1140    9.3705 C   0  0  0  0  0  0  0  0  0  0  0  0
   -5.0285    7.9169    9.2430 C   0  0  0  0  0  0  0  0  0  0  0  0
   -4.2925    6.7628    9.4033 C   0  0  0  0  0  0  0  0  0  0  0  0
   -2.9331    6.7936    9.6818 C   0  0  0  0  0  0  0  0  0  0  0  0
   -6.4242    7.8745    8.9569 N   0  0  0  0  0  4  0  0  0  0  0  0
   -7.0106    8.9388    8.6899 O   0  0  0  0  0  0  0  0  0  0  0  0
   -7.1416    6.7254    8.9628 O   0  0  0  0  0  1  0  0  0  0  0  0
   -2.3036   10.4678    9.7951 C   0  0  0  0  0  0  0  0  0  0  0  0
   -1.3965   10.7636    8.8318 F   0  0  0  0  0  0  0  0  0  0  0  0
   -1.6638   10.5798   11.0232 F   0  0  0  0  0  0  0  0  0  0  0  0
   -3.2575   11.4946    9.7857 F   0  0  0  0  0  0  0  0  0  0  0  0
  1  2  1  0
  2  3  1  0
  3  4  2  0
  4  5  1  0
  5  6  2  0
  3  7  1  0
  7  8  2  0
  8  9  1  0
  9 10  2  0
 10 11  1  0
 11 12  2  0
 12 13  1  0
 13 14  2  0
 14 15  1  0
 15 16  2  0
 10 17  1  0
 17 18  1  0
 18 19  1  0
 19 20  1  0
 20 21  1  0
 21 22  1  0
 20 23  1  0
 23 24  1  0
 23 25  1  0
 25 26  2  0
 25 27  1  0
 27 28  2  0
 28 29  1  0
 29 30  2  0
 30 31  1  0
 31 32  2  0
 30 33  1  0
 33 34  2  0
 33 35  1  0
 28 36  1  0
 36 37  1  0
 36 38  1  0
 36 39  1  0
  6  2  1  0
 16  7  1  0
 16 11  1  0
 22 17  1  0
 32 27  1  0
M  CHG  2  33   1  35  -1
M  END
$$$$
