
     RDKit          3D

 39 43  0  0  0  0  0  0  0  0999 V2000
   -4.2830    7.0393   21.2480 C   0  0  0  0  0  0  0  0  0  0  0  0
   -2.9612    6.5439   21.6231 N   0  0  0  0  0  0  0  0  0  0  0  0
   -2.0006    6.2042   20.7250 C   0  0  0  0  0  0  0  0  0  0  0  0
   -0.8943    5.7841   21.3981 C   0  0  0  0  0  0  0  0  0  0  0  0
   -1.2098    5.8768   22.7549 C   0  0  0  0  0  0  0  0  0  0  0  0
   -2.4668    6.3405   22.8091 N   0  0  0  0  0  0  0  0  0  0  0  0
   -2.1869    6.2831   19.2937 C   0  0  0  0  0  0  0  0  0  0  0  0
   -2.6158    7.4587   18.8043 N   0  0  0  0  0  0  0  0  0  0  0  0
   -2.8168    7.6285   17.5210 N   0  0  0  0  0  0  0  0  0  0  0  0
   -2.5848    6.5923   16.6802 C   0  0  0  0  0  0  0  0  0  0  0  0
   -2.1495    5.3706   17.1146 C   0  0  0  0  0  0  0  0  0  0  0  0
   -1.9354    4.3222   16.2534 C   0  0  0  0  0  0  0  0  0  0  0  0
   -1.5182    3.1222   16.7437 C   0  0  0  0  0  0  0  0  0  0  0  0
   -1.3076    2.9403   18.0882 C   0  0  0  0  0  0  0  0  0  0  0  0
   -1.5174    3.9822   18.9738 C   0  0  0  0  0  0  0  0  0  0  0  0
   -1.9393    5.2045   18.4899 C   0  0  0  0  0  0  0  0  0  0  0  0
   -2.8001    6.8594   15.2844 N   0  0  0  0  0  0  0  0  0  0  0  0
   -3.9174    7.6144   14.8269 C   0  0  0  0  0  0  0  0  0  0  0  0
   -3.5847    8.5556   13.7260 C   0  0  0  0  0  0  0  0  0  0  0  0
   -2.5052    8.0924   12.7844 C   0  0  0  0  0  0  0  0  0  0  0  0
   -1.3255    7.4960   13.5154 C   0  0  0  0  0  0  0  0  0  0  0  0
   -1.8574    6.3328   14.3204 C   0  0  0  0  0  0  0  0  0  0  0  0
   -2.1252    9.2029   11.9478 N   0  0  0  0  0  0  0  0  0  0  0  0
   -2.3998   10.5697   12.3528 C   0  0  0  0  0  0  0  0  0  0  0  0
   -1.4574    8.9564   10.7271 C   0  0  0  0  0  0  0  0  0  0  0  0
   -1.2460    9.9288    9.9561 O   0  0  0  0  0  0  0  0  0  0  0  0
   -1.0464    7.6006   10.4148 C   0  0  0  0  0  0  0  0  0  0  0  0
   -1.8404    6.7883    9.6339 C   0  0  0  0  0  0  0  0  0  0  0  0
   -1.4288    5.4835    9.3274 C   0  0  0  0  0  0  0  0  0  0  0  0
   -0.2364    4.9710    9.7868 C   0  0  0  0  0  0  0  0  0  0  0  0
    0.5464    5.7946   10.5667 C   0  0  0  0  0  0  0  0  0  0  0  0
    0.1592    7.0895   10.8825 C   0  0  0  0  0  0  0  0  0  0  0  0
    0.1704    3.6427    9.4680 N   0  0  0  0  0  4  0  0  0  0  0  0
    1.2460    3.2214    9.9301 O   0  0  0  0  0  0  0  0  0  0  0  0
   -0.5631    2.8173    8.6832 O   0  0  0  0  0  1  0  0  0  0  0  0
   -3.1296    7.3042    9.1371 C   0  0  0  0  0  0  0  0  0  0  0  0
   -3.8582    6.4415    8.3868 F   0  0  0  0  0  0  0  0  0  0  0  0
   -2.9677    8.4699    8.3987 F   0  0  0  0  0  0  0  0  0  0  0  0
   -3.9296    7.6716   10.2278 F   0  0  0  0  0  0  0  0  0  0  0  0
  1  2  1  0
  2  3  1  0
  3  4  2  0
  4  5  1  0
  5  6  2  0
  3  7  1  0
  7  8  2  0
  8  9  1  0
  9 10  2  0
 10 11  1  0
 11 12  2  0
 12 13  1  0
 13 14  2  0
 14 15  1  0
 15 16  2  0
 10 17  1  0
 17 18  1  0
 18 19  1  0
 19 20  1  0
 20 21  1  0
 21 22  1  0
 20 23  1  0
 23 24  1  0
 23 25  1  0
 25 26  2  0
 25 27  1  0
 27 28  2  0
 28 29  1  0
 29 30  2  0
 30 31  1  0
 31 32  2  0
 30 33  1  0
 33 34  2  0
 33 35  1  0
 28 36  1  0
 36 37  1  0
 36 38  1  0
 36 39  1  0
  6  2  1  0
 16  7  1  0
 16 11  1  0
 22 17  1  0
 32 27  1  0
M  CHG  2  33   1  35  -1
M  END
$$$$
