
     RDKit          3D

 39 43  0  0  0  0  0  0  0  0999 V2000
    0.7323    5.6891   21.9253 C   0  0  0  0  0  0  0  0  0  0  0  0
   -0.3794    4.8068   22.2699 N   0  0  0  0  0  0  0  0  0  0  0  0
   -1.4140    4.5355   21.4330 C   0  0  0  0  0  0  0  0  0  0  0  0
   -2.2745    3.6831   22.0548 C   0  0  0  0  0  0  0  0  0  0  0  0
   -1.7293    3.4370   23.3163 C   0  0  0  0  0  0  0  0  0  0  0  0
   -0.5927    4.1464   23.3703 N   0  0  0  0  0  0  0  0  0  0  0  0
   -1.5357    5.1034   20.1092 C   0  0  0  0  0  0  0  0  0  0  0  0
   -0.7086    4.6207   19.1666 N   0  0  0  0  0  0  0  0  0  0  0  0
   -0.7406    5.0728   17.9375 N   0  0  0  0  0  0  0  0  0  0  0  0
   -1.6284    6.0456   17.6217 C   0  0  0  0  0  0  0  0  0  0  0  0
   -2.4956    6.5802   18.5344 C   0  0  0  0  0  0  0  0  0  0  0  0
   -3.3788    7.5794   18.2056 C   0  0  0  0  0  0  0  0  0  0  0  0
   -4.2078    8.0865   19.1596 C   0  0  0  0  0  0  0  0  0  0  0  0
   -4.1762    7.6159   20.4490 C   0  0  0  0  0  0  0  0  0  0  0  0
   -3.2944    6.6102   20.8026 C   0  0  0  0  0  0  0  0  0  0  0  0
   -2.4492    6.0864   19.8449 C   0  0  0  0  0  0  0  0  0  0  0  0
   -1.6259    6.4730   16.2493 N   0  0  0  0  0  0  0  0  0  0  0  0
   -2.5975    7.3828   15.7434 C   0  0  0  0  0  0  0  0  0  0  0  0
   -2.0340    8.3901   14.8074 C   0  0  0  0  0  0  0  0  0  0  0  0
   -0.8822    7.9139   13.9629 C   0  0  0  0  0  0  0  0  0  0  0  0
    0.1279    7.1270   14.7643 C   0  0  0  0  0  0  0  0  0  0  0  0
   -0.6118    5.9506   15.3584 C   0  0  0  0  0  0  0  0  0  0  0  0
   -0.2929    9.0573   13.3126 N   0  0  0  0  0  0  0  0  0  0  0  0
    0.1210   10.2193   14.0780 C   0  0  0  0  0  0  0  0  0  0  0  0
   -0.0970    9.0361   11.9133 C   0  0  0  0  0  0  0  0  0  0  0  0
    0.3870   10.0599   11.3633 O   0  0  0  0  0  0  0  0  0  0  0  0
   -0.4602    7.8425   11.1731 C   0  0  0  0  0  0  0  0  0  0  0  0
   -1.7035    7.7299   10.5886 C   0  0  0  0  0  0  0  0  0  0  0  0
   -2.0410    6.5774    9.8648 C   0  0  0  0  0  0  0  0  0  0  0  0
   -1.1594    5.5310    9.7125 C   0  0  0  0  0  0  0  0  0  0  0  0
    0.0795    5.6578   10.3028 C   0  0  0  0  0  0  0  0  0  0  0  0
    0.4352    6.7894   11.0235 C   0  0  0  0  0  0  0  0  0  0  0  0
   -1.5149    4.3648    8.9741 N   0  0  0  0  0  4  0  0  0  0  0  0
   -2.6161    4.3380    8.3957 O   0  0  0  0  0  0  0  0  0  0  0  0
   -0.7060    3.2827    8.8740 O   0  0  0  0  0  1  0  0  0  0  0  0
   -2.6748    8.8287   10.7447 C   0  0  0  0  0  0  0  0  0  0  0  0
   -2.1793    9.9833   11.2540 F   0  0  0  0  0  0  0  0  0  0  0  0
   -3.7560    8.4523   11.5318 F   0  0  0  0  0  0  0  0  0  0  0  0
   -3.2248    9.1382    9.4933 F   0  0  0  0  0  0  0  0  0  0  0  0
  1  2  1  0
  2  3  1  0
  3  4  2  0
  4  5  1  0
  5  6  2  0
  3  7  1  0
  7  8  2  0
  8  9  1  0
  9 10  2  0
 10 11  1  0
 11 12  2  0
 12 13  1  0
 13 14  2  0
 14 15  1  0
 15 16  2  0
 10 17  1  0
 17 18  1  0
 18 19  1  0
 19 20  1  0
 20 21  1  0
 21 22  1  0
 20 23  1  0
 23 24  1  0
 23 25  1  0
 25 26  2  0
 25 27  1  0
 27 28  2  0
 28 29  1  0
 29 30  2  0
 30 31  1  0
 31 32  2  0
 30 33  1  0
 33 34  2  0
 33 35  1  0
 28 36  1  0
 36 37  1  0
 36 38  1  0
 36 39  1  0
  6  2  1  0
 16  7  1  0
 16 11  1  0
 22 17  1  0
 32 27  1  0
M  CHG  2  33   1  35  -1
M  END
$$$$
