
     RDKit          3D

 39 43  0  0  0  0  0  0  0  0999 V2000
   -0.7684    8.1428   21.3777 C   0  0  0  0  0  0  0  0  0  0  0  0
   -1.6008    7.0892   21.9524 N   0  0  0  0  0  0  0  0  0  0  0  0
   -2.3713    6.2497   21.2133 C   0  0  0  0  0  0  0  0  0  0  0  0
   -3.0166    5.3903   22.0492 C   0  0  0  0  0  0  0  0  0  0  0  0
   -2.6137    5.7332   23.3411 C   0  0  0  0  0  0  0  0  0  0  0  0
   -1.7643    6.7611   23.2006 N   0  0  0  0  0  0  0  0  0  0  0  0
   -2.4628    6.3162   19.7722 C   0  0  0  0  0  0  0  0  0  0  0  0
   -2.7677    7.5122   19.2410 N   0  0  0  0  0  0  0  0  0  0  0  0
   -2.8759    7.6732   17.9454 N   0  0  0  0  0  0  0  0  0  0  0  0
   -2.6744    6.6069   17.1350 C   0  0  0  0  0  0  0  0  0  0  0  0
   -2.3632    5.3635   17.6123 C   0  0  0  0  0  0  0  0  0  0  0  0
   -2.1792    4.2860   16.7806 C   0  0  0  0  0  0  0  0  0  0  0  0
   -1.8878    3.0667   17.3123 C   0  0  0  0  0  0  0  0  0  0  0  0
   -1.7748    2.8939   18.6697 C   0  0  0  0  0  0  0  0  0  0  0  0
   -1.9565    3.9651   19.5262 C   0  0  0  0  0  0  0  0  0  0  0  0
   -2.2513    5.2071   19.0003 C   0  0  0  0  0  0  0  0  0  0  0  0
   -2.7822    6.8640   15.7249 N   0  0  0  0  0  0  0  0  0  0  0  0
   -3.8035    7.6991   15.1888 C   0  0  0  0  0  0  0  0  0  0  0  0
   -3.3281    8.5887   14.0974 C   0  0  0  0  0  0  0  0  0  0  0  0
   -2.2359    8.0207   13.2308 C   0  0  0  0  0  0  0  0  0  0  0  0
   -1.1559    7.3439   14.0415 C   0  0  0  0  0  0  0  0  0  0  0  0
   -1.8300    6.2437   14.8285 C   0  0  0  0  0  0  0  0  0  0  0  0
   -1.7154    9.0802   12.4038 N   0  0  0  0  0  0  0  0  0  0  0  0
   -1.2279   10.3146   12.9922 C   0  0  0  0  0  0  0  0  0  0  0  0
   -1.6603    8.9045   11.0027 C   0  0  0  0  0  0  0  0  0  0  0  0
   -1.1273    9.8094   10.3087 O   0  0  0  0  0  0  0  0  0  0  0  0
   -2.2178    7.6958   10.4258 C   0  0  0  0  0  0  0  0  0  0  0  0
   -1.4069    6.6222   10.1258 C   0  0  0  0  0  0  0  0  0  0  0  0
   -1.9568    5.4537    9.5797 C   0  0  0  0  0  0  0  0  0  0  0  0
   -3.3047    5.3349    9.3257 C   0  0  0  0  0  0  0  0  0  0  0  0
   -4.1026    6.4165    9.6305 C   0  0  0  0  0  0  0  0  0  0  0  0
   -3.5801    7.5829   10.1717 C   0  0  0  0  0  0  0  0  0  0  0  0
   -3.8511    4.1414    8.7703 N   0  0  0  0  0  4  0  0  0  0  0  0
   -5.0780    4.0833    8.5721 O   0  0  0  0  0  0  0  0  0  0  0  0
   -3.0930    3.0660    8.4480 O   0  0  0  0  0  1  0  0  0  0  0  0
    0.0432    6.7234   10.3745 C   0  0  0  0  0  0  0  0  0  0  0  0
    0.7133    7.6064    9.5938 F   0  0  0  0  0  0  0  0  0  0  0  0
    0.6739    5.4915   10.2521 F   0  0  0  0  0  0  0  0  0  0  0  0
    0.2563    7.1117   11.7043 F   0  0  0  0  0  0  0  0  0  0  0  0
  1  2  1  0
  2  3  1  0
  3  4  2  0
  4  5  1  0
  5  6  2  0
  3  7  1  0
  7  8  2  0
  8  9  1  0
  9 10  2  0
 10 11  1  0
 11 12  2  0
 12 13  1  0
 13 14  2  0
 14 15  1  0
 15 16  2  0
 10 17  1  0
 17 18  1  0
 18 19  1  0
 19 20  1  0
 20 21  1  0
 21 22  1  0
 20 23  1  0
 23 24  1  0
 23 25  1  0
 25 26  2  0
 25 27  1  0
 27 28  2  0
 28 29  1  0
 29 30  2  0
 30 31  1  0
 31 32  2  0
 30 33  1  0
 33 34  2  0
 33 35  1  0
 28 36  1  0
 36 37  1  0
 36 38  1  0
 36 39  1  0
  6  2  1  0
 16  7  1  0
 16 11  1  0
 22 17  1  0
 32 27  1  0
M  CHG  2  33   1  35  -1
M  END
$$$$
