
     RDKit          3D

 39 43  0  0  0  0  0  0  0  0999 V2000
   -9.0570    9.9906   12.6975 C   0  0  0  0  0  0  0  0  0  0  0  0
   -9.3606    8.9996   11.6685 N   0  0  0  0  0  0  0  0  0  0  0  0
   -8.5180    7.9934   11.3190 C   0  0  0  0  0  0  0  0  0  0  0  0
   -9.0986    7.2514   10.3361 C   0  0  0  0  0  0  0  0  0  0  0  0
  -10.3395    7.8415   10.0893 C   0  0  0  0  0  0  0  0  0  0  0  0
  -10.4239    8.8844   10.9279 N   0  0  0  0  0  0  0  0  0  0  0  0
   -7.2175    7.8006   11.9199 C   0  0  0  0  0  0  0  0  0  0  0  0
   -7.1545    7.8745   13.2601 N   0  0  0  0  0  0  0  0  0  0  0  0
   -6.0210    7.7161   13.8974 N   0  0  0  0  0  0  0  0  0  0  0  0
   -4.8970    7.4736   13.1818 C   0  0  0  0  0  0  0  0  0  0  0  0
   -4.8933    7.3881   11.8167 C   0  0  0  0  0  0  0  0  0  0  0  0
   -3.7431    7.1598   11.1015 C   0  0  0  0  0  0  0  0  0  0  0  0
   -3.7956    7.1016    9.7420 C   0  0  0  0  0  0  0  0  0  0  0  0
   -4.9816    7.2682    9.0707 C   0  0  0  0  0  0  0  0  0  0  0  0
   -6.1523    7.4997    9.7706 C   0  0  0  0  0  0  0  0  0  0  0  0
   -6.1133    7.5600   11.1494 C   0  0  0  0  0  0  0  0  0  0  0  0
   -3.6963    7.2832   13.9487 N   0  0  0  0  0  0  0  0  0  0  0  0
   -3.6219    7.6307   15.3277 C   0  0  0  0  0  0  0  0  0  0  0  0
   -2.8724    6.6431   16.1471 C   0  0  0  0  0  0  0  0  0  0  0  0
   -1.7350    5.9512   15.4441 C   0  0  0  0  0  0  0  0  0  0  0  0
   -2.1132    5.4967   14.0541 C   0  0  0  0  0  0  0  0  0  0  0  0
   -2.5294    6.7336   13.2919 C   0  0  0  0  0  0  0  0  0  0  0  0
   -1.2856    4.8606   16.2724 N   0  0  0  0  0  0  0  0  0  0  0  0
   -2.0393    3.6221   16.3482 C   0  0  0  0  0  0  0  0  0  0  0  0
   -0.0836    4.9930   17.0035 C   0  0  0  0  0  0  0  0  0  0  0  0
    0.1351    4.1844   17.9432 O   0  0  0  0  0  0  0  0  0  0  0  0
    0.8427    6.0498   16.6431 C   0  0  0  0  0  0  0  0  0  0  0  0
    0.9499    7.1843   17.4186 C   0  0  0  0  0  0  0  0  0  0  0  0
    1.8568    8.1949   17.0688 C   0  0  0  0  0  0  0  0  0  0  0  0
    2.6615    8.0956   15.9562 C   0  0  0  0  0  0  0  0  0  0  0  0
    2.5428    6.9559   15.1904 C   0  0  0  0  0  0  0  0  0  0  0  0
    1.6522    5.9429   15.5177 C   0  0  0  0  0  0  0  0  0  0  0  0
    3.5794    9.1301   15.6116 N   0  0  0  0  0  4  0  0  0  0  0  0
    4.2937    8.9822   14.6037 O   0  0  0  0  0  0  0  0  0  0  0  0
    3.7089   10.2690   16.3337 O   0  0  0  0  0  1  0  0  0  0  0  0
    0.0921    7.3259   18.6099 C   0  0  0  0  0  0  0  0  0  0  0  0
   -0.1716    8.5983   18.9966 F   0  0  0  0  0  0  0  0  0  0  0  0
    0.6186    6.6543   19.7063 F   0  0  0  0  0  0  0  0  0  0  0  0
   -1.1429    6.7106   18.3638 F   0  0  0  0  0  0  0  0  0  0  0  0
  1  2  1  0
  2  3  1  0
  3  4  2  0
  4  5  1  0
  5  6  2  0
  3  7  1  0
  7  8  2  0
  8  9  1  0
  9 10  2  0
 10 11  1  0
 11 12  2  0
 12 13  1  0
 13 14  2  0
 14 15  1  0
 15 16  2  0
 10 17  1  0
 17 18  1  0
 18 19  1  0
 19 20  1  0
 20 21  1  0
 21 22  1  0
 20 23  1  0
 23 24  1  0
 23 25  1  0
 25 26  2  0
 25 27  1  0
 27 28  2  0
 28 29  1  0
 29 30  2  0
 30 31  1  0
 31 32  2  0
 30 33  1  0
 33 34  2  0
 33 35  1  0
 28 36  1  0
 36 37  1  0
 36 38  1  0
 36 39  1  0
  6  2  1  0
 16  7  1  0
 16 11  1  0
 22 17  1  0
 32 27  1  0
M  CHG  2  33   1  35  -1
M  END
$$$$
