
     RDKit          3D

 39 43  0  0  0  0  0  0  0  0999 V2000
   -0.6931    7.6111   21.5641 C   0  0  0  0  0  0  0  0  0  0  0  0
   -1.7259    6.6634   21.9743 N   0  0  0  0  0  0  0  0  0  0  0  0
   -2.5456    6.0183   21.1044 C   0  0  0  0  0  0  0  0  0  0  0  0
   -3.3883    5.2114   21.8060 C   0  0  0  0  0  0  0  0  0  0  0  0
   -3.0568    5.3839   23.1512 C   0  0  0  0  0  0  0  0  0  0  0  0
   -2.0506    6.2700   23.1711 N   0  0  0  0  0  0  0  0  0  0  0  0
   -2.4944    6.2103   19.6726 C   0  0  0  0  0  0  0  0  0  0  0  0
   -2.5288    7.4792   19.2318 N   0  0  0  0  0  0  0  0  0  0  0  0
   -2.4898    7.7558   17.9519 N   0  0  0  0  0  0  0  0  0  0  0  0
   -2.4133    6.7355   17.0646 C   0  0  0  0  0  0  0  0  0  0  0  0
   -2.3766    5.4231   17.4480 C   0  0  0  0  0  0  0  0  0  0  0  0
   -2.3174    4.3966   16.5371 C   0  0  0  0  0  0  0  0  0  0  0  0
   -2.3005    3.1074   16.9753 C   0  0  0  0  0  0  0  0  0  0  0  0
   -2.3425    2.8138   18.3159 C   0  0  0  0  0  0  0  0  0  0  0  0
   -2.4028    3.8316   19.2509 C   0  0  0  0  0  0  0  0  0  0  0  0
   -2.4193    5.1433   18.8203 C   0  0  0  0  0  0  0  0  0  0  0  0
   -2.3463    7.1148   15.6798 N   0  0  0  0  0  0  0  0  0  0  0  0
   -2.4882    8.4692   15.2634 C   0  0  0  0  0  0  0  0  0  0  0  0
   -1.5529    8.8546   14.1748 C   0  0  0  0  0  0  0  0  0  0  0  0
   -1.2108    7.7599   13.1995 C   0  0  0  0  0  0  0  0  0  0  0  0
   -0.9076    6.4516   13.8911 C   0  0  0  0  0  0  0  0  0  0  0  0
   -2.1408    6.0846   14.6840 C   0  0  0  0  0  0  0  0  0  0  0  0
   -0.1158    8.2101   12.3775 N   0  0  0  0  0  0  0  0  0  0  0  0
    1.2136    8.3823   12.9351 C   0  0  0  0  0  0  0  0  0  0  0  0
   -0.3368    8.4666   11.0056 C   0  0  0  0  0  0  0  0  0  0  0  0
    0.6468    8.8040   10.2960 O   0  0  0  0  0  0  0  0  0  0  0  0
   -1.6803    8.3318   10.4753 C   0  0  0  0  0  0  0  0  0  0  0  0
   -2.1031    7.1393    9.9282 C   0  0  0  0  0  0  0  0  0  0  0  0
   -3.4075    7.0152    9.4292 C   0  0  0  0  0  0  0  0  0  0  0  0
   -4.3017    8.0613    9.4650 C   0  0  0  0  0  0  0  0  0  0  0  0
   -3.8646    9.2473   10.0145 C   0  0  0  0  0  0  0  0  0  0  0  0
   -2.5781    9.3928   10.5146 C   0  0  0  0  0  0  0  0  0  0  0  0
   -5.6251    7.9220    8.9543 N   0  0  0  0  0  4  0  0  0  0  0  0
   -6.4022    8.8899    9.0399 O   0  0  0  0  0  0  0  0  0  0  0  0
   -6.0751    6.7811    8.3790 O   0  0  0  0  0  1  0  0  0  0  0  0
   -1.1642    6.0038    9.8638 C   0  0  0  0  0  0  0  0  0  0  0  0
   -0.7089    5.5491   11.0572 F   0  0  0  0  0  0  0  0  0  0  0  0
   -0.0580    6.2943    9.0752 F   0  0  0  0  0  0  0  0  0  0  0  0
   -1.7914    4.9232    9.2286 F   0  0  0  0  0  0  0  0  0  0  0  0
  1  2  1  0
  2  3  1  0
  3  4  2  0
  4  5  1  0
  5  6  2  0
  3  7  1  0
  7  8  2  0
  8  9  1  0
  9 10  2  0
 10 11  1  0
 11 12  2  0
 12 13  1  0
 13 14  2  0
 14 15  1  0
 15 16  2  0
 10 17  1  0
 17 18  1  0
 18 19  1  0
 19 20  1  0
 20 21  1  0
 21 22  1  0
 20 23  1  0
 23 24  1  0
 23 25  1  0
 25 26  2  0
 25 27  1  0
 27 28  2  0
 28 29  1  0
 29 30  2  0
 30 31  1  0
 31 32  2  0
 30 33  1  0
 33 34  2  0
 33 35  1  0
 28 36  1  0
 36 37  1  0
 36 38  1  0
 36 39  1  0
  6  2  1  0
 16  7  1  0
 16 11  1  0
 22 17  1  0
 32 27  1  0
M  CHG  2  33   1  35  -1
M  END
$$$$
