
     RDKit          3D

 39 43  0  0  0  0  0  0  0  0999 V2000
   -1.2830    2.3870   21.2395 C   0  0  0  0  0  0  0  0  0  0  0  0
   -1.7795    3.4438   22.1168 N   0  0  0  0  0  0  0  0  0  0  0  0
   -2.1514    4.6745   21.6789 C   0  0  0  0  0  0  0  0  0  0  0  0
   -2.5641    5.4168   22.7429 C   0  0  0  0  0  0  0  0  0  0  0  0
   -2.4317    4.5931   23.8624 C   0  0  0  0  0  0  0  0  0  0  0  0
   -1.9555    3.4258   23.4057 N   0  0  0  0  0  0  0  0  0  0  0  0
   -2.0831    5.0792   20.2928 C   0  0  0  0  0  0  0  0  0  0  0  0
   -2.0285    4.0960   19.3785 N   0  0  0  0  0  0  0  0  0  0  0  0
   -1.9622    4.3615   18.0974 N   0  0  0  0  0  0  0  0  0  0  0  0
   -1.9490    5.6555   17.6978 C   0  0  0  0  0  0  0  0  0  0  0  0
   -2.0004    6.7018   18.5773 C   0  0  0  0  0  0  0  0  0  0  0  0
   -1.9680    8.0100   18.1600 C   0  0  0  0  0  0  0  0  0  0  0  0
   -2.0046    9.0121   19.0814 C   0  0  0  0  0  0  0  0  0  0  0  0
   -2.0730    8.7375   20.4249 C   0  0  0  0  0  0  0  0  0  0  0  0
   -2.1063    7.4273   20.8678 C   0  0  0  0  0  0  0  0  0  0  0  0
   -2.0709    6.4017   19.9442 C   0  0  0  0  0  0  0  0  0  0  0  0
   -1.9030    5.8709   16.2774 N   0  0  0  0  0  0  0  0  0  0  0  0
   -1.9651    7.1766   15.7125 C   0  0  0  0  0  0  0  0  0  0  0  0
   -1.0430    7.3684   14.5630 C   0  0  0  0  0  0  0  0  0  0  0  0
   -0.8107    6.1491   13.7110 C   0  0  0  0  0  0  0  0  0  0  0  0
   -0.5753    4.9084   14.5397 C   0  0  0  0  0  0  0  0  0  0  0  0
   -1.8032    4.7232   15.4011 C   0  0  0  0  0  0  0  0  0  0  0  0
    0.2842    6.4236   12.8147 N   0  0  0  0  0  0  0  0  0  0  0  0
    1.6515    6.1124   13.1905 C   0  0  0  0  0  0  0  0  0  0  0  0
    0.0187    6.9837   11.5448 C   0  0  0  0  0  0  0  0  0  0  0  0
    0.9250    6.9396   10.6722 O   0  0  0  0  0  0  0  0  0  0  0  0
   -1.2796    7.5834   11.3013 C   0  0  0  0  0  0  0  0  0  0  0  0
   -2.2406    6.9085   10.5794 C   0  0  0  0  0  0  0  0  0  0  0  0
   -3.4967    7.4915   10.3596 C   0  0  0  0  0  0  0  0  0  0  0  0
   -3.8140    8.7393   10.8471 C   0  0  0  0  0  0  0  0  0  0  0  0
   -2.8430    9.4020   11.5665 C   0  0  0  0  0  0  0  0  0  0  0  0
   -1.5930    8.8443   11.7966 C   0  0  0  0  0  0  0  0  0  0  0  0
   -5.0947    9.3207   10.6166 N   0  0  0  0  0  4  0  0  0  0  0  0
   -5.3378   10.4398   11.1027 O   0  0  0  0  0  0  0  0  0  0  0  0
   -6.0606    8.7080    9.8907 O   0  0  0  0  0  1  0  0  0  0  0  0
   -1.9266    5.5752   10.0330 C   0  0  0  0  0  0  0  0  0  0  0  0
   -0.8263    5.5075    9.2437 F   0  0  0  0  0  0  0  0  0  0  0  0
   -2.9926    5.0494    9.3136 F   0  0  0  0  0  0  0  0  0  0  0  0
   -1.7241    4.6796   11.0920 F   0  0  0  0  0  0  0  0  0  0  0  0
  1  2  1  0
  2  3  1  0
  3  4  2  0
  4  5  1  0
  5  6  2  0
  3  7  1  0
  7  8  2  0
  8  9  1  0
  9 10  2  0
 10 11  1  0
 11 12  2  0
 12 13  1  0
 13 14  2  0
 14 15  1  0
 15 16  2  0
 10 17  1  0
 17 18  1  0
 18 19  1  0
 19 20  1  0
 20 21  1  0
 21 22  1  0
 20 23  1  0
 23 24  1  0
 23 25  1  0
 25 26  2  0
 25 27  1  0
 27 28  2  0
 28 29  1  0
 29 30  2  0
 30 31  1  0
 31 32  2  0
 30 33  1  0
 33 34  2  0
 33 35  1  0
 28 36  1  0
 36 37  1  0
 36 38  1  0
 36 39  1  0
  6  2  1  0
 16  7  1  0
 16 11  1  0
 22 17  1  0
 32 27  1  0
M  CHG  2  33   1  35  -1
M  END
$$$$
