
     RDKit          3D

 39 43  0  0  0  0  0  0  0  0999 V2000
   -1.2674    8.1326   19.2339 C   0  0  0  0  0  0  0  0  0  0  0  0
   -2.2257    7.0520   19.4511 N   0  0  0  0  0  0  0  0  0  0  0  0
   -2.7925    6.3338   18.4473 C   0  0  0  0  0  0  0  0  0  0  0  0
   -3.6336    5.4085   18.9856 C   0  0  0  0  0  0  0  0  0  0  0  0
   -3.5653    5.5836   20.3690 C   0  0  0  0  0  0  0  0  0  0  0  0
   -2.6998    6.5878   20.5701 N   0  0  0  0  0  0  0  0  0  0  0  0
   -2.5187    6.5705   17.0478 C   0  0  0  0  0  0  0  0  0  0  0  0
   -2.5606    7.8476   16.6318 N   0  0  0  0  0  0  0  0  0  0  0  0
   -2.3292    8.1635   15.3817 N   0  0  0  0  0  0  0  0  0  0  0  0
   -2.0433    7.1761   14.5000 C   0  0  0  0  0  0  0  0  0  0  0  0
   -1.9869    5.8574   14.8589 C   0  0  0  0  0  0  0  0  0  0  0  0
   -1.7138    4.8635   13.9510 C   0  0  0  0  0  0  0  0  0  0  0  0
   -1.6875    3.5653   14.3611 C   0  0  0  0  0  0  0  0  0  0  0  0
   -1.9307    3.2303   15.6703 C   0  0  0  0  0  0  0  0  0  0  0  0
   -2.2084    4.2149   16.6016 C   0  0  0  0  0  0  0  0  0  0  0  0
   -2.2370    5.5353   16.1995 C   0  0  0  0  0  0  0  0  0  0  0  0
   -1.7736    7.5992   13.1530 N   0  0  0  0  0  0  0  0  0  0  0  0
   -1.2126    6.7172   12.1860 C   0  0  0  0  0  0  0  0  0  0  0  0
   -1.8161    6.8590   10.8353 C   0  0  0  0  0  0  0  0  0  0  0  0
   -2.2641    8.2493   10.4709 C   0  0  0  0  0  0  0  0  0  0  0  0
   -3.0127    8.9228   11.5969 C   0  0  0  0  0  0  0  0  0  0  0  0
   -2.0714    8.9653   12.7786 C   0  0  0  0  0  0  0  0  0  0  0  0
   -3.0473    8.1720    9.2634 N   0  0  0  0  0  0  0  0  0  0  0  0
   -4.4950    8.2721    9.3058 C   0  0  0  0  0  0  0  0  0  0  0  0
   -2.3935    8.0178    8.0202 C   0  0  0  0  0  0  0  0  0  0  0  0
   -3.0963    7.9914    6.9760 O   0  0  0  0  0  0  0  0  0  0  0  0
   -0.9481    7.8962    7.9991 C   0  0  0  0  0  0  0  0  0  0  0  0
   -0.1527    9.0060    7.8098 C   0  0  0  0  0  0  0  0  0  0  0  0
    1.2437    8.8803    7.8031 C   0  0  0  0  0  0  0  0  0  0  0  0
    1.8647    7.6646    7.9817 C   0  0  0  0  0  0  0  0  0  0  0  0
    1.0565    6.5641    8.1692 C   0  0  0  0  0  0  0  0  0  0  0  0
   -0.3278    6.6650    8.1798 C   0  0  0  0  0  0  0  0  0  0  0  0
    3.2853    7.5504    7.9727 N   0  0  0  0  0  4  0  0  0  0  0  0
    3.7942    6.4268    8.1353 O   0  0  0  0  0  0  0  0  0  0  0  0
    4.1074    8.6124    7.7947 O   0  0  0  0  0  1  0  0  0  0  0  0
   -0.7884   10.3206    7.6030 C   0  0  0  0  0  0  0  0  0  0  0  0
    0.0336   11.3939    7.7061 F   0  0  0  0  0  0  0  0  0  0  0  0
   -1.8521   10.5210    8.4740 F   0  0  0  0  0  0  0  0  0  0  0  0
   -1.3538   10.3621    6.3212 F   0  0  0  0  0  0  0  0  0  0  0  0
  1  2  1  0
  2  3  1  0
  3  4  2  0
  4  5  1  0
  5  6  2  0
  3  7  1  0
  7  8  2  0
  8  9  1  0
  9 10  2  0
 10 11  1  0
 11 12  2  0
 12 13  1  0
 13 14  2  0
 14 15  1  0
 15 16  2  0
 10 17  1  0
 17 18  1  0
 18 19  1  0
 19 20  1  0
 20 21  1  0
 21 22  1  0
 20 23  1  0
 23 24  1  0
 23 25  1  0
 25 26  2  0
 25 27  1  0
 27 28  2  0
 28 29  1  0
 29 30  2  0
 30 31  1  0
 31 32  2  0
 30 33  1  0
 33 34  2  0
 33 35  1  0
 28 36  1  0
 36 37  1  0
 36 38  1  0
 36 39  1  0
  6  2  1  0
 16  7  1  0
 16 11  1  0
 22 17  1  0
 32 27  1  0
M  CHG  2  33   1  35  -1
M  END
$$$$
