
     RDKit          3D

 39 43  0  0  0  0  0  0  0  0999 V2000
   -0.8119    7.3482   20.7895 C   0  0  0  0  0  0  0  0  0  0  0  0
   -0.5857    5.9081   20.8794 N   0  0  0  0  0  0  0  0  0  0  0  0
   -0.5869    5.0763   19.8057 C   0  0  0  0  0  0  0  0  0  0  0  0
   -0.3461    3.8054   20.2303 C   0  0  0  0  0  0  0  0  0  0  0  0
   -0.1959    3.8836   21.6161 C   0  0  0  0  0  0  0  0  0  0  0  0
   -0.3531    5.1776   21.9304 N   0  0  0  0  0  0  0  0  0  0  0  0
   -0.8268    5.5251   18.4527 C   0  0  0  0  0  0  0  0  0  0  0  0
   -0.0873    6.5601   18.0196 N   0  0  0  0  0  0  0  0  0  0  0  0
   -0.2328    7.0406   16.8096 N   0  0  0  0  0  0  0  0  0  0  0  0
   -1.1491    6.4757   15.9876 C   0  0  0  0  0  0  0  0  0  0  0  0
   -1.9338    5.4219   16.3679 C   0  0  0  0  0  0  0  0  0  0  0  0
   -2.8724    4.8698   15.5307 C   0  0  0  0  0  0  0  0  0  0  0  0
   -3.6383    3.8324   15.9685 C   0  0  0  0  0  0  0  0  0  0  0  0
   -3.4894    3.3270   17.2363 C   0  0  0  0  0  0  0  0  0  0  0  0
   -2.5507    3.8680   18.0966 C   0  0  0  0  0  0  0  0  0  0  0  0
   -1.7667    4.9193   17.6651 C   0  0  0  0  0  0  0  0  0  0  0  0
   -1.2342    7.0365   14.6669 N   0  0  0  0  0  0  0  0  0  0  0  0
   -1.3351    6.2165   13.5070 C   0  0  0  0  0  0  0  0  0  0  0  0
   -2.2846    6.7419   12.4917 C   0  0  0  0  0  0  0  0  0  0  0  0
   -2.3767    8.2423   12.4090 C   0  0  0  0  0  0  0  0  0  0  0  0
   -2.4532    8.8869   13.7731 C   0  0  0  0  0  0  0  0  0  0  0  0
   -1.2038    8.4758   14.5173 C   0  0  0  0  0  0  0  0  0  0  0  0
   -3.5052    8.5828   11.5796 N   0  0  0  0  0  0  0  0  0  0  0  0
   -4.8156    8.8123   12.1608 C   0  0  0  0  0  0  0  0  0  0  0  0
   -3.3268    8.7152   10.1841 C   0  0  0  0  0  0  0  0  0  0  0  0
   -4.3434    8.9162    9.4693 O   0  0  0  0  0  0  0  0  0  0  0  0
   -1.9873    8.6139    9.6364 C   0  0  0  0  0  0  0  0  0  0  0  0
   -1.5254    7.4192    9.1269 C   0  0  0  0  0  0  0  0  0  0  0  0
   -0.2335    7.3342    8.5886 C   0  0  0  0  0  0  0  0  0  0  0  0
    0.6100    8.4216    8.5489 C   0  0  0  0  0  0  0  0  0  0  0  0
    0.1345    9.6089    9.0623 C   0  0  0  0  0  0  0  0  0  0  0  0
   -1.1406    9.7162    9.5998 C   0  0  0  0  0  0  0  0  0  0  0  0
    1.9211    8.3218    7.9989 N   0  0  0  0  0  4  0  0  0  0  0  0
    2.2368    7.2808    7.3951 O   0  0  0  0  0  0  0  0  0  0  0  0
    2.8402    9.3114    8.1046 O   0  0  0  0  0  1  0  0  0  0  0  0
   -2.4008    6.2330    9.1667 C   0  0  0  0  0  0  0  0  0  0  0  0
   -1.8509    5.0809    8.7100 F   0  0  0  0  0  0  0  0  0  0  0  0
   -3.5823    6.4412    8.4661 F   0  0  0  0  0  0  0  0  0  0  0  0
   -2.7981    5.9982   10.4902 F   0  0  0  0  0  0  0  0  0  0  0  0
  1  2  1  0
  2  3  1  0
  3  4  2  0
  4  5  1  0
  5  6  2  0
  3  7  1  0
  7  8  2  0
  8  9  1  0
  9 10  2  0
 10 11  1  0
 11 12  2  0
 12 13  1  0
 13 14  2  0
 14 15  1  0
 15 16  2  0
 10 17  1  0
 17 18  1  0
 18 19  1  0
 19 20  1  0
 20 21  1  0
 21 22  1  0
 20 23  1  0
 23 24  1  0
 23 25  1  0
 25 26  2  0
 25 27  1  0
 27 28  2  0
 28 29  1  0
 29 30  2  0
 30 31  1  0
 31 32  2  0
 30 33  1  0
 33 34  2  0
 33 35  1  0
 28 36  1  0
 36 37  1  0
 36 38  1  0
 36 39  1  0
  6  2  1  0
 16  7  1  0
 16 11  1  0
 22 17  1  0
 32 27  1  0
M  CHG  2  33   1  35  -1
M  END
$$$$
