
     RDKit          3D

 39 43  0  0  0  0  0  0  0  0999 V2000
   -3.1843    4.0812   22.2112 C   0  0  0  0  0  0  0  0  0  0  0  0
   -1.8221    4.3681   22.6530 N   0  0  0  0  0  0  0  0  0  0  0  0
   -0.8843    4.9603   21.8691 C   0  0  0  0  0  0  0  0  0  0  0  0
    0.2715    5.0833   22.5781 C   0  0  0  0  0  0  0  0  0  0  0  0
    0.0109    4.5405   23.8377 C   0  0  0  0  0  0  0  0  0  0  0  0
   -1.2661    4.1328   23.8053 N   0  0  0  0  0  0  0  0  0  0  0  0
   -1.1286    5.3604   20.5017 C   0  0  0  0  0  0  0  0  0  0  0  0
   -0.5861    4.5925   19.5417 N   0  0  0  0  0  0  0  0  0  0  0  0
   -0.7489    4.8740   18.2727 N   0  0  0  0  0  0  0  0  0  0  0  0
   -1.4798    5.9625   17.9330 C   0  0  0  0  0  0  0  0  0  0  0  0
   -2.0566    6.7851   18.8611 C   0  0  0  0  0  0  0  0  0  0  0  0
   -2.7804    7.8964   18.5038 C   0  0  0  0  0  0  0  0  0  0  0  0
   -3.3180    8.6899   19.4711 C   0  0  0  0  0  0  0  0  0  0  0  0
   -3.1486    8.3985   20.8021 C   0  0  0  0  0  0  0  0  0  0  0  0
   -2.4229    7.2845   21.1850 C   0  0  0  0  0  0  0  0  0  0  0  0
   -1.8734    6.4710   20.2143 C   0  0  0  0  0  0  0  0  0  0  0  0
   -1.6391    6.1937   16.5233 N   0  0  0  0  0  0  0  0  0  0  0  0
   -1.0863    7.3387   15.8820 C   0  0  0  0  0  0  0  0  0  0  0  0
   -0.4979    7.0440   14.5495 C   0  0  0  0  0  0  0  0  0  0  0  0
   -1.1817    5.9539   13.7682 C   0  0  0  0  0  0  0  0  0  0  0  0
   -1.5009    4.7507   14.6239 C   0  0  0  0  0  0  0  0  0  0  0  0
   -2.3943    5.2382   15.7411 C   0  0  0  0  0  0  0  0  0  0  0  0
   -0.3526    5.6166   12.6385 N   0  0  0  0  0  0  0  0  0  0  0  0
    0.6746    4.5963   12.7456 C   0  0  0  0  0  0  0  0  0  0  0  0
   -0.5583    6.2744   11.4049 C   0  0  0  0  0  0  0  0  0  0  0  0
    0.2819    6.0935   10.4851 O   0  0  0  0  0  0  0  0  0  0  0  0
   -1.7222    7.1266   11.2510 C   0  0  0  0  0  0  0  0  0  0  0  0
   -1.5776    8.4746   11.0015 C   0  0  0  0  0  0  0  0  0  0  0  0
   -2.7086    9.2878   10.8422 C   0  0  0  0  0  0  0  0  0  0  0  0
   -3.9858    8.7810   10.9276 C   0  0  0  0  0  0  0  0  0  0  0  0
   -4.1145    7.4319   11.1779 C   0  0  0  0  0  0  0  0  0  0  0  0
   -3.0093    6.6079   11.3388 C   0  0  0  0  0  0  0  0  0  0  0  0
   -5.1273    9.6187   10.7637 N   0  0  0  0  0  4  0  0  0  0  0  0
   -6.2579    9.1227   10.9176 O   0  0  0  0  0  0  0  0  0  0  0  0
   -5.0359   10.9327   10.4472 O   0  0  0  0  0  1  0  0  0  0  0  0
   -0.2223    9.0498   10.9170 C   0  0  0  0  0  0  0  0  0  0  0  0
    0.5831    8.8159   11.9823 F   0  0  0  0  0  0  0  0  0  0  0  0
   -0.2578   10.4233   10.7108 F   0  0  0  0  0  0  0  0  0  0  0  0
    0.4297    8.5287    9.7910 F   0  0  0  0  0  0  0  0  0  0  0  0
  1  2  1  0
  2  3  1  0
  3  4  2  0
  4  5  1  0
  5  6  2  0
  3  7  1  0
  7  8  2  0
  8  9  1  0
  9 10  2  0
 10 11  1  0
 11 12  2  0
 12 13  1  0
 13 14  2  0
 14 15  1  0
 15 16  2  0
 10 17  1  0
 17 18  1  0
 18 19  1  0
 19 20  1  0
 20 21  1  0
 21 22  1  0
 20 23  1  0
 23 24  1  0
 23 25  1  0
 25 26  2  0
 25 27  1  0
 27 28  2  0
 28 29  1  0
 29 30  2  0
 30 31  1  0
 31 32  2  0
 30 33  1  0
 33 34  2  0
 33 35  1  0
 28 36  1  0
 36 37  1  0
 36 38  1  0
 36 39  1  0
  6  2  1  0
 16  7  1  0
 16 11  1  0
 22 17  1  0
 32 27  1  0
M  CHG  2  33   1  35  -1
M  END
$$$$
