
     RDKit          3D

 39 43  0  0  0  0  0  0  0  0999 V2000
   -3.4655    3.8797   21.1923 C   0  0  0  0  0  0  0  0  0  0  0  0
   -2.0563    3.5570   21.3995 N   0  0  0  0  0  0  0  0  0  0  0  0
   -1.0655    3.9234   20.5459 C   0  0  0  0  0  0  0  0  0  0  0  0
    0.1242    3.4694   21.0278 C   0  0  0  0  0  0  0  0  0  0  0  0
   -0.1709    2.8036   22.2189 C   0  0  0  0  0  0  0  0  0  0  0  0
   -1.4993    2.8994   22.3741 N   0  0  0  0  0  0  0  0  0  0  0  0
   -1.3000    4.6641   19.3268 C   0  0  0  0  0  0  0  0  0  0  0  0
   -1.1312    3.9967   18.1728 N   0  0  0  0  0  0  0  0  0  0  0  0
   -1.3176    4.5816   17.0155 N   0  0  0  0  0  0  0  0  0  0  0  0
   -1.6874    5.8843   16.9934 C   0  0  0  0  0  0  0  0  0  0  0  0
   -1.8739    6.6197   18.1315 C   0  0  0  0  0  0  0  0  0  0  0  0
   -2.2313    7.9454   18.0951 C   0  0  0  0  0  0  0  0  0  0  0  0
   -2.3865    8.6334   19.2599 C   0  0  0  0  0  0  0  0  0  0  0  0
   -2.1909    8.0240   20.4746 C   0  0  0  0  0  0  0  0  0  0  0  0
   -1.8302    6.6898   20.5351 C   0  0  0  0  0  0  0  0  0  0  0  0
   -1.6705    5.9802   19.3616 C   0  0  0  0  0  0  0  0  0  0  0  0
   -1.9006    6.4518   15.6901 N   0  0  0  0  0  0  0  0  0  0  0  0
   -1.3383    5.8728   14.5168 C   0  0  0  0  0  0  0  0  0  0  0  0
   -2.2628    5.8780   13.3532 C   0  0  0  0  0  0  0  0  0  0  0  0
   -3.2053    7.0497   13.2823 C   0  0  0  0  0  0  0  0  0  0  0  0
   -3.8344    7.3597   14.6202 C   0  0  0  0  0  0  0  0  0  0  0  0
   -2.7002    7.6528   15.5750 C   0  0  0  0  0  0  0  0  0  0  0  0
   -4.1898    6.7795   12.2649 N   0  0  0  0  0  0  0  0  0  0  0  0
   -5.5595    6.4547   12.6202 C   0  0  0  0  0  0  0  0  0  0  0  0
   -3.8197    6.8528   10.9032 C   0  0  0  0  0  0  0  0  0  0  0  0
   -4.6267    6.4159   10.0414 O   0  0  0  0  0  0  0  0  0  0  0  0
   -2.5321    7.4247   10.5570 C   0  0  0  0  0  0  0  0  0  0  0  0
   -1.5300    6.6345   10.0360 C   0  0  0  0  0  0  0  0  0  0  0  0
   -0.2930    7.1987    9.6932 C   0  0  0  0  0  0  0  0  0  0  0  0
   -0.0350    8.5406    9.8610 C   0  0  0  0  0  0  0  0  0  0  0  0
   -1.0463    9.3177   10.3833 C   0  0  0  0  0  0  0  0  0  0  0  0
   -2.2785    8.7809   10.7294 C   0  0  0  0  0  0  0  0  0  0  0  0
    1.2269    9.1016    9.5085 N   0  0  0  0  0  4  0  0  0  0  0  0
    2.0914    8.3587    9.0099 O   0  0  0  0  0  0  0  0  0  0  0  0
    1.5274   10.4097    9.6923 O   0  0  0  0  0  1  0  0  0  0  0  0
   -1.7714    5.1907    9.8563 C   0  0  0  0  0  0  0  0  0  0  0  0
   -1.9122    4.4717   10.9971 F   0  0  0  0  0  0  0  0  0  0  0  0
   -0.7700    4.5911    9.1027 F   0  0  0  0  0  0  0  0  0  0  0  0
   -2.9456    5.0093    9.1128 F   0  0  0  0  0  0  0  0  0  0  0  0
  1  2  1  0
  2  3  1  0
  3  4  2  0
  4  5  1  0
  5  6  2  0
  3  7  1  0
  7  8  2  0
  8  9  1  0
  9 10  2  0
 10 11  1  0
 11 12  2  0
 12 13  1  0
 13 14  2  0
 14 15  1  0
 15 16  2  0
 10 17  1  0
 17 18  1  0
 18 19  1  0
 19 20  1  0
 20 21  1  0
 21 22  1  0
 20 23  1  0
 23 24  1  0
 23 25  1  0
 25 26  2  0
 25 27  1  0
 27 28  2  0
 28 29  1  0
 29 30  2  0
 30 31  1  0
 31 32  2  0
 30 33  1  0
 33 34  2  0
 33 35  1  0
 28 36  1  0
 36 37  1  0
 36 38  1  0
 36 39  1  0
  6  2  1  0
 16  7  1  0
 16 11  1  0
 22 17  1  0
 32 27  1  0
M  CHG  2  33   1  35  -1
M  END
$$$$
