
     RDKit          3D

 39 43  0  0  0  0  0  0  0  0999 V2000
   -3.5894    5.4479   21.3662 C   0  0  0  0  0  0  0  0  0  0  0  0
   -2.4765    6.3690   21.5811 N   0  0  0  0  0  0  0  0  0  0  0  0
   -1.7679    6.9431   20.5746 C   0  0  0  0  0  0  0  0  0  0  0  0
   -0.8062    7.7436   21.1112 C   0  0  0  0  0  0  0  0  0  0  0  0
   -0.9477    7.6412   22.4964 C   0  0  0  0  0  0  0  0  0  0  0  0
   -1.9707    6.7986   22.7001 N   0  0  0  0  0  0  0  0  0  0  0  0
   -2.0299    6.6937   19.1751 C   0  0  0  0  0  0  0  0  0  0  0  0
   -2.3917    7.7521   18.4304 N   0  0  0  0  0  0  0  0  0  0  0  0
   -2.6525    7.6273   17.1527 N   0  0  0  0  0  0  0  0  0  0  0  0
   -2.5526    6.4033   16.5815 C   0  0  0  0  0  0  0  0  0  0  0  0
   -2.1912    5.2866   17.2838 C   0  0  0  0  0  0  0  0  0  0  0  0
   -2.1112    4.0476   16.6965 C   0  0  0  0  0  0  0  0  0  0  0  0
   -1.7629    2.9670   17.4484 C   0  0  0  0  0  0  0  0  0  0  0  0
   -1.4900    3.0938   18.7880 C   0  0  0  0  0  0  0  0  0  0  0  0
   -1.5647    4.3320   19.4005 C   0  0  0  0  0  0  0  0  0  0  0  0
   -1.9156    5.4361   18.6495 C   0  0  0  0  0  0  0  0  0  0  0  0
   -2.8264    6.3470   15.1716 N   0  0  0  0  0  0  0  0  0  0  0  0
   -4.1137    6.0039   14.6688 C   0  0  0  0  0  0  0  0  0  0  0  0
   -4.5294    6.8214   13.4994 C   0  0  0  0  0  0  0  0  0  0  0  0
   -3.4143    7.2556   12.5859 C   0  0  0  0  0  0  0  0  0  0  0  0
   -2.2152    7.7665   13.3494 C   0  0  0  0  0  0  0  0  0  0  0  0
   -1.7558    6.6364   14.2414 C   0  0  0  0  0  0  0  0  0  0  0  0
   -3.9358    8.2364   11.6674 N   0  0  0  0  0  0  0  0  0  0  0  0
   -5.1741    8.9393   11.9508 C   0  0  0  0  0  0  0  0  0  0  0  0
   -3.2195    8.5314   10.4856 C   0  0  0  0  0  0  0  0  0  0  0  0
   -3.5642    9.5397    9.8153 O   0  0  0  0  0  0  0  0  0  0  0  0
   -2.1234    7.6646   10.0960 C   0  0  0  0  0  0  0  0  0  0  0  0
   -0.8176    8.0268   10.3487 C   0  0  0  0  0  0  0  0  0  0  0  0
    0.2344    7.1767    9.9791 C   0  0  0  0  0  0  0  0  0  0  0  0
    0.0086    5.9681    9.3598 C   0  0  0  0  0  0  0  0  0  0  0  0
   -1.3019    5.6198    9.1133 C   0  0  0  0  0  0  0  0  0  0  0  0
   -2.3590    6.4453    9.4705 C   0  0  0  0  0  0  0  0  0  0  0  0
    1.0870    5.1131    8.9892 N   0  0  0  0  0  4  0  0  0  0  0  0
    0.8253    4.0213    8.4531 O   0  0  0  0  0  0  0  0  0  0  0  0
    2.3863    5.4367    9.1950 O   0  0  0  0  0  1  0  0  0  0  0  0
   -0.5426    9.3214   10.9994 C   0  0  0  0  0  0  0  0  0  0  0  0
   -0.9695   10.4192   10.3282 F   0  0  0  0  0  0  0  0  0  0  0  0
    0.8117    9.4890   11.2605 F   0  0  0  0  0  0  0  0  0  0  0  0
   -1.1621    9.3457   12.2564 F   0  0  0  0  0  0  0  0  0  0  0  0
  1  2  1  0
  2  3  1  0
  3  4  2  0
  4  5  1  0
  5  6  2  0
  3  7  1  0
  7  8  2  0
  8  9  1  0
  9 10  2  0
 10 11  1  0
 11 12  2  0
 12 13  1  0
 13 14  2  0
 14 15  1  0
 15 16  2  0
 10 17  1  0
 17 18  1  0
 18 19  1  0
 19 20  1  0
 20 21  1  0
 21 22  1  0
 20 23  1  0
 23 24  1  0
 23 25  1  0
 25 26  2  0
 25 27  1  0
 27 28  2  0
 28 29  1  0
 29 30  2  0
 30 31  1  0
 31 32  2  0
 30 33  1  0
 33 34  2  0
 33 35  1  0
 28 36  1  0
 36 37  1  0
 36 38  1  0
 36 39  1  0
  6  2  1  0
 16  7  1  0
 16 11  1  0
 22 17  1  0
 32 27  1  0
M  CHG  2  33   1  35  -1
M  END
$$$$
