
     RDKit          3D

 39 43  0  0  0  0  0  0  0  0999 V2000
    1.2112    7.1928   21.6637 C   0  0  0  0  0  0  0  0  0  0  0  0
   -0.1287    7.5145   22.1478 N   0  0  0  0  0  0  0  0  0  0  0  0
   -1.2126    7.6399   21.3390 C   0  0  0  0  0  0  0  0  0  0  0  0
   -2.3002    7.9418   22.1003 C   0  0  0  0  0  0  0  0  0  0  0  0
   -1.8443    7.9994   23.4186 C   0  0  0  0  0  0  0  0  0  0  0  0
   -0.5315    7.7317   23.3656 N   0  0  0  0  0  0  0  0  0  0  0  0
   -1.1557    7.4816   19.9033 C   0  0  0  0  0  0  0  0  0  0  0  0
   -0.2818    8.2607   19.2439 N   0  0  0  0  0  0  0  0  0  0  0  0
   -0.1582    8.1928   17.9415 N   0  0  0  0  0  0  0  0  0  0  0  0
   -0.9312    7.3169   17.2563 C   0  0  0  0  0  0  0  0  0  0  0  0
   -1.8404    6.4977   17.8671 C   0  0  0  0  0  0  0  0  0  0  0  0
   -2.6314    5.6265   17.1587 C   0  0  0  0  0  0  0  0  0  0  0  0
   -3.5323    4.8466   17.8178 C   0  0  0  0  0  0  0  0  0  0  0  0
   -3.6654    4.9159   19.1826 C   0  0  0  0  0  0  0  0  0  0  0  0
   -2.8794    5.7865   19.9162 C   0  0  0  0  0  0  0  0  0  0  0  0
   -1.9611    6.5822   19.2606 C   0  0  0  0  0  0  0  0  0  0  0  0
   -0.7220    7.2774   15.8348 N   0  0  0  0  0  0  0  0  0  0  0  0
   -1.7303    6.8208   14.9388 C   0  0  0  0  0  0  0  0  0  0  0  0
   -1.8261    7.6282   13.6948 C   0  0  0  0  0  0  0  0  0  0  0  0
   -0.5269    8.2024   13.1959 C   0  0  0  0  0  0  0  0  0  0  0  0
    0.2954    8.8086   14.3086 C   0  0  0  0  0  0  0  0  0  0  0  0
    0.5563    7.7037   15.3062 C   0  0  0  0  0  0  0  0  0  0  0  0
   -0.8215    9.1534   12.1536 N   0  0  0  0  0  0  0  0  0  0  0  0
   -0.6799   10.5798   12.3837 C   0  0  0  0  0  0  0  0  0  0  0  0
   -1.2332    8.6877   10.8846 C   0  0  0  0  0  0  0  0  0  0  0  0
   -1.6149    9.5336   10.0340 O   0  0  0  0  0  0  0  0  0  0  0  0
   -1.1998    7.2623   10.6167 C   0  0  0  0  0  0  0  0  0  0  0  0
   -2.3680    6.5346   10.5402 C   0  0  0  0  0  0  0  0  0  0  0  0
   -2.3261    5.1596   10.2688 C   0  0  0  0  0  0  0  0  0  0  0  0
   -1.1373    4.4938   10.0720 C   0  0  0  0  0  0  0  0  0  0  0  0
    0.0222    5.2345   10.1520 C   0  0  0  0  0  0  0  0  0  0  0  0
    0.0047    6.5963   10.4192 C   0  0  0  0  0  0  0  0  0  0  0  0
   -1.1084    3.0956    9.7968 N   0  0  0  0  0  4  0  0  0  0  0  0
   -2.1742    2.5229    9.5068 O   0  0  0  0  0  0  0  0  0  0  0  0
    0.0293    2.3614    9.8370 O   0  0  0  0  0  1  0  0  0  0  0  0
   -3.6570    7.2169   10.7591 C   0  0  0  0  0  0  0  0  0  0  0  0
   -3.7586    7.9265   11.9099 F   0  0  0  0  0  0  0  0  0  0  0  0
   -4.7238    6.3277   10.7184 F   0  0  0  0  0  0  0  0  0  0  0  0
   -3.8884    8.1126    9.7062 F   0  0  0  0  0  0  0  0  0  0  0  0
  1  2  1  0
  2  3  1  0
  3  4  2  0
  4  5  1  0
  5  6  2  0
  3  7  1  0
  7  8  2  0
  8  9  1  0
  9 10  2  0
 10 11  1  0
 11 12  2  0
 12 13  1  0
 13 14  2  0
 14 15  1  0
 15 16  2  0
 10 17  1  0
 17 18  1  0
 18 19  1  0
 19 20  1  0
 20 21  1  0
 21 22  1  0
 20 23  1  0
 23 24  1  0
 23 25  1  0
 25 26  2  0
 25 27  1  0
 27 28  2  0
 28 29  1  0
 29 30  2  0
 30 31  1  0
 31 32  2  0
 30 33  1  0
 33 34  2  0
 33 35  1  0
 28 36  1  0
 36 37  1  0
 36 38  1  0
 36 39  1  0
  6  2  1  0
 16  7  1  0
 16 11  1  0
 22 17  1  0
 32 27  1  0
M  CHG  2  33   1  35  -1
M  END
$$$$
