
     RDKit          3D

 39 43  0  0  0  0  0  0  0  0999 V2000
   -3.3654    5.5024   20.4235 C   0  0  0  0  0  0  0  0  0  0  0  0
   -2.1926    6.2181   20.9188 N   0  0  0  0  0  0  0  0  0  0  0  0
   -1.3241    6.8878   20.1176 C   0  0  0  0  0  0  0  0  0  0  0  0
   -0.3479    7.4414   20.8884 C   0  0  0  0  0  0  0  0  0  0  0  0
   -0.6475    7.0855   22.2048 C   0  0  0  0  0  0  0  0  0  0  0  0
   -1.7683    6.3522   22.1413 N   0  0  0  0  0  0  0  0  0  0  0  0
   -1.4585    6.9542   18.6799 C   0  0  0  0  0  0  0  0  0  0  0  0
   -1.2406    8.1503   18.1076 N   0  0  0  0  0  0  0  0  0  0  0  0
   -1.3405    8.3123   16.8114 N   0  0  0  0  0  0  0  0  0  0  0  0
   -1.6702    7.2470   16.0429 C   0  0  0  0  0  0  0  0  0  0  0  0
   -1.9062    6.0043   16.5633 C   0  0  0  0  0  0  0  0  0  0  0  0
   -2.2578    4.9361   15.7747 C   0  0  0  0  0  0  0  0  0  0  0  0
   -2.4979    3.7250   16.3491 C   0  0  0  0  0  0  0  0  0  0  0  0
   -2.3953    3.5517   17.7073 C   0  0  0  0  0  0  0  0  0  0  0  0
   -2.0431    4.6138   18.5208 C   0  0  0  0  0  0  0  0  0  0  0  0
   -1.7957    5.8469   17.9513 C   0  0  0  0  0  0  0  0  0  0  0  0
   -1.7343    7.4925   14.6281 N   0  0  0  0  0  0  0  0  0  0  0  0
   -1.4205    6.4823   13.6747 C   0  0  0  0  0  0  0  0  0  0  0  0
   -2.3321    6.4727   12.5012 C   0  0  0  0  0  0  0  0  0  0  0  0
   -2.8587    7.8191   12.0813 C   0  0  0  0  0  0  0  0  0  0  0  0
   -3.3157    8.6474   13.2590 C   0  0  0  0  0  0  0  0  0  0  0  0
   -2.1175    8.8095   14.1657 C   0  0  0  0  0  0  0  0  0  0  0  0
   -3.9096    7.6147   11.1163 N   0  0  0  0  0  0  0  0  0  0  0  0
   -5.2776    7.3798   11.5419 C   0  0  0  0  0  0  0  0  0  0  0  0
   -3.6057    7.6651    9.7372 C   0  0  0  0  0  0  0  0  0  0  0  0
   -4.4783    7.2719    8.9194 O   0  0  0  0  0  0  0  0  0  0  0  0
   -2.3079    8.1644    9.3236 C   0  0  0  0  0  0  0  0  0  0  0  0
   -1.3026    7.2930    8.9629 C   0  0  0  0  0  0  0  0  0  0  0  0
   -0.0554    7.7855    8.5530 C   0  0  0  0  0  0  0  0  0  0  0  0
    0.2097    9.1353    8.4960 C   0  0  0  0  0  0  0  0  0  0  0  0
   -0.8049    9.9941    8.8601 C   0  0  0  0  0  0  0  0  0  0  0  0
   -2.0471    9.5291    9.2688 C   0  0  0  0  0  0  0  0  0  0  0  0
    1.4818    9.6230    8.0775 N   0  0  0  0  0  4  0  0  0  0  0  0
    1.6839   10.8505    8.0915 O   0  0  0  0  0  0  0  0  0  0  0  0
    2.4823    8.8082    7.6646 O   0  0  0  0  0  1  0  0  0  0  0  0
   -1.5517    5.8407    9.0256 C   0  0  0  0  0  0  0  0  0  0  0  0
   -1.9886    5.3702   10.2197 F   0  0  0  0  0  0  0  0  0  0  0  0
   -0.4244    5.1092    8.6729 F   0  0  0  0  0  0  0  0  0  0  0  0
   -2.5213    5.4984    8.0732 F   0  0  0  0  0  0  0  0  0  0  0  0
  1  2  1  0
  2  3  1  0
  3  4  2  0
  4  5  1  0
  5  6  2  0
  3  7  1  0
  7  8  2  0
  8  9  1  0
  9 10  2  0
 10 11  1  0
 11 12  2  0
 12 13  1  0
 13 14  2  0
 14 15  1  0
 15 16  2  0
 10 17  1  0
 17 18  1  0
 18 19  1  0
 19 20  1  0
 20 21  1  0
 21 22  1  0
 20 23  1  0
 23 24  1  0
 23 25  1  0
 25 26  2  0
 25 27  1  0
 27 28  2  0
 28 29  1  0
 29 30  2  0
 30 31  1  0
 31 32  2  0
 30 33  1  0
 33 34  2  0
 33 35  1  0
 28 36  1  0
 36 37  1  0
 36 38  1  0
 36 39  1  0
  6  2  1  0
 16  7  1  0
 16 11  1  0
 22 17  1  0
 32 27  1  0
M  CHG  2  33   1  35  -1
M  END
$$$$
