
     RDKit          3D

 39 43  0  0  0  0  0  0  0  0999 V2000
   -3.6995    6.9764   20.9319 C   0  0  0  0  0  0  0  0  0  0  0  0
   -2.4200    6.3587   21.2702 N   0  0  0  0  0  0  0  0  0  0  0  0
   -1.4724    6.0362   20.3522 C   0  0  0  0  0  0  0  0  0  0  0  0
   -0.4068    5.4810   20.9924 C   0  0  0  0  0  0  0  0  0  0  0  0
   -0.7342    5.4719   22.3496 C   0  0  0  0  0  0  0  0  0  0  0  0
   -1.9572    6.0147   22.4364 N   0  0  0  0  0  0  0  0  0  0  0  0
   -1.6329    6.2573   18.9327 C   0  0  0  0  0  0  0  0  0  0  0  0
   -2.5380    5.4910   18.3007 N   0  0  0  0  0  0  0  0  0  0  0  0
   -2.7541    5.6146   17.0145 N   0  0  0  0  0  0  0  0  0  0  0  0
   -2.0461    6.5355   16.3181 C   0  0  0  0  0  0  0  0  0  0  0  0
   -1.1100    7.3446   16.9012 C   0  0  0  0  0  0  0  0  0  0  0  0
   -0.3856    8.2622   16.1802 C   0  0  0  0  0  0  0  0  0  0  0  0
    0.5462    9.0298   16.8101 C   0  0  0  0  0  0  0  0  0  0  0  0
    0.7762    8.9022   18.1577 C   0  0  0  0  0  0  0  0  0  0  0  0
    0.0586    7.9842   18.9035 C   0  0  0  0  0  0  0  0  0  0  0  0
   -0.8900    7.2004   18.2775 C   0  0  0  0  0  0  0  0  0  0  0  0
   -2.3556    6.6342   14.9179 N   0  0  0  0  0  0  0  0  0  0  0  0
   -3.6623    6.9644   14.4582 C   0  0  0  0  0  0  0  0  0  0  0  0
   -3.6642    7.8934   13.2982 C   0  0  0  0  0  0  0  0  0  0  0  0
   -2.5069    7.7416   12.3473 C   0  0  0  0  0  0  0  0  0  0  0  0
   -1.1880    7.5981   13.0696 C   0  0  0  0  0  0  0  0  0  0  0  0
   -1.3080    6.3775   13.9526 C   0  0  0  0  0  0  0  0  0  0  0  0
   -2.5144    8.8620   11.4407 N   0  0  0  0  0  0  0  0  0  0  0  0
   -3.1288   10.1223   11.8176 C   0  0  0  0  0  0  0  0  0  0  0  0
   -1.8963    8.7365   10.1762 C   0  0  0  0  0  0  0  0  0  0  0  0
   -1.8925    9.7371    9.4122 O   0  0  0  0  0  0  0  0  0  0  0  0
   -1.2958    7.4668    9.8129 C   0  0  0  0  0  0  0  0  0  0  0  0
   -2.0730    6.4336    9.3348 C   0  0  0  0  0  0  0  0  0  0  0  0
   -1.4818    5.2143    8.9749 C   0  0  0  0  0  0  0  0  0  0  0  0
   -0.1255    5.0044    9.0834 C   0  0  0  0  0  0  0  0  0  0  0  0
    0.6385    6.0463    9.5633 C   0  0  0  0  0  0  0  0  0  0  0  0
    0.0749    7.2619    9.9254 C   0  0  0  0  0  0  0  0  0  0  0  0
    0.4631    3.7599    8.7141 N   0  0  0  0  0  4  0  0  0  0  0  0
    1.6896    3.6131    8.8623 O   0  0  0  0  0  0  0  0  0  0  0  0
   -0.2546    2.7283    8.2081 O   0  0  0  0  0  1  0  0  0  0  0  0
   -3.5309    6.6233    9.2190 C   0  0  0  0  0  0  0  0  0  0  0  0
   -4.1489    7.1166   10.3204 F   0  0  0  0  0  0  0  0  0  0  0  0
   -4.1772    5.4449    8.8671 F   0  0  0  0  0  0  0  0  0  0  0  0
   -3.7976    7.5130    8.1693 F   0  0  0  0  0  0  0  0  0  0  0  0
  1  2  1  0
  2  3  1  0
  3  4  2  0
  4  5  1  0
  5  6  2  0
  3  7  1  0
  7  8  2  0
  8  9  1  0
  9 10  2  0
 10 11  1  0
 11 12  2  0
 12 13  1  0
 13 14  2  0
 14 15  1  0
 15 16  2  0
 10 17  1  0
 17 18  1  0
 18 19  1  0
 19 20  1  0
 20 21  1  0
 21 22  1  0
 20 23  1  0
 23 24  1  0
 23 25  1  0
 25 26  2  0
 25 27  1  0
 27 28  2  0
 28 29  1  0
 29 30  2  0
 30 31  1  0
 31 32  2  0
 30 33  1  0
 33 34  2  0
 33 35  1  0
 28 36  1  0
 36 37  1  0
 36 38  1  0
 36 39  1  0
  6  2  1  0
 16  7  1  0
 16 11  1  0
 22 17  1  0
 32 27  1  0
M  CHG  2  33   1  35  -1
M  END
$$$$
