
     RDKit          3D

 39 43  0  0  0  0  0  0  0  0999 V2000
   -1.0359    7.9877   20.8313 C   0  0  0  0  0  0  0  0  0  0  0  0
   -1.7975    6.9293   21.4890 N   0  0  0  0  0  0  0  0  0  0  0  0
   -2.5101    5.9861   20.8202 C   0  0  0  0  0  0  0  0  0  0  0  0
   -3.0982    5.1534   21.7225 C   0  0  0  0  0  0  0  0  0  0  0  0
   -2.7202    5.6210   22.9825 C   0  0  0  0  0  0  0  0  0  0  0  0
   -1.9403    6.6887   22.7595 N   0  0  0  0  0  0  0  0  0  0  0  0
   -2.6043    5.9348   19.3786 C   0  0  0  0  0  0  0  0  0  0  0  0
   -2.9651    7.0697   18.7562 N   0  0  0  0  0  0  0  0  0  0  0  0
   -3.0804    7.1232   17.4523 N   0  0  0  0  0  0  0  0  0  0  0  0
   -2.8287    6.0072   16.7275 C   0  0  0  0  0  0  0  0  0  0  0  0
   -2.4594    4.8211   17.2999 C   0  0  0  0  0  0  0  0  0  0  0  0
   -2.2246    3.6914   16.5547 C   0  0  0  0  0  0  0  0  0  0  0  0
   -1.8763    2.5327   17.1795 C   0  0  0  0  0  0  0  0  0  0  0  0
   -1.7556    2.4727   18.5458 C   0  0  0  0  0  0  0  0  0  0  0  0
   -1.9878    3.5981   19.3162 C   0  0  0  0  0  0  0  0  0  0  0  0
   -2.3406    4.7797   18.6954 C   0  0  0  0  0  0  0  0  0  0  0  0
   -2.9481    6.1473   15.3019 N   0  0  0  0  0  0  0  0  0  0  0  0
   -4.1832    5.9331   14.6262 C   0  0  0  0  0  0  0  0  0  0  0  0
   -4.4412    6.9141   13.5402 C   0  0  0  0  0  0  0  0  0  0  0  0
   -3.2192    7.4105   12.8144 C   0  0  0  0  0  0  0  0  0  0  0  0
   -2.0949    7.7611   13.7603 C   0  0  0  0  0  0  0  0  0  0  0  0
   -1.7732    6.5044   14.5357 C   0  0  0  0  0  0  0  0  0  0  0  0
   -3.6047    8.5256   11.9865 N   0  0  0  0  0  0  0  0  0  0  0  0
   -4.9692    9.0212   11.9910 C   0  0  0  0  0  0  0  0  0  0  0  0
   -2.6345    9.1570   11.1759 C   0  0  0  0  0  0  0  0  0  0  0  0
   -3.0264    9.9832   10.3108 O   0  0  0  0  0  0  0  0  0  0  0  0
   -1.2354    8.8281   11.3730 C   0  0  0  0  0  0  0  0  0  0  0  0
   -0.6031    7.9247   10.5458 C   0  0  0  0  0  0  0  0  0  0  0  0
    0.7527    7.6224   10.7367 C   0  0  0  0  0  0  0  0  0  0  0  0
    1.4927    8.2054   11.7406 C   0  0  0  0  0  0  0  0  0  0  0  0
    0.8468    9.1061   12.5598 C   0  0  0  0  0  0  0  0  0  0  0  0
   -0.4942    9.4206   12.3893 C   0  0  0  0  0  0  0  0  0  0  0  0
    2.8704    7.8893   11.9240 N   0  0  0  0  0  4  0  0  0  0  0  0
    3.4024    7.0715   11.1519 O   0  0  0  0  0  0  0  0  0  0  0  0
    3.6274    8.4405   12.9029 O   0  0  0  0  0  1  0  0  0  0  0  0
   -1.3723    7.2737    9.4690 C   0  0  0  0  0  0  0  0  0  0  0  0
   -2.5699    6.7534    9.8339 F   0  0  0  0  0  0  0  0  0  0  0  0
   -0.6442    6.2620    8.8553 F   0  0  0  0  0  0  0  0  0  0  0  0
   -1.6256    8.2074    8.4548 F   0  0  0  0  0  0  0  0  0  0  0  0
  1  2  1  0
  2  3  1  0
  3  4  2  0
  4  5  1  0
  5  6  2  0
  3  7  1  0
  7  8  2  0
  8  9  1  0
  9 10  2  0
 10 11  1  0
 11 12  2  0
 12 13  1  0
 13 14  2  0
 14 15  1  0
 15 16  2  0
 10 17  1  0
 17 18  1  0
 18 19  1  0
 19 20  1  0
 20 21  1  0
 21 22  1  0
 20 23  1  0
 23 24  1  0
 23 25  1  0
 25 26  2  0
 25 27  1  0
 27 28  2  0
 28 29  1  0
 29 30  2  0
 30 31  1  0
 31 32  2  0
 30 33  1  0
 33 34  2  0
 33 35  1  0
 28 36  1  0
 36 37  1  0
 36 38  1  0
 36 39  1  0
  6  2  1  0
 16  7  1  0
 16 11  1  0
 22 17  1  0
 32 27  1  0
M  CHG  2  33   1  35  -1
M  END
$$$$
