
     RDKit          3D

 39 43  0  0  0  0  0  0  0  0999 V2000
   -0.1391   10.9010    4.0674 C   0  0  0  0  0  0  0  0  0  0  0  0
   -0.9611   10.1161    3.1503 N   0  0  0  0  0  0  0  0  0  0  0  0
   -1.8547    9.1766    3.5546 C   0  0  0  0  0  0  0  0  0  0  0  0
   -2.4522    8.6334    2.4585 C   0  0  0  0  0  0  0  0  0  0  0  0
   -1.8899    9.2765    1.3542 C   0  0  0  0  0  0  0  0  0  0  0  0
   -1.0041   10.1522    1.8505 N   0  0  0  0  0  0  0  0  0  0  0  0
   -2.0808    8.8396    4.9420 C   0  0  0  0  0  0  0  0  0  0  0  0
   -0.9961    8.5338    5.6738 N   0  0  0  0  0  0  0  0  0  0  0  0
   -1.0982    8.2128    6.9398 N   0  0  0  0  0  0  0  0  0  0  0  0
   -2.3256    8.1918    7.5120 C   0  0  0  0  0  0  0  0  0  0  0  0
   -3.4683    8.4909    6.8224 C   0  0  0  0  0  0  0  0  0  0  0  0
   -4.7091    8.4482    7.4100 C   0  0  0  0  0  0  0  0  0  0  0  0
   -5.8150    8.7391    6.6704 C   0  0  0  0  0  0  0  0  0  0  0  0
   -5.7119    9.0748    5.3431 C   0  0  0  0  0  0  0  0  0  0  0  0
   -4.4723    9.1237    4.7307 C   0  0  0  0  0  0  0  0  0  0  0  0
   -3.3429    8.8321    5.4692 C   0  0  0  0  0  0  0  0  0  0  0  0
   -2.3582    7.8580    8.9097 N   0  0  0  0  0  0  0  0  0  0  0  0
   -1.1746    7.8152    9.7003 C   0  0  0  0  0  0  0  0  0  0  0  0
   -1.3509    8.3868   11.0607 C   0  0  0  0  0  0  0  0  0  0  0  0
   -2.7148    8.1973   11.6692 C   0  0  0  0  0  0  0  0  0  0  0  0
   -3.8250    8.4889   10.6872 C   0  0  0  0  0  0  0  0  0  0  0  0
   -3.6319    7.5457    9.5222 C   0  0  0  0  0  0  0  0  0  0  0  0
   -2.8021    9.0165   12.8519 N   0  0  0  0  0  0  0  0  0  0  0  0
   -3.1402   10.4253   12.7599 C   0  0  0  0  0  0  0  0  0  0  0  0
   -2.5758    8.4334   14.1190 C   0  0  0  0  0  0  0  0  0  0  0  0
   -2.5736    9.1845   15.1293 O   0  0  0  0  0  0  0  0  0  0  0  0
   -2.3560    7.0018   14.2022 C   0  0  0  0  0  0  0  0  0  0  0  0
   -1.2516    6.4254   13.6122 C   0  0  0  0  0  0  0  0  0  0  0  0
   -1.0415    5.0424   13.7085 C   0  0  0  0  0  0  0  0  0  0  0  0
   -1.9150    4.2201   14.3840 C   0  0  0  0  0  0  0  0  0  0  0  0
   -3.0146    4.8107   14.9683 C   0  0  0  0  0  0  0  0  0  0  0  0
   -3.2426    6.1773   14.8860 C   0  0  0  0  0  0  0  0  0  0  0  0
   -1.6897    2.8157   14.4744 N   0  0  0  0  0  4  0  0  0  0  0  0
   -2.5923    2.0957   14.9381 O   0  0  0  0  0  0  0  0  0  0  0  0
   -0.5351    2.2289   14.0775 O   0  0  0  0  0  1  0  0  0  0  0  0
   -0.3041    7.2781   12.8705 C   0  0  0  0  0  0  0  0  0  0  0  0
    0.8682    6.6915   12.5248 F   0  0  0  0  0  0  0  0  0  0  0  0
   -0.0022    8.4406   13.5688 F   0  0  0  0  0  0  0  0  0  0  0  0
   -0.9082    7.7126   11.6828 F   0  0  0  0  0  0  0  0  0  0  0  0
  1  2  1  0
  2  3  1  0
  3  4  2  0
  4  5  1  0
  5  6  2  0
  3  7  1  0
  7  8  2  0
  8  9  1  0
  9 10  2  0
 10 11  1  0
 11 12  2  0
 12 13  1  0
 13 14  2  0
 14 15  1  0
 15 16  2  0
 10 17  1  0
 17 18  1  0
 18 19  1  0
 19 20  1  0
 20 21  1  0
 21 22  1  0
 20 23  1  0
 23 24  1  0
 23 25  1  0
 25 26  2  0
 25 27  1  0
 27 28  2  0
 28 29  1  0
 29 30  2  0
 30 31  1  0
 31 32  2  0
 30 33  1  0
 33 34  2  0
 33 35  1  0
 28 36  1  0
 36 37  1  0
 36 38  1  0
 36 39  1  0
  6  2  1  0
 16  7  1  0
 16 11  1  0
 22 17  1  0
 32 27  1  0
M  CHG  2  33   1  35  -1
M  END
$$$$
