
     RDKit          3D

 39 43  0  0  0  0  0  0  0  0999 V2000
   -1.8216    6.6281   20.7817 C   0  0  0  0  0  0  0  0  0  0  0  0
   -1.6514    5.1791   20.8476 N   0  0  0  0  0  0  0  0  0  0  0  0
   -1.6606    4.3685   19.7579 C   0  0  0  0  0  0  0  0  0  0  0  0
   -1.4768    3.0815   20.1620 C   0  0  0  0  0  0  0  0  0  0  0  0
   -1.3536    3.1276   21.5519 C   0  0  0  0  0  0  0  0  0  0  0  0
   -1.4690    4.4203   21.8886 N   0  0  0  0  0  0  0  0  0  0  0  0
   -1.8545    4.8518   18.4093 C   0  0  0  0  0  0  0  0  0  0  0  0
   -2.8966    5.6756   18.2070 N   0  0  0  0  0  0  0  0  0  0  0  0
   -3.1566    6.1643   17.0196 N   0  0  0  0  0  0  0  0  0  0  0  0
   -2.3531    5.8261   15.9832 C   0  0  0  0  0  0  0  0  0  0  0  0
   -1.2782    4.9917   16.1222 C   0  0  0  0  0  0  0  0  0  0  0  0
   -0.4818    4.6419   15.0592 C   0  0  0  0  0  0  0  0  0  0  0  0
    0.5654    3.7932   15.2526 C   0  0  0  0  0  0  0  0  0  0  0  0
    0.8401    3.2781   16.4954 C   0  0  0  0  0  0  0  0  0  0  0  0
    0.0509    3.6164   17.5802 C   0  0  0  0  0  0  0  0  0  0  0  0
   -1.0133    4.4769   17.3982 C   0  0  0  0  0  0  0  0  0  0  0  0
   -2.6820    6.4213   14.7168 N   0  0  0  0  0  0  0  0  0  0  0  0
   -4.0302    6.6631   14.3273 C   0  0  0  0  0  0  0  0  0  0  0  0
   -4.2212    7.9627   13.6322 C   0  0  0  0  0  0  0  0  0  0  0  0
   -3.0609    8.4211   12.7896 C   0  0  0  0  0  0  0  0  0  0  0  0
   -1.7366    8.2434   13.4942 C   0  0  0  0  0  0  0  0  0  0  0  0
   -1.6085    6.7713   13.8112 C   0  0  0  0  0  0  0  0  0  0  0  0
   -3.2943    9.7895   12.4016 N   0  0  0  0  0  0  0  0  0  0  0  0
   -4.0242   10.6964   13.2690 C   0  0  0  0  0  0  0  0  0  0  0  0
   -2.7866   10.2583   11.1691 C   0  0  0  0  0  0  0  0  0  0  0  0
   -3.1296   11.4055   10.7803 O   0  0  0  0  0  0  0  0  0  0  0  0
   -1.8968    9.4026   10.4070 C   0  0  0  0  0  0  0  0  0  0  0  0
   -2.3790    8.6360    9.3679 C   0  0  0  0  0  0  0  0  0  0  0  0
   -1.5091    7.8213    8.6294 C   0  0  0  0  0  0  0  0  0  0  0  0
   -0.1625    7.7558    8.9085 C   0  0  0  0  0  0  0  0  0  0  0  0
    0.3048    8.5275    9.9503 C   0  0  0  0  0  0  0  0  0  0  0  0
   -0.5378    9.3413   10.6947 C   0  0  0  0  0  0  0  0  0  0  0  0
    0.7112    6.9234    8.1500 N   0  0  0  0  0  4  0  0  0  0  0  0
    0.2448    6.2931    7.1840 O   0  0  0  0  0  0  0  0  0  0  0  0
    2.0288    6.7879    8.4344 O   0  0  0  0  0  1  0  0  0  0  0  0
   -3.8192    8.6747    9.0525 C   0  0  0  0  0  0  0  0  0  0  0  0
   -4.1334    8.6407    7.7340 F   0  0  0  0  0  0  0  0  0  0  0  0
   -4.4370    9.7909    9.6028 F   0  0  0  0  0  0  0  0  0  0  0  0
   -4.4512    7.5760    9.6505 F   0  0  0  0  0  0  0  0  0  0  0  0
  1  2  1  0
  2  3  1  0
  3  4  2  0
  4  5  1  0
  5  6  2  0
  3  7  1  0
  7  8  2  0
  8  9  1  0
  9 10  2  0
 10 11  1  0
 11 12  2  0
 12 13  1  0
 13 14  2  0
 14 15  1  0
 15 16  2  0
 10 17  1  0
 17 18  1  0
 18 19  1  0
 19 20  1  0
 20 21  1  0
 21 22  1  0
 20 23  1  0
 23 24  1  0
 23 25  1  0
 25 26  2  0
 25 27  1  0
 27 28  2  0
 28 29  1  0
 29 30  2  0
 30 31  1  0
 31 32  2  0
 30 33  1  0
 33 34  2  0
 33 35  1  0
 28 36  1  0
 36 37  1  0
 36 38  1  0
 36 39  1  0
  6  2  1  0
 16  7  1  0
 16 11  1  0
 22 17  1  0
 32 27  1  0
M  CHG  2  33   1  35  -1
M  END
$$$$
