
     RDKit          3D

 39 43  0  0  0  0  0  0  0  0999 V2000
   -3.6323    7.7200    5.8713 C   0  0  0  0  0  0  0  0  0  0  0  0
   -2.3895    8.4290    5.5783 N   0  0  0  0  0  0  0  0  0  0  0  0
   -1.4165    8.6566    6.4981 C   0  0  0  0  0  0  0  0  0  0  0  0
   -0.3976    9.3377    5.9052 C   0  0  0  0  0  0  0  0  0  0  0  0
   -0.7806    9.5242    4.5756 C   0  0  0  0  0  0  0  0  0  0  0  0
   -1.9870    8.9512    4.4567 N   0  0  0  0  0  0  0  0  0  0  0  0
   -1.5110    8.2324    7.8768 C   0  0  0  0  0  0  0  0  0  0  0  0
   -2.6169    8.5980    8.5467 N   0  0  0  0  0  0  0  0  0  0  0  0
   -2.7938    8.2639    9.8010 N   0  0  0  0  0  0  0  0  0  0  0  0
   -1.8372    7.5359   10.4249 C   0  0  0  0  0  0  0  0  0  0  0  0
   -0.6886    7.1339    9.8003 C   0  0  0  0  0  0  0  0  0  0  0  0
    0.2823    6.4113   10.4496 C   0  0  0  0  0  0  0  0  0  0  0  0
    1.4142    6.0526    9.7828 C   0  0  0  0  0  0  0  0  0  0  0  0
    1.6035    6.4019    8.4686 C   0  0  0  0  0  0  0  0  0  0  0  0
    0.6390    7.1300    7.7950 C   0  0  0  0  0  0  0  0  0  0  0  0
   -0.5138    7.4992    8.4588 C   0  0  0  0  0  0  0  0  0  0  0  0
   -2.1114    7.1827   11.7909 N   0  0  0  0  0  0  0  0  0  0  0  0
   -1.0785    6.7835   12.6862 C   0  0  0  0  0  0  0  0  0  0  0  0
   -1.2344    7.3401   14.0553 C   0  0  0  0  0  0  0  0  0  0  0  0
   -2.6546    7.5249   14.5195 C   0  0  0  0  0  0  0  0  0  0  0  0
   -3.5278    8.1477   13.4557 C   0  0  0  0  0  0  0  0  0  0  0  0
   -3.4800    7.2242   12.2604 C   0  0  0  0  0  0  0  0  0  0  0  0
   -2.6377    8.2991   15.7351 N   0  0  0  0  0  0  0  0  0  0  0  0
   -2.8461    9.7356   15.7072 C   0  0  0  0  0  0  0  0  0  0  0  0
   -2.4365    7.6460   16.9719 C   0  0  0  0  0  0  0  0  0  0  0  0
   -2.3820    8.3483   18.0152 O   0  0  0  0  0  0  0  0  0  0  0  0
   -2.3012    6.2017   16.9875 C   0  0  0  0  0  0  0  0  0  0  0  0
   -1.0547    5.6131   16.9868 C   0  0  0  0  0  0  0  0  0  0  0  0
   -0.9341    4.2164   17.0143 C   0  0  0  0  0  0  0  0  0  0  0  0
   -2.0366    3.3923   17.0421 C   0  0  0  0  0  0  0  0  0  0  0  0
   -3.2759    3.9952   17.0420 C   0  0  0  0  0  0  0  0  0  0  0  0
   -3.4192    5.3755   17.0153 C   0  0  0  0  0  0  0  0  0  0  0  0
   -1.9002    1.9738   17.0699 N   0  0  0  0  0  4  0  0  0  0  0  0
   -0.7622    1.4866   17.1952 O   0  0  0  0  0  0  0  0  0  0  0  0
   -2.9558    1.1313   16.9657 O   0  0  0  0  0  1  0  0  0  0  0  0
    0.1456    6.4689   16.9445 C   0  0  0  0  0  0  0  0  0  0  0  0
   -0.0352    7.7101   16.4298 F   0  0  0  0  0  0  0  0  0  0  0  0
    1.1814    5.8686   16.2394 F   0  0  0  0  0  0  0  0  0  0  0  0
    0.6387    6.6352   18.2459 F   0  0  0  0  0  0  0  0  0  0  0  0
  1  2  1  0
  2  3  1  0
  3  4  2  0
  4  5  1  0
  5  6  2  0
  3  7  1  0
  7  8  2  0
  8  9  1  0
  9 10  2  0
 10 11  1  0
 11 12  2  0
 12 13  1  0
 13 14  2  0
 14 15  1  0
 15 16  2  0
 10 17  1  0
 17 18  1  0
 18 19  1  0
 19 20  1  0
 20 21  1  0
 21 22  1  0
 20 23  1  0
 23 24  1  0
 23 25  1  0
 25 26  2  0
 25 27  1  0
 27 28  2  0
 28 29  1  0
 29 30  2  0
 30 31  1  0
 31 32  2  0
 30 33  1  0
 33 34  2  0
 33 35  1  0
 28 36  1  0
 36 37  1  0
 36 38  1  0
 36 39  1  0
  6  2  1  0
 16  7  1  0
 16 11  1  0
 22 17  1  0
 32 27  1  0
M  CHG  2  33   1  35  -1
M  END
$$$$
