
     RDKit          3D

 39 43  0  0  0  0  0  0  0  0999 V2000
    0.6237    6.1612   10.3993 C   0  0  0  0  0  0  0  0  0  0  0  0
   -0.4616    6.8321    9.6886 N   0  0  0  0  0  0  0  0  0  0  0  0
   -1.5113    7.4314   10.3079 C   0  0  0  0  0  0  0  0  0  0  0  0
   -2.3391    7.9591    9.3646 C   0  0  0  0  0  0  0  0  0  0  0  0
   -1.7578    7.6606    8.1308 C   0  0  0  0  0  0  0  0  0  0  0  0
   -0.6343    6.9832    8.4080 N   0  0  0  0  0  0  0  0  0  0  0  0
   -1.6770    7.4589   11.7436 C   0  0  0  0  0  0  0  0  0  0  0  0
   -2.5635    6.5946   12.2659 N   0  0  0  0  0  0  0  0  0  0  0  0
   -2.7859    6.5450   13.5560 N   0  0  0  0  0  0  0  0  0  0  0  0
   -2.1038    7.3857   14.3698 C   0  0  0  0  0  0  0  0  0  0  0  0
   -1.1899    8.2892   13.9014 C   0  0  0  0  0  0  0  0  0  0  0  0
   -0.5180    9.1489   14.7357 C   0  0  0  0  0  0  0  0  0  0  0  0
    0.3686   10.0402   14.2122 C   0  0  0  0  0  0  0  0  0  0  0  0
    0.6034   10.0957   12.8605 C   0  0  0  0  0  0  0  0  0  0  0  0
   -0.0625    9.2397   12.0016 C   0  0  0  0  0  0  0  0  0  0  0  0
   -0.9632    8.3304   12.5193 C   0  0  0  0  0  0  0  0  0  0  0  0
   -2.3786    7.2561   15.7747 N   0  0  0  0  0  0  0  0  0  0  0  0
   -3.3019    6.2941   16.2746 C   0  0  0  0  0  0  0  0  0  0  0  0
   -2.8468    5.6309   17.5242 C   0  0  0  0  0  0  0  0  0  0  0  0
   -2.0218    6.4880   18.4468 C   0  0  0  0  0  0  0  0  0  0  0  0
   -0.9706    7.2796   17.7050 C   0  0  0  0  0  0  0  0  0  0  0  0
   -1.7036    8.1396   16.7014 C   0  0  0  0  0  0  0  0  0  0  0  0
   -1.4516    5.6413   19.4643 N   0  0  0  0  0  0  0  0  0  0  0  0
   -0.9760    4.3075   19.1441 C   0  0  0  0  0  0  0  0  0  0  0  0
   -1.3355    6.1260   20.7865 C   0  0  0  0  0  0  0  0  0  0  0  0
   -1.9020    7.2125   21.0753 O   0  0  0  0  0  0  0  0  0  0  0  0
   -0.5720    5.3561   21.7504 C   0  0  0  0  0  0  0  0  0  0  0  0
   -1.2077    4.5191   22.6423 C   0  0  0  0  0  0  0  0  0  0  0  0
   -0.4603    3.7699   23.5621 C   0  0  0  0  0  0  0  0  0  0  0  0
    0.9138    3.8398   23.6101 C   0  0  0  0  0  0  0  0  0  0  0  0
    1.5351    4.6812   22.7126 C   0  0  0  0  0  0  0  0  0  0  0  0
    0.8157    5.4319   21.7933 C   0  0  0  0  0  0  0  0  0  0  0  0
    1.6618    3.0728   24.5501 N   0  0  0  0  0  4  0  0  0  0  0  0
    2.8386    3.4011   24.7856 O   0  0  0  0  0  0  0  0  0  0  0  0
    1.1479    2.0007   25.1995 O   0  0  0  0  0  1  0  0  0  0  0  0
   -2.6798    4.4321   22.6243 C   0  0  0  0  0  0  0  0  0  0  0  0
   -3.3399    5.6092   22.7539 F   0  0  0  0  0  0  0  0  0  0  0  0
   -3.1569    3.5726   23.6061 F   0  0  0  0  0  0  0  0  0  0  0  0
   -3.0927    3.8648   21.4110 F   0  0  0  0  0  0  0  0  0  0  0  0
  1  2  1  0
  2  3  1  0
  3  4  2  0
  4  5  1  0
  5  6  2  0
  3  7  1  0
  7  8  2  0
  8  9  1  0
  9 10  2  0
 10 11  1  0
 11 12  2  0
 12 13  1  0
 13 14  2  0
 14 15  1  0
 15 16  2  0
 10 17  1  0
 17 18  1  0
 18 19  1  0
 19 20  1  0
 20 21  1  0
 21 22  1  0
 20 23  1  0
 23 24  1  0
 23 25  1  0
 25 26  2  0
 25 27  1  0
 27 28  2  0
 28 29  1  0
 29 30  2  0
 30 31  1  0
 31 32  2  0
 30 33  1  0
 33 34  2  0
 33 35  1  0
 28 36  1  0
 36 37  1  0
 36 38  1  0
 36 39  1  0
  6  2  1  0
 16  7  1  0
 16 11  1  0
 22 17  1  0
 32 27  1  0
M  CHG  2  33   1  35  -1
M  END
$$$$
