
     RDKit          3D

 39 43  0  0  0  0  0  0  0  0999 V2000
   -1.9780    1.7793   17.3962 C   0  0  0  0  0  0  0  0  0  0  0  0
   -1.4419    2.3965   18.6065 N   0  0  0  0  0  0  0  0  0  0  0  0
   -1.2450    3.7329   18.7475 C   0  0  0  0  0  0  0  0  0  0  0  0
   -0.7379    3.9772   19.9871 C   0  0  0  0  0  0  0  0  0  0  0  0
   -0.6275    2.7329   20.6107 C   0  0  0  0  0  0  0  0  0  0  0  0
   -1.0694    1.8343   19.7190 N   0  0  0  0  0  0  0  0  0  0  0  0
   -1.5326    4.6931   17.7058 C   0  0  0  0  0  0  0  0  0  0  0  0
   -1.1902    4.3464   16.4536 N   0  0  0  0  0  0  0  0  0  0  0  0
   -1.4077    5.1498   15.4420 N   0  0  0  0  0  0  0  0  0  0  0  0
   -1.9894    6.3506   15.6741 C   0  0  0  0  0  0  0  0  0  0  0  0
   -2.3599    6.7637   16.9242 C   0  0  0  0  0  0  0  0  0  0  0  0
   -2.9326    7.9918   17.1487 C   0  0  0  0  0  0  0  0  0  0  0  0
   -3.2658    8.3579   18.4173 C   0  0  0  0  0  0  0  0  0  0  0  0
   -3.0383    7.5190   19.4801 C   0  0  0  0  0  0  0  0  0  0  0  0
   -2.4622    6.2776   19.2774 C   0  0  0  0  0  0  0  0  0  0  0  0
   -2.1206    5.8934   17.9960 C   0  0  0  0  0  0  0  0  0  0  0  0
   -2.2222    7.1673   14.5144 N   0  0  0  0  0  0  0  0  0  0  0  0
   -1.7963    8.5247   14.4529 C   0  0  0  0  0  0  0  0  0  0  0  0
   -1.2360    8.9097   13.1314 C   0  0  0  0  0  0  0  0  0  0  0  0
   -1.8517    8.2202   11.9432 C   0  0  0  0  0  0  0  0  0  0  0  0
   -2.0318    6.7379   12.1717 C   0  0  0  0  0  0  0  0  0  0  0  0
   -2.9208    6.5914   13.3850 C   0  0  0  0  0  0  0  0  0  0  0  0
   -1.0403    8.5001   10.7852 N   0  0  0  0  0  0  0  0  0  0  0  0
    0.2323    9.1866   10.9146 C   0  0  0  0  0  0  0  0  0  0  0  0
   -1.4817    8.0808    9.5100 C   0  0  0  0  0  0  0  0  0  0  0  0
   -0.7245    8.2751    8.5232 O   0  0  0  0  0  0  0  0  0  0  0  0
   -2.7819    7.4483    9.3917 C   0  0  0  0  0  0  0  0  0  0  0  0
   -3.9171    8.2067    9.2018 C   0  0  0  0  0  0  0  0  0  0  0  0
   -5.1678    7.5854    9.0765 C   0  0  0  0  0  0  0  0  0  0  0  0
   -5.3088    6.2173    9.1375 C   0  0  0  0  0  0  0  0  0  0  0  0
   -4.1651    5.4724    9.3282 C   0  0  0  0  0  0  0  0  0  0  0  0
   -2.9168    6.0658    9.4546 C   0  0  0  0  0  0  0  0  0  0  0  0
   -6.5861    5.5981    9.0086 N   0  0  0  0  0  4  0  0  0  0  0  0
   -7.5926    6.3227    8.9088 O   0  0  0  0  0  0  0  0  0  0  0  0
   -6.7533    4.2539    8.9900 O   0  0  0  0  0  1  0  0  0  0  0  0
   -3.8004    9.6758    9.1448 C   0  0  0  0  0  0  0  0  0  0  0  0
   -3.2715   10.2666   10.2445 F   0  0  0  0  0  0  0  0  0  0  0  0
   -5.0254   10.2803    8.8914 F   0  0  0  0  0  0  0  0  0  0  0  0
   -2.9870   10.0313    8.0602 F   0  0  0  0  0  0  0  0  0  0  0  0
  1  2  1  0
  2  3  1  0
  3  4  2  0
  4  5  1  0
  5  6  2  0
  3  7  1  0
  7  8  2  0
  8  9  1  0
  9 10  2  0
 10 11  1  0
 11 12  2  0
 12 13  1  0
 13 14  2  0
 14 15  1  0
 15 16  2  0
 10 17  1  0
 17 18  1  0
 18 19  1  0
 19 20  1  0
 20 21  1  0
 21 22  1  0
 20 23  1  0
 23 24  1  0
 23 25  1  0
 25 26  2  0
 25 27  1  0
 27 28  2  0
 28 29  1  0
 29 30  2  0
 30 31  1  0
 31 32  2  0
 30 33  1  0
 33 34  2  0
 33 35  1  0
 28 36  1  0
 36 37  1  0
 36 38  1  0
 36 39  1  0
  6  2  1  0
 16  7  1  0
 16 11  1  0
 22 17  1  0
 32 27  1  0
M  CHG  2  33   1  35  -1
M  END
$$$$
