
     RDKit          3D

 39 43  0  0  0  0  0  0  0  0999 V2000
   -2.9524    7.7807   20.8340 C   0  0  0  0  0  0  0  0  0  0  0  0
   -1.9141    6.8387   21.2433 N   0  0  0  0  0  0  0  0  0  0  0  0
   -1.2795    5.9971   20.3868 C   0  0  0  0  0  0  0  0  0  0  0  0
   -0.3733    5.2574   21.0834 C   0  0  0  0  0  0  0  0  0  0  0  0
   -0.4729    5.6761   22.4115 C   0  0  0  0  0  0  0  0  0  0  0  0
   -1.4183    6.6268   22.4273 N   0  0  0  0  0  0  0  0  0  0  0  0
   -1.5734    5.9315   18.9730 C   0  0  0  0  0  0  0  0  0  0  0  0
   -1.6055    7.0987   18.3080 N   0  0  0  0  0  0  0  0  0  0  0  0
   -1.8654    7.1434   17.0248 N   0  0  0  0  0  0  0  0  0  0  0  0
   -2.1049    5.9849   16.3655 C   0  0  0  0  0  0  0  0  0  0  0  0
   -2.0889    4.7650   16.9840 C   0  0  0  0  0  0  0  0  0  0  0  0
   -2.3515    3.5988   16.3075 C   0  0  0  0  0  0  0  0  0  0  0  0
   -2.3388    2.4136   16.9780 C   0  0  0  0  0  0  0  0  0  0  0  0
   -2.0680    2.3631   18.3231 C   0  0  0  0  0  0  0  0  0  0  0  0
   -1.8011    3.5252   19.0246 C   0  0  0  0  0  0  0  0  0  0  0  0
   -1.8096    4.7335   18.3567 C   0  0  0  0  0  0  0  0  0  0  0  0
   -2.3552    6.1080   14.9555 N   0  0  0  0  0  0  0  0  0  0  0  0
   -3.4832    5.4984   14.3360 C   0  0  0  0  0  0  0  0  0  0  0  0
   -4.1290    6.3558   13.3082 C   0  0  0  0  0  0  0  0  0  0  0  0
   -3.1984    7.2579   12.5422 C   0  0  0  0  0  0  0  0  0  0  0  0
   -2.2036    7.9514   13.4429 C   0  0  0  0  0  0  0  0  0  0  0  0
   -1.4238    6.8641   14.1456 C   0  0  0  0  0  0  0  0  0  0  0  0
   -3.9929    8.1915   11.7843 N   0  0  0  0  0  0  0  0  0  0  0  0
   -5.4013    8.3839   12.0796 C   0  0  0  0  0  0  0  0  0  0  0  0
   -3.3857    8.9442   10.7540 C   0  0  0  0  0  0  0  0  0  0  0  0
   -3.8741   10.0693   10.4701 O   0  0  0  0  0  0  0  0  0  0  0  0
   -2.2319    8.3920   10.0698 C   0  0  0  0  0  0  0  0  0  0  0  0
   -0.9645    8.8631   10.3379 C   0  0  0  0  0  0  0  0  0  0  0  0
    0.1458    8.3147    9.6803 C   0  0  0  0  0  0  0  0  0  0  0  0
    0.0161    7.3020    8.7567 C   0  0  0  0  0  0  0  0  0  0  0  0
   -1.2571    6.8417    8.4988 C   0  0  0  0  0  0  0  0  0  0  0  0
   -2.3704    7.3694    9.1378 C   0  0  0  0  0  0  0  0  0  0  0  0
    1.1530    6.7531    8.0952 N   0  0  0  0  0  4  0  0  0  0  0  0
    2.2747    7.2319    8.3410 O   0  0  0  0  0  0  0  0  0  0  0  0
    1.0665    5.7317    7.2094 O   0  0  0  0  0  1  0  0  0  0  0  0
   -0.7940    9.9562   11.3131 C   0  0  0  0  0  0  0  0  0  0  0  0
   -1.4441   11.1100   11.0225 F   0  0  0  0  0  0  0  0  0  0  0  0
    0.5458   10.2670   11.5093 F   0  0  0  0  0  0  0  0  0  0  0  0
   -1.2573    9.5319   12.5660 F   0  0  0  0  0  0  0  0  0  0  0  0
  1  2  1  0
  2  3  1  0
  3  4  2  0
  4  5  1  0
  5  6  2  0
  3  7  1  0
  7  8  2  0
  8  9  1  0
  9 10  2  0
 10 11  1  0
 11 12  2  0
 12 13  1  0
 13 14  2  0
 14 15  1  0
 15 16  2  0
 10 17  1  0
 17 18  1  0
 18 19  1  0
 19 20  1  0
 20 21  1  0
 21 22  1  0
 20 23  1  0
 23 24  1  0
 23 25  1  0
 25 26  2  0
 25 27  1  0
 27 28  2  0
 28 29  1  0
 29 30  2  0
 30 31  1  0
 31 32  2  0
 30 33  1  0
 33 34  2  0
 33 35  1  0
 28 36  1  0
 36 37  1  0
 36 38  1  0
 36 39  1  0
  6  2  1  0
 16  7  1  0
 16 11  1  0
 22 17  1  0
 32 27  1  0
M  CHG  2  33   1  35  -1
M  END
$$$$
