
     RDKit          3D

 39 43  0  0  0  0  0  0  0  0999 V2000
    0.9004    7.1101   20.3145 C   0  0  0  0  0  0  0  0  0  0  0  0
   -0.2156    6.3281   20.8399 N   0  0  0  0  0  0  0  0  0  0  0  0
   -1.2674    5.9149   20.0865 C   0  0  0  0  0  0  0  0  0  0  0  0
   -2.1272    5.2123   20.8743 C   0  0  0  0  0  0  0  0  0  0  0  0
   -1.5636    5.2076   22.1516 C   0  0  0  0  0  0  0  0  0  0  0  0
   -0.4180    5.8969   22.0505 N   0  0  0  0  0  0  0  0  0  0  0  0
   -1.4048    6.2170   18.6795 C   0  0  0  0  0  0  0  0  0  0  0  0
   -1.1217    7.4750   18.3015 N   0  0  0  0  0  0  0  0  0  0  0  0
   -1.2185    7.8468   17.0490 N   0  0  0  0  0  0  0  0  0  0  0  0
   -1.6124    6.9376   16.1257 C   0  0  0  0  0  0  0  0  0  0  0  0
   -1.9164    5.6429   16.4454 C   0  0  0  0  0  0  0  0  0  0  0  0
   -2.3324    4.7352   15.5021 C   0  0  0  0  0  0  0  0  0  0  0  0
   -2.6385    3.4633   15.8802 C   0  0  0  0  0  0  0  0  0  0  0  0
   -2.5394    3.0704   17.1920 C   0  0  0  0  0  0  0  0  0  0  0  0
   -2.1230    3.9681   18.1589 C   0  0  0  0  0  0  0  0  0  0  0  0
   -1.8084    5.2604   17.7891 C   0  0  0  0  0  0  0  0  0  0  0  0
   -1.6692    7.4085   14.7689 N   0  0  0  0  0  0  0  0  0  0  0  0
   -1.2867    6.5863   13.6709 C   0  0  0  0  0  0  0  0  0  0  0  0
   -2.1793    6.7226   12.4906 C   0  0  0  0  0  0  0  0  0  0  0  0
   -2.7727    8.0907   12.2841 C   0  0  0  0  0  0  0  0  0  0  0  0
   -3.2914    8.6894   13.5702 C   0  0  0  0  0  0  0  0  0  0  0  0
   -2.1173    8.7620   14.5190 C   0  0  0  0  0  0  0  0  0  0  0  0
   -3.7967    7.9936   11.2744 N   0  0  0  0  0  0  0  0  0  0  0  0
   -5.2031    8.0263   11.6330 C   0  0  0  0  0  0  0  0  0  0  0  0
   -3.4243    7.8865    9.9155 C   0  0  0  0  0  0  0  0  0  0  0  0
   -4.3211    7.6311    9.0697 O   0  0  0  0  0  0  0  0  0  0  0  0
   -2.0319    8.0734    9.5538 C   0  0  0  0  0  0  0  0  0  0  0  0
   -1.2024    6.9879    9.3694 C   0  0  0  0  0  0  0  0  0  0  0  0
    0.1389    7.1784    9.0081 C   0  0  0  0  0  0  0  0  0  0  0  0
    0.6712    8.4351    8.8269 C   0  0  0  0  0  0  0  0  0  0  0  0
   -0.1700    9.5104    9.0153 C   0  0  0  0  0  0  0  0  0  0  0  0
   -1.5010    9.3457    9.3727 C   0  0  0  0  0  0  0  0  0  0  0  0
    2.0365    8.6150    8.4596 N   0  0  0  0  0  4  0  0  0  0  0  0
    2.7447    7.6072    8.2849 O   0  0  0  0  0  0  0  0  0  0  0  0
    2.5982    9.8363    8.2921 O   0  0  0  0  0  1  0  0  0  0  0  0
   -1.7398    5.6291    9.5686 C   0  0  0  0  0  0  0  0  0  0  0  0
   -3.0356    5.5611    9.9614 F   0  0  0  0  0  0  0  0  0  0  0  0
   -0.9850    4.9058   10.4837 F   0  0  0  0  0  0  0  0  0  0  0  0
   -1.6400    4.9138    8.3674 F   0  0  0  0  0  0  0  0  0  0  0  0
  1  2  1  0
  2  3  1  0
  3  4  2  0
  4  5  1  0
  5  6  2  0
  3  7  1  0
  7  8  2  0
  8  9  1  0
  9 10  2  0
 10 11  1  0
 11 12  2  0
 12 13  1  0
 13 14  2  0
 14 15  1  0
 15 16  2  0
 10 17  1  0
 17 18  1  0
 18 19  1  0
 19 20  1  0
 20 21  1  0
 21 22  1  0
 20 23  1  0
 23 24  1  0
 23 25  1  0
 25 26  2  0
 25 27  1  0
 27 28  2  0
 28 29  1  0
 29 30  2  0
 30 31  1  0
 31 32  2  0
 30 33  1  0
 33 34  2  0
 33 35  1  0
 28 36  1  0
 36 37  1  0
 36 38  1  0
 36 39  1  0
  6  2  1  0
 16  7  1  0
 16 11  1  0
 22 17  1  0
 32 27  1  0
M  CHG  2  33   1  35  -1
M  END
$$$$
