
     RDKit          3D

 39 43  0  0  0  0  0  0  0  0999 V2000
    1.2779    6.1428   20.1353 C   0  0  0  0  0  0  0  0  0  0  0  0
    0.0030    6.1870   20.8463 N   0  0  0  0  0  0  0  0  0  0  0  0
   -1.1961    6.3653   20.2338 C   0  0  0  0  0  0  0  0  0  0  0  0
   -2.1795    6.3568   21.1753 C   0  0  0  0  0  0  0  0  0  0  0  0
   -1.5386    6.1660   22.4008 C   0  0  0  0  0  0  0  0  0  0  0  0
   -0.2305    6.0729   22.1210 N   0  0  0  0  0  0  0  0  0  0  0  0
   -1.3408    6.5453   18.8068 C   0  0  0  0  0  0  0  0  0  0  0  0
   -0.5757    7.4915   18.2368 N   0  0  0  0  0  0  0  0  0  0  0  0
   -0.6365    7.7314   16.9504 N   0  0  0  0  0  0  0  0  0  0  0  0
   -1.4904    7.0059   16.1896 C   0  0  0  0  0  0  0  0  0  0  0  0
   -2.2969    6.0305   16.7084 C   0  0  0  0  0  0  0  0  0  0  0  0
   -3.1720    5.3142   15.9288 C   0  0  0  0  0  0  0  0  0  0  0  0
   -3.9639    4.3662   16.5020 C   0  0  0  0  0  0  0  0  0  0  0  0
   -3.9037    4.1128   17.8501 C   0  0  0  0  0  0  0  0  0  0  0  0
   -3.0300    4.8225   18.6544 C   0  0  0  0  0  0  0  0  0  0  0  0
   -2.2207    5.7858   18.0859 C   0  0  0  0  0  0  0  0  0  0  0  0
   -1.4834    7.3046   14.7837 N   0  0  0  0  0  0  0  0  0  0  0  0
   -0.3001    7.1991   13.9985 C   0  0  0  0  0  0  0  0  0  0  0  0
   -0.5335    6.6144   12.6523 C   0  0  0  0  0  0  0  0  0  0  0  0
   -1.8675    6.9337   12.0319 C   0  0  0  0  0  0  0  0  0  0  0  0
   -3.0051    6.7890   13.0152 C   0  0  0  0  0  0  0  0  0  0  0  0
   -2.7145    7.7361   14.1565 C   0  0  0  0  0  0  0  0  0  0  0  0
   -2.0396    6.0980   10.8703 N   0  0  0  0  0  0  0  0  0  0  0  0
   -2.4229    4.7042   11.0045 C   0  0  0  0  0  0  0  0  0  0  0  0
   -1.8526    6.6506    9.5832 C   0  0  0  0  0  0  0  0  0  0  0  0
   -2.2996    6.0170    8.5915 O   0  0  0  0  0  0  0  0  0  0  0  0
   -1.1567    7.9174    9.4591 C   0  0  0  0  0  0  0  0  0  0  0  0
   -1.8485    9.1079    9.5226 C   0  0  0  0  0  0  0  0  0  0  0  0
   -1.1654   10.3275    9.4137 C   0  0  0  0  0  0  0  0  0  0  0  0
    0.1994   10.3830    9.2416 C   0  0  0  0  0  0  0  0  0  0  0  0
    0.8774    9.1847    9.1795 C   0  0  0  0  0  0  0  0  0  0  0  0
    0.2220    7.9658    9.2851 C   0  0  0  0  0  0  0  0  0  0  0  0
    0.8818   11.6295    9.1322 N   0  0  0  0  0  4  0  0  0  0  0  0
    0.2087   12.6732    9.0569 O   0  0  0  0  0  0  0  0  0  0  0  0
    2.2326   11.7287    9.1066 O   0  0  0  0  0  1  0  0  0  0  0  0
   -3.3132    9.0813    9.6936 C   0  0  0  0  0  0  0  0  0  0  0  0
   -3.9134   10.2913    9.8113 F   0  0  0  0  0  0  0  0  0  0  0  0
   -3.6896    8.3171   10.7911 F   0  0  0  0  0  0  0  0  0  0  0  0
   -3.8942    8.4440    8.5888 F   0  0  0  0  0  0  0  0  0  0  0  0
  1  2  1  0
  2  3  1  0
  3  4  2  0
  4  5  1  0
  5  6  2  0
  3  7  1  0
  7  8  2  0
  8  9  1  0
  9 10  2  0
 10 11  1  0
 11 12  2  0
 12 13  1  0
 13 14  2  0
 14 15  1  0
 15 16  2  0
 10 17  1  0
 17 18  1  0
 18 19  1  0
 19 20  1  0
 20 21  1  0
 21 22  1  0
 20 23  1  0
 23 24  1  0
 23 25  1  0
 25 26  2  0
 25 27  1  0
 27 28  2  0
 28 29  1  0
 29 30  2  0
 30 31  1  0
 31 32  2  0
 30 33  1  0
 33 34  2  0
 33 35  1  0
 28 36  1  0
 36 37  1  0
 36 38  1  0
 36 39  1  0
  6  2  1  0
 16  7  1  0
 16 11  1  0
 22 17  1  0
 32 27  1  0
M  CHG  2  33   1  35  -1
M  END
$$$$
