
     RDKit          3D

 39 43  0  0  0  0  0  0  0  0999 V2000
   -0.1085    3.3236   17.0513 C   0  0  0  0  0  0  0  0  0  0  0  0
   -0.8863    4.2215   17.9010 N   0  0  0  0  0  0  0  0  0  0  0  0
   -1.5972    5.2783   17.4294 C   0  0  0  0  0  0  0  0  0  0  0  0
   -2.2039    5.9052   18.4746 C   0  0  0  0  0  0  0  0  0  0  0  0
   -1.8381    5.1917   19.6174 C   0  0  0  0  0  0  0  0  0  0  0  0
   -1.0472    4.1961   19.1917 N   0  0  0  0  0  0  0  0  0  0  0  0
   -1.6508    5.6398   16.0308 C   0  0  0  0  0  0  0  0  0  0  0  0
   -0.4761    5.8758   15.4226 N   0  0  0  0  0  0  0  0  0  0  0  0
   -0.4208    6.2120   14.1576 N   0  0  0  0  0  0  0  0  0  0  0  0
   -1.5759    6.3210   13.4589 C   0  0  0  0  0  0  0  0  0  0  0  0
   -2.8032    6.0959   14.0192 C   0  0  0  0  0  0  0  0  0  0  0  0
   -3.9685    6.2276   13.3042 C   0  0  0  0  0  0  0  0  0  0  0  0
   -5.1640    6.0078   13.9182 C   0  0  0  0  0  0  0  0  0  0  0  0
   -5.2259    5.6564   15.2440 C   0  0  0  0  0  0  0  0  0  0  0  0
   -4.0649    5.5186   15.9835 C   0  0  0  0  0  0  0  0  0  0  0  0
   -2.8460    5.7374   15.3731 C   0  0  0  0  0  0  0  0  0  0  0  0
   -1.4367    6.6661   12.0706 N   0  0  0  0  0  0  0  0  0  0  0  0
   -2.4320    6.3305   11.1090 C   0  0  0  0  0  0  0  0  0  0  0  0
   -2.6814    7.4069   10.1153 C   0  0  0  0  0  0  0  0  0  0  0  0
   -1.4822    8.2417    9.7527 C   0  0  0  0  0  0  0  0  0  0  0  0
   -0.6770    8.6438   10.9659 C   0  0  0  0  0  0  0  0  0  0  0  0
   -0.2431    7.3636   11.6418 C   0  0  0  0  0  0  0  0  0  0  0  0
   -1.9346    9.3812    8.9948 N   0  0  0  0  0  0  0  0  0  0  0  0
   -2.9102   10.3040    9.5464 C   0  0  0  0  0  0  0  0  0  0  0  0
   -1.4041    9.6130    7.7057 C   0  0  0  0  0  0  0  0  0  0  0  0
   -1.6696   10.7054    7.1392 O   0  0  0  0  0  0  0  0  0  0  0  0
   -0.5810    8.5880    7.0922 C   0  0  0  0  0  0  0  0  0  0  0  0
    0.7263    8.8523    6.7440 C   0  0  0  0  0  0  0  0  0  0  0  0
    1.5177    7.8515    6.1625 C   0  0  0  0  0  0  0  0  0  0  0  0
    1.0285    6.5876    5.9203 C   0  0  0  0  0  0  0  0  0  0  0  0
   -0.2802    6.3385    6.2733 C   0  0  0  0  0  0  0  0  0  0  0  0
   -1.0818    7.3137    6.8502 C   0  0  0  0  0  0  0  0  0  0  0  0
    1.8435    5.5791    5.3286 N   0  0  0  0  0  4  0  0  0  0  0  0
    1.3414    4.4635    5.1022 O   0  0  0  0  0  0  0  0  0  0  0  0
    3.1424    5.7815    5.0011 O   0  0  0  0  0  1  0  0  0  0  0  0
    1.2755   10.2007    6.9792 C   0  0  0  0  0  0  0  0  0  0  0  0
    2.5732   10.3764    6.6280 F   0  0  0  0  0  0  0  0  0  0  0  0
    1.1441   10.5858    8.3076 F   0  0  0  0  0  0  0  0  0  0  0  0
    0.5265   11.1362    6.2524 F   0  0  0  0  0  0  0  0  0  0  0  0
  1  2  1  0
  2  3  1  0
  3  4  2  0
  4  5  1  0
  5  6  2  0
  3  7  1  0
  7  8  2  0
  8  9  1  0
  9 10  2  0
 10 11  1  0
 11 12  2  0
 12 13  1  0
 13 14  2  0
 14 15  1  0
 15 16  2  0
 10 17  1  0
 17 18  1  0
 18 19  1  0
 19 20  1  0
 20 21  1  0
 21 22  1  0
 20 23  1  0
 23 24  1  0
 23 25  1  0
 25 26  2  0
 25 27  1  0
 27 28  2  0
 28 29  1  0
 29 30  2  0
 30 31  1  0
 31 32  2  0
 30 33  1  0
 33 34  2  0
 33 35  1  0
 28 36  1  0
 36 37  1  0
 36 38  1  0
 36 39  1  0
  6  2  1  0
 16  7  1  0
 16 11  1  0
 22 17  1  0
 32 27  1  0
M  CHG  2  33   1  35  -1
M  END
$$$$
