
     RDKit          3D

 39 43  0  0  0  0  0  0  0  0999 V2000
   -1.1282   10.6319   22.8399 C   0  0  0  0  0  0  0  0  0  0  0  0
   -1.7965   10.5716   21.5427 N   0  0  0  0  0  0  0  0  0  0  0  0
   -1.9515    9.4279   20.8269 C   0  0  0  0  0  0  0  0  0  0  0  0
   -2.6128    9.7149   19.6719 C   0  0  0  0  0  0  0  0  0  0  0  0
   -2.8615   11.0883   19.7009 C   0  0  0  0  0  0  0  0  0  0  0  0
   -2.3419   11.5317   20.8547 N   0  0  0  0  0  0  0  0  0  0  0  0
   -1.4578    8.1421   21.2660 C   0  0  0  0  0  0  0  0  0  0  0  0
   -0.1477    8.0647   21.5544 N   0  0  0  0  0  0  0  0  0  0  0  0
    0.3946    6.9426   21.9580 N   0  0  0  0  0  0  0  0  0  0  0  0
   -0.3896    5.8454   22.0834 C   0  0  0  0  0  0  0  0  0  0  0  0
   -1.7285    5.8575   21.8043 C   0  0  0  0  0  0  0  0  0  0  0  0
   -2.5093    4.7332   21.9182 C   0  0  0  0  0  0  0  0  0  0  0  0
   -3.8342    4.7991   21.6103 C   0  0  0  0  0  0  0  0  0  0  0  0
   -4.4057    5.9732   21.1859 C   0  0  0  0  0  0  0  0  0  0  0  0
   -3.6382    7.1178   21.0636 C   0  0  0  0  0  0  0  0  0  0  0  0
   -2.2939    7.0651   21.3736 C   0  0  0  0  0  0  0  0  0  0  0  0
    0.2675    4.6580   22.5570 N   0  0  0  0  0  0  0  0  0  0  0  0
    1.4690    4.1761   21.9637 C   0  0  0  0  0  0  0  0  0  0  0  0
    2.4564    3.6716   22.9531 C   0  0  0  0  0  0  0  0  0  0  0  0
    1.8693    3.0298   24.1819 C   0  0  0  0  0  0  0  0  0  0  0  0
    0.7208    3.8288   24.7515 C   0  0  0  0  0  0  0  0  0  0  0  0
   -0.3204    3.9291   23.6607 C   0  0  0  0  0  0  0  0  0  0  0  0
    2.9271    2.8334   25.1409 N   0  0  0  0  0  0  0  0  0  0  0  0
    3.6741    3.9608   25.6687 C   0  0  0  0  0  0  0  0  0  0  0  0
    3.2255    1.5265   25.5881 C   0  0  0  0  0  0  0  0  0  0  0  0
    4.3529    1.3168   26.1075 O   0  0  0  0  0  0  0  0  0  0  0  0
    2.2262    0.4868   25.4302 C   0  0  0  0  0  0  0  0  0  0  0  0
    1.3826    0.1599   26.4701 C   0  0  0  0  0  0  0  0  0  0  0  0
    0.4118   -0.8381   26.3039 C   0  0  0  0  0  0  0  0  0  0  0  0
    0.2659   -1.5192   25.1164 C   0  0  0  0  0  0  0  0  0  0  0  0
    1.1168   -1.1818   24.0861 C   0  0  0  0  0  0  0  0  0  0  0  0
    2.0847   -0.1972   24.2279 C   0  0  0  0  0  0  0  0  0  0  0  0
   -0.7250   -2.5317   24.9605 N   0  0  0  0  0  4  0  0  0  0  0  0
   -0.3591   -3.6838   24.6660 O   0  0  0  0  0  0  0  0  0  0  0  0
   -2.0495   -2.2952   25.1190 O   0  0  0  0  0  1  0  0  0  0  0  0
    1.5225    0.8629   27.7590 C   0  0  0  0  0  0  0  0  0  0  0  0
    2.7569    1.3539   28.0298 F   0  0  0  0  0  0  0  0  0  0  0  0
    1.1466    0.0586   28.8277 F   0  0  0  0  0  0  0  0  0  0  0  0
    0.6363    1.9483   27.7900 F   0  0  0  0  0  0  0  0  0  0  0  0
  1  2  1  0
  2  3  1  0
  3  4  2  0
  4  5  1  0
  5  6  2  0
  3  7  1  0
  7  8  2  0
  8  9  1  0
  9 10  2  0
 10 11  1  0
 11 12  2  0
 12 13  1  0
 13 14  2  0
 14 15  1  0
 15 16  2  0
 10 17  1  0
 17 18  1  0
 18 19  1  0
 19 20  1  0
 20 21  1  0
 21 22  1  0
 20 23  1  0
 23 24  1  0
 23 25  1  0
 25 26  2  0
 25 27  1  0
 27 28  2  0
 28 29  1  0
 29 30  2  0
 30 31  1  0
 31 32  2  0
 30 33  1  0
 33 34  2  0
 33 35  1  0
 28 36  1  0
 36 37  1  0
 36 38  1  0
 36 39  1  0
  6  2  1  0
 16  7  1  0
 16 11  1  0
 22 17  1  0
 32 27  1  0
M  CHG  2  33   1  35  -1
M  END
$$$$
