
     RDKit          3D

 39 43  0  0  0  0  0  0  0  0999 V2000
   -1.2524    2.9587   21.3967 C   0  0  0  0  0  0  0  0  0  0  0  0
   -0.8041    4.1982   22.0258 N   0  0  0  0  0  0  0  0  0  0  0  0
   -0.7326    5.3896   21.3778 C   0  0  0  0  0  0  0  0  0  0  0  0
   -0.2799    6.3378   22.2436 C   0  0  0  0  0  0  0  0  0  0  0  0
   -0.0723    5.6828   23.4589 C   0  0  0  0  0  0  0  0  0  0  0  0
   -0.4091    4.4021   23.2485 N   0  0  0  0  0  0  0  0  0  0  0  0
   -1.0808    5.5592   19.9851 C   0  0  0  0  0  0  0  0  0  0  0  0
   -0.3250    4.9021   19.0893 N   0  0  0  0  0  0  0  0  0  0  0  0
   -0.5597    4.9939   17.8038 N   0  0  0  0  0  0  0  0  0  0  0  0
   -1.5865    5.7690   17.3804 C   0  0  0  0  0  0  0  0  0  0  0  0
   -2.3916    6.4644   18.2401 C   0  0  0  0  0  0  0  0  0  0  0  0
   -3.4186    7.2616   17.7968 C   0  0  0  0  0  0  0  0  0  0  0  0
   -4.1776    7.9451   18.6974 C   0  0  0  0  0  0  0  0  0  0  0  0
   -3.9338    7.8521   20.0454 C   0  0  0  0  0  0  0  0  0  0  0  0
   -2.9044    7.0556   20.5142 C   0  0  0  0  0  0  0  0  0  0  0  0
   -2.1278    6.3562   19.6120 C   0  0  0  0  0  0  0  0  0  0  0  0
   -1.8020    5.8003   15.9596 N   0  0  0  0  0  0  0  0  0  0  0  0
   -2.4468    4.7321   15.2733 C   0  0  0  0  0  0  0  0  0  0  0  0
   -3.3878    5.1896   14.2179 C   0  0  0  0  0  0  0  0  0  0  0  0
   -2.9984    6.4612   13.5124 C   0  0  0  0  0  0  0  0  0  0  0  0
   -2.5232    7.5260   14.4728 C   0  0  0  0  0  0  0  0  0  0  0  0
   -1.3371    6.9473   15.2091 C   0  0  0  0  0  0  0  0  0  0  0  0
   -4.1182    6.9013   12.7188 N   0  0  0  0  0  0  0  0  0  0  0  0
   -5.4809    6.7112   13.1819 C   0  0  0  0  0  0  0  0  0  0  0  0
   -3.8835    7.5455   11.4832 C   0  0  0  0  0  0  0  0  0  0  0  0
   -4.8284    8.1904   10.9579 O   0  0  0  0  0  0  0  0  0  0  0  0
   -2.5710    7.4368   10.8747 C   0  0  0  0  0  0  0  0  0  0  0  0
   -1.7613    8.5452   10.7488 C   0  0  0  0  0  0  0  0  0  0  0  0
   -0.4896    8.4278   10.1702 C   0  0  0  0  0  0  0  0  0  0  0  0
   -0.0080    7.2219    9.7127 C   0  0  0  0  0  0  0  0  0  0  0  0
   -0.8289    6.1228    9.8450 C   0  0  0  0  0  0  0  0  0  0  0  0
   -2.0912    6.2155   10.4146 C   0  0  0  0  0  0  0  0  0  0  0  0
    1.2868    7.1161    9.1265 N   0  0  0  0  0  4  0  0  0  0  0  0
    1.6783    5.9991    8.7431 O   0  0  0  0  0  0  0  0  0  0  0  0
    2.1115    8.1791    8.9680 O   0  0  0  0  0  1  0  0  0  0  0  0
   -2.2540    9.8538   11.2178 C   0  0  0  0  0  0  0  0  0  0  0  0
   -3.6011   10.0070   11.2240 F   0  0  0  0  0  0  0  0  0  0  0  0
   -1.7155   10.9011   10.4807 F   0  0  0  0  0  0  0  0  0  0  0  0
   -1.8136   10.0677   12.5311 F   0  0  0  0  0  0  0  0  0  0  0  0
  1  2  1  0
  2  3  1  0
  3  4  2  0
  4  5  1  0
  5  6  2  0
  3  7  1  0
  7  8  2  0
  8  9  1  0
  9 10  2  0
 10 11  1  0
 11 12  2  0
 12 13  1  0
 13 14  2  0
 14 15  1  0
 15 16  2  0
 10 17  1  0
 17 18  1  0
 18 19  1  0
 19 20  1  0
 20 21  1  0
 21 22  1  0
 20 23  1  0
 23 24  1  0
 23 25  1  0
 25 26  2  0
 25 27  1  0
 27 28  2  0
 28 29  1  0
 29 30  2  0
 30 31  1  0
 31 32  2  0
 30 33  1  0
 33 34  2  0
 33 35  1  0
 28 36  1  0
 36 37  1  0
 36 38  1  0
 36 39  1  0
  6  2  1  0
 16  7  1  0
 16 11  1  0
 22 17  1  0
 32 27  1  0
M  CHG  2  33   1  35  -1
M  END
$$$$
