
     RDKit          3D

 36 38  0  0  0  0  0  0  0  0999 V2000
    4.0018   -3.3706   15.3765 N   0  0  0  0  0  0  0  0  0  0  0  0
    4.0789   -2.8789   14.2632 C   0  0  0  0  0  0  0  0  0  0  0  0
    4.1919   -2.3130   12.9601 C   0  0  0  0  0  0  0  0  0  0  0  0
    5.3987   -2.3180   12.2851 C   0  0  0  0  0  0  0  0  0  0  0  0
    5.5381   -1.7608   11.0275 C   0  0  0  0  0  0  0  0  0  0  0  0
    4.4082   -1.2092   10.4959 C   0  0  0  0  0  0  0  0  0  0  0  0
    3.1781   -1.1485   11.0358 C   0  0  0  0  0  0  0  0  0  0  0  0
    3.1075   -1.7474   12.3600 C   0  0  0  0  0  0  0  0  0  0  0  0
    1.9298   -0.5561   10.5969 C   0  0  1  0  0  0  0  0  0  0  0  0
    1.7701    0.8768   11.0360 C   0  0  1  0  0  0  0  0  0  0  0  0
    2.6798    1.8768   10.6449 N   0  0  0  0  0  0  0  0  0  0  0  0
    3.8792    2.1277   11.3823 C   0  0  0  0  0  0  0  0  0  0  0  0
    3.8288    1.6249   12.5800 O   0  0  0  0  0  0  0  0  0  0  0  0
    5.0701    2.8491   10.9869 C   0  0  0  0  0  0  0  0  0  0  0  0
    5.5290    2.6860    9.6726 O   0  0  0  0  0  0  0  0  0  0  0  0
    4.6507    2.7816    8.6226 C   0  0  0  0  0  0  0  0  0  0  0  0
    4.7796    2.4814    7.2926 C   0  0  0  0  0  0  0  0  0  0  0  0
    3.7790    2.6443    6.3408 C   0  0  0  0  0  0  0  0  0  0  0  0
    2.5534    3.1538    6.8071 C   0  0  0  0  0  0  0  0  0  0  0  0
    2.4070    3.4542    8.1195 C   0  0  0  0  0  0  0  0  0  0  0  0
    3.4075    3.2733    8.9636 N   0  0  0  0  0  0  0  0  0  0  0  0
    1.3905    3.3717    5.8943 C   0  0  0  0  0  0  0  0  0  0  0  0
    1.5024    4.5811    5.2802 F   0  0  0  0  0  0  0  0  0  0  0  0
    0.2084    3.3619    6.6487 F   0  0  0  0  0  0  0  0  0  0  0  0
    1.3537    2.2924    5.0440 F   0  0  0  0  0  0  0  0  0  0  0  0
    4.5712    4.3658   10.9409 C   0  0  0  0  0  0  0  0  0  0  0  0
    6.2053    2.8921   11.9560 C   0  0  0  0  0  0  0  0  0  0  0  0
    0.3084    1.3448   10.9086 C   0  0  0  0  0  0  0  0  0  0  0  0
    1.2928   -0.8780    9.3278 C   0  0  0  0  0  0  0  0  0  0  0  0
    0.6638   -2.1354    9.0037 C   0  0  0  0  0  0  0  0  0  0  0  0
   -0.6314   -2.3289    9.5142 C   0  0  0  0  0  0  0  0  0  0  0  0
   -1.3014   -3.5353    9.4076 C   0  0  0  0  0  0  0  0  0  0  0  0
   -0.6606   -4.5735    8.7825 C   0  0  0  0  0  0  0  0  0  0  0  0
    0.5796   -4.4189    8.2815 C   0  0  0  0  0  0  0  0  0  0  0  0
    1.2684   -3.1925    8.3800 C   0  0  0  0  0  0  0  0  0  0  0  0
   -1.4907   -6.1579    8.6884 Cl  0  0  0  0  0  0  0  0  0  0  0  0
  1  2  3  0
  2  3  1  0
  3  4  2  0
  4  5  1  0
  5  6  2  0
  6  7  1  0
  7  8  2  0
  7  9  1  0
  9 10  1  0
 10 11  1  0
 11 12  1  0
 12 13  2  0
 12 14  1  0
 14 15  1  0
 15 16  1  0
 16 17  2  0
 17 18  1  0
 18 19  2  0
 19 20  1  0
 20 21  2  0
 19 22  1  0
 22 23  1  0
 22 24  1  0
 22 25  1  0
 14 26  1  0
 14 27  1  0
 10 28  1  6
  9 29  1  6
 29 30  1  0
 30 31  2  0
 31 32  1  0
 32 33  2  0
 33 34  1  0
 34 35  2  0
 33 36  1  0
  8  3  1  0
 21 16  1  0
 35 30  1  0
M  END
$$$$
