
     RDKit          3D

 36 38  0  0  0  0  0  0  0  0999 V2000
    5.3861   -5.5209   11.0583 N   0  0  0  0  0  0  0  0  0  0  0  0
    4.6194   -4.7198   10.5507 C   0  0  0  0  0  0  0  0  0  0  0  0
    3.7255   -3.7955    9.9361 C   0  0  0  0  0  0  0  0  0  0  0  0
    3.6394   -3.6982    8.5594 C   0  0  0  0  0  0  0  0  0  0  0  0
    2.7926   -2.7982    7.9393 C   0  0  0  0  0  0  0  0  0  0  0  0
    2.0468   -2.0159    8.7731 C   0  0  0  0  0  0  0  0  0  0  0  0
    2.0250   -2.0172   10.1177 C   0  0  0  0  0  0  0  0  0  0  0  0
    2.9441   -2.9829   10.7008 C   0  0  0  0  0  0  0  0  0  0  0  0
    1.3231   -1.2143   11.0996 C   0  0  1  0  0  0  0  0  0  0  0  0
    2.0746    0.0331   11.4881 C   0  0  1  0  0  0  0  0  0  0  0  0
    2.0422    1.1945   10.6941 N   0  0  0  0  0  0  0  0  0  0  0  0
    3.2207    1.9665   10.4480 C   0  0  0  0  0  0  0  0  0  0  0  0
    4.3044    1.2703   10.6235 O   0  0  0  0  0  0  0  0  0  0  0  0
    3.3486    3.3567   10.0663 C   0  0  0  0  0  0  0  0  0  0  0  0
    3.1093    4.3299   11.0462 O   0  0  0  0  0  0  0  0  0  0  0  0
    2.8982    5.6353   10.6793 C   0  0  0  0  0  0  0  0  0  0  0  0
    3.2791    6.8192   11.2528 C   0  0  0  0  0  0  0  0  0  0  0  0
    2.9744    8.0795   10.7506 C   0  0  0  0  0  0  0  0  0  0  0  0
    2.2208    8.1108    9.5630 C   0  0  0  0  0  0  0  0  0  0  0  0
    1.8373    6.9499    8.9805 C   0  0  0  0  0  0  0  0  0  0  0  0
    2.1646    5.7892    9.5210 N   0  0  0  0  0  0  0  0  0  0  0  0
    1.8295    9.3966    8.9099 C   0  0  0  0  0  0  0  0  0  0  0  0
    2.3425   10.4467    9.6073 F   0  0  0  0  0  0  0  0  0  0  0  0
    0.4312    9.5022    8.9085 F   0  0  0  0  0  0  0  0  0  0  0  0
    2.2445    9.3126    7.6022 F   0  0  0  0  0  0  0  0  0  0  0  0
    4.9229    3.5272    9.8571 C   0  0  0  0  0  0  0  0  0  0  0  0
    2.7823    3.7655    8.7465 C   0  0  0  0  0  0  0  0  0  0  0  0
    1.8998    0.3522   12.9846 C   0  0  0  0  0  0  0  0  0  0  0  0
   -0.1269   -1.0894   11.1438 C   0  0  0  0  0  0  0  0  0  0  0  0
   -1.0607   -2.1893   11.1449 C   0  0  0  0  0  0  0  0  0  0  0  0
   -0.9926   -3.0575   12.2482 C   0  0  0  0  0  0  0  0  0  0  0  0
   -1.7230   -4.2310   12.3186 C   0  0  0  0  0  0  0  0  0  0  0  0
   -2.5350   -4.5473   11.2604 C   0  0  0  0  0  0  0  0  0  0  0  0
   -2.6232   -3.7352   10.1900 C   0  0  0  0  0  0  0  0  0  0  0  0
   -1.8875   -2.5348   10.1110 C   0  0  0  0  0  0  0  0  0  0  0  0
   -3.4417   -6.0912   11.3103 Cl  0  0  0  0  0  0  0  0  0  0  0  0
  1  2  3  0
  2  3  1  0
  3  4  2  0
  4  5  1  0
  5  6  2  0
  6  7  1  0
  7  8  2  0
  7  9  1  0
  9 10  1  0
 10 11  1  0
 11 12  1  0
 12 13  2  0
 12 14  1  0
 14 15  1  0
 15 16  1  0
 16 17  2  0
 17 18  1  0
 18 19  2  0
 19 20  1  0
 20 21  2  0
 19 22  1  0
 22 23  1  0
 22 24  1  0
 22 25  1  0
 14 26  1  0
 14 27  1  0
 10 28  1  1
  9 29  1  6
 29 30  1  0
 30 31  2  0
 31 32  1  0
 32 33  2  0
 33 34  1  0
 34 35  2  0
 33 36  1  0
  8  3  1  0
 21 16  1  0
 35 30  1  0
M  END
$$$$
