
     RDKit          3D

 36 38  0  0  0  0  0  0  0  0999 V2000
    5.5943   -4.6467   13.2503 N   0  0  0  0  0  0  0  0  0  0  0  0
    4.9389   -4.0477   12.4143 C   0  0  0  0  0  0  0  0  0  0  0  0
    4.1542   -3.3635   11.4410 C   0  0  0  0  0  0  0  0  0  0  0  0
    4.2254   -3.7046   10.1029 C   0  0  0  0  0  0  0  0  0  0  0  0
    3.4872   -3.0452    9.1376 C   0  0  0  0  0  0  0  0  0  0  0  0
    2.6834   -2.0396    9.5914 C   0  0  0  0  0  0  0  0  0  0  0  0
    2.5122   -1.6173   10.8566 C   0  0  0  0  0  0  0  0  0  0  0  0
    3.3238   -2.3508   11.8161 C   0  0  0  0  0  0  0  0  0  0  0  0
    1.7362   -0.5455   11.4487 C   0  0  1  0  0  0  0  0  0  0  0  0
    2.5666    0.6649   11.7911 C   0  0  1  0  0  0  0  0  0  0  0  0
    2.8446    1.6649   10.8408 N   0  0  0  0  0  0  0  0  0  0  0  0
    3.1670    1.3411    9.4856 C   0  0  0  0  0  0  0  0  0  0  0  0
    3.9999    0.3461    9.4075 O   0  0  0  0  0  0  0  0  0  0  0  0
    2.7188    1.9630    8.2579 C   0  0  0  0  0  0  0  0  0  0  0  0
    2.0285    3.1792    8.3535 O   0  0  0  0  0  0  0  0  0  0  0  0
    2.3743    4.0900    9.3198 C   0  0  0  0  0  0  0  0  0  0  0  0
    1.8781    5.3287    9.6282 C   0  0  0  0  0  0  0  0  0  0  0  0
    2.3514    6.1418   10.6521 C   0  0  0  0  0  0  0  0  0  0  0  0
    3.4169    5.6276   11.4132 C   0  0  0  0  0  0  0  0  0  0  0  0
    3.9189    4.4034   11.1242 C   0  0  0  0  0  0  0  0  0  0  0  0
    3.4158    3.6904   10.1318 N   0  0  0  0  0  0  0  0  0  0  0  0
    4.0174    6.3919   12.5482 C   0  0  0  0  0  0  0  0  0  0  0  0
    4.8238    5.5771   13.2817 F   0  0  0  0  0  0  0  0  0  0  0  0
    2.9893    6.8651   13.3761 F   0  0  0  0  0  0  0  0  0  0  0  0
    4.6456    7.4825   11.9956 F   0  0  0  0  0  0  0  0  0  0  0  0
    4.0829    2.4483    7.5836 C   0  0  0  0  0  0  0  0  0  0  0  0
    2.1177    1.0791    7.2153 C   0  0  0  0  0  0  0  0  0  0  0  0
    2.1600    1.2594   13.1523 C   0  0  0  0  0  0  0  0  0  0  0  0
    0.3594   -0.2529   11.0761 C   0  0  0  0  0  0  0  0  0  0  0  0
   -0.7325   -1.1955   11.1053 C   0  0  0  0  0  0  0  0  0  0  0  0
   -0.3890   -2.5323   11.3708 C   0  0  0  0  0  0  0  0  0  0  0  0
   -1.3049   -3.5668   11.2901 C   0  0  0  0  0  0  0  0  0  0  0  0
   -2.5914   -3.2597   10.9298 C   0  0  0  0  0  0  0  0  0  0  0  0
   -2.9519   -1.9885   10.6709 C   0  0  0  0  0  0  0  0  0  0  0  0
   -2.0278   -0.9268   10.7558 C   0  0  0  0  0  0  0  0  0  0  0  0
   -3.7742   -4.5945   10.7635 Cl  0  0  0  0  0  0  0  0  0  0  0  0
  1  2  3  0
  2  3  1  0
  3  4  2  0
  4  5  1  0
  5  6  2  0
  6  7  1  0
  7  8  2  0
  7  9  1  0
  9 10  1  0
 10 11  1  0
 11 12  1  0
 12 13  2  0
 12 14  1  0
 14 15  1  0
 15 16  1  0
 16 17  2  0
 17 18  1  0
 18 19  2  0
 19 20  1  0
 20 21  2  0
 19 22  1  0
 22 23  1  0
 22 24  1  0
 22 25  1  0
 14 26  1  0
 14 27  1  0
 10 28  1  1
  9 29  1  6
 29 30  1  0
 30 31  2  0
 31 32  1  0
 32 33  2  0
 33 34  1  0
 34 35  2  0
 33 36  1  0
  8  3  1  0
 21 16  1  0
 35 30  1  0
M  END
$$$$
