
     RDKit          3D

 36 38  0  0  0  0  0  0  0  0999 V2000
   -3.8964   -2.8390   12.5980 N   0  0  0  0  0  0  0  0  0  0  0  0
   -2.7062   -2.5861   12.5162 C   0  0  0  0  0  0  0  0  0  0  0  0
   -1.3172   -2.2909   12.3961 C   0  0  0  0  0  0  0  0  0  0  0  0
   -0.4133   -2.7247   13.3484 C   0  0  0  0  0  0  0  0  0  0  0  0
    0.9364   -2.4372   13.2634 C   0  0  0  0  0  0  0  0  0  0  0  0
    1.3177   -1.7011   12.1787 C   0  0  0  0  0  0  0  0  0  0  0  0
    0.5495   -1.2303   11.1805 C   0  0  0  0  0  0  0  0  0  0  0  0
   -0.8578   -1.5646   11.3390 C   0  0  0  0  0  0  0  0  0  0  0  0
    0.8259   -0.4090   10.0182 C   0  0  1  0  0  0  0  0  0  0  0  0
    1.5845    0.8499   10.3522 C   0  0  1  0  0  0  0  0  0  0  0  0
    2.9026    0.8117   10.8436 N   0  0  0  0  0  0  0  0  0  0  0  0
    3.2755    1.4992   12.0409 C   0  0  0  0  0  0  0  0  0  0  0  0
    2.2396    1.8566   12.7401 O   0  0  0  0  0  0  0  0  0  0  0  0
    4.5921    1.8434   12.5338 C   0  0  0  0  0  0  0  0  0  0  0  0
    4.8888    3.2009   12.7178 O   0  0  0  0  0  0  0  0  0  0  0  0
    4.7694    4.0774   11.6687 C   0  0  0  0  0  0  0  0  0  0  0  0
    5.0091    5.4220   11.5690 C   0  0  0  0  0  0  0  0  0  0  0  0
    4.8297    6.1776   10.4155 C   0  0  0  0  0  0  0  0  0  0  0  0
    4.3703    5.4831    9.2817 C   0  0  0  0  0  0  0  0  0  0  0  0
    4.1300    4.1526    9.3611 C   0  0  0  0  0  0  0  0  0  0  0  0
    4.3227    3.5038   10.4961 N   0  0  0  0  0  0  0  0  0  0  0  0
    4.1414    6.1696    7.9743 C   0  0  0  0  0  0  0  0  0  0  0  0
    2.9796    5.7317    7.4169 F   0  0  0  0  0  0  0  0  0  0  0  0
    5.1975    5.8616    7.1046 F   0  0  0  0  0  0  0  0  0  0  0  0
    4.1883    7.5196    8.2285 F   0  0  0  0  0  0  0  0  0  0  0  0
    4.5496    1.3410   14.0494 C   0  0  0  0  0  0  0  0  0  0  0  0
    5.7582    1.1064   11.9621 C   0  0  0  0  0  0  0  0  0  0  0  0
    1.4069    1.9204    9.2593 C   0  0  0  0  0  0  0  0  0  0  0  0
    1.1071   -0.9567    8.6988 C   0  0  0  0  0  0  0  0  0  0  0  0
    1.5744   -2.2954    8.4320 C   0  0  0  0  0  0  0  0  0  0  0  0
    1.9755   -3.0452    9.5512 C   0  0  0  0  0  0  0  0  0  0  0  0
    2.5774   -4.2865    9.4391 C   0  0  0  0  0  0  0  0  0  0  0  0
    2.7890   -4.7872    8.1806 C   0  0  0  0  0  0  0  0  0  0  0  0
    2.4142   -4.0937    7.0889 C   0  0  0  0  0  0  0  0  0  0  0  0
    1.7953   -2.8310    7.1925 C   0  0  0  0  0  0  0  0  0  0  0  0
    3.6198   -6.3655    8.0170 Cl  0  0  0  0  0  0  0  0  0  0  0  0
  1  2  3  0
  2  3  1  0
  3  4  2  0
  4  5  1  0
  5  6  2  0
  6  7  1  0
  7  8  2  0
  7  9  1  0
  9 10  1  0
 10 11  1  0
 11 12  1  0
 12 13  2  0
 12 14  1  0
 14 15  1  0
 15 16  1  0
 16 17  2  0
 17 18  1  0
 18 19  2  0
 19 20  1  0
 20 21  2  0
 19 22  1  0
 22 23  1  0
 22 24  1  0
 22 25  1  0
 14 26  1  0
 14 27  1  0
 10 28  1  6
  9 29  1  6
 29 30  1  0
 30 31  2  0
 31 32  1  0
 32 33  2  0
 33 34  1  0
 34 35  2  0
 33 36  1  0
  8  3  1  0
 21 16  1  0
 35 30  1  0
M  END
$$$$
