
     RDKit          3D

 36 38  0  0  0  0  0  0  0  0999 V2000
    5.4041   -4.5091    8.2805 N   0  0  0  0  0  0  0  0  0  0  0  0
    4.8922   -3.4170    8.4605 C   0  0  0  0  0  0  0  0  0  0  0  0
    4.2812   -2.1435    8.6499 C   0  0  0  0  0  0  0  0  0  0  0  0
    4.5083   -1.1071    7.7631 C   0  0  0  0  0  0  0  0  0  0  0  0
    3.9409    0.1421    7.9339 C   0  0  0  0  0  0  0  0  0  0  0  0
    3.1414    0.2841    9.0312 C   0  0  0  0  0  0  0  0  0  0  0  0
    2.8294   -0.6382    9.9588 C   0  0  0  0  0  0  0  0  0  0  0  0
    3.4661   -1.9244    9.7193 C   0  0  0  0  0  0  0  0  0  0  0  0
    2.0430   -0.5950   11.1759 C   0  0  1  0  0  0  0  0  0  0  0  0
    2.7606    0.0765   12.3187 C   0  0  1  0  0  0  0  0  0  0  0  0
    4.0041    0.7110   12.1414 N   0  0  0  0  0  0  0  0  0  0  0  0
    4.0978    2.1118   11.8691 C   0  0  0  0  0  0  0  0  0  0  0  0
    2.9522    2.7115   12.0019 O   0  0  0  0  0  0  0  0  0  0  0  0
    5.2450    2.8978   11.4677 C   0  0  0  0  0  0  0  0  0  0  0  0
    5.3143    3.3222   10.1336 O   0  0  0  0  0  0  0  0  0  0  0  0
    4.1881    3.7875    9.5025 C   0  0  0  0  0  0  0  0  0  0  0  0
    3.9942    4.3284    8.2594 C   0  0  0  0  0  0  0  0  0  0  0  0
    2.7697    4.7635    7.7645 C   0  0  0  0  0  0  0  0  0  0  0  0
    1.6653    4.6227    8.6244 C   0  0  0  0  0  0  0  0  0  0  0  0
    1.8377    4.0877    9.8566 C   0  0  0  0  0  0  0  0  0  0  0  0
    3.0359    3.6991   10.2563 N   0  0  0  0  0  0  0  0  0  0  0  0
    0.2898    5.0421    8.2181 C   0  0  0  0  0  0  0  0  0  0  0  0
    0.3328    6.2693    7.6313 F   0  0  0  0  0  0  0  0  0  0  0  0
   -0.5205    5.1215    9.3599 F   0  0  0  0  0  0  0  0  0  0  0  0
   -0.2058    4.0372    7.4219 F   0  0  0  0  0  0  0  0  0  0  0  0
    5.0019    4.2911   12.2100 C   0  0  0  0  0  0  0  0  0  0  0  0
    6.5846    2.4716   11.9712 C   0  0  0  0  0  0  0  0  0  0  0  0
    1.7959    0.9247   13.1682 C   0  0  0  0  0  0  0  0  0  0  0  0
    0.5957   -0.4365   11.1894 C   0  0  0  0  0  0  0  0  0  0  0  0
   -0.3622   -1.4859   10.9389 C   0  0  0  0  0  0  0  0  0  0  0  0
   -1.7161   -1.1107   10.9812 C   0  0  0  0  0  0  0  0  0  0  0  0
   -2.7468   -2.0312   10.9028 C   0  0  0  0  0  0  0  0  0  0  0  0
   -2.4175   -3.3567   10.7858 C   0  0  0  0  0  0  0  0  0  0  0  0
   -1.1297   -3.7475   10.7407 C   0  0  0  0  0  0  0  0  0  0  0  0
   -0.0726   -2.8173   10.8142 C   0  0  0  0  0  0  0  0  0  0  0  0
   -3.7388   -4.5652   10.7424 Cl  0  0  0  0  0  0  0  0  0  0  0  0
  1  2  3  0
  2  3  1  0
  3  4  2  0
  4  5  1  0
  5  6  2  0
  6  7  1  0
  7  8  2  0
  7  9  1  0
  9 10  1  0
 10 11  1  0
 11 12  1  0
 12 13  2  0
 12 14  1  0
 14 15  1  0
 15 16  1  0
 16 17  2  0
 17 18  1  0
 18 19  2  0
 19 20  1  0
 20 21  2  0
 19 22  1  0
 22 23  1  0
 22 24  1  0
 22 25  1  0
 14 26  1  0
 14 27  1  0
 10 28  1  6
  9 29  1  6
 29 30  1  0
 30 31  2  0
 31 32  1  0
 32 33  2  0
 33 34  1  0
 34 35  2  0
 33 36  1  0
  8  3  1  0
 21 16  1  0
 35 30  1  0
M  END
$$$$
