
     RDKit          3D

 36 38  0  0  0  0  0  0  0  0999 V2000
   -1.0110   -3.7699   14.4810 N   0  0  0  0  0  0  0  0  0  0  0  0
   -0.0864   -3.1463   13.9875 C   0  0  0  0  0  0  0  0  0  0  0  0
    0.9836   -2.3966   13.4184 C   0  0  0  0  0  0  0  0  0  0  0  0
    2.2475   -2.4239   13.9786 C   0  0  0  0  0  0  0  0  0  0  0  0
    3.2977   -1.6926   13.4554 C   0  0  0  0  0  0  0  0  0  0  0  0
    3.0066   -0.9459   12.3503 C   0  0  0  0  0  0  0  0  0  0  0  0
    1.8327   -0.8401   11.7028 C   0  0  0  0  0  0  0  0  0  0  0  0
    0.7735   -1.6301   12.3119 C   0  0  0  0  0  0  0  0  0  0  0  0
    1.3939   -0.0554   10.5655 C   0  0  1  0  0  0  0  0  0  0  0  0
    1.2090    1.4044   10.8919 C   0  0  1  0  0  0  0  0  0  0  0  0
    2.1626    2.1231   11.6367 N   0  0  0  0  0  0  0  0  0  0  0  0
    3.5660    1.9266   11.4442 C   0  0  0  0  0  0  0  0  0  0  0  0
    3.8661    0.6705   11.2960 O   0  0  0  0  0  0  0  0  0  0  0  0
    4.6371    2.8995   11.4140 C   0  0  0  0  0  0  0  0  0  0  0  0
    4.2973    4.2526   11.5496 O   0  0  0  0  0  0  0  0  0  0  0  0
    3.6372    4.8991   10.5350 C   0  0  0  0  0  0  0  0  0  0  0  0
    3.0145    6.1176   10.4799 C   0  0  0  0  0  0  0  0  0  0  0  0
    2.3758    6.6334    9.3577 C   0  0  0  0  0  0  0  0  0  0  0  0
    2.3883    5.8238    8.2072 C   0  0  0  0  0  0  0  0  0  0  0  0
    3.0014    4.6167    8.2424 C   0  0  0  0  0  0  0  0  0  0  0  0
    3.5857    4.1944    9.3499 N   0  0  0  0  0  0  0  0  0  0  0  0
    1.7464    6.2576    6.9295 C   0  0  0  0  0  0  0  0  0  0  0  0
    1.5049    7.5966    6.9623 F   0  0  0  0  0  0  0  0  0  0  0  0
    0.5238    5.5871    6.7808 F   0  0  0  0  0  0  0  0  0  0  0  0
    2.5768    5.8442    5.9151 F   0  0  0  0  0  0  0  0  0  0  0  0
    5.3926    2.6433   12.7978 C   0  0  0  0  0  0  0  0  0  0  0  0
    5.7137    2.7103   10.3967 C   0  0  0  0  0  0  0  0  0  0  0  0
    0.7172    2.1970    9.6665 C   0  0  0  0  0  0  0  0  0  0  0  0
    1.8123   -0.3245    9.1972 C   0  0  0  0  0  0  0  0  0  0  0  0
    1.6475   -1.5794    8.5044 C   0  0  0  0  0  0  0  0  0  0  0  0
    2.4964   -1.7952    7.4051 C   0  0  0  0  0  0  0  0  0  0  0  0
    2.3594   -2.8833    6.5608 C   0  0  0  0  0  0  0  0  0  0  0  0
    1.3477   -3.7723    6.8168 C   0  0  0  0  0  0  0  0  0  0  0  0
    0.5193   -3.5940    7.8632 C   0  0  0  0  0  0  0  0  0  0  0  0
    0.6539   -2.4919    8.7324 C   0  0  0  0  0  0  0  0  0  0  0  0
    1.1205   -5.1536    5.6993 Cl  0  0  0  0  0  0  0  0  0  0  0  0
  1  2  3  0
  2  3  1  0
  3  4  2  0
  4  5  1  0
  5  6  2  0
  6  7  1  0
  7  8  2  0
  7  9  1  0
  9 10  1  0
 10 11  1  0
 11 12  1  0
 12 13  2  0
 12 14  1  0
 14 15  1  0
 15 16  1  0
 16 17  2  0
 17 18  1  0
 18 19  2  0
 19 20  1  0
 20 21  2  0
 19 22  1  0
 22 23  1  0
 22 24  1  0
 22 25  1  0
 14 26  1  0
 14 27  1  0
 10 28  1  6
  9 29  1  6
 29 30  1  0
 30 31  2  0
 31 32  1  0
 32 33  2  0
 33 34  1  0
 34 35  2  0
 33 36  1  0
  8  3  1  0
 21 16  1  0
 35 30  1  0
M  END
$$$$
