
     RDKit          3D

 36 38  0  0  0  0  0  0  0  0999 V2000
    1.6666   -5.2424    8.4009 N   0  0  0  0  0  0  0  0  0  0  0  0
    1.3234   -4.1832    8.8983 C   0  0  0  0  0  0  0  0  0  0  0  0
    0.8992   -2.9539    9.4816 C   0  0  0  0  0  0  0  0  0  0  0  0
   -0.4410   -2.6993    9.7072 C   0  0  0  0  0  0  0  0  0  0  0  0
   -0.8791   -1.5083   10.2561 C   0  0  0  0  0  0  0  0  0  0  0  0
    0.0961   -0.6036   10.5626 C   0  0  0  0  0  0  0  0  0  0  0  0
    1.4261   -0.7285   10.4073 C   0  0  0  0  0  0  0  0  0  0  0  0
    1.8133   -2.0020    9.8194 C   0  0  0  0  0  0  0  0  0  0  0  0
    2.5415    0.1661   10.6465 C   0  0  1  0  0  0  0  0  0  0  0  0
    2.6735    1.2387    9.5959 C   0  0  1  0  0  0  0  0  0  0  0  0
    2.8266    2.5952    9.9379 N   0  0  0  0  0  0  0  0  0  0  0  0
    1.8069    3.3096   10.6415 C   0  0  0  0  0  0  0  0  0  0  0  0
    0.8583    2.5231   11.0554 O   0  0  0  0  0  0  0  0  0  0  0  0
    1.6980    4.7261   10.9184 C   0  0  0  0  0  0  0  0  0  0  0  0
    2.3531    5.6148   10.0549 O   0  0  0  0  0  0  0  0  0  0  0  0
    2.2805    5.4308    8.6970 C   0  0  0  0  0  0  0  0  0  0  0  0
    2.8076    6.1375    7.6491 C   0  0  0  0  0  0  0  0  0  0  0  0
    2.6332    5.8174    6.3072 C   0  0  0  0  0  0  0  0  0  0  0  0
    1.8561    4.6767    6.0353 C   0  0  0  0  0  0  0  0  0  0  0  0
    1.3286    3.9642    7.0591 C   0  0  0  0  0  0  0  0  0  0  0  0
    1.5377    4.3342    8.3103 N   0  0  0  0  0  0  0  0  0  0  0  0
    1.5945    4.2142    4.6387 C   0  0  0  0  0  0  0  0  0  0  0  0
    0.2537    4.1345    4.4193 F   0  0  0  0  0  0  0  0  0  0  0  0
    2.1513    2.9386    4.4672 F   0  0  0  0  0  0  0  0  0  0  0  0
    2.2661    5.0794    3.8083 F   0  0  0  0  0  0  0  0  0  0  0  0
    0.1720    5.0430   10.5685 C   0  0  0  0  0  0  0  0  0  0  0  0
    1.8203    5.1632   12.3409 C   0  0  0  0  0  0  0  0  0  0  0  0
    3.6412    0.8133    8.4759 C   0  0  0  0  0  0  0  0  0  0  0  0
    2.9807    0.5608   11.9773 C   0  0  0  0  0  0  0  0  0  0  0  0
    4.1612    0.0712   12.6471 C   0  0  0  0  0  0  0  0  0  0  0  0
    4.8571   -0.9629   11.9976 C   0  0  0  0  0  0  0  0  0  0  0  0
    5.9201   -1.6278   12.5835 C   0  0  0  0  0  0  0  0  0  0  0  0
    6.2924   -1.2555   13.8493 C   0  0  0  0  0  0  0  0  0  0  0  0
    5.6466   -0.2673   14.4969 C   0  0  0  0  0  0  0  0  0  0  0  0
    4.5661    0.4200   13.9066 C   0  0  0  0  0  0  0  0  0  0  0  0
    7.6280   -2.1457   14.6441 Cl  0  0  0  0  0  0  0  0  0  0  0  0
  1  2  3  0
  2  3  1  0
  3  4  2  0
  4  5  1  0
  5  6  2  0
  6  7  1  0
  7  8  2  0
  7  9  1  0
  9 10  1  0
 10 11  1  0
 11 12  1  0
 12 13  2  0
 12 14  1  0
 14 15  1  0
 15 16  1  0
 16 17  2  0
 17 18  1  0
 18 19  2  0
 19 20  1  0
 20 21  2  0
 19 22  1  0
 22 23  1  0
 22 24  1  0
 22 25  1  0
 14 26  1  0
 14 27  1  0
 10 28  1  1
  9 29  1  1
 29 30  1  0
 30 31  2  0
 31 32  1  0
 32 33  2  0
 33 34  1  0
 34 35  2  0
 33 36  1  0
  8  3  1  0
 21 16  1  0
 35 30  1  0
M  END
$$$$
