
     RDKit          3D

 36 38  0  0  0  0  0  0  0  0999 V2000
   -2.0116   -0.8666   13.0621 N   0  0  0  0  0  0  0  0  0  0  0  0
   -1.2749   -0.8292   12.0909 C   0  0  0  0  0  0  0  0  0  0  0  0
   -0.3958   -0.7775   10.9704 C   0  0  0  0  0  0  0  0  0  0  0  0
   -0.2333   -1.8735   10.1432 C   0  0  0  0  0  0  0  0  0  0  0  0
    0.6258   -1.8540    9.0600 C   0  0  0  0  0  0  0  0  0  0  0  0
    1.2993   -0.6836    8.8596 C   0  0  0  0  0  0  0  0  0  0  0  0
    1.2252    0.4525    9.5753 C   0  0  0  0  0  0  0  0  0  0  0  0
    0.3086    0.3571   10.7013 C   0  0  0  0  0  0  0  0  0  0  0  0
    1.9150    1.7249    9.4916 C   0  0  1  0  0  0  0  0  0  0  0  0
    2.6536    2.0800   10.7566 C   0  0  1  0  0  0  0  0  0  0  0  0
    3.8038    1.3789   11.1639 N   0  0  0  0  0  0  0  0  0  0  0  0
    3.7448    0.3628   12.1685 C   0  0  0  0  0  0  0  0  0  0  0  0
    2.6481    0.4281   12.8634 O   0  0  0  0  0  0  0  0  0  0  0  0
    4.7114   -0.6620   12.5006 C   0  0  0  0  0  0  0  0  0  0  0  0
    5.2177   -1.4482   11.4565 O   0  0  0  0  0  0  0  0  0  0  0  0
    4.3749   -2.2552   10.7346 C   0  0  0  0  0  0  0  0  0  0  0  0
    4.5182   -2.8742    9.5213 C   0  0  0  0  0  0  0  0  0  0  0  0
    3.5503   -3.6672    8.9148 C   0  0  0  0  0  0  0  0  0  0  0  0
    2.3461   -3.8311    9.6235 C   0  0  0  0  0  0  0  0  0  0  0  0
    2.1875   -3.2283   10.8258 C   0  0  0  0  0  0  0  0  0  0  0  0
    3.1550   -2.4867   11.3361 N   0  0  0  0  0  0  0  0  0  0  0  0
    1.2243   -4.6630    9.0923 C   0  0  0  0  0  0  0  0  0  0  0  0
    1.1946   -5.8647    9.7303 F   0  0  0  0  0  0  0  0  0  0  0  0
    1.4305   -4.8893    7.7238 F   0  0  0  0  0  0  0  0  0  0  0  0
    0.0824   -3.9093    9.2247 F   0  0  0  0  0  0  0  0  0  0  0  0
    6.0091    0.1831   12.8919 C   0  0  0  0  0  0  0  0  0  0  0  0
    4.4566   -1.4821   13.7222 C   0  0  0  0  0  0  0  0  0  0  0  0
    2.8262    3.6038   10.8984 C   0  0  0  0  0  0  0  0  0  0  0  0
    2.5269    2.2255    8.2690 C   0  0  0  0  0  0  0  0  0  0  0  0
    1.8674    3.0397    7.2771 C   0  0  0  0  0  0  0  0  0  0  0  0
    2.6520    3.4352    6.1801 C   0  0  0  0  0  0  0  0  0  0  0  0
    2.2010    4.3309    5.2262 C   0  0  0  0  0  0  0  0  0  0  0  0
    0.9401    4.8479    5.3751 C   0  0  0  0  0  0  0  0  0  0  0  0
    0.1635    4.4871    6.4142 C   0  0  0  0  0  0  0  0  0  0  0  0
    0.6115    3.5712    7.3882 C   0  0  0  0  0  0  0  0  0  0  0  0
    0.3638    6.0528    4.1816 Cl  0  0  0  0  0  0  0  0  0  0  0  0
  1  2  3  0
  2  3  1  0
  3  4  2  0
  4  5  1  0
  5  6  2  0
  6  7  1  0
  7  8  2  0
  7  9  1  0
  9 10  1  0
 10 11  1  0
 11 12  1  0
 12 13  2  0
 12 14  1  0
 14 15  1  0
 15 16  1  0
 16 17  2  0
 17 18  1  0
 18 19  2  0
 19 20  1  0
 20 21  2  0
 19 22  1  0
 22 23  1  0
 22 24  1  0
 22 25  1  0
 14 26  1  0
 14 27  1  0
 10 28  1  6
  9 29  1  6
 29 30  1  0
 30 31  2  0
 31 32  1  0
 32 33  2  0
 33 34  1  0
 34 35  2  0
 33 36  1  0
  8  3  1  0
 21 16  1  0
 35 30  1  0
M  END
$$$$
