
     RDKit          3D

 36 38  0  0  0  0  0  0  0  0999 V2000
    6.1677   -3.9396   10.4690 N   0  0  0  0  0  0  0  0  0  0  0  0
    5.1474   -3.3633   10.8067 C   0  0  0  0  0  0  0  0  0  0  0  0
    3.9595   -2.6960   11.2247 C   0  0  0  0  0  0  0  0  0  0  0  0
    3.3918   -2.9607   12.4574 C   0  0  0  0  0  0  0  0  0  0  0  0
    2.2310   -2.3391   12.8790 C   0  0  0  0  0  0  0  0  0  0  0  0
    1.6849   -1.4471   12.0018 C   0  0  0  0  0  0  0  0  0  0  0  0
    2.1380   -1.0906   10.7869 C   0  0  0  0  0  0  0  0  0  0  0  0
    3.3572   -1.7881   10.4069 C   0  0  0  0  0  0  0  0  0  0  0  0
    1.6287   -0.2050    9.7583 C   0  0  1  0  0  0  0  0  0  0  0  0
    1.7802    1.2535   10.1073 C   0  0  1  0  0  0  0  0  0  0  0  0
    2.7528    1.6987   11.0218 N   0  0  0  0  0  0  0  0  0  0  0  0
    2.4824    1.7759   12.4240 C   0  0  0  0  0  0  0  0  0  0  0  0
    1.2220    1.5971   12.6875 O   0  0  0  0  0  0  0  0  0  0  0  0
    3.3871    2.0327   13.5242 C   0  0  0  0  0  0  0  0  0  0  0  0
    4.3118    3.0764   13.3821 O   0  0  0  0  0  0  0  0  0  0  0  0
    4.8633    3.3419   12.1540 C   0  0  0  0  0  0  0  0  0  0  0  0
    5.7817    4.2722   11.7459 C   0  0  0  0  0  0  0  0  0  0  0  0
    6.2395    4.4173   10.4409 C   0  0  0  0  0  0  0  0  0  0  0  0
    5.7054    3.5275    9.4913 C   0  0  0  0  0  0  0  0  0  0  0  0
    4.7977    2.5993    9.8771 C   0  0  0  0  0  0  0  0  0  0  0  0
    4.4100    2.5255   11.1383 N   0  0  0  0  0  0  0  0  0  0  0  0
    6.1146    3.5668    8.0547 C   0  0  0  0  0  0  0  0  0  0  0  0
    6.6041    4.7982    7.7447 F   0  0  0  0  0  0  0  0  0  0  0  0
    4.9920    3.3177    7.2520 F   0  0  0  0  0  0  0  0  0  0  0  0
    6.9985    2.5301    7.8718 F   0  0  0  0  0  0  0  0  0  0  0  0
    2.4246    2.6396   14.6451 C   0  0  0  0  0  0  0  0  0  0  0  0
    4.0011    0.8531   14.2033 C   0  0  0  0  0  0  0  0  0  0  0  0
    1.7201    2.1419    8.8507 C   0  0  0  0  0  0  0  0  0  0  0  0
    1.7077   -0.5012    8.3350 C   0  0  0  0  0  0  0  0  0  0  0  0
    0.9788   -1.5456    7.6571 C   0  0  0  0  0  0  0  0  0  0  0  0
    0.1551   -2.3492    8.4641 C   0  0  0  0  0  0  0  0  0  0  0  0
   -0.4909   -3.4742    7.9817 C   0  0  0  0  0  0  0  0  0  0  0  0
   -0.3049   -3.8073    6.6650 C   0  0  0  0  0  0  0  0  0  0  0  0
    0.4766   -3.0565    5.8659 C   0  0  0  0  0  0  0  0  0  0  0  0
    1.1346   -1.9055    6.3463 C   0  0  0  0  0  0  0  0  0  0  0  0
   -1.0867   -5.2929    6.0404 Cl  0  0  0  0  0  0  0  0  0  0  0  0
  1  2  3  0
  2  3  1  0
  3  4  2  0
  4  5  1  0
  5  6  2  0
  6  7  1  0
  7  8  2  0
  7  9  1  0
  9 10  1  0
 10 11  1  0
 11 12  1  0
 12 13  2  0
 12 14  1  0
 14 15  1  0
 15 16  1  0
 16 17  2  0
 17 18  1  0
 18 19  2  0
 19 20  1  0
 20 21  2  0
 19 22  1  0
 22 23  1  0
 22 24  1  0
 22 25  1  0
 14 26  1  0
 14 27  1  0
 10 28  1  6
  9 29  1  6
 29 30  1  0
 30 31  2  0
 31 32  1  0
 32 33  2  0
 33 34  1  0
 34 35  2  0
 33 36  1  0
  8  3  1  0
 21 16  1  0
 35 30  1  0
M  END
$$$$
