
     RDKit          3D

 36 38  0  0  0  0  0  0  0  0999 V2000
    4.7134   -4.9922   14.3720 N   0  0  0  0  0  0  0  0  0  0  0  0
    4.7513   -4.1185   13.5220 C   0  0  0  0  0  0  0  0  0  0  0  0
    4.8024   -3.1142   12.5121 C   0  0  0  0  0  0  0  0  0  0  0  0
    5.7819   -3.1366   11.5363 C   0  0  0  0  0  0  0  0  0  0  0  0
    5.8629   -2.1650   10.5560 C   0  0  0  0  0  0  0  0  0  0  0  0
    4.9131   -1.1862   10.6126 C   0  0  0  0  0  0  0  0  0  0  0  0
    3.9057   -1.0538   11.4935 C   0  0  0  0  0  0  0  0  0  0  0  0
    3.8863   -2.1061   12.4983 C   0  0  0  0  0  0  0  0  0  0  0  0
    2.8787   -0.0482   11.6829 C   0  0  1  0  0  0  0  0  0  0  0  0
    3.4375    1.3075   12.0316 C   0  0  1  0  0  0  0  0  0  0  0  0
    3.4717    2.3573   11.0950 N   0  0  0  0  0  0  0  0  0  0  0  0
    2.3185    3.1597   10.8272 C   0  0  0  0  0  0  0  0  0  0  0  0
    1.3586    2.9306   11.6734 O   0  0  0  0  0  0  0  0  0  0  0  0
    2.0944    4.1292    9.7762 C   0  0  0  0  0  0  0  0  0  0  0  0
    3.1088    4.3123    8.8264 O   0  0  0  0  0  0  0  0  0  0  0  0
    4.0617    5.2809    9.0187 C   0  0  0  0  0  0  0  0  0  0  0  0
    4.6109    6.2044    8.1696 C   0  0  0  0  0  0  0  0  0  0  0  0
    5.5880    7.1279    8.5246 C   0  0  0  0  0  0  0  0  0  0  0  0
    6.0237    7.0901    9.8617 C   0  0  0  0  0  0  0  0  0  0  0  0
    5.4902    6.1850   10.7163 C   0  0  0  0  0  0  0  0  0  0  0  0
    4.5651    5.3370   10.3020 N   0  0  0  0  0  0  0  0  0  0  0  0
    7.0631    8.0301   10.3803 C   0  0  0  0  0  0  0  0  0  0  0  0
    7.9050    7.3723   11.2233 F   0  0  0  0  0  0  0  0  0  0  0  0
    6.4335    9.0608   11.0928 F   0  0  0  0  0  0  0  0  0  0  0  0
    7.6673    8.5900    9.2799 F   0  0  0  0  0  0  0  0  0  0  0  0
    0.9710    3.4322    8.8798 C   0  0  0  0  0  0  0  0  0  0  0  0
    1.4683    5.4298   10.1583 C   0  0  0  0  0  0  0  0  0  0  0  0
    2.9447    1.7812   13.4116 C   0  0  0  0  0  0  0  0  0  0  0  0
    1.6377   -0.0174   10.9221 C   0  0  0  0  0  0  0  0  0  0  0  0
    1.1526   -1.0768   10.0712 C   0  0  0  0  0  0  0  0  0  0  0  0
    2.1277   -1.7843    9.3471 C   0  0  0  0  0  0  0  0  0  0  0  0
    1.8041   -2.7273    8.3871 C   0  0  0  0  0  0  0  0  0  0  0  0
    0.4766   -2.9643    8.1405 C   0  0  0  0  0  0  0  0  0  0  0  0
   -0.4809   -2.3041    8.8189 C   0  0  0  0  0  0  0  0  0  0  0  0
   -0.1618   -1.3456    9.8027 C   0  0  0  0  0  0  0  0  0  0  0  0
    0.0414   -4.1388    6.8601 Cl  0  0  0  0  0  0  0  0  0  0  0  0
  1  2  3  0
  2  3  1  0
  3  4  2  0
  4  5  1  0
  5  6  2  0
  6  7  1  0
  7  8  2  0
  7  9  1  0
  9 10  1  0
 10 11  1  0
 11 12  1  0
 12 13  2  0
 12 14  1  0
 14 15  1  0
 15 16  1  0
 16 17  2  0
 17 18  1  0
 18 19  2  0
 19 20  1  0
 20 21  2  0
 19 22  1  0
 22 23  1  0
 22 24  1  0
 22 25  1  0
 14 26  1  0
 14 27  1  0
 10 28  1  1
  9 29  1  6
 29 30  1  0
 30 31  2  0
 31 32  1  0
 32 33  2  0
 33 34  1  0
 34 35  2  0
 33 36  1  0
  8  3  1  0
 21 16  1  0
 35 30  1  0
M  END
$$$$
