
     RDKit          3D

 36 38  0  0  0  0  0  0  0  0999 V2000
    0.8142    6.0542    5.9593 N   0  0  0  0  0  0  0  0  0  0  0  0
    0.7890    5.3709    6.9690 C   0  0  0  0  0  0  0  0  0  0  0  0
    0.7378    4.5631    8.1420 C   0  0  0  0  0  0  0  0  0  0  0  0
   -0.0969    4.8903    9.1947 C   0  0  0  0  0  0  0  0  0  0  0  0
   -0.1525    4.1325   10.3497 C   0  0  0  0  0  0  0  0  0  0  0  0
    0.6667    3.0410   10.3816 C   0  0  0  0  0  0  0  0  0  0  0  0
    1.5113    2.6060    9.4298 C   0  0  0  0  0  0  0  0  0  0  0  0
    1.5222    3.4543    8.2477 C   0  0  0  0  0  0  0  0  0  0  0  0
    2.4536    1.5061    9.3665 C   0  0  1  0  0  0  0  0  0  0  0  0
    3.8523    1.9039    9.7631 C   0  0  1  0  0  0  0  0  0  0  0  0
    4.1937    2.1748   11.1012 N   0  0  0  0  0  0  0  0  0  0  0  0
    4.2160    3.5101   11.6127 C   0  0  0  0  0  0  0  0  0  0  0  0
    3.9793    4.3906   10.6861 O   0  0  0  0  0  0  0  0  0  0  0  0
    4.4737    3.9773   12.9581 C   0  0  0  0  0  0  0  0  0  0  0  0
    3.6623    3.4849   13.9895 O   0  0  0  0  0  0  0  0  0  0  0  0
    3.0372    2.2712   13.8505 C   0  0  0  0  0  0  0  0  0  0  0  0
    1.8347    1.8041   14.3103 C   0  0  0  0  0  0  0  0  0  0  0  0
    1.3402    0.5245   14.0834 C   0  0  0  0  0  0  0  0  0  0  0  0
    2.1547   -0.3312   13.3196 C   0  0  0  0  0  0  0  0  0  0  0  0
    3.3461    0.1143   12.8545 C   0  0  0  0  0  0  0  0  0  0  0  0
    3.7486    1.3458   13.1149 N   0  0  0  0  0  0  0  0  0  0  0  0
    1.7430   -1.7302   12.9936 C   0  0  0  0  0  0  0  0  0  0  0  0
    2.2364   -2.5890   13.9270 F   0  0  0  0  0  0  0  0  0  0  0  0
    2.2680   -2.0819   11.7418 F   0  0  0  0  0  0  0  0  0  0  0  0
    0.3728   -1.7189   12.8849 F   0  0  0  0  0  0  0  0  0  0  0  0
    5.8658    3.2819   13.3181 C   0  0  0  0  0  0  0  0  0  0  0  0
    4.7605    5.4312   13.1413 C   0  0  0  0  0  0  0  0  0  0  0  0
    4.9066    1.0245    9.0653 C   0  0  0  0  0  0  0  0  0  0  0  0
    2.1003    0.1293    9.6818 C   0  0  0  0  0  0  0  0  0  0  0  0
    1.4018   -0.7765    8.8025 C   0  0  0  0  0  0  0  0  0  0  0  0
    1.7196   -2.1389    8.9384 C   0  0  0  0  0  0  0  0  0  0  0  0
    1.2394   -3.1056    8.0721 C   0  0  0  0  0  0  0  0  0  0  0  0
    0.4287   -2.7014    7.0432 C   0  0  0  0  0  0  0  0  0  0  0  0
    0.1046   -1.4038    6.8876 C   0  0  0  0  0  0  0  0  0  0  0  0
    0.5839   -0.4121    7.7679 C   0  0  0  0  0  0  0  0  0  0  0  0
   -0.1531   -3.9322    5.8792 Cl  0  0  0  0  0  0  0  0  0  0  0  0
  1  2  3  0
  2  3  1  0
  3  4  2  0
  4  5  1  0
  5  6  2  0
  6  7  1  0
  7  8  2  0
  7  9  1  0
  9 10  1  0
 10 11  1  0
 11 12  1  0
 12 13  2  0
 12 14  1  0
 14 15  1  0
 15 16  1  0
 16 17  2  0
 17 18  1  0
 18 19  2  0
 19 20  1  0
 20 21  2  0
 19 22  1  0
 22 23  1  0
 22 24  1  0
 22 25  1  0
 14 26  1  0
 14 27  1  0
 10 28  1  1
  9 29  1  1
 29 30  1  0
 30 31  2  0
 31 32  1  0
 32 33  2  0
 33 34  1  0
 34 35  2  0
 33 36  1  0
  8  3  1  0
 21 16  1  0
 35 30  1  0
M  END
$$$$
