
     RDKit          3D

 36 38  0  0  0  0  0  0  0  0999 V2000
    5.3024   -2.0658   13.7659 N   0  0  0  0  0  0  0  0  0  0  0  0
    4.1610   -2.0984   13.3377 C   0  0  0  0  0  0  0  0  0  0  0  0
    2.8220   -2.1160   12.8500 C   0  0  0  0  0  0  0  0  0  0  0  0
    1.8967   -3.0163   13.3456 C   0  0  0  0  0  0  0  0  0  0  0  0
    0.5967   -3.0646   12.8774 C   0  0  0  0  0  0  0  0  0  0  0  0
    0.2864   -2.1655   11.8981 C   0  0  0  0  0  0  0  0  0  0  0  0
    1.0810   -1.2350   11.3401 C   0  0  0  0  0  0  0  0  0  0  0  0
    2.4338   -1.2465   11.8758 C   0  0  0  0  0  0  0  0  0  0  0  0
    0.8837   -0.2705   10.2760 C   0  0  1  0  0  0  0  0  0  0  0  0
    0.6530    1.1297   10.7840 C   0  0  1  0  0  0  0  0  0  0  0  0
    1.6595    2.1118   10.7309 N   0  0  0  0  0  0  0  0  0  0  0  0
    3.0456    1.7620   10.6908 C   0  0  0  0  0  0  0  0  0  0  0  0
    3.2217    0.4754   10.6325 O   0  0  0  0  0  0  0  0  0  0  0  0
    4.2130    2.6169   10.7239 C   0  0  0  0  0  0  0  0  0  0  0  0
    4.0092    4.0031   10.7640 O   0  0  0  0  0  0  0  0  0  0  0  0
    3.1923    4.6033    9.8392 C   0  0  0  0  0  0  0  0  0  0  0  0
    2.5589    5.8175    9.8301 C   0  0  0  0  0  0  0  0  0  0  0  0
    1.7471    6.2825    8.8013 C   0  0  0  0  0  0  0  0  0  0  0  0
    1.5847    5.4228    7.6997 C   0  0  0  0  0  0  0  0  0  0  0  0
    2.2053    4.2191    7.6902 C   0  0  0  0  0  0  0  0  0  0  0  0
    2.9603    3.8468    8.7089 N   0  0  0  0  0  0  0  0  0  0  0  0
    0.7459    5.7990    6.5216 C   0  0  0  0  0  0  0  0  0  0  0  0
    1.4121    5.5181    5.3685 F   0  0  0  0  0  0  0  0  0  0  0  0
    0.4887    7.1769    6.5641 F   0  0  0  0  0  0  0  0  0  0  0  0
   -0.4534    5.1443    6.6710 F   0  0  0  0  0  0  0  0  0  0  0  0
    4.8026    2.3613   12.1862 C   0  0  0  0  0  0  0  0  0  0  0  0
    5.3542    2.2625    9.8286 C   0  0  0  0  0  0  0  0  0  0  0  0
   -0.7118    1.6768   10.3257 C   0  0  0  0  0  0  0  0  0  0  0  0
    1.5616   -0.3468    8.9897 C   0  0  0  0  0  0  0  0  0  0  0  0
    1.5881   -1.5025    8.1264 C   0  0  0  0  0  0  0  0  0  0  0  0
    2.2811   -1.3524    6.9128 C   0  0  0  0  0  0  0  0  0  0  0  0
    2.2714   -2.3216    5.9248 C   0  0  0  0  0  0  0  0  0  0  0  0
    1.5481   -3.4638    6.1518 C   0  0  0  0  0  0  0  0  0  0  0  0
    0.8752   -3.6380    7.3050 C   0  0  0  0  0  0  0  0  0  0  0  0
    0.8832   -2.6591    8.3199 C   0  0  0  0  0  0  0  0  0  0  0  0
    1.4776   -4.7020    4.8594 Cl  0  0  0  0  0  0  0  0  0  0  0  0
  1  2  3  0
  2  3  1  0
  3  4  2  0
  4  5  1  0
  5  6  2  0
  6  7  1  0
  7  8  2  0
  7  9  1  0
  9 10  1  0
 10 11  1  0
 11 12  1  0
 12 13  2  0
 12 14  1  0
 14 15  1  0
 15 16  1  0
 16 17  2  0
 17 18  1  0
 18 19  2  0
 19 20  1  0
 20 21  2  0
 19 22  1  0
 22 23  1  0
 22 24  1  0
 22 25  1  0
 14 26  1  0
 14 27  1  0
 10 28  1  6
  9 29  1  6
 29 30  1  0
 30 31  2  0
 31 32  1  0
 32 33  2  0
 33 34  1  0
 34 35  2  0
 33 36  1  0
  8  3  1  0
 21 16  1  0
 35 30  1  0
M  END
$$$$
