
     RDKit          3D

 36 38  0  0  0  0  0  0  0  0999 V2000
    7.4487   -0.9918   16.4714 N   0  0  0  0  0  0  0  0  0  0  0  0
    6.6201   -1.3729   15.6619 C   0  0  0  0  0  0  0  0  0  0  0  0
    5.6645   -1.8073   14.6979 C   0  0  0  0  0  0  0  0  0  0  0  0
    5.4035   -3.1524   14.5118 C   0  0  0  0  0  0  0  0  0  0  0  0
    4.4936   -3.5998   13.5719 C   0  0  0  0  0  0  0  0  0  0  0  0
    3.8692   -2.6288   12.8433 C   0  0  0  0  0  0  0  0  0  0  0  0
    4.0202   -1.2954   12.9313 C   0  0  0  0  0  0  0  0  0  0  0  0
    4.9962   -0.8981   13.9345 C   0  0  0  0  0  0  0  0  0  0  0  0
    3.4585   -0.1822   12.1918 C   0  0  1  0  0  0  0  0  0  0  0  0
    3.4947   -0.3870   10.6989 C   0  0  1  0  0  0  0  0  0  0  0  0
    2.6370    0.3175    9.8339 N   0  0  0  0  0  0  0  0  0  0  0  0
    2.9470    1.6397    9.3854 C   0  0  0  0  0  0  0  0  0  0  0  0
    4.0344    2.0969    9.9316 O   0  0  0  0  0  0  0  0  0  0  0  0
    2.2281    2.4918    8.4625 C   0  0  0  0  0  0  0  0  0  0  0  0
    0.9157    2.1328    8.1256 O   0  0  0  0  0  0  0  0  0  0  0  0
    0.6848    1.0188    7.3584 C   0  0  0  0  0  0  0  0  0  0  0  0
   -0.4666    0.4878    6.8406 C   0  0  0  0  0  0  0  0  0  0  0  0
   -0.5329   -0.6712    6.0753 C   0  0  0  0  0  0  0  0  0  0  0  0
    0.6883   -1.3244    5.8277 C   0  0  0  0  0  0  0  0  0  0  0  0
    1.8372   -0.8125    6.3298 C   0  0  0  0  0  0  0  0  0  0  0  0
    1.8182    0.2944    7.0514 N   0  0  0  0  0  0  0  0  0  0  0  0
    0.7637   -2.5754    5.0141 C   0  0  0  0  0  0  0  0  0  0  0  0
    2.0433   -2.7836    4.5999 F   0  0  0  0  0  0  0  0  0  0  0  0
   -0.0543   -2.4363    3.8836 F   0  0  0  0  0  0  0  0  0  0  0  0
    0.2367   -3.5792    5.7913 F   0  0  0  0  0  0  0  0  0  0  0  0
    1.9630    3.8101    9.3246 C   0  0  0  0  0  0  0  0  0  0  0  0
    2.9718    3.0048    7.2736 C   0  0  0  0  0  0  0  0  0  0  0  0
    4.9411   -0.4264   10.1715 C   0  0  0  0  0  0  0  0  0  0  0  0
    2.3355    0.6119   12.6696 C   0  0  0  0  0  0  0  0  0  0  0  0
    2.3284    1.4111   13.8709 C   0  0  0  0  0  0  0  0  0  0  0  0
    3.0030    2.6421   13.7991 C   0  0  0  0  0  0  0  0  0  0  0  0
    3.2026    3.4477   14.9066 C   0  0  0  0  0  0  0  0  0  0  0  0
    2.7230    3.0107   16.1143 C   0  0  0  0  0  0  0  0  0  0  0  0
    2.0709    1.8370   16.2151 C   0  0  0  0  0  0  0  0  0  0  0  0
    1.8576    1.0117   15.0919 C   0  0  0  0  0  0  0  0  0  0  0  0
    3.0246    4.0137   17.5673 Cl  0  0  0  0  0  0  0  0  0  0  0  0
  1  2  3  0
  2  3  1  0
  3  4  2  0
  4  5  1  0
  5  6  2  0
  6  7  1  0
  7  8  2  0
  7  9  1  0
  9 10  1  0
 10 11  1  0
 11 12  1  0
 12 13  2  0
 12 14  1  0
 14 15  1  0
 15 16  1  0
 16 17  2  0
 17 18  1  0
 18 19  2  0
 19 20  1  0
 20 21  2  0
 19 22  1  0
 22 23  1  0
 22 24  1  0
 22 25  1  0
 14 26  1  0
 14 27  1  0
 10 28  1  6
  9 29  1  1
 29 30  1  0
 30 31  2  0
 31 32  1  0
 32 33  2  0
 33 34  1  0
 34 35  2  0
 33 36  1  0
  8  3  1  0
 21 16  1  0
 35 30  1  0
M  END
$$$$
