
     RDKit          3D

 36 38  0  0  0  0  0  0  0  0999 V2000
    4.8448   -6.2122   10.6664 N   0  0  0  0  0  0  0  0  0  0  0  0
    4.4562   -5.0874   10.4002 C   0  0  0  0  0  0  0  0  0  0  0  0
    4.0132   -3.7744   10.0671 C   0  0  0  0  0  0  0  0  0  0  0  0
    4.4442   -3.1507    8.9108 C   0  0  0  0  0  0  0  0  0  0  0  0
    4.0422   -1.8715    8.5738 C   0  0  0  0  0  0  0  0  0  0  0  0
    3.1916   -1.2671    9.4540 C   0  0  0  0  0  0  0  0  0  0  0  0
    2.6893   -1.7616   10.5992 C   0  0  0  0  0  0  0  0  0  0  0  0
    3.1598   -3.1069   10.8929 C   0  0  0  0  0  0  0  0  0  0  0  0
    1.8294   -1.2078   11.6265 C   0  0  1  0  0  0  0  0  0  0  0  0
    2.5799   -0.3918   12.6476 C   0  0  1  0  0  0  0  0  0  0  0  0
    2.9309    0.9501   12.4101 N   0  0  0  0  0  0  0  0  0  0  0  0
    4.2422    1.3146   11.9711 C   0  0  0  0  0  0  0  0  0  0  0  0
    5.0084    0.2767   11.8112 O   0  0  0  0  0  0  0  0  0  0  0  0
    4.7965    2.6268   11.7145 C   0  0  0  0  0  0  0  0  0  0  0  0
    4.4894    3.2403   10.4922 O   0  0  0  0  0  0  0  0  0  0  0  0
    3.6921    2.5939    9.5815 C   0  0  0  0  0  0  0  0  0  0  0  0
    3.8151    2.4044    8.2307 C   0  0  0  0  0  0  0  0  0  0  0  0
    2.9007    1.7193    7.4381 C   0  0  0  0  0  0  0  0  0  0  0  0
    1.7776    1.1898    8.0993 C   0  0  0  0  0  0  0  0  0  0  0  0
    1.6404    1.3654    9.4352 C   0  0  0  0  0  0  0  0  0  0  0  0
    2.5531    2.0317   10.1203 N   0  0  0  0  0  0  0  0  0  0  0  0
    0.7205    0.4249    7.3711 C   0  0  0  0  0  0  0  0  0  0  0  0
    1.1317   -0.8563    7.1670 F   0  0  0  0  0  0  0  0  0  0  0  0
    0.4977    1.0261    6.1239 F   0  0  0  0  0  0  0  0  0  0  0  0
   -0.4321    0.5519    8.1091 F   0  0  0  0  0  0  0  0  0  0  0  0
    3.9881    3.5612   12.7268 C   0  0  0  0  0  0  0  0  0  0  0  0
    6.2209    2.8616   12.0960 C   0  0  0  0  0  0  0  0  0  0  0  0
    2.0075   -0.5967   14.0626 C   0  0  0  0  0  0  0  0  0  0  0  0
    0.4657   -0.7634   11.3759 C   0  0  0  0  0  0  0  0  0  0  0  0
   -0.6762   -1.6280   11.2013 C   0  0  0  0  0  0  0  0  0  0  0  0
   -0.3951   -2.9886   10.9886 C   0  0  0  0  0  0  0  0  0  0  0  0
   -1.3759   -3.9098   10.6643 C   0  0  0  0  0  0  0  0  0  0  0  0
   -2.6654   -3.4604   10.5437 C   0  0  0  0  0  0  0  0  0  0  0  0
   -2.9667   -2.1633   10.7432 C   0  0  0  0  0  0  0  0  0  0  0  0
   -1.9758   -1.2181   11.0793 C   0  0  0  0  0  0  0  0  0  0  0  0
   -3.9367   -4.6286   10.0670 Cl  0  0  0  0  0  0  0  0  0  0  0  0
  1  2  3  0
  2  3  1  0
  3  4  2  0
  4  5  1  0
  5  6  2  0
  6  7  1  0
  7  8  2  0
  7  9  1  0
  9 10  1  0
 10 11  1  0
 11 12  1  0
 12 13  2  0
 12 14  1  0
 14 15  1  0
 15 16  1  0
 16 17  2  0
 17 18  1  0
 18 19  2  0
 19 20  1  0
 20 21  2  0
 19 22  1  0
 22 23  1  0
 22 24  1  0
 22 25  1  0
 14 26  1  0
 14 27  1  0
 10 28  1  1
  9 29  1  6
 29 30  1  0
 30 31  2  0
 31 32  1  0
 32 33  2  0
 33 34  1  0
 34 35  2  0
 33 36  1  0
  8  3  1  0
 21 16  1  0
 35 30  1  0
M  END
$$$$
