
     RDKit          3D

 36 38  0  0  0  0  0  0  0  0999 V2000
    2.5469   -4.1752   13.1695 N   0  0  0  0  0  0  0  0  0  0  0  0
    2.4495   -4.0090   11.9653 C   0  0  0  0  0  0  0  0  0  0  0  0
    2.3390   -3.8390   10.5546 C   0  0  0  0  0  0  0  0  0  0  0  0
    2.4635   -4.9164    9.6968 C   0  0  0  0  0  0  0  0  0  0  0  0
    2.3770   -4.7750    8.3242 C   0  0  0  0  0  0  0  0  0  0  0  0
    2.1582   -3.5055    7.8725 C   0  0  0  0  0  0  0  0  0  0  0  0
    2.0070   -2.3801    8.5929 C   0  0  0  0  0  0  0  0  0  0  0  0
    2.1164   -2.6031   10.0266 C   0  0  0  0  0  0  0  0  0  0  0  0
    1.8208   -0.9883    8.2322 C   0  0  1  0  0  0  0  0  0  0  0  0
    3.0941   -0.3206    7.7798 C   0  0  1  0  0  0  0  0  0  0  0  0
    3.3766    1.0225    8.0909 N   0  0  0  0  0  0  0  0  0  0  0  0
    2.7210    1.6952    9.1692 C   0  0  0  0  0  0  0  0  0  0  0  0
    1.8845    0.9185    9.7911 O   0  0  0  0  0  0  0  0  0  0  0  0
    2.8536    3.0651    9.6173 C   0  0  0  0  0  0  0  0  0  0  0  0
    4.1063    3.4823   10.0877 O   0  0  0  0  0  0  0  0  0  0  0  0
    4.6794    2.8527   11.1638 C   0  0  0  0  0  0  0  0  0  0  0  0
    5.7774    3.1578   11.9234 C   0  0  0  0  0  0  0  0  0  0  0  0
    6.2378    2.4002   12.9947 C   0  0  0  0  0  0  0  0  0  0  0  0
    5.5001    1.2420   13.3005 C   0  0  0  0  0  0  0  0  0  0  0  0
    4.4101    0.9257   12.5617 C   0  0  0  0  0  0  0  0  0  0  0  0
    4.0364    1.6965   11.5554 N   0  0  0  0  0  0  0  0  0  0  0  0
    5.8783    0.3405   14.4306 C   0  0  0  0  0  0  0  0  0  0  0  0
    6.0151    1.0634   15.5756 F   0  0  0  0  0  0  0  0  0  0  0  0
    7.1069   -0.2691   14.1384 F   0  0  0  0  0  0  0  0  0  0  0  0
    4.9225   -0.6461   14.4801 F   0  0  0  0  0  0  0  0  0  0  0  0
    2.7548    3.8977    8.2578 C   0  0  0  0  0  0  0  0  0  0  0  0
    1.7476    3.6309   10.4457 C   0  0  0  0  0  0  0  0  0  0  0  0
    4.3158   -1.2326    7.9976 C   0  0  0  0  0  0  0  0  0  0  0  0
    0.6103   -0.4786    7.6040 C   0  0  0  0  0  0  0  0  0  0  0  0
   -0.7159   -0.5457    8.1683 C   0  0  0  0  0  0  0  0  0  0  0  0
   -0.7958   -0.9384    9.5156 C   0  0  0  0  0  0  0  0  0  0  0  0
   -2.0014   -1.1849   10.1492 C   0  0  0  0  0  0  0  0  0  0  0  0
   -3.1526   -1.0422    9.4187 C   0  0  0  0  0  0  0  0  0  0  0  0
   -3.1090   -0.6656    8.1267 C   0  0  0  0  0  0  0  0  0  0  0  0
   -1.8864   -0.4066    7.4736 C   0  0  0  0  0  0  0  0  0  0  0  0
   -4.7171   -1.4145   10.2074 Cl  0  0  0  0  0  0  0  0  0  0  0  0
  1  2  3  0
  2  3  1  0
  3  4  2  0
  4  5  1  0
  5  6  2  0
  6  7  1  0
  7  8  2  0
  7  9  1  0
  9 10  1  0
 10 11  1  0
 11 12  1  0
 12 13  2  0
 12 14  1  0
 14 15  1  0
 15 16  1  0
 16 17  2  0
 17 18  1  0
 18 19  2  0
 19 20  1  0
 20 21  2  0
 19 22  1  0
 22 23  1  0
 22 24  1  0
 22 25  1  0
 14 26  1  0
 14 27  1  0
 10 28  1  1
  9 29  1  6
 29 30  1  0
 30 31  2  0
 31 32  1  0
 32 33  2  0
 33 34  1  0
 34 35  2  0
 33 36  1  0
  8  3  1  0
 21 16  1  0
 35 30  1  0
M  END
$$$$
