
     RDKit          3D

 36 38  0  0  0  0  0  0  0  0999 V2000
    4.5122    4.4642   17.0722 N   0  0  0  0  0  0  0  0  0  0  0  0
    4.7985    4.0404   15.9651 C   0  0  0  0  0  0  0  0  0  0  0  0
    5.1128    3.5313   14.6716 C   0  0  0  0  0  0  0  0  0  0  0  0
    6.3313    3.8035   14.0773 C   0  0  0  0  0  0  0  0  0  0  0  0
    6.6535    3.3355   12.8169 C   0  0  0  0  0  0  0  0  0  0  0  0
    5.6932    2.5864   12.2002 C   0  0  0  0  0  0  0  0  0  0  0  0
    4.4807    2.2393   12.6671 C   0  0  0  0  0  0  0  0  0  0  0  0
    4.2080    2.7714   13.9936 C   0  0  0  0  0  0  0  0  0  0  0  0
    3.3719    1.5001   12.0964 C   0  0  1  0  0  0  0  0  0  0  0  0
    3.0235    0.2605   12.8799 C   0  0  1  0  0  0  0  0  0  0  0  0
    1.7039   -0.2230   12.9524 N   0  0  0  0  0  0  0  0  0  0  0  0
    1.1126   -0.9504   11.8724 C   0  0  0  0  0  0  0  0  0  0  0  0
    1.9977   -1.3327   11.0004 O   0  0  0  0  0  0  0  0  0  0  0  0
   -0.2766   -1.2794   11.6344 C   0  0  0  0  0  0  0  0  0  0  0  0
   -0.6662   -1.5651   10.3186 O   0  0  0  0  0  0  0  0  0  0  0  0
    0.1552   -2.3043    9.5051 C   0  0  0  0  0  0  0  0  0  0  0  0
   -0.0257   -2.8213    8.2500 C   0  0  0  0  0  0  0  0  0  0  0  0
    0.9199   -3.5659    7.5535 C   0  0  0  0  0  0  0  0  0  0  0  0
    2.1448   -3.7862    8.2094 C   0  0  0  0  0  0  0  0  0  0  0  0
    2.3424   -3.2806    9.4501 C   0  0  0  0  0  0  0  0  0  0  0  0
    1.3923   -2.5836   10.0485 N   0  0  0  0  0  0  0  0  0  0  0  0
    3.2519   -4.5631    7.5741 C   0  0  0  0  0  0  0  0  0  0  0  0
    3.1548   -5.8762    7.9181 F   0  0  0  0  0  0  0  0  0  0  0  0
    4.4807   -4.0703    8.0366 F   0  0  0  0  0  0  0  0  0  0  0  0
    3.1812   -4.3118    6.2246 F   0  0  0  0  0  0  0  0  0  0  0  0
   -0.4234   -2.7208   12.3069 C   0  0  0  0  0  0  0  0  0  0  0  0
   -1.3100   -0.4657   12.3412 C   0  0  0  0  0  0  0  0  0  0  0  0
    4.0389   -0.8693   12.6263 C   0  0  0  0  0  0  0  0  0  0  0  0
    2.2441    2.1354   11.4298 C   0  0  0  0  0  0  0  0  0  0  0  0
    2.3398    3.1693   10.4281 C   0  0  0  0  0  0  0  0  0  0  0  0
    2.9658    2.8070    9.2229 C   0  0  0  0  0  0  0  0  0  0  0  0
    3.2569    3.7257    8.2294 C   0  0  0  0  0  0  0  0  0  0  0  0
    2.9208    5.0367    8.4474 C   0  0  0  0  0  0  0  0  0  0  0  0
    2.3185    5.4147    9.5909 C   0  0  0  0  0  0  0  0  0  0  0  0
    2.0126    4.4858   10.6067 C   0  0  0  0  0  0  0  0  0  0  0  0
    3.3438    6.2470    7.1967 Cl  0  0  0  0  0  0  0  0  0  0  0  0
  1  2  3  0
  2  3  1  0
  3  4  2  0
  4  5  1  0
  5  6  2  0
  6  7  1  0
  7  8  2  0
  7  9  1  0
  9 10  1  0
 10 11  1  0
 11 12  1  0
 12 13  2  0
 12 14  1  0
 14 15  1  0
 15 16  1  0
 16 17  2  0
 17 18  1  0
 18 19  2  0
 19 20  1  0
 20 21  2  0
 19 22  1  0
 22 23  1  0
 22 24  1  0
 22 25  1  0
 14 26  1  0
 14 27  1  0
 10 28  1  6
  9 29  1  1
 29 30  1  0
 30 31  2  0
 31 32  1  0
 32 33  2  0
 33 34  1  0
 34 35  2  0
 33 36  1  0
  8  3  1  0
 21 16  1  0
 35 30  1  0
M  END
$$$$
