
     RDKit          3D

 36 38  0  0  0  0  0  0  0  0999 V2000
    3.6104    0.3616   15.9989 N   0  0  0  0  0  0  0  0  0  0  0  0
    3.6679   -0.1512   14.8939 C   0  0  0  0  0  0  0  0  0  0  0  0
    3.7511   -0.7669   13.6113 C   0  0  0  0  0  0  0  0  0  0  0  0
    4.6241   -1.8143   13.3809 C   0  0  0  0  0  0  0  0  0  0  0  0
    4.7355   -2.4172   12.1417 C   0  0  0  0  0  0  0  0  0  0  0  0
    3.9271   -1.9139   11.1636 C   0  0  0  0  0  0  0  0  0  0  0  0
    3.0316   -0.9149   11.2560 C   0  0  0  0  0  0  0  0  0  0  0  0
    2.9731   -0.3241   12.5845 C   0  0  0  0  0  0  0  0  0  0  0  0
    2.1628   -0.2686   10.2921 C   0  0  1  0  0  0  0  0  0  0  0  0
    1.7807    1.1342   10.6895 C   0  0  1  0  0  0  0  0  0  0  0  0
    2.5386    2.2499   10.2878 N   0  0  0  0  0  0  0  0  0  0  0  0
    3.5753    2.7873   11.1134 C   0  0  0  0  0  0  0  0  0  0  0  0
    3.5258    2.3182   12.3247 O   0  0  0  0  0  0  0  0  0  0  0  0
    4.6055    3.7508   10.7888 C   0  0  0  0  0  0  0  0  0  0  0  0
    4.7857    4.0882    9.4404 O   0  0  0  0  0  0  0  0  0  0  0  0
    3.7568    4.6565    8.7321 C   0  0  0  0  0  0  0  0  0  0  0  0
    3.6940    5.1705    7.4643 C   0  0  0  0  0  0  0  0  0  0  0  0
    2.5569    5.7250    6.8872 C   0  0  0  0  0  0  0  0  0  0  0  0
    1.3992    5.7434    7.6863 C   0  0  0  0  0  0  0  0  0  0  0  0
    1.4420    5.2374    8.9418 C   0  0  0  0  0  0  0  0  0  0  0  0
    2.5635    4.7285    9.4210 N   0  0  0  0  0  0  0  0  0  0  0  0
    0.1058    6.3029    7.1895 C   0  0  0  0  0  0  0  0  0  0  0  0
   -0.0882    5.9425    5.8916 F   0  0  0  0  0  0  0  0  0  0  0  0
    0.1549    7.7026    7.2614 F   0  0  0  0  0  0  0  0  0  0  0  0
   -0.8663    5.8727    8.0609 F   0  0  0  0  0  0  0  0  0  0  0  0
    4.0095    5.1183   11.3598 C   0  0  0  0  0  0  0  0  0  0  0  0
    5.9147    3.6268   11.4962 C   0  0  0  0  0  0  0  0  0  0  0  0
    0.2685    1.3739   10.5235 C   0  0  0  0  0  0  0  0  0  0  0  0
    2.2544   -0.4904    8.8560 C   0  0  0  0  0  0  0  0  0  0  0  0
    1.8768   -1.7034    8.1720 C   0  0  0  0  0  0  0  0  0  0  0  0
    1.1328   -1.5414    6.9906 C   0  0  0  0  0  0  0  0  0  0  0  0
    0.5801   -2.6099    6.3062 C   0  0  0  0  0  0  0  0  0  0  0  0
    0.7695   -3.8679    6.8171 C   0  0  0  0  0  0  0  0  0  0  0  0
    1.4790   -4.0557    7.9460 C   0  0  0  0  0  0  0  0  0  0  0  0
    2.0508   -2.9745    8.6475 C   0  0  0  0  0  0  0  0  0  0  0  0
    0.0111   -5.2553    5.9756 Cl  0  0  0  0  0  0  0  0  0  0  0  0
  1  2  3  0
  2  3  1  0
  3  4  2  0
  4  5  1  0
  5  6  2  0
  6  7  1  0
  7  8  2  0
  7  9  1  0
  9 10  1  0
 10 11  1  0
 11 12  1  0
 12 13  2  0
 12 14  1  0
 14 15  1  0
 15 16  1  0
 16 17  2  0
 17 18  1  0
 18 19  2  0
 19 20  1  0
 20 21  2  0
 19 22  1  0
 22 23  1  0
 22 24  1  0
 22 25  1  0
 14 26  1  0
 14 27  1  0
 10 28  1  6
  9 29  1  6
 29 30  1  0
 30 31  2  0
 31 32  1  0
 32 33  2  0
 33 34  1  0
 34 35  2  0
 33 36  1  0
  8  3  1  0
 21 16  1  0
 35 30  1  0
M  END
$$$$
