
     RDKit          3D

 36 38  0  0  0  0  0  0  0  0999 V2000
    7.9068   -0.7858   11.0442 N   0  0  0  0  0  0  0  0  0  0  0  0
    6.7787   -1.2205   10.8835 C   0  0  0  0  0  0  0  0  0  0  0  0
    5.4687   -1.7422   10.6768 C   0  0  0  0  0  0  0  0  0  0  0  0
    5.1433   -3.0253   11.0765 C   0  0  0  0  0  0  0  0  0  0  0  0
    3.8849   -3.5602   10.8724 C   0  0  0  0  0  0  0  0  0  0  0  0
    2.9859   -2.7395   10.2545 C   0  0  0  0  0  0  0  0  0  0  0  0
    3.1669   -1.4766    9.8294 C   0  0  0  0  0  0  0  0  0  0  0  0
    4.5141   -0.9825   10.0707 C   0  0  0  0  0  0  0  0  0  0  0  0
    2.3176   -0.5344    9.1277 C   0  0  1  0  0  0  0  0  0  0  0  0
    2.2197    0.8009    9.8199 C   0  0  1  0  0  0  0  0  0  0  0  0
    2.6909    0.9908   11.1323 N   0  0  0  0  0  0  0  0  0  0  0  0
    2.3261    0.1052   12.1943 C   0  0  0  0  0  0  0  0  0  0  0  0
    2.0758   -1.0953   11.7631 O   0  0  0  0  0  0  0  0  0  0  0  0
    2.1909    0.3713   13.6106 C   0  0  0  0  0  0  0  0  0  0  0  0
    0.9071    0.6330   14.1085 O   0  0  0  0  0  0  0  0  0  0  0  0
   -0.1718   -0.0620   13.6229 C   0  0  0  0  0  0  0  0  0  0  0  0
   -1.5050   -0.0137   13.9323 C   0  0  0  0  0  0  0  0  0  0  0  0
   -2.4866   -0.8026   13.3426 C   0  0  0  0  0  0  0  0  0  0  0  0
   -2.0500   -1.7058   12.3564 C   0  0  0  0  0  0  0  0  0  0  0  0
   -0.7355   -1.7658   12.0357 C   0  0  0  0  0  0  0  0  0  0  0  0
    0.1386   -0.9832   12.6438 N   0  0  0  0  0  0  0  0  0  0  0  0
   -2.9988   -2.6081   11.6365 C   0  0  0  0  0  0  0  0  0  0  0  0
   -3.2141   -2.1445   10.3752 F   0  0  0  0  0  0  0  0  0  0  0  0
   -4.2228   -2.6249   12.3207 F   0  0  0  0  0  0  0  0  0  0  0  0
   -2.4635   -3.8723   11.7047 F   0  0  0  0  0  0  0  0  0  0  0  0
    2.4808   -1.0535   14.2718 C   0  0  0  0  0  0  0  0  0  0  0  0
    3.2103    1.2573   14.2473 C   0  0  0  0  0  0  0  0  0  0  0  0
    2.6369    1.9513    8.8849 C   0  0  0  0  0  0  0  0  0  0  0  0
    2.2137   -0.4763    7.6765 C   0  0  0  0  0  0  0  0  0  0  0  0
    1.8091   -1.5672    6.8234 C   0  0  0  0  0  0  0  0  0  0  0  0
    1.9071   -1.3398    5.4398 C   0  0  0  0  0  0  0  0  0  0  0  0
    1.4237   -2.2353    4.5018 C   0  0  0  0  0  0  0  0  0  0  0  0
    0.8234   -3.3809    4.9562 C   0  0  0  0  0  0  0  0  0  0  0  0
    0.7160   -3.6283    6.2755 C   0  0  0  0  0  0  0  0  0  0  0  0
    1.2100   -2.7250    7.2389 C   0  0  0  0  0  0  0  0  0  0  0  0
    0.1404   -4.5219    3.7563 Cl  0  0  0  0  0  0  0  0  0  0  0  0
  1  2  3  0
  2  3  1  0
  3  4  2  0
  4  5  1  0
  5  6  2  0
  6  7  1  0
  7  8  2  0
  7  9  1  0
  9 10  1  0
 10 11  1  0
 11 12  1  0
 12 13  2  0
 12 14  1  0
 14 15  1  0
 15 16  1  0
 16 17  2  0
 17 18  1  0
 18 19  2  0
 19 20  1  0
 20 21  2  0
 19 22  1  0
 22 23  1  0
 22 24  1  0
 22 25  1  0
 14 26  1  0
 14 27  1  0
 10 28  1  6
  9 29  1  6
 29 30  1  0
 30 31  2  0
 31 32  1  0
 32 33  2  0
 33 34  1  0
 34 35  2  0
 33 36  1  0
  8  3  1  0
 21 16  1  0
 35 30  1  0
M  END
$$$$
