
     RDKit          3D

 36 38  0  0  0  0  0  0  0  0999 V2000
    5.2194   -2.5632   15.4264 N   0  0  0  0  0  0  0  0  0  0  0  0
    5.1498   -2.1471   14.2822 C   0  0  0  0  0  0  0  0  0  0  0  0
    5.0462   -1.6515   12.9500 C   0  0  0  0  0  0  0  0  0  0  0  0
    6.0931   -1.7884   12.0571 C   0  0  0  0  0  0  0  0  0  0  0  0
    6.0236   -1.3017   10.7650 C   0  0  0  0  0  0  0  0  0  0  0  0
    4.8553   -0.6810   10.4282 C   0  0  0  0  0  0  0  0  0  0  0  0
    3.7631   -0.4928   11.1899 C   0  0  0  0  0  0  0  0  0  0  0  0
    3.9100   -1.0238   12.5366 C   0  0  0  0  0  0  0  0  0  0  0  0
    2.5003    0.1826   10.9643 C   0  0  1  0  0  0  0  0  0  0  0  0
    2.5976    1.6797   11.1096 C   0  0  1  0  0  0  0  0  0  0  0  0
    2.5538    2.5362    9.9939 N   0  0  0  0  0  0  0  0  0  0  0  0
    3.6467    3.3997    9.6695 C   0  0  0  0  0  0  0  0  0  0  0  0
    4.6192    3.2973   10.5261 O   0  0  0  0  0  0  0  0  0  0  0  0
    3.7879    4.3359    8.5748 C   0  0  0  0  0  0  0  0  0  0  0  0
    3.4998    3.8797    7.2811 O   0  0  0  0  0  0  0  0  0  0  0  0
    2.9671    2.6285    7.0978 C   0  0  0  0  0  0  0  0  0  0  0  0
    2.0090    2.1594    6.2389 C   0  0  0  0  0  0  0  0  0  0  0  0
    1.5696    0.8414    6.1820 C   0  0  0  0  0  0  0  0  0  0  0  0
    2.1732   -0.0554    7.0822 C   0  0  0  0  0  0  0  0  0  0  0  0
    3.1242    0.3901    7.9375 C   0  0  0  0  0  0  0  0  0  0  0  0
    3.4871    1.6608    7.9326 N   0  0  0  0  0  0  0  0  0  0  0  0
    1.8017   -1.5021    7.1239 C   0  0  0  0  0  0  0  0  0  0  0  0
    2.5393   -2.1440    8.0705 F   0  0  0  0  0  0  0  0  0  0  0  0
    2.0755   -2.0811    5.8764 F   0  0  0  0  0  0  0  0  0  0  0  0
    0.4419   -1.5508    7.3187 F   0  0  0  0  0  0  0  0  0  0  0  0
    2.5742    5.3473    8.8099 C   0  0  0  0  0  0  0  0  0  0  0  0
    4.9838    5.2300    8.5805 C   0  0  0  0  0  0  0  0  0  0  0  0
    1.7167    2.1912   12.2647 C   0  0  0  0  0  0  0  0  0  0  0  0
    1.5102   -0.2717    9.9983 C   0  0  0  0  0  0  0  0  0  0  0  0
    0.7198   -1.4732   10.1139 C   0  0  0  0  0  0  0  0  0  0  0  0
    0.9368   -2.2479   11.2665 C   0  0  0  0  0  0  0  0  0  0  0  0
    0.3598   -3.4930   11.4464 C   0  0  0  0  0  0  0  0  0  0  0  0
   -0.4471   -3.9777   10.4499 C   0  0  0  0  0  0  0  0  0  0  0  0
   -0.6759   -3.2586    9.3347 C   0  0  0  0  0  0  0  0  0  0  0  0
   -0.0973   -1.9869    9.1442 C   0  0  0  0  0  0  0  0  0  0  0  0
   -1.1541   -5.6123   10.6415 Cl  0  0  0  0  0  0  0  0  0  0  0  0
  1  2  3  0
  2  3  1  0
  3  4  2  0
  4  5  1  0
  5  6  2  0
  6  7  1  0
  7  8  2  0
  7  9  1  0
  9 10  1  0
 10 11  1  0
 11 12  1  0
 12 13  2  0
 12 14  1  0
 14 15  1  0
 15 16  1  0
 16 17  2  0
 17 18  1  0
 18 19  2  0
 19 20  1  0
 20 21  2  0
 19 22  1  0
 22 23  1  0
 22 24  1  0
 22 25  1  0
 14 26  1  0
 14 27  1  0
 10 28  1  1
  9 29  1  6
 29 30  1  0
 30 31  2  0
 31 32  1  0
 32 33  2  0
 33 34  1  0
 34 35  2  0
 33 36  1  0
  8  3  1  0
 21 16  1  0
 35 30  1  0
M  END
$$$$
