
     RDKit          3D

 36 38  0  0  0  0  0  0  0  0999 V2000
    4.4632    1.8774    4.7923 N   0  0  0  0  0  0  0  0  0  0  0  0
    3.6681    1.4131    5.5919 C   0  0  0  0  0  0  0  0  0  0  0  0
    2.7555    0.8535    6.5327 C   0  0  0  0  0  0  0  0  0  0  0  0
    1.4121    0.7266    6.2310 C   0  0  0  0  0  0  0  0  0  0  0  0
    0.5041    0.2026    7.1324 C   0  0  0  0  0  0  0  0  0  0  0  0
    1.0201   -0.1830    8.3360 C   0  0  0  0  0  0  0  0  0  0  0  0
    2.2982   -0.1265    8.7502 C   0  0  0  0  0  0  0  0  0  0  0  0
    3.1948    0.4408    7.7544 C   0  0  0  0  0  0  0  0  0  0  0  0
    2.9512   -0.4555   10.0021 C   0  0  1  0  0  0  0  0  0  0  0  0
    2.5221    0.4319   11.1424 C   0  0  1  0  0  0  0  0  0  0  0  0
    2.2517    1.8001   10.9546 N   0  0  0  0  0  0  0  0  0  0  0  0
    3.3026    2.7531   10.7744 C   0  0  0  0  0  0  0  0  0  0  0  0
    4.4734    2.1888   10.7526 O   0  0  0  0  0  0  0  0  0  0  0  0
    3.2283    4.1922   10.6390 C   0  0  0  0  0  0  0  0  0  0  0  0
    4.0828    4.9700   11.4323 O   0  0  0  0  0  0  0  0  0  0  0  0
    4.0371    6.3391   11.3511 C   0  0  0  0  0  0  0  0  0  0  0  0
    4.9943    7.2693   11.0447 C   0  0  0  0  0  0  0  0  0  0  0  0
    4.7849    8.6436   11.0114 C   0  0  0  0  0  0  0  0  0  0  0  0
    3.4834    9.0824   11.3161 C   0  0  0  0  0  0  0  0  0  0  0  0
    2.5233    8.1766   11.6193 C   0  0  0  0  0  0  0  0  0  0  0  0
    2.8014    6.8848   11.6322 N   0  0  0  0  0  0  0  0  0  0  0  0
    3.1171   10.5310   11.3104 C   0  0  0  0  0  0  0  0  0  0  0  0
    3.6078   11.1298   10.1910 F   0  0  0  0  0  0  0  0  0  0  0  0
    3.6843   11.1510   12.4331 F   0  0  0  0  0  0  0  0  0  0  0  0
    1.7505   10.5890   11.4457 F   0  0  0  0  0  0  0  0  0  0  0  0
    3.8526    4.4483    9.1912 C   0  0  0  0  0  0  0  0  0  0  0  0
    1.8713    4.8074   10.5396 C   0  0  0  0  0  0  0  0  0  0  0  0
    1.4550   -0.2524   12.0170 C   0  0  0  0  0  0  0  0  0  0  0  0
    3.3049   -1.8140   10.3884 C   0  0  0  0  0  0  0  0  0  0  0  0
    2.4223   -2.9541   10.3366 C   0  0  0  0  0  0  0  0  0  0  0  0
    2.9200   -4.1474   10.8880 C   0  0  0  0  0  0  0  0  0  0  0  0
    2.2483   -5.3530   10.7837 C   0  0  0  0  0  0  0  0  0  0  0  0
    1.0558   -5.3682   10.1079 C   0  0  0  0  0  0  0  0  0  0  0  0
    0.5518   -4.2413    9.5701 C   0  0  0  0  0  0  0  0  0  0  0  0
    1.2255   -3.0071    9.6756 C   0  0  0  0  0  0  0  0  0  0  0  0
    0.2033   -6.9314    9.9134 Cl  0  0  0  0  0  0  0  0  0  0  0  0
  1  2  3  0
  2  3  1  0
  3  4  2  0
  4  5  1  0
  5  6  2  0
  6  7  1  0
  7  8  2  0
  7  9  1  0
  9 10  1  0
 10 11  1  0
 11 12  1  0
 12 13  2  0
 12 14  1  0
 14 15  1  0
 15 16  1  0
 16 17  2  0
 17 18  1  0
 18 19  2  0
 19 20  1  0
 20 21  2  0
 19 22  1  0
 22 23  1  0
 22 24  1  0
 22 25  1  0
 14 26  1  0
 14 27  1  0
 10 28  1  6
  9 29  1  1
 29 30  1  0
 30 31  2  0
 31 32  1  0
 32 33  2  0
 33 34  1  0
 34 35  2  0
 33 36  1  0
  8  3  1  0
 21 16  1  0
 35 30  1  0
M  END
$$$$
