
     RDKit          3D

 36 38  0  0  0  0  0  0  0  0999 V2000
    6.7497    9.7630   12.1970 N   0  0  0  0  0  0  0  0  0  0  0  0
    5.6807    9.1797   12.1307 C   0  0  0  0  0  0  0  0  0  0  0  0
    4.4312    8.5019   12.0290 C   0  0  0  0  0  0  0  0  0  0  0  0
    3.2582    9.1080   12.4397 C   0  0  0  0  0  0  0  0  0  0  0  0
    2.0361    8.4656   12.3669 C   0  0  0  0  0  0  0  0  0  0  0  0
    2.0629    7.1978   11.8614 C   0  0  0  0  0  0  0  0  0  0  0  0
    3.1240    6.5008   11.4176 C   0  0  0  0  0  0  0  0  0  0  0  0
    4.3750    7.2354   11.5304 C   0  0  0  0  0  0  0  0  0  0  0  0
    3.2839    5.1519   10.9111 C   0  0  1  0  0  0  0  0  0  0  0  0
    4.0622    4.2597   11.8439 C   0  0  1  0  0  0  0  0  0  0  0  0
    4.1542    2.8711   11.6351 N   0  0  0  0  0  0  0  0  0  0  0  0
    3.1953    1.9656   12.1882 C   0  0  0  0  0  0  0  0  0  0  0  0
    2.6622    2.4277   13.2800 O   0  0  0  0  0  0  0  0  0  0  0  0
    2.7813    0.6611   11.7173 C   0  0  0  0  0  0  0  0  0  0  0  0
    1.7275    0.6014   10.7950 O   0  0  0  0  0  0  0  0  0  0  0  0
    1.5147   -0.5439   10.0698 C   0  0  0  0  0  0  0  0  0  0  0  0
    0.4767   -0.9393    9.2687 C   0  0  0  0  0  0  0  0  0  0  0  0
    0.4097   -2.1552    8.5974 C   0  0  0  0  0  0  0  0  0  0  0  0
    1.5041   -3.0222    8.7693 C   0  0  0  0  0  0  0  0  0  0  0  0
    2.5407   -2.6470    9.5560 C   0  0  0  0  0  0  0  0  0  0  0  0
    2.5298   -1.4736   10.1637 N   0  0  0  0  0  0  0  0  0  0  0  0
    1.5666   -4.3569    8.1004 C   0  0  0  0  0  0  0  0  0  0  0  0
    1.5766   -4.1990    6.7486 F   0  0  0  0  0  0  0  0  0  0  0  0
    0.4313   -5.1000    8.4544 F   0  0  0  0  0  0  0  0  0  0  0  0
    2.6661   -5.0011    8.6157 F   0  0  0  0  0  0  0  0  0  0  0  0
    4.0061    0.2069   10.7981 C   0  0  0  0  0  0  0  0  0  0  0  0
    2.6837   -0.4376   12.7238 C   0  0  0  0  0  0  0  0  0  0  0  0
    5.4236    4.8797   12.2101 C   0  0  0  0  0  0  0  0  0  0  0  0
    2.2713    4.4683   10.1192 C   0  0  0  0  0  0  0  0  0  0  0  0
    1.7537    4.9235    8.8517 C   0  0  0  0  0  0  0  0  0  0  0  0
    0.3743    4.7471    8.6474 C   0  0  0  0  0  0  0  0  0  0  0  0
   -0.2372    5.0023    7.4323 C   0  0  0  0  0  0  0  0  0  0  0  0
    0.5479    5.4375    6.3962 C   0  0  0  0  0  0  0  0  0  0  0  0
    1.8720    5.6180    6.5611 C   0  0  0  0  0  0  0  0  0  0  0  0
    2.5037    5.3661    7.7964 C   0  0  0  0  0  0  0  0  0  0  0  0
   -0.2184    5.7159    4.8014 Cl  0  0  0  0  0  0  0  0  0  0  0  0
  1  2  3  0
  2  3  1  0
  3  4  2  0
  4  5  1  0
  5  6  2  0
  6  7  1  0
  7  8  2  0
  7  9  1  0
  9 10  1  0
 10 11  1  0
 11 12  1  0
 12 13  2  0
 12 14  1  0
 14 15  1  0
 15 16  1  0
 16 17  2  0
 17 18  1  0
 18 19  2  0
 19 20  1  0
 20 21  2  0
 19 22  1  0
 22 23  1  0
 22 24  1  0
 22 25  1  0
 14 26  1  0
 14 27  1  0
 10 28  1  6
  9 29  1  1
 29 30  1  0
 30 31  2  0
 31 32  1  0
 32 33  2  0
 33 34  1  0
 34 35  2  0
 33 36  1  0
  8  3  1  0
 21 16  1  0
 35 30  1  0
M  END
$$$$
