
     RDKit          3D

 36 38  0  0  0  0  0  0  0  0999 V2000
    3.8414   -6.2896    8.6955 N   0  0  0  0  0  0  0  0  0  0  0  0
    3.5635   -5.1023    8.6834 C   0  0  0  0  0  0  0  0  0  0  0  0
    3.2597   -3.7099    8.6811 C   0  0  0  0  0  0  0  0  0  0  0  0
    3.4567   -2.9411    7.5488 C   0  0  0  0  0  0  0  0  0  0  0  0
    3.1855   -1.5856    7.5262 C   0  0  0  0  0  0  0  0  0  0  0  0
    2.7091   -1.0577    8.6914 C   0  0  0  0  0  0  0  0  0  0  0  0
    2.4617   -1.6902    9.8521 C   0  0  0  0  0  0  0  0  0  0  0  0
    2.7759   -3.1101    9.8046 C   0  0  0  0  0  0  0  0  0  0  0  0
    2.0079   -1.2370   11.1522 C   0  0  1  0  0  0  0  0  0  0  0  0
    3.1255   -0.7146   12.0181 C   0  0  1  0  0  0  0  0  0  0  0  0
    3.2184    0.6458   12.3663 N   0  0  0  0  0  0  0  0  0  0  0  0
    4.0266    1.5570   11.6168 C   0  0  0  0  0  0  0  0  0  0  0  0
    4.7451    0.9475   10.7212 O   0  0  0  0  0  0  0  0  0  0  0  0
    4.1500    2.9939   11.7386 C   0  0  0  0  0  0  0  0  0  0  0  0
    3.0498    3.7797   11.3688 O   0  0  0  0  0  0  0  0  0  0  0  0
    2.5196    3.6677   10.1081 C   0  0  0  0  0  0  0  0  0  0  0  0
    1.4342    4.2577    9.5170 C   0  0  0  0  0  0  0  0  0  0  0  0
    1.0197    4.0293    8.2095 C   0  0  0  0  0  0  0  0  0  0  0  0
    1.7926    3.1230    7.4608 C   0  0  0  0  0  0  0  0  0  0  0  0
    2.8708    2.5317    8.0283 C   0  0  0  0  0  0  0  0  0  0  0  0
    3.2001    2.7991    9.2798 N   0  0  0  0  0  0  0  0  0  0  0  0
    1.4651    2.7908    6.0413 C   0  0  0  0  0  0  0  0  0  0  0  0
    0.5932    3.7073    5.5391 F   0  0  0  0  0  0  0  0  0  0  0  0
    0.8596    1.5268    5.9949 F   0  0  0  0  0  0  0  0  0  0  0  0
    2.6635    2.7059    5.3734 F   0  0  0  0  0  0  0  0  0  0  0  0
    4.1579    3.2199   13.3198 C   0  0  0  0  0  0  0  0  0  0  0  0
    5.4336    3.6168   11.2979 C   0  0  0  0  0  0  0  0  0  0  0  0
    3.3812   -1.6376   13.2242 C   0  0  0  0  0  0  0  0  0  0  0  0
    0.7182   -0.5983   11.3727 C   0  0  0  0  0  0  0  0  0  0  0  0
   -0.5538   -1.2777   11.4182 C   0  0  0  0  0  0  0  0  0  0  0  0
   -0.5920   -2.5588   10.8411 C   0  0  0  0  0  0  0  0  0  0  0  0
   -1.7690   -3.2695   10.6828 C   0  0  0  0  0  0  0  0  0  0  0  0
   -2.9348   -2.6847   11.1047 C   0  0  0  0  0  0  0  0  0  0  0  0
   -2.9308   -1.4595   11.6630 C   0  0  0  0  0  0  0  0  0  0  0  0
   -1.7365   -0.7295   11.8339 C   0  0  0  0  0  0  0  0  0  0  0  0
   -4.4733   -3.5667   10.8532 Cl  0  0  0  0  0  0  0  0  0  0  0  0
  1  2  3  0
  2  3  1  0
  3  4  2  0
  4  5  1  0
  5  6  2  0
  6  7  1  0
  7  8  2  0
  7  9  1  0
  9 10  1  0
 10 11  1  0
 11 12  1  0
 12 13  2  0
 12 14  1  0
 14 15  1  0
 15 16  1  0
 16 17  2  0
 17 18  1  0
 18 19  2  0
 19 20  1  0
 20 21  2  0
 19 22  1  0
 22 23  1  0
 22 24  1  0
 22 25  1  0
 14 26  1  0
 14 27  1  0
 10 28  1  1
  9 29  1  6
 29 30  1  0
 30 31  2  0
 31 32  1  0
 32 33  2  0
 33 34  1  0
 34 35  2  0
 33 36  1  0
  8  3  1  0
 21 16  1  0
 35 30  1  0
M  END
$$$$
