
     RDKit          3D

 36 38  0  0  0  0  0  0  0  0999 V2000
    2.2552   -1.1406   15.6271 N   0  0  0  0  0  0  0  0  0  0  0  0
    2.7280   -0.6569   14.6123 C   0  0  0  0  0  0  0  0  0  0  0  0
    3.2576   -0.0875   13.4180 C   0  0  0  0  0  0  0  0  0  0  0  0
    4.5537    0.3921   13.3731 C   0  0  0  0  0  0  0  0  0  0  0  0
    5.0852    0.9639   12.2320 C   0  0  0  0  0  0  0  0  0  0  0  0
    4.2494    1.0213   11.1542 C   0  0  0  0  0  0  0  0  0  0  0  0
    2.9812    0.5840   11.0601 C   0  0  0  0  0  0  0  0  0  0  0  0
    2.4867    0.0012   12.2983 C   0  0  0  0  0  0  0  0  0  0  0  0
    1.9912    0.6312   10.0021 C   0  0  1  0  0  0  0  0  0  0  0  0
    1.3435    1.9847    9.8599 C   0  0  1  0  0  0  0  0  0  0  0  0
    2.0693    3.1113    9.4305 N   0  0  0  0  0  0  0  0  0  0  0  0
    1.5525    4.4364    9.5798 C   0  0  0  0  0  0  0  0  0  0  0  0
    0.5571    4.4798   10.4146 O   0  0  0  0  0  0  0  0  0  0  0  0
    1.9671    5.6651    8.9368 C   0  0  0  0  0  0  0  0  0  0  0  0
    3.2617    5.7204    8.4022 O   0  0  0  0  0  0  0  0  0  0  0  0
    4.3508    5.6195    9.2307 C   0  0  0  0  0  0  0  0  0  0  0  0
    5.6959    5.7045    8.9872 C   0  0  0  0  0  0  0  0  0  0  0  0
    6.6880    5.5713    9.9523 C   0  0  0  0  0  0  0  0  0  0  0  0
    6.2489    5.3355   11.2679 C   0  0  0  0  0  0  0  0  0  0  0  0
    4.9225    5.2507   11.5279 C   0  0  0  0  0  0  0  0  0  0  0  0
    4.0392    5.3862   10.5544 N   0  0  0  0  0  0  0  0  0  0  0  0
    7.2070    5.1801   12.4040 C   0  0  0  0  0  0  0  0  0  0  0  0
    8.4067    5.7343   12.0791 F   0  0  0  0  0  0  0  0  0  0  0  0
    7.4000    3.8142   12.6563 F   0  0  0  0  0  0  0  0  0  0  0  0
    6.5967    5.7275   13.5074 F   0  0  0  0  0  0  0  0  0  0  0  0
    1.0931    5.6822    7.6000 C   0  0  0  0  0  0  0  0  0  0  0  0
    1.5999    6.9506    9.6017 C   0  0  0  0  0  0  0  0  0  0  0  0
   -0.0273    1.8823    9.1655 C   0  0  0  0  0  0  0  0  0  0  0  0
    2.1090   -0.1202    8.7606 C   0  0  0  0  0  0  0  0  0  0  0  0
    1.7777   -1.5144    8.5929 C   0  0  0  0  0  0  0  0  0  0  0  0
    2.2503   -2.3867    9.5886 C   0  0  0  0  0  0  0  0  0  0  0  0
    2.1346   -3.7623    9.4897 C   0  0  0  0  0  0  0  0  0  0  0  0
    1.5391   -4.2784    8.3680 C   0  0  0  0  0  0  0  0  0  0  0  0
    1.0746   -3.4688    7.3975 C   0  0  0  0  0  0  0  0  0  0  0  0
    1.1826   -2.0660    7.4913 C   0  0  0  0  0  0  0  0  0  0  0  0
    1.4346   -6.0584    8.1977 Cl  0  0  0  0  0  0  0  0  0  0  0  0
  1  2  3  0
  2  3  1  0
  3  4  2  0
  4  5  1  0
  5  6  2  0
  6  7  1  0
  7  8  2  0
  7  9  1  0
  9 10  1  0
 10 11  1  0
 11 12  1  0
 12 13  2  0
 12 14  1  0
 14 15  1  0
 15 16  1  0
 16 17  2  0
 17 18  1  0
 18 19  2  0
 19 20  1  0
 20 21  2  0
 19 22  1  0
 22 23  1  0
 22 24  1  0
 22 25  1  0
 14 26  1  0
 14 27  1  0
 10 28  1  6
  9 29  1  6
 29 30  1  0
 30 31  2  0
 31 32  1  0
 32 33  2  0
 33 34  1  0
 34 35  2  0
 33 36  1  0
  8  3  1  0
 21 16  1  0
 35 30  1  0
M  END
$$$$
