
     RDKit          3D

 36 38  0  0  0  0  0  0  0  0999 V2000
    5.8124   -2.5752   14.3841 N   0  0  0  0  0  0  0  0  0  0  0  0
    5.4796   -2.0751   13.3228 C   0  0  0  0  0  0  0  0  0  0  0  0
    5.0777   -1.4737   12.0949 C   0  0  0  0  0  0  0  0  0  0  0  0
    5.9283   -1.4458   11.0051 C   0  0  0  0  0  0  0  0  0  0  0  0
    5.5684   -0.8539    9.8086 C   0  0  0  0  0  0  0  0  0  0  0  0
    4.3200   -0.3027    9.7727 C   0  0  0  0  0  0  0  0  0  0  0  0
    3.3954   -0.2717   10.7487 C   0  0  0  0  0  0  0  0  0  0  0  0
    3.8447   -0.9061   11.9787 C   0  0  0  0  0  0  0  0  0  0  0  0
    2.0738    0.3163   10.8454 C   0  0  1  0  0  0  0  0  0  0  0  0
    2.0840    1.6932   11.4587 C   0  0  1  0  0  0  0  0  0  0  0  0
    2.9346    2.7088   10.9839 N   0  0  0  0  0  0  0  0  0  0  0  0
    4.0625    3.1557   11.7411 C   0  0  0  0  0  0  0  0  0  0  0  0
    4.0152    2.7452   12.9736 O   0  0  0  0  0  0  0  0  0  0  0  0
    5.1799    3.9791   11.3310 C   0  0  0  0  0  0  0  0  0  0  0  0
    5.3226    4.2567    9.9646 O   0  0  0  0  0  0  0  0  0  0  0  0
    4.2316    4.6370    9.2243 C   0  0  0  0  0  0  0  0  0  0  0  0
    4.1199    5.1684    7.9670 C   0  0  0  0  0  0  0  0  0  0  0  0
    2.9202    5.5102    7.3526 C   0  0  0  0  0  0  0  0  0  0  0  0
    1.7506    5.2795    8.0994 C   0  0  0  0  0  0  0  0  0  0  0  0
    1.8415    4.7525    9.3437 C   0  0  0  0  0  0  0  0  0  0  0  0
    3.0209    4.4554    9.8606 N   0  0  0  0  0  0  0  0  0  0  0  0
    0.3936    5.5935    7.5583 C   0  0  0  0  0  0  0  0  0  0  0  0
   -0.4997    5.7028    8.5793 F   0  0  0  0  0  0  0  0  0  0  0  0
   -0.0164    4.5494    6.7166 F   0  0  0  0  0  0  0  0  0  0  0  0
    0.5322    6.7230    6.7875 F   0  0  0  0  0  0  0  0  0  0  0  0
    4.7838    5.4230   11.8873 C   0  0  0  0  0  0  0  0  0  0  0  0
    6.5028    3.7171   11.9720 C   0  0  0  0  0  0  0  0  0  0  0  0
    0.6544    2.2080   11.7093 C   0  0  0  0  0  0  0  0  0  0  0  0
    1.0255    0.0976    9.8590 C   0  0  0  0  0  0  0  0  0  0  0  0
    0.5908   -1.1895    9.3731 C   0  0  0  0  0  0  0  0  0  0  0  0
    0.3709   -2.1771   10.3487 C   0  0  0  0  0  0  0  0  0  0  0  0
    0.0913   -3.4937   10.0259 C   0  0  0  0  0  0  0  0  0  0  0  0
    0.0364   -3.8325    8.6988 C   0  0  0  0  0  0  0  0  0  0  0  0
    0.2406   -2.9087    7.7406 C   0  0  0  0  0  0  0  0  0  0  0  0
    0.5206   -1.5638    8.0589 C   0  0  0  0  0  0  0  0  0  0  0  0
   -0.2661   -5.5438    8.2652 Cl  0  0  0  0  0  0  0  0  0  0  0  0
  1  2  3  0
  2  3  1  0
  3  4  2  0
  4  5  1  0
  5  6  2  0
  6  7  1  0
  7  8  2  0
  7  9  1  0
  9 10  1  0
 10 11  1  0
 11 12  1  0
 12 13  2  0
 12 14  1  0
 14 15  1  0
 15 16  1  0
 16 17  2  0
 17 18  1  0
 18 19  2  0
 19 20  1  0
 20 21  2  0
 19 22  1  0
 22 23  1  0
 22 24  1  0
 22 25  1  0
 14 26  1  0
 14 27  1  0
 10 28  1  6
  9 29  1  6
 29 30  1  0
 30 31  2  0
 31 32  1  0
 32 33  2  0
 33 34  1  0
 34 35  2  0
 33 36  1  0
  8  3  1  0
 21 16  1  0
 35 30  1  0
M  END
$$$$
