
     RDKit          3D

 36 38  0  0  0  0  0  0  0  0999 V2000
   -1.0968    0.7551   14.6736 N   0  0  0  0  0  0  0  0  0  0  0  0
   -0.2440    0.3310   13.9120 C   0  0  0  0  0  0  0  0  0  0  0  0
    0.7504   -0.1442   13.0084 C   0  0  0  0  0  0  0  0  0  0  0  0
    1.5945   -1.1809   13.3614 C   0  0  0  0  0  0  0  0  0  0  0  0
    2.5778   -1.6487   12.5094 C   0  0  0  0  0  0  0  0  0  0  0  0
    2.6586   -1.0234   11.2986 C   0  0  0  0  0  0  0  0  0  0  0  0
    1.8980   -0.0192   10.8280 C   0  0  0  0  0  0  0  0  0  0  0  0
    0.8905    0.4256   11.7790 C   0  0  0  0  0  0  0  0  0  0  0  0
    1.9175    0.7482    9.5982 C   0  0  1  0  0  0  0  0  0  0  0  0
    2.1661    2.2176    9.8233 C   0  0  1  0  0  0  0  0  0  0  0  0
    3.3983    2.6943   10.3079 N   0  0  0  0  0  0  0  0  0  0  0  0
    3.6505    2.8286   11.7092 C   0  0  0  0  0  0  0  0  0  0  0  0
    2.6023    2.5415   12.4224 O   0  0  0  0  0  0  0  0  0  0  0  0
    4.8580    3.2402   12.3929 C   0  0  0  0  0  0  0  0  0  0  0  0
    5.3538    2.4076   13.4056 O   0  0  0  0  0  0  0  0  0  0  0  0
    5.2628    1.0443   13.2787 C   0  0  0  0  0  0  0  0  0  0  0  0
    5.3975    0.0302   14.1893 C   0  0  0  0  0  0  0  0  0  0  0  0
    5.2796   -1.3235   13.8941 C   0  0  0  0  0  0  0  0  0  0  0  0
    4.9980   -1.6461   12.5541 C   0  0  0  0  0  0  0  0  0  0  0  0
    4.8592   -0.6563   11.6402 C   0  0  0  0  0  0  0  0  0  0  0  0
    4.9882    0.6091   11.9985 N   0  0  0  0  0  0  0  0  0  0  0  0
    4.8379   -3.0605   12.0994 C   0  0  0  0  0  0  0  0  0  0  0  0
    3.9836   -3.7208   12.9278 F   0  0  0  0  0  0  0  0  0  0  0  0
    6.0855   -3.6994   12.1437 F   0  0  0  0  0  0  0  0  0  0  0  0
    4.4419   -3.0057   10.7843 F   0  0  0  0  0  0  0  0  0  0  0  0
    5.9840    3.0513   11.2758 C   0  0  0  0  0  0  0  0  0  0  0  0
    4.9841    4.6807   12.7651 C   0  0  0  0  0  0  0  0  0  0  0  0
    1.6421    3.0635    8.6479 C   0  0  0  0  0  0  0  0  0  0  0  0
    2.4327    0.2301    8.3387 C   0  0  0  0  0  0  0  0  0  0  0  0
    1.8670   -0.8678    7.5929 C   0  0  0  0  0  0  0  0  0  0  0  0
    2.7808   -1.6817    6.9013 C   0  0  0  0  0  0  0  0  0  0  0  0
    2.3785   -2.6811    6.0324 C   0  0  0  0  0  0  0  0  0  0  0  0
    1.0333   -2.8674    5.8454 C   0  0  0  0  0  0  0  0  0  0  0  0
    0.1332   -2.1052    6.4950 C   0  0  0  0  0  0  0  0  0  0  0  0
    0.5326   -1.0883    7.3864 C   0  0  0  0  0  0  0  0  0  0  0  0
    0.4973   -4.1173    4.6797 Cl  0  0  0  0  0  0  0  0  0  0  0  0
  1  2  3  0
  2  3  1  0
  3  4  2  0
  4  5  1  0
  5  6  2  0
  6  7  1  0
  7  8  2  0
  7  9  1  0
  9 10  1  0
 10 11  1  0
 11 12  1  0
 12 13  2  0
 12 14  1  0
 14 15  1  0
 15 16  1  0
 16 17  2  0
 17 18  1  0
 18 19  2  0
 19 20  1  0
 20 21  2  0
 19 22  1  0
 22 23  1  0
 22 24  1  0
 22 25  1  0
 14 26  1  0
 14 27  1  0
 10 28  1  6
  9 29  1  6
 29 30  1  0
 30 31  2  0
 31 32  1  0
 32 33  2  0
 33 34  1  0
 34 35  2  0
 33 36  1  0
  8  3  1  0
 21 16  1  0
 35 30  1  0
M  END
$$$$
