
     RDKit          3D

 36 38  0  0  0  0  0  0  0  0999 V2000
    3.2772    0.7911   15.5899 N   0  0  0  0  0  0  0  0  0  0  0  0
    3.4949    0.2081   14.5411 C   0  0  0  0  0  0  0  0  0  0  0  0
    3.7442   -0.4946   13.3266 C   0  0  0  0  0  0  0  0  0  0  0  0
    4.7192   -1.4728   13.2586 C   0  0  0  0  0  0  0  0  0  0  0  0
    4.9915   -2.1569   12.0884 C   0  0  0  0  0  0  0  0  0  0  0  0
    4.2348   -1.8061   11.0078 C   0  0  0  0  0  0  0  0  0  0  0  0
    3.2540   -0.8885   10.9409 C   0  0  0  0  0  0  0  0  0  0  0  0
    3.0271   -0.2048   12.2052 C   0  0  0  0  0  0  0  0  0  0  0  0
    2.4240   -0.4001    9.8572 C   0  0  1  0  0  0  0  0  0  0  0  0
    3.0482    0.7488    9.1075 C   0  0  1  0  0  0  0  0  0  0  0  0
    2.3423    1.4579    8.1180 N   0  0  0  0  0  0  0  0  0  0  0  0
    2.3768    1.0613    6.7444 C   0  0  0  0  0  0  0  0  0  0  0  0
    3.2825    0.1558    6.5215 O   0  0  0  0  0  0  0  0  0  0  0  0
    1.5832    1.5318    5.6292 C   0  0  0  0  0  0  0  0  0  0  0  0
    0.8273    2.6984    5.8089 O   0  0  0  0  0  0  0  0  0  0  0  0
    1.3477    3.7502    6.5201 C   0  0  0  0  0  0  0  0  0  0  0  0
    0.8291    4.9724    6.8561 C   0  0  0  0  0  0  0  0  0  0  0  0
    1.4994    5.9455    7.5890 C   0  0  0  0  0  0  0  0  0  0  0  0
    2.8037    5.6226    8.0059 C   0  0  0  0  0  0  0  0  0  0  0  0
    3.3320    4.4177    7.6848 C   0  0  0  0  0  0  0  0  0  0  0  0
    2.6316    3.5450    6.9818 N   0  0  0  0  0  0  0  0  0  0  0  0
    3.6345    6.5722    8.8064 C   0  0  0  0  0  0  0  0  0  0  0  0
    3.7135    6.1463   10.0966 F   0  0  0  0  0  0  0  0  0  0  0  0
    3.0282    7.8366    8.7902 F   0  0  0  0  0  0  0  0  0  0  0  0
    4.8414    6.6782    8.1572 F   0  0  0  0  0  0  0  0  0  0  0  0
    2.6870    2.0495    4.5973 C   0  0  0  0  0  0  0  0  0  0  0  0
    0.8287    0.5132    4.8400 C   0  0  0  0  0  0  0  0  0  0  0  0
    3.8139    1.6899   10.0562 C   0  0  0  0  0  0  0  0  0  0  0  0
    1.5716   -1.2615    9.0503 C   0  0  0  0  0  0  0  0  0  0  0  0
    0.6714   -2.2649    9.5645 C   0  0  0  0  0  0  0  0  0  0  0  0
    0.1516   -2.0298   10.8491 C   0  0  0  0  0  0  0  0  0  0  0  0
   -0.6074   -2.9669   11.5284 C   0  0  0  0  0  0  0  0  0  0  0  0
   -0.8472   -4.1682   10.9132 C   0  0  0  0  0  0  0  0  0  0  0  0
   -0.3646   -4.4227    9.6822 C   0  0  0  0  0  0  0  0  0  0  0  0
    0.4049   -3.4727    8.9795 C   0  0  0  0  0  0  0  0  0  0  0  0
   -1.7779   -5.4134   11.8027 Cl  0  0  0  0  0  0  0  0  0  0  0  0
  1  2  3  0
  2  3  1  0
  3  4  2  0
  4  5  1  0
  5  6  2  0
  6  7  1  0
  7  8  2  0
  7  9  1  0
  9 10  1  0
 10 11  1  0
 11 12  1  0
 12 13  2  0
 12 14  1  0
 14 15  1  0
 15 16  1  0
 16 17  2  0
 17 18  1  0
 18 19  2  0
 19 20  1  0
 20 21  2  0
 19 22  1  0
 22 23  1  0
 22 24  1  0
 22 25  1  0
 14 26  1  0
 14 27  1  0
 10 28  1  1
  9 29  1  6
 29 30  1  0
 30 31  2  0
 31 32  1  0
 32 33  2  0
 33 34  1  0
 34 35  2  0
 33 36  1  0
  8  3  1  0
 21 16  1  0
 35 30  1  0
M  END
$$$$
