
     RDKit          3D

 36 38  0  0  0  0  0  0  0  0999 V2000
   -1.7850    1.3578   16.2677 N   0  0  0  0  0  0  0  0  0  0  0  0
   -1.0403    0.5784   15.6975 C   0  0  0  0  0  0  0  0  0  0  0  0
   -0.1590   -0.3134   15.0199 C   0  0  0  0  0  0  0  0  0  0  0  0
    0.4597   -1.3502   15.6940 C   0  0  0  0  0  0  0  0  0  0  0  0
    1.3314   -2.2184   15.0632 C   0  0  0  0  0  0  0  0  0  0  0  0
    1.5387   -1.9872   13.7339 C   0  0  0  0  0  0  0  0  0  0  0  0
    0.9957   -1.0302   12.9608 C   0  0  0  0  0  0  0  0  0  0  0  0
    0.0954   -0.1511   13.6914 C   0  0  0  0  0  0  0  0  0  0  0  0
    1.1714   -0.6592   11.5704 C   0  0  1  0  0  0  0  0  0  0  0  0
    2.4663    0.0679   11.3128 C   0  0  1  0  0  0  0  0  0  0  0  0
    3.1889   -0.1076   10.1180 N   0  0  0  0  0  0  0  0  0  0  0  0
    2.8086    0.5548    8.9089 C   0  0  0  0  0  0  0  0  0  0  0  0
    2.1099    1.6263    9.1396 O   0  0  0  0  0  0  0  0  0  0  0  0
    3.0760    0.1887    7.5344 C   0  0  0  0  0  0  0  0  0  0  0  0
    3.8138   -0.9797    7.2991 O   0  0  0  0  0  0  0  0  0  0  0  0
    4.8939   -1.2799    8.0905 C   0  0  0  0  0  0  0  0  0  0  0  0
    5.6059   -2.4367    8.2652 C   0  0  0  0  0  0  0  0  0  0  0  0
    6.6894   -2.5805    9.1247 C   0  0  0  0  0  0  0  0  0  0  0  0
    7.0618   -1.4364    9.8538 C   0  0  0  0  0  0  0  0  0  0  0  0
    6.3706   -0.2830    9.6922 C   0  0  0  0  0  0  0  0  0  0  0  0
    5.3487   -0.2261    8.8561 N   0  0  0  0  0  0  0  0  0  0  0  0
    8.2121   -1.4476   10.8074 C   0  0  0  0  0  0  0  0  0  0  0  0
    8.9770   -2.5539   10.5995 F   0  0  0  0  0  0  0  0  0  0  0  0
    7.7185   -1.4865   12.1195 F   0  0  0  0  0  0  0  0  0  0  0  0
    8.8683   -0.2512   10.6421 F   0  0  0  0  0  0  0  0  0  0  0  0
    1.6390   -0.2544    6.9958 C   0  0  0  0  0  0  0  0  0  0  0  0
    3.4723    1.2786    6.5938 C   0  0  0  0  0  0  0  0  0  0  0  0
    2.3684    1.5512   11.7154 C   0  0  0  0  0  0  0  0  0  0  0  0
    0.6983   -1.4715   10.4586 C   0  0  0  0  0  0  0  0  0  0  0  0
   -0.6041   -2.0856   10.3672 C   0  0  0  0  0  0  0  0  0  0  0  0
   -0.7460   -3.0940    9.3984 C   0  0  0  0  0  0  0  0  0  0  0  0
   -1.9673   -3.6717    9.0980 C   0  0  0  0  0  0  0  0  0  0  0  0
   -3.0727   -3.2275    9.7762 C   0  0  0  0  0  0  0  0  0  0  0  0
   -2.9690   -2.2642   10.7112 C   0  0  0  0  0  0  0  0  0  0  0  0
   -1.7287   -1.6733   11.0285 C   0  0  0  0  0  0  0  0  0  0  0  0
   -4.6692   -3.9233    9.3575 Cl  0  0  0  0  0  0  0  0  0  0  0  0
  1  2  3  0
  2  3  1  0
  3  4  2  0
  4  5  1  0
  5  6  2  0
  6  7  1  0
  7  8  2  0
  7  9  1  0
  9 10  1  0
 10 11  1  0
 11 12  1  0
 12 13  2  0
 12 14  1  0
 14 15  1  0
 15 16  1  0
 16 17  2  0
 17 18  1  0
 18 19  2  0
 19 20  1  0
 20 21  2  0
 19 22  1  0
 22 23  1  0
 22 24  1  0
 22 25  1  0
 14 26  1  0
 14 27  1  0
 10 28  1  6
  9 29  1  6
 29 30  1  0
 30 31  2  0
 31 32  1  0
 32 33  2  0
 33 34  1  0
 34 35  2  0
 33 36  1  0
  8  3  1  0
 21 16  1  0
 35 30  1  0
M  END
$$$$
