
     RDKit          3D

 36 38  0  0  0  0  0  0  0  0999 V2000
   -2.1652   -2.8423   13.3766 N   0  0  0  0  0  0  0  0  0  0  0  0
   -1.0077   -2.5663   13.1099 C   0  0  0  0  0  0  0  0  0  0  0  0
    0.3491   -2.2673   12.7926 C   0  0  0  0  0  0  0  0  0  0  0  0
    1.3821   -2.7138   13.5961 C   0  0  0  0  0  0  0  0  0  0  0  0
    2.7051   -2.4232   13.3191 C   0  0  0  0  0  0  0  0  0  0  0  0
    2.9244   -1.6707   12.2014 C   0  0  0  0  0  0  0  0  0  0  0  0
    2.0190   -1.1863   11.3331 C   0  0  0  0  0  0  0  0  0  0  0  0
    0.6498   -1.5250   11.6906 C   0  0  0  0  0  0  0  0  0  0  0  0
    2.1233   -0.3476   10.1552 C   0  0  1  0  0  0  0  0  0  0  0  0
    2.2117    1.1210   10.4825 C   0  0  1  0  0  0  0  0  0  0  0  0
    3.4344    1.7330   10.8157 N   0  0  0  0  0  0  0  0  0  0  0  0
    3.7620    2.0640   12.1679 C   0  0  0  0  0  0  0  0  0  0  0  0
    2.7149    2.0575   12.9383 O   0  0  0  0  0  0  0  0  0  0  0  0
    5.0431    2.4047   12.7487 C   0  0  0  0  0  0  0  0  0  0  0  0
    5.3231    3.7604   12.9687 O   0  0  0  0  0  0  0  0  0  0  0  0
    5.0081    4.6903   12.0100 C   0  0  0  0  0  0  0  0  0  0  0  0
    5.1004    6.0566   11.9962 C   0  0  0  0  0  0  0  0  0  0  0  0
    4.7272    6.8674   10.9300 C   0  0  0  0  0  0  0  0  0  0  0  0
    4.2239    6.2085    9.7934 C   0  0  0  0  0  0  0  0  0  0  0  0
    4.1275    4.8577    9.7882 C   0  0  0  0  0  0  0  0  0  0  0  0
    4.5013    4.1555   10.8435 N   0  0  0  0  0  0  0  0  0  0  0  0
    3.7926    6.9563    8.5737 C   0  0  0  0  0  0  0  0  0  0  0  0
    3.5491    8.2577    8.8887 F   0  0  0  0  0  0  0  0  0  0  0  0
    2.6089    6.3870    8.0825 F   0  0  0  0  0  0  0  0  0  0  0  0
    4.7732    6.7632    7.6300 F   0  0  0  0  0  0  0  0  0  0  0  0
    4.9050    1.8826   14.2519 C   0  0  0  0  0  0  0  0  0  0  0  0
    6.2457    1.6779   12.2436 C   0  0  0  0  0  0  0  0  0  0  0  0
    1.3937    1.9688    9.4905 C   0  0  0  0  0  0  0  0  0  0  0  0
    2.8342   -0.7458    8.9487 C   0  0  0  0  0  0  0  0  0  0  0  0
    2.3982   -1.7579    8.0174 C   0  0  0  0  0  0  0  0  0  0  0  0
    1.0124   -1.8406    7.7976 C   0  0  0  0  0  0  0  0  0  0  0  0
    0.4365   -2.8495    7.0453 C   0  0  0  0  0  0  0  0  0  0  0  0
    1.2631   -3.8008    6.5056 C   0  0  0  0  0  0  0  0  0  0  0  0
    2.5949   -3.7479    6.6967 C   0  0  0  0  0  0  0  0  0  0  0  0
    3.1918   -2.7212    7.4568 C   0  0  0  0  0  0  0  0  0  0  0  0
    0.5279   -5.1457    5.5788 Cl  0  0  0  0  0  0  0  0  0  0  0  0
  1  2  3  0
  2  3  1  0
  3  4  2  0
  4  5  1  0
  5  6  2  0
  6  7  1  0
  7  8  2  0
  7  9  1  0
  9 10  1  0
 10 11  1  0
 11 12  1  0
 12 13  2  0
 12 14  1  0
 14 15  1  0
 15 16  1  0
 16 17  2  0
 17 18  1  0
 18 19  2  0
 19 20  1  0
 20 21  2  0
 19 22  1  0
 22 23  1  0
 22 24  1  0
 22 25  1  0
 14 26  1  0
 14 27  1  0
 10 28  1  6
  9 29  1  1
 29 30  1  0
 30 31  2  0
 31 32  1  0
 32 33  2  0
 33 34  1  0
 34 35  2  0
 33 36  1  0
  8  3  1  0
 21 16  1  0
 35 30  1  0
M  END
$$$$
