
     RDKit          3D

 36 38  0  0  0  0  0  0  0  0999 V2000
    3.9100   -6.2755    9.7291 N   0  0  0  0  0  0  0  0  0  0  0  0
    4.0620   -5.0658    9.7038 C   0  0  0  0  0  0  0  0  0  0  0  0
    4.2259   -3.6510    9.6538 C   0  0  0  0  0  0  0  0  0  0  0  0
    5.1476   -3.0718    8.8011 C   0  0  0  0  0  0  0  0  0  0  0  0
    5.3372   -1.7034    8.7459 C   0  0  0  0  0  0  0  0  0  0  0  0
    4.5548   -0.9631    9.5845 C   0  0  0  0  0  0  0  0  0  0  0  0
    3.6187   -1.3953   10.4478 C   0  0  0  0  0  0  0  0  0  0  0  0
    3.4783   -2.8436   10.4570 C   0  0  0  0  0  0  0  0  0  0  0  0
    2.7699   -0.7215   11.4107 C   0  0  1  0  0  0  0  0  0  0  0  0
    3.5120    0.2916   12.2443 C   0  0  1  0  0  0  0  0  0  0  0  0
    4.0839    1.4438   11.6736 N   0  0  0  0  0  0  0  0  0  0  0  0
    3.3790    2.2307   10.7096 C   0  0  0  0  0  0  0  0  0  0  0  0
    2.1367    1.8649   10.5970 O   0  0  0  0  0  0  0  0  0  0  0  0
    3.8573    3.3130    9.8763 C   0  0  0  0  0  0  0  0  0  0  0  0
    3.3726    3.3928    8.5636 O   0  0  0  0  0  0  0  0  0  0  0  0
    2.6949    2.3322    8.0169 C   0  0  0  0  0  0  0  0  0  0  0  0
    2.0734    2.1696    6.8074 C   0  0  0  0  0  0  0  0  0  0  0  0
    1.4149    1.0142    6.4015 C   0  0  0  0  0  0  0  0  0  0  0  0
    1.4047   -0.0517    7.3196 C   0  0  0  0  0  0  0  0  0  0  0  0
    2.0162    0.0902    8.5197 C   0  0  0  0  0  0  0  0  0  0  0  0
    2.6202    1.2228    8.8339 N   0  0  0  0  0  0  0  0  0  0  0  0
    0.7400   -1.3537    7.0104 C   0  0  0  0  0  0  0  0  0  0  0  0
    1.6390   -2.2152    6.4610 F   0  0  0  0  0  0  0  0  0  0  0  0
   -0.2901   -1.1333    6.0847 F   0  0  0  0  0  0  0  0  0  0  0  0
    0.1651   -1.7866    8.1815 F   0  0  0  0  0  0  0  0  0  0  0  0
    3.1660    4.5979   10.5264 C   0  0  0  0  0  0  0  0  0  0  0  0
    5.3129    3.6405    9.9375 C   0  0  0  0  0  0  0  0  0  0  0  0
    2.7575    0.6076   13.5492 C   0  0  0  0  0  0  0  0  0  0  0  0
    1.3736   -0.3957   11.1580 C   0  0  0  0  0  0  0  0  0  0  0  0
    0.2857   -1.3430   11.1333 C   0  0  0  0  0  0  0  0  0  0  0  0
   -0.9707   -0.8328   10.7635 C   0  0  0  0  0  0  0  0  0  0  0  0
   -2.1299   -1.5859   10.8322 C   0  0  0  0  0  0  0  0  0  0  0  0
   -2.0328   -2.8756   11.2866 C   0  0  0  0  0  0  0  0  0  0  0  0
   -0.8432   -3.3937   11.6467 C   0  0  0  0  0  0  0  0  0  0  0  0
    0.3442   -2.6367   11.5751 C   0  0  0  0  0  0  0  0  0  0  0  0
   -3.5319   -3.8441   11.4371 Cl  0  0  0  0  0  0  0  0  0  0  0  0
  1  2  3  0
  2  3  1  0
  3  4  2  0
  4  5  1  0
  5  6  2  0
  6  7  1  0
  7  8  2  0
  7  9  1  0
  9 10  1  0
 10 11  1  0
 11 12  1  0
 12 13  2  0
 12 14  1  0
 14 15  1  0
 15 16  1  0
 16 17  2  0
 17 18  1  0
 18 19  2  0
 19 20  1  0
 20 21  2  0
 19 22  1  0
 22 23  1  0
 22 24  1  0
 22 25  1  0
 14 26  1  0
 14 27  1  0
 10 28  1  1
  9 29  1  6
 29 30  1  0
 30 31  2  0
 31 32  1  0
 32 33  2  0
 33 34  1  0
 34 35  2  0
 33 36  1  0
  8  3  1  0
 21 16  1  0
 35 30  1  0
M  END
$$$$
