
     RDKit          3D

 36 38  0  0  0  0  0  0  0  0999 V2000
   -1.1644    3.6580   12.8841 N   0  0  0  0  0  0  0  0  0  0  0  0
   -0.2564    2.8454   12.9347 C   0  0  0  0  0  0  0  0  0  0  0  0
    0.8079    1.8982   12.9695 C   0  0  0  0  0  0  0  0  0  0  0  0
    1.1214    1.2238   14.1353 C   0  0  0  0  0  0  0  0  0  0  0  0
    2.1595    0.3129   14.1991 C   0  0  0  0  0  0  0  0  0  0  0  0
    2.8512    0.1212   13.0379 C   0  0  0  0  0  0  0  0  0  0  0  0
    2.6443    0.6980   11.8409 C   0  0  0  0  0  0  0  0  0  0  0  0
    1.5424    1.6483   11.8498 C   0  0  0  0  0  0  0  0  0  0  0  0
    3.3307    0.6136   10.5667 C   0  0  1  0  0  0  0  0  0  0  0  0
    4.5256    1.5280   10.4784 C   0  0  1  0  0  0  0  0  0  0  0  0
    4.3833    2.9234   10.3637 N   0  0  0  0  0  0  0  0  0  0  0  0
    4.6397    3.7954   11.4678 C   0  0  0  0  0  0  0  0  0  0  0  0
    4.4218    3.2129   12.6093 O   0  0  0  0  0  0  0  0  0  0  0  0
    5.0707    5.1771   11.4700 C   0  0  0  0  0  0  0  0  0  0  0  0
    4.3186    6.0993   10.7294 O   0  0  0  0  0  0  0  0  0  0  0  0
    3.4069    5.6558    9.8047 C   0  0  0  0  0  0  0  0  0  0  0  0
    2.5410    6.3244    8.9809 C   0  0  0  0  0  0  0  0  0  0  0  0
    1.6628    5.7170    8.0902 C   0  0  0  0  0  0  0  0  0  0  0  0
    1.6894    4.3110    8.0511 C   0  0  0  0  0  0  0  0  0  0  0  0
    2.5409    3.6330    8.8570 C   0  0  0  0  0  0  0  0  0  0  0  0
    3.3448    4.2831    9.6800 N   0  0  0  0  0  0  0  0  0  0  0  0
    0.8044    3.5297    7.1350 C   0  0  0  0  0  0  0  0  0  0  0  0
    0.9481    3.9766    5.8575 F   0  0  0  0  0  0  0  0  0  0  0  0
   -0.5307    3.7111    7.5237 F   0  0  0  0  0  0  0  0  0  0  0  0
    1.1192    2.2051    7.3233 F   0  0  0  0  0  0  0  0  0  0  0  0
    4.7408    5.6527   12.9587 C   0  0  0  0  0  0  0  0  0  0  0  0
    6.5343    5.4443   11.3423 C   0  0  0  0  0  0  0  0  0  0  0  0
    5.6074    1.1407   11.5039 C   0  0  0  0  0  0  0  0  0  0  0  0
    3.4502   -0.6191    9.8013 C   0  0  0  0  0  0  0  0  0  0  0  0
    2.3468   -1.3973    9.2928 C   0  0  0  0  0  0  0  0  0  0  0  0
    2.5796   -2.7751    9.1408 C   0  0  0  0  0  0  0  0  0  0  0  0
    1.6687   -3.6218    8.5333 C   0  0  0  0  0  0  0  0  0  0  0  0
    0.5018   -3.0787    8.0614 C   0  0  0  0  0  0  0  0  0  0  0  0
    0.2489   -1.7628    8.1936 C   0  0  0  0  0  0  0  0  0  0  0  0
    1.1678   -0.8929    8.8158 C   0  0  0  0  0  0  0  0  0  0  0  0
   -0.6611   -4.1505    7.2204 Cl  0  0  0  0  0  0  0  0  0  0  0  0
  1  2  3  0
  2  3  1  0
  3  4  2  0
  4  5  1  0
  5  6  2  0
  6  7  1  0
  7  8  2  0
  7  9  1  0
  9 10  1  0
 10 11  1  0
 11 12  1  0
 12 13  2  0
 12 14  1  0
 14 15  1  0
 15 16  1  0
 16 17  2  0
 17 18  1  0
 18 19  2  0
 19 20  1  0
 20 21  2  0
 19 22  1  0
 22 23  1  0
 22 24  1  0
 22 25  1  0
 14 26  1  0
 14 27  1  0
 10 28  1  1
  9 29  1  1
 29 30  1  0
 30 31  2  0
 31 32  1  0
 32 33  2  0
 33 34  1  0
 34 35  2  0
 33 36  1  0
  8  3  1  0
 21 16  1  0
 35 30  1  0
M  END
$$$$
