
     RDKit          3D

 24 26  0  0  0  0  0  0  0  0999 V2000
    2.5087    0.5907    6.1236 C   0  0  0  0  0  0  0  0  0  0  0  0
    2.7163    1.6706    7.1649 C   0  0  0  0  0  0  0  0  0  0  0  0
    1.4667    2.0827    7.8436 C   0  0  0  0  0  0  0  0  0  0  0  0
    1.4912    3.2728    8.6749 C   0  0  0  0  0  0  0  0  0  0  0  0
    2.3531    3.2369    9.7843 C   0  0  0  0  0  0  0  0  0  0  0  0
    2.4704    4.2980   10.6433 C   0  0  0  0  0  0  0  0  0  0  0  0
    1.7090    5.4396   10.4009 C   0  0  0  0  0  0  0  0  0  0  0  0
    0.8706    5.4666    9.3165 C   0  0  0  0  0  0  0  0  0  0  0  0
    0.7448    4.4021    8.4438 C   0  0  0  0  0  0  0  0  0  0  0  0
   -0.0919    4.4208    7.3592 O   0  0  0  0  0  0  0  0  0  0  0  0
   -1.4733    4.5333    7.4733 C   0  0  0  0  0  0  0  0  0  0  0  0
   -1.9323    4.4454    8.6513 O   0  0  0  0  0  0  0  0  0  0  0  0
   -2.3472    4.7424    6.2904 C   0  0  0  0  0  0  0  0  0  0  0  0
    1.7906    6.4791   11.1986 O   0  0  0  0  0  0  0  0  0  0  0  0
    2.5594    6.5241   12.2388 C   0  0  0  0  0  0  0  0  0  0  0  0
    3.3383    5.4153   12.5261 C   0  0  0  0  0  0  0  0  0  0  0  0
    3.3017    4.3099   11.7440 C   0  0  0  0  0  0  0  0  0  0  0  0
    3.9917    3.3062   11.9844 O   0  0  0  0  0  0  0  0  0  0  0  0
    4.2225    5.4968   13.7413 C   0  0  0  0  0  0  0  0  0  0  0  0
    4.6961    6.2269   14.4852 N   0  0  0  0  0  0  0  0  0  0  0  0
    5.4766    6.0327   15.5223 C   0  0  0  0  0  0  0  0  0  0  0  0
    5.7714    4.7006   15.7442 C   0  0  0  0  0  0  0  0  0  0  0  0
    4.8799    3.8623   14.4162 S   0  0  0  0  0  0  0  0  0  0  0  0
    6.0065    7.1699   16.3962 C   0  0  0  0  0  0  0  0  0  0  0  0
  1  2  1  0
  2  3  1  0
  3  4  1  0
  4  5  2  0
  5  6  1  0
  6  7  2  0
  7  8  1  0
  8  9  2  0
  9 10  1  0
 10 11  1  0
 11 12  2  0
 11 13  1  0
  7 14  1  0
 14 15  1  0
 15 16  2  0
 16 17  1  0
 17 18  2  0
 16 19  1  0
 19 20  2  0
 20 21  1  0
 21 22  2  0
 22 23  1  0
 21 24  1  0
  9  4  1  0
 17  6  1  0
 23 19  1  0
M  END
$$$$
