
     RDKit          3D

 24 26  0  0  0  0  0  0  0  0999 V2000
    3.6438   -1.2130    7.9162 C   0  0  0  0  0  0  0  0  0  0  0  0
    3.0984   -0.0844    8.7663 C   0  0  0  0  0  0  0  0  0  0  0  0
    2.8932    1.1739    8.0137 C   0  0  0  0  0  0  0  0  0  0  0  0
    2.2682    2.2932    8.6952 C   0  0  0  0  0  0  0  0  0  0  0  0
    2.9142    2.7519    9.8560 C   0  0  0  0  0  0  0  0  0  0  0  0
    2.4271    3.8038   10.5867 C   0  0  0  0  0  0  0  0  0  0  0  0
    1.2579    4.4289   10.1581 C   0  0  0  0  0  0  0  0  0  0  0  0
    0.6338    3.9755    9.0247 C   0  0  0  0  0  0  0  0  0  0  0  0
    1.1164    2.9155    8.2803 C   0  0  0  0  0  0  0  0  0  0  0  0
    0.4977    2.4556    7.1479 O   0  0  0  0  0  0  0  0  0  0  0  0
    0.7341    2.9929    5.8872 C   0  0  0  0  0  0  0  0  0  0  0  0
    1.3044    4.1246    5.8749 O   0  0  0  0  0  0  0  0  0  0  0  0
    0.3424    2.2836    4.6422 C   0  0  0  0  0  0  0  0  0  0  0  0
    0.7566    5.4404   10.8283 O   0  0  0  0  0  0  0  0  0  0  0  0
    1.2913    5.9209   11.9045 C   0  0  0  0  0  0  0  0  0  0  0  0
    2.4556    5.3362   12.3748 C   0  0  0  0  0  0  0  0  0  0  0  0
    3.0252    4.2892   11.7310 C   0  0  0  0  0  0  0  0  0  0  0  0
    4.0682    3.7514   12.1362 O   0  0  0  0  0  0  0  0  0  0  0  0
    3.0547    5.9164   13.6277 C   0  0  0  0  0  0  0  0  0  0  0  0
    3.9109    5.7947   14.3780 N   0  0  0  0  0  0  0  0  0  0  0  0
    4.2324    6.4748   15.4533 C   0  0  0  0  0  0  0  0  0  0  0  0
    3.3726    7.5252   15.7147 C   0  0  0  0  0  0  0  0  0  0  0  0
    2.1787    7.4162   14.3642 S   0  0  0  0  0  0  0  0  0  0  0  0
    5.4390    6.1357   16.3291 C   0  0  0  0  0  0  0  0  0  0  0  0
  1  2  1  0
  2  3  1  0
  3  4  1  0
  4  5  2  0
  5  6  1  0
  6  7  2  0
  7  8  1  0
  8  9  2  0
  9 10  1  0
 10 11  1  0
 11 12  2  0
 11 13  1  0
  7 14  1  0
 14 15  1  0
 15 16  2  0
 16 17  1  0
 17 18  2  0
 16 19  1  0
 19 20  2  0
 20 21  1  0
 21 22  2  0
 22 23  1  0
 21 24  1  0
  9  4  1  0
 17  6  1  0
 23 19  1  0
M  END
$$$$
