
     RDKit          3D

 24 26  0  0  0  0  0  0  0  0999 V2000
    6.6044    4.8619   16.5455 C   0  0  0  0  0  0  0  0  0  0  0  0
    5.4453    4.6933   15.5854 C   0  0  0  0  0  0  0  0  0  0  0  0
    5.2618    5.8462   14.6750 C   0  0  0  0  0  0  0  0  0  0  0  0
    4.1071    5.8554   13.7948 C   0  0  0  0  0  0  0  0  0  0  0  0
    4.0994    4.8921   12.7716 C   0  0  0  0  0  0  0  0  0  0  0  0
    3.0650    4.7946   11.8782 C   0  0  0  0  0  0  0  0  0  0  0  0
    1.9959    5.6804   11.9966 C   0  0  0  0  0  0  0  0  0  0  0  0
    2.0110    6.6172   12.9975 C   0  0  0  0  0  0  0  0  0  0  0  0
    3.0492    6.7242   13.9037 C   0  0  0  0  0  0  0  0  0  0  0  0
    3.0724    7.6585   14.9054 O   0  0  0  0  0  0  0  0  0  0  0  0
    3.5235    8.9600   14.7134 C   0  0  0  0  0  0  0  0  0  0  0  0
    3.6471    9.3217   13.5052 O   0  0  0  0  0  0  0  0  0  0  0  0
    3.8377    9.8610   15.8519 C   0  0  0  0  0  0  0  0  0  0  0  0
    0.9841    5.6220   11.1620 O   0  0  0  0  0  0  0  0  0  0  0  0
    0.9026    4.7652   10.1954 C   0  0  0  0  0  0  0  0  0  0  0  0
    1.9390    3.8609   10.0324 C   0  0  0  0  0  0  0  0  0  0  0  0
    3.0125    3.8669   10.8587 C   0  0  0  0  0  0  0  0  0  0  0  0
    3.9514    3.0651   10.7294 O   0  0  0  0  0  0  0  0  0  0  0  0
    1.8163    2.8765    8.9006 C   0  0  0  0  0  0  0  0  0  0  0  0
    2.3753    2.0527    8.3353 N   0  0  0  0  0  0  0  0  0  0  0  0
    2.0247    1.2983    7.3202 C   0  0  0  0  0  0  0  0  0  0  0  0
    0.7466    1.5566    6.8614 C   0  0  0  0  0  0  0  0  0  0  0  0
    0.1824    2.8761    7.9576 S   0  0  0  0  0  0  0  0  0  0  0  0
    2.9421    0.2399    6.7071 C   0  0  0  0  0  0  0  0  0  0  0  0
  1  2  1  0
  2  3  1  0
  3  4  1  0
  4  5  2  0
  5  6  1  0
  6  7  2  0
  7  8  1  0
  8  9  2  0
  9 10  1  0
 10 11  1  0
 11 12  2  0
 11 13  1  0
  7 14  1  0
 14 15  1  0
 15 16  2  0
 16 17  1  0
 17 18  2  0
 16 19  1  0
 19 20  2  0
 20 21  1  0
 21 22  2  0
 22 23  1  0
 21 24  1  0
  9  4  1  0
 17  6  1  0
 23 19  1  0
M  END
$$$$
