
     RDKit          3D

 24 26  0  0  0  0  0  0  0  0999 V2000
    1.9125    0.1722    7.3865 C   0  0  0  0  0  0  0  0  0  0  0  0
    1.5011    1.3063    8.3021 C   0  0  0  0  0  0  0  0  0  0  0  0
    2.1154    2.6049    7.9442 C   0  0  0  0  0  0  0  0  0  0  0  0
    1.9416    3.7255    8.8509 C   0  0  0  0  0  0  0  0  0  0  0  0
    2.7667    3.7366    9.9885 C   0  0  0  0  0  0  0  0  0  0  0  0
    2.7026    4.7412   10.9182 C   0  0  0  0  0  0  0  0  0  0  0  0
    1.7903    5.7758   10.7204 C   0  0  0  0  0  0  0  0  0  0  0  0
    0.9891    5.7576    9.6080 C   0  0  0  0  0  0  0  0  0  0  0  0
    1.0456    4.7493    8.6642 C   0  0  0  0  0  0  0  0  0  0  0  0
    0.2473    4.7231    7.5512 O   0  0  0  0  0  0  0  0  0  0  0  0
   -1.1080    4.4153    7.6012 C   0  0  0  0  0  0  0  0  0  0  0  0
   -1.4264    3.4832    8.3987 O   0  0  0  0  0  0  0  0  0  0  0  0
   -2.1104    5.1338    6.7733 C   0  0  0  0  0  0  0  0  0  0  0  0
    1.6960    6.7582   11.5861 O   0  0  0  0  0  0  0  0  0  0  0  0
    2.4191    6.8406   12.6563 C   0  0  0  0  0  0  0  0  0  0  0  0
    3.3427    5.8378   12.9017 C   0  0  0  0  0  0  0  0  0  0  0  0
    3.4907    4.7957   12.0490 C   0  0  0  0  0  0  0  0  0  0  0  0
    4.3124    3.8872   12.2509 O   0  0  0  0  0  0  0  0  0  0  0  0
    4.1695    5.9607   14.1533 C   0  0  0  0  0  0  0  0  0  0  0  0
    4.3494    6.6162   15.0745 N   0  0  0  0  0  0  0  0  0  0  0  0
    5.1812    6.4959   16.0825 C   0  0  0  0  0  0  0  0  0  0  0  0
    5.9776    5.3688   16.0040 C   0  0  0  0  0  0  0  0  0  0  0  0
    5.4336    4.5955   14.4655 S   0  0  0  0  0  0  0  0  0  0  0  0
    5.2598    7.5050   17.2285 C   0  0  0  0  0  0  0  0  0  0  0  0
  1  2  1  0
  2  3  1  0
  3  4  1  0
  4  5  2  0
  5  6  1  0
  6  7  2  0
  7  8  1  0
  8  9  2  0
  9 10  1  0
 10 11  1  0
 11 12  2  0
 11 13  1  0
  7 14  1  0
 14 15  1  0
 15 16  2  0
 16 17  1  0
 17 18  2  0
 16 19  1  0
 19 20  2  0
 20 21  1  0
 21 22  2  0
 22 23  1  0
 21 24  1  0
  9  4  1  0
 17  6  1  0
 23 19  1  0
M  END
$$$$
