
     RDKit          3D

 24 26  0  0  0  0  0  0  0  0999 V2000
    6.4439    7.3233   15.9151 C   0  0  0  0  0  0  0  0  0  0  0  0
    5.6544    7.0832   14.6451 C   0  0  0  0  0  0  0  0  0  0  0  0
    4.2450    6.7023   14.8906 C   0  0  0  0  0  0  0  0  0  0  0  0
    3.3589    6.5574   13.7495 C   0  0  0  0  0  0  0  0  0  0  0  0
    3.6026    5.4564   12.9109 C   0  0  0  0  0  0  0  0  0  0  0  0
    2.8344    5.2068   11.8040 C   0  0  0  0  0  0  0  0  0  0  0  0
    1.7848    6.0753   11.5109 C   0  0  0  0  0  0  0  0  0  0  0  0
    1.5537    7.1470   12.3341 C   0  0  0  0  0  0  0  0  0  0  0  0
    2.3224    7.4080   13.4529 C   0  0  0  0  0  0  0  0  0  0  0  0
    2.0989    8.4776   14.2792 O   0  0  0  0  0  0  0  0  0  0  0  0
    0.8235    8.9061   14.6312 C   0  0  0  0  0  0  0  0  0  0  0  0
   -0.1327    8.2712   14.0941 O   0  0  0  0  0  0  0  0  0  0  0  0
    0.6030   10.0328   15.5738 C   0  0  0  0  0  0  0  0  0  0  0  0
    1.0238    5.8734   10.4604 O   0  0  0  0  0  0  0  0  0  0  0  0
    1.1832    4.8843    9.6410 C   0  0  0  0  0  0  0  0  0  0  0  0
    2.2124    3.9902    9.8857 C   0  0  0  0  0  0  0  0  0  0  0  0
    3.0344    4.1406   10.9520 C   0  0  0  0  0  0  0  0  0  0  0  0
    3.9623    3.3505   11.1886 O   0  0  0  0  0  0  0  0  0  0  0  0
    2.3730    2.8500    8.9165 C   0  0  0  0  0  0  0  0  0  0  0  0
    3.1344    2.1120    8.4847 N   0  0  0  0  0  0  0  0  0  0  0  0
    3.0143    1.1544    7.5953 C   0  0  0  0  0  0  0  0  0  0  0  0
    1.7305    1.0254    7.0992 C   0  0  0  0  0  0  0  0  0  0  0  0
    0.8248    2.3155    7.9803 S   0  0  0  0  0  0  0  0  0  0  0  0
    4.1813    0.2712    7.1529 C   0  0  0  0  0  0  0  0  0  0  0  0
  1  2  1  0
  2  3  1  0
  3  4  1  0
  4  5  2  0
  5  6  1  0
  6  7  2  0
  7  8  1  0
  8  9  2  0
  9 10  1  0
 10 11  1  0
 11 12  2  0
 11 13  1  0
  7 14  1  0
 14 15  1  0
 15 16  2  0
 16 17  1  0
 17 18  2  0
 16 19  1  0
 19 20  2  0
 20 21  1  0
 21 22  2  0
 22 23  1  0
 21 24  1  0
  9  4  1  0
 17  6  1  0
 23 19  1  0
M  END
$$$$
