
     RDKit          3D

 24 26  0  0  0  0  0  0  0  0999 V2000
    6.8071    5.9360   15.4096 C   0  0  0  0  0  0  0  0  0  0  0  0
    5.8147    6.0784   14.2745 C   0  0  0  0  0  0  0  0  0  0  0  0
    4.5294    5.3877   14.5253 C   0  0  0  0  0  0  0  0  0  0  0  0
    3.5333    5.3752   13.4690 C   0  0  0  0  0  0  0  0  0  0  0  0
    3.6409    4.3376   12.5273 C   0  0  0  0  0  0  0  0  0  0  0  0
    2.7599    4.2130   11.4852 C   0  0  0  0  0  0  0  0  0  0  0  0
    1.7325    5.1465   11.3652 C   0  0  0  0  0  0  0  0  0  0  0  0
    1.6344    6.1557   12.2880 C   0  0  0  0  0  0  0  0  0  0  0  0
    2.5175    6.2906   13.3428 C   0  0  0  0  0  0  0  0  0  0  0  0
    2.4272    7.2970   14.2679 O   0  0  0  0  0  0  0  0  0  0  0  0
    1.9847    8.5766   13.9506 C   0  0  0  0  0  0  0  0  0  0  0  0
    1.8587    8.8189   12.7130 O   0  0  0  0  0  0  0  0  0  0  0  0
    1.6816    9.5875   14.9960 C   0  0  0  0  0  0  0  0  0  0  0  0
    0.8664    5.0645   10.3819 O   0  0  0  0  0  0  0  0  0  0  0  0
    0.8976    4.1403    9.4764 C   0  0  0  0  0  0  0  0  0  0  0  0
    1.8990    3.1861    9.5484 C   0  0  0  0  0  0  0  0  0  0  0  0
    2.8246    3.2130   10.5372 C   0  0  0  0  0  0  0  0  0  0  0  0
    3.7298    2.3673   10.6193 O   0  0  0  0  0  0  0  0  0  0  0  0
    1.9097    2.1238    8.4823 C   0  0  0  0  0  0  0  0  0  0  0  0
    1.2626    1.6142    7.6871 N   0  0  0  0  0  0  0  0  0  0  0  0
    1.5252    0.6534    6.8325 C   0  0  0  0  0  0  0  0  0  0  0  0
    2.8215    0.1815    6.9200 C   0  0  0  0  0  0  0  0  0  0  0  0
    3.5297    1.1873    8.2421 S   0  0  0  0  0  0  0  0  0  0  0  0
    0.4963    0.1111    5.8400 C   0  0  0  0  0  0  0  0  0  0  0  0
  1  2  1  0
  2  3  1  0
  3  4  1  0
  4  5  2  0
  5  6  1  0
  6  7  2  0
  7  8  1  0
  8  9  2  0
  9 10  1  0
 10 11  1  0
 11 12  2  0
 11 13  1  0
  7 14  1  0
 14 15  1  0
 15 16  2  0
 16 17  1  0
 17 18  2  0
 16 19  1  0
 19 20  2  0
 20 21  1  0
 21 22  2  0
 22 23  1  0
 21 24  1  0
  9  4  1  0
 17  6  1  0
 23 19  1  0
M  END
$$$$
