
     RDKit          3D

 24 26  0  0  0  0  0  0  0  0999 V2000
    4.4781   -0.4555    7.8493 C   0  0  0  0  0  0  0  0  0  0  0  0
    4.0758    0.7848    8.6197 C   0  0  0  0  0  0  0  0  0  0  0  0
    2.8127    1.3914    8.1417 C   0  0  0  0  0  0  0  0  0  0  0  0
    2.3789    2.6436    8.7349 C   0  0  0  0  0  0  0  0  0  0  0  0
    2.9560    2.9765    9.9723 C   0  0  0  0  0  0  0  0  0  0  0  0
    2.6332    4.1330   10.6327 C   0  0  0  0  0  0  0  0  0  0  0  0
    1.7058    4.9959   10.0522 C   0  0  0  0  0  0  0  0  0  0  0  0
    1.1475    4.6638    8.8449 C   0  0  0  0  0  0  0  0  0  0  0  0
    1.4659    3.5001    8.1704 C   0  0  0  0  0  0  0  0  0  0  0  0
    0.9111    3.1605    6.9647 O   0  0  0  0  0  0  0  0  0  0  0  0
   -0.2795    2.4504    6.8547 C   0  0  0  0  0  0  0  0  0  0  0  0
   -1.0303    2.4831    7.8752 O   0  0  0  0  0  0  0  0  0  0  0  0
   -0.6418    1.7055    5.6217 C   0  0  0  0  0  0  0  0  0  0  0  0
    1.3680    6.1145   10.6507 O   0  0  0  0  0  0  0  0  0  0  0  0
    1.8538    6.4916   11.7894 C   0  0  0  0  0  0  0  0  0  0  0  0
    2.7803    5.6705   12.4106 C   0  0  0  0  0  0  0  0  0  0  0  0
    3.1724    4.5025   11.8474 C   0  0  0  0  0  0  0  0  0  0  0  0
    4.0013    3.7528   12.3879 O   0  0  0  0  0  0  0  0  0  0  0  0
    3.3280    6.1351   13.7332 C   0  0  0  0  0  0  0  0  0  0  0  0
    3.3400    7.0166   14.4637 N   0  0  0  0  0  0  0  0  0  0  0  0
    3.9325    7.1816   15.6231 C   0  0  0  0  0  0  0  0  0  0  0  0
    4.6724    6.0839   16.0212 C   0  0  0  0  0  0  0  0  0  0  0  0
    4.4302    4.9187   14.6630 S   0  0  0  0  0  0  0  0  0  0  0  0
    3.8149    8.4629   16.4489 C   0  0  0  0  0  0  0  0  0  0  0  0
  1  2  1  0
  2  3  1  0
  3  4  1  0
  4  5  2  0
  5  6  1  0
  6  7  2  0
  7  8  1  0
  8  9  2  0
  9 10  1  0
 10 11  1  0
 11 12  2  0
 11 13  1  0
  7 14  1  0
 14 15  1  0
 15 16  2  0
 16 17  1  0
 17 18  2  0
 16 19  1  0
 19 20  2  0
 20 21  1  0
 21 22  2  0
 22 23  1  0
 21 24  1  0
  9  4  1  0
 17  6  1  0
 23 19  1  0
M  END
$$$$
