
     RDKit          3D

 24 26  0  0  0  0  0  0  0  0999 V2000
    4.1668   -0.6214    7.5620 C   0  0  0  0  0  0  0  0  0  0  0  0
    3.7848    0.6665    8.2613 C   0  0  0  0  0  0  0  0  0  0  0  0
    2.3364    0.9657    8.1951 C   0  0  0  0  0  0  0  0  0  0  0  0
    1.8520    2.1822    8.8224 C   0  0  0  0  0  0  0  0  0  0  0  0
    2.5519    2.6135    9.9622 C   0  0  0  0  0  0  0  0  0  0  0  0
    2.1966    3.7488   10.6422 C   0  0  0  0  0  0  0  0  0  0  0  0
    1.1094    4.4890   10.1821 C   0  0  0  0  0  0  0  0  0  0  0  0
    0.4319    4.0616    9.0695 C   0  0  0  0  0  0  0  0  0  0  0  0
    0.7818    2.9181    8.3763 C   0  0  0  0  0  0  0  0  0  0  0  0
    0.1089    2.4836    7.2649 O   0  0  0  0  0  0  0  0  0  0  0  0
    0.4470    2.8789    5.9751 C   0  0  0  0  0  0  0  0  0  0  0  0
    1.1666    3.9189    5.8944 O   0  0  0  0  0  0  0  0  0  0  0  0
   -0.0077    2.1286    4.7763 C   0  0  0  0  0  0  0  0  0  0  0  0
    0.7349    5.5832   10.8035 O   0  0  0  0  0  0  0  0  0  0  0  0
    1.3267    6.0455   11.8576 C   0  0  0  0  0  0  0  0  0  0  0  0
    2.4140    5.3480   12.3574 C   0  0  0  0  0  0  0  0  0  0  0  0
    2.8521    4.2116   11.7642 C   0  0  0  0  0  0  0  0  0  0  0  0
    3.8244    3.5721   12.1965 O   0  0  0  0  0  0  0  0  0  0  0  0
    3.0821    5.9097   13.5835 C   0  0  0  0  0  0  0  0  0  0  0  0
    3.8481    5.6744   14.4012 N   0  0  0  0  0  0  0  0  0  0  0  0
    4.2800    6.3783   15.4212 C   0  0  0  0  0  0  0  0  0  0  0  0
    3.6953    7.6276   15.5116 C   0  0  0  0  0  0  0  0  0  0  0  0
    2.5719    7.6515   14.0979 S   0  0  0  0  0  0  0  0  0  0  0  0
    5.3260    5.8640   16.4107 C   0  0  0  0  0  0  0  0  0  0  0  0
  1  2  1  0
  2  3  1  0
  3  4  1  0
  4  5  2  0
  5  6  1  0
  6  7  2  0
  7  8  1  0
  8  9  2  0
  9 10  1  0
 10 11  1  0
 11 12  2  0
 11 13  1  0
  7 14  1  0
 14 15  1  0
 15 16  2  0
 16 17  1  0
 17 18  2  0
 16 19  1  0
 19 20  2  0
 20 21  1  0
 21 22  2  0
 22 23  1  0
 21 24  1  0
  9  4  1  0
 17  6  1  0
 23 19  1  0
M  END
$$$$
