
     RDKit          3D

 24 26  0  0  0  0  0  0  0  0999 V2000
    3.3665   -0.3110    7.1492 C   0  0  0  0  0  0  0  0  0  0  0  0
    2.7413    0.7092    8.0777 C   0  0  0  0  0  0  0  0  0  0  0  0
    2.8220    2.0969    7.5685 C   0  0  0  0  0  0  0  0  0  0  0  0
    2.3609    3.1755    8.4240 C   0  0  0  0  0  0  0  0  0  0  0  0
    3.1004    3.3949    9.5987 C   0  0  0  0  0  0  0  0  0  0  0  0
    2.7700    4.3848   10.4868 C   0  0  0  0  0  0  0  0  0  0  0  0
    1.6680    5.1906   10.2076 C   0  0  0  0  0  0  0  0  0  0  0  0
    0.9518    4.9701    9.0595 C   0  0  0  0  0  0  0  0  0  0  0  0
    1.2764    3.9746    8.1572 C   0  0  0  0  0  0  0  0  0  0  0  0
    0.5648    3.7470    7.0089 O   0  0  0  0  0  0  0  0  0  0  0  0
   -0.6813    3.1297    7.0027 C   0  0  0  0  0  0  0  0  0  0  0  0
   -1.1690    2.8741    8.1442 O   0  0  0  0  0  0  0  0  0  0  0  0
   -1.3886    2.7946    5.7402 C   0  0  0  0  0  0  0  0  0  0  0  0
    1.3164    6.1506   11.0312 O   0  0  0  0  0  0  0  0  0  0  0  0
    1.9449    6.4156   12.1311 C   0  0  0  0  0  0  0  0  0  0  0  0
    3.0484    5.6445   12.4571 C   0  0  0  0  0  0  0  0  0  0  0  0
    3.4645    4.6382   11.6513 C   0  0  0  0  0  0  0  0  0  0  0  0
    4.4508    3.9358   11.9256 O   0  0  0  0  0  0  0  0  0  0  0  0
    3.7593    5.9761   13.7416 C   0  0  0  0  0  0  0  0  0  0  0  0
    4.6359    5.6703   14.4115 N   0  0  0  0  0  0  0  0  0  0  0  0
    5.0716    6.1507   15.5525 C   0  0  0  0  0  0  0  0  0  0  0  0
    4.3274    7.2190   16.0169 C   0  0  0  0  0  0  0  0  0  0  0  0
    3.0643    7.4169   14.7416 S   0  0  0  0  0  0  0  0  0  0  0  0
    6.2823    5.5820   16.2929 C   0  0  0  0  0  0  0  0  0  0  0  0
  1  2  1  0
  2  3  1  0
  3  4  1  0
  4  5  2  0
  5  6  1  0
  6  7  2  0
  7  8  1  0
  8  9  2  0
  9 10  1  0
 10 11  1  0
 11 12  2  0
 11 13  1  0
  7 14  1  0
 14 15  1  0
 15 16  2  0
 16 17  1  0
 17 18  2  0
 16 19  1  0
 19 20  2  0
 20 21  1  0
 21 22  2  0
 22 23  1  0
 21 24  1  0
  9  4  1  0
 17  6  1  0
 23 19  1  0
M  END
$$$$
