
     RDKit          3D

 24 26  0  0  0  0  0  0  0  0999 V2000
    3.3982   -0.2227    7.3769 C   0  0  0  0  0  0  0  0  0  0  0  0
    3.0735    0.8815    8.3613 C   0  0  0  0  0  0  0  0  0  0  0  0
    2.6250    2.1351    7.7138 C   0  0  0  0  0  0  0  0  0  0  0  0
    2.3456    3.2858    8.5538 C   0  0  0  0  0  0  0  0  0  0  0  0
    3.0180    3.3315    9.7870 C   0  0  0  0  0  0  0  0  0  0  0  0
    2.8434    4.3667   10.6677 C   0  0  0  0  0  0  0  0  0  0  0  0
    1.9725    5.3977   10.3209 C   0  0  0  0  0  0  0  0  0  0  0  0
    1.3204    5.3456    9.1160 C   0  0  0  0  0  0  0  0  0  0  0  0
    1.4892    4.3064    8.2205 C   0  0  0  0  0  0  0  0  0  0  0  0
    0.8401    4.2463    7.0156 O   0  0  0  0  0  0  0  0  0  0  0  0
   -0.5083    3.9265    6.8996 C   0  0  0  0  0  0  0  0  0  0  0  0
   -1.0986    3.6498    7.9864 O   0  0  0  0  0  0  0  0  0  0  0  0
   -1.2047    3.9116    5.5876 C   0  0  0  0  0  0  0  0  0  0  0  0
    1.7759    6.4087   11.1350 O   0  0  0  0  0  0  0  0  0  0  0  0
    2.3565    6.5238   12.2860 C   0  0  0  0  0  0  0  0  0  0  0  0
    3.2327    5.5261   12.6804 C   0  0  0  0  0  0  0  0  0  0  0  0
    3.4804    4.4557   11.8880 C   0  0  0  0  0  0  0  0  0  0  0  0
    4.2619    3.5512   12.2231 O   0  0  0  0  0  0  0  0  0  0  0  0
    3.8932    5.6873   14.0231 C   0  0  0  0  0  0  0  0  0  0  0  0
    4.1614    6.4556   14.8284 N   0  0  0  0  0  0  0  0  0  0  0  0
    4.7775    6.3334   15.9808 C   0  0  0  0  0  0  0  0  0  0  0  0
    5.1669    5.0366   16.2590 C   0  0  0  0  0  0  0  0  0  0  0  0
    4.5952    4.1229   14.8100 S   0  0  0  0  0  0  0  0  0  0  0  0
    5.0381    7.5113   16.9201 C   0  0  0  0  0  0  0  0  0  0  0  0
  1  2  1  0
  2  3  1  0
  3  4  1  0
  4  5  2  0
  5  6  1  0
  6  7  2  0
  7  8  1  0
  8  9  2  0
  9 10  1  0
 10 11  1  0
 11 12  2  0
 11 13  1  0
  7 14  1  0
 14 15  1  0
 15 16  2  0
 16 17  1  0
 17 18  2  0
 16 19  1  0
 19 20  2  0
 20 21  1  0
 21 22  2  0
 22 23  1  0
 21 24  1  0
  9  4  1  0
 17  6  1  0
 23 19  1  0
M  END
$$$$
