
     RDKit          3D

 24 26  0  0  0  0  0  0  0  0999 V2000
    3.6147   -0.8860    8.0319 C   0  0  0  0  0  0  0  0  0  0  0  0
    2.9934    0.1677    8.9249 C   0  0  0  0  0  0  0  0  0  0  0  0
    3.0477    1.5318    8.3523 C   0  0  0  0  0  0  0  0  0  0  0  0
    2.3789    2.6071    9.0625 C   0  0  0  0  0  0  0  0  0  0  0  0
    3.0383    3.1038   10.1998 C   0  0  0  0  0  0  0  0  0  0  0  0
    2.5132    4.1205   10.9536 C   0  0  0  0  0  0  0  0  0  0  0  0
    1.2906    4.6701   10.5730 C   0  0  0  0  0  0  0  0  0  0  0  0
    0.6537    4.1799    9.4623 C   0  0  0  0  0  0  0  0  0  0  0  0
    1.1743    3.1549    8.6950 C   0  0  0  0  0  0  0  0  0  0  0  0
    0.5432    2.6586    7.5850 O   0  0  0  0  0  0  0  0  0  0  0  0
    0.2194    3.4459    6.4853 C   0  0  0  0  0  0  0  0  0  0  0  0
    0.3888    4.6925    6.6383 O   0  0  0  0  0  0  0  0  0  0  0  0
   -0.2904    2.8598    5.2192 C   0  0  0  0  0  0  0  0  0  0  0  0
    0.7516    5.6457   11.2667 O   0  0  0  0  0  0  0  0  0  0  0  0
    1.2954    6.1572   12.3238 C   0  0  0  0  0  0  0  0  0  0  0  0
    2.5122    5.6477   12.7465 C   0  0  0  0  0  0  0  0  0  0  0  0
    3.1225    4.6409   12.0764 C   0  0  0  0  0  0  0  0  0  0  0  0
    4.2128    4.1705   12.4388 O   0  0  0  0  0  0  0  0  0  0  0  0
    3.1206    6.2624   13.9782 C   0  0  0  0  0  0  0  0  0  0  0  0
    3.0062    7.1186   14.7296 N   0  0  0  0  0  0  0  0  0  0  0  0
    3.7139    7.4570   15.7817 C   0  0  0  0  0  0  0  0  0  0  0  0
    4.7886    6.6186   16.0117 C   0  0  0  0  0  0  0  0  0  0  0  0
    4.6601    5.4185   14.6685 S   0  0  0  0  0  0  0  0  0  0  0  0
    3.3806    8.6608   16.6634 C   0  0  0  0  0  0  0  0  0  0  0  0
  1  2  1  0
  2  3  1  0
  3  4  1  0
  4  5  2  0
  5  6  1  0
  6  7  2  0
  7  8  1  0
  8  9  2  0
  9 10  1  0
 10 11  1  0
 11 12  2  0
 11 13  1  0
  7 14  1  0
 14 15  1  0
 15 16  2  0
 16 17  1  0
 17 18  2  0
 16 19  1  0
 19 20  2  0
 20 21  1  0
 21 22  2  0
 22 23  1  0
 21 24  1  0
  9  4  1  0
 17  6  1  0
 23 19  1  0
M  END
$$$$
