
     RDKit          3D

 24 26  0  0  0  0  0  0  0  0999 V2000
   -1.0865   10.2429   10.1622 C   0  0  0  0  0  0  0  0  0  0  0  0
   -0.1711    9.0482   10.3305 C   0  0  0  0  0  0  0  0  0  0  0  0
   -0.7948    7.7668    9.9293 C   0  0  0  0  0  0  0  0  0  0  0  0
    0.0070    6.5580    9.9913 C   0  0  0  0  0  0  0  0  0  0  0  0
    0.8740    6.4445   11.0915 C   0  0  0  0  0  0  0  0  0  0  0  0
    1.6801    5.3504   11.2669 C   0  0  0  0  0  0  0  0  0  0  0  0
    1.6310    4.3275   10.3219 C   0  0  0  0  0  0  0  0  0  0  0  0
    0.7825    4.4459    9.2515 C   0  0  0  0  0  0  0  0  0  0  0  0
   -0.0347    5.5450    9.0651 C   0  0  0  0  0  0  0  0  0  0  0  0
   -0.8837    5.6714    7.9974 O   0  0  0  0  0  0  0  0  0  0  0  0
   -0.4356    5.8645    6.6952 C   0  0  0  0  0  0  0  0  0  0  0  0
    0.8180    5.7770    6.5312 O   0  0  0  0  0  0  0  0  0  0  0  0
   -1.3681    6.1535    5.5756 C   0  0  0  0  0  0  0  0  0  0  0  0
    2.3862    3.2615   10.4512 O   0  0  0  0  0  0  0  0  0  0  0  0
    3.2087    3.0823   11.4342 C   0  0  0  0  0  0  0  0  0  0  0  0
    3.2972    4.0689   12.4024 C   0  0  0  0  0  0  0  0  0  0  0  0
    2.5461    5.1939   12.3291 C   0  0  0  0  0  0  0  0  0  0  0  0
    2.6107    6.0895   13.1863 O   0  0  0  0  0  0  0  0  0  0  0  0
    4.2615    3.8328   13.5335 C   0  0  0  0  0  0  0  0  0  0  0  0
    4.8910    4.3628   14.3295 N   0  0  0  0  0  0  0  0  0  0  0  0
    5.6985    3.8998   15.2548 C   0  0  0  0  0  0  0  0  0  0  0  0
    5.7966    2.5210   15.2562 C   0  0  0  0  0  0  0  0  0  0  0  0
    4.6998    2.0361   13.9060 S   0  0  0  0  0  0  0  0  0  0  0  0
    6.4554    4.7994   16.2322 C   0  0  0  0  0  0  0  0  0  0  0  0
  1  2  1  0
  2  3  1  0
  3  4  1  0
  4  5  2  0
  5  6  1  0
  6  7  2  0
  7  8  1  0
  8  9  2  0
  9 10  1  0
 10 11  1  0
 11 12  2  0
 11 13  1  0
  7 14  1  0
 14 15  1  0
 15 16  2  0
 16 17  1  0
 17 18  2  0
 16 19  1  0
 19 20  2  0
 20 21  1  0
 21 22  2  0
 22 23  1  0
 21 24  1  0
  9  4  1  0
 17  6  1  0
 23 19  1  0
M  END
$$$$
