
     RDKit          3D

 24 26  0  0  0  0  0  0  0  0999 V2000
    2.7498   -0.0484    6.5619 C   0  0  0  0  0  0  0  0  0  0  0  0
    2.9289    1.1382    7.4859 C   0  0  0  0  0  0  0  0  0  0  0  0
    1.6601    1.8280    7.8117 C   0  0  0  0  0  0  0  0  0  0  0  0
    1.7189    3.0546    8.5862 C   0  0  0  0  0  0  0  0  0  0  0  0
    2.4165    2.9863    9.8043 C   0  0  0  0  0  0  0  0  0  0  0  0
    2.5472    4.0761   10.6246 C   0  0  0  0  0  0  0  0  0  0  0  0
    1.9683    5.2807   10.2305 C   0  0  0  0  0  0  0  0  0  0  0  0
    1.2895    5.3391    9.0409 C   0  0  0  0  0  0  0  0  0  0  0  0
    1.1516    4.2461    8.2060 C   0  0  0  0  0  0  0  0  0  0  0  0
    0.4735    4.2960    7.0167 O   0  0  0  0  0  0  0  0  0  0  0  0
   -0.8877    4.5686    6.9347 C   0  0  0  0  0  0  0  0  0  0  0  0
   -1.4839    4.7076    8.0443 O   0  0  0  0  0  0  0  0  0  0  0  0
   -1.5903    4.6877    5.6313 C   0  0  0  0  0  0  0  0  0  0  0  0
    2.0694    6.3495   10.9862 O   0  0  0  0  0  0  0  0  0  0  0  0
    2.6943    6.3679   12.1195 C   0  0  0  0  0  0  0  0  0  0  0  0
    3.2885    5.1964   12.5590 C   0  0  0  0  0  0  0  0  0  0  0  0
    3.2217    4.0581   11.8278 C   0  0  0  0  0  0  0  0  0  0  0  0
    3.7474    2.9982   12.2040 O   0  0  0  0  0  0  0  0  0  0  0  0
    4.0083    5.2482   13.8797 C   0  0  0  0  0  0  0  0  0  0  0  0
    4.4323    5.9630   14.6672 N   0  0  0  0  0  0  0  0  0  0  0  0
    5.0527    5.7424   15.8025 C   0  0  0  0  0  0  0  0  0  0  0  0
    5.2166    4.3993   16.0852 C   0  0  0  0  0  0  0  0  0  0  0  0
    4.4486    3.5904   14.6650 S   0  0  0  0  0  0  0  0  0  0  0  0
    5.5453    6.8626   16.7191 C   0  0  0  0  0  0  0  0  0  0  0  0
  1  2  1  0
  2  3  1  0
  3  4  1  0
  4  5  2  0
  5  6  1  0
  6  7  2  0
  7  8  1  0
  8  9  2  0
  9 10  1  0
 10 11  1  0
 11 12  2  0
 11 13  1  0
  7 14  1  0
 14 15  1  0
 15 16  2  0
 16 17  1  0
 17 18  2  0
 16 19  1  0
 19 20  2  0
 20 21  1  0
 21 22  2  0
 22 23  1  0
 21 24  1  0
  9  4  1  0
 17  6  1  0
 23 19  1  0
M  END
$$$$
