
     RDKit          3D

 24 26  0  0  0  0  0  0  0  0999 V2000
    2.6716    0.4251    6.3204 C   0  0  0  0  0  0  0  0  0  0  0  0
    2.7123    1.5085    7.3779 C   0  0  0  0  0  0  0  0  0  0  0  0
    1.4706    1.5967    8.1792 C   0  0  0  0  0  0  0  0  0  0  0  0
    1.2598    2.7752    9.0007 C   0  0  0  0  0  0  0  0  0  0  0  0
    2.2144    3.0101   10.0050 C   0  0  0  0  0  0  0  0  0  0  0  0
    2.1304    4.0904   10.8437 C   0  0  0  0  0  0  0  0  0  0  0  0
    1.0648    4.9746   10.6877 C   0  0  0  0  0  0  0  0  0  0  0  0
    0.1379    4.7384    9.7056 C   0  0  0  0  0  0  0  0  0  0  0  0
    0.2130    3.6520    8.8544 C   0  0  0  0  0  0  0  0  0  0  0  0
   -0.7100    3.4082    7.8718 O   0  0  0  0  0  0  0  0  0  0  0  0
   -2.0485    3.7672    7.9876 C   0  0  0  0  0  0  0  0  0  0  0  0
   -2.3488    4.4246    9.0286 O   0  0  0  0  0  0  0  0  0  0  0  0
   -3.0543    3.4018    6.9573 C   0  0  0  0  0  0  0  0  0  0  0  0
    0.9460    6.0226   11.4696 O   0  0  0  0  0  0  0  0  0  0  0  0
    1.7819    6.3077   12.4156 C   0  0  0  0  0  0  0  0  0  0  0  0
    2.8602    5.4613   12.6142 C   0  0  0  0  0  0  0  0  0  0  0  0
    3.0417    4.3627   11.8428 C   0  0  0  0  0  0  0  0  0  0  0  0
    4.0013    3.5918   12.0047 O   0  0  0  0  0  0  0  0  0  0  0  0
    3.8155    5.8186   13.7210 C   0  0  0  0  0  0  0  0  0  0  0  0
    4.6492    5.4007   14.3852 N   0  0  0  0  0  0  0  0  0  0  0  0
    5.3680    5.9524   15.3346 C   0  0  0  0  0  0  0  0  0  0  0  0
    5.0498    7.2781   15.5625 C   0  0  0  0  0  0  0  0  0  0  0  0
    3.7316    7.5888   14.3679 S   0  0  0  0  0  0  0  0  0  0  0  0
    6.4493    5.2000   16.1108 C   0  0  0  0  0  0  0  0  0  0  0  0
  1  2  1  0
  2  3  1  0
  3  4  1  0
  4  5  2  0
  5  6  1  0
  6  7  2  0
  7  8  1  0
  8  9  2  0
  9 10  1  0
 10 11  1  0
 11 12  2  0
 11 13  1  0
  7 14  1  0
 14 15  1  0
 15 16  2  0
 16 17  1  0
 17 18  2  0
 16 19  1  0
 19 20  2  0
 20 21  1  0
 21 22  2  0
 22 23  1  0
 21 24  1  0
  9  4  1  0
 17  6  1  0
 23 19  1  0
M  END
$$$$
