
     RDKit          3D

 24 26  0  0  0  0  0  0  0  0999 V2000
    4.2430   -0.3218    7.3304 C   0  0  0  0  0  0  0  0  0  0  0  0
    3.9702    0.8031    8.3071 C   0  0  0  0  0  0  0  0  0  0  0  0
    2.6307    1.4123    8.1451 C   0  0  0  0  0  0  0  0  0  0  0  0
    2.4066    2.7430    8.6808 C   0  0  0  0  0  0  0  0  0  0  0  0
    2.8955    2.9804    9.9768 C   0  0  0  0  0  0  0  0  0  0  0  0
    2.7512    4.1961   10.5924 C   0  0  0  0  0  0  0  0  0  0  0  0
    2.1000    5.2185    9.9053 C   0  0  0  0  0  0  0  0  0  0  0  0
    1.6261    4.9789    8.6414 C   0  0  0  0  0  0  0  0  0  0  0  0
    1.7661    3.7566    8.0112 C   0  0  0  0  0  0  0  0  0  0  0  0
    1.2939    3.5089    6.7493 O   0  0  0  0  0  0  0  0  0  0  0  0
   -0.0196    3.1288    6.4959 C   0  0  0  0  0  0  0  0  0  0  0  0
   -0.7867    3.1117    7.5046 O   0  0  0  0  0  0  0  0  0  0  0  0
   -0.4866    2.7681    5.1327 C   0  0  0  0  0  0  0  0  0  0  0  0
    1.9402    6.3987   10.4577 O   0  0  0  0  0  0  0  0  0  0  0  0
    2.3612    6.6959   11.6449 C   0  0  0  0  0  0  0  0  0  0  0  0
    3.0157    5.7155   12.3723 C   0  0  0  0  0  0  0  0  0  0  0  0
    3.2137    4.4766   11.8614 C   0  0  0  0  0  0  0  0  0  0  0  0
    3.7977    3.5844   12.4970 O   0  0  0  0  0  0  0  0  0  0  0  0
    3.4943    6.0901   13.7492 C   0  0  0  0  0  0  0  0  0  0  0  0
    3.7293    6.9807   14.4291 N   0  0  0  0  0  0  0  0  0  0  0  0
    4.1598    7.0440   15.6673 C   0  0  0  0  0  0  0  0  0  0  0  0
    4.3613    5.8027   16.2413 C   0  0  0  0  0  0  0  0  0  0  0  0
    3.9023    4.6650   14.9162 S   0  0  0  0  0  0  0  0  0  0  0  0
    4.4135    8.3621   16.3994 C   0  0  0  0  0  0  0  0  0  0  0  0
  1  2  1  0
  2  3  1  0
  3  4  1  0
  4  5  2  0
  5  6  1  0
  6  7  2  0
  7  8  1  0
  8  9  2  0
  9 10  1  0
 10 11  1  0
 11 12  2  0
 11 13  1  0
  7 14  1  0
 14 15  1  0
 15 16  2  0
 16 17  1  0
 17 18  2  0
 16 19  1  0
 19 20  2  0
 20 21  1  0
 21 22  2  0
 22 23  1  0
 21 24  1  0
  9  4  1  0
 17  6  1  0
 23 19  1  0
M  END
$$$$
