
     RDKit          3D

 24 26  0  0  0  0  0  0  0  0999 V2000
    4.3490   -1.0348    8.2473 C   0  0  0  0  0  0  0  0  0  0  0  0
    3.6669    0.1109    8.9655 C   0  0  0  0  0  0  0  0  0  0  0  0
    3.6631    1.3728    8.1913 C   0  0  0  0  0  0  0  0  0  0  0  0
    2.9723    2.5228    8.7467 C   0  0  0  0  0  0  0  0  0  0  0  0
    3.4656    3.0124    9.9681 C   0  0  0  0  0  0  0  0  0  0  0  0
    2.9038    4.0948   10.5929 C   0  0  0  0  0  0  0  0  0  0  0  0
    1.8133    4.7201    9.9917 C   0  0  0  0  0  0  0  0  0  0  0  0
    1.3381    4.2363    8.8001 C   0  0  0  0  0  0  0  0  0  0  0  0
    1.8972    3.1454    8.1615 C   0  0  0  0  0  0  0  0  0  0  0  0
    1.4272    2.6551    6.9718 O   0  0  0  0  0  0  0  0  0  0  0  0
    0.3311    1.8035    6.8865 C   0  0  0  0  0  0  0  0  0  0  0  0
    0.1453    1.0515    7.8896 O   0  0  0  0  0  0  0  0  0  0  0  0
   -0.5587    1.7809    5.6972 C   0  0  0  0  0  0  0  0  0  0  0  0
    1.2448    5.7603   10.5559 O   0  0  0  0  0  0  0  0  0  0  0  0
    1.6394    6.2703   11.6780 C   0  0  0  0  0  0  0  0  0  0  0  0
    2.7202    5.6869   12.3186 C   0  0  0  0  0  0  0  0  0  0  0  0
    3.3522    4.6113   11.7908 C   0  0  0  0  0  0  0  0  0  0  0  0
    4.3223    4.0742   12.3491 O   0  0  0  0  0  0  0  0  0  0  0  0
    3.1568    6.3018   13.6211 C   0  0  0  0  0  0  0  0  0  0  0  0
    3.0047    7.2062   14.3064 N   0  0  0  0  0  0  0  0  0  0  0  0
    3.5396    7.5260   15.4614 C   0  0  0  0  0  0  0  0  0  0  0  0
    4.4493    6.5922   15.9211 C   0  0  0  0  0  0  0  0  0  0  0  0
    4.4342    5.3389   14.6211 S   0  0  0  0  0  0  0  0  0  0  0  0
    3.1897    8.8062   16.2206 C   0  0  0  0  0  0  0  0  0  0  0  0
  1  2  1  0
  2  3  1  0
  3  4  1  0
  4  5  2  0
  5  6  1  0
  6  7  2  0
  7  8  1  0
  8  9  2  0
  9 10  1  0
 10 11  1  0
 11 12  2  0
 11 13  1  0
  7 14  1  0
 14 15  1  0
 15 16  2  0
 16 17  1  0
 17 18  2  0
 16 19  1  0
 19 20  2  0
 20 21  1  0
 21 22  2  0
 22 23  1  0
 21 24  1  0
  9  4  1  0
 17  6  1  0
 23 19  1  0
M  END
$$$$
