
     RDKit          3D

 24 26  0  0  0  0  0  0  0  0999 V2000
    5.1208    7.2068   16.6062 C   0  0  0  0  0  0  0  0  0  0  0  0
    4.1036    6.6084   15.6569 C   0  0  0  0  0  0  0  0  0  0  0  0
    4.1171    7.2276   14.3122 C   0  0  0  0  0  0  0  0  0  0  0  0
    3.1130    6.8120   13.3494 C   0  0  0  0  0  0  0  0  0  0  0  0
    3.4732    5.7570   12.4937 C   0  0  0  0  0  0  0  0  0  0  0  0
    2.6130    5.2700   11.5446 C   0  0  0  0  0  0  0  0  0  0  0  0
    1.3483    5.8443   11.4334 C   0  0  0  0  0  0  0  0  0  0  0  0
    1.0046    6.8730   12.2719 C   0  0  0  0  0  0  0  0  0  0  0  0
    1.8644    7.3718   13.2324 C   0  0  0  0  0  0  0  0  0  0  0  0
    1.5291    8.4004   14.0728 O   0  0  0  0  0  0  0  0  0  0  0  0
    1.2038    9.6730   13.6159 C   0  0  0  0  0  0  0  0  0  0  0  0
    1.0331    9.7761   12.3644 O   0  0  0  0  0  0  0  0  0  0  0  0
    1.0672   10.8300   14.5374 C   0  0  0  0  0  0  0  0  0  0  0  0
    0.4929    5.4084   10.5379 O   0  0  0  0  0  0  0  0  0  0  0  0
    0.7484    4.4427    9.7150 C   0  0  0  0  0  0  0  0  0  0  0  0
    1.9919    3.8362    9.7826 C   0  0  0  0  0  0  0  0  0  0  0  0
    2.9208    4.2376   10.6832 C   0  0  0  0  0  0  0  0  0  0  0  0
    4.0406    3.7071   10.7598 O   0  0  0  0  0  0  0  0  0  0  0  0
    2.2602    2.7161    8.8138 C   0  0  0  0  0  0  0  0  0  0  0  0
    2.9641    1.8401    8.5948 N   0  0  0  0  0  0  0  0  0  0  0  0
    2.9837    0.9580    7.6232 C   0  0  0  0  0  0  0  0  0  0  0  0
    1.9640    1.1304    6.7061 C   0  0  0  0  0  0  0  0  0  0  0  0
    1.0766    2.5641    7.3526 S   0  0  0  0  0  0  0  0  0  0  0  0
    4.0329   -0.1492    7.5184 C   0  0  0  0  0  0  0  0  0  0  0  0
  1  2  1  0
  2  3  1  0
  3  4  1  0
  4  5  2  0
  5  6  1  0
  6  7  2  0
  7  8  1  0
  8  9  2  0
  9 10  1  0
 10 11  1  0
 11 12  2  0
 11 13  1  0
  7 14  1  0
 14 15  1  0
 15 16  2  0
 16 17  1  0
 17 18  2  0
 16 19  1  0
 19 20  2  0
 20 21  1  0
 21 22  2  0
 22 23  1  0
 21 24  1  0
  9  4  1  0
 17  6  1  0
 23 19  1  0
M  END
$$$$
