
     RDKit          3D

 24 26  0  0  0  0  0  0  0  0999 V2000
    2.6678   -0.5034    6.8256 C   0  0  0  0  0  0  0  0  0  0  0  0
    2.5104    0.5876    7.8642 C   0  0  0  0  0  0  0  0  0  0  0  0
    2.5057    1.9519    7.2895 C   0  0  0  0  0  0  0  0  0  0  0  0
    2.1223    3.0612    8.1443 C   0  0  0  0  0  0  0  0  0  0  0  0
    2.8564    3.2106    9.3333 C   0  0  0  0  0  0  0  0  0  0  0  0
    2.5952    4.2202   10.2222 C   0  0  0  0  0  0  0  0  0  0  0  0
    1.5707    5.1181    9.9293 C   0  0  0  0  0  0  0  0  0  0  0  0
    0.8592    4.9654    8.7674 C   0  0  0  0  0  0  0  0  0  0  0  0
    1.1144    3.9509    7.8640 C   0  0  0  0  0  0  0  0  0  0  0  0
    0.4069    3.7907    6.7018 O   0  0  0  0  0  0  0  0  0  0  0  0
    0.6627    4.5328    5.5539 C   0  0  0  0  0  0  0  0  0  0  0  0
    1.4800    5.4911    5.6948 O   0  0  0  0  0  0  0  0  0  0  0  0
    0.0185    4.2188    4.2527 C   0  0  0  0  0  0  0  0  0  0  0  0
    1.2869    6.1001   10.7532 O   0  0  0  0  0  0  0  0  0  0  0  0
    1.9157    6.3049   11.8657 C   0  0  0  0  0  0  0  0  0  0  0  0
    2.9438    5.4411   12.2057 C   0  0  0  0  0  0  0  0  0  0  0  0
    3.2876    4.4075   11.4004 C   0  0  0  0  0  0  0  0  0  0  0  0
    4.2056    3.6225   11.6871 O   0  0  0  0  0  0  0  0  0  0  0  0
    3.6570    5.7043   13.5047 C   0  0  0  0  0  0  0  0  0  0  0  0
    4.5983    5.4481   14.1039 N   0  0  0  0  0  0  0  0  0  0  0  0
    5.0113    5.8347   15.2881 C   0  0  0  0  0  0  0  0  0  0  0  0
    4.1421    6.7094   15.9128 C   0  0  0  0  0  0  0  0  0  0  0  0
    2.8068    6.8812   14.7093 S   0  0  0  0  0  0  0  0  0  0  0  0
    6.3242    5.3616   15.9127 C   0  0  0  0  0  0  0  0  0  0  0  0
  1  2  1  0
  2  3  1  0
  3  4  1  0
  4  5  2  0
  5  6  1  0
  6  7  2  0
  7  8  1  0
  8  9  2  0
  9 10  1  0
 10 11  1  0
 11 12  2  0
 11 13  1  0
  7 14  1  0
 14 15  1  0
 15 16  2  0
 16 17  1  0
 17 18  2  0
 16 19  1  0
 19 20  2  0
 20 21  1  0
 21 22  2  0
 22 23  1  0
 21 24  1  0
  9  4  1  0
 17  6  1  0
 23 19  1  0
M  END
$$$$
