
     RDKit          3D

 24 26  0  0  0  0  0  0  0  0999 V2000
    5.1385    7.1680   16.9762 C   0  0  0  0  0  0  0  0  0  0  0  0
    4.1308    6.6155   15.9898 C   0  0  0  0  0  0  0  0  0  0  0  0
    4.5865    6.6812   14.5827 C   0  0  0  0  0  0  0  0  0  0  0  0
    3.6033    6.5085   13.5285 C   0  0  0  0  0  0  0  0  0  0  0  0
    3.7331    5.3505   12.7428 C   0  0  0  0  0  0  0  0  0  0  0  0
    2.8660    5.0702   11.7195 C   0  0  0  0  0  0  0  0  0  0  0  0
    1.8302    5.9652   11.4591 C   0  0  0  0  0  0  0  0  0  0  0  0
    1.7104    7.0925   12.2301 C   0  0  0  0  0  0  0  0  0  0  0  0
    2.5794    7.3848   13.2645 C   0  0  0  0  0  0  0  0  0  0  0  0
    2.4674    8.5098   14.0382 O   0  0  0  0  0  0  0  0  0  0  0  0
    1.4758    8.6688   15.0002 C   0  0  0  0  0  0  0  0  0  0  0  0
    0.5548    7.7983   14.9832 O   0  0  0  0  0  0  0  0  0  0  0  0
    1.4995    9.7857   15.9792 C   0  0  0  0  0  0  0  0  0  0  0  0
    0.9768    5.7355   10.4882 O   0  0  0  0  0  0  0  0  0  0  0  0
    1.0286    4.6939    9.7217 C   0  0  0  0  0  0  0  0  0  0  0  0
    2.0392    3.7715    9.9373 C   0  0  0  0  0  0  0  0  0  0  0  0
    2.9525    3.9481   10.9220 C   0  0  0  0  0  0  0  0  0  0  0  0
    3.8656    3.1334   11.1313 O   0  0  0  0  0  0  0  0  0  0  0  0
    2.0739    2.5705    9.0309 C   0  0  0  0  0  0  0  0  0  0  0  0
    2.7638    1.7651    8.5995 N   0  0  0  0  0  0  0  0  0  0  0  0
    2.5340    0.7672    7.7786 C   0  0  0  0  0  0  0  0  0  0  0  0
    1.2161    0.6868    7.3693 C   0  0  0  0  0  0  0  0  0  0  0  0
    0.4418    2.0766    8.2236 S   0  0  0  0  0  0  0  0  0  0  0  0
    3.6194   -0.2077    7.3210 C   0  0  0  0  0  0  0  0  0  0  0  0
  1  2  1  0
  2  3  1  0
  3  4  1  0
  4  5  2  0
  5  6  1  0
  6  7  2  0
  7  8  1  0
  8  9  2  0
  9 10  1  0
 10 11  1  0
 11 12  2  0
 11 13  1  0
  7 14  1  0
 14 15  1  0
 15 16  2  0
 16 17  1  0
 17 18  2  0
 16 19  1  0
 19 20  2  0
 20 21  1  0
 21 22  2  0
 22 23  1  0
 21 24  1  0
  9  4  1  0
 17  6  1  0
 23 19  1  0
M  END
$$$$
