
     RDKit          3D

 24 26  0  0  0  0  0  0  0  0999 V2000
    1.6672    1.0193    6.2614 C   0  0  0  0  0  0  0  0  0  0  0  0
    2.0476    2.0743    7.2793 C   0  0  0  0  0  0  0  0  0  0  0  0
    0.8982    2.5750    8.0666 C   0  0  0  0  0  0  0  0  0  0  0  0
    1.1195    3.6705    8.9934 C   0  0  0  0  0  0  0  0  0  0  0  0
    1.9912    3.4104   10.0646 C   0  0  0  0  0  0  0  0  0  0  0  0
    2.2855    4.3627   11.0049 C   0  0  0  0  0  0  0  0  0  0  0  0
    1.6984    5.6208   10.8862 C   0  0  0  0  0  0  0  0  0  0  0  0
    0.8492    5.8666    9.8384 C   0  0  0  0  0  0  0  0  0  0  0  0
    0.5457    4.9134    8.8845 C   0  0  0  0  0  0  0  0  0  0  0  0
   -0.3031    5.1508    7.8357 O   0  0  0  0  0  0  0  0  0  0  0  0
   -1.6843    5.2193    7.9828 C   0  0  0  0  0  0  0  0  0  0  0  0
   -2.1101    5.1464    9.1742 O   0  0  0  0  0  0  0  0  0  0  0  0
   -2.5944    5.3679    6.8183 C   0  0  0  0  0  0  0  0  0  0  0  0
    1.9528    6.5625   11.7649 O   0  0  0  0  0  0  0  0  0  0  0  0
    2.7430    6.4018   12.7773 C   0  0  0  0  0  0  0  0  0  0  0  0
    3.3533    5.1694   12.9428 C   0  0  0  0  0  0  0  0  0  0  0  0
    3.1339    4.1548   12.0725 C   0  0  0  0  0  0  0  0  0  0  0  0
    3.6710    3.0432   12.2032 O   0  0  0  0  0  0  0  0  0  0  0  0
    4.2670    5.0123   14.1284 C   0  0  0  0  0  0  0  0  0  0  0  0
    4.6488    5.5399   15.0700 N   0  0  0  0  0  0  0  0  0  0  0  0
    5.4970    5.1639   15.9981 C   0  0  0  0  0  0  0  0  0  0  0  0
    6.0148    3.8997   15.7873 C   0  0  0  0  0  0  0  0  0  0  0  0
    5.2121    3.3843   14.2540 S   0  0  0  0  0  0  0  0  0  0  0  0
    5.8740    6.0403   17.1929 C   0  0  0  0  0  0  0  0  0  0  0  0
  1  2  1  0
  2  3  1  0
  3  4  1  0
  4  5  2  0
  5  6  1  0
  6  7  2  0
  7  8  1  0
  8  9  2  0
  9 10  1  0
 10 11  1  0
 11 12  2  0
 11 13  1  0
  7 14  1  0
 14 15  1  0
 15 16  2  0
 16 17  1  0
 17 18  2  0
 16 19  1  0
 19 20  2  0
 20 21  1  0
 21 22  2  0
 22 23  1  0
 21 24  1  0
  9  4  1  0
 17  6  1  0
 23 19  1  0
M  END
$$$$
