
     RDKit          3D

 24 26  0  0  0  0  0  0  0  0999 V2000
    5.8021    6.7292   15.4659 C   0  0  0  0  0  0  0  0  0  0  0  0
    5.0362    6.3684   14.2101 C   0  0  0  0  0  0  0  0  0  0  0  0
    3.5913    6.6805   14.2911 C   0  0  0  0  0  0  0  0  0  0  0  0
    2.7689    6.4592   13.1152 C   0  0  0  0  0  0  0  0  0  0  0  0
    3.0660    5.3138   12.3570 C   0  0  0  0  0  0  0  0  0  0  0  0
    2.3603    4.9914   11.2275 C   0  0  0  0  0  0  0  0  0  0  0  0
    1.3212    5.8296   10.8284 C   0  0  0  0  0  0  0  0  0  0  0  0
    1.0377    6.9450   11.5735 C   0  0  0  0  0  0  0  0  0  0  0  0
    1.7431    7.2795   12.7142 C   0  0  0  0  0  0  0  0  0  0  0  0
    1.4671    8.3930   13.4629 O   0  0  0  0  0  0  0  0  0  0  0  0
    0.1727    8.7755   13.7982 C   0  0  0  0  0  0  0  0  0  0  0  0
   -0.7518    8.0640   13.3031 O   0  0  0  0  0  0  0  0  0  0  0  0
   -0.1018    9.9406   14.6778 C   0  0  0  0  0  0  0  0  0  0  0  0
    0.6193    5.5581    9.7527 O   0  0  0  0  0  0  0  0  0  0  0  0
    0.8302    4.5246    9.0028 C   0  0  0  0  0  0  0  0  0  0  0  0
    1.8519    3.6578    9.3541 C   0  0  0  0  0  0  0  0  0  0  0  0
    2.6142    3.8794   10.4518 C   0  0  0  0  0  0  0  0  0  0  0  0
    3.5343    3.1148   10.7837 O   0  0  0  0  0  0  0  0  0  0  0  0
    2.0734    2.4647    8.4638 C   0  0  0  0  0  0  0  0  0  0  0  0
    1.9315    2.0766    7.3961 N   0  0  0  0  0  0  0  0  0  0  0  0
    2.2283    0.9260    6.8390 C   0  0  0  0  0  0  0  0  0  0  0  0
    2.8183    0.0308    7.7115 C   0  0  0  0  0  0  0  0  0  0  0  0
    2.8816    0.9575    9.2602 S   0  0  0  0  0  0  0  0  0  0  0  0
    1.9469    0.6096    5.3698 C   0  0  0  0  0  0  0  0  0  0  0  0
  1  2  1  0
  2  3  1  0
  3  4  1  0
  4  5  2  0
  5  6  1  0
  6  7  2  0
  7  8  1  0
  8  9  2  0
  9 10  1  0
 10 11  1  0
 11 12  2  0
 11 13  1  0
  7 14  1  0
 14 15  1  0
 15 16  2  0
 16 17  1  0
 17 18  2  0
 16 19  1  0
 19 20  2  0
 20 21  1  0
 21 22  2  0
 22 23  1  0
 21 24  1  0
  9  4  1  0
 17  6  1  0
 23 19  1  0
M  END
$$$$
