
     RDKit          3D

 24 26  0  0  0  0  0  0  0  0999 V2000
    1.2438   11.9718   10.5369 C   0  0  0  0  0  0  0  0  0  0  0  0
    1.0827   10.4673   10.6010 C   0  0  0  0  0  0  0  0  0  0  0  0
    1.9131    9.8298   11.6479 C   0  0  0  0  0  0  0  0  0  0  0  0
    1.6938    8.4256   11.9449 C   0  0  0  0  0  0  0  0  0  0  0  0
    2.0193    7.5173   10.9231 C   0  0  0  0  0  0  0  0  0  0  0  0
    1.8622    6.1652   11.0807 C   0  0  0  0  0  0  0  0  0  0  0  0
    1.3648    5.6883   12.2919 C   0  0  0  0  0  0  0  0  0  0  0  0
    1.0497    6.5810   13.2835 C   0  0  0  0  0  0  0  0  0  0  0  0
    1.2043    7.9465   13.1351 C   0  0  0  0  0  0  0  0  0  0  0  0
    0.8901    8.8448   14.1206 O   0  0  0  0  0  0  0  0  0  0  0  0
    1.6821    9.0370   15.2474 C   0  0  0  0  0  0  0  0  0  0  0  0
    2.7854    8.4134   15.2514 O   0  0  0  0  0  0  0  0  0  0  0  0
    1.2584    9.9153   16.3679 C   0  0  0  0  0  0  0  0  0  0  0  0
    1.1987    4.4005   12.4853 O   0  0  0  0  0  0  0  0  0  0  0  0
    1.4746    3.5019   11.5958 C   0  0  0  0  0  0  0  0  0  0  0  0
    1.9722    3.9216   10.3731 C   0  0  0  0  0  0  0  0  0  0  0  0
    2.1675    5.2357   10.1083 C   0  0  0  0  0  0  0  0  0  0  0  0
    2.6123    5.6322    9.0192 O   0  0  0  0  0  0  0  0  0  0  0  0
    2.2844    2.8544    9.3588 C   0  0  0  0  0  0  0  0  0  0  0  0
    3.1325    2.3899    8.7457 N   0  0  0  0  0  0  0  0  0  0  0  0
    3.1442    1.4059    7.8774 C   0  0  0  0  0  0  0  0  0  0  0  0
    1.9004    0.8371    7.6772 C   0  0  0  0  0  0  0  0  0  0  0  0
    0.8357    1.7955    8.7768 S   0  0  0  0  0  0  0  0  0  0  0  0
    4.4102    0.9380    7.1591 C   0  0  0  0  0  0  0  0  0  0  0  0
  1  2  1  0
  2  3  1  0
  3  4  1  0
  4  5  2  0
  5  6  1  0
  6  7  2  0
  7  8  1  0
  8  9  2  0
  9 10  1  0
 10 11  1  0
 11 12  2  0
 11 13  1  0
  7 14  1  0
 14 15  1  0
 15 16  2  0
 16 17  1  0
 17 18  2  0
 16 19  1  0
 19 20  2  0
 20 21  1  0
 21 22  2  0
 22 23  1  0
 21 24  1  0
  9  4  1  0
 17  6  1  0
 23 19  1  0
M  END
$$$$
