
     RDKit          3D

 24 26  0  0  0  0  0  0  0  0999 V2000
    2.4897    1.5794    5.7938 C   0  0  0  0  0  0  0  0  0  0  0  0
    2.5101    2.3244    7.1122 C   0  0  0  0  0  0  0  0  0  0  0  0
    1.1634    2.7074    7.5935 C   0  0  0  0  0  0  0  0  0  0  0  0
    1.0605    3.7288    8.6202 C   0  0  0  0  0  0  0  0  0  0  0  0
    2.0116    3.6682    9.6530 C   0  0  0  0  0  0  0  0  0  0  0  0
    2.0239    4.5769   10.6787 C   0  0  0  0  0  0  0  0  0  0  0  0
    1.0621    5.5851   10.6880 C   0  0  0  0  0  0  0  0  0  0  0  0
    0.1378    5.6373    9.6768 C   0  0  0  0  0  0  0  0  0  0  0  0
    0.1164    4.7259    8.6377 C   0  0  0  0  0  0  0  0  0  0  0  0
   -0.8048    4.7704    7.6247 O   0  0  0  0  0  0  0  0  0  0  0  0
   -0.5731    5.4292    6.4220 C   0  0  0  0  0  0  0  0  0  0  0  0
    0.5018    6.0981    6.3649 O   0  0  0  0  0  0  0  0  0  0  0  0
   -1.5250    5.3506    5.2844 C   0  0  0  0  0  0  0  0  0  0  0  0
    1.0376    6.4764   11.6516 O   0  0  0  0  0  0  0  0  0  0  0  0
    1.8774    6.4886   12.6363 C   0  0  0  0  0  0  0  0  0  0  0  0
    2.8549    5.5081   12.6758 C   0  0  0  0  0  0  0  0  0  0  0  0
    2.9361    4.5584   11.7132 C   0  0  0  0  0  0  0  0  0  0  0  0
    3.8045    3.6714   11.7305 O   0  0  0  0  0  0  0  0  0  0  0  0
    3.8174    5.5479   13.8322 C   0  0  0  0  0  0  0  0  0  0  0  0
    3.9824    5.9908   14.8750 N   0  0  0  0  0  0  0  0  0  0  0  0
    4.9680    5.8623   15.7320 C   0  0  0  0  0  0  0  0  0  0  0  0
    5.9834    5.0405   15.2799 C   0  0  0  0  0  0  0  0  0  0  0  0
    5.3991    4.5362   13.6473 S   0  0  0  0  0  0  0  0  0  0  0  0
    4.9886    6.5553   17.0947 C   0  0  0  0  0  0  0  0  0  0  0  0
  1  2  1  0
  2  3  1  0
  3  4  1  0
  4  5  2  0
  5  6  1  0
  6  7  2  0
  7  8  1  0
  8  9  2  0
  9 10  1  0
 10 11  1  0
 11 12  2  0
 11 13  1  0
  7 14  1  0
 14 15  1  0
 15 16  2  0
 16 17  1  0
 17 18  2  0
 16 19  1  0
 19 20  2  0
 20 21  1  0
 21 22  2  0
 22 23  1  0
 21 24  1  0
  9  4  1  0
 17  6  1  0
 23 19  1  0
M  END
$$$$
