
     RDKit          3D

 24 26  0  0  0  0  0  0  0  0999 V2000
    2.7663   -0.4755    6.8976 C   0  0  0  0  0  0  0  0  0  0  0  0
    2.3488    0.5971    7.8820 C   0  0  0  0  0  0  0  0  0  0  0  0
    2.6732    1.9693    7.4311 C   0  0  0  0  0  0  0  0  0  0  0  0
    2.2311    3.0875    8.2449 C   0  0  0  0  0  0  0  0  0  0  0  0
    2.9728    3.3366    9.4122 C   0  0  0  0  0  0  0  0  0  0  0  0
    2.6596    4.3649   10.2621 C   0  0  0  0  0  0  0  0  0  0  0  0
    1.5734    5.1801    9.9507 C   0  0  0  0  0  0  0  0  0  0  0  0
    0.8549    4.9304    8.8100 C   0  0  0  0  0  0  0  0  0  0  0  0
    1.1621    3.8962    7.9461 C   0  0  0  0  0  0  0  0  0  0  0  0
    0.4481    3.6392    6.8055 O   0  0  0  0  0  0  0  0  0  0  0  0
    0.7690    4.1964    5.5724 C   0  0  0  0  0  0  0  0  0  0  0  0
    1.5027    5.2289    5.6148 O   0  0  0  0  0  0  0  0  0  0  0  0
    0.2817    3.6163    4.2947 C   0  0  0  0  0  0  0  0  0  0  0  0
    1.2385    6.1766   10.7372 O   0  0  0  0  0  0  0  0  0  0  0  0
    1.8702    6.4706   11.8278 C   0  0  0  0  0  0  0  0  0  0  0  0
    2.9586    5.6917   12.1848 C   0  0  0  0  0  0  0  0  0  0  0  0
    3.3570    4.6485   11.4179 C   0  0  0  0  0  0  0  0  0  0  0  0
    4.3295    3.9386   11.7203 O   0  0  0  0  0  0  0  0  0  0  0  0
    3.6736    6.0577   13.4575 C   0  0  0  0  0  0  0  0  0  0  0  0
    4.6002    5.8272   14.0893 N   0  0  0  0  0  0  0  0  0  0  0  0
    5.0210    6.3159   15.2323 C   0  0  0  0  0  0  0  0  0  0  0  0
    4.1837    7.2830   15.7561 C   0  0  0  0  0  0  0  0  0  0  0  0
    2.8638    7.3835   14.5278 S   0  0  0  0  0  0  0  0  0  0  0  0
    6.3100    5.8578   15.9152 C   0  0  0  0  0  0  0  0  0  0  0  0
  1  2  1  0
  2  3  1  0
  3  4  1  0
  4  5  2  0
  5  6  1  0
  6  7  2  0
  7  8  1  0
  8  9  2  0
  9 10  1  0
 10 11  1  0
 11 12  2  0
 11 13  1  0
  7 14  1  0
 14 15  1  0
 15 16  2  0
 16 17  1  0
 17 18  2  0
 16 19  1  0
 19 20  2  0
 20 21  1  0
 21 22  2  0
 22 23  1  0
 21 24  1  0
  9  4  1  0
 17  6  1  0
 23 19  1  0
M  END
$$$$
