
     RDKit          3D

 24 26  0  0  0  0  0  0  0  0999 V2000
    0.8809    2.8396    5.2533 C   0  0  0  0  0  0  0  0  0  0  0  0
    1.3901    3.5613    6.4835 C   0  0  0  0  0  0  0  0  0  0  0  0
    0.3357    3.8306    7.4873 C   0  0  0  0  0  0  0  0  0  0  0  0
    0.6878    4.5904    8.6734 C   0  0  0  0  0  0  0  0  0  0  0  0
    1.6024    3.9827    9.5504 C   0  0  0  0  0  0  0  0  0  0  0  0
    2.0180    4.5983   10.7019 C   0  0  0  0  0  0  0  0  0  0  0  0
    1.5134    5.8620   11.0021 C   0  0  0  0  0  0  0  0  0  0  0  0
    0.6215    6.4479   10.1414 C   0  0  0  0  0  0  0  0  0  0  0  0
    0.1957    5.8359    8.9775 C   0  0  0  0  0  0  0  0  0  0  0  0
   -0.6964    6.4140    8.1133 O   0  0  0  0  0  0  0  0  0  0  0  0
   -1.4951    7.4966    8.4653 C   0  0  0  0  0  0  0  0  0  0  0  0
   -1.4745    7.8135    9.6922 O   0  0  0  0  0  0  0  0  0  0  0  0
   -2.3152    8.2287    7.4662 C   0  0  0  0  0  0  0  0  0  0  0  0
    1.8849    6.4876   12.0949 O   0  0  0  0  0  0  0  0  0  0  0  0
    2.7217    5.9963   12.9512 C   0  0  0  0  0  0  0  0  0  0  0  0
    3.2542    4.7422   12.7014 C   0  0  0  0  0  0  0  0  0  0  0  0
    2.9129    4.0428   11.5925 C   0  0  0  0  0  0  0  0  0  0  0  0
    3.3788    2.9178   11.3505 O   0  0  0  0  0  0  0  0  0  0  0  0
    4.2247    4.1969   13.7143 C   0  0  0  0  0  0  0  0  0  0  0  0
    4.7016    4.4051   14.7341 N   0  0  0  0  0  0  0  0  0  0  0  0
    5.5749    3.7295   15.4435 C   0  0  0  0  0  0  0  0  0  0  0  0
    5.9837    2.5567   14.8368 C   0  0  0  0  0  0  0  0  0  0  0  0
    5.0525    2.5557   13.2896 S   0  0  0  0  0  0  0  0  0  0  0  0
    6.0883    4.1969   16.8057 C   0  0  0  0  0  0  0  0  0  0  0  0
  1  2  1  0
  2  3  1  0
  3  4  1  0
  4  5  2  0
  5  6  1  0
  6  7  2  0
  7  8  1  0
  8  9  2  0
  9 10  1  0
 10 11  1  0
 11 12  2  0
 11 13  1  0
  7 14  1  0
 14 15  1  0
 15 16  2  0
 16 17  1  0
 17 18  2  0
 16 19  1  0
 19 20  2  0
 20 21  1  0
 21 22  2  0
 22 23  1  0
 21 24  1  0
  9  4  1  0
 17  6  1  0
 23 19  1  0
M  END
$$$$
