
     RDKit          3D

 24 26  0  0  0  0  0  0  0  0999 V2000
   -1.4378    9.6129   12.4759 C   0  0  0  0  0  0  0  0  0  0  0  0
   -0.7711    8.2530   12.4764 C   0  0  0  0  0  0  0  0  0  0  0  0
    0.7077    8.3218   12.4677 C   0  0  0  0  0  0  0  0  0  0  0  0
    1.4577    7.0791   12.4335 C   0  0  0  0  0  0  0  0  0  0  0  0
    1.2495    6.2595   11.3110 C   0  0  0  0  0  0  0  0  0  0  0  0
    1.9004    5.0635   11.1583 C   0  0  0  0  0  0  0  0  0  0  0  0
    2.7916    4.6580   12.1498 C   0  0  0  0  0  0  0  0  0  0  0  0
    2.9892    5.4632   13.2417 C   0  0  0  0  0  0  0  0  0  0  0  0
    2.3379    6.6713   13.4055 C   0  0  0  0  0  0  0  0  0  0  0  0
    2.5287    7.4805   14.4943 O   0  0  0  0  0  0  0  0  0  0  0  0
    3.5474    8.4246   14.5640 C   0  0  0  0  0  0  0  0  0  0  0  0
    4.6777    8.0395   14.1395 O   0  0  0  0  0  0  0  0  0  0  0  0
    3.3203    9.7908   15.1010 C   0  0  0  0  0  0  0  0  0  0  0  0
    3.4366    3.5194   12.0436 O   0  0  0  0  0  0  0  0  0  0  0  0
    3.3000    2.7105   11.0425 C   0  0  0  0  0  0  0  0  0  0  0  0
    2.4260    3.0652   10.0282 C   0  0  0  0  0  0  0  0  0  0  0  0
    1.7293    4.2260   10.0757 C   0  0  0  0  0  0  0  0  0  0  0  0
    0.9413    4.5619    9.1771 O   0  0  0  0  0  0  0  0  0  0  0  0
    2.2883    2.1054    8.8771 C   0  0  0  0  0  0  0  0  0  0  0  0
    1.5605    1.7283    8.0778 N   0  0  0  0  0  0  0  0  0  0  0  0
    1.6925    0.8279    7.1321 C   0  0  0  0  0  0  0  0  0  0  0  0
    2.9417    0.2365    7.1093 C   0  0  0  0  0  0  0  0  0  0  0  0
    3.8008    1.0534    8.4716 S   0  0  0  0  0  0  0  0  0  0  0  0
    0.5729    0.4700    6.1543 C   0  0  0  0  0  0  0  0  0  0  0  0
  1  2  1  0
  2  3  1  0
  3  4  1  0
  4  5  2  0
  5  6  1  0
  6  7  2  0
  7  8  1  0
  8  9  2  0
  9 10  1  0
 10 11  1  0
 11 12  2  0
 11 13  1  0
  7 14  1  0
 14 15  1  0
 15 16  2  0
 16 17  1  0
 17 18  2  0
 16 19  1  0
 19 20  2  0
 20 21  1  0
 21 22  2  0
 22 23  1  0
 21 24  1  0
  9  4  1  0
 17  6  1  0
 23 19  1  0
M  END
$$$$
