
     RDKit          3D

 24 26  0  0  0  0  0  0  0  0999 V2000
    4.5136   -0.2208    7.2013 C   0  0  0  0  0  0  0  0  0  0  0  0
    4.2347    1.1185    7.8511 C   0  0  0  0  0  0  0  0  0  0  0  0
    2.8864    1.2108    8.4555 C   0  0  0  0  0  0  0  0  0  0  0  0
    2.4704    2.4787    9.0278 C   0  0  0  0  0  0  0  0  0  0  0  0
    3.0990    2.8538   10.2274 C   0  0  0  0  0  0  0  0  0  0  0  0
    2.7975    4.0287   10.8649 C   0  0  0  0  0  0  0  0  0  0  0  0
    1.8393    4.8675   10.2993 C   0  0  0  0  0  0  0  0  0  0  0  0
    1.2307    4.4943    9.1289 C   0  0  0  0  0  0  0  0  0  0  0  0
    1.5273    3.3117    8.4777 C   0  0  0  0  0  0  0  0  0  0  0  0
    0.9224    2.9310    7.3090 O   0  0  0  0  0  0  0  0  0  0  0  0
   -0.2551    2.1919    7.2742 C   0  0  0  0  0  0  0  0  0  0  0  0
   -0.8012    1.9830    8.3985 O   0  0  0  0  0  0  0  0  0  0  0  0
   -0.8293    1.6839    6.0019 C   0  0  0  0  0  0  0  0  0  0  0  0
    1.5203    6.0025   10.8768 O   0  0  0  0  0  0  0  0  0  0  0  0
    2.0531    6.4182   11.9806 C   0  0  0  0  0  0  0  0  0  0  0  0
    3.0119    5.6224   12.5856 C   0  0  0  0  0  0  0  0  0  0  0  0
    3.3870    4.4394   12.0424 C   0  0  0  0  0  0  0  0  0  0  0  0
    4.2441    3.7119   12.5689 O   0  0  0  0  0  0  0  0  0  0  0  0
    3.6140    6.1317   13.8674 C   0  0  0  0  0  0  0  0  0  0  0  0
    4.4022    5.9040   14.6660 N   0  0  0  0  0  0  0  0  0  0  0  0
    4.7536    6.5479   15.7543 C   0  0  0  0  0  0  0  0  0  0  0  0
    4.0328    7.7093   15.9604 C   0  0  0  0  0  0  0  0  0  0  0  0
    2.9126    7.7468   14.5446 S   0  0  0  0  0  0  0  0  0  0  0  0
    5.8514    6.0586   16.6993 C   0  0  0  0  0  0  0  0  0  0  0  0
  1  2  1  0
  2  3  1  0
  3  4  1  0
  4  5  2  0
  5  6  1  0
  6  7  2  0
  7  8  1  0
  8  9  2  0
  9 10  1  0
 10 11  1  0
 11 12  2  0
 11 13  1  0
  7 14  1  0
 14 15  1  0
 15 16  2  0
 16 17  1  0
 17 18  2  0
 16 19  1  0
 19 20  2  0
 20 21  1  0
 21 22  2  0
 22 23  1  0
 21 24  1  0
  9  4  1  0
 17  6  1  0
 23 19  1  0
M  END
$$$$
