
     RDKit          3D

 24 26  0  0  0  0  0  0  0  0999 V2000
    5.5891    6.1485   16.2843 C   0  0  0  0  0  0  0  0  0  0  0  0
    4.7034    5.7854   15.1107 C   0  0  0  0  0  0  0  0  0  0  0  0
    4.0829    6.9590   14.4555 C   0  0  0  0  0  0  0  0  0  0  0  0
    3.2018    6.7338   13.3238 C   0  0  0  0  0  0  0  0  0  0  0  0
    3.4148    5.5495   12.5978 C   0  0  0  0  0  0  0  0  0  0  0  0
    2.6476    5.2195   11.5114 C   0  0  0  0  0  0  0  0  0  0  0  0
    1.6305    6.0897   11.1243 C   0  0  0  0  0  0  0  0  0  0  0  0
    1.4291    7.2430   11.8377 C   0  0  0  0  0  0  0  0  0  0  0  0
    2.1970    7.5854   12.9348 C   0  0  0  0  0  0  0  0  0  0  0  0
    2.0032    8.7365   13.6518 O   0  0  0  0  0  0  0  0  0  0  0  0
    0.8559    8.9755   14.4005 C   0  0  0  0  0  0  0  0  0  0  0  0
   -0.2045    8.4394   13.9596 O   0  0  0  0  0  0  0  0  0  0  0  0
    0.8776    9.8041   15.6331 C   0  0  0  0  0  0  0  0  0  0  0  0
    0.8717    5.8124   10.0894 O   0  0  0  0  0  0  0  0  0  0  0  0
    1.0040    4.7441    9.3710 C   0  0  0  0  0  0  0  0  0  0  0  0
    2.0004    3.8444    9.7123 C   0  0  0  0  0  0  0  0  0  0  0  0
    2.8183    4.0700   10.7684 C   0  0  0  0  0  0  0  0  0  0  0  0
    3.7170    3.2763   11.0906 O   0  0  0  0  0  0  0  0  0  0  0  0
    2.1302    2.6113    8.8593 C   0  0  0  0  0  0  0  0  0  0  0  0
    2.8635    1.7971    8.5274 N   0  0  0  0  0  0  0  0  0  0  0  0
    2.7206    0.7677    7.7260 C   0  0  0  0  0  0  0  0  0  0  0  0
    1.4494    0.6600    7.1939 C   0  0  0  0  0  0  0  0  0  0  0  0
    0.5875    2.0729    7.9162 S   0  0  0  0  0  0  0  0  0  0  0  0
    3.8509   -0.2132    7.4130 C   0  0  0  0  0  0  0  0  0  0  0  0
  1  2  1  0
  2  3  1  0
  3  4  1  0
  4  5  2  0
  5  6  1  0
  6  7  2  0
  7  8  1  0
  8  9  2  0
  9 10  1  0
 10 11  1  0
 11 12  2  0
 11 13  1  0
  7 14  1  0
 14 15  1  0
 15 16  2  0
 16 17  1  0
 17 18  2  0
 16 19  1  0
 19 20  2  0
 20 21  1  0
 21 22  2  0
 22 23  1  0
 21 24  1  0
  9  4  1  0
 17  6  1  0
 23 19  1  0
M  END
$$$$
