
     RDKit          3D

 24 26  0  0  0  0  0  0  0  0999 V2000
    7.0239    6.2492   15.8233 C   0  0  0  0  0  0  0  0  0  0  0  0
    6.1424    6.3436   14.5954 C   0  0  0  0  0  0  0  0  0  0  0  0
    4.8405    5.6560   14.7503 C   0  0  0  0  0  0  0  0  0  0  0  0
    3.8971    5.7046   13.6478 C   0  0  0  0  0  0  0  0  0  0  0  0
    3.8991    4.5989   12.7804 C   0  0  0  0  0  0  0  0  0  0  0  0
    3.0535    4.5222   11.7049 C   0  0  0  0  0  0  0  0  0  0  0  0
    2.1710    5.5755   11.4740 C   0  0  0  0  0  0  0  0  0  0  0  0
    2.1753    6.6506   12.3248 C   0  0  0  0  0  0  0  0  0  0  0  0
    3.0239    6.7381   13.4123 C   0  0  0  0  0  0  0  0  0  0  0  0
    3.0354    7.8096   14.2659 O   0  0  0  0  0  0  0  0  0  0  0  0
    1.8766    8.4569   14.6805 C   0  0  0  0  0  0  0  0  0  0  0  0
    0.8064    8.0700   14.1227 O   0  0  0  0  0  0  0  0  0  0  0  0
    1.8976    9.5291   15.7084 C   0  0  0  0  0  0  0  0  0  0  0  0
    1.3436    5.5430   10.4552 O   0  0  0  0  0  0  0  0  0  0  0  0
    1.2842    4.5622    9.6129 C   0  0  0  0  0  0  0  0  0  0  0  0
    2.1400    3.4886    9.7960 C   0  0  0  0  0  0  0  0  0  0  0  0
    3.0184    3.4590   10.8269 C   0  0  0  0  0  0  0  0  0  0  0  0
    3.7936    2.5064   11.0083 O   0  0  0  0  0  0  0  0  0  0  0  0
    2.0479    2.3629    8.8014 C   0  0  0  0  0  0  0  0  0  0  0  0
    1.3924    1.9198    7.9739 N   0  0  0  0  0  0  0  0  0  0  0  0
    1.5461    0.8640    7.2097 C   0  0  0  0  0  0  0  0  0  0  0  0
    2.7158    0.1716    7.4609 C   0  0  0  0  0  0  0  0  0  0  0  0
    3.4763    1.1306    8.7887 S   0  0  0  0  0  0  0  0  0  0  0  0
    0.5294    0.4434    6.1480 C   0  0  0  0  0  0  0  0  0  0  0  0
  1  2  1  0
  2  3  1  0
  3  4  1  0
  4  5  2  0
  5  6  1  0
  6  7  2  0
  7  8  1  0
  8  9  2  0
  9 10  1  0
 10 11  1  0
 11 12  2  0
 11 13  1  0
  7 14  1  0
 14 15  1  0
 15 16  2  0
 16 17  1  0
 17 18  2  0
 16 19  1  0
 19 20  2  0
 20 21  1  0
 21 22  2  0
 22 23  1  0
 21 24  1  0
  9  4  1  0
 17  6  1  0
 23 19  1  0
M  END
$$$$
