
     RDKit          3D

 24 26  0  0  0  0  0  0  0  0999 V2000
    3.7051   -0.2009    6.9203 C   0  0  0  0  0  0  0  0  0  0  0  0
    3.5443    1.1178    7.6476 C   0  0  0  0  0  0  0  0  0  0  0  0
    2.1363    1.5616    7.7589 C   0  0  0  0  0  0  0  0  0  0  0  0
    1.8576    2.8143    8.4378 C   0  0  0  0  0  0  0  0  0  0  0  0
    2.5617    3.0426    9.6324 C   0  0  0  0  0  0  0  0  0  0  0  0
    2.3911    4.1882   10.3646 C   0  0  0  0  0  0  0  0  0  0  0  0
    1.4917    5.1470    9.9027 C   0  0  0  0  0  0  0  0  0  0  0  0
    0.8087    4.9168    8.7365 C   0  0  0  0  0  0  0  0  0  0  0  0
    0.9732    3.7649    7.9904 C   0  0  0  0  0  0  0  0  0  0  0  0
    0.2933    3.5268    6.8251 O   0  0  0  0  0  0  0  0  0  0  0  0
    0.7271    3.9935    5.5890 C   0  0  0  0  0  0  0  0  0  0  0  0
    1.4803    5.0122    5.6244 O   0  0  0  0  0  0  0  0  0  0  0  0
    0.3312    3.3382    4.3161 C   0  0  0  0  0  0  0  0  0  0  0  0
    1.2977    6.2591   10.5731 O   0  0  0  0  0  0  0  0  0  0  0  0
    1.9066    6.5431   11.6792 C   0  0  0  0  0  0  0  0  0  0  0  0
    2.8120    5.6240   12.1833 C   0  0  0  0  0  0  0  0  0  0  0  0
    3.0587    4.4569   11.5413 C   0  0  0  0  0  0  0  0  0  0  0  0
    3.8661    3.6203   11.9765 O   0  0  0  0  0  0  0  0  0  0  0  0
    3.5050    5.9817   13.4705 C   0  0  0  0  0  0  0  0  0  0  0  0
    3.4740    6.7001   14.3614 N   0  0  0  0  0  0  0  0  0  0  0  0
    4.2416    6.8116   15.4201 C   0  0  0  0  0  0  0  0  0  0  0  0
    5.2692    5.8875   15.4513 C   0  0  0  0  0  0  0  0  0  0  0  0
    5.0135    4.9467   13.9313 S   0  0  0  0  0  0  0  0  0  0  0  0
    4.0193    7.8615   16.5090 C   0  0  0  0  0  0  0  0  0  0  0  0
  1  2  1  0
  2  3  1  0
  3  4  1  0
  4  5  2  0
  5  6  1  0
  6  7  2  0
  7  8  1  0
  8  9  2  0
  9 10  1  0
 10 11  1  0
 11 12  2  0
 11 13  1  0
  7 14  1  0
 14 15  1  0
 15 16  2  0
 16 17  1  0
 17 18  2  0
 16 19  1  0
 19 20  2  0
 20 21  1  0
 21 22  2  0
 22 23  1  0
 21 24  1  0
  9  4  1  0
 17  6  1  0
 23 19  1  0
M  END
$$$$
