
     RDKit          3D

 24 26  0  0  0  0  0  0  0  0999 V2000
    3.2395   -0.4543    7.3810 C   0  0  0  0  0  0  0  0  0  0  0  0
    2.7865    0.6325    8.3336 C   0  0  0  0  0  0  0  0  0  0  0  0
    2.7458    1.9776    7.7164 C   0  0  0  0  0  0  0  0  0  0  0  0
    2.3264    3.1014    8.5344 C   0  0  0  0  0  0  0  0  0  0  0  0
    3.0047    3.2685    9.7537 C   0  0  0  0  0  0  0  0  0  0  0  0
    2.7054    4.2929   10.6131 C   0  0  0  0  0  0  0  0  0  0  0  0
    1.6985    5.1884   10.2583 C   0  0  0  0  0  0  0  0  0  0  0  0
    1.0415    5.0185    9.0670 C   0  0  0  0  0  0  0  0  0  0  0  0
    1.3354    3.9888    8.1930 C   0  0  0  0  0  0  0  0  0  0  0  0
    0.6824    3.8114    7.0018 O   0  0  0  0  0  0  0  0  0  0  0  0
   -0.6307    3.3608    6.9206 C   0  0  0  0  0  0  0  0  0  0  0  0
   -1.1993    3.1346    8.0303 O   0  0  0  0  0  0  0  0  0  0  0  0
   -1.3157    3.1600    5.6179 C   0  0  0  0  0  0  0  0  0  0  0  0
    1.3796    6.1843   11.0521 O   0  0  0  0  0  0  0  0  0  0  0  0
    1.9565    6.4056   12.1893 C   0  0  0  0  0  0  0  0  0  0  0  0
    2.9649    5.5451   12.5908 C   0  0  0  0  0  0  0  0  0  0  0  0
    3.3427    4.4977   11.8192 C   0  0  0  0  0  0  0  0  0  0  0  0
    4.2439    3.7153   12.1611 O   0  0  0  0  0  0  0  0  0  0  0  0
    3.6175    5.8277   13.9172 C   0  0  0  0  0  0  0  0  0  0  0  0
    4.5255    5.5736   14.5667 N   0  0  0  0  0  0  0  0  0  0  0  0
    4.8854    5.9805   15.7614 C   0  0  0  0  0  0  0  0  0  0  0  0
    3.9979    6.8780   16.3249 C   0  0  0  0  0  0  0  0  0  0  0  0
    2.7246    7.0394   15.0546 S   0  0  0  0  0  0  0  0  0  0  0  0
    6.1606    5.5060   16.4588 C   0  0  0  0  0  0  0  0  0  0  0  0
  1  2  1  0
  2  3  1  0
  3  4  1  0
  4  5  2  0
  5  6  1  0
  6  7  2  0
  7  8  1  0
  8  9  2  0
  9 10  1  0
 10 11  1  0
 11 12  2  0
 11 13  1  0
  7 14  1  0
 14 15  1  0
 15 16  2  0
 16 17  1  0
 17 18  2  0
 16 19  1  0
 19 20  2  0
 20 21  1  0
 21 22  2  0
 22 23  1  0
 21 24  1  0
  9  4  1  0
 17  6  1  0
 23 19  1  0
M  END
$$$$
