
     RDKit          3D

 24 26  0  0  0  0  0  0  0  0999 V2000
    3.4495    0.0050    6.7893 C   0  0  0  0  0  0  0  0  0  0  0  0
    3.5244    1.2268    7.6812 C   0  0  0  0  0  0  0  0  0  0  0  0
    2.2250    1.9172    7.8451 C   0  0  0  0  0  0  0  0  0  0  0  0
    2.1918    3.1595    8.5958 C   0  0  0  0  0  0  0  0  0  0  0  0
    2.8396    3.1482    9.8429 C   0  0  0  0  0  0  0  0  0  0  0  0
    2.8828    4.2582   10.6452 C   0  0  0  0  0  0  0  0  0  0  0  0
    2.2638    5.4254   10.2026 C   0  0  0  0  0  0  0  0  0  0  0  0
    1.6340    5.4282    8.9849 C   0  0  0  0  0  0  0  0  0  0  0  0
    1.5844    4.3144    8.1679 C   0  0  0  0  0  0  0  0  0  0  0  0
    0.9557    4.3088    6.9507 O   0  0  0  0  0  0  0  0  0  0  0  0
   -0.4043    4.0576    6.8047 C   0  0  0  0  0  0  0  0  0  0  0  0
   -1.0319    3.8120    7.8780 O   0  0  0  0  0  0  0  0  0  0  0  0
   -1.0712    4.0772    5.4775 C   0  0  0  0  0  0  0  0  0  0  0  0
    2.2812    6.5118   10.9396 O   0  0  0  0  0  0  0  0  0  0  0  0
    2.8558    6.5820   12.0971 C   0  0  0  0  0  0  0  0  0  0  0  0
    3.4867    5.4494   12.5850 C   0  0  0  0  0  0  0  0  0  0  0  0
    3.5057    4.2957   11.8754 C   0  0  0  0  0  0  0  0  0  0  0  0
    4.0655    3.2701   12.2950 O   0  0  0  0  0  0  0  0  0  0  0  0
    4.1465    5.5611   13.9331 C   0  0  0  0  0  0  0  0  0  0  0  0
    4.7099    4.9652   14.7321 N   0  0  0  0  0  0  0  0  0  0  0  0
    5.2113    5.3181   15.8924 C   0  0  0  0  0  0  0  0  0  0  0  0
    5.0164    6.6538   16.1901 C   0  0  0  0  0  0  0  0  0  0  0  0
    4.1196    7.2633   14.7460 S   0  0  0  0  0  0  0  0  0  0  0  0
    5.9380    4.3451   16.8215 C   0  0  0  0  0  0  0  0  0  0  0  0
  1  2  1  0
  2  3  1  0
  3  4  1  0
  4  5  2  0
  5  6  1  0
  6  7  2  0
  7  8  1  0
  8  9  2  0
  9 10  1  0
 10 11  1  0
 11 12  2  0
 11 13  1  0
  7 14  1  0
 14 15  1  0
 15 16  2  0
 16 17  1  0
 17 18  2  0
 16 19  1  0
 19 20  2  0
 20 21  1  0
 21 22  2  0
 22 23  1  0
 21 24  1  0
  9  4  1  0
 17  6  1  0
 23 19  1  0
M  END
$$$$
