
     RDKit          3D

 24 26  0  0  0  0  0  0  0  0999 V2000
    3.0324    0.6160    5.8745 C   0  0  0  0  0  0  0  0  0  0  0  0
    2.9967    1.8762    6.7138 C   0  0  0  0  0  0  0  0  0  0  0  0
    1.7580    2.0175    7.5122 C   0  0  0  0  0  0  0  0  0  0  0  0
    1.6054    3.1935    8.3499 C   0  0  0  0  0  0  0  0  0  0  0  0
    2.4270    3.2549    9.4884 C   0  0  0  0  0  0  0  0  0  0  0  0
    2.3815    4.3142   10.3564 C   0  0  0  0  0  0  0  0  0  0  0  0
    1.4922    5.3542   10.0935 C   0  0  0  0  0  0  0  0  0  0  0  0
    0.6942    5.2867    8.9807 C   0  0  0  0  0  0  0  0  0  0  0  0
    0.7320    4.2231    8.0988 C   0  0  0  0  0  0  0  0  0  0  0  0
   -0.0632    4.1475    6.9858 O   0  0  0  0  0  0  0  0  0  0  0  0
   -0.1525    5.1730    6.0508 C   0  0  0  0  0  0  0  0  0  0  0  0
    0.4256    6.2545    6.3705 O   0  0  0  0  0  0  0  0  0  0  0  0
   -0.8780    5.0063    4.7653 C   0  0  0  0  0  0  0  0  0  0  0  0
    1.4162    6.3882   10.8989 O   0  0  0  0  0  0  0  0  0  0  0  0
    2.1376    6.5189   11.9654 C   0  0  0  0  0  0  0  0  0  0  0  0
    3.0388    5.5132   12.2740 C   0  0  0  0  0  0  0  0  0  0  0  0
    3.1671    4.4193   11.4854 C   0  0  0  0  0  0  0  0  0  0  0  0
    3.9686    3.5072   11.7446 O   0  0  0  0  0  0  0  0  0  0  0  0
    3.8641    5.6929   13.5196 C   0  0  0  0  0  0  0  0  0  0  0  0
    4.2092    6.4674   14.2890 N   0  0  0  0  0  0  0  0  0  0  0  0
    4.9754    6.3630   15.3494 C   0  0  0  0  0  0  0  0  0  0  0  0
    5.4428    5.0798   15.5634 C   0  0  0  0  0  0  0  0  0  0  0  0
    4.7174    4.1516   14.1946 S   0  0  0  0  0  0  0  0  0  0  0  0
    5.3164    7.5460   16.2559 C   0  0  0  0  0  0  0  0  0  0  0  0
  1  2  1  0
  2  3  1  0
  3  4  1  0
  4  5  2  0
  5  6  1  0
  6  7  2  0
  7  8  1  0
  8  9  2  0
  9 10  1  0
 10 11  1  0
 11 12  2  0
 11 13  1  0
  7 14  1  0
 14 15  1  0
 15 16  2  0
 16 17  1  0
 17 18  2  0
 16 19  1  0
 19 20  2  0
 20 21  1  0
 21 22  2  0
 22 23  1  0
 21 24  1  0
  9  4  1  0
 17  6  1  0
 23 19  1  0
M  END
$$$$
