
     RDKit          3D

 24 26  0  0  0  0  0  0  0  0999 V2000
    5.7768    6.3011   16.4314 C   0  0  0  0  0  0  0  0  0  0  0  0
    4.9424    5.8678   15.2441 C   0  0  0  0  0  0  0  0  0  0  0  0
    4.4787    6.9969   14.4062 C   0  0  0  0  0  0  0  0  0  0  0  0
    3.4933    6.7326   13.3732 C   0  0  0  0  0  0  0  0  0  0  0  0
    3.7055    5.5832   12.5929 C   0  0  0  0  0  0  0  0  0  0  0  0
    2.8455    5.2218   11.5892 C   0  0  0  0  0  0  0  0  0  0  0  0
    1.7325    6.0235   11.3439 C   0  0  0  0  0  0  0  0  0  0  0  0
    1.5326    7.1430   12.1096 C   0  0  0  0  0  0  0  0  0  0  0  0
    2.3937    7.5166   13.1242 C   0  0  0  0  0  0  0  0  0  0  0  0
    2.2017    8.6345   13.8924 O   0  0  0  0  0  0  0  0  0  0  0  0
    1.1955    8.7305   14.8476 C   0  0  0  0  0  0  0  0  0  0  0  0
    0.4934    7.6875   15.0068 O   0  0  0  0  0  0  0  0  0  0  0  0
    0.9638    9.9743   15.6259 C   0  0  0  0  0  0  0  0  0  0  0  0
    0.8829    5.7141   10.3920 O   0  0  0  0  0  0  0  0  0  0  0  0
    1.0079    4.6743    9.6316 C   0  0  0  0  0  0  0  0  0  0  0  0
    2.0973    3.8428    9.8329 C   0  0  0  0  0  0  0  0  0  0  0  0
    3.0114    4.1044   10.7977 C   0  0  0  0  0  0  0  0  0  0  0  0
    3.9943    3.3718   10.9940 O   0  0  0  0  0  0  0  0  0  0  0  0
    2.2160    2.6414    8.9341 C   0  0  0  0  0  0  0  0  0  0  0  0
    2.8225    1.6877    8.7511 N   0  0  0  0  0  0  0  0  0  0  0  0
    2.7168    0.7470    7.8420 C   0  0  0  0  0  0  0  0  0  0  0  0
    1.6812    0.9598    6.9514 C   0  0  0  0  0  0  0  0  0  0  0  0
    0.9637    2.5130    7.5291 S   0  0  0  0  0  0  0  0  0  0  0  0
    3.6492   -0.4629    7.7766 C   0  0  0  0  0  0  0  0  0  0  0  0
  1  2  1  0
  2  3  1  0
  3  4  1  0
  4  5  2  0
  5  6  1  0
  6  7  2  0
  7  8  1  0
  8  9  2  0
  9 10  1  0
 10 11  1  0
 11 12  2  0
 11 13  1  0
  7 14  1  0
 14 15  1  0
 15 16  2  0
 16 17  1  0
 17 18  2  0
 16 19  1  0
 19 20  2  0
 20 21  1  0
 21 22  2  0
 22 23  1  0
 21 24  1  0
  9  4  1  0
 17  6  1  0
 23 19  1  0
M  END
$$$$
