
     RDKit          3D

 24 26  0  0  0  0  0  0  0  0999 V2000
    3.8353   -0.0636    7.0869 C   0  0  0  0  0  0  0  0  0  0  0  0
    3.6472    1.2981    7.7225 C   0  0  0  0  0  0  0  0  0  0  0  0
    2.3155    1.4797    8.3433 C   0  0  0  0  0  0  0  0  0  0  0  0
    2.0257    2.7407    9.0020 C   0  0  0  0  0  0  0  0  0  0  0  0
    2.7073    2.9821   10.2070 C   0  0  0  0  0  0  0  0  0  0  0  0
    2.5243    4.1365   10.9223 C   0  0  0  0  0  0  0  0  0  0  0  0
    1.6352    5.0909   10.4322 C   0  0  0  0  0  0  0  0  0  0  0  0
    0.9742    4.8478    9.2560 C   0  0  0  0  0  0  0  0  0  0  0  0
    1.1513    3.6870    8.5267 C   0  0  0  0  0  0  0  0  0  0  0  0
    0.4934    3.4360    7.3516 O   0  0  0  0  0  0  0  0  0  0  0  0
   -0.8928    3.4588    7.2428 C   0  0  0  0  0  0  0  0  0  0  0  0
   -1.5278    3.3053    8.3288 O   0  0  0  0  0  0  0  0  0  0  0  0
   -1.5778    3.6505    5.9387 C   0  0  0  0  0  0  0  0  0  0  0  0
    1.4301    6.2110   11.0856 O   0  0  0  0  0  0  0  0  0  0  0  0
    2.0182    6.5073   12.1998 C   0  0  0  0  0  0  0  0  0  0  0  0
    2.9125    5.5931   12.7318 C   0  0  0  0  0  0  0  0  0  0  0  0
    3.1698    4.4183   12.1084 C   0  0  0  0  0  0  0  0  0  0  0  0
    3.9676    3.5859   12.5687 O   0  0  0  0  0  0  0  0  0  0  0  0
    3.5814    5.9651   14.0277 C   0  0  0  0  0  0  0  0  0  0  0  0
    3.6797    6.8012   14.8036 N   0  0  0  0  0  0  0  0  0  0  0  0
    4.3708    6.8827   15.9163 C   0  0  0  0  0  0  0  0  0  0  0  0
    5.1087    5.7457   16.1873 C   0  0  0  0  0  0  0  0  0  0  0  0
    4.7207    4.6691   14.7903 S   0  0  0  0  0  0  0  0  0  0  0  0
    4.3597    8.1154   16.8207 C   0  0  0  0  0  0  0  0  0  0  0  0
  1  2  1  0
  2  3  1  0
  3  4  1  0
  4  5  2  0
  5  6  1  0
  6  7  2  0
  7  8  1  0
  8  9  2  0
  9 10  1  0
 10 11  1  0
 11 12  2  0
 11 13  1  0
  7 14  1  0
 14 15  1  0
 15 16  2  0
 16 17  1  0
 17 18  2  0
 16 19  1  0
 19 20  2  0
 20 21  1  0
 21 22  2  0
 22 23  1  0
 21 24  1  0
  9  4  1  0
 17  6  1  0
 23 19  1  0
M  END
$$$$
