
     RDKit          3D

 24 26  0  0  0  0  0  0  0  0999 V2000
    4.0296   -0.9668    7.9571 C   0  0  0  0  0  0  0  0  0  0  0  0
    3.3107    0.1251    8.7217 C   0  0  0  0  0  0  0  0  0  0  0  0
    3.4567    1.4659    8.1113 C   0  0  0  0  0  0  0  0  0  0  0  0
    2.7922    2.5905    8.7452 C   0  0  0  0  0  0  0  0  0  0  0  0
    3.2822    2.9700   10.0065 C   0  0  0  0  0  0  0  0  0  0  0  0
    2.7436    4.0180   10.7059 C   0  0  0  0  0  0  0  0  0  0  0  0
    1.6806    4.7202   10.1416 C   0  0  0  0  0  0  0  0  0  0  0  0
    1.2084    4.3437    8.9109 C   0  0  0  0  0  0  0  0  0  0  0  0
    1.7442    3.2884    8.1969 C   0  0  0  0  0  0  0  0  0  0  0  0
    1.2769    2.9050    6.9675 O   0  0  0  0  0  0  0  0  0  0  0  0
   -0.0109    2.4197    6.7671 C   0  0  0  0  0  0  0  0  0  0  0  0
   -0.7509    2.3958    7.7957 O   0  0  0  0  0  0  0  0  0  0  0  0
   -0.4818    1.9614    5.4349 C   0  0  0  0  0  0  0  0  0  0  0  0
    1.1348    5.7310   10.7774 O   0  0  0  0  0  0  0  0  0  0  0  0
    1.5283    6.1414   11.9400 C   0  0  0  0  0  0  0  0  0  0  0  0
    2.5823    5.4783   12.5466 C   0  0  0  0  0  0  0  0  0  0  0  0
    3.1900    4.4275   11.9452 C   0  0  0  0  0  0  0  0  0  0  0  0
    4.1359    3.8201   12.4721 O   0  0  0  0  0  0  0  0  0  0  0  0
    3.0182    5.9782   13.8976 C   0  0  0  0  0  0  0  0  0  0  0  0
    3.7491    5.7833   14.7571 N   0  0  0  0  0  0  0  0  0  0  0  0
    3.9414    6.4042   15.8972 C   0  0  0  0  0  0  0  0  0  0  0  0
    3.1023    7.4874   16.0793 C   0  0  0  0  0  0  0  0  0  0  0  0
    2.1147    7.4928   14.5675 S   0  0  0  0  0  0  0  0  0  0  0  0
    4.9900    5.9691   16.9213 C   0  0  0  0  0  0  0  0  0  0  0  0
  1  2  1  0
  2  3  1  0
  3  4  1  0
  4  5  2  0
  5  6  1  0
  6  7  2  0
  7  8  1  0
  8  9  2  0
  9 10  1  0
 10 11  1  0
 11 12  2  0
 11 13  1  0
  7 14  1  0
 14 15  1  0
 15 16  2  0
 16 17  1  0
 17 18  2  0
 16 19  1  0
 19 20  2  0
 20 21  1  0
 21 22  2  0
 22 23  1  0
 21 24  1  0
  9  4  1  0
 17  6  1  0
 23 19  1  0
M  END
$$$$
