
     RDKit          3D

 24 26  0  0  0  0  0  0  0  0999 V2000
    1.8500    0.9421    6.1868 C   0  0  0  0  0  0  0  0  0  0  0  0
    2.1088    2.0099    7.2292 C   0  0  0  0  0  0  0  0  0  0  0  0
    0.8733    2.6434    7.7429 C   0  0  0  0  0  0  0  0  0  0  0  0
    0.9985    3.7250    8.7034 C   0  0  0  0  0  0  0  0  0  0  0  0
    1.9518    3.5445    9.7201 C   0  0  0  0  0  0  0  0  0  0  0  0
    2.1686    4.4934   10.6846 C   0  0  0  0  0  0  0  0  0  0  0  0
    1.4173    5.6663   10.6469 C   0  0  0  0  0  0  0  0  0  0  0  0
    0.4894    5.8347    9.6519 C   0  0  0  0  0  0  0  0  0  0  0  0
    0.2627    4.8842    8.6743 C   0  0  0  0  0  0  0  0  0  0  0  0
   -0.6637    5.0443    7.6779 O   0  0  0  0  0  0  0  0  0  0  0  0
   -1.9665    4.5674    7.7746 C   0  0  0  0  0  0  0  0  0  0  0  0
   -2.2685    4.0264    8.8801 O   0  0  0  0  0  0  0  0  0  0  0  0
   -2.9345    4.6867    6.6542 C   0  0  0  0  0  0  0  0  0  0  0  0
    1.5929    6.6017   11.5514 O   0  0  0  0  0  0  0  0  0  0  0  0
    2.4494    6.5110   12.5174 C   0  0  0  0  0  0  0  0  0  0  0  0
    3.2228    5.3650   12.6017 C   0  0  0  0  0  0  0  0  0  0  0  0
    3.0919    4.3618   11.7009 C   0  0  0  0  0  0  0  0  0  0  0  0
    3.7754    3.3270   11.7591 O   0  0  0  0  0  0  0  0  0  0  0  0
    4.2103    5.2881   13.7349 C   0  0  0  0  0  0  0  0  0  0  0  0
    4.8229    5.9236   14.4641 N   0  0  0  0  0  0  0  0  0  0  0  0
    5.6621    5.5933   15.4175 C   0  0  0  0  0  0  0  0  0  0  0  0
    5.8260    4.2275   15.5542 C   0  0  0  0  0  0  0  0  0  0  0  0
    4.7382    3.5598   14.2767 S   0  0  0  0  0  0  0  0  0  0  0  0
    6.3864    6.6201   16.2885 C   0  0  0  0  0  0  0  0  0  0  0  0
  1  2  1  0
  2  3  1  0
  3  4  1  0
  4  5  2  0
  5  6  1  0
  6  7  2  0
  7  8  1  0
  8  9  2  0
  9 10  1  0
 10 11  1  0
 11 12  2  0
 11 13  1  0
  7 14  1  0
 14 15  1  0
 15 16  2  0
 16 17  1  0
 17 18  2  0
 16 19  1  0
 19 20  2  0
 20 21  1  0
 21 22  2  0
 22 23  1  0
 21 24  1  0
  9  4  1  0
 17  6  1  0
 23 19  1  0
M  END
$$$$
