
     RDKit          3D

 24 26  0  0  0  0  0  0  0  0999 V2000
    3.6923    0.0321    6.6072 C   0  0  0  0  0  0  0  0  0  0  0  0
    3.6884    1.2682    7.4824 C   0  0  0  0  0  0  0  0  0  0  0  0
    2.3298    1.7775    7.7766 C   0  0  0  0  0  0  0  0  0  0  0  0
    2.2022    3.0353    8.4905 C   0  0  0  0  0  0  0  0  0  0  0  0
    2.8639    3.1162    9.7277 C   0  0  0  0  0  0  0  0  0  0  0  0
    2.8242    4.2502   10.4960 C   0  0  0  0  0  0  0  0  0  0  0  0
    2.1047    5.3478   10.0281 C   0  0  0  0  0  0  0  0  0  0  0  0
    1.4620    5.2609    8.8202 C   0  0  0  0  0  0  0  0  0  0  0  0
    1.4955    4.1221    8.0374 C   0  0  0  0  0  0  0  0  0  0  0  0
    0.8547    4.0268    6.8303 O   0  0  0  0  0  0  0  0  0  0  0  0
   -0.5274    4.1098    6.7008 C   0  0  0  0  0  0  0  0  0  0  0  0
   -1.1833    4.0120    7.7808 O   0  0  0  0  0  0  0  0  0  0  0  0
   -1.1853    4.3003    5.3826 C   0  0  0  0  0  0  0  0  0  0  0  0
    2.0404    6.4541   10.7321 O   0  0  0  0  0  0  0  0  0  0  0  0
    2.6213    6.6074   11.8784 C   0  0  0  0  0  0  0  0  0  0  0  0
    3.3502    5.5466   12.3904 C   0  0  0  0  0  0  0  0  0  0  0  0
    3.4568    4.3771   11.7152 C   0  0  0  0  0  0  0  0  0  0  0  0
    4.1052    3.4149   12.1568 O   0  0  0  0  0  0  0  0  0  0  0  0
    4.0149    5.7542   13.7247 C   0  0  0  0  0  0  0  0  0  0  0  0
    4.7205    5.2690   14.4847 N   0  0  0  0  0  0  0  0  0  0  0  0
    5.1720    5.6835   15.6451 C   0  0  0  0  0  0  0  0  0  0  0  0
    4.7020    6.9338   16.0009 C   0  0  0  0  0  0  0  0  0  0  0  0
    3.6465    7.3812   14.6057 S   0  0  0  0  0  0  0  0  0  0  0  0
    6.1231    4.8618   16.5157 C   0  0  0  0  0  0  0  0  0  0  0  0
  1  2  1  0
  2  3  1  0
  3  4  1  0
  4  5  2  0
  5  6  1  0
  6  7  2  0
  7  8  1  0
  8  9  2  0
  9 10  1  0
 10 11  1  0
 11 12  2  0
 11 13  1  0
  7 14  1  0
 14 15  1  0
 15 16  2  0
 16 17  1  0
 17 18  2  0
 16 19  1  0
 19 20  2  0
 20 21  1  0
 21 22  2  0
 22 23  1  0
 21 24  1  0
  9  4  1  0
 17  6  1  0
 23 19  1  0
M  END
$$$$
