
     RDKit          3D

 24 26  0  0  0  0  0  0  0  0999 V2000
    7.0864    6.0358   15.3307 C   0  0  0  0  0  0  0  0  0  0  0  0
    6.1960    5.9056   14.1125 C   0  0  0  0  0  0  0  0  0  0  0  0
    4.7513    5.9728   14.4288 C   0  0  0  0  0  0  0  0  0  0  0  0
    3.8012    5.9515   13.3311 C   0  0  0  0  0  0  0  0  0  0  0  0
    3.8369    4.8174   12.5018 C   0  0  0  0  0  0  0  0  0  0  0  0
    2.9891    4.6751   11.4347 C   0  0  0  0  0  0  0  0  0  0  0  0
    2.0697    5.6891   11.1736 C   0  0  0  0  0  0  0  0  0  0  0  0
    2.0413    6.7921   11.9873 C   0  0  0  0  0  0  0  0  0  0  0  0
    2.8918    6.9458   13.0660 C   0  0  0  0  0  0  0  0  0  0  0  0
    2.8707    8.0455   13.8827 O   0  0  0  0  0  0  0  0  0  0  0  0
    2.0250    8.1538   14.9814 C   0  0  0  0  0  0  0  0  0  0  0  0
    1.1806    7.2182   15.1140 O   0  0  0  0  0  0  0  0  0  0  0  0
    2.1104    9.2918   15.9323 C   0  0  0  0  0  0  0  0  0  0  0  0
    1.2388    5.5935   10.1616 O   0  0  0  0  0  0  0  0  0  0  0  0
    1.2090    4.5830    9.3535 C   0  0  0  0  0  0  0  0  0  0  0  0
    2.1023    3.5463    9.5677 C   0  0  0  0  0  0  0  0  0  0  0  0
    2.9863    3.5819   10.5935 C   0  0  0  0  0  0  0  0  0  0  0  0
    3.7947    2.6632   10.8024 O   0  0  0  0  0  0  0  0  0  0  0  0
    2.0440    2.3847    8.6125 C   0  0  0  0  0  0  0  0  0  0  0  0
    1.4879    1.9727    7.7004 N   0  0  0  0  0  0  0  0  0  0  0  0
    1.6401    0.8657    7.0120 C   0  0  0  0  0  0  0  0  0  0  0  0
    2.6601    0.0619    7.4856 C   0  0  0  0  0  0  0  0  0  0  0  0
    3.2968    1.0018    8.8900 S   0  0  0  0  0  0  0  0  0  0  0  0
    0.7724    0.5033    5.8064 C   0  0  0  0  0  0  0  0  0  0  0  0
  1  2  1  0
  2  3  1  0
  3  4  1  0
  4  5  2  0
  5  6  1  0
  6  7  2  0
  7  8  1  0
  8  9  2  0
  9 10  1  0
 10 11  1  0
 11 12  2  0
 11 13  1  0
  7 14  1  0
 14 15  1  0
 15 16  2  0
 16 17  1  0
 17 18  2  0
 16 19  1  0
 19 20  2  0
 20 21  1  0
 21 22  2  0
 22 23  1  0
 21 24  1  0
  9  4  1  0
 17  6  1  0
 23 19  1  0
M  END
$$$$
