
     RDKit          3D

 41 44  0  0  0  0  0  0  0  0999 V2000
    6.3076   -3.1958   14.2716 C   0  0  0  0  0  0  0  0  0  0  0  0
    5.5568   -1.8889   14.1659 C   0  0  0  0  0  0  0  0  0  0  0  0
    4.2082   -2.1625   13.9017 O   0  0  0  0  0  0  0  0  0  0  0  0
    3.7808   -3.2623   13.1942 C   0  0  0  0  0  0  0  0  0  0  0  0
    2.4375   -3.4415   12.8801 C   0  0  0  0  0  0  0  0  0  0  0  0
    2.0113   -4.5403   12.1748 C   0  0  0  0  0  0  0  0  0  0  0  0
    2.9438   -5.5041   11.7588 C   0  0  0  0  0  0  0  0  0  0  0  0
    4.2796   -5.3439   12.0586 C   0  0  0  0  0  0  0  0  0  0  0  0
    4.6737   -4.2205   12.7745 C   0  0  0  0  0  0  0  0  0  0  0  0
    6.0550   -4.0195   13.1040 N   0  0  0  0  0  0  0  0  0  0  0  0
    7.0713   -4.6065   12.2869 C   0  0  0  0  0  0  0  0  0  0  0  0
    7.3682   -6.0495   12.6140 C   0  0  0  0  0  0  0  0  0  0  0  0
    7.0284   -6.3115   14.0758 C   0  0  0  0  0  0  0  0  0  0  0  0
    7.4974   -7.6431   14.4574 C   0  0  0  0  0  0  0  0  0  0  0  0
    6.6569   -8.5252   14.7748 O   0  0  0  0  0  0  0  0  0  0  0  0
    8.8618   -7.9308   14.4660 O   0  0  0  0  0  0  0  0  0  0  0  0
    1.4929   -2.4508   13.2726 N   0  0  0  0  0  0  0  0  0  0  0  0
    0.1752   -2.4586   12.7039 C   0  0  0  0  0  0  0  0  0  0  0  0
    0.1146   -2.6859   11.4734 O   0  0  0  0  0  0  0  0  0  0  0  0
   -1.0432   -2.2270   13.4459 C   0  0  0  0  0  0  0  0  0  0  0  0
   -0.9575   -2.1082   14.8108 C   0  0  0  0  0  0  0  0  0  0  0  0
   -2.0785   -1.8930   15.5939 C   0  0  0  0  0  0  0  0  0  0  0  0
   -3.3413   -1.7838   15.0623 C   0  0  0  0  0  0  0  0  0  0  0  0
   -3.3916   -1.9116   13.6552 C   0  0  0  0  0  0  0  0  0  0  0  0
   -2.2931   -2.1240   12.8771 C   0  0  0  0  0  0  0  0  0  0  0  0
   -4.5040   -1.5652   15.7553 O   0  0  0  0  0  0  0  0  0  0  0  0
   -5.7181   -1.2199   15.1978 C   0  0  0  0  0  0  0  0  0  0  0  0
   -6.8965   -1.1580   16.1038 C   0  0  0  0  0  0  0  0  0  0  0  0
   -6.7040    0.1048   17.0115 C   0  0  0  0  0  0  0  0  0  0  0  0
   -6.4877    1.2459   16.1000 C   0  0  0  0  0  0  0  0  0  0  0  0
   -7.4980    2.3044   16.0622 C   0  0  0  0  0  0  0  0  0  0  0  0
   -8.6395    2.2850   15.3065 C   0  0  0  0  0  0  0  0  0  0  0  0
   -9.5738    3.3397   15.3175 C   0  0  0  0  0  0  0  0  0  0  0  0
   -9.3646    4.4405   16.1019 C   0  0  0  0  0  0  0  0  0  0  0  0
   -8.2115    4.4834   16.8784 C   0  0  0  0  0  0  0  0  0  0  0  0
   -7.3246    3.4562   16.8520 C   0  0  0  0  0  0  0  0  0  0  0  0
   -8.0017    5.5928   17.6680 F   0  0  0  0  0  0  0  0  0  0  0  0
   -9.0288    0.9246   14.2559 Cl  0  0  0  0  0  0  0  0  0  0  0  0
    6.1585   -1.1070   13.0460 C   0  0  0  0  0  0  0  0  0  0  0  0
    5.5227   -0.1516   12.5333 O   0  0  0  0  0  0  0  0  0  0  0  0
    7.4208   -1.3907   12.5249 O   0  0  0  0  0  0  0  0  0  0  0  0
  1  2  1  0
  2  3  1  0
  3  4  1  0
  4  5  2  0
  5  6  1  0
  6  7  2  0
  7  8  1  0
  8  9  2  0
  9 10  1  0
 10 11  1  0
 11 12  1  0
 12 13  1  0
 13 14  1  0
 14 15  2  0
 14 16  1  0
  5 17  1  0
 17 18  1  0
 18 19  2  0
 18 20  1  0
 20 21  2  0
 21 22  1  0
 22 23  2  0
 23 24  1  0
 24 25  2  0
 23 26  1  0
 26 27  1  0
 27 28  1  0
 28 29  1  0
 29 30  1  0
 30 31  1  0
 31 32  2  0
 32 33  1  0
 33 34  2  0
 34 35  1  0
 35 36  2  0
 35 37  1  0
 32 38  1  0
  2 39  1  0
 39 40  2  0
 39 41  1  0
 10  1  1  0
  9  4  1  0
 25 20  1  0
 36 31  1  0
M  END
$$$$
