
     RDKit          3D

 41 44  0  0  0  0  0  0  0  0999 V2000
    7.4600   -2.4125   11.9834 C   0  0  0  0  0  0  0  0  0  0  0  0
    6.4010   -1.5071   12.5675 C   0  0  0  0  0  0  0  0  0  0  0  0
    5.2361   -2.2551   12.7840 O   0  0  0  0  0  0  0  0  0  0  0  0
    4.8715   -3.3337   12.0115 C   0  0  0  0  0  0  0  0  0  0  0  0
    3.6597   -3.9873   12.2100 C   0  0  0  0  0  0  0  0  0  0  0  0
    3.2969   -5.0647   11.4391 C   0  0  0  0  0  0  0  0  0  0  0  0
    4.1600   -5.5193   10.4293 C   0  0  0  0  0  0  0  0  0  0  0  0
    5.3645   -4.8840   10.2157 C   0  0  0  0  0  0  0  0  0  0  0  0
    5.6983   -3.7984   11.0155 C   0  0  0  0  0  0  0  0  0  0  0  0
    6.9426   -3.1118   10.8220 N   0  0  0  0  0  0  0  0  0  0  0  0
    7.5752   -3.1390    9.5397 C   0  0  0  0  0  0  0  0  0  0  0  0
    8.3032   -4.4262    9.2387 C   0  0  0  0  0  0  0  0  0  0  0  0
    9.2249   -4.7641   10.4038 C   0  0  0  0  0  0  0  0  0  0  0  0
   10.0993   -5.8755   10.0311 C   0  0  0  0  0  0  0  0  0  0  0  0
    9.6488   -6.7955    9.2989 O   0  0  0  0  0  0  0  0  0  0  0  0
   11.4185   -5.9120   10.4812 O   0  0  0  0  0  0  0  0  0  0  0  0
    2.7675   -3.5101   13.2120 N   0  0  0  0  0  0  0  0  0  0  0  0
    1.3611   -3.7714   13.0960 C   0  0  0  0  0  0  0  0  0  0  0  0
    1.0250   -4.5396   12.1651 O   0  0  0  0  0  0  0  0  0  0  0  0
    0.3464   -3.2173   13.9631 C   0  0  0  0  0  0  0  0  0  0  0  0
   -0.9639   -3.5459   13.7190 C   0  0  0  0  0  0  0  0  0  0  0  0
   -1.9951   -3.0512   14.4988 C   0  0  0  0  0  0  0  0  0  0  0  0
   -1.7785   -2.2062   15.5609 C   0  0  0  0  0  0  0  0  0  0  0  0
   -0.4186   -1.8893   15.7823 C   0  0  0  0  0  0  0  0  0  0  0  0
    0.6024   -2.3715   15.0192 C   0  0  0  0  0  0  0  0  0  0  0  0
   -2.7321   -1.6737   16.3897 O   0  0  0  0  0  0  0  0  0  0  0  0
   -4.0545   -2.0637   16.4470 C   0  0  0  0  0  0  0  0  0  0  0  0
   -5.0491   -1.0533   16.8978 C   0  0  0  0  0  0  0  0  0  0  0  0
   -4.5940   -0.5722   18.3181 C   0  0  0  0  0  0  0  0  0  0  0  0
   -4.0468    0.7879   18.1433 C   0  0  0  0  0  0  0  0  0  0  0  0
   -4.4771    1.8332   19.0732 C   0  0  0  0  0  0  0  0  0  0  0  0
   -5.6936    2.4609   19.0534 C   0  0  0  0  0  0  0  0  0  0  0  0
   -6.0456    3.4613   19.9812 C   0  0  0  0  0  0  0  0  0  0  0  0
   -5.1626    3.8445   20.9529 C   0  0  0  0  0  0  0  0  0  0  0  0
   -3.9198    3.2213   20.9930 C   0  0  0  0  0  0  0  0  0  0  0  0
   -3.6016    2.2602   20.0889 C   0  0  0  0  0  0  0  0  0  0  0  0
   -3.0311    3.6081   21.9722 F   0  0  0  0  0  0  0  0  0  0  0  0
   -6.9216    2.0579   17.8552 Cl  0  0  0  0  0  0  0  0  0  0  0  0
    6.1427   -0.4143   11.5843 C   0  0  0  0  0  0  0  0  0  0  0  0
    6.7999   -0.3629   10.5141 O   0  0  0  0  0  0  0  0  0  0  0  0
    5.1870    0.5786   11.7986 O   0  0  0  0  0  0  0  0  0  0  0  0
  1  2  1  0
  2  3  1  0
  3  4  1  0
  4  5  2  0
  5  6  1  0
  6  7  2  0
  7  8  1  0
  8  9  2  0
  9 10  1  0
 10 11  1  0
 11 12  1  0
 12 13  1  0
 13 14  1  0
 14 15  2  0
 14 16  1  0
  5 17  1  0
 17 18  1  0
 18 19  2  0
 18 20  1  0
 20 21  2  0
 21 22  1  0
 22 23  2  0
 23 24  1  0
 24 25  2  0
 23 26  1  0
 26 27  1  0
 27 28  1  0
 28 29  1  0
 29 30  1  0
 30 31  1  0
 31 32  2  0
 32 33  1  0
 33 34  2  0
 34 35  1  0
 35 36  2  0
 35 37  1  0
 32 38  1  0
  2 39  1  0
 39 40  2  0
 39 41  1  0
 10  1  1  0
  9  4  1  0
 25 20  1  0
 36 31  1  0
M  END
$$$$
