
     RDKit          3D

 41 44  0  0  0  0  0  0  0  0999 V2000
   -3.2364   -1.7603   19.9867 C   0  0  0  0  0  0  0  0  0  0  0  0
   -3.4164   -1.8531   18.4895 C   0  0  0  0  0  0  0  0  0  0  0  0
   -2.2039   -1.5269   17.8675 O   0  0  0  0  0  0  0  0  0  0  0  0
   -1.2906   -0.6457   18.3988 C   0  0  0  0  0  0  0  0  0  0  0  0
   -0.1435   -0.2854   17.6992 C   0  0  0  0  0  0  0  0  0  0  0  0
    0.7684    0.5935   18.2308 C   0  0  0  0  0  0  0  0  0  0  0  0
    0.5442    1.1432   19.5031 C   0  0  0  0  0  0  0  0  0  0  0  0
   -0.5874    0.8002   20.2116 C   0  0  0  0  0  0  0  0  0  0  0  0
   -1.4868   -0.0925   19.6426 C   0  0  0  0  0  0  0  0  0  0  0  0
   -2.6756   -0.4721   20.3494 N   0  0  0  0  0  0  0  0  0  0  0  0
   -3.2325    0.4120   21.3259 C   0  0  0  0  0  0  0  0  0  0  0  0
   -3.8452    1.6634   20.7462 C   0  0  0  0  0  0  0  0  0  0  0  0
   -5.1510    1.9636   21.4714 C   0  0  0  0  0  0  0  0  0  0  0  0
   -5.0027    3.1837   22.2639 C   0  0  0  0  0  0  0  0  0  0  0  0
   -5.4158    3.2002   23.4532 O   0  0  0  0  0  0  0  0  0  0  0  0
   -4.4070    4.3145   21.7065 O   0  0  0  0  0  0  0  0  0  0  0  0
    0.0721   -0.8161   16.3955 N   0  0  0  0  0  0  0  0  0  0  0  0
    1.3600   -1.3442   16.0459 C   0  0  0  0  0  0  0  0  0  0  0  0
    2.2918   -1.0769   16.8394 O   0  0  0  0  0  0  0  0  0  0  0  0
    1.6322   -2.1396   14.8704 C   0  0  0  0  0  0  0  0  0  0  0  0
    2.9425   -2.3434   14.5156 C   0  0  0  0  0  0  0  0  0  0  0  0
    3.2868   -3.0870   13.3999 C   0  0  0  0  0  0  0  0  0  0  0  0
    2.3483   -3.6670   12.5801 C   0  0  0  0  0  0  0  0  0  0  0  0
    1.0107   -3.4360   12.9752 C   0  0  0  0  0  0  0  0  0  0  0  0
    0.6633   -2.7048   14.0716 C   0  0  0  0  0  0  0  0  0  0  0  0
    2.5939   -4.4224   11.4627 O   0  0  0  0  0  0  0  0  0  0  0  0
    3.8371   -4.8389   11.0324 C   0  0  0  0  0  0  0  0  0  0  0  0
    4.0523   -4.9542    9.5649 C   0  0  0  0  0  0  0  0  0  0  0  0
    5.0721   -3.8326    9.1673 C   0  0  0  0  0  0  0  0  0  0  0  0
    5.2172   -3.9006    7.6996 C   0  0  0  0  0  0  0  0  0  0  0  0
    6.2083   -3.0340    7.0599 C   0  0  0  0  0  0  0  0  0  0  0  0
    6.1763   -1.6654    7.0490 C   0  0  0  0  0  0  0  0  0  0  0  0
    7.1658   -0.8891    6.4136 C   0  0  0  0  0  0  0  0  0  0  0  0
    8.2131   -1.4928    5.7739 C   0  0  0  0  0  0  0  0  0  0  0  0
    8.2672   -2.8826    5.7710 C   0  0  0  0  0  0  0  0  0  0  0  0
    7.3028   -3.6107    6.3890 C   0  0  0  0  0  0  0  0  0  0  0  0
    9.3226   -3.4897    5.1262 F   0  0  0  0  0  0  0  0  0  0  0  0
    4.8832   -0.7653    7.8389 Cl  0  0  0  0  0  0  0  0  0  0  0  0
   -4.4803   -0.8825   18.0974 C   0  0  0  0  0  0  0  0  0  0  0  0
   -4.3126   -0.1336   17.1019 O   0  0  0  0  0  0  0  0  0  0  0  0
   -5.6802   -0.7596   18.7978 O   0  0  0  0  0  0  0  0  0  0  0  0
  1  2  1  0
  2  3  1  0
  3  4  1  0
  4  5  2  0
  5  6  1  0
  6  7  2  0
  7  8  1  0
  8  9  2  0
  9 10  1  0
 10 11  1  0
 11 12  1  0
 12 13  1  0
 13 14  1  0
 14 15  2  0
 14 16  1  0
  5 17  1  0
 17 18  1  0
 18 19  2  0
 18 20  1  0
 20 21  2  0
 21 22  1  0
 22 23  2  0
 23 24  1  0
 24 25  2  0
 23 26  1  0
 26 27  1  0
 27 28  1  0
 28 29  1  0
 29 30  1  0
 30 31  1  0
 31 32  2  0
 32 33  1  0
 33 34  2  0
 34 35  1  0
 35 36  2  0
 35 37  1  0
 32 38  1  0
  2 39  1  0
 39 40  2  0
 39 41  1  0
 10  1  1  0
  9  4  1  0
 25 20  1  0
 36 31  1  0
M  END
$$$$
