
     RDKit          3D

 41 44  0  0  0  0  0  0  0  0999 V2000
   -9.6907   -3.9635   44.5263 C   0  0  0  0  0  0  0  0  0  0  0  0
  -11.0786   -4.5599   44.4984 C   0  0  0  0  0  0  0  0  0  0  0  0
  -11.5273   -4.5986   43.1716 O   0  0  0  0  0  0  0  0  0  0  0  0
  -11.1507   -3.6838   42.2154 C   0  0  0  0  0  0  0  0  0  0  0  0
  -11.6950   -3.7116   40.9355 C   0  0  0  0  0  0  0  0  0  0  0  0
  -11.3176   -2.7987   39.9811 C   0  0  0  0  0  0  0  0  0  0  0  0
  -10.3661   -1.8157   40.2969 C   0  0  0  0  0  0  0  0  0  0  0  0
   -9.8164   -1.7703   41.5601 C   0  0  0  0  0  0  0  0  0  0  0  0
  -10.2214   -2.7105   42.4991 C   0  0  0  0  0  0  0  0  0  0  0  0
   -9.6721   -2.6939   43.8239 N   0  0  0  0  0  0  0  0  0  0  0  0
   -9.1684   -1.4707   44.3672 C   0  0  0  0  0  0  0  0  0  0  0  0
   -7.8874   -0.9936   43.7279 C   0  0  0  0  0  0  0  0  0  0  0  0
   -6.7033   -1.4956   44.5446 C   0  0  0  0  0  0  0  0  0  0  0  0
   -6.5944   -2.9477   44.4092 C   0  0  0  0  0  0  0  0  0  0  0  0
   -7.3235   -3.6893   45.1191 O   0  0  0  0  0  0  0  0  0  0  0  0
   -5.6937   -3.5022   43.5007 O   0  0  0  0  0  0  0  0  0  0  0  0
  -12.6833   -4.6871   40.6205 N   0  0  0  0  0  0  0  0  0  0  0  0
  -12.7479   -5.2328   39.2947 C   0  0  0  0  0  0  0  0  0  0  0  0
  -12.0458   -4.6546   38.4331 O   0  0  0  0  0  0  0  0  0  0  0  0
  -13.5496   -6.3725   38.9115 C   0  0  0  0  0  0  0  0  0  0  0  0
  -13.5003   -6.7890   37.6045 C   0  0  0  0  0  0  0  0  0  0  0  0
  -14.2433   -7.8675   37.1562 C   0  0  0  0  0  0  0  0  0  0  0  0
  -15.0723   -8.5881   37.9823 C   0  0  0  0  0  0  0  0  0  0  0  0
  -15.0986   -8.1310   39.3199 C   0  0  0  0  0  0  0  0  0  0  0  0
  -14.3707   -7.0701   39.7692 C   0  0  0  0  0  0  0  0  0  0  0  0
  -15.8380   -9.6697   37.6307 O   0  0  0  0  0  0  0  0  0  0  0  0
  -16.8275  -10.2389   38.4059 C   0  0  0  0  0  0  0  0  0  0  0  0
  -17.2638  -11.6181   38.0580 C   0  0  0  0  0  0  0  0  0  0  0  0
  -17.9411  -12.2154   39.3387 C   0  0  0  0  0  0  0  0  0  0  0  0
  -18.6060  -13.4641   38.9163 C   0  0  0  0  0  0  0  0  0  0  0  0
  -18.0786  -14.7343   39.4172 C   0  0  0  0  0  0  0  0  0  0  0  0
  -16.8933  -14.8936   40.0834 C   0  0  0  0  0  0  0  0  0  0  0  0
  -16.4436  -16.1482   40.5410 C   0  0  0  0  0  0  0  0  0  0  0  0
  -17.1951  -17.2712   40.3293 C   0  0  0  0  0  0  0  0  0  0  0  0
  -18.4033  -17.1346   39.6541 C   0  0  0  0  0  0  0  0  0  0  0  0
  -18.8169  -15.9164   39.2216 C   0  0  0  0  0  0  0  0  0  0  0  0
  -19.1594  -18.2666   39.4412 F   0  0  0  0  0  0  0  0  0  0  0  0
  -15.8335  -13.5270   40.4230 Cl  0  0  0  0  0  0  0  0  0  0  0  0
  -11.9660   -3.6879   45.3229 C   0  0  0  0  0  0  0  0  0  0  0  0
  -11.7768   -2.4456   45.3512 O   0  0  0  0  0  0  0  0  0  0  0  0
  -13.0195   -4.1939   46.0841 O   0  0  0  0  0  0  0  0  0  0  0  0
  1  2  1  0
  2  3  1  0
  3  4  1  0
  4  5  2  0
  5  6  1  0
  6  7  2  0
  7  8  1  0
  8  9  2  0
  9 10  1  0
 10 11  1  0
 11 12  1  0
 12 13  1  0
 13 14  1  0
 14 15  2  0
 14 16  1  0
  5 17  1  0
 17 18  1  0
 18 19  2  0
 18 20  1  0
 20 21  2  0
 21 22  1  0
 22 23  2  0
 23 24  1  0
 24 25  2  0
 23 26  1  0
 26 27  1  0
 27 28  1  0
 28 29  1  0
 29 30  1  0
 30 31  1  0
 31 32  2  0
 32 33  1  0
 33 34  2  0
 34 35  1  0
 35 36  2  0
 35 37  1  0
 32 38  1  0
  2 39  1  0
 39 40  2  0
 39 41  1  0
 10  1  1  0
  9  4  1  0
 25 20  1  0
 36 31  1  0
M  END
$$$$
