
     RDKit          3D

 41 44  0  0  0  0  0  0  0  0999 V2000
   -0.3168   -3.8178   16.0907 C   0  0  0  0  0  0  0  0  0  0  0  0
    1.0975   -3.7361   16.6157 C   0  0  0  0  0  0  0  0  0  0  0  0
    1.9842   -3.7575   15.5310 O   0  0  0  0  0  0  0  0  0  0  0  0
    1.7239   -4.4138   14.3501 C   0  0  0  0  0  0  0  0  0  0  0  0
    2.6749   -4.4818   13.3370 C   0  0  0  0  0  0  0  0  0  0  0  0
    2.4140   -5.1361   12.1579 C   0  0  0  0  0  0  0  0  0  0  0  0
    1.1666   -5.7511   11.9653 C   0  0  0  0  0  0  0  0  0  0  0  0
    0.2115   -5.6965   12.9577 C   0  0  0  0  0  0  0  0  0  0  0  0
    0.5106   -5.0250   14.1364 C   0  0  0  0  0  0  0  0  0  0  0  0
   -0.4577   -4.9481   15.1917 N   0  0  0  0  0  0  0  0  0  0  0  0
   -1.4627   -5.9589   15.3066 C   0  0  0  0  0  0  0  0  0  0  0  0
   -2.5868   -5.8267   14.3084 C   0  0  0  0  0  0  0  0  0  0  0  0
   -3.9066   -5.6868   15.0566 C   0  0  0  0  0  0  0  0  0  0  0  0
   -5.0078   -5.6056   14.0977 C   0  0  0  0  0  0  0  0  0  0  0  0
   -5.5632   -4.4950   13.8895 O   0  0  0  0  0  0  0  0  0  0  0  0
   -5.4342   -6.7475   13.4203 O   0  0  0  0  0  0  0  0  0  0  0  0
    3.9524   -3.8865   13.5406 N   0  0  0  0  0  0  0  0  0  0  0  0
    4.7948   -3.6057   12.4131 C   0  0  0  0  0  0  0  0  0  0  0  0
    5.6810   -4.4572   12.1700 O   0  0  0  0  0  0  0  0  0  0  0  0
    4.6814   -2.4362   11.5716 C   0  0  0  0  0  0  0  0  0  0  0  0
    5.3762   -2.4204   10.3878 C   0  0  0  0  0  0  0  0  0  0  0  0
    5.3264   -1.3353    9.5297 C   0  0  0  0  0  0  0  0  0  0  0  0
    4.5838   -0.2113    9.8021 C   0  0  0  0  0  0  0  0  0  0  0  0
    3.8825   -0.2624   11.0287 C   0  0  0  0  0  0  0  0  0  0  0  0
    3.9266   -1.3263   11.8793 C   0  0  0  0  0  0  0  0  0  0  0  0
    4.4690    0.9039    9.0129 O   0  0  0  0  0  0  0  0  0  0  0  0
    3.7058    2.0167    9.3016 C   0  0  0  0  0  0  0  0  0  0  0  0
    3.8928    3.2183    8.4445 C   0  0  0  0  0  0  0  0  0  0  0  0
    5.4328    3.5045    8.3957 C   0  0  0  0  0  0  0  0  0  0  0  0
    5.5946    4.8086    7.7227 C   0  0  0  0  0  0  0  0  0  0  0  0
    6.9164    5.1609    7.2019 C   0  0  0  0  0  0  0  0  0  0  0  0
    7.9830    5.5701    7.9562 C   0  0  0  0  0  0  0  0  0  0  0  0
    9.2320    5.8940    7.3899 C   0  0  0  0  0  0  0  0  0  0  0  0
    9.4217    5.8069    6.0382 C   0  0  0  0  0  0  0  0  0  0  0  0
    8.3524    5.3937    5.2508 C   0  0  0  0  0  0  0  0  0  0  0  0
    7.1577    5.0871    5.8174 C   0  0  0  0  0  0  0  0  0  0  0  0
    8.5445    5.3065    3.8892 F   0  0  0  0  0  0  0  0  0  0  0  0
    7.8715    5.7211    9.7086 Cl  0  0  0  0  0  0  0  0  0  0  0  0
    1.3252   -4.9185   17.4976 C   0  0  0  0  0  0  0  0  0  0  0  0
    0.4155   -5.7718   17.6530 O   0  0  0  0  0  0  0  0  0  0  0  0
    2.5251   -5.1291   18.1768 O   0  0  0  0  0  0  0  0  0  0  0  0
  1  2  1  0
  2  3  1  0
  3  4  1  0
  4  5  2  0
  5  6  1  0
  6  7  2  0
  7  8  1  0
  8  9  2  0
  9 10  1  0
 10 11  1  0
 11 12  1  0
 12 13  1  0
 13 14  1  0
 14 15  2  0
 14 16  1  0
  5 17  1  0
 17 18  1  0
 18 19  2  0
 18 20  1  0
 20 21  2  0
 21 22  1  0
 22 23  2  0
 23 24  1  0
 24 25  2  0
 23 26  1  0
 26 27  1  0
 27 28  1  0
 28 29  1  0
 29 30  1  0
 30 31  1  0
 31 32  2  0
 32 33  1  0
 33 34  2  0
 34 35  1  0
 35 36  2  0
 35 37  1  0
 32 38  1  0
  2 39  1  0
 39 40  2  0
 39 41  1  0
 10  1  1  0
  9  4  1  0
 25 20  1  0
 36 31  1  0
M  END
$$$$
