
     RDKit          3D

 41 44  0  0  0  0  0  0  0  0999 V2000
  -19.2173    5.3577   35.1405 C   0  0  0  0  0  0  0  0  0  0  0  0
  -17.7623    4.9506   35.1333 C   0  0  0  0  0  0  0  0  0  0  0  0
  -17.5112    4.1511   36.2563 O   0  0  0  0  0  0  0  0  0  0  0  0
  -18.1842    4.2838   37.4489 C   0  0  0  0  0  0  0  0  0  0  0  0
  -17.8354    3.5271   38.5629 C   0  0  0  0  0  0  0  0  0  0  0  0
  -18.5084    3.6592   39.7529 C   0  0  0  0  0  0  0  0  0  0  0  0
  -19.5685    4.5742   39.8542 C   0  0  0  0  0  0  0  0  0  0  0  0
  -19.9283    5.3347   38.7623 C   0  0  0  0  0  0  0  0  0  0  0  0
  -19.2256    5.1732   37.5750 C   0  0  0  0  0  0  0  0  0  0  0  0
  -19.5707    5.9477   36.4182 N   0  0  0  0  0  0  0  0  0  0  0  0
  -20.2067    7.2183   36.5798 C   0  0  0  0  0  0  0  0  0  0  0  0
  -21.4103    7.4224   35.6926 C   0  0  0  0  0  0  0  0  0  0  0  0
  -22.4129    8.3193   36.4078 C   0  0  0  0  0  0  0  0  0  0  0  0
  -23.6261    8.4404   35.6002 C   0  0  0  0  0  0  0  0  0  0  0  0
  -24.7435    8.1937   36.1255 O   0  0  0  0  0  0  0  0  0  0  0  0
  -23.5433    8.8278   34.2632 O   0  0  0  0  0  0  0  0  0  0  0  0
  -16.7407    2.6208   38.4735 N   0  0  0  0  0  0  0  0  0  0  0  0
  -15.3991    3.1278   38.4215 C   0  0  0  0  0  0  0  0  0  0  0  0
  -15.2757    4.3612   38.6028 O   0  0  0  0  0  0  0  0  0  0  0  0
  -14.2234    2.3227   38.1801 C   0  0  0  0  0  0  0  0  0  0  0  0
  -13.0111    2.9595   38.0838 C   0  0  0  0  0  0  0  0  0  0  0  0
  -11.8396    2.2612   37.8467 C   0  0  0  0  0  0  0  0  0  0  0  0
  -11.8113    0.8956   37.6942 C   0  0  0  0  0  0  0  0  0  0  0  0
  -13.0767    0.2738   37.7988 C   0  0  0  0  0  0  0  0  0  0  0  0
  -14.2347    0.9538   38.0315 C   0  0  0  0  0  0  0  0  0  0  0  0
  -10.7035    0.1213   37.4642 O   0  0  0  0  0  0  0  0  0  0  0  0
   -9.6365    0.4653   36.6595 C   0  0  0  0  0  0  0  0  0  0  0  0
   -8.2689    0.2232   37.1926 C   0  0  0  0  0  0  0  0  0  0  0  0
   -7.6695    1.6250   37.5554 C   0  0  0  0  0  0  0  0  0  0  0  0
   -6.4693    1.7973   36.7130 C   0  0  0  0  0  0  0  0  0  0  0  0
   -5.3848    2.6422   37.2156 C   0  0  0  0  0  0  0  0  0  0  0  0
   -4.2089    2.8958   36.5621 C   0  0  0  0  0  0  0  0  0  0  0  0
   -3.2038    3.7219   37.1034 C   0  0  0  0  0  0  0  0  0  0  0  0
   -3.3763    4.3097   38.3263 C   0  0  0  0  0  0  0  0  0  0  0  0
   -4.5630    4.0665   39.0098 C   0  0  0  0  0  0  0  0  0  0  0  0
   -5.5175    3.2669   38.4697 C   0  0  0  0  0  0  0  0  0  0  0  0
   -4.7357    4.6590   40.2416 F   0  0  0  0  0  0  0  0  0  0  0  0
   -3.8637    2.2026   34.9790 Cl  0  0  0  0  0  0  0  0  0  0  0  0
  -16.9406    6.1954   35.1862 C   0  0  0  0  0  0  0  0  0  0  0  0
  -15.6910    6.1298   35.0666 O   0  0  0  0  0  0  0  0  0  0  0  0
  -17.5020    7.4591   35.3683 O   0  0  0  0  0  0  0  0  0  0  0  0
  1  2  1  0
  2  3  1  0
  3  4  1  0
  4  5  2  0
  5  6  1  0
  6  7  2  0
  7  8  1  0
  8  9  2  0
  9 10  1  0
 10 11  1  0
 11 12  1  0
 12 13  1  0
 13 14  1  0
 14 15  2  0
 14 16  1  0
  5 17  1  0
 17 18  1  0
 18 19  2  0
 18 20  1  0
 20 21  2  0
 21 22  1  0
 22 23  2  0
 23 24  1  0
 24 25  2  0
 23 26  1  0
 26 27  1  0
 27 28  1  0
 28 29  1  0
 29 30  1  0
 30 31  1  0
 31 32  2  0
 32 33  1  0
 33 34  2  0
 34 35  1  0
 35 36  2  0
 35 37  1  0
 32 38  1  0
  2 39  1  0
 39 40  2  0
 39 41  1  0
 10  1  1  0
  9  4  1  0
 25 20  1  0
 36 31  1  0
M  END
$$$$
