
     RDKit          3D

 41 44  0  0  0  0  0  0  0  0999 V2000
   -5.0377    0.2641   14.3431 C   0  0  0  0  0  0  0  0  0  0  0  0
   -4.0260   -0.0879   15.4085 C   0  0  0  0  0  0  0  0  0  0  0  0
   -3.2393   -1.1530   14.9504 O   0  0  0  0  0  0  0  0  0  0  0  0
   -3.7004   -2.1228   14.0902 C   0  0  0  0  0  0  0  0  0  0  0  0
   -2.9082   -3.2103   13.7366 C   0  0  0  0  0  0  0  0  0  0  0  0
   -3.3687   -4.1773   12.8768 C   0  0  0  0  0  0  0  0  0  0  0  0
   -4.6628   -4.0732   12.3421 C   0  0  0  0  0  0  0  0  0  0  0  0
   -5.4640   -3.0042   12.6816 C   0  0  0  0  0  0  0  0  0  0  0  0
   -4.9641   -2.0449   13.5531 C   0  0  0  0  0  0  0  0  0  0  0  0
   -5.7689   -0.9192   13.9299 N   0  0  0  0  0  0  0  0  0  0  0  0
   -7.1948   -1.0236   13.8943 C   0  0  0  0  0  0  0  0  0  0  0  0
   -7.9154    0.2537   14.2503 C   0  0  0  0  0  0  0  0  0  0  0  0
   -7.6048    1.3129   13.2002 C   0  0  0  0  0  0  0  0  0  0  0  0
   -8.4390    2.4917   13.4308 C   0  0  0  0  0  0  0  0  0  0  0  0
   -8.5253    3.3709   12.5336 O   0  0  0  0  0  0  0  0  0  0  0  0
   -9.1327    2.6365   14.6318 O   0  0  0  0  0  0  0  0  0  0  0  0
   -1.6070   -3.3362   14.3011 N   0  0  0  0  0  0  0  0  0  0  0  0
   -0.7132   -4.3468   13.8115 C   0  0  0  0  0  0  0  0  0  0  0  0
   -1.2121   -5.4852   13.6546 O   0  0  0  0  0  0  0  0  0  0  0  0
    0.6815   -4.1317   13.5000 C   0  0  0  0  0  0  0  0  0  0  0  0
    1.4203   -5.2033   13.0638 C   0  0  0  0  0  0  0  0  0  0  0  0
    2.7635   -5.0820   12.7519 C   0  0  0  0  0  0  0  0  0  0  0  0
    3.4416   -3.8910   12.8560 C   0  0  0  0  0  0  0  0  0  0  0  0
    2.6501   -2.8103   13.3082 C   0  0  0  0  0  0  0  0  0  0  0  0
    1.3276   -2.9214   13.6178 C   0  0  0  0  0  0  0  0  0  0  0  0
    4.7638   -3.6748   12.5645 O   0  0  0  0  0  0  0  0  0  0  0  0
    5.7348   -4.6505   12.4689 C   0  0  0  0  0  0  0  0  0  0  0  0
    7.0532   -4.2537   11.9051 C   0  0  0  0  0  0  0  0  0  0  0  0
    7.2913   -5.1458   10.6389 C   0  0  0  0  0  0  0  0  0  0  0  0
    6.9412   -4.3146    9.4700 C   0  0  0  0  0  0  0  0  0  0  0  0
    7.6794   -3.0683    9.2594 C   0  0  0  0  0  0  0  0  0  0  0  0
    7.1373   -1.8114    9.2845 C   0  0  0  0  0  0  0  0  0  0  0  0
    7.9068   -0.6498    9.0742 C   0  0  0  0  0  0  0  0  0  0  0  0
    9.2498   -0.7443    8.8335 C   0  0  0  0  0  0  0  0  0  0  0  0
    9.8234   -2.0110    8.8027 C   0  0  0  0  0  0  0  0  0  0  0  0
    9.0631   -3.1166    9.0075 C   0  0  0  0  0  0  0  0  0  0  0  0
   11.1763   -2.1052    8.5601 F   0  0  0  0  0  0  0  0  0  0  0  0
    5.4206   -1.5515    9.5870 Cl  0  0  0  0  0  0  0  0  0  0  0  0
   -4.7762   -0.4851   16.6360 C   0  0  0  0  0  0  0  0  0  0  0  0
   -4.6184   -1.6317   17.1262 O   0  0  0  0  0  0  0  0  0  0  0  0
   -5.6674    0.3716   17.2820 O   0  0  0  0  0  0  0  0  0  0  0  0
  1  2  1  0
  2  3  1  0
  3  4  1  0
  4  5  2  0
  5  6  1  0
  6  7  2  0
  7  8  1  0
  8  9  2  0
  9 10  1  0
 10 11  1  0
 11 12  1  0
 12 13  1  0
 13 14  1  0
 14 15  2  0
 14 16  1  0
  5 17  1  0
 17 18  1  0
 18 19  2  0
 18 20  1  0
 20 21  2  0
 21 22  1  0
 22 23  2  0
 23 24  1  0
 24 25  2  0
 23 26  1  0
 26 27  1  0
 27 28  1  0
 28 29  1  0
 29 30  1  0
 30 31  1  0
 31 32  2  0
 32 33  1  0
 33 34  2  0
 34 35  1  0
 35 36  2  0
 35 37  1  0
 32 38  1  0
  2 39  1  0
 39 40  2  0
 39 41  1  0
 10  1  1  0
  9  4  1  0
 25 20  1  0
 36 31  1  0
M  END
$$$$
