
     RDKit          3D

 41 44  0  0  0  0  0  0  0  0999 V2000
   -2.5755    1.0082   20.0891 C   0  0  0  0  0  0  0  0  0  0  0  0
   -2.1490   -0.4411   20.1015 C   0  0  0  0  0  0  0  0  0  0  0  0
   -2.4395   -1.0084   18.8537 O   0  0  0  0  0  0  0  0  0  0  0  0
   -3.4907   -0.6058   18.0625 C   0  0  0  0  0  0  0  0  0  0  0  0
   -3.7920   -1.2618   16.8734 C   0  0  0  0  0  0  0  0  0  0  0  0
   -4.8408   -0.8585   16.0834 C   0  0  0  0  0  0  0  0  0  0  0  0
   -5.6283    0.2348   16.4781 C   0  0  0  0  0  0  0  0  0  0  0  0
   -5.3470    0.8970   17.6539 C   0  0  0  0  0  0  0  0  0  0  0  0
   -4.2778    0.4616   18.4265 C   0  0  0  0  0  0  0  0  0  0  0  0
   -3.9556    1.1253   19.6565 N   0  0  0  0  0  0  0  0  0  0  0  0
   -4.9758    1.8273   20.3716 C   0  0  0  0  0  0  0  0  0  0  0  0
   -4.5590    3.1940   20.8572 C   0  0  0  0  0  0  0  0  0  0  0  0
   -5.1324    4.2531   19.9241 C   0  0  0  0  0  0  0  0  0  0  0  0
   -4.1902    4.5096   18.8354 C   0  0  0  0  0  0  0  0  0  0  0  0
   -4.4686    5.3831   17.9724 O   0  0  0  0  0  0  0  0  0  0  0  0
   -2.9956    3.7946   18.7582 O   0  0  0  0  0  0  0  0  0  0  0  0
   -3.0156   -2.3906   16.4852 N   0  0  0  0  0  0  0  0  0  0  0  0
   -2.7774   -2.6461   15.0932 C   0  0  0  0  0  0  0  0  0  0  0  0
   -3.6834   -2.2795   14.3095 O   0  0  0  0  0  0  0  0  0  0  0  0
   -1.5917   -3.2804   14.5636 C   0  0  0  0  0  0  0  0  0  0  0  0
   -0.6542   -3.7453   15.4521 C   0  0  0  0  0  0  0  0  0  0  0  0
    0.5114   -4.3580   15.0253 C   0  0  0  0  0  0  0  0  0  0  0  0
    0.8056   -4.5415   13.6954 C   0  0  0  0  0  0  0  0  0  0  0  0
   -0.1811   -4.0504   12.8098 C   0  0  0  0  0  0  0  0  0  0  0  0
   -1.3309   -3.4457   13.2216 C   0  0  0  0  0  0  0  0  0  0  0  0
    1.9265   -5.1405   13.1810 O   0  0  0  0  0  0  0  0  0  0  0  0
    2.2151   -5.2860   11.8395 C   0  0  0  0  0  0  0  0  0  0  0  0
    3.6266   -5.5748   11.4686 C   0  0  0  0  0  0  0  0  0  0  0  0
    4.3524   -4.1920   11.3379 C   0  0  0  0  0  0  0  0  0  0  0  0
    5.7562   -4.4880   10.9893 C   0  0  0  0  0  0  0  0  0  0  0  0
    6.6535   -3.3651   10.7126 C   0  0  0  0  0  0  0  0  0  0  0  0
    7.3233   -2.6337   11.6563 C   0  0  0  0  0  0  0  0  0  0  0  0
    8.1753   -1.5626   11.3210 C   0  0  0  0  0  0  0  0  0  0  0  0
    8.3640   -1.2128   10.0123 C   0  0  0  0  0  0  0  0  0  0  0  0
    7.6936   -1.9410    9.0353 C   0  0  0  0  0  0  0  0  0  0  0  0
    6.8773   -2.9689    9.3809 C   0  0  0  0  0  0  0  0  0  0  0  0
    7.8842   -1.5878    7.7173 F   0  0  0  0  0  0  0  0  0  0  0  0
    7.1694   -2.9835   13.3768 Cl  0  0  0  0  0  0  0  0  0  0  0  0
   -2.9160   -1.1326   21.1791 C   0  0  0  0  0  0  0  0  0  0  0  0
   -3.4168   -0.4674   22.1207 O   0  0  0  0  0  0  0  0  0  0  0  0
   -3.1085   -2.5139   21.1961 O   0  0  0  0  0  0  0  0  0  0  0  0
  1  2  1  0
  2  3  1  0
  3  4  1  0
  4  5  2  0
  5  6  1  0
  6  7  2  0
  7  8  1  0
  8  9  2  0
  9 10  1  0
 10 11  1  0
 11 12  1  0
 12 13  1  0
 13 14  1  0
 14 15  2  0
 14 16  1  0
  5 17  1  0
 17 18  1  0
 18 19  2  0
 18 20  1  0
 20 21  2  0
 21 22  1  0
 22 23  2  0
 23 24  1  0
 24 25  2  0
 23 26  1  0
 26 27  1  0
 27 28  1  0
 28 29  1  0
 29 30  1  0
 30 31  1  0
 31 32  2  0
 32 33  1  0
 33 34  2  0
 34 35  1  0
 35 36  2  0
 35 37  1  0
 32 38  1  0
  2 39  1  0
 39 40  2  0
 39 41  1  0
 10  1  1  0
  9  4  1  0
 25 20  1  0
 36 31  1  0
M  END
$$$$
