
     RDKit          3D

 41 44  0  0  0  0  0  0  0  0999 V2000
117264.7969-52723.4531-143090.5156 C   0  0  0  0  0  0  0  0  0  0  0  0
117263.8672-52723.7266-143089.4219 C   0  0  0  0  0  0  0  0  0  0  0  0
117264.4922-52724.4688-143088.4219 O   0  0  0  0  0  0  0  0  0  0  0  0
117265.5156-52725.3633-143088.6719 C   0  0  0  0  0  0  0  0  0  0  0  0
117266.0859-52726.1953-143087.7031 C   0  0  0  0  0  0  0  0  0  0  0  0
117267.0938-52727.0703-143087.9531 C   0  0  0  0  0  0  0  0  0  0  0  0
117267.5859-52727.1680-143089.2812 C   0  0  0  0  0  0  0  0  0  0  0  0
117267.0391-52726.3789-143090.3281 C   0  0  0  0  0  0  0  0  0  0  0  0
117266.0234-52725.4844-143090.0000 C   0  0  0  0  0  0  0  0  0  0  0  0
117265.4375-52724.6641-143090.9531 N   0  0  0  0  0  0  0  0  0  0  0  0
117265.4766-52725.0586-143092.3438 C   0  0  0  0  0  0  0  0  0  0  0  0
117264.1562-52725.6484-143092.8594 C   0  0  0  0  0  0  0  0  0  0  0  0
117264.2891-52725.9219-143094.3438 C   0  0  0  0  0  0  0  0  0  0  0  0
117265.5000-52725.3086-143094.8750 C   0  0  0  0  0  0  0  0  0  0  0  0
117266.5859-52725.9648-143094.8594 O   0  0  0  0  0  0  0  0  0  0  0  0
117265.5156-52723.9766-143095.4062 O   0  0  0  0  0  0  0  0  0  0  0  0
117265.5547-52726.1055-143086.3750 N   0  0  0  0  0  0  0  0  0  0  0  0
117266.4219-52726.1211-143085.2656 C   0  0  0  0  0  0  0  0  0  0  0  0
117267.5391-52726.6484-143085.4375 O   0  0  0  0  0  0  0  0  0  0  0  0
117266.1250-52725.6055-143083.9688 C   0  0  0  0  0  0  0  0  0  0  0  0
117264.8672-52725.0195-143083.7344 C   0  0  0  0  0  0  0  0  0  0  0  0
117264.5312-52724.4766-143082.5156 C   0  0  0  0  0  0  0  0  0  0  0  0
117265.3672-52724.5508-143081.4219 C   0  0  0  0  0  0  0  0  0  0  0  0
117266.6250-52725.1523-143081.7031 C   0  0  0  0  0  0  0  0  0  0  0  0
117266.9922-52725.6680-143082.8906 C   0  0  0  0  0  0  0  0  0  0  0  0
117265.0859-52724.0547-143080.1719 O   0  0  0  0  0  0  0  0  0  0  0  0
117263.8281-52723.7109-143079.6875 C   0  0  0  0  0  0  0  0  0  0  0  0
117263.3203-52724.4805-143078.5156 C   0  0  0  0  0  0  0  0  0  0  0  0
117264.5703-52725.1172-143077.8125 C   0  0  0  0  0  0  0  0  0  0  0  0
117264.1875-52725.4023-143076.4531 C   0  0  0  0  0  0  0  0  0  0  0  0
117263.1641-52726.4531-143076.2344 C   0  0  0  0  0  0  0  0  0  0  0  0
117262.2109-52726.4453-143075.2500 C   0  0  0  0  0  0  0  0  0  0  0  0
117261.2656-52727.4766-143075.0469 C   0  0  0  0  0  0  0  0  0  0  0  0
117261.2031-52728.5078-143075.8906 C   0  0  0  0  0  0  0  0  0  0  0  0
117262.1562-52728.5664-143076.9688 C   0  0  0  0  0  0  0  0  0  0  0  0
117263.0703-52727.5117-143077.1094 C   0  0  0  0  0  0  0  0  0  0  0  0
117262.1406-52729.6055-143077.8125 F   0  0  0  0  0  0  0  0  0  0  0  0
117262.1875-52725.1133-143074.0156 Cl  0  0  0  0  0  0  0  0  0  0  0  0
117262.6641-52724.4883-143089.9375 C   0  0  0  0  0  0  0  0  0  0  0  0
117262.1016-52724.0078-143090.9844 O   0  0  0  0  0  0  0  0  0  0  0  0
117262.2031-52725.6797-143089.4219 O   0  0  0  0  0  0  0  0  0  0  0  0
  1  2  1  0
  2  3  1  0
  3  4  1  0
  4  5  2  0
  5  6  1  0
  6  7  2  0
  7  8  1  0
  8  9  2  0
  9 10  1  0
 10 11  1  0
 11 12  1  0
 12 13  1  0
 13 14  1  0
 14 15  2  0
 14 16  1  0
  5 17  1  0
 17 18  1  0
 18 19  2  0
 18 20  1  0
 20 21  2  0
 21 22  1  0
 22 23  2  0
 23 24  1  0
 24 25  2  0
 23 26  1  0
 26 27  1  0
 27 28  1  0
 28 29  1  0
 29 30  1  0
 30 31  1  0
 31 32  2  0
 32 33  1  0
 33 34  2  0
 34 35  1  0
 35 36  2  0
 35 37  1  0
 32 38  1  0
  2 39  1  0
 39 40  2  0
 39 41  1  0
 10  1  1  0
  9  4  1  0
 25 20  1  0
 36 31  1  0
M  END
$$$$
