
     RDKit          3D

 41 44  0  0  0  0  0  0  0  0999 V2000
    1.8131   -7.9121   16.9670 C   0  0  0  0  0  0  0  0  0  0  0  0
    1.2764   -6.5652   16.5425 C   0  0  0  0  0  0  0  0  0  0  0  0
    1.9622   -6.1467   15.3945 O   0  0  0  0  0  0  0  0  0  0  0  0
    3.2683   -6.4847   15.1246 C   0  0  0  0  0  0  0  0  0  0  0  0
    3.9334   -5.9693   14.0168 C   0  0  0  0  0  0  0  0  0  0  0  0
    5.2369   -6.3082   13.7473 C   0  0  0  0  0  0  0  0  0  0  0  0
    5.9172   -7.1897   14.6025 C   0  0  0  0  0  0  0  0  0  0  0  0
    5.2763   -7.7097   15.7065 C   0  0  0  0  0  0  0  0  0  0  0  0
    3.9575   -7.3454   15.9467 C   0  0  0  0  0  0  0  0  0  0  0  0
    3.2585   -7.8656   17.0859 N   0  0  0  0  0  0  0  0  0  0  0  0
    3.9939   -8.2806   18.2400 C   0  0  0  0  0  0  0  0  0  0  0  0
    4.3811   -9.7392   18.2326 C   0  0  0  0  0  0  0  0  0  0  0  0
    3.6267  -10.4516   17.1171 C   0  0  0  0  0  0  0  0  0  0  0  0
    3.9604  -11.8754   17.1308 C   0  0  0  0  0  0  0  0  0  0  0  0
    3.6390  -12.5742   18.1276 O   0  0  0  0  0  0  0  0  0  0  0  0
    4.6252  -12.4508   16.0485 O   0  0  0  0  0  0  0  0  0  0  0  0
    3.2573   -5.0506   13.1645 N   0  0  0  0  0  0  0  0  0  0  0  0
    4.0149   -4.1189   12.3785 C   0  0  0  0  0  0  0  0  0  0  0  0
    5.2458   -4.3411   12.3072 O   0  0  0  0  0  0  0  0  0  0  0  0
    3.4564   -2.9784   11.6885 C   0  0  0  0  0  0  0  0  0  0  0  0
    2.1776   -2.5925   12.0052 C   0  0  0  0  0  0  0  0  0  0  0  0
    1.5682   -1.5155   11.3848 C   0  0  0  0  0  0  0  0  0  0  0  0
    2.1970   -0.7662   10.4193 C   0  0  0  0  0  0  0  0  0  0  0  0
    3.5111   -1.1923   10.1184 C   0  0  0  0  0  0  0  0  0  0  0  0
    4.1181   -2.2516   10.7241 C   0  0  0  0  0  0  0  0  0  0  0  0
    1.6778    0.3164    9.7574 O   0  0  0  0  0  0  0  0  0  0  0  0
    2.1331    0.8162    8.5545 C   0  0  0  0  0  0  0  0  0  0  0  0
    1.4210    1.9923    7.9863 C   0  0  0  0  0  0  0  0  0  0  0  0
    2.3564    3.2322    8.1945 C   0  0  0  0  0  0  0  0  0  0  0  0
    1.8611    3.9326    9.3961 C   0  0  0  0  0  0  0  0  0  0  0  0
    2.6469    3.8378   10.6273 C   0  0  0  0  0  0  0  0  0  0  0  0
    2.3587    3.0269   11.6920 C   0  0  0  0  0  0  0  0  0  0  0  0
    3.1601    2.9830   12.8502 C   0  0  0  0  0  0  0  0  0  0  0  0
    4.2765    3.7669   12.9486 C   0  0  0  0  0  0  0  0  0  0  0  0
    4.5897    4.5998   11.8796 C   0  0  0  0  0  0  0  0  0  0  0  0
    3.8033    4.6264   10.7736 C   0  0  0  0  0  0  0  0  0  0  0  0
    5.7145    5.3892   11.9798 F   0  0  0  0  0  0  0  0  0  0  0  0
    0.9514    1.9659   11.6907 Cl  0  0  0  0  0  0  0  0  0  0  0  0
    1.5071   -5.6084   17.6645 C   0  0  0  0  0  0  0  0  0  0  0  0
    2.0911   -4.5162   17.4498 O   0  0  0  0  0  0  0  0  0  0  0  0
    1.0997   -5.8717   18.9722 O   0  0  0  0  0  0  0  0  0  0  0  0
  1  2  1  0
  2  3  1  0
  3  4  1  0
  4  5  2  0
  5  6  1  0
  6  7  2  0
  7  8  1  0
  8  9  2  0
  9 10  1  0
 10 11  1  0
 11 12  1  0
 12 13  1  0
 13 14  1  0
 14 15  2  0
 14 16  1  0
  5 17  1  0
 17 18  1  0
 18 19  2  0
 18 20  1  0
 20 21  2  0
 21 22  1  0
 22 23  2  0
 23 24  1  0
 24 25  2  0
 23 26  1  0
 26 27  1  0
 27 28  1  0
 28 29  1  0
 29 30  1  0
 30 31  1  0
 31 32  2  0
 32 33  1  0
 33 34  2  0
 34 35  1  0
 35 36  2  0
 35 37  1  0
 32 38  1  0
  2 39  1  0
 39 40  2  0
 39 41  1  0
 10  1  1  0
  9  4  1  0
 25 20  1  0
 36 31  1  0
M  END
$$$$
