
     RDKit          3D

 41 44  0  0  0  0  0  0  0  0999 V2000
   -0.1408    7.9490   34.7715 C   0  0  0  0  0  0  0  0  0  0  0  0
   -1.4038    7.1940   35.1140 C   0  0  0  0  0  0  0  0  0  0  0  0
   -2.4668    7.7338   34.3777 O   0  0  0  0  0  0  0  0  0  0  0  0
   -2.5344    9.0546   33.9983 C   0  0  0  0  0  0  0  0  0  0  0  0
   -3.6539    9.5623   33.3469 C   0  0  0  0  0  0  0  0  0  0  0  0
   -3.7201   10.8806   32.9673 C   0  0  0  0  0  0  0  0  0  0  0  0
   -2.6420   11.7377   33.2397 C   0  0  0  0  0  0  0  0  0  0  0  0
   -1.5244   11.2543   33.8858 C   0  0  0  0  0  0  0  0  0  0  0  0
   -1.4925    9.9151   34.2538 C   0  0  0  0  0  0  0  0  0  0  0  0
   -0.3471    9.3767   34.9284 N   0  0  0  0  0  0  0  0  0  0  0  0
    0.4902   10.2396   35.7027 C   0  0  0  0  0  0  0  0  0  0  0  0
    1.7888   10.6070   35.0275 C   0  0  0  0  0  0  0  0  0  0  0  0
    1.4884   11.4061   33.7657 C   0  0  0  0  0  0  0  0  0  0  0  0
    1.6971   10.5624   32.5895 C   0  0  0  0  0  0  0  0  0  0  0  0
    1.2048    9.4037   32.5669 O   0  0  0  0  0  0  0  0  0  0  0  0
    2.4316   11.0399   31.5047 O   0  0  0  0  0  0  0  0  0  0  0  0
   -4.7623    8.7042   33.0968 N   0  0  0  0  0  0  0  0  0  0  0  0
   -4.8273    7.4206   33.7356 C   0  0  0  0  0  0  0  0  0  0  0  0
   -3.7291    6.8447   33.9136 O   0  0  0  0  0  0  0  0  0  0  0  0
   -6.0467    6.7781   34.1702 C   0  0  0  0  0  0  0  0  0  0  0  0
   -7.1135    7.5737   34.5070 C   0  0  0  0  0  0  0  0  0  0  0  0
   -8.3137    7.0363   34.9394 C   0  0  0  0  0  0  0  0  0  0  0  0
   -8.5166    5.6822   35.0587 C   0  0  0  0  0  0  0  0  0  0  0  0
   -7.3975    4.8943   34.7043 C   0  0  0  0  0  0  0  0  0  0  0  0
   -6.2124    5.4153   34.2782 C   0  0  0  0  0  0  0  0  0  0  0  0
   -9.6676    5.0611   35.4703 O   0  0  0  0  0  0  0  0  0  0  0  0
  -10.7424    5.6809   36.0744 C   0  0  0  0  0  0  0  0  0  0  0  0
  -11.4720    4.9201   37.1243 C   0  0  0  0  0  0  0  0  0  0  0  0
  -12.9002    4.6178   36.5544 C   0  0  0  0  0  0  0  0  0  0  0  0
  -13.8611    5.0126   37.6034 C   0  0  0  0  0  0  0  0  0  0  0  0
  -15.2059    5.4206   37.1939 C   0  0  0  0  0  0  0  0  0  0  0  0
  -16.2877    5.5350   38.0250 C   0  0  0  0  0  0  0  0  0  0  0  0
  -17.5581    5.9351   37.5649 C   0  0  0  0  0  0  0  0  0  0  0  0
  -17.7538    6.2287   36.2435 C   0  0  0  0  0  0  0  0  0  0  0  0
  -16.6695    6.1193   35.3794 C   0  0  0  0  0  0  0  0  0  0  0  0
  -15.4546    5.7317   35.8442 C   0  0  0  0  0  0  0  0  0  0  0  0
  -16.8678    6.4152   34.0484 F   0  0  0  0  0  0  0  0  0  0  0  0
  -16.1689    5.1891   39.7491 Cl  0  0  0  0  0  0  0  0  0  0  0  0
   -1.6489    7.3560   36.5773 C   0  0  0  0  0  0  0  0  0  0  0  0
   -2.4549    8.2292   36.9872 O   0  0  0  0  0  0  0  0  0  0  0  0
   -1.0120    6.5698   37.5373 O   0  0  0  0  0  0  0  0  0  0  0  0
  1  2  1  0
  2  3  1  0
  3  4  1  0
  4  5  2  0
  5  6  1  0
  6  7  2  0
  7  8  1  0
  8  9  2  0
  9 10  1  0
 10 11  1  0
 11 12  1  0
 12 13  1  0
 13 14  1  0
 14 15  2  0
 14 16  1  0
  5 17  1  0
 17 18  1  0
 18 19  2  0
 18 20  1  0
 20 21  2  0
 21 22  1  0
 22 23  2  0
 23 24  1  0
 24 25  2  0
 23 26  1  0
 26 27  1  0
 27 28  1  0
 28 29  1  0
 29 30  1  0
 30 31  1  0
 31 32  2  0
 32 33  1  0
 33 34  2  0
 34 35  1  0
 35 36  2  0
 35 37  1  0
 32 38  1  0
  2 39  1  0
 39 40  2  0
 39 41  1  0
 10  1  1  0
  9  4  1  0
 25 20  1  0
 36 31  1  0
M  END
$$$$
