
     RDKit          3D

 41 44  0  0  0  0  0  0  0  0999 V2000
    4.3198   -4.6013   16.4330 C   0  0  0  0  0  0  0  0  0  0  0  0
    4.8042   -4.0544   15.1106 C   0  0  0  0  0  0  0  0  0  0  0  0
    3.7096   -3.9297   14.2448 O   0  0  0  0  0  0  0  0  0  0  0  0
    2.6090   -4.7542   14.2884 C   0  0  0  0  0  0  0  0  0  0  0  0
    1.5891   -4.6474   13.3482 C   0  0  0  0  0  0  0  0  0  0  0  0
    0.4901   -5.4700   13.3931 C   0  0  0  0  0  0  0  0  0  0  0  0
    0.3882   -6.4398   14.4032 C   0  0  0  0  0  0  0  0  0  0  0  0
    1.3891   -6.5627   15.3430 C   0  0  0  0  0  0  0  0  0  0  0  0
    2.4851   -5.7126   15.2668 C   0  0  0  0  0  0  0  0  0  0  0  0
    3.5463   -5.8116   16.2265 N   0  0  0  0  0  0  0  0  0  0  0  0
    3.7865   -7.0542   16.8923 C   0  0  0  0  0  0  0  0  0  0  0  0
    5.1936   -7.5762   16.7345 C   0  0  0  0  0  0  0  0  0  0  0  0
    5.2001   -8.6923   15.6975 C   0  0  0  0  0  0  0  0  0  0  0  0
    6.5055   -9.3516   15.6946 C   0  0  0  0  0  0  0  0  0  0  0  0
    7.5230   -8.7057   16.0590 O   0  0  0  0  0  0  0  0  0  0  0  0
    6.6186  -10.6825   15.2944 O   0  0  0  0  0  0  0  0  0  0  0  0
    1.7034   -3.6864   12.3037 N   0  0  0  0  0  0  0  0  0  0  0  0
    0.5387   -2.9737   11.8615 C   0  0  0  0  0  0  0  0  0  0  0  0
   -0.5253   -3.2407   12.4665 O   0  0  0  0  0  0  0  0  0  0  0  0
    0.5256   -1.9990   10.7945 C   0  0  0  0  0  0  0  0  0  0  0  0
   -0.6643   -1.3842   10.4936 C   0  0  0  0  0  0  0  0  0  0  0  0
   -0.7621   -0.4451    9.4813 C   0  0  0  0  0  0  0  0  0  0  0  0
    0.3159   -0.0676    8.7169 C   0  0  0  0  0  0  0  0  0  0  0  0
    1.5236   -0.7208    9.0542 C   0  0  0  0  0  0  0  0  0  0  0  0
    1.6283   -1.6467   10.0487 C   0  0  0  0  0  0  0  0  0  0  0  0
    0.3159    0.8545    7.7023 O   0  0  0  0  0  0  0  0  0  0  0  0
    0.3744    2.2240    7.8619 C   0  0  0  0  0  0  0  0  0  0  0  0
    0.9712    3.0190    6.7551 C   0  0  0  0  0  0  0  0  0  0  0  0
    2.4659    2.5659    6.6269 C   0  0  0  0  0  0  0  0  0  0  0  0
    3.2402    3.7731    6.2766 C   0  0  0  0  0  0  0  0  0  0  0  0
    4.6982    3.6649    6.2035 C   0  0  0  0  0  0  0  0  0  0  0  0
    5.5456    3.6266    7.2780 C   0  0  0  0  0  0  0  0  0  0  0  0
    6.9437    3.5201    7.1373 C   0  0  0  0  0  0  0  0  0  0  0  0
    7.5100    3.4497    5.8943 C   0  0  0  0  0  0  0  0  0  0  0  0
    6.6692    3.4872    4.7870 C   0  0  0  0  0  0  0  0  0  0  0  0
    5.3252    3.5906    4.9458 C   0  0  0  0  0  0  0  0  0  0  0  0
    7.2408    3.4163    3.5354 F   0  0  0  0  0  0  0  0  0  0  0  0
    4.9438    3.7060    8.9325 Cl  0  0  0  0  0  0  0  0  0  0  0  0
    5.7995   -5.0184   14.5558 C   0  0  0  0  0  0  0  0  0  0  0  0
    5.7004   -5.4095   13.3654 O   0  0  0  0  0  0  0  0  0  0  0  0
    6.8592   -5.5217   15.3103 O   0  0  0  0  0  0  0  0  0  0  0  0
  1  2  1  0
  2  3  1  0
  3  4  1  0
  4  5  2  0
  5  6  1  0
  6  7  2  0
  7  8  1  0
  8  9  2  0
  9 10  1  0
 10 11  1  0
 11 12  1  0
 12 13  1  0
 13 14  1  0
 14 15  2  0
 14 16  1  0
  5 17  1  0
 17 18  1  0
 18 19  2  0
 18 20  1  0
 20 21  2  0
 21 22  1  0
 22 23  2  0
 23 24  1  0
 24 25  2  0
 23 26  1  0
 26 27  1  0
 27 28  1  0
 28 29  1  0
 29 30  1  0
 30 31  1  0
 31 32  2  0
 32 33  1  0
 33 34  2  0
 34 35  1  0
 35 36  2  0
 35 37  1  0
 32 38  1  0
  2 39  1  0
 39 40  2  0
 39 41  1  0
 10  1  1  0
  9  4  1  0
 25 20  1  0
 36 31  1  0
M  END
$$$$
