
     RDKit          3D

 26 28  0  0  0  0  0  0  0  0999 V2000
    0.5064    2.1227   12.2889 C   0  0  0  0  0  0  0  0  0  0  0  0
   -0.7680    2.7466   11.7919 C   0  0  0  0  0  0  0  0  0  0  0  0
   -0.5784    3.3919   10.5645 N   0  0  0  0  0  0  0  0  0  0  0  0
    0.6366    4.0332   10.2729 C   0  0  0  0  0  0  0  0  0  0  0  0
    1.4931    4.2872   11.4795 C   0  0  0  0  0  0  0  0  0  0  0  0
    1.6676    3.0435   12.3245 C   0  0  0  0  0  0  0  0  0  0  0  0
    2.0224    3.5188   13.6829 C   0  0  0  0  0  0  0  0  0  0  0  0
    1.9747    4.8356   14.0675 C   0  0  0  0  0  0  0  0  0  0  0  0
    2.3400    5.2421   15.3527 C   0  0  0  0  0  0  0  0  0  0  0  0
    2.7624    4.3236   16.2833 C   0  0  0  0  0  0  0  0  0  0  0  0
    2.8158    2.9894   15.9123 C   0  0  0  0  0  0  0  0  0  0  0  0
    2.4569    2.6099   14.6547 C   0  0  0  0  0  0  0  0  0  0  0  0
    3.2338    4.8087   17.9110 Cl  0  0  0  0  0  0  0  0  0  0  0  0
    2.8213    2.3946   11.8020 O   0  0  0  0  0  0  0  0  0  0  0  0
   -1.3449    2.9588    9.4399 C   0  0  0  0  0  0  0  0  0  0  0  0
   -0.5903    1.8520    8.7555 C   0  0  0  0  0  0  0  0  0  0  0  0
   -1.4261    0.9712    7.8839 C   0  0  0  0  0  0  0  0  0  0  0  0
   -0.6796    0.0974    6.9823 C   0  0  0  0  0  0  0  0  0  0  0  0
    0.5734    0.0910    6.9982 O   0  0  0  0  0  0  0  0  0  0  0  0
   -1.3796   -0.7764    6.0541 C   0  0  0  0  0  0  0  0  0  0  0  0
   -2.6860   -1.1581    6.2602 C   0  0  0  0  0  0  0  0  0  0  0  0
   -3.3669   -1.9850    5.3686 C   0  0  0  0  0  0  0  0  0  0  0  0
   -2.7325   -2.4497    4.2355 C   0  0  0  0  0  0  0  0  0  0  0  0
   -1.4244   -2.0674    4.0309 C   0  0  0  0  0  0  0  0  0  0  0  0
   -0.7514   -1.2482    4.9137 C   0  0  0  0  0  0  0  0  0  0  0  0
   -3.3832   -3.2645    3.3420 F   0  0  0  0  0  0  0  0  0  0  0  0
  1  2  1  0
  2  3  1  0
  3  4  1  0
  4  5  1  0
  5  6  1  0
  6  7  1  0
  7  8  2  0
  8  9  1  0
  9 10  2  0
 10 11  1  0
 11 12  2  0
 10 13  1  0
  6 14  1  0
  3 15  1  0
 15 16  1  0
 16 17  1  0
 17 18  1  0
 18 19  2  0
 18 20  1  0
 20 21  2  0
 21 22  1  0
 22 23  2  0
 23 24  1  0
 24 25  2  0
 23 26  1  0
  6  1  1  0
 12  7  1  0
 25 20  1  0
M  END
$$$$
