
     RDKit          3D

 26 28  0  0  0  0  0  0  0  0999 V2000
    2.0844    3.3798   11.5594 C   0  0  0  0  0  0  0  0  0  0  0  0
    0.7875    2.6263   11.4568 C   0  0  0  0  0  0  0  0  0  0  0  0
   -0.2573    3.4584   11.0385 N   0  0  0  0  0  0  0  0  0  0  0  0
   -0.2980    4.8073   11.4278 C   0  0  0  0  0  0  0  0  0  0  0  0
    0.6035    5.1324   12.5834 C   0  0  0  0  0  0  0  0  0  0  0  0
    2.0115    4.6205   12.3674 C   0  0  0  0  0  0  0  0  0  0  0  0
    2.6146    4.5014   13.7162 C   0  0  0  0  0  0  0  0  0  0  0  0
    3.9471    4.7027   13.9770 C   0  0  0  0  0  0  0  0  0  0  0  0
    4.4773    4.5576   15.2607 C   0  0  0  0  0  0  0  0  0  0  0  0
    3.6698    4.2057   16.3154 C   0  0  0  0  0  0  0  0  0  0  0  0
    2.3216    3.9996   16.0704 C   0  0  0  0  0  0  0  0  0  0  0  0
    1.8207    4.1443   14.8123 C   0  0  0  0  0  0  0  0  0  0  0  0
    4.3126    4.0111   17.9451 Cl  0  0  0  0  0  0  0  0  0  0  0  0
    2.6961    5.6765   11.7032 O   0  0  0  0  0  0  0  0  0  0  0  0
   -0.9483    3.1325    9.8318 C   0  0  0  0  0  0  0  0  0  0  0  0
   -0.1214    2.1308    9.0731 C   0  0  0  0  0  0  0  0  0  0  0  0
   -0.8391    1.4464    7.9548 C   0  0  0  0  0  0  0  0  0  0  0  0
   -0.9265   -0.0073    8.0676 C   0  0  0  0  0  0  0  0  0  0  0  0
   -0.4626   -0.5947    9.0726 O   0  0  0  0  0  0  0  0  0  0  0  0
   -1.5524   -0.7928    7.0157 C   0  0  0  0  0  0  0  0  0  0  0  0
   -2.3325   -0.2119    6.0416 C   0  0  0  0  0  0  0  0  0  0  0  0
   -2.9250   -0.9567    5.0236 C   0  0  0  0  0  0  0  0  0  0  0  0
   -2.7391   -2.3222    4.9688 C   0  0  0  0  0  0  0  0  0  0  0  0
   -1.9585   -2.9025    5.9451 C   0  0  0  0  0  0  0  0  0  0  0  0
   -1.3717   -2.1643    6.9522 C   0  0  0  0  0  0  0  0  0  0  0  0
   -3.3117   -3.0768    3.9747 F   0  0  0  0  0  0  0  0  0  0  0  0
  1  2  1  0
  2  3  1  0
  3  4  1  0
  4  5  1  0
  5  6  1  0
  6  7  1  0
  7  8  2  0
  8  9  1  0
  9 10  2  0
 10 11  1  0
 11 12  2  0
 10 13  1  0
  6 14  1  0
  3 15  1  0
 15 16  1  0
 16 17  1  0
 17 18  1  0
 18 19  2  0
 18 20  1  0
 20 21  2  0
 21 22  1  0
 22 23  2  0
 23 24  1  0
 24 25  2  0
 23 26  1  0
  6  1  1  0
 12  7  1  0
 25 20  1  0
M  END
$$$$
