
     RDKit          3D

 26 28  0  0  0  0  0  0  0  0999 V2000
   -1.5418    2.1623    8.9363 C   0  0  0  0  0  0  0  0  0  0  0  0
   -0.9394    2.0576   10.3097 C   0  0  0  0  0  0  0  0  0  0  0  0
    0.2743    2.7498   10.3915 N   0  0  0  0  0  0  0  0  0  0  0  0
    1.1390    2.8120    9.2865 C   0  0  0  0  0  0  0  0  0  0  0  0
    0.8396    1.7942    8.2242 C   0  0  0  0  0  0  0  0  0  0  0  0
   -0.6226    1.7943    7.8330 C   0  0  0  0  0  0  0  0  0  0  0  0
   -0.8880    0.4608    7.2427 C   0  0  0  0  0  0  0  0  0  0  0  0
   -1.1300    0.2513    5.9080 C   0  0  0  0  0  0  0  0  0  0  0  0
   -1.3980   -1.0208    5.3979 C   0  0  0  0  0  0  0  0  0  0  0  0
   -1.4264   -2.1156    6.2280 C   0  0  0  0  0  0  0  0  0  0  0  0
   -1.1831   -1.9225    7.5785 C   0  0  0  0  0  0  0  0  0  0  0  0
   -0.9243   -0.6752    8.0598 C   0  0  0  0  0  0  0  0  0  0  0  0
   -1.7663   -3.7319    5.6125 Cl  0  0  0  0  0  0  0  0  0  0  0  0
   -0.7271    2.7400    6.7747 O   0  0  0  0  0  0  0  0  0  0  0  0
    0.3932    3.8095   11.3416 C   0  0  0  0  0  0  0  0  0  0  0  0
    1.6790    3.6192   12.0989 C   0  0  0  0  0  0  0  0  0  0  0  0
    1.5662    2.7594   13.3164 C   0  0  0  0  0  0  0  0  0  0  0  0
    2.0526    3.3644   14.5537 C   0  0  0  0  0  0  0  0  0  0  0  0
    1.4570    4.3452   15.0572 O   0  0  0  0  0  0  0  0  0  0  0  0
    3.2342    2.8374   15.2179 C   0  0  0  0  0  0  0  0  0  0  0  0
    3.7810    3.4504   16.3225 C   0  0  0  0  0  0  0  0  0  0  0  0
    4.9056    2.9441   16.9714 C   0  0  0  0  0  0  0  0  0  0  0  0
    5.5091    1.7927   16.5106 C   0  0  0  0  0  0  0  0  0  0  0  0
    4.9611    1.1805   15.4042 C   0  0  0  0  0  0  0  0  0  0  0  0
    3.8472    1.6820   14.7629 C   0  0  0  0  0  0  0  0  0  0  0  0
    6.6173    1.2743   17.1340 F   0  0  0  0  0  0  0  0  0  0  0  0
  1  2  1  0
  2  3  1  0
  3  4  1  0
  4  5  1  0
  5  6  1  0
  6  7  1  0
  7  8  2  0
  8  9  1  0
  9 10  2  0
 10 11  1  0
 11 12  2  0
 10 13  1  0
  6 14  1  0
  3 15  1  0
 15 16  1  0
 16 17  1  0
 17 18  1  0
 18 19  2  0
 18 20  1  0
 20 21  2  0
 21 22  1  0
 22 23  2  0
 23 24  1  0
 24 25  2  0
 23 26  1  0
  6  1  1  0
 12  7  1  0
 25 20  1  0
M  END
$$$$
