
     RDKit          3D

 26 28  0  0  0  0  0  0  0  0999 V2000
    2.4115    3.3035   11.7828 C   0  0  0  0  0  0  0  0  0  0  0  0
    1.0979    2.5763   11.7052 C   0  0  0  0  0  0  0  0  0  0  0  0
    0.0543    3.4389   11.3504 N   0  0  0  0  0  0  0  0  0  0  0  0
    0.0527    4.7757   11.7810 C   0  0  0  0  0  0  0  0  0  0  0  0
    1.0011    5.0497   12.9121 C   0  0  0  0  0  0  0  0  0  0  0  0
    2.3907    4.5201   12.6295 C   0  0  0  0  0  0  0  0  0  0  0  0
    3.0397    4.3495   13.9511 C   0  0  0  0  0  0  0  0  0  0  0  0
    2.5216    3.5790   14.9621 C   0  0  0  0  0  0  0  0  0  0  0  0
    3.1558    3.4644   16.2010 C   0  0  0  0  0  0  0  0  0  0  0  0
    4.3340    4.1273   16.4477 C   0  0  0  0  0  0  0  0  0  0  0  0
    4.8719    4.9089   15.4377 C   0  0  0  0  0  0  0  0  0  0  0  0
    4.2402    5.0107   14.2356 C   0  0  0  0  0  0  0  0  0  0  0  0
    5.1539    4.0045   18.0032 Cl  0  0  0  0  0  0  0  0  0  0  0  0
    3.0704    5.5838   11.9725 O   0  0  0  0  0  0  0  0  0  0  0  0
   -0.6856    3.1620   10.1606 C   0  0  0  0  0  0  0  0  0  0  0  0
   -0.0840    1.9491    9.5050 C   0  0  0  0  0  0  0  0  0  0  0  0
   -1.0212    1.1823    8.6288 C   0  0  0  0  0  0  0  0  0  0  0  0
   -0.6760   -0.2224    8.4258 C   0  0  0  0  0  0  0  0  0  0  0  0
    0.0777   -0.8136    9.2337 O   0  0  0  0  0  0  0  0  0  0  0  0
   -1.2015   -0.9538    7.2839 C   0  0  0  0  0  0  0  0  0  0  0  0
   -1.0332   -2.3136    7.1521 C   0  0  0  0  0  0  0  0  0  0  0  0
   -1.5447   -3.0228    6.0669 C   0  0  0  0  0  0  0  0  0  0  0  0
   -2.2458   -2.3631    5.0792 C   0  0  0  0  0  0  0  0  0  0  0  0
   -2.4129   -1.0016    5.2121 C   0  0  0  0  0  0  0  0  0  0  0  0
   -1.9067   -0.3004    6.2871 C   0  0  0  0  0  0  0  0  0  0  0  0
   -2.7602   -3.0406    4.0012 F   0  0  0  0  0  0  0  0  0  0  0  0
  1  2  1  0
  2  3  1  0
  3  4  1  0
  4  5  1  0
  5  6  1  0
  6  7  1  0
  7  8  2  0
  8  9  1  0
  9 10  2  0
 10 11  1  0
 11 12  2  0
 10 13  1  0
  6 14  1  0
  3 15  1  0
 15 16  1  0
 16 17  1  0
 17 18  1  0
 18 19  2  0
 18 20  1  0
 20 21  2  0
 21 22  1  0
 22 23  2  0
 23 24  1  0
 24 25  2  0
 23 26  1  0
  6  1  1  0
 12  7  1  0
 25 20  1  0
M  END
$$$$
