
     RDKit          3D

 26 28  0  0  0  0  0  0  0  0999 V2000
    1.5596    3.4269   10.7288 C   0  0  0  0  0  0  0  0  0  0  0  0
    0.3261    3.0597    9.9517 C   0  0  0  0  0  0  0  0  0  0  0  0
   -0.1850    4.1586    9.2515 N   0  0  0  0  0  0  0  0  0  0  0  0
   -0.0944    5.4538    9.7870 C   0  0  0  0  0  0  0  0  0  0  0  0
    0.2143    5.4825   11.2560 C   0  0  0  0  0  0  0  0  0  0  0  0
    1.4036    4.6132   11.6039 C   0  0  0  0  0  0  0  0  0  0  0  0
    1.2662    4.2898   13.0439 C   0  0  0  0  0  0  0  0  0  0  0  0
    0.2742    4.7933   13.8480 C   0  0  0  0  0  0  0  0  0  0  0  0
    0.1958    4.4795   15.2065 C   0  0  0  0  0  0  0  0  0  0  0  0
    1.1210    3.6451   15.7862 C   0  0  0  0  0  0  0  0  0  0  0  0
    2.1289    3.1267   14.9889 C   0  0  0  0  0  0  0  0  0  0  0  0
    2.1916    3.4436   13.6659 C   0  0  0  0  0  0  0  0  0  0  0  0
    1.0492    3.2354   17.4991 Cl  0  0  0  0  0  0  0  0  0  0  0  0
    2.5379    5.4635   11.4803 O   0  0  0  0  0  0  0  0  0  0  0  0
   -0.2899    4.0734    7.8297 C   0  0  0  0  0  0  0  0  0  0  0  0
    0.0506    2.6675    7.4171 C   0  0  0  0  0  0  0  0  0  0  0  0
   -1.1117    1.7286    7.3772 C   0  0  0  0  0  0  0  0  0  0  0  0
   -0.7673    0.3161    7.2362 C   0  0  0  0  0  0  0  0  0  0  0  0
    0.3070   -0.0232    6.6876 O   0  0  0  0  0  0  0  0  0  0  0  0
   -1.6660   -0.7153    7.7298 C   0  0  0  0  0  0  0  0  0  0  0  0
   -1.6387   -1.9999    7.2360 C   0  0  0  0  0  0  0  0  0  0  0  0
   -2.4883   -2.9964    7.7129 C   0  0  0  0  0  0  0  0  0  0  0  0
   -3.3954   -2.7109    8.7119 C   0  0  0  0  0  0  0  0  0  0  0  0
   -3.4220   -1.4242    9.2049 C   0  0  0  0  0  0  0  0  0  0  0  0
   -2.5801   -0.4385    8.7325 C   0  0  0  0  0  0  0  0  0  0  0  0
   -4.2417   -3.6764    9.1987 F   0  0  0  0  0  0  0  0  0  0  0  0
  1  2  1  0
  2  3  1  0
  3  4  1  0
  4  5  1  0
  5  6  1  0
  6  7  1  0
  7  8  2  0
  8  9  1  0
  9 10  2  0
 10 11  1  0
 11 12  2  0
 10 13  1  0
  6 14  1  0
  3 15  1  0
 15 16  1  0
 16 17  1  0
 17 18  1  0
 18 19  2  0
 18 20  1  0
 20 21  2  0
 21 22  1  0
 22 23  2  0
 23 24  1  0
 24 25  2  0
 23 26  1  0
  6  1  1  0
 12  7  1  0
 25 20  1  0
M  END
$$$$
