
     RDKit          3D

 26 28  0  0  0  0  0  0  0  0999 V2000
    0.1940    0.6544    9.4576 C   0  0  0  0  0  0  0  0  0  0  0  0
    0.7372    2.0232    9.1551 C   0  0  0  0  0  0  0  0  0  0  0  0
   -0.0687    3.0275    9.7035 N   0  0  0  0  0  0  0  0  0  0  0  0
   -1.4615    2.8645    9.7823 C   0  0  0  0  0  0  0  0  0  0  0  0
   -1.9935    1.7634    8.9114 C   0  0  0  0  0  0  0  0  0  0  0  0
   -1.2337    0.4686    9.1048 C   0  0  0  0  0  0  0  0  0  0  0  0
   -1.4549   -0.3232    7.8714 C   0  0  0  0  0  0  0  0  0  0  0  0
   -1.7268   -1.6687    7.8666 C   0  0  0  0  0  0  0  0  0  0  0  0
   -1.9060   -2.3805    6.6786 C   0  0  0  0  0  0  0  0  0  0  0  0
   -1.8158   -1.7464    5.4628 C   0  0  0  0  0  0  0  0  0  0  0  0
   -1.5430   -0.3878    5.4490 C   0  0  0  0  0  0  0  0  0  0  0  0
   -1.3699    0.2912    6.6167 C   0  0  0  0  0  0  0  0  0  0  0  0
   -2.0331   -2.6205    3.9476 Cl  0  0  0  0  0  0  0  0  0  0  0  0
   -1.9119   -0.2102   10.1557 O   0  0  0  0  0  0  0  0  0  0  0  0
    0.5116    3.9300   10.6460 C   0  0  0  0  0  0  0  0  0  0  0  0
    1.3065    3.1259   11.6382 C   0  0  0  0  0  0  0  0  0  0  0  0
    2.3762    3.8905   12.3490 C   0  0  0  0  0  0  0  0  0  0  0  0
    2.2668    3.9075   13.8055 C   0  0  0  0  0  0  0  0  0  0  0  0
    1.1998    3.5642   14.3657 O   0  0  0  0  0  0  0  0  0  0  0  0
    3.3940    4.3231   14.6252 C   0  0  0  0  0  0  0  0  0  0  0  0
    3.2553    4.5939   15.9678 C   0  0  0  0  0  0  0  0  0  0  0  0
    4.3333    4.9806   16.7619 C   0  0  0  0  0  0  0  0  0  0  0  0
    5.5903    5.1036   16.2078 C   0  0  0  0  0  0  0  0  0  0  0  0
    5.7275    4.8329   14.8635 C   0  0  0  0  0  0  0  0  0  0  0  0
    4.6599    4.4495   14.0783 C   0  0  0  0  0  0  0  0  0  0  0  0
    6.6677    5.4819   16.9704 F   0  0  0  0  0  0  0  0  0  0  0  0
  1  2  1  0
  2  3  1  0
  3  4  1  0
  4  5  1  0
  5  6  1  0
  6  7  1  0
  7  8  2  0
  8  9  1  0
  9 10  2  0
 10 11  1  0
 11 12  2  0
 10 13  1  0
  6 14  1  0
  3 15  1  0
 15 16  1  0
 16 17  1  0
 17 18  1  0
 18 19  2  0
 18 20  1  0
 20 21  2  0
 21 22  1  0
 22 23  2  0
 23 24  1  0
 24 25  2  0
 23 26  1  0
  6  1  1  0
 12  7  1  0
 25 20  1  0
M  END
$$$$
