
     RDKit          3D

 26 28  0  0  0  0  0  0  0  0999 V2000
   -1.4880    2.4147    8.9008 C   0  0  0  0  0  0  0  0  0  0  0  0
   -1.0717    2.3690   10.3448 C   0  0  0  0  0  0  0  0  0  0  0  0
    0.2092    2.9032   10.5263 N   0  0  0  0  0  0  0  0  0  0  0  0
    1.1976    2.7437    9.5413 C   0  0  0  0  0  0  0  0  0  0  0  0
    0.8849    1.6734    8.5361 C   0  0  0  0  0  0  0  0  0  0  0  0
   -0.5067    1.8239    7.9599 C   0  0  0  0  0  0  0  0  0  0  0  0
   -0.8857    0.4842    7.4514 C   0  0  0  0  0  0  0  0  0  0  0  0
   -1.2577   -0.5616    8.2589 C   0  0  0  0  0  0  0  0  0  0  0  0
   -1.5854   -1.8152    7.7380 C   0  0  0  0  0  0  0  0  0  0  0  0
   -1.5459   -2.0417    6.3832 C   0  0  0  0  0  0  0  0  0  0  0  0
   -1.1735   -0.9966    5.5529 C   0  0  0  0  0  0  0  0  0  0  0  0
   -0.8561    0.2194    6.0772 C   0  0  0  0  0  0  0  0  0  0  0  0
   -1.9500   -3.6148    5.6983 Cl  0  0  0  0  0  0  0  0  0  0  0  0
   -0.3522    2.6660    6.8232 O   0  0  0  0  0  0  0  0  0  0  0  0
    0.3635    4.0272   11.3938 C   0  0  0  0  0  0  0  0  0  0  0  0
    1.8326    4.3257   11.5188 C   0  0  0  0  0  0  0  0  0  0  0  0
    2.4579    3.8649   12.7958 C   0  0  0  0  0  0  0  0  0  0  0  0
    3.3648    4.8208   13.4260 C   0  0  0  0  0  0  0  0  0  0  0  0
    3.6375    5.9049   12.8597 O   0  0  0  0  0  0  0  0  0  0  0  0
    3.9639    4.5279   14.7185 C   0  0  0  0  0  0  0  0  0  0  0  0
    3.6311    3.4004   15.4348 C   0  0  0  0  0  0  0  0  0  0  0  0
    4.2102    3.1070   16.6679 C   0  0  0  0  0  0  0  0  0  0  0  0
    5.1499    3.9588   17.2099 C   0  0  0  0  0  0  0  0  0  0  0  0
    5.4816    5.0875   16.4920 C   0  0  0  0  0  0  0  0  0  0  0  0
    4.9082    5.3768   15.2709 C   0  0  0  0  0  0  0  0  0  0  0  0
    5.7351    3.6902   18.4227 F   0  0  0  0  0  0  0  0  0  0  0  0
  1  2  1  0
  2  3  1  0
  3  4  1  0
  4  5  1  0
  5  6  1  0
  6  7  1  0
  7  8  2  0
  8  9  1  0
  9 10  2  0
 10 11  1  0
 11 12  2  0
 10 13  1  0
  6 14  1  0
  3 15  1  0
 15 16  1  0
 16 17  1  0
 17 18  1  0
 18 19  2  0
 18 20  1  0
 20 21  2  0
 21 22  1  0
 22 23  2  0
 23 24  1  0
 24 25  2  0
 23 26  1  0
  6  1  1  0
 12  7  1  0
 25 20  1  0
M  END
$$$$
