
     RDKit          3D

 26 28  0  0  0  0  0  0  0  0999 V2000
    2.3348    3.1222   11.8839 C   0  0  0  0  0  0  0  0  0  0  0  0
    1.0137    2.4342   11.6796 C   0  0  0  0  0  0  0  0  0  0  0  0
    0.0254    3.3344   11.2650 N   0  0  0  0  0  0  0  0  0  0  0  0
    0.0229    4.6593   11.7308 C   0  0  0  0  0  0  0  0  0  0  0  0
    0.8820    4.8778   12.9425 C   0  0  0  0  0  0  0  0  0  0  0  0
    2.2760    4.3169   12.7594 C   0  0  0  0  0  0  0  0  0  0  0  0
    2.8096    4.0946   14.1243 C   0  0  0  0  0  0  0  0  0  0  0  0
    2.0492    3.6539   15.1787 C   0  0  0  0  0  0  0  0  0  0  0  0
    2.5888    3.4796   16.4549 C   0  0  0  0  0  0  0  0  0  0  0  0
    3.9151    3.7463   16.6960 C   0  0  0  0  0  0  0  0  0  0  0  0
    4.6979    4.1911   15.6425 C   0  0  0  0  0  0  0  0  0  0  0  0
    4.1557    4.3567   14.4044 C   0  0  0  0  0  0  0  0  0  0  0  0
    4.6218    3.5396   18.2975 Cl  0  0  0  0  0  0  0  0  0  0  0  0
    3.0346    5.3775   12.1896 O   0  0  0  0  0  0  0  0  0  0  0  0
   -0.6212    3.1087   10.0117 C   0  0  0  0  0  0  0  0  0  0  0  0
   -0.5478    1.6382    9.7034 C   0  0  0  0  0  0  0  0  0  0  0  0
   -0.7769    1.2879    8.2686 C   0  0  0  0  0  0  0  0  0  0  0  0
   -0.5960   -0.1227    7.9349 C   0  0  0  0  0  0  0  0  0  0  0  0
    0.2304   -0.8227    8.5651 O   0  0  0  0  0  0  0  0  0  0  0  0
   -1.3717   -0.7337    6.8672 C   0  0  0  0  0  0  0  0  0  0  0  0
   -1.3223   -2.0861    6.6155 C   0  0  0  0  0  0  0  0  0  0  0  0
   -2.0723   -2.6802    5.6022 C   0  0  0  0  0  0  0  0  0  0  0  0
   -2.8983   -1.9090    4.8115 C   0  0  0  0  0  0  0  0  0  0  0  0
   -2.9463   -0.5550    5.0642 C   0  0  0  0  0  0  0  0  0  0  0  0
   -2.2039    0.0321    6.0680 C   0  0  0  0  0  0  0  0  0  0  0  0
   -3.6476   -2.4719    3.8080 F   0  0  0  0  0  0  0  0  0  0  0  0
  1  2  1  0
  2  3  1  0
  3  4  1  0
  4  5  1  0
  5  6  1  0
  6  7  1  0
  7  8  2  0
  8  9  1  0
  9 10  2  0
 10 11  1  0
 11 12  2  0
 10 13  1  0
  6 14  1  0
  3 15  1  0
 15 16  1  0
 16 17  1  0
 17 18  1  0
 18 19  2  0
 18 20  1  0
 20 21  2  0
 21 22  1  0
 22 23  2  0
 23 24  1  0
 24 25  2  0
 23 26  1  0
  6  1  1  0
 12  7  1  0
 25 20  1  0
M  END
$$$$
