
     RDKit          3D

 26 28  0  0  0  0  0  0  0  0999 V2000
   -0.2248    4.9856   12.4588 C   0  0  0  0  0  0  0  0  0  0  0  0
   -0.3862    4.0466   11.2958 C   0  0  0  0  0  0  0  0  0  0  0  0
   -0.1581    2.7184   11.6737 N   0  0  0  0  0  0  0  0  0  0  0  0
    0.7971    2.4072   12.6552 C   0  0  0  0  0  0  0  0  0  0  0  0
    1.7610    3.5228   12.9386 C   0  0  0  0  0  0  0  0  0  0  0  0
    1.0517    4.8347   13.1972 C   0  0  0  0  0  0  0  0  0  0  0  0
    2.0443    5.8987   12.9148 C   0  0  0  0  0  0  0  0  0  0  0  0
    2.0654    7.1125   13.5554 C   0  0  0  0  0  0  0  0  0  0  0  0
    3.0060    8.0958   13.2413 C   0  0  0  0  0  0  0  0  0  0  0  0
    3.9521    7.8739   12.2697 C   0  0  0  0  0  0  0  0  0  0  0  0
    3.9462    6.6534   11.6135 C   0  0  0  0  0  0  0  0  0  0  0  0
    3.0213    5.7057   11.9312 C   0  0  0  0  0  0  0  0  0  0  0  0
    5.1484    9.0984   11.8496 Cl  0  0  0  0  0  0  0  0  0  0  0  0
    0.8104    4.8600   14.5994 O   0  0  0  0  0  0  0  0  0  0  0  0
   -1.2101    1.7684   11.4985 C   0  0  0  0  0  0  0  0  0  0  0  0
   -1.6290    1.7927   10.0540 C   0  0  0  0  0  0  0  0  0  0  0  0
   -0.8262    0.9085    9.1552 C   0  0  0  0  0  0  0  0  0  0  0  0
   -1.5068   -0.3018    8.7016 C   0  0  0  0  0  0  0  0  0  0  0  0
   -2.0720   -1.0583    9.5253 O   0  0  0  0  0  0  0  0  0  0  0  0
   -1.5375   -0.6455    7.2888 C   0  0  0  0  0  0  0  0  0  0  0  0
   -1.0686    0.2142    6.3214 C   0  0  0  0  0  0  0  0  0  0  0  0
   -1.0835   -0.1137    4.9670 C   0  0  0  0  0  0  0  0  0  0  0  0
   -1.5798   -1.3335    4.5570 C   0  0  0  0  0  0  0  0  0  0  0  0
   -2.0495   -2.1929    5.5266 C   0  0  0  0  0  0  0  0  0  0  0  0
   -2.0338   -1.8677    6.8673 C   0  0  0  0  0  0  0  0  0  0  0  0
   -1.6037   -1.6793    3.2284 F   0  0  0  0  0  0  0  0  0  0  0  0
  1  2  1  0
  2  3  1  0
  3  4  1  0
  4  5  1  0
  5  6  1  0
  6  7  1  0
  7  8  2  0
  8  9  1  0
  9 10  2  0
 10 11  1  0
 11 12  2  0
 10 13  1  0
  6 14  1  0
  3 15  1  0
 15 16  1  0
 16 17  1  0
 17 18  1  0
 18 19  2  0
 18 20  1  0
 20 21  2  0
 21 22  1  0
 22 23  2  0
 23 24  1  0
 24 25  2  0
 23 26  1  0
  6  1  1  0
 12  7  1  0
 25 20  1  0
M  END
$$$$
