
     RDKit          3D

 26 28  0  0  0  0  0  0  0  0999 V2000
    2.3503    4.1714   11.9414 C   0  0  0  0  0  0  0  0  0  0  0  0
    1.9647    2.8296   11.3837 C   0  0  0  0  0  0  0  0  0  0  0  0
    0.5920    2.5929   11.5197 N   0  0  0  0  0  0  0  0  0  0  0  0
   -0.1116    3.0801   12.6333 C   0  0  0  0  0  0  0  0  0  0  0  0
    0.7713    3.4942   13.7748 C   0  0  0  0  0  0  0  0  0  0  0  0
    1.8838    4.4177   13.3267 C   0  0  0  0  0  0  0  0  0  0  0  0
    2.9471    4.3047   14.3532 C   0  0  0  0  0  0  0  0  0  0  0  0
    3.1293    3.1983   15.1449 C   0  0  0  0  0  0  0  0  0  0  0  0
    4.1311    3.1435   16.1163 C   0  0  0  0  0  0  0  0  0  0  0  0
    4.9765    4.2093   16.3101 C   0  0  0  0  0  0  0  0  0  0  0  0
    4.8076    5.3343   15.5187 C   0  0  0  0  0  0  0  0  0  0  0  0
    3.8250    5.3717   14.5766 C   0  0  0  0  0  0  0  0  0  0  0  0
    6.2467    4.1697   17.5316 Cl  0  0  0  0  0  0  0  0  0  0  0  0
    1.3466    5.7310   13.4347 O   0  0  0  0  0  0  0  0  0  0  0  0
   -0.1810    2.3617   10.3412 C   0  0  0  0  0  0  0  0  0  0  0  0
   -0.1303    0.8914   10.0273 C   0  0  0  0  0  0  0  0  0  0  0  0
   -1.0733    0.4479    8.9558 C   0  0  0  0  0  0  0  0  0  0  0  0
   -0.5099    0.4043    7.6088 C   0  0  0  0  0  0  0  0  0  0  0  0
    0.5337    1.0421    7.3367 O   0  0  0  0  0  0  0  0  0  0  0  0
   -1.1523   -0.3791    6.5654 C   0  0  0  0  0  0  0  0  0  0  0  0
   -1.9935   -1.4286    6.8585 C   0  0  0  0  0  0  0  0  0  0  0  0
   -2.6222   -2.1757    5.8641 C   0  0  0  0  0  0  0  0  0  0  0  0
   -2.4103   -1.8735    4.5351 C   0  0  0  0  0  0  0  0  0  0  0  0
   -1.5674   -0.8230    4.2432 C   0  0  0  0  0  0  0  0  0  0  0  0
   -0.9459   -0.0836    5.2283 C   0  0  0  0  0  0  0  0  0  0  0  0
   -3.0195   -2.5945    3.5379 F   0  0  0  0  0  0  0  0  0  0  0  0
  1  2  1  0
  2  3  1  0
  3  4  1  0
  4  5  1  0
  5  6  1  0
  6  7  1  0
  7  8  2  0
  8  9  1  0
  9 10  2  0
 10 11  1  0
 11 12  2  0
 10 13  1  0
  6 14  1  0
  3 15  1  0
 15 16  1  0
 16 17  1  0
 17 18  1  0
 18 19  2  0
 18 20  1  0
 20 21  2  0
 21 22  1  0
 22 23  2  0
 23 24  1  0
 24 25  2  0
 23 26  1  0
  6  1  1  0
 12  7  1  0
 25 20  1  0
M  END
$$$$
