
     RDKit          3D

 26 28  0  0  0  0  0  0  0  0999 V2000
  100.1897   41.6392   42.2384 C   0  0  0  0  0  0  0  0  0  0  0  0
   99.2109   42.1674   41.2269 C   0  0  0  0  0  0  0  0  0  0  0  0
   99.8299   42.4191   39.9971 N   0  0  0  0  0  0  0  0  0  0  0  0
  101.1568   42.8762   39.9437 C   0  0  0  0  0  0  0  0  0  0  0  0
  101.6652   43.4161   41.2491 C   0  0  0  0  0  0  0  0  0  0  0  0
  101.4134   42.4608   42.3959 C   0  0  0  0  0  0  0  0  0  0  0  0
  101.4349   43.2857   43.6272 C   0  0  0  0  0  0  0  0  0  0  0  0
  102.4029   44.2188   43.9041 C   0  0  0  0  0  0  0  0  0  0  0  0
  102.3966   44.9585   45.0886 C   0  0  0  0  0  0  0  0  0  0  0  0
  101.4072   44.7730   46.0240 C   0  0  0  0  0  0  0  0  0  0  0  0
  100.4211   43.8357   45.7602 C   0  0  0  0  0  0  0  0  0  0  0  0
  100.4425   43.1220   44.6007 C   0  0  0  0  0  0  0  0  0  0  0  0
  101.3767   45.6893   47.5294 Cl  0  0  0  0  0  0  0  0  0  0  0  0
  102.5619   41.6219   42.4434 O   0  0  0  0  0  0  0  0  0  0  0  0
   99.3580   41.7263   38.8407 C   0  0  0  0  0  0  0  0  0  0  0  0
   97.8784   41.5047   38.9974 C   0  0  0  0  0  0  0  0  0  0  0  0
   97.3927   40.1712   38.5282 C   0  0  0  0  0  0  0  0  0  0  0  0
   96.8077   39.3218   39.5626 C   0  0  0  0  0  0  0  0  0  0  0  0
   97.1871   39.4190   40.7528 O   0  0  0  0  0  0  0  0  0  0  0  0
   95.7778   38.3518   39.2256 C   0  0  0  0  0  0  0  0  0  0  0  0
   94.7349   38.0729   40.0796 C   0  0  0  0  0  0  0  0  0  0  0  0
   93.7378   37.1539   39.7579 C   0  0  0  0  0  0  0  0  0  0  0  0
   93.7752   36.4887   38.5503 C   0  0  0  0  0  0  0  0  0  0  0  0
   94.8202   36.7684   37.6965 C   0  0  0  0  0  0  0  0  0  0  0  0
   95.8065   37.6789   38.0155 C   0  0  0  0  0  0  0  0  0  0  0  0
   92.8035   35.5798   38.2107 F   0  0  0  0  0  0  0  0  0  0  0  0
  1  2  1  0
  2  3  1  0
  3  4  1  0
  4  5  1  0
  5  6  1  0
  6  7  1  0
  7  8  2  0
  8  9  1  0
  9 10  2  0
 10 11  1  0
 11 12  2  0
 10 13  1  0
  6 14  1  0
  3 15  1  0
 15 16  1  0
 16 17  1  0
 17 18  1  0
 18 19  2  0
 18 20  1  0
 20 21  2  0
 21 22  1  0
 22 23  2  0
 23 24  1  0
 24 25  2  0
 23 26  1  0
  6  1  1  0
 12  7  1  0
 25 20  1  0
M  END
$$$$
