
     RDKit          3D

 26 28  0  0  0  0  0  0  0  0999 V2000
   -0.3031    0.6664    9.9181 C   0  0  0  0  0  0  0  0  0  0  0  0
    0.5419    1.9048    9.8057 C   0  0  0  0  0  0  0  0  0  0  0  0
   -0.2145    3.0629   10.0192 N   0  0  0  0  0  0  0  0  0  0  0  0
   -1.5546    3.1294    9.6042 C   0  0  0  0  0  0  0  0  0  0  0  0
   -1.9378    2.0637    8.6186 C   0  0  0  0  0  0  0  0  0  0  0  0
   -1.5307    0.6833    9.0873 C   0  0  0  0  0  0  0  0  0  0  0  0
   -1.4481   -0.1547    7.8674 C   0  0  0  0  0  0  0  0  0  0  0  0
   -1.2052    0.3458    6.6126 C   0  0  0  0  0  0  0  0  0  0  0  0
   -1.1582   -0.4785    5.4862 C   0  0  0  0  0  0  0  0  0  0  0  0
   -1.3550   -1.8335    5.6024 C   0  0  0  0  0  0  0  0  0  0  0  0
   -1.6004   -2.3562    6.8622 C   0  0  0  0  0  0  0  0  0  0  0  0
   -1.6439   -1.5382    7.9501 C   0  0  0  0  0  0  0  0  0  0  0  0
   -1.3057   -2.8971    4.1977 Cl  0  0  0  0  0  0  0  0  0  0  0  0
   -2.6373    0.2024    9.8417 O   0  0  0  0  0  0  0  0  0  0  0  0
    0.1539    3.9309   11.0920 C   0  0  0  0  0  0  0  0  0  0  0  0
    1.4832    3.4755   11.6290 C   0  0  0  0  0  0  0  0  0  0  0  0
    2.2453    4.5197   12.3794 C   0  0  0  0  0  0  0  0  0  0  0  0
    2.9147    4.0527   13.5907 C   0  0  0  0  0  0  0  0  0  0  0  0
    2.5105    3.0250   14.1829 O   0  0  0  0  0  0  0  0  0  0  0  0
    4.0586    4.7736   14.1263 C   0  0  0  0  0  0  0  0  0  0  0  0
    4.6446    4.4220   15.3212 C   0  0  0  0  0  0  0  0  0  0  0  0
    5.7486    5.1004   15.8342 C   0  0  0  0  0  0  0  0  0  0  0  0
    6.2899    6.1627   15.1409 C   0  0  0  0  0  0  0  0  0  0  0  0
    5.7018    6.5141   13.9451 C   0  0  0  0  0  0  0  0  0  0  0  0
    4.6093    5.8415   13.4376 C   0  0  0  0  0  0  0  0  0  0  0  0
    7.3780    6.8456   15.6257 F   0  0  0  0  0  0  0  0  0  0  0  0
  1  2  1  0
  2  3  1  0
  3  4  1  0
  4  5  1  0
  5  6  1  0
  6  7  1  0
  7  8  2  0
  8  9  1  0
  9 10  2  0
 10 11  1  0
 11 12  2  0
 10 13  1  0
  6 14  1  0
  3 15  1  0
 15 16  1  0
 16 17  1  0
 17 18  1  0
 18 19  2  0
 18 20  1  0
 20 21  2  0
 21 22  1  0
 22 23  2  0
 23 24  1  0
 24 25  2  0
 23 26  1  0
  6  1  1  0
 12  7  1  0
 25 20  1  0
M  END
$$$$
