
     RDKit          3D

 26 28  0  0  0  0  0  0  0  0999 V2000
   -1.6247    2.2705    8.7793 C   0  0  0  0  0  0  0  0  0  0  0  0
   -1.0799    2.0945   10.1695 C   0  0  0  0  0  0  0  0  0  0  0  0
    0.1874    2.6738   10.3008 N   0  0  0  0  0  0  0  0  0  0  0  0
    1.0903    2.6723    9.2250 C   0  0  0  0  0  0  0  0  0  0  0  0
    0.7366    1.6993    8.1379 C   0  0  0  0  0  0  0  0  0  0  0  0
   -0.7060    1.8357    7.7003 C   0  0  0  0  0  0  0  0  0  0  0  0
   -1.0696    0.5390    7.0810 C   0  0  0  0  0  0  0  0  0  0  0  0
   -1.2782    0.3678    5.7351 C   0  0  0  0  0  0  0  0  0  0  0  0
   -1.6420   -0.8684    5.1967 C   0  0  0  0  0  0  0  0  0  0  0  0
   -1.8028   -1.9651    6.0089 C   0  0  0  0  0  0  0  0  0  0  0  0
   -1.5951   -1.8105    7.3703 C   0  0  0  0  0  0  0  0  0  0  0  0
   -1.2417   -0.5978    7.8792 C   0  0  0  0  0  0  0  0  0  0  0  0
   -2.2657   -3.5362    5.3575 Cl  0  0  0  0  0  0  0  0  0  0  0  0
   -0.6904    2.8004    6.6542 O   0  0  0  0  0  0  0  0  0  0  0  0
    0.3689    3.7064   11.2708 C   0  0  0  0  0  0  0  0  0  0  0  0
    1.6516    3.4369   12.0090 C   0  0  0  0  0  0  0  0  0  0  0  0
    1.4905    3.1979   13.4757 C   0  0  0  0  0  0  0  0  0  0  0  0
    2.4706    2.2931   14.0710 C   0  0  0  0  0  0  0  0  0  0  0  0
    2.5301    1.0950   13.7087 O   0  0  0  0  0  0  0  0  0  0  0  0
    3.3902    2.7697   15.0919 C   0  0  0  0  0  0  0  0  0  0  0  0
    4.0931    1.9033   15.8983 C   0  0  0  0  0  0  0  0  0  0  0  0
    4.9852    2.3527   16.8701 C   0  0  0  0  0  0  0  0  0  0  0  0
    5.1874    3.7051   17.0496 C   0  0  0  0  0  0  0  0  0  0  0  0
    4.4825    4.5713   16.2421 C   0  0  0  0  0  0  0  0  0  0  0  0
    3.6001    4.1256   15.2798 C   0  0  0  0  0  0  0  0  0  0  0  0
    6.0621    4.1716   17.9998 F   0  0  0  0  0  0  0  0  0  0  0  0
  1  2  1  0
  2  3  1  0
  3  4  1  0
  4  5  1  0
  5  6  1  0
  6  7  1  0
  7  8  2  0
  8  9  1  0
  9 10  2  0
 10 11  1  0
 11 12  2  0
 10 13  1  0
  6 14  1  0
  3 15  1  0
 15 16  1  0
 16 17  1  0
 17 18  1  0
 18 19  2  0
 18 20  1  0
 20 21  2  0
 21 22  1  0
 22 23  2  0
 23 24  1  0
 24 25  2  0
 23 26  1  0
  6  1  1  0
 12  7  1  0
 25 20  1  0
M  END
$$$$
