
     RDKit          3D

 26 28  0  0  0  0  0  0  0  0999 V2000
    1.4652    5.1217   11.4845 C   0  0  0  0  0  0  0  0  0  0  0  0
    1.6534    3.9217   10.5985 C   0  0  0  0  0  0  0  0  0  0  0  0
    0.5867    3.0236   10.7181 N   0  0  0  0  0  0  0  0  0  0  0  0
   -0.0676    2.8487   11.9485 C   0  0  0  0  0  0  0  0  0  0  0  0
    0.7008    3.3783   13.1245 C   0  0  0  0  0  0  0  0  0  0  0  0
    1.1733    4.7989   12.9016 C   0  0  0  0  0  0  0  0  0  0  0  0
    2.3225    4.9959   13.8168 C   0  0  0  0  0  0  0  0  0  0  0  0
    2.6636    4.1163   14.8139 C   0  0  0  0  0  0  0  0  0  0  0  0
    3.7422    4.3531   15.6689 C   0  0  0  0  0  0  0  0  0  0  0  0
    4.5051    5.4881   15.5347 C   0  0  0  0  0  0  0  0  0  0  0  0
    4.1756    6.3866   14.5324 C   0  0  0  0  0  0  0  0  0  0  0  0
    3.1200    6.1410   13.7079 C   0  0  0  0  0  0  0  0  0  0  0  0
    5.8692    5.8148   16.6022 Cl  0  0  0  0  0  0  0  0  0  0  0  0
    0.1187    5.6242   13.3830 O   0  0  0  0  0  0  0  0  0  0  0  0
   -0.1760    2.7103    9.5519 C   0  0  0  0  0  0  0  0  0  0  0  0
   -0.8125    1.3625    9.7552 C   0  0  0  0  0  0  0  0  0  0  0  0
   -1.4669    0.7902    8.5393 C   0  0  0  0  0  0  0  0  0  0  0  0
   -0.9291   -0.4902    8.0865 C   0  0  0  0  0  0  0  0  0  0  0  0
   -0.0383   -1.0734    8.7472 O   0  0  0  0  0  0  0  0  0  0  0  0
   -1.4195   -1.1054    6.8634 C   0  0  0  0  0  0  0  0  0  0  0  0
   -2.4076   -0.5226    6.1025 C   0  0  0  0  0  0  0  0  0  0  0  0
   -2.8735   -1.1001    4.9228 C   0  0  0  0  0  0  0  0  0  0  0  0
   -2.3436   -2.2949    4.4824 C   0  0  0  0  0  0  0  0  0  0  0  0
   -1.3549   -2.8776    5.2456 C   0  0  0  0  0  0  0  0  0  0  0  0
   -0.8938   -2.3047    6.4129 C   0  0  0  0  0  0  0  0  0  0  0  0
   -2.7857   -2.8824    3.3228 F   0  0  0  0  0  0  0  0  0  0  0  0
  1  2  1  0
  2  3  1  0
  3  4  1  0
  4  5  1  0
  5  6  1  0
  6  7  1  0
  7  8  2  0
  8  9  1  0
  9 10  2  0
 10 11  1  0
 11 12  2  0
 10 13  1  0
  6 14  1  0
  3 15  1  0
 15 16  1  0
 16 17  1  0
 17 18  1  0
 18 19  2  0
 18 20  1  0
 20 21  2  0
 21 22  1  0
 22 23  2  0
 23 24  1  0
 24 25  2  0
 23 26  1  0
  6  1  1  0
 12  7  1  0
 25 20  1  0
M  END
$$$$
