
     RDKit          3D

 26 28  0  0  0  0  0  0  0  0999 V2000
    1.7765    2.5309   12.3592 C   0  0  0  0  0  0  0  0  0  0  0  0
    0.2808    2.3830   12.3241 C   0  0  0  0  0  0  0  0  0  0  0  0
   -0.2893    3.1740   11.3200 N   0  0  0  0  0  0  0  0  0  0  0  0
    0.2660    4.4208   10.9889 C   0  0  0  0  0  0  0  0  0  0  0  0
    1.2135    4.9565   12.0229 C   0  0  0  0  0  0  0  0  0  0  0  0
    2.2535    3.9329   12.4254 C   0  0  0  0  0  0  0  0  0  0  0  0
    2.7367    4.3459   13.7644 C   0  0  0  0  0  0  0  0  0  0  0  0
    2.1904    5.3760   14.4888 C   0  0  0  0  0  0  0  0  0  0  0  0
    2.6924    5.7462   15.7383 C   0  0  0  0  0  0  0  0  0  0  0  0
    3.7616    5.0804   16.2878 C   0  0  0  0  0  0  0  0  0  0  0  0
    4.3248    4.0369   15.5706 C   0  0  0  0  0  0  0  0  0  0  0  0
    3.8237    3.6893   14.3530 C   0  0  0  0  0  0  0  0  0  0  0  0
    4.4186    5.5288   17.8607 Cl  0  0  0  0  0  0  0  0  0  0  0  0
    3.3359    4.1235   11.5214 O   0  0  0  0  0  0  0  0  0  0  0  0
   -1.0479    2.5326   10.2938 C   0  0  0  0  0  0  0  0  0  0  0  0
   -0.1362    2.2799    9.1243 C   0  0  0  0  0  0  0  0  0  0  0  0
   -0.2628    0.9209    8.5150 C   0  0  0  0  0  0  0  0  0  0  0  0
   -0.7095    0.9006    7.1244 C   0  0  0  0  0  0  0  0  0  0  0  0
   -0.5630    1.9098    6.3962 O   0  0  0  0  0  0  0  0  0  0  0  0
   -1.3304   -0.2902    6.5661 C   0  0  0  0  0  0  0  0  0  0  0  0
   -1.8300   -0.3159    5.2837 C   0  0  0  0  0  0  0  0  0  0  0  0
   -2.4150   -1.4570    4.7380 C   0  0  0  0  0  0  0  0  0  0  0  0
   -2.5087   -2.6110    5.4877 C   0  0  0  0  0  0  0  0  0  0  0  0
   -2.0087   -2.5836    6.7716 C   0  0  0  0  0  0  0  0  0  0  0  0
   -1.4291   -1.4536    7.3108 C   0  0  0  0  0  0  0  0  0  0  0  0
   -3.0797   -3.7479    4.9712 F   0  0  0  0  0  0  0  0  0  0  0  0
  1  2  1  0
  2  3  1  0
  3  4  1  0
  4  5  1  0
  5  6  1  0
  6  7  1  0
  7  8  2  0
  8  9  1  0
  9 10  2  0
 10 11  1  0
 11 12  2  0
 10 13  1  0
  6 14  1  0
  3 15  1  0
 15 16  1  0
 16 17  1  0
 17 18  1  0
 18 19  2  0
 18 20  1  0
 20 21  2  0
 21 22  1  0
 22 23  2  0
 23 24  1  0
 24 25  2  0
 23 26  1  0
  6  1  1  0
 12  7  1  0
 25 20  1  0
M  END
$$$$
