
     RDKit          3D

 26 28  0  0  0  0  0  0  0  0999 V2000
   -0.1679    2.3556    7.5377 C   0  0  0  0  0  0  0  0  0  0  0  0
   -0.9984    3.2079    8.4565 C   0  0  0  0  0  0  0  0  0  0  0  0
   -0.6433    3.0139    9.7964 N   0  0  0  0  0  0  0  0  0  0  0  0
   -0.2267    1.7522   10.2512 C   0  0  0  0  0  0  0  0  0  0  0  0
   -0.5685    0.6276    9.3172 C   0  0  0  0  0  0  0  0  0  0  0  0
   -0.1355    0.9176    7.8961 C   0  0  0  0  0  0  0  0  0  0  0  0
   -0.9763    0.0581    7.0292 C   0  0  0  0  0  0  0  0  0  0  0  0
   -1.9071   -0.8301    7.5074 C   0  0  0  0  0  0  0  0  0  0  0  0
   -2.6623   -1.6376    6.6543 C   0  0  0  0  0  0  0  0  0  0  0  0
   -2.4948   -1.5650    5.2923 C   0  0  0  0  0  0  0  0  0  0  0  0
   -1.5599   -0.6728    4.7920 C   0  0  0  0  0  0  0  0  0  0  0  0
   -0.8310    0.1067    5.6378 C   0  0  0  0  0  0  0  0  0  0  0  0
   -3.4309   -2.5751    4.1921 Cl  0  0  0  0  0  0  0  0  0  0  0  0
    1.1945    0.4207    7.8010 O   0  0  0  0  0  0  0  0  0  0  0  0
   -0.1820    4.1362   10.5498 C   0  0  0  0  0  0  0  0  0  0  0  0
    0.9744    3.6872   11.4006 C   0  0  0  0  0  0  0  0  0  0  0  0
    1.2507    4.5528   12.5875 C   0  0  0  0  0  0  0  0  0  0  0  0
    2.6134    4.4798   13.1083 C   0  0  0  0  0  0  0  0  0  0  0  0
    3.1883    3.3729   13.2282 O   0  0  0  0  0  0  0  0  0  0  0  0
    3.3212    5.6900   13.4950 C   0  0  0  0  0  0  0  0  0  0  0  0
    4.3270    5.6746   14.4348 C   0  0  0  0  0  0  0  0  0  0  0  0
    5.0179    6.8282   14.8011 C   0  0  0  0  0  0  0  0  0  0  0  0
    4.7018    8.0372   14.2175 C   0  0  0  0  0  0  0  0  0  0  0  0
    3.6943    8.0513   13.2774 C   0  0  0  0  0  0  0  0  0  0  0  0
    3.0113    6.9087   12.9149 C   0  0  0  0  0  0  0  0  0  0  0  0
    5.3694    9.1868   14.5614 F   0  0  0  0  0  0  0  0  0  0  0  0
  1  2  1  0
  2  3  1  0
  3  4  1  0
  4  5  1  0
  5  6  1  0
  6  7  1  0
  7  8  2  0
  8  9  1  0
  9 10  2  0
 10 11  1  0
 11 12  2  0
 10 13  1  0
  6 14  1  0
  3 15  1  0
 15 16  1  0
 16 17  1  0
 17 18  1  0
 18 19  2  0
 18 20  1  0
 20 21  2  0
 21 22  1  0
 22 23  2  0
 23 24  1  0
 24 25  2  0
 23 26  1  0
  6  1  1  0
 12  7  1  0
 25 20  1  0
M  END
$$$$
