
     RDKit          3D

 26 28  0  0  0  0  0  0  0  0999 V2000
    1.4857    4.2111   11.7553 C   0  0  0  0  0  0  0  0  0  0  0  0
    1.2511    2.9073   11.0442 C   0  0  0  0  0  0  0  0  0  0  0  0
    0.0423    2.3201   11.4354 N   0  0  0  0  0  0  0  0  0  0  0  0
   -0.4264    2.4558   12.7523 C   0  0  0  0  0  0  0  0  0  0  0  0
    0.6220    2.9123   13.7252 C   0  0  0  0  0  0  0  0  0  0  0  0
    1.3617    4.1368   13.2306 C   0  0  0  0  0  0  0  0  0  0  0  0
    2.6582    4.1490   13.9489 C   0  0  0  0  0  0  0  0  0  0  0  0
    3.0745    3.1470   14.7896 C   0  0  0  0  0  0  0  0  0  0  0  0
    4.2955    3.2103   15.4644 C   0  0  0  0  0  0  0  0  0  0  0  0
    5.1283    4.2914   15.3036 C   0  0  0  0  0  0  0  0  0  0  0  0
    4.7243    5.3119   14.4575 C   0  0  0  0  0  0  0  0  0  0  0  0
    3.5300    5.2349   13.8078 C   0  0  0  0  0  0  0  0  0  0  0  0
    6.6729    4.4001   16.1460 Cl  0  0  0  0  0  0  0  0  0  0  0  0
    0.6138    5.2467   13.7141 O   0  0  0  0  0  0  0  0  0  0  0  0
   -0.9500    2.0716   10.4387 C   0  0  0  0  0  0  0  0  0  0  0  0
   -0.3741    2.4435    9.0997 C   0  0  0  0  0  0  0  0  0  0  0  0
   -0.2092    1.3005    8.1507 C   0  0  0  0  0  0  0  0  0  0  0  0
   -1.2572    0.2848    8.2103 C   0  0  0  0  0  0  0  0  0  0  0  0
   -1.9022    0.1001    9.2687 O   0  0  0  0  0  0  0  0  0  0  0  0
   -1.5663   -0.5259    7.0431 C   0  0  0  0  0  0  0  0  0  0  0  0
   -2.1201   -1.7811    7.1563 C   0  0  0  0  0  0  0  0  0  0  0  0
   -2.4304   -2.5584    6.0419 C   0  0  0  0  0  0  0  0  0  0  0  0
   -2.1835   -2.0766    4.7733 C   0  0  0  0  0  0  0  0  0  0  0  0
   -1.6285   -0.8201    4.6616 C   0  0  0  0  0  0  0  0  0  0  0  0
   -1.3223   -0.0511    5.7654 C   0  0  0  0  0  0  0  0  0  0  0  0
   -2.4818   -2.8235    3.6604 F   0  0  0  0  0  0  0  0  0  0  0  0
  1  2  1  0
  2  3  1  0
  3  4  1  0
  4  5  1  0
  5  6  1  0
  6  7  1  0
  7  8  2  0
  8  9  1  0
  9 10  2  0
 10 11  1  0
 11 12  2  0
 10 13  1  0
  6 14  1  0
  3 15  1  0
 15 16  1  0
 16 17  1  0
 17 18  1  0
 18 19  2  0
 18 20  1  0
 20 21  2  0
 21 22  1  0
 22 23  2  0
 23 24  1  0
 24 25  2  0
 23 26  1  0
  6  1  1  0
 12  7  1  0
 25 20  1  0
M  END
$$$$
