
     RDKit          3D

 26 28  0  0  0  0  0  0  0  0999 V2000
    2.0415    3.1473   12.2443 C   0  0  0  0  0  0  0  0  0  0  0  0
    0.6961    2.6793   11.7635 C   0  0  0  0  0  0  0  0  0  0  0  0
    0.1757    3.5337   10.7847 N   0  0  0  0  0  0  0  0  0  0  0  0
    0.4227    4.9154   10.8356 C   0  0  0  0  0  0  0  0  0  0  0  0
    0.9188    5.3939   12.1693 C   0  0  0  0  0  0  0  0  0  0  0  0
    2.0807    4.5654   12.6741 C   0  0  0  0  0  0  0  0  0  0  0  0
    2.1078    4.7524   14.1443 C   0  0  0  0  0  0  0  0  0  0  0  0
    3.1151    5.4027   14.8126 C   0  0  0  0  0  0  0  0  0  0  0  0
    3.1114    5.5362   16.2027 C   0  0  0  0  0  0  0  0  0  0  0  0
    2.0848    5.0148   16.9528 C   0  0  0  0  0  0  0  0  0  0  0  0
    1.0588    4.3559   16.2943 C   0  0  0  0  0  0  0  0  0  0  0  0
    1.0783    4.2336   14.9382 C   0  0  0  0  0  0  0  0  0  0  0  0
    2.0564    5.1645   18.7089 Cl  0  0  0  0  0  0  0  0  0  0  0  0
    3.2452    5.1999   12.1580 O   0  0  0  0  0  0  0  0  0  0  0  0
   -0.1167    2.9958    9.4943 C   0  0  0  0  0  0  0  0  0  0  0  0
   -0.8747    1.7102    9.6823 C   0  0  0  0  0  0  0  0  0  0  0  0
   -1.3476    1.0722    8.4160 C   0  0  0  0  0  0  0  0  0  0  0  0
   -0.9121   -0.3072    8.2127 C   0  0  0  0  0  0  0  0  0  0  0  0
   -0.1588   -0.8638    9.0451 O   0  0  0  0  0  0  0  0  0  0  0  0
   -1.3461   -1.0530    7.0421 C   0  0  0  0  0  0  0  0  0  0  0  0
   -2.0421   -0.4547    6.0162 C   0  0  0  0  0  0  0  0  0  0  0  0
   -2.4502   -1.1604    4.8859 C   0  0  0  0  0  0  0  0  0  0  0  0
   -2.1597   -2.5035    4.7679 C   0  0  0  0  0  0  0  0  0  0  0  0
   -1.4635   -3.1014    5.7960 C   0  0  0  0  0  0  0  0  0  0  0  0
   -1.0593   -2.4018    6.9144 C   0  0  0  0  0  0  0  0  0  0  0  0
   -2.5503   -3.2194    3.6632 F   0  0  0  0  0  0  0  0  0  0  0  0
  1  2  1  0
  2  3  1  0
  3  4  1  0
  4  5  1  0
  5  6  1  0
  6  7  1  0
  7  8  2  0
  8  9  1  0
  9 10  2  0
 10 11  1  0
 11 12  2  0
 10 13  1  0
  6 14  1  0
  3 15  1  0
 15 16  1  0
 16 17  1  0
 17 18  1  0
 18 19  2  0
 18 20  1  0
 20 21  2  0
 21 22  1  0
 22 23  2  0
 23 24  1  0
 24 25  2  0
 23 26  1  0
  6  1  1  0
 12  7  1  0
 25 20  1  0
M  END
$$$$
