
     RDKit          3D

 26 28  0  0  0  0  0  0  0  0999 V2000
    1.9580    3.9550   12.5120 C   0  0  0  0  0  0  0  0  0  0  0  0
    1.3359    2.7510   11.8609 C   0  0  0  0  0  0  0  0  0  0  0  0
    0.0116    2.9995   11.4824 N   0  0  0  0  0  0  0  0  0  0  0  0
   -0.8081    3.8391   12.2543 C   0  0  0  0  0  0  0  0  0  0  0  0
   -0.2840    4.0931   13.6380 C   0  0  0  0  0  0  0  0  0  0  0  0
    1.1655    4.5289   13.6256 C   0  0  0  0  0  0  0  0  0  0  0  0
    1.6983    4.2152   14.9728 C   0  0  0  0  0  0  0  0  0  0  0  0
    2.9086    3.6060   15.1921 C   0  0  0  0  0  0  0  0  0  0  0  0
    3.3618    3.3083   16.4791 C   0  0  0  0  0  0  0  0  0  0  0  0
    2.6000    3.6220   17.5789 C   0  0  0  0  0  0  0  0  0  0  0  0
    1.3756    4.2385   17.3760 C   0  0  0  0  0  0  0  0  0  0  0  0
    0.9481    4.5209   16.1143 C   0  0  0  0  0  0  0  0  0  0  0  0
    3.1449    3.2540   19.2144 Cl  0  0  0  0  0  0  0  0  0  0  0  0
    1.1292    5.9474   13.5184 O   0  0  0  0  0  0  0  0  0  0  0  0
   -0.3392    2.8753   10.1035 C   0  0  0  0  0  0  0  0  0  0  0  0
    0.0106    1.4831    9.6537 C   0  0  0  0  0  0  0  0  0  0  0  0
   -0.9639    0.8708    8.7001 C   0  0  0  0  0  0  0  0  0  0  0  0
   -0.4840    0.7217    7.3285 C   0  0  0  0  0  0  0  0  0  0  0  0
    0.4996    1.3850    6.9250 O   0  0  0  0  0  0  0  0  0  0  0  0
   -1.1409   -0.1975    6.4127 C   0  0  0  0  0  0  0  0  0  0  0  0
   -1.8529   -1.2864    6.8625 C   0  0  0  0  0  0  0  0  0  0  0  0
   -2.4952   -2.1642    5.9913 C   0  0  0  0  0  0  0  0  0  0  0  0
   -2.4297   -1.9570    4.6293 C   0  0  0  0  0  0  0  0  0  0  0  0
   -1.7159   -0.8670    4.1804 C   0  0  0  0  0  0  0  0  0  0  0  0
   -1.0809    0.0020    5.0437 C   0  0  0  0  0  0  0  0  0  0  0  0
   -3.0553   -2.8076    3.7515 F   0  0  0  0  0  0  0  0  0  0  0  0
  1  2  1  0
  2  3  1  0
  3  4  1  0
  4  5  1  0
  5  6  1  0
  6  7  1  0
  7  8  2  0
  8  9  1  0
  9 10  2  0
 10 11  1  0
 11 12  2  0
 10 13  1  0
  6 14  1  0
  3 15  1  0
 15 16  1  0
 16 17  1  0
 17 18  1  0
 18 19  2  0
 18 20  1  0
 20 21  2  0
 21 22  1  0
 22 23  2  0
 23 24  1  0
 24 25  2  0
 23 26  1  0
  6  1  1  0
 12  7  1  0
 25 20  1  0
M  END
$$$$
