
     RDKit          3D

 26 28  0  0  0  0  0  0  0  0999 V2000
    0.7256    0.9707    9.6706 C   0  0  0  0  0  0  0  0  0  0  0  0
    1.1285    2.3901    9.9595 C   0  0  0  0  0  0  0  0  0  0  0  0
    0.1445    3.0634   10.6925 N   0  0  0  0  0  0  0  0  0  0  0  0
   -1.2168    2.7844   10.4885 C   0  0  0  0  0  0  0  0  0  0  0  0
   -1.4996    2.0443    9.2132 C   0  0  0  0  0  0  0  0  0  0  0  0
   -0.6151    0.8262    9.0549 C   0  0  0  0  0  0  0  0  0  0  0  0
   -0.5860    0.5281    7.6032 C   0  0  0  0  0  0  0  0  0  0  0  0
   -1.3203   -0.4711    7.0143 C   0  0  0  0  0  0  0  0  0  0  0  0
   -1.2451   -0.7320    5.6445 C   0  0  0  0  0  0  0  0  0  0  0  0
   -0.4239    0.0146    4.8342 C   0  0  0  0  0  0  0  0  0  0  0  0
    0.3239    1.0282    5.4119 C   0  0  0  0  0  0  0  0  0  0  0  0
    0.2396    1.2689    6.7496 C   0  0  0  0  0  0  0  0  0  0  0  0
   -0.3057   -0.2954    3.1031 Cl  0  0  0  0  0  0  0  0  0  0  0  0
   -1.3266   -0.2369    9.6783 O   0  0  0  0  0  0  0  0  0  0  0  0
    0.4908    3.5964   11.9715 C   0  0  0  0  0  0  0  0  0  0  0  0
    1.9553    3.3439   12.2045 C   0  0  0  0  0  0  0  0  0  0  0  0
    2.6176    4.3133   13.1295 C   0  0  0  0  0  0  0  0  0  0  0  0
    2.9645    3.7818   14.4451 C   0  0  0  0  0  0  0  0  0  0  0  0
    2.7624    2.5750   14.7153 O   0  0  0  0  0  0  0  0  0  0  0  0
    3.5484    4.6454   15.4592 C   0  0  0  0  0  0  0  0  0  0  0  0
    3.6774    4.2433   16.7694 C   0  0  0  0  0  0  0  0  0  0  0  0
    4.2473    5.0606   17.7438 C   0  0  0  0  0  0  0  0  0  0  0  0
    4.7043    6.3183   17.4094 C   0  0  0  0  0  0  0  0  0  0  0  0
    4.5739    6.7198   16.0975 C   0  0  0  0  0  0  0  0  0  0  0  0
    4.0102    5.9097   15.1334 C   0  0  0  0  0  0  0  0  0  0  0  0
    5.2704    7.1410   18.3517 F   0  0  0  0  0  0  0  0  0  0  0  0
  1  2  1  0
  2  3  1  0
  3  4  1  0
  4  5  1  0
  5  6  1  0
  6  7  1  0
  7  8  2  0
  8  9  1  0
  9 10  2  0
 10 11  1  0
 11 12  2  0
 10 13  1  0
  6 14  1  0
  3 15  1  0
 15 16  1  0
 16 17  1  0
 17 18  1  0
 18 19  2  0
 18 20  1  0
 20 21  2  0
 21 22  1  0
 22 23  2  0
 23 24  1  0
 24 25  2  0
 23 26  1  0
  6  1  1  0
 12  7  1  0
 25 20  1  0
M  END
$$$$
