
     RDKit          3D

 26 28  0  0  0  0  0  0  0  0999 V2000
    1.6700    4.8823   11.3243 C   0  0  0  0  0  0  0  0  0  0  0  0
    1.3831    3.5203   10.7559 C   0  0  0  0  0  0  0  0  0  0  0  0
    0.0263    3.1947   10.8647 N   0  0  0  0  0  0  0  0  0  0  0  0
   -0.7287    3.6310   11.9657 C   0  0  0  0  0  0  0  0  0  0  0  0
    0.1033    4.0973   13.1251 C   0  0  0  0  0  0  0  0  0  0  0  0
    1.1620    5.0926   12.7009 C   0  0  0  0  0  0  0  0  0  0  0  0
    2.2105    5.0449   13.7476 C   0  0  0  0  0  0  0  0  0  0  0  0
    1.9544    4.8024   15.0741 C   0  0  0  0  0  0  0  0  0  0  0  0
    2.9715    4.7890   16.0310 C   0  0  0  0  0  0  0  0  0  0  0  0
    4.2765    5.0198   15.6680 C   0  0  0  0  0  0  0  0  0  0  0  0
    4.5534    5.2653   14.3326 C   0  0  0  0  0  0  0  0  0  0  0  0
    3.5497    5.2759   13.4123 C   0  0  0  0  0  0  0  0  0  0  0  0
    5.5797    5.0133   16.8549 Cl  0  0  0  0  0  0  0  0  0  0  0  0
    0.5388    6.3679   12.8017 O   0  0  0  0  0  0  0  0  0  0  0  0
   -0.7074    2.9183    9.6709 C   0  0  0  0  0  0  0  0  0  0  0  0
   -1.1975    1.4977    9.7392 C   0  0  0  0  0  0  0  0  0  0  0  0
   -1.7540    0.9659    8.4580 C   0  0  0  0  0  0  0  0  0  0  0  0
   -1.2307   -0.3331    8.0428 C   0  0  0  0  0  0  0  0  0  0  0  0
   -0.3342   -0.8988    8.7109 O   0  0  0  0  0  0  0  0  0  0  0  0
   -1.7422   -0.9872    6.8489 C   0  0  0  0  0  0  0  0  0  0  0  0
   -2.7398   -0.4264    6.0839 C   0  0  0  0  0  0  0  0  0  0  0  0
   -3.2261   -1.0416    4.9318 C   0  0  0  0  0  0  0  0  0  0  0  0
   -2.7074   -2.2528    4.5241 C   0  0  0  0  0  0  0  0  0  0  0  0
   -1.7092   -2.8134    5.2913 C   0  0  0  0  0  0  0  0  0  0  0  0
   -1.2279   -2.2033    6.4313 C   0  0  0  0  0  0  0  0  0  0  0  0
   -3.1696   -2.8773    3.3920 F   0  0  0  0  0  0  0  0  0  0  0  0
  1  2  1  0
  2  3  1  0
  3  4  1  0
  4  5  1  0
  5  6  1  0
  6  7  1  0
  7  8  2  0
  8  9  1  0
  9 10  2  0
 10 11  1  0
 11 12  2  0
 10 13  1  0
  6 14  1  0
  3 15  1  0
 15 16  1  0
 16 17  1  0
 17 18  1  0
 18 19  2  0
 18 20  1  0
 20 21  2  0
 21 22  1  0
 22 23  2  0
 23 24  1  0
 24 25  2  0
 23 26  1  0
  6  1  1  0
 12  7  1  0
 25 20  1  0
M  END
$$$$
