
     RDKit          3D

 26 28  0  0  0  0  0  0  0  0999 V2000
   -1.3764    2.4436    8.1443 C   0  0  0  0  0  0  0  0  0  0  0  0
   -1.0577    2.5033    9.6123 C   0  0  0  0  0  0  0  0  0  0  0  0
    0.2660    2.9005    9.8340 N   0  0  0  0  0  0  0  0  0  0  0  0
    1.2852    2.5229    8.9445 C   0  0  0  0  0  0  0  0  0  0  0  0
    0.9044    1.3957    8.0290 C   0  0  0  0  0  0  0  0  0  0  0  0
   -0.4202    1.6457    7.3403 C   0  0  0  0  0  0  0  0  0  0  0  0
   -0.9303    0.3129    6.9393 C   0  0  0  0  0  0  0  0  0  0  0  0
   -1.7980   -0.4322    7.6982 C   0  0  0  0  0  0  0  0  0  0  0  0
   -2.2358   -1.6946    7.2919 C   0  0  0  0  0  0  0  0  0  0  0  0
   -1.8063   -2.2349    6.1037 C   0  0  0  0  0  0  0  0  0  0  0  0
   -0.9308   -1.4958    5.3242 C   0  0  0  0  0  0  0  0  0  0  0  0
   -0.5129   -0.2667    5.7356 C   0  0  0  0  0  0  0  0  0  0  0  0
   -2.3389   -3.8275    5.5681 Cl  0  0  0  0  0  0  0  0  0  0  0  0
   -0.0938    2.3384    6.1409 O   0  0  0  0  0  0  0  0  0  0  0  0
    0.5050    4.0845   10.5960 C   0  0  0  0  0  0  0  0  0  0  0  0
    0.3081    3.7547   12.0504 C   0  0  0  0  0  0  0  0  0  0  0  0
    1.5587    3.7654   12.8688 C   0  0  0  0  0  0  0  0  0  0  0  0
    1.8376    5.0192   13.5644 C   0  0  0  0  0  0  0  0  0  0  0  0
    1.1252    6.0297   13.3607 O   0  0  0  0  0  0  0  0  0  0  0  0
    2.9454    5.1122   14.5021 C   0  0  0  0  0  0  0  0  0  0  0  0
    3.2504    6.2866   15.1522 C   0  0  0  0  0  0  0  0  0  0  0  0
    4.3025    6.3799   16.0613 C   0  0  0  0  0  0  0  0  0  0  0  0
    5.0787    5.2731   16.3353 C   0  0  0  0  0  0  0  0  0  0  0  0
    4.7726    4.0983   15.6832 C   0  0  0  0  0  0  0  0  0  0  0  0
    3.7304    4.0068   14.7839 C   0  0  0  0  0  0  0  0  0  0  0  0
    6.1199    5.3403   17.2280 F   0  0  0  0  0  0  0  0  0  0  0  0
  1  2  1  0
  2  3  1  0
  3  4  1  0
  4  5  1  0
  5  6  1  0
  6  7  1  0
  7  8  2  0
  8  9  1  0
  9 10  2  0
 10 11  1  0
 11 12  2  0
 10 13  1  0
  6 14  1  0
  3 15  1  0
 15 16  1  0
 16 17  1  0
 17 18  1  0
 18 19  2  0
 18 20  1  0
 20 21  2  0
 21 22  1  0
 22 23  2  0
 23 24  1  0
 24 25  2  0
 23 26  1  0
  6  1  1  0
 12  7  1  0
 25 20  1  0
M  END
$$$$
