
     RDKit          3D

 26 28  0  0  0  0  0  0  0  0999 V2000
    2.0581    3.7710   11.9535 C   0  0  0  0  0  0  0  0  0  0  0  0
    1.0944    2.7275   11.4611 C   0  0  0  0  0  0  0  0  0  0  0  0
   -0.0338    3.3089   10.8712 N   0  0  0  0  0  0  0  0  0  0  0  0
   -0.5526    4.5198   11.3583 C   0  0  0  0  0  0  0  0  0  0  0  0
   -0.0570    4.8847   12.7277 C   0  0  0  0  0  0  0  0  0  0  0  0
    1.4513    4.8042   12.8263 C   0  0  0  0  0  0  0  0  0  0  0  0
    1.7584    4.6370   14.2667 C   0  0  0  0  0  0  0  0  0  0  0  0
    2.2591    3.4808   14.8112 C   0  0  0  0  0  0  0  0  0  0  0  0
    2.5129    3.3595   16.1791 C   0  0  0  0  0  0  0  0  0  0  0  0
    2.2669    4.4085   17.0319 C   0  0  0  0  0  0  0  0  0  0  0  0
    1.7622    5.5840   16.4990 C   0  0  0  0  0  0  0  0  0  0  0  0
    1.5194    5.6854   15.1629 C   0  0  0  0  0  0  0  0  0  0  0  0
    2.5735    4.2821   18.7631 Cl  0  0  0  0  0  0  0  0  0  0  0  0
    1.9204    6.0950   12.4535 O   0  0  0  0  0  0  0  0  0  0  0  0
   -0.3222    3.0071    9.5054 C   0  0  0  0  0  0  0  0  0  0  0  0
   -0.6110    1.5345    9.4008 C   0  0  0  0  0  0  0  0  0  0  0  0
   -1.0266    1.0738    8.0410 C   0  0  0  0  0  0  0  0  0  0  0  0
   -1.0340   -0.3742    7.8488 C   0  0  0  0  0  0  0  0  0  0  0  0
   -0.6760   -1.1389    8.7747 O   0  0  0  0  0  0  0  0  0  0  0  0
   -1.4563   -0.9481    6.5810 C   0  0  0  0  0  0  0  0  0  0  0  0
   -1.5257   -2.3091    6.3867 C   0  0  0  0  0  0  0  0  0  0  0  0
   -1.9414   -2.8659    5.1787 C   0  0  0  0  0  0  0  0  0  0  0  0
   -2.2999   -2.0475    4.1280 C   0  0  0  0  0  0  0  0  0  0  0  0
   -2.2292   -0.6852    4.3237 C   0  0  0  0  0  0  0  0  0  0  0  0
   -1.8182   -0.1348    5.5202 C   0  0  0  0  0  0  0  0  0  0  0  0
   -2.7137   -2.5729    2.9288 F   0  0  0  0  0  0  0  0  0  0  0  0
  1  2  1  0
  2  3  1  0
  3  4  1  0
  4  5  1  0
  5  6  1  0
  6  7  1  0
  7  8  2  0
  8  9  1  0
  9 10  2  0
 10 11  1  0
 11 12  2  0
 10 13  1  0
  6 14  1  0
  3 15  1  0
 15 16  1  0
 16 17  1  0
 17 18  1  0
 18 19  2  0
 18 20  1  0
 20 21  2  0
 21 22  1  0
 22 23  2  0
 23 24  1  0
 24 25  2  0
 23 26  1  0
  6  1  1  0
 12  7  1  0
 25 20  1  0
M  END
$$$$
