
     RDKit          3D

 26 28  0  0  0  0  0  0  0  0999 V2000
    2.0792    3.4468   12.2632 C   0  0  0  0  0  0  0  0  0  0  0  0
    0.9824    2.5104   11.8381 C   0  0  0  0  0  0  0  0  0  0  0  0
    0.1454    3.1006   10.8842 N   0  0  0  0  0  0  0  0  0  0  0  0
   -0.1317    4.4767   10.9282 C   0  0  0  0  0  0  0  0  0  0  0  0
    0.2064    5.1217   12.2411 C   0  0  0  0  0  0  0  0  0  0  0  0
    1.6108    4.7854   12.6945 C   0  0  0  0  0  0  0  0  0  0  0  0
    1.6259    4.9885   14.1628 C   0  0  0  0  0  0  0  0  0  0  0  0
    0.5554    5.4635   14.8787 C   0  0  0  0  0  0  0  0  0  0  0  0
    0.6211    5.6611   16.2596 C   0  0  0  0  0  0  0  0  0  0  0  0
    1.7743    5.3808   16.9523 C   0  0  0  0  0  0  0  0  0  0  0  0
    2.8647    4.8992   16.2454 C   0  0  0  0  0  0  0  0  0  0  0  0
    2.7842    4.7132   14.8988 C   0  0  0  0  0  0  0  0  0  0  0  0
    1.8871    5.6247   18.6943 Cl  0  0  0  0  0  0  0  0  0  0  0  0
    2.4384    5.7969   12.1315 O   0  0  0  0  0  0  0  0  0  0  0  0
    0.0202    2.4759    9.6059 C   0  0  0  0  0  0  0  0  0  0  0  0
   -0.6278    1.1325    9.8012 C   0  0  0  0  0  0  0  0  0  0  0  0
   -0.4895    0.1973    8.6434 C   0  0  0  0  0  0  0  0  0  0  0  0
   -1.4192    0.4288    7.5409 C   0  0  0  0  0  0  0  0  0  0  0  0
   -2.0060    1.5301    7.4264 O   0  0  0  0  0  0  0  0  0  0  0  0
   -1.6769   -0.6150    6.5615 C   0  0  0  0  0  0  0  0  0  0  0  0
   -1.0508   -1.8393    6.6227 C   0  0  0  0  0  0  0  0  0  0  0  0
   -1.3022   -2.8485    5.6949 C   0  0  0  0  0  0  0  0  0  0  0  0
   -2.2034   -2.6377    4.6723 C   0  0  0  0  0  0  0  0  0  0  0  0
   -2.8290   -1.4112    4.6119 C   0  0  0  0  0  0  0  0  0  0  0  0
   -2.5800   -0.4130    5.5312 C   0  0  0  0  0  0  0  0  0  0  0  0
   -2.4684   -3.6172    3.7473 F   0  0  0  0  0  0  0  0  0  0  0  0
  1  2  1  0
  2  3  1  0
  3  4  1  0
  4  5  1  0
  5  6  1  0
  6  7  1  0
  7  8  2  0
  8  9  1  0
  9 10  2  0
 10 11  1  0
 11 12  2  0
 10 13  1  0
  6 14  1  0
  3 15  1  0
 15 16  1  0
 16 17  1  0
 17 18  1  0
 18 19  2  0
 18 20  1  0
 20 21  2  0
 21 22  1  0
 22 23  2  0
 23 24  1  0
 24 25  2  0
 23 26  1  0
  6  1  1  0
 12  7  1  0
 25 20  1  0
M  END
$$$$
