
     RDKit          3D

 26 28  0  0  0  0  0  0  0  0999 V2000
    1.7665    3.1812   13.1345 C   0  0  0  0  0  0  0  0  0  0  0  0
    0.7223    2.4434   12.3436 C   0  0  0  0  0  0  0  0  0  0  0  0
    0.3856    3.1310   11.1720 N   0  0  0  0  0  0  0  0  0  0  0  0
    0.3758    4.5351   11.1435 C   0  0  0  0  0  0  0  0  0  0  0  0
    0.3650    5.1691   12.5044 C   0  0  0  0  0  0  0  0  0  0  0  0
    1.4422    4.6023   13.4040 C   0  0  0  0  0  0  0  0  0  0  0  0
    0.9974    4.8694   14.7925 C   0  0  0  0  0  0  0  0  0  0  0  0
    0.5636    3.8945   15.6559 C   0  0  0  0  0  0  0  0  0  0  0  0
    0.1316    4.1942   16.9497 C   0  0  0  0  0  0  0  0  0  0  0  0
    0.1294    5.4912   17.4035 C   0  0  0  0  0  0  0  0  0  0  0  0
    0.5653    6.4883   16.5454 C   0  0  0  0  0  0  0  0  0  0  0  0
    0.9824    6.1790   15.2865 C   0  0  0  0  0  0  0  0  0  0  0  0
   -0.4145    5.8992   19.0297 Cl  0  0  0  0  0  0  0  0  0  0  0  0
    2.5871    5.4160   13.1759 O   0  0  0  0  0  0  0  0  0  0  0  0
    0.5848    2.4794    9.9167 C   0  0  0  0  0  0  0  0  0  0  0  0
   -0.7542    2.3294    9.2478 C   0  0  0  0  0  0  0  0  0  0  0  0
   -0.9862    1.0005    8.6041 C   0  0  0  0  0  0  0  0  0  0  0  0
   -0.3085    0.8006    7.3257 C   0  0  0  0  0  0  0  0  0  0  0  0
    0.6350    1.5509    6.9836 O   0  0  0  0  0  0  0  0  0  0  0  0
   -0.7193   -0.2711    6.4324 C   0  0  0  0  0  0  0  0  0  0  0  0
   -1.7689   -1.1083    6.7366 C   0  0  0  0  0  0  0  0  0  0  0  0
   -2.1759   -2.1292    5.8797 C   0  0  0  0  0  0  0  0  0  0  0  0
   -1.5214   -2.3279    4.6820 C   0  0  0  0  0  0  0  0  0  0  0  0
   -0.4704   -1.4894    4.3792 C   0  0  0  0  0  0  0  0  0  0  0  0
   -0.0686   -0.4785    5.2278 C   0  0  0  0  0  0  0  0  0  0  0  0
   -1.9051   -3.3264    3.8211 F   0  0  0  0  0  0  0  0  0  0  0  0
  1  2  1  0
  2  3  1  0
  3  4  1  0
  4  5  1  0
  5  6  1  0
  6  7  1  0
  7  8  2  0
  8  9  1  0
  9 10  2  0
 10 11  1  0
 11 12  2  0
 10 13  1  0
  6 14  1  0
  3 15  1  0
 15 16  1  0
 16 17  1  0
 17 18  1  0
 18 19  2  0
 18 20  1  0
 20 21  2  0
 21 22  1  0
 22 23  2  0
 23 24  1  0
 24 25  2  0
 23 26  1  0
  6  1  1  0
 12  7  1  0
 25 20  1  0
M  END
$$$$
