
     RDKit          3D

 26 28  0  0  0  0  0  0  0  0999 V2000
   -1.8129    2.9078    8.6292 C   0  0  0  0  0  0  0  0  0  0  0  0
   -1.3787    2.9785   10.0669 C   0  0  0  0  0  0  0  0  0  0  0  0
   -0.1434    3.6232   10.1984 N   0  0  0  0  0  0  0  0  0  0  0  0
    0.8440    3.4873    9.2089 C   0  0  0  0  0  0  0  0  0  0  0  0
    0.6082    2.3395    8.2705 C   0  0  0  0  0  0  0  0  0  0  0  0
   -0.7971    2.3446    7.7081 C   0  0  0  0  0  0  0  0  0  0  0  0
   -1.0718    0.9519    7.2817 C   0  0  0  0  0  0  0  0  0  0  0  0
   -1.4225    0.6005    6.0019 C   0  0  0  0  0  0  0  0  0  0  0  0
   -1.6948   -0.7229    5.6490 C   0  0  0  0  0  0  0  0  0  0  0  0
   -1.6174   -1.7265    6.5845 C   0  0  0  0  0  0  0  0  0  0  0  0
   -1.2636   -1.3898    7.8814 C   0  0  0  0  0  0  0  0  0  0  0  0
   -1.0023   -0.0942    8.2091 C   0  0  0  0  0  0  0  0  0  0  0  0
   -1.9600   -3.4047    6.1684 Cl  0  0  0  0  0  0  0  0  0  0  0  0
   -0.7235    3.1299    6.5236 O   0  0  0  0  0  0  0  0  0  0  0  0
   -0.0713    4.8039   10.9988 C   0  0  0  0  0  0  0  0  0  0  0  0
    0.1868    4.3911   12.4222 C   0  0  0  0  0  0  0  0  0  0  0  0
    1.6272    4.3889   12.8213 C   0  0  0  0  0  0  0  0  0  0  0  0
    2.0740    3.1959   13.5358 C   0  0  0  0  0  0  0  0  0  0  0  0
    1.5663    2.0783   13.2843 O   0  0  0  0  0  0  0  0  0  0  0  0
    3.1135    3.2885   14.5488 C   0  0  0  0  0  0  0  0  0  0  0  0
    3.4433    4.4851   15.1442 C   0  0  0  0  0  0  0  0  0  0  0  0
    4.4294    4.5791   16.1244 C   0  0  0  0  0  0  0  0  0  0  0  0
    5.1120    3.4507   16.5280 C   0  0  0  0  0  0  0  0  0  0  0  0
    4.7813    2.2536   15.9306 C   0  0  0  0  0  0  0  0  0  0  0  0
    3.8044    2.1613   14.9607 C   0  0  0  0  0  0  0  0  0  0  0  0
    6.0868    3.5184   17.4927 F   0  0  0  0  0  0  0  0  0  0  0  0
  1  2  1  0
  2  3  1  0
  3  4  1  0
  4  5  1  0
  5  6  1  0
  6  7  1  0
  7  8  2  0
  8  9  1  0
  9 10  2  0
 10 11  1  0
 11 12  2  0
 10 13  1  0
  6 14  1  0
  3 15  1  0
 15 16  1  0
 16 17  1  0
 17 18  1  0
 18 19  2  0
 18 20  1  0
 20 21  2  0
 21 22  1  0
 22 23  2  0
 23 24  1  0
 24 25  2  0
 23 26  1  0
  6  1  1  0
 12  7  1  0
 25 20  1  0
M  END
$$$$
