
     RDKit          3D

 26 28  0  0  0  0  0  0  0  0999 V2000
    1.2969    2.5483   12.8094 C   0  0  0  0  0  0  0  0  0  0  0  0
    0.3446    1.8340   11.8911 C   0  0  0  0  0  0  0  0  0  0  0  0
   -0.3306    2.7302   11.0545 N   0  0  0  0  0  0  0  0  0  0  0  0
   -0.6783    4.0122   11.5106 C   0  0  0  0  0  0  0  0  0  0  0  0
   -0.6199    4.1613   13.0034 C   0  0  0  0  0  0  0  0  0  0  0  0
    0.6919    3.6655   13.5731 C   0  0  0  0  0  0  0  0  0  0  0  0
    0.4264    3.3519   14.9973 C   0  0  0  0  0  0  0  0  0  0  0  0
   -0.7565    3.6349   15.6336 C   0  0  0  0  0  0  0  0  0  0  0  0
   -0.9556    3.3421   16.9844 C   0  0  0  0  0  0  0  0  0  0  0  0
    0.0396    2.7528   17.7265 C   0  0  0  0  0  0  0  0  0  0  0  0
    1.2401    2.4591   17.0999 C   0  0  0  0  0  0  0  0  0  0  0  0
    1.4183    2.7521   15.7820 C   0  0  0  0  0  0  0  0  0  0  0  0
   -0.1823    2.3761   19.4341 Cl  0  0  0  0  0  0  0  0  0  0  0  0
    1.5582    4.7943   13.5557 O   0  0  0  0  0  0  0  0  0  0  0  0
   -0.1874    2.5846    9.6409 C   0  0  0  0  0  0  0  0  0  0  0  0
   -0.0236    1.1212    9.3338 C   0  0  0  0  0  0  0  0  0  0  0  0
   -0.4765    0.7142    7.9688 C   0  0  0  0  0  0  0  0  0  0  0  0
   -0.9805   -0.6525    7.8611 C   0  0  0  0  0  0  0  0  0  0  0  0
   -1.0598   -1.3814    8.8773 O   0  0  0  0  0  0  0  0  0  0  0  0
   -1.3968   -1.1862    6.5738 C   0  0  0  0  0  0  0  0  0  0  0  0
   -1.7698   -2.5022    6.4191 C   0  0  0  0  0  0  0  0  0  0  0  0
   -2.1816   -3.0173    5.1914 C   0  0  0  0  0  0  0  0  0  0  0  0
   -2.2250   -2.2019    4.0798 C   0  0  0  0  0  0  0  0  0  0  0  0
   -1.8506   -0.8848    4.2360 C   0  0  0  0  0  0  0  0  0  0  0  0
   -1.4437   -0.3756    5.4520 C   0  0  0  0  0  0  0  0  0  0  0  0
   -2.6284   -2.6864    2.8600 F   0  0  0  0  0  0  0  0  0  0  0  0
  1  2  1  0
  2  3  1  0
  3  4  1  0
  4  5  1  0
  5  6  1  0
  6  7  1  0
  7  8  2  0
  8  9  1  0
  9 10  2  0
 10 11  1  0
 11 12  2  0
 10 13  1  0
  6 14  1  0
  3 15  1  0
 15 16  1  0
 16 17  1  0
 17 18  1  0
 18 19  2  0
 18 20  1  0
 20 21  2  0
 21 22  1  0
 22 23  2  0
 23 24  1  0
 24 25  2  0
 23 26  1  0
  6  1  1  0
 12  7  1  0
 25 20  1  0
M  END
$$$$
