
     RDKit          3D

 26 28  0  0  0  0  0  0  0  0999 V2000
    0.6236    4.6186   12.9803 C   0  0  0  0  0  0  0  0  0  0  0  0
    0.0535    3.7856   11.8661 C   0  0  0  0  0  0  0  0  0  0  0  0
    0.5730    2.4860   11.8800 N   0  0  0  0  0  0  0  0  0  0  0  0
    1.8984    2.2490   12.2796 C   0  0  0  0  0  0  0  0  0  0  0  0
    2.7565    3.4808   12.2953 C   0  0  0  0  0  0  0  0  0  0  0  0
    2.1042    4.6182   13.0515 C   0  0  0  0  0  0  0  0  0  0  0  0
    2.7353    5.8604   12.5455 C   0  0  0  0  0  0  0  0  0  0  0  0
    3.8687    5.8801   11.7714 C   0  0  0  0  0  0  0  0  0  0  0  0
    4.4428    7.0760   11.3350 C   0  0  0  0  0  0  0  0  0  0  0  0
    3.8820    8.2847   11.6709 C   0  0  0  0  0  0  0  0  0  0  0  0
    2.7367    8.2834   12.4511 C   0  0  0  0  0  0  0  0  0  0  0  0
    2.1901    7.1083   12.8691 C   0  0  0  0  0  0  0  0  0  0  0  0
    4.5876    9.8095   11.1379 Cl  0  0  0  0  0  0  0  0  0  0  0  0
    2.5281    4.4625   14.4009 O   0  0  0  0  0  0  0  0  0  0  0  0
   -0.3318    1.3906   12.0260 C   0  0  0  0  0  0  0  0  0  0  0  0
   -1.2645    1.3914   10.8458 C   0  0  0  0  0  0  0  0  0  0  0  0
   -0.7149    0.7474    9.6140 C   0  0  0  0  0  0  0  0  0  0  0  0
   -1.7134    0.2103    8.6931 C   0  0  0  0  0  0  0  0  0  0  0  0
   -2.9068    0.0848    9.0540 O   0  0  0  0  0  0  0  0  0  0  0  0
   -1.3367   -0.1862    7.3455 C   0  0  0  0  0  0  0  0  0  0  0  0
   -0.2556    0.3701    6.6999 C   0  0  0  0  0  0  0  0  0  0  0  0
    0.1186   -0.0141    5.4136 C   0  0  0  0  0  0  0  0  0  0  0  0
   -0.6022   -0.9809    4.7443 C   0  0  0  0  0  0  0  0  0  0  0  0
   -1.6846   -1.5365    5.3916 C   0  0  0  0  0  0  0  0  0  0  0  0
   -2.0539   -1.1561    6.6653 C   0  0  0  0  0  0  0  0  0  0  0  0
   -0.2519   -1.3765    3.4769 F   0  0  0  0  0  0  0  0  0  0  0  0
  1  2  1  0
  2  3  1  0
  3  4  1  0
  4  5  1  0
  5  6  1  0
  6  7  1  0
  7  8  2  0
  8  9  1  0
  9 10  2  0
 10 11  1  0
 11 12  2  0
 10 13  1  0
  6 14  1  0
  3 15  1  0
 15 16  1  0
 16 17  1  0
 17 18  1  0
 18 19  2  0
 18 20  1  0
 20 21  2  0
 21 22  1  0
 22 23  2  0
 23 24  1  0
 24 25  2  0
 23 26  1  0
  6  1  1  0
 12  7  1  0
 25 20  1  0
M  END
$$$$
