
     RDKit          3D

 26 28  0  0  0  0  0  0  0  0999 V2000
    1.2819    3.3461   12.2877 C   0  0  0  0  0  0  0  0  0  0  0  0
    0.0325    3.0635   11.5007 C   0  0  0  0  0  0  0  0  0  0  0  0
    0.0477    3.7158   10.2625 N   0  0  0  0  0  0  0  0  0  0  0  0
    0.6528    4.9758   10.1245 C   0  0  0  0  0  0  0  0  0  0  0  0
    0.8993    5.6763   11.4292 C   0  0  0  0  0  0  0  0  0  0  0  0
    1.6069    4.7856   12.4277 C   0  0  0  0  0  0  0  0  0  0  0  0
    1.3024    5.3481   13.7649 C   0  0  0  0  0  0  0  0  0  0  0  0
    1.2420    6.6933   14.0314 C   0  0  0  0  0  0  0  0  0  0  0  0
    0.9738    7.1798   15.3126 C   0  0  0  0  0  0  0  0  0  0  0  0
    0.7582    6.3149   16.3584 C   0  0  0  0  0  0  0  0  0  0  0  0
    0.8144    4.9532   16.1071 C   0  0  0  0  0  0  0  0  0  0  0  0
    1.0781    4.4954   14.8520 C   0  0  0  0  0  0  0  0  0  0  0  0
    0.4221    6.9008   17.9865 Cl  0  0  0  0  0  0  0  0  0  0  0  0
    2.9956    4.9969   12.1998 O   0  0  0  0  0  0  0  0  0  0  0  0
   -0.0387    2.9278    9.0745 C   0  0  0  0  0  0  0  0  0  0  0  0
   -1.0031    1.8013    9.3274 C   0  0  0  0  0  0  0  0  0  0  0  0
   -1.4304    1.0574    8.1034 C   0  0  0  0  0  0  0  0  0  0  0  0
   -0.8586   -0.2784    7.9546 C   0  0  0  0  0  0  0  0  0  0  0  0
   -0.0406   -0.7158    8.7971 O   0  0  0  0  0  0  0  0  0  0  0  0
   -1.2302   -1.1188    6.8273 C   0  0  0  0  0  0  0  0  0  0  0  0
   -2.0059   -0.6459    5.7931 C   0  0  0  0  0  0  0  0  0  0  0  0
   -2.3554   -1.4417    4.7037 C   0  0  0  0  0  0  0  0  0  0  0  0
   -1.9227   -2.7496    4.6368 C   0  0  0  0  0  0  0  0  0  0  0  0
   -1.1469   -3.2219    5.6732 C   0  0  0  0  0  0  0  0  0  0  0  0
   -0.8008   -2.4331    6.7510 C   0  0  0  0  0  0  0  0  0  0  0  0
   -2.2533   -3.5525    3.5731 F   0  0  0  0  0  0  0  0  0  0  0  0
  1  2  1  0
  2  3  1  0
  3  4  1  0
  4  5  1  0
  5  6  1  0
  6  7  1  0
  7  8  2  0
  8  9  1  0
  9 10  2  0
 10 11  1  0
 11 12  2  0
 10 13  1  0
  6 14  1  0
  3 15  1  0
 15 16  1  0
 16 17  1  0
 17 18  1  0
 18 19  2  0
 18 20  1  0
 20 21  2  0
 21 22  1  0
 22 23  2  0
 23 24  1  0
 24 25  2  0
 23 26  1  0
  6  1  1  0
 12  7  1  0
 25 20  1  0
M  END
$$$$
