
     RDKit          3D

 26 28  0  0  0  0  0  0  0  0999 V2000
   -1.5935    2.1316    8.9360 C   0  0  0  0  0  0  0  0  0  0  0  0
   -0.9422    1.8382   10.2589 C   0  0  0  0  0  0  0  0  0  0  0  0
    0.3268    2.4221   10.3465 N   0  0  0  0  0  0  0  0  0  0  0  0
    1.1444    2.5318    9.2098 C   0  0  0  0  0  0  0  0  0  0  0  0
    0.7161    1.6564    8.0679 C   0  0  0  0  0  0  0  0  0  0  0  0
   -0.7569    1.8105    7.7551 C   0  0  0  0  0  0  0  0  0  0  0  0
   -1.1567    0.5701    7.0488 C   0  0  0  0  0  0  0  0  0  0  0  0
   -1.5766    0.5373    5.7424 C   0  0  0  0  0  0  0  0  0  0  0  0
   -1.9660   -0.6521    5.1227 C   0  0  0  0  0  0  0  0  0  0  0  0
   -1.9387   -1.8411    5.8111 C   0  0  0  0  0  0  0  0  0  0  0  0
   -1.5164   -1.8265    7.1309 C   0  0  0  0  0  0  0  0  0  0  0  0
   -1.1409   -0.6578    7.7205 C   0  0  0  0  0  0  0  0  0  0  0  0
   -2.4287   -3.3564    5.0558 Cl  0  0  0  0  0  0  0  0  0  0  0  0
   -0.8293    2.8663    6.8039 O   0  0  0  0  0  0  0  0  0  0  0  0
    0.5740    3.3648   11.3905 C   0  0  0  0  0  0  0  0  0  0  0  0
    2.0605    3.4474   11.6063 C   0  0  0  0  0  0  0  0  0  0  0  0
    2.5226    2.9972   12.9546 C   0  0  0  0  0  0  0  0  0  0  0  0
    3.2410    4.0018   13.7346 C   0  0  0  0  0  0  0  0  0  0  0  0
    3.4381    5.1471   13.2660 O   0  0  0  0  0  0  0  0  0  0  0  0
    3.7374    3.6868   15.0648 C   0  0  0  0  0  0  0  0  0  0  0  0
    3.5607    2.4447   15.6310 C   0  0  0  0  0  0  0  0  0  0  0  0
    4.0446    2.1320   16.9000 C   0  0  0  0  0  0  0  0  0  0  0  0
    4.7258    3.0815   17.6327 C   0  0  0  0  0  0  0  0  0  0  0  0
    4.9014    4.3248   17.0649 C   0  0  0  0  0  0  0  0  0  0  0  0
    4.4226    4.6332   15.8082 C   0  0  0  0  0  0  0  0  0  0  0  0
    5.2128    2.7964   18.8845 F   0  0  0  0  0  0  0  0  0  0  0  0
  1  2  1  0
  2  3  1  0
  3  4  1  0
  4  5  1  0
  5  6  1  0
  6  7  1  0
  7  8  2  0
  8  9  1  0
  9 10  2  0
 10 11  1  0
 11 12  2  0
 10 13  1  0
  6 14  1  0
  3 15  1  0
 15 16  1  0
 16 17  1  0
 17 18  1  0
 18 19  2  0
 18 20  1  0
 20 21  2  0
 21 22  1  0
 22 23  2  0
 23 24  1  0
 24 25  2  0
 23 26  1  0
  6  1  1  0
 12  7  1  0
 25 20  1  0
M  END
$$$$
