
     RDKit          3D

 21 22  0  0  0  0  0  0  0  0999 V2000
    5.7251   -3.0577    5.5027 C   0  0  0  0  0  0  0  0  0  0  0  0
    5.0139   -4.2220    6.1950 C   0  0  0  0  0  0  0  0  0  0  0  0
    5.8993   -4.9426    7.1569 C   0  0  0  0  0  0  0  0  0  0  0  0
    4.6932   -5.2466    5.0766 C   0  0  0  0  0  0  0  0  0  0  0  0
    3.7565   -3.7974    6.6869 N   0  0  0  0  0  0  0  0  0  0  0  0
    3.7018   -3.0088    7.8586 C   0  0  0  0  0  0  0  0  0  0  0  0
    2.3313   -2.8675    8.4855 C   0  0  0  0  0  0  0  0  0  0  0  0
    2.4643   -2.5100    9.9616 C   0  0  0  0  0  0  0  0  0  0  0  0
    1.5932   -1.5671   10.4217 O   0  0  0  0  0  0  0  0  0  0  0  0
    1.6219   -0.9831   11.6836 C   0  0  0  0  0  0  0  0  0  0  0  0
    2.8261   -1.0095   12.4692 N   0  0  0  0  0  0  0  0  0  0  0  0
    2.4172   -0.1951   13.9326 S   0  0  0  0  0  0  0  0  0  0  0  0
    0.7498    0.1337   13.4724 N   0  0  0  0  0  0  0  0  0  0  0  0
    0.5860   -0.3824   12.2492 C   0  0  0  0  0  0  0  0  0  0  0  0
   -0.7284   -0.2501   11.6132 N   0  0  0  0  0  0  0  0  0  0  0  0
   -1.2018   -1.1892   10.6316 C   0  0  0  0  0  0  0  0  0  0  0  0
   -1.6073   -0.3989    9.4045 C   0  0  0  0  0  0  0  0  0  0  0  0
   -2.2039    0.8029    9.6909 O   0  0  0  0  0  0  0  0  0  0  0  0
   -2.7532    0.8563   10.9681 C   0  0  0  0  0  0  0  0  0  0  0  0
   -1.6035    0.8410   11.9541 C   0  0  0  0  0  0  0  0  0  0  0  0
    1.6635   -1.8986    7.7742 O   0  0  0  0  0  0  0  0  0  0  0  0
  1  2  1  0
  2  3  1  0
  2  4  1  0
  2  5  1  0
  5  6  1  0
  6  7  1  0
  7  8  1  0
  8  9  1  0
  9 10  1  0
 10 11  2  0
 11 12  1  0
 12 13  1  0
 13 14  2  0
 14 15  1  0
 15 16  1  0
 16 17  1  0
 17 18  1  0
 18 19  1  0
 19 20  1  0
  7 21  1  0
 14 10  1  0
 20 15  1  0
M  END
$$$$
