
     RDKit          3D

 21 22  0  0  0  0  0  0  0  0999 V2000
    4.5496   -6.3408    6.0648 C   0  0  0  0  0  0  0  0  0  0  0  0
    5.0380   -4.9086    5.8385 C   0  0  0  0  0  0  0  0  0  0  0  0
    4.0612   -4.0867    5.0647 C   0  0  0  0  0  0  0  0  0  0  0  0
    6.2911   -5.0275    4.9334 C   0  0  0  0  0  0  0  0  0  0  0  0
    5.5051   -4.3586    7.0560 N   0  0  0  0  0  0  0  0  0  0  0  0
    4.5815   -4.0780    8.0886 C   0  0  0  0  0  0  0  0  0  0  0  0
    5.1771   -3.5093    9.3586 C   0  0  0  0  0  0  0  0  0  0  0  0
    4.1697   -3.6058   10.4990 C   0  0  0  0  0  0  0  0  0  0  0  0
    3.1796   -2.6682   10.4933 O   0  0  0  0  0  0  0  0  0  0  0  0
    3.0025   -1.6696   11.4450 C   0  0  0  0  0  0  0  0  0  0  0  0
    4.0789   -1.3078   12.3274 N   0  0  0  0  0  0  0  0  0  0  0  0
    3.4318   -0.0605   13.3259 S   0  0  0  0  0  0  0  0  0  0  0  0
    1.8392   -0.0643   12.5750 N   0  0  0  0  0  0  0  0  0  0  0  0
    1.8745   -0.9976   11.6174 C   0  0  0  0  0  0  0  0  0  0  0  0
    0.6636   -1.2166   10.8203 N   0  0  0  0  0  0  0  0  0  0  0  0
    0.4640   -2.4111   10.0438 C   0  0  0  0  0  0  0  0  0  0  0  0
    0.1498   -1.9838    8.6247 C   0  0  0  0  0  0  0  0  0  0  0  0
   -0.6295   -0.8574    8.5443 O   0  0  0  0  0  0  0  0  0  0  0  0
   -1.3654   -0.6115    9.6992 C   0  0  0  0  0  0  0  0  0  0  0  0
   -0.3830   -0.2287   10.7866 C   0  0  0  0  0  0  0  0  0  0  0  0
    6.3244   -4.2217    9.6170 O   0  0  0  0  0  0  0  0  0  0  0  0
  1  2  1  0
  2  3  1  0
  2  4  1  0
  2  5  1  0
  5  6  1  0
  6  7  1  0
  7  8  1  0
  8  9  1  0
  9 10  1  0
 10 11  2  0
 11 12  1  0
 12 13  1  0
 13 14  2  0
 14 15  1  0
 15 16  1  0
 16 17  1  0
 17 18  1  0
 18 19  1  0
 19 20  1  0
  7 21  1  0
 14 10  1  0
 20 15  1  0
M  END
$$$$
