
     RDKit          3D

 21 22  0  0  0  0  0  0  0  0999 V2000
    6.2990   -5.3019    5.2657 C   0  0  0  0  0  0  0  0  0  0  0  0
    5.3433   -5.3769    6.4580 C   0  0  0  0  0  0  0  0  0  0  0  0
    5.5325   -6.6181    7.2656 C   0  0  0  0  0  0  0  0  0  0  0  0
    3.9202   -5.4870    5.8528 C   0  0  0  0  0  0  0  0  0  0  0  0
    5.3562   -4.1517    7.1664 N   0  0  0  0  0  0  0  0  0  0  0  0
    4.7144   -4.0717    8.4232 C   0  0  0  0  0  0  0  0  0  0  0  0
    4.7364   -2.7084    9.0804 C   0  0  0  0  0  0  0  0  0  0  0  0
    3.7913   -2.6877   10.2767 C   0  0  0  0  0  0  0  0  0  0  0  0
    2.7043   -1.8731   10.1566 O   0  0  0  0  0  0  0  0  0  0  0  0
    1.7719   -1.6121   11.1549 C   0  0  0  0  0  0  0  0  0  0  0  0
    2.0089   -2.0519   12.5034 N   0  0  0  0  0  0  0  0  0  0  0  0
    0.6233   -1.5326   13.3878 S   0  0  0  0  0  0  0  0  0  0  0  0
   -0.1784   -0.7893   12.0075 N   0  0  0  0  0  0  0  0  0  0  0  0
    0.6315   -0.9682   10.9580 C   0  0  0  0  0  0  0  0  0  0  0  0
    0.2058   -0.4404    9.6581 N   0  0  0  0  0  0  0  0  0  0  0  0
   -0.9001    0.4703    9.5267 C   0  0  0  0  0  0  0  0  0  0  0  0
   -1.8560   -0.1187    8.5097 C   0  0  0  0  0  0  0  0  0  0  0  0
   -1.2326   -0.7506    7.4635 O   0  0  0  0  0  0  0  0  0  0  0  0
    0.0796   -0.3314    7.2681 C   0  0  0  0  0  0  0  0  0  0  0  0
    0.8901   -0.8214    8.4502 C   0  0  0  0  0  0  0  0  0  0  0  0
    6.0392   -2.4595    9.4430 O   0  0  0  0  0  0  0  0  0  0  0  0
  1  2  1  0
  2  3  1  0
  2  4  1  0
  2  5  1  0
  5  6  1  0
  6  7  1  0
  7  8  1  0
  8  9  1  0
  9 10  1  0
 10 11  2  0
 11 12  1  0
 12 13  1  0
 13 14  2  0
 14 15  1  0
 15 16  1  0
 16 17  1  0
 17 18  1  0
 18 19  1  0
 19 20  1  0
  7 21  1  0
 14 10  1  0
 20 15  1  0
M  END
$$$$
