
     RDKit          3D

 21 22  0  0  0  0  0  0  0  0999 V2000
    5.3470   -4.9341    7.4338 C   0  0  0  0  0  0  0  0  0  0  0  0
    4.9413   -3.9172    6.3651 C   0  0  0  0  0  0  0  0  0  0  0  0
    5.1055   -4.4475    4.9793 C   0  0  0  0  0  0  0  0  0  0  0  0
    5.9538   -2.7495    6.4867 C   0  0  0  0  0  0  0  0  0  0  0  0
    3.6815   -3.3565    6.6840 N   0  0  0  0  0  0  0  0  0  0  0  0
    3.4611   -2.8422    7.9820 C   0  0  0  0  0  0  0  0  0  0  0  0
    2.0509   -2.3711    8.2654 C   0  0  0  0  0  0  0  0  0  0  0  0
    1.8493   -2.1930    9.7662 C   0  0  0  0  0  0  0  0  0  0  0  0
    0.9690   -1.2179   10.1322 O   0  0  0  0  0  0  0  0  0  0  0  0
    0.8151   -0.7040   11.4153 C   0  0  0  0  0  0  0  0  0  0  0  0
    1.8828   -0.8087   12.3729 N   0  0  0  0  0  0  0  0  0  0  0  0
    1.2706   -0.0626   13.8012 S   0  0  0  0  0  0  0  0  0  0  0  0
   -0.2985    0.3404   13.1114 N   0  0  0  0  0  0  0  0  0  0  0  0
   -0.2826   -0.1039   11.8498 C   0  0  0  0  0  0  0  0  0  0  0  0
   -1.4800    0.1019   11.0290 N   0  0  0  0  0  0  0  0  0  0  0  0
   -1.7689   -0.7125    9.8789 C   0  0  0  0  0  0  0  0  0  0  0  0
   -1.9885    0.2197    8.7051 C   0  0  0  0  0  0  0  0  0  0  0  0
   -2.6491    1.3770    9.0318 O   0  0  0  0  0  0  0  0  0  0  0  0
   -3.3978    1.2744   10.2000 C   0  0  0  0  0  0  0  0  0  0  0  0
   -2.4218    1.1421   11.3508 C   0  0  0  0  0  0  0  0  0  0  0  0
    1.8748   -1.1956    7.5743 O   0  0  0  0  0  0  0  0  0  0  0  0
  1  2  1  0
  2  3  1  0
  2  4  1  0
  2  5  1  0
  5  6  1  0
  6  7  1  0
  7  8  1  0
  8  9  1  0
  9 10  1  0
 10 11  2  0
 11 12  1  0
 12 13  1  0
 13 14  2  0
 14 15  1  0
 15 16  1  0
 16 17  1  0
 17 18  1  0
 18 19  1  0
 19 20  1  0
  7 21  1  0
 14 10  1  0
 20 15  1  0
M  END
$$$$
