
     RDKit          3D

 21 22  0  0  0  0  0  0  0  0999 V2000
   -0.1697    1.1324   11.8860 C   0  0  0  0  0  0  0  0  0  0  0  0
   -1.2787    0.2253   11.3493 C   0  0  0  0  0  0  0  0  0  0  0  0
   -2.4145    0.9962   10.7628 C   0  0  0  0  0  0  0  0  0  0  0  0
   -1.8646   -0.5030   12.5862 C   0  0  0  0  0  0  0  0  0  0  0  0
   -0.7213   -0.7948   10.5422 N   0  0  0  0  0  0  0  0  0  0  0  0
    0.4707   -1.4318   10.9563 C   0  0  0  0  0  0  0  0  0  0  0  0
    0.9831   -2.5178   10.0348 C   0  0  0  0  0  0  0  0  0  0  0  0
    2.3806   -2.9522   10.4627 C   0  0  0  0  0  0  0  0  0  0  0  0
    3.2422   -3.2516    9.4490 O   0  0  0  0  0  0  0  0  0  0  0  0
    4.4466   -3.9339    9.5830 C   0  0  0  0  0  0  0  0  0  0  0  0
    5.0658   -4.0684   10.8741 N   0  0  0  0  0  0  0  0  0  0  0  0
    6.5118   -4.9598   10.5802 S   0  0  0  0  0  0  0  0  0  0  0  0
    6.2554   -5.1135    8.8451 N   0  0  0  0  0  0  0  0  0  0  0  0
    5.1025   -4.4906    8.5762 C   0  0  0  0  0  0  0  0  0  0  0  0
    4.6388   -4.4642    7.1856 N   0  0  0  0  0  0  0  0  0  0  0  0
    5.2608   -5.2533    6.1560 C   0  0  0  0  0  0  0  0  0  0  0  0
    5.6376   -4.3143    5.0285 C   0  0  0  0  0  0  0  0  0  0  0  0
    4.7205   -3.3184    4.8060 O   0  0  0  0  0  0  0  0  0  0  0  0
    3.4495   -3.6215    5.2841 C   0  0  0  0  0  0  0  0  0  0  0  0
    3.5282   -3.6347    6.7967 C   0  0  0  0  0  0  0  0  0  0  0  0
    0.0777   -3.5511   10.0912 O   0  0  0  0  0  0  0  0  0  0  0  0
  1  2  1  0
  2  3  1  0
  2  4  1  0
  2  5  1  0
  5  6  1  0
  6  7  1  0
  7  8  1  0
  8  9  1  0
  9 10  1  0
 10 11  2  0
 11 12  1  0
 12 13  1  0
 13 14  2  0
 14 15  1  0
 15 16  1  0
 16 17  1  0
 17 18  1  0
 18 19  1  0
 19 20  1  0
  7 21  1  0
 14 10  1  0
 20 15  1  0
M  END
$$$$
