
     RDKit          3D

 21 22  0  0  0  0  0  0  0  0999 V2000
    4.5279   -5.8841    6.2464 C   0  0  0  0  0  0  0  0  0  0  0  0
    4.8726   -4.4152    5.9923 C   0  0  0  0  0  0  0  0  0  0  0  0
    5.0915   -4.1211    4.5452 C   0  0  0  0  0  0  0  0  0  0  0  0
    6.2430   -4.1781    6.6773 C   0  0  0  0  0  0  0  0  0  0  0  0
    3.9603   -3.5784    6.6783 N   0  0  0  0  0  0  0  0  0  0  0  0
    3.6288   -3.8695    8.0212 C   0  0  0  0  0  0  0  0  0  0  0  0
    2.5355   -3.0128    8.6228 C   0  0  0  0  0  0  0  0  0  0  0  0
    2.8220   -2.7571   10.0983 C   0  0  0  0  0  0  0  0  0  0  0  0
    1.9897   -1.8715   10.7166 O   0  0  0  0  0  0  0  0  0  0  0  0
    2.3287   -1.0515   11.7875 C   0  0  0  0  0  0  0  0  0  0  0  0
    3.6738   -1.0395   12.2961 N   0  0  0  0  0  0  0  0  0  0  0  0
    3.6440    0.0893   13.5986 S   0  0  0  0  0  0  0  0  0  0  0  0
    1.9363    0.4838   13.4297 N   0  0  0  0  0  0  0  0  0  0  0  0
    1.4779   -0.2488   12.4087 C   0  0  0  0  0  0  0  0  0  0  0  0
    0.0645   -0.1165   12.0423 N   0  0  0  0  0  0  0  0  0  0  0  0
   -0.5982   -1.0684   11.1913 C   0  0  0  0  0  0  0  0  0  0  0  0
   -1.2343   -0.2961   10.0539 C   0  0  0  0  0  0  0  0  0  0  0  0
   -1.7567    0.9155   10.4299 O   0  0  0  0  0  0  0  0  0  0  0  0
   -2.0425    0.9957   11.7892 C   0  0  0  0  0  0  0  0  0  0  0  0
   -0.7207    0.9878   12.5289 C   0  0  0  0  0  0  0  0  0  0  0  0
    2.4915   -1.8485    7.8926 O   0  0  0  0  0  0  0  0  0  0  0  0
  1  2  1  0
  2  3  1  0
  2  4  1  0
  2  5  1  0
  5  6  1  0
  6  7  1  0
  7  8  1  0
  8  9  1  0
  9 10  1  0
 10 11  2  0
 11 12  1  0
 12 13  1  0
 13 14  2  0
 14 15  1  0
 15 16  1  0
 16 17  1  0
 17 18  1  0
 18 19  1  0
 19 20  1  0
  7 21  1  0
 14 10  1  0
 20 15  1  0
M  END
$$$$
