
     RDKit          3D

 21 22  0  0  0  0  0  0  0  0999 V2000
    5.5618   -3.4956    6.4003 C   0  0  0  0  0  0  0  0  0  0  0  0
    4.3566   -4.3820    6.0797 C   0  0  0  0  0  0  0  0  0  0  0  0
    4.7018   -5.8343    6.0671 C   0  0  0  0  0  0  0  0  0  0  0  0
    3.9540   -4.0372    4.6228 C   0  0  0  0  0  0  0  0  0  0  0  0
    3.2500   -4.0004    6.8752 N   0  0  0  0  0  0  0  0  0  0  0  0
    2.8289   -2.6511    6.8742 C   0  0  0  0  0  0  0  0  0  0  0  0
    1.6560   -2.3339    7.7768 C   0  0  0  0  0  0  0  0  0  0  0  0
    2.0498   -1.2673    8.7927 C   0  0  0  0  0  0  0  0  0  0  0  0
    2.4582   -1.7316   10.0081 O   0  0  0  0  0  0  0  0  0  0  0  0
    2.3985   -1.0289   11.2068 C   0  0  0  0  0  0  0  0  0  0  0  0
    1.3466   -0.0760   11.4388 N   0  0  0  0  0  0  0  0  0  0  0  0
    1.6578    0.5512   13.0141 S   0  0  0  0  0  0  0  0  0  0  0  0
    3.0975   -0.4232   13.2930 N   0  0  0  0  0  0  0  0  0  0  0  0
    3.2703   -1.1663   12.1942 C   0  0  0  0  0  0  0  0  0  0  0  0
    4.4123   -2.0848   12.1531 N   0  0  0  0  0  0  0  0  0  0  0  0
    5.1885   -2.3940   13.3241 C   0  0  0  0  0  0  0  0  0  0  0  0
    6.6408   -2.1174   12.9932 C   0  0  0  0  0  0  0  0  0  0  0  0
    6.9909   -2.4532   11.7098 O   0  0  0  0  0  0  0  0  0  0  0  0
    6.1416   -3.3925   11.1336 C   0  0  0  0  0  0  0  0  0  0  0  0
    4.8021   -2.7183   10.9205 C   0  0  0  0  0  0  0  0  0  0  0  0
    0.6253   -1.9228    6.9648 O   0  0  0  0  0  0  0  0  0  0  0  0
  1  2  1  0
  2  3  1  0
  2  4  1  0
  2  5  1  0
  5  6  1  0
  6  7  1  0
  7  8  1  0
  8  9  1  0
  9 10  1  0
 10 11  2  0
 11 12  1  0
 12 13  1  0
 13 14  2  0
 14 15  1  0
 15 16  1  0
 16 17  1  0
 17 18  1  0
 18 19  1  0
 19 20  1  0
  7 21  1  0
 14 10  1  0
 20 15  1  0
M  END
$$$$
