
     RDKit          3D

 21 22  0  0  0  0  0  0  0  0999 V2000
    4.5622   -4.9884    4.7948 C   0  0  0  0  0  0  0  0  0  0  0  0
    4.7621   -4.3082    6.1506 C   0  0  0  0  0  0  0  0  0  0  0  0
    5.8475   -3.2838    6.1222 C   0  0  0  0  0  0  0  0  0  0  0  0
    5.2622   -5.4181    7.1106 C   0  0  0  0  0  0  0  0  0  0  0  0
    3.5136   -3.8945    6.6732 N   0  0  0  0  0  0  0  0  0  0  0  0
    3.4488   -2.7302    7.4720 C   0  0  0  0  0  0  0  0  0  0  0  0
    2.0979   -2.4377    8.0889 C   0  0  0  0  0  0  0  0  0  0  0  0
    2.2584   -2.1022    9.5675 C   0  0  0  0  0  0  0  0  0  0  0  0
    1.2088   -1.4482   10.1421 O   0  0  0  0  0  0  0  0  0  0  0  0
    1.1745   -0.9530   11.4412 C   0  0  0  0  0  0  0  0  0  0  0  0
    2.3630   -0.9543   12.2509 N   0  0  0  0  0  0  0  0  0  0  0  0
    1.8730   -0.2728   13.7566 S   0  0  0  0  0  0  0  0  0  0  0  0
    0.1959   -0.0238   13.2815 N   0  0  0  0  0  0  0  0  0  0  0  0
    0.0901   -0.4631   12.0225 C   0  0  0  0  0  0  0  0  0  0  0  0
   -1.2182   -0.3740   11.3667 N   0  0  0  0  0  0  0  0  0  0  0  0
   -1.5923   -1.2435   10.2834 C   0  0  0  0  0  0  0  0  0  0  0  0
   -2.0388   -0.3678    9.1307 C   0  0  0  0  0  0  0  0  0  0  0  0
   -2.7394    0.7460    9.5192 O   0  0  0  0  0  0  0  0  0  0  0  0
   -3.3158    0.6239   10.7797 C   0  0  0  0  0  0  0  0  0  0  0  0
   -2.1881    0.6018   11.7907 C   0  0  0  0  0  0  0  0  0  0  0  0
    1.5491   -1.3974    7.3767 O   0  0  0  0  0  0  0  0  0  0  0  0
  1  2  1  0
  2  3  1  0
  2  4  1  0
  2  5  1  0
  5  6  1  0
  6  7  1  0
  7  8  1  0
  8  9  1  0
  9 10  1  0
 10 11  2  0
 11 12  1  0
 12 13  1  0
 13 14  2  0
 14 15  1  0
 15 16  1  0
 16 17  1  0
 17 18  1  0
 18 19  1  0
 19 20  1  0
  7 21  1  0
 14 10  1  0
 20 15  1  0
M  END
$$$$
