
     RDKit          3D

 21 22  0  0  0  0  0  0  0  0999 V2000
   -3.0350    0.6906   10.4376 C   0  0  0  0  0  0  0  0  0  0  0  0
   -1.9533   -0.1383   11.1331 C   0  0  0  0  0  0  0  0  0  0  0  0
   -2.5026   -1.3633   11.7858 C   0  0  0  0  0  0  0  0  0  0  0  0
   -1.4210    0.7465   12.2895 C   0  0  0  0  0  0  0  0  0  0  0  0
   -0.8516   -0.3229   10.2641 N   0  0  0  0  0  0  0  0  0  0  0  0
    0.2703   -1.0557   10.7142 C   0  0  0  0  0  0  0  0  0  0  0  0
    1.4280   -1.1368    9.7426 C   0  0  0  0  0  0  0  0  0  0  0  0
    2.3548   -2.2851   10.1261 C   0  0  0  0  0  0  0  0  0  0  0  0
    3.2666   -2.6494    9.1799 O   0  0  0  0  0  0  0  0  0  0  0  0
    4.4572   -3.3272    9.4191 C   0  0  0  0  0  0  0  0  0  0  0  0
    5.1372   -3.1795   10.6777 N   0  0  0  0  0  0  0  0  0  0  0  0
    6.5415   -4.1698   10.5404 S   0  0  0  0  0  0  0  0  0  0  0  0
    6.1933   -4.7154    8.9029 N   0  0  0  0  0  0  0  0  0  0  0  0
    5.0458   -4.1289    8.5446 C   0  0  0  0  0  0  0  0  0  0  0  0
    4.5129   -4.4108    7.2081 N   0  0  0  0  0  0  0  0  0  0  0  0
    5.1931   -5.2734    6.2791 C   0  0  0  0  0  0  0  0  0  0  0  0
    5.3666   -4.5028    4.9864 C   0  0  0  0  0  0  0  0  0  0  0  0
    4.3001   -3.6988    4.6725 O   0  0  0  0  0  0  0  0  0  0  0  0
    3.1151   -4.0875    5.2893 C   0  0  0  0  0  0  0  0  0  0  0  0
    3.2720   -3.8250    6.7728 C   0  0  0  0  0  0  0  0  0  0  0  0
    0.8879   -1.3015    8.4888 O   0  0  0  0  0  0  0  0  0  0  0  0
  1  2  1  0
  2  3  1  0
  2  4  1  0
  2  5  1  0
  5  6  1  0
  6  7  1  0
  7  8  1  0
  8  9  1  0
  9 10  1  0
 10 11  2  0
 11 12  1  0
 12 13  1  0
 13 14  2  0
 14 15  1  0
 15 16  1  0
 16 17  1  0
 17 18  1  0
 18 19  1  0
 19 20  1  0
  7 21  1  0
 14 10  1  0
 20 15  1  0
M  END
$$$$
