
     RDKit          3D

 21 22  0  0  0  0  0  0  0  0999 V2000
    6.6653   -4.3407    6.3158 C   0  0  0  0  0  0  0  0  0  0  0  0
    5.3676   -4.9777    6.8166 C   0  0  0  0  0  0  0  0  0  0  0  0
    5.5838   -6.3362    7.3965 C   0  0  0  0  0  0  0  0  0  0  0  0
    4.4910   -5.1975    5.5569 C   0  0  0  0  0  0  0  0  0  0  0  0
    4.6520   -4.0542    7.6154 N   0  0  0  0  0  0  0  0  0  0  0  0
    5.3649   -3.1430    8.4275 C   0  0  0  0  0  0  0  0  0  0  0  0
    4.5204   -2.1149    9.1493 C   0  0  0  0  0  0  0  0  0  0  0  0
    3.3775   -2.8013    9.8891 C   0  0  0  0  0  0  0  0  0  0  0  0
    2.1591   -2.1982    9.7834 O   0  0  0  0  0  0  0  0  0  0  0  0
    1.3261   -1.8609   10.8448 C   0  0  0  0  0  0  0  0  0  0  0  0
    1.5170   -2.4613   12.1375 N   0  0  0  0  0  0  0  0  0  0  0  0
    0.2854   -1.7755   13.1297 S   0  0  0  0  0  0  0  0  0  0  0  0
   -0.4023   -0.7693   11.8590 N   0  0  0  0  0  0  0  0  0  0  0  0
    0.3246   -0.9986   10.7597 C   0  0  0  0  0  0  0  0  0  0  0  0
   -0.0331   -0.2812    9.5321 N   0  0  0  0  0  0  0  0  0  0  0  0
   -1.0646    0.7212    9.5042 C   0  0  0  0  0  0  0  0  0  0  0  0
   -2.0405    0.3393    8.4102 C   0  0  0  0  0  0  0  0  0  0  0  0
   -1.4445   -0.2029    7.2997 O   0  0  0  0  0  0  0  0  0  0  0  0
   -0.1007    0.1351    7.1737 C   0  0  0  0  0  0  0  0  0  0  0  0
    0.6458   -0.5597    8.2936 C   0  0  0  0  0  0  0  0  0  0  0  0
    5.3582   -1.4361   10.0025 O   0  0  0  0  0  0  0  0  0  0  0  0
  1  2  1  0
  2  3  1  0
  2  4  1  0
  2  5  1  0
  5  6  1  0
  6  7  1  0
  7  8  1  0
  8  9  1  0
  9 10  1  0
 10 11  2  0
 11 12  1  0
 12 13  1  0
 13 14  2  0
 14 15  1  0
 15 16  1  0
 16 17  1  0
 17 18  1  0
 18 19  1  0
 19 20  1  0
  7 21  1  0
 14 10  1  0
 20 15  1  0
M  END
$$$$
