
     RDKit          3D

 21 22  0  0  0  0  0  0  0  0999 V2000
   -0.8785    1.3698    9.9353 C   0  0  0  0  0  0  0  0  0  0  0  0
   -1.2003    0.0823   10.6966 C   0  0  0  0  0  0  0  0  0  0  0  0
   -2.3308   -0.6766   10.0847 C   0  0  0  0  0  0  0  0  0  0  0  0
   -1.7069    0.5313   12.0913 C   0  0  0  0  0  0  0  0  0  0  0  0
   -0.0108   -0.6432   10.9449 N   0  0  0  0  0  0  0  0  0  0  0  0
   -0.0283   -2.0537   10.8545 C   0  0  0  0  0  0  0  0  0  0  0  0
    1.2951   -2.7399   11.1172 C   0  0  0  0  0  0  0  0  0  0  0  0
    2.3461   -2.2479   10.1284 C   0  0  0  0  0  0  0  0  0  0  0  0
    3.1564   -3.2094    9.6006 O   0  0  0  0  0  0  0  0  0  0  0  0
    4.4760   -3.4498    9.9682 C   0  0  0  0  0  0  0  0  0  0  0  0
    4.8630   -3.4115   11.3527 N   0  0  0  0  0  0  0  0  0  0  0  0
    6.5528   -3.7526   11.3490 S   0  0  0  0  0  0  0  0  0  0  0  0
    6.6776   -3.9246    9.6012 N   0  0  0  0  0  0  0  0  0  0  0  0
    5.4499   -3.7182    9.1119 C   0  0  0  0  0  0  0  0  0  0  0  0
    5.2608   -3.8024    7.6605 N   0  0  0  0  0  0  0  0  0  0  0  0
    4.1287   -3.2090    7.0003 C   0  0  0  0  0  0  0  0  0  0  0  0
    3.4663   -4.2910    6.1724 C   0  0  0  0  0  0  0  0  0  0  0  0
    4.3511   -5.1583    5.5831 O   0  0  0  0  0  0  0  0  0  0  0  0
    5.6310   -4.6310    5.4432 C   0  0  0  0  0  0  0  0  0  0  0  0
    6.2159   -4.4926    6.8335 C   0  0  0  0  0  0  0  0  0  0  0  0
    1.6377   -2.4640   12.4199 O   0  0  0  0  0  0  0  0  0  0  0  0
  1  2  1  0
  2  3  1  0
  2  4  1  0
  2  5  1  0
  5  6  1  0
  6  7  1  0
  7  8  1  0
  8  9  1  0
  9 10  1  0
 10 11  2  0
 11 12  1  0
 12 13  1  0
 13 14  2  0
 14 15  1  0
 15 16  1  0
 16 17  1  0
 17 18  1  0
 18 19  1  0
 19 20  1  0
  7 21  1  0
 14 10  1  0
 20 15  1  0
M  END
$$$$
