
     RDKit          3D

 21 22  0  0  0  0  0  0  0  0999 V2000
    4.0108   -5.4957    5.2444 C   0  0  0  0  0  0  0  0  0  0  0  0
    4.9736   -4.6946    6.1231 C   0  0  0  0  0  0  0  0  0  0  0  0
    6.2442   -4.3549    5.4170 C   0  0  0  0  0  0  0  0  0  0  0  0
    5.3808   -5.6444    7.2788 C   0  0  0  0  0  0  0  0  0  0  0  0
    4.2864   -3.6233    6.7420 N   0  0  0  0  0  0  0  0  0  0  0  0
    2.9016   -3.7446    6.9978 C   0  0  0  0  0  0  0  0  0  0  0  0
    2.2501   -2.5398    7.6422 C   0  0  0  0  0  0  0  0  0  0  0  0
    2.8992   -2.2517    8.9913 C   0  0  0  0  0  0  0  0  0  0  0  0
    2.0449   -1.9027    9.9952 O   0  0  0  0  0  0  0  0  0  0  0  0
    2.4154   -1.3971   11.2367 C   0  0  0  0  0  0  0  0  0  0  0  0
    3.7039   -1.7100   11.7935 N   0  0  0  0  0  0  0  0  0  0  0  0
    3.7377   -0.8977   13.3136 S   0  0  0  0  0  0  0  0  0  0  0  0
    2.1246   -0.2082   13.1627 N   0  0  0  0  0  0  0  0  0  0  0  0
    1.6453   -0.6212   11.9842 C   0  0  0  0  0  0  0  0  0  0  0  0
    0.2994   -0.1889   11.5952 N   0  0  0  0  0  0  0  0  0  0  0  0
   -0.6158    0.4030   12.5342 C   0  0  0  0  0  0  0  0  0  0  0  0
   -1.9059   -0.3887   12.4725 C   0  0  0  0  0  0  0  0  0  0  0  0
   -2.2405   -0.8066   11.2093 O   0  0  0  0  0  0  0  0  0  0  0  0
   -1.6454   -0.0527   10.2026 C   0  0  0  0  0  0  0  0  0  0  0  0
   -0.1596   -0.3444   10.2395 C   0  0  0  0  0  0  0  0  0  0  0  0
    2.3898   -1.4912    6.7638 O   0  0  0  0  0  0  0  0  0  0  0  0
  1  2  1  0
  2  3  1  0
  2  4  1  0
  2  5  1  0
  5  6  1  0
  6  7  1  0
  7  8  1  0
  8  9  1  0
  9 10  1  0
 10 11  2  0
 11 12  1  0
 12 13  1  0
 13 14  2  0
 14 15  1  0
 15 16  1  0
 16 17  1  0
 17 18  1  0
 18 19  1  0
 19 20  1  0
  7 21  1  0
 14 10  1  0
 20 15  1  0
M  END
$$$$
