
     RDKit          3D

 21 22  0  0  0  0  0  0  0  0999 V2000
    6.6514   -4.8851    6.2399 C   0  0  0  0  0  0  0  0  0  0  0  0
    5.2273   -4.7623    6.7854 C   0  0  0  0  0  0  0  0  0  0  0  0
    5.0384   -5.5085    8.0644 C   0  0  0  0  0  0  0  0  0  0  0  0
    4.3159   -5.4716    5.7511 C   0  0  0  0  0  0  0  0  0  0  0  0
    4.8209   -3.4067    6.7765 N   0  0  0  0  0  0  0  0  0  0  0  0
    3.5166   -3.0719    7.2063 C   0  0  0  0  0  0  0  0  0  0  0  0
    3.1734   -1.5984    7.1598 C   0  0  0  0  0  0  0  0  0  0  0  0
    1.6656   -1.4073    7.2808 C   0  0  0  0  0  0  0  0  0  0  0  0
    1.2184   -0.9963    8.5017 O   0  0  0  0  0  0  0  0  0  0  0  0
   -0.0524   -0.5025    8.7761 C   0  0  0  0  0  0  0  0  0  0  0  0
   -0.9673   -0.2153    7.7043 N   0  0  0  0  0  0  0  0  0  0  0  0
   -2.3898    0.3703    8.4824 S   0  0  0  0  0  0  0  0  0  0  0  0
   -1.7519    0.2203   10.1166 N   0  0  0  0  0  0  0  0  0  0  0  0
   -0.5091   -0.2595    9.9952 C   0  0  0  0  0  0  0  0  0  0  0  0
    0.2673   -0.4859   11.2181 N   0  0  0  0  0  0  0  0  0  0  0  0
    1.6948   -0.6625   11.1968 C   0  0  0  0  0  0  0  0  0  0  0  0
    2.0038   -1.9570   11.9206 C   0  0  0  0  0  0  0  0  0  0  0  0
    1.2016   -2.1889   13.0092 O   0  0  0  0  0  0  0  0  0  0  0  0
    0.6211   -1.0337   13.5235 C   0  0  0  0  0  0  0  0  0  0  0  0
   -0.3823   -0.5403   12.5017 C   0  0  0  0  0  0  0  0  0  0  0  0
    3.8578   -0.9951    8.1886 O   0  0  0  0  0  0  0  0  0  0  0  0
  1  2  1  0
  2  3  1  0
  2  4  1  0
  2  5  1  0
  5  6  1  0
  6  7  1  0
  7  8  1  0
  8  9  1  0
  9 10  1  0
 10 11  2  0
 11 12  1  0
 12 13  1  0
 13 14  2  0
 14 15  1  0
 15 16  1  0
 16 17  1  0
 17 18  1  0
 18 19  1  0
 19 20  1  0
  7 21  1  0
 14 10  1  0
 20 15  1  0
M  END
$$$$
