
     RDKit          3D

 21 22  0  0  0  0  0  0  0  0999 V2000
    1.2067    0.9278   16.6069 C   0  0  0  0  0  0  0  0  0  0  0  0
    2.4042    1.1430   15.6793 C   0  0  0  0  0  0  0  0  0  0  0  0
    3.7034    0.8141   16.3368 C   0  0  0  0  0  0  0  0  0  0  0  0
    2.4534    2.6670   15.3993 C   0  0  0  0  0  0  0  0  0  0  0  0
    2.1583    0.5384   14.4235 N   0  0  0  0  0  0  0  0  0  0  0  0
    3.1455    0.6119   13.4145 C   0  0  0  0  0  0  0  0  0  0  0  0
    2.7960   -0.0717   12.1100 C   0  0  0  0  0  0  0  0  0  0  0  0
    3.9330   -0.9913   11.6790 C   0  0  0  0  0  0  0  0  0  0  0  0
    3.5970   -1.9692   10.7899 O   0  0  0  0  0  0  0  0  0  0  0  0
    4.4906   -2.7934   10.1144 C   0  0  0  0  0  0  0  0  0  0  0  0
    5.6497   -3.3145   10.7875 N   0  0  0  0  0  0  0  0  0  0  0  0
    6.4641   -4.2597    9.5980 S   0  0  0  0  0  0  0  0  0  0  0  0
    5.2974   -3.9455    8.3173 N   0  0  0  0  0  0  0  0  0  0  0  0
    4.3604   -3.1505    8.8458 C   0  0  0  0  0  0  0  0  0  0  0  0
    3.2497   -2.7258    7.9880 N   0  0  0  0  0  0  0  0  0  0  0  0
    3.0848   -3.2217    6.6477 C   0  0  0  0  0  0  0  0  0  0  0  0
    2.9762   -2.0219    5.7291 C   0  0  0  0  0  0  0  0  0  0  0  0
    2.2761   -0.9722    6.2680 O   0  0  0  0  0  0  0  0  0  0  0  0
    1.4147   -1.3512    7.2928 C   0  0  0  0  0  0  0  0  0  0  0  0
    2.2714   -1.7835    8.4648 C   0  0  0  0  0  0  0  0  0  0  0  0
    1.6232   -0.7583   12.3193 O   0  0  0  0  0  0  0  0  0  0  0  0
  1  2  1  0
  2  3  1  0
  2  4  1  0
  2  5  1  0
  5  6  1  0
  6  7  1  0
  7  8  1  0
  8  9  1  0
  9 10  1  0
 10 11  2  0
 11 12  1  0
 12 13  1  0
 13 14  2  0
 14 15  1  0
 15 16  1  0
 16 17  1  0
 17 18  1  0
 18 19  1  0
 19 20  1  0
  7 21  1  0
 14 10  1  0
 20 15  1  0
M  END
$$$$
