
     RDKit          3D

 21 22  0  0  0  0  0  0  0  0999 V2000
    4.8632   -5.1564    4.7809 C   0  0  0  0  0  0  0  0  0  0  0  0
    5.1802   -4.4445    6.0975 C   0  0  0  0  0  0  0  0  0  0  0  0
    6.3703   -3.5495    5.9917 C   0  0  0  0  0  0  0  0  0  0  0  0
    5.5859   -5.5603    7.0944 C   0  0  0  0  0  0  0  0  0  0  0  0
    4.0023   -3.8719    6.6339 N   0  0  0  0  0  0  0  0  0  0  0  0
    4.0501   -3.2505    7.9026 C   0  0  0  0  0  0  0  0  0  0  0  0
    2.7364   -2.6895    8.4032 C   0  0  0  0  0  0  0  0  0  0  0  0
    2.8772   -2.2389    9.8529 C   0  0  0  0  0  0  0  0  0  0  0  0
    2.0033   -1.2740   10.2590 O   0  0  0  0  0  0  0  0  0  0  0  0
    1.9094   -0.7539   11.5454 C   0  0  0  0  0  0  0  0  0  0  0  0
    3.0810   -0.6447   12.3722 N   0  0  0  0  0  0  0  0  0  0  0  0
    2.5151    0.0305   13.8539 S   0  0  0  0  0  0  0  0  0  0  0  0
    0.8319    0.1377   13.3485 N   0  0  0  0  0  0  0  0  0  0  0  0
    0.7810   -0.3367   12.0989 C   0  0  0  0  0  0  0  0  0  0  0  0
   -0.5193   -0.3643   11.4221 N   0  0  0  0  0  0  0  0  0  0  0  0
   -0.8506   -1.3629   10.4410 C   0  0  0  0  0  0  0  0  0  0  0  0
   -1.3058   -0.6388    9.1906 C   0  0  0  0  0  0  0  0  0  0  0  0
   -2.0453    0.4894    9.4412 O   0  0  0  0  0  0  0  0  0  0  0  0
   -2.6368    0.4935   10.7005 C   0  0  0  0  0  0  0  0  0  0  0  0
   -1.5244    0.6223   11.7205 C   0  0  0  0  0  0  0  0  0  0  0  0
    2.3995   -1.6514    7.5667 O   0  0  0  0  0  0  0  0  0  0  0  0
  1  2  1  0
  2  3  1  0
  2  4  1  0
  2  5  1  0
  5  6  1  0
  6  7  1  0
  7  8  1  0
  8  9  1  0
  9 10  1  0
 10 11  2  0
 11 12  1  0
 12 13  1  0
 13 14  2  0
 14 15  1  0
 15 16  1  0
 16 17  1  0
 17 18  1  0
 18 19  1  0
 19 20  1  0
  7 21  1  0
 14 10  1  0
 20 15  1  0
M  END
$$$$
