
     RDKit          3D

 21 22  0  0  0  0  0  0  0  0999 V2000
    3.6951   -6.0495    6.7336 C   0  0  0  0  0  0  0  0  0  0  0  0
    4.5663   -5.0398    5.9838 C   0  0  0  0  0  0  0  0  0  0  0  0
    3.8624   -4.4333    4.8154 C   0  0  0  0  0  0  0  0  0  0  0  0
    5.7397   -5.8569    5.3845 C   0  0  0  0  0  0  0  0  0  0  0  0
    5.1637   -4.1416    6.9000 N   0  0  0  0  0  0  0  0  0  0  0  0
    5.2675   -4.5080    8.2612 C   0  0  0  0  0  0  0  0  0  0  0  0
    5.8461   -3.4517    9.1780 C   0  0  0  0  0  0  0  0  0  0  0  0
    5.0457   -3.3869   10.4740 C   0  0  0  0  0  0  0  0  0  0  0  0
    3.9109   -2.6320   10.4302 O   0  0  0  0  0  0  0  0  0  0  0  0
    3.0815   -2.3506   11.5106 C   0  0  0  0  0  0  0  0  0  0  0  0
    3.4387   -2.7866   12.8336 N   0  0  0  0  0  0  0  0  0  0  0  0
    2.1514   -2.2402   13.8417 S   0  0  0  0  0  0  0  0  0  0  0  0
    1.2339   -1.4919   12.5385 N   0  0  0  0  0  0  0  0  0  0  0  0
    1.9377   -1.6897   11.4182 C   0  0  0  0  0  0  0  0  0  0  0  0
    1.3986   -1.1624   10.1608 N   0  0  0  0  0  0  0  0  0  0  0  0
    0.1933   -0.3784   10.1137 C   0  0  0  0  0  0  0  0  0  0  0  0
   -0.7349   -1.0312    9.1100 C   0  0  0  0  0  0  0  0  0  0  0  0
   -0.0917   -1.5464    8.0130 O   0  0  0  0  0  0  0  0  0  0  0  0
    1.1556   -0.9737    7.7848 C   0  0  0  0  0  0  0  0  0  0  0  0
    2.0671   -1.4151    8.9111 C   0  0  0  0  0  0  0  0  0  0  0  0
    7.1616   -3.7874    9.3958 O   0  0  0  0  0  0  0  0  0  0  0  0
  1  2  1  0
  2  3  1  0
  2  4  1  0
  2  5  1  0
  5  6  1  0
  6  7  1  0
  7  8  1  0
  8  9  1  0
  9 10  1  0
 10 11  2  0
 11 12  1  0
 12 13  1  0
 13 14  2  0
 14 15  1  0
 15 16  1  0
 16 17  1  0
 17 18  1  0
 18 19  1  0
 19 20  1  0
  7 21  1  0
 14 10  1  0
 20 15  1  0
M  END
$$$$
