
     RDKit          3D

 21 22  0  0  0  0  0  0  0  0999 V2000
    5.7352   -5.8953    6.5487 C   0  0  0  0  0  0  0  0  0  0  0  0
    4.7066   -5.3021    5.5840 C   0  0  0  0  0  0  0  0  0  0  0  0
    3.5088   -6.1770    5.4160 C   0  0  0  0  0  0  0  0  0  0  0  0
    5.3974   -5.2710    4.1963 C   0  0  0  0  0  0  0  0  0  0  0  0
    4.4611   -3.9473    5.9114 N   0  0  0  0  0  0  0  0  0  0  0  0
    3.8595   -3.6326    7.1512 C   0  0  0  0  0  0  0  0  0  0  0  0
    3.6467   -2.1576    7.4164 C   0  0  0  0  0  0  0  0  0  0  0  0
    4.1103   -1.8061    8.8257 C   0  0  0  0  0  0  0  0  0  0  0  0
    3.1215   -1.5022    9.7142 O   0  0  0  0  0  0  0  0  0  0  0  0
    3.1613   -1.7377   11.0842 C   0  0  0  0  0  0  0  0  0  0  0  0
    4.2890   -2.4077   11.6738 N   0  0  0  0  0  0  0  0  0  0  0  0
    3.9229   -2.4924   13.3562 S   0  0  0  0  0  0  0  0  0  0  0  0
    2.3676   -1.6780   13.2229 N   0  0  0  0  0  0  0  0  0  0  0  0
    2.2033   -1.3854   11.9280 C   0  0  0  0  0  0  0  0  0  0  0  0
    0.9747   -0.6938   11.5257 N   0  0  0  0  0  0  0  0  0  0  0  0
    0.1090   -0.0539   12.4800 C   0  0  0  0  0  0  0  0  0  0  0  0
   -1.2864   -0.6049   12.2691 C   0  0  0  0  0  0  0  0  0  0  0  0
   -1.6011   -0.8293   10.9527 O   0  0  0  0  0  0  0  0  0  0  0  0
   -0.8259   -0.0888   10.0657 C   0  0  0  0  0  0  0  0  0  0  0  0
    0.5866   -0.6305   10.1409 C   0  0  0  0  0  0  0  0  0  0  0  0
    4.3479   -1.4721    6.4526 O   0  0  0  0  0  0  0  0  0  0  0  0
  1  2  1  0
  2  3  1  0
  2  4  1  0
  2  5  1  0
  5  6  1  0
  6  7  1  0
  7  8  1  0
  8  9  1  0
  9 10  1  0
 10 11  2  0
 11 12  1  0
 12 13  1  0
 13 14  2  0
 14 15  1  0
 15 16  1  0
 16 17  1  0
 17 18  1  0
 18 19  1  0
 19 20  1  0
  7 21  1  0
 14 10  1  0
 20 15  1  0
M  END
$$$$
