
     RDKit          3D

 21 22  0  0  0  0  0  0  0  0999 V2000
   -2.5260   -1.7438   11.4965 C   0  0  0  0  0  0  0  0  0  0  0  0
   -1.9198   -0.3677   11.2140 C   0  0  0  0  0  0  0  0  0  0  0  0
   -1.7398    0.4436   12.4541 C   0  0  0  0  0  0  0  0  0  0  0  0
   -2.9734    0.3928   10.3683 C   0  0  0  0  0  0  0  0  0  0  0  0
   -0.7888   -0.5004   10.3736 N   0  0  0  0  0  0  0  0  0  0  0  0
    0.3428   -1.2063   10.8419 C   0  0  0  0  0  0  0  0  0  0  0  0
    1.5301   -1.2302    9.9034 C   0  0  0  0  0  0  0  0  0  0  0  0
    2.2778   -2.5521   10.0375 C   0  0  0  0  0  0  0  0  0  0  0  0
    3.3853   -2.6864    9.2533 O   0  0  0  0  0  0  0  0  0  0  0  0
    4.5811   -3.2858    9.6340 C   0  0  0  0  0  0  0  0  0  0  0  0
    5.0946   -3.1020   10.9647 N   0  0  0  0  0  0  0  0  0  0  0  0
    6.5678   -3.9966   10.9976 S   0  0  0  0  0  0  0  0  0  0  0  0
    6.4546   -4.5531    9.3309 N   0  0  0  0  0  0  0  0  0  0  0  0
    5.3217   -4.0411    8.8372 C   0  0  0  0  0  0  0  0  0  0  0  0
    4.9721   -4.3487    7.4469 N   0  0  0  0  0  0  0  0  0  0  0  0
    5.8491   -5.0943    6.5841 C   0  0  0  0  0  0  0  0  0  0  0  0
    6.0596   -4.2721    5.3292 C   0  0  0  0  0  0  0  0  0  0  0  0
    4.9397   -3.5970    4.9141 O   0  0  0  0  0  0  0  0  0  0  0  0
    3.7545   -4.1460    5.3935 C   0  0  0  0  0  0  0  0  0  0  0  0
    3.7202   -3.9081    6.8890 C   0  0  0  0  0  0  0  0  0  0  0  0
    1.0406   -1.0366    8.6332 O   0  0  0  0  0  0  0  0  0  0  0  0
  1  2  1  0
  2  3  1  0
  2  4  1  0
  2  5  1  0
  5  6  1  0
  6  7  1  0
  7  8  1  0
  8  9  1  0
  9 10  1  0
 10 11  2  0
 11 12  1  0
 12 13  1  0
 13 14  2  0
 14 15  1  0
 15 16  1  0
 16 17  1  0
 17 18  1  0
 18 19  1  0
 19 20  1  0
  7 21  1  0
 14 10  1  0
 20 15  1  0
M  END
$$$$
