
     RDKit          3D

 21 22  0  0  0  0  0  0  0  0999 V2000
    4.4263   -6.0263    4.9189 C   0  0  0  0  0  0  0  0  0  0  0  0
    5.0880   -4.9135    5.7341 C   0  0  0  0  0  0  0  0  0  0  0  0
    6.0498   -4.1070    4.9261 C   0  0  0  0  0  0  0  0  0  0  0  0
    5.9453   -5.6296    6.8091 C   0  0  0  0  0  0  0  0  0  0  0  0
    4.1063   -4.1931    6.4556 N   0  0  0  0  0  0  0  0  0  0  0  0
    4.3473   -2.8415    6.7923 C   0  0  0  0  0  0  0  0  0  0  0  0
    3.2031   -2.1273    7.4791 C   0  0  0  0  0  0  0  0  0  0  0  0
    2.8726   -2.8149    8.7991 C   0  0  0  0  0  0  0  0  0  0  0  0
    1.9257   -2.2005    9.5642 O   0  0  0  0  0  0  0  0  0  0  0  0
    2.1035   -1.7493   10.8677 C   0  0  0  0  0  0  0  0  0  0  0  0
    3.2359   -2.1854   11.6395 N   0  0  0  0  0  0  0  0  0  0  0  0
    3.0590   -1.4027   13.1651 S   0  0  0  0  0  0  0  0  0  0  0  0
    1.5664   -0.5686   12.7452 N   0  0  0  0  0  0  0  0  0  0  0  0
    1.2784   -0.9187   11.4867 C   0  0  0  0  0  0  0  0  0  0  0  0
    0.0691   -0.3610   10.8732 N   0  0  0  0  0  0  0  0  0  0  0  0
   -0.8560    0.4571   11.6110 C   0  0  0  0  0  0  0  0  0  0  0  0
   -2.2319   -0.1569   11.4535 C   0  0  0  0  0  0  0  0  0  0  0  0
   -2.4679   -0.6765   10.2058 O   0  0  0  0  0  0  0  0  0  0  0  0
   -1.6492   -0.1365    9.2189 C   0  0  0  0  0  0  0  0  0  0  0  0
   -0.2388   -0.6173    9.4904 C   0  0  0  0  0  0  0  0  0  0  0  0
    3.5954   -0.8215    7.6573 O   0  0  0  0  0  0  0  0  0  0  0  0
  1  2  1  0
  2  3  1  0
  2  4  1  0
  2  5  1  0
  5  6  1  0
  6  7  1  0
  7  8  1  0
  8  9  1  0
  9 10  1  0
 10 11  2  0
 11 12  1  0
 12 13  1  0
 13 14  2  0
 14 15  1  0
 15 16  1  0
 16 17  1  0
 17 18  1  0
 18 19  1  0
 19 20  1  0
  7 21  1  0
 14 10  1  0
 20 15  1  0
M  END
$$$$
