
     RDKit          3D

 21 22  0  0  0  0  0  0  0  0999 V2000
    5.9910   -3.3439    5.2244 C   0  0  0  0  0  0  0  0  0  0  0  0
    4.7704   -4.1266    5.7127 C   0  0  0  0  0  0  0  0  0  0  0  0
    5.1223   -5.1556    6.7353 C   0  0  0  0  0  0  0  0  0  0  0  0
    4.2575   -4.9198    4.4833 C   0  0  0  0  0  0  0  0  0  0  0  0
    3.7245   -3.2333    6.0461 N   0  0  0  0  0  0  0  0  0  0  0  0
    3.5601   -2.8308    7.3911 C   0  0  0  0  0  0  0  0  0  0  0  0
    2.1480   -2.4625    7.7930 C   0  0  0  0  0  0  0  0  0  0  0  0
    1.9126   -2.8099    9.2588 C   0  0  0  0  0  0  0  0  0  0  0  0
    1.9586   -1.7610   10.1290 O   0  0  0  0  0  0  0  0  0  0  0  0
    2.8711   -1.6077   11.1673 C   0  0  0  0  0  0  0  0  0  0  0  0
    4.1741   -2.2106   11.0844 N   0  0  0  0  0  0  0  0  0  0  0  0
    4.9551   -1.7799   12.5595 S   0  0  0  0  0  0  0  0  0  0  0  0
    3.5949   -0.8630   13.1993 N   0  0  0  0  0  0  0  0  0  0  0  0
    2.6282   -0.9268   12.2769 C   0  0  0  0  0  0  0  0  0  0  0  0
    1.3629   -0.2394   12.5526 N   0  0  0  0  0  0  0  0  0  0  0  0
    0.1252   -0.6382   11.9373 C   0  0  0  0  0  0  0  0  0  0  0  0
   -0.4720    0.5891   11.2799 C   0  0  0  0  0  0  0  0  0  0  0  0
   -0.2893    1.7457   11.9950 O   0  0  0  0  0  0  0  0  0  0  0  0
   -0.0479    1.5264   13.3475 C   0  0  0  0  0  0  0  0  0  0  0  0
    1.3150    0.8754   13.4623 C   0  0  0  0  0  0  0  0  0  0  0  0
    1.9994   -1.1179    7.5473 O   0  0  0  0  0  0  0  0  0  0  0  0
  1  2  1  0
  2  3  1  0
  2  4  1  0
  2  5  1  0
  5  6  1  0
  6  7  1  0
  7  8  1  0
  8  9  1  0
  9 10  1  0
 10 11  2  0
 11 12  1  0
 12 13  1  0
 13 14  2  0
 14 15  1  0
 15 16  1  0
 16 17  1  0
 17 18  1  0
 18 19  1  0
 19 20  1  0
  7 21  1  0
 14 10  1  0
 20 15  1  0
M  END
$$$$
