
     RDKit          3D

 21 22  0  0  0  0  0  0  0  0999 V2000
    6.4696   -3.4335    6.4770 C   0  0  0  0  0  0  0  0  0  0  0  0
    5.5847   -4.5600    7.0144 C   0  0  0  0  0  0  0  0  0  0  0  0
    6.2346   -5.3180    8.1242 C   0  0  0  0  0  0  0  0  0  0  0  0
    5.4359   -5.5726    5.8499 C   0  0  0  0  0  0  0  0  0  0  0  0
    4.2781   -4.0743    7.2588 N   0  0  0  0  0  0  0  0  0  0  0  0
    4.0822   -3.0783    8.2425 C   0  0  0  0  0  0  0  0  0  0  0  0
    2.6397   -2.7200    8.5287 C   0  0  0  0  0  0  0  0  0  0  0  0
    2.4884   -2.2724    9.9783 C   0  0  0  0  0  0  0  0  0  0  0  0
    1.3084   -1.6632   10.2882 O   0  0  0  0  0  0  0  0  0  0  0  0
    0.9819   -1.1065   11.5201 C   0  0  0  0  0  0  0  0  0  0  0  0
    1.9420   -1.0972   12.5907 N   0  0  0  0  0  0  0  0  0  0  0  0
    1.1302   -0.3339   13.9060 S   0  0  0  0  0  0  0  0  0  0  0  0
   -0.3755   -0.0686   13.0327 N   0  0  0  0  0  0  0  0  0  0  0  0
   -0.1926   -0.5644   11.8039 C   0  0  0  0  0  0  0  0  0  0  0  0
   -1.3028   -0.4760   10.8503 N   0  0  0  0  0  0  0  0  0  0  0  0
   -1.4208   -1.3681    9.7279 C   0  0  0  0  0  0  0  0  0  0  0  0
   -1.5608   -0.5166    8.4828 C   0  0  0  0  0  0  0  0  0  0  0  0
   -2.3140    0.6153    8.6667 O   0  0  0  0  0  0  0  0  0  0  0  0
   -3.1790    0.5325    9.7534 C   0  0  0  0  0  0  0  0  0  0  0  0
   -2.3284    0.5222   11.0066 C   0  0  0  0  0  0  0  0  0  0  0  0
    2.2889   -1.7310    7.6402 O   0  0  0  0  0  0  0  0  0  0  0  0
  1  2  1  0
  2  3  1  0
  2  4  1  0
  2  5  1  0
  5  6  1  0
  6  7  1  0
  7  8  1  0
  8  9  1  0
  9 10  1  0
 10 11  2  0
 11 12  1  0
 12 13  1  0
 13 14  2  0
 14 15  1  0
 15 16  1  0
 16 17  1  0
 17 18  1  0
 18 19  1  0
 19 20  1  0
  7 21  1  0
 14 10  1  0
 20 15  1  0
M  END
$$$$
