
     RDKit          3D

 21 22  0  0  0  0  0  0  0  0999 V2000
   -3.1612   -1.6926   10.5790 C   0  0  0  0  0  0  0  0  0  0  0  0
   -2.0909   -0.5995   10.5622 C   0  0  0  0  0  0  0  0  0  0  0  0
   -2.3242    0.4456   11.6023 C   0  0  0  0  0  0  0  0  0  0  0  0
   -2.2486    0.1255    9.2009 C   0  0  0  0  0  0  0  0  0  0  0  0
   -0.8025   -1.1842   10.5290 N   0  0  0  0  0  0  0  0  0  0  0  0
    0.3376   -0.3487   10.5404 C   0  0  0  0  0  0  0  0  0  0  0  0
    1.6708   -1.0654   10.5262 C   0  0  0  0  0  0  0  0  0  0  0  0
    1.8232   -1.8634    9.2360 C   0  0  0  0  0  0  0  0  0  0  0  0
    3.1052   -2.1175    8.8468 O   0  0  0  0  0  0  0  0  0  0  0  0
    3.4832   -2.8040    7.6978 C   0  0  0  0  0  0  0  0  0  0  0  0
    2.5918   -2.8825    6.5720 N   0  0  0  0  0  0  0  0  0  0  0  0
    3.4444   -3.8122    5.3971 S   0  0  0  0  0  0  0  0  0  0  0  0
    4.8782   -4.0503    6.3909 N   0  0  0  0  0  0  0  0  0  0  0  0
    4.6446   -3.4226    7.5488 C   0  0  0  0  0  0  0  0  0  0  0  0
    5.6882   -3.4590    8.5779 N   0  0  0  0  0  0  0  0  0  0  0  0
    7.0026   -3.9825    8.3171 C   0  0  0  0  0  0  0  0  0  0  0  0
    7.2891   -5.0362    9.3672 C   0  0  0  0  0  0  0  0  0  0  0  0
    6.8019   -4.7259   10.6117 O   0  0  0  0  0  0  0  0  0  0  0  0
    6.5870   -3.3638   10.7968 C   0  0  0  0  0  0  0  0  0  0  0  0
    5.4294   -2.9649    9.9051 C   0  0  0  0  0  0  0  0  0  0  0  0
    2.6441   -0.1035   10.6603 O   0  0  0  0  0  0  0  0  0  0  0  0
  1  2  1  0
  2  3  1  0
  2  4  1  0
  2  5  1  0
  5  6  1  0
  6  7  1  0
  7  8  1  0
  8  9  1  0
  9 10  1  0
 10 11  2  0
 11 12  1  0
 12 13  1  0
 13 14  2  0
 14 15  1  0
 15 16  1  0
 16 17  1  0
 17 18  1  0
 18 19  1  0
 19 20  1  0
  7 21  1  0
 14 10  1  0
 20 15  1  0
M  END
$$$$
