
     RDKit          3D

 21 22  0  0  0  0  0  0  0  0999 V2000
    6.0369   -3.0731    5.8389 C   0  0  0  0  0  0  0  0  0  0  0  0
    5.1709   -4.2648    6.2522 C   0  0  0  0  0  0  0  0  0  0  0  0
    5.9104   -5.2401    7.1069 C   0  0  0  0  0  0  0  0  0  0  0  0
    4.8439   -5.0246    4.9410 C   0  0  0  0  0  0  0  0  0  0  0  0
    3.9241   -3.8096    6.7433 N   0  0  0  0  0  0  0  0  0  0  0  0
    3.8698   -3.1559    7.9954 C   0  0  0  0  0  0  0  0  0  0  0  0
    2.4804   -2.9184    8.5468 C   0  0  0  0  0  0  0  0  0  0  0  0
    2.5599   -2.5303   10.0191 C   0  0  0  0  0  0  0  0  0  0  0  0
    1.6773   -1.5738   10.4262 O   0  0  0  0  0  0  0  0  0  0  0  0
    1.6466   -0.9807   11.6837 C   0  0  0  0  0  0  0  0  0  0  0  0
    2.8276   -0.9552   12.5040 N   0  0  0  0  0  0  0  0  0  0  0  0
    2.3453   -0.1474   13.9484 S   0  0  0  0  0  0  0  0  0  0  0  0
    0.6805    0.1136   13.4378 N   0  0  0  0  0  0  0  0  0  0  0  0
    0.5724   -0.4167   12.2145 C   0  0  0  0  0  0  0  0  0  0  0  0
   -0.7270   -0.3396   11.5398 N   0  0  0  0  0  0  0  0  0  0  0  0
   -1.1326   -1.2992   10.5477 C   0  0  0  0  0  0  0  0  0  0  0  0
   -1.5337   -0.5285    9.3067 C   0  0  0  0  0  0  0  0  0  0  0  0
   -2.1872    0.6485    9.5717 O   0  0  0  0  0  0  0  0  0  0  0  0
   -2.7755    0.6817   10.8321 C   0  0  0  0  0  0  0  0  0  0  0  0
   -1.6556    0.7155   11.8515 C   0  0  0  0  0  0  0  0  0  0  0  0
    1.9082   -1.9314    7.7793 O   0  0  0  0  0  0  0  0  0  0  0  0
  1  2  1  0
  2  3  1  0
  2  4  1  0
  2  5  1  0
  5  6  1  0
  6  7  1  0
  7  8  1  0
  8  9  1  0
  9 10  1  0
 10 11  2  0
 11 12  1  0
 12 13  1  0
 13 14  2  0
 14 15  1  0
 15 16  1  0
 16 17  1  0
 17 18  1  0
 18 19  1  0
 19 20  1  0
  7 21  1  0
 14 10  1  0
 20 15  1  0
M  END
$$$$
