
     RDKit          3D

 21 22  0  0  0  0  0  0  0  0999 V2000
    3.0622   -5.5395    4.7796 C   0  0  0  0  0  0  0  0  0  0  0  0
    3.3057   -4.0307    4.8509 C   0  0  0  0  0  0  0  0  0  0  0  0
    2.0717   -3.2682    5.2033 C   0  0  0  0  0  0  0  0  0  0  0  0
    3.6683   -3.5924    3.4087 C   0  0  0  0  0  0  0  0  0  0  0  0
    4.4593   -3.7628    5.6259 N   0  0  0  0  0  0  0  0  0  0  0  0
    4.4889   -4.1574    6.9829 C   0  0  0  0  0  0  0  0  0  0  0  0
    5.7497   -3.7971    7.7388 C   0  0  0  0  0  0  0  0  0  0  0  0
    5.6641   -4.3055    9.1736 C   0  0  0  0  0  0  0  0  0  0  0  0
    4.7712   -3.6596    9.9768 O   0  0  0  0  0  0  0  0  0  0  0  0
    5.0111   -3.2346   11.2791 C   0  0  0  0  0  0  0  0  0  0  0  0
    6.2293   -3.6005   11.9501 N   0  0  0  0  0  0  0  0  0  0  0  0
    6.1074   -2.8804   13.5116 S   0  0  0  0  0  0  0  0  0  0  0  0
    4.5266   -2.1574   13.2317 N   0  0  0  0  0  0  0  0  0  0  0  0
    4.1726   -2.4921   11.9859 C   0  0  0  0  0  0  0  0  0  0  0  0
    2.8805   -2.0160   11.4826 N   0  0  0  0  0  0  0  0  0  0  0  0
    2.2764   -2.5551   10.2935 C   0  0  0  0  0  0  0  0  0  0  0  0
    1.9657   -1.3920    9.3738 C   0  0  0  0  0  0  0  0  0  0  0  0
    1.5364   -0.2658   10.0294 O   0  0  0  0  0  0  0  0  0  0  0  0
    1.0129   -0.5275   11.2916 C   0  0  0  0  0  0  0  0  0  0  0  0
    2.1611   -0.9766   12.1716 C   0  0  0  0  0  0  0  0  0  0  0  0
    6.8020   -4.3551    7.0517 O   0  0  0  0  0  0  0  0  0  0  0  0
  1  2  1  0
  2  3  1  0
  2  4  1  0
  2  5  1  0
  5  6  1  0
  6  7  1  0
  7  8  1  0
  8  9  1  0
  9 10  1  0
 10 11  2  0
 11 12  1  0
 12 13  1  0
 13 14  2  0
 14 15  1  0
 15 16  1  0
 16 17  1  0
 17 18  1  0
 18 19  1  0
 19 20  1  0
  7 21  1  0
 14 10  1  0
 20 15  1  0
M  END
$$$$
