
     RDKit          3D

 21 22  0  0  0  0  0  0  0  0999 V2000
    5.3070   -6.6107    6.0090 C   0  0  0  0  0  0  0  0  0  0  0  0
    4.8955   -5.1391    6.0862 C   0  0  0  0  0  0  0  0  0  0  0  0
    3.4239   -4.9474    5.9251 C   0  0  0  0  0  0  0  0  0  0  0  0
    5.5418   -4.4544    4.8545 C   0  0  0  0  0  0  0  0  0  0  0  0
    5.4948   -4.5276    7.2131 N   0  0  0  0  0  0  0  0  0  0  0  0
    4.6930   -3.7732    8.0997 C   0  0  0  0  0  0  0  0  0  0  0  0
    5.4114   -3.2055    9.3050 C   0  0  0  0  0  0  0  0  0  0  0  0
    4.4625   -3.1366   10.4965 C   0  0  0  0  0  0  0  0  0  0  0  0
    3.4404   -2.2406   10.3865 O   0  0  0  0  0  0  0  0  0  0  0  0
    2.9818   -1.4048   11.3990 C   0  0  0  0  0  0  0  0  0  0  0  0
    3.7935   -1.1569   12.5600 N   0  0  0  0  0  0  0  0  0  0  0  0
    2.8528   -0.0940   13.5383 S   0  0  0  0  0  0  0  0  0  0  0  0
    1.4876   -0.0211   12.4287 N   0  0  0  0  0  0  0  0  0  0  0  0
    1.8063   -0.7949   11.3852 C   0  0  0  0  0  0  0  0  0  0  0  0
    0.8353   -0.9183   10.2937 N   0  0  0  0  0  0  0  0  0  0  0  0
    0.9121   -1.9709    9.3161 C   0  0  0  0  0  0  0  0  0  0  0  0
    0.9078   -1.3217    7.9474 C   0  0  0  0  0  0  0  0  0  0  0  0
    0.0877   -0.2255    7.8559 O   0  0  0  0  0  0  0  0  0  0  0  0
   -0.9141   -0.2035    8.8211 C   0  0  0  0  0  0  0  0  0  0  0  0
   -0.2446    0.0244   10.1605 C   0  0  0  0  0  0  0  0  0  0  0  0
    6.4920   -4.0203    9.5477 O   0  0  0  0  0  0  0  0  0  0  0  0
  1  2  1  0
  2  3  1  0
  2  4  1  0
  2  5  1  0
  5  6  1  0
  6  7  1  0
  7  8  1  0
  8  9  1  0
  9 10  1  0
 10 11  2  0
 11 12  1  0
 12 13  1  0
 13 14  2  0
 14 15  1  0
 15 16  1  0
 16 17  1  0
 17 18  1  0
 18 19  1  0
 19 20  1  0
  7 21  1  0
 14 10  1  0
 20 15  1  0
M  END
$$$$
