
     RDKit          3D

 21 22  0  0  0  0  0  0  0  0999 V2000
    5.2802   -5.5792    6.4924 C   0  0  0  0  0  0  0  0  0  0  0  0
    4.6683   -4.5652    5.5238 C   0  0  0  0  0  0  0  0  0  0  0  0
    4.2923   -5.1785    4.2158 C   0  0  0  0  0  0  0  0  0  0  0  0
    5.7984   -3.5545    5.2002 C   0  0  0  0  0  0  0  0  0  0  0  0
    3.6672   -3.8111    6.1813 N   0  0  0  0  0  0  0  0  0  0  0  0
    3.9727   -3.1730    7.4050 C   0  0  0  0  0  0  0  0  0  0  0  0
    2.8000   -2.5331    8.1167 C   0  0  0  0  0  0  0  0  0  0  0  0
    3.1059   -2.3853    9.6030 C   0  0  0  0  0  0  0  0  0  0  0  0
    2.2750   -1.5565   10.2974 O   0  0  0  0  0  0  0  0  0  0  0  0
    2.4665   -1.1261   11.6059 C   0  0  0  0  0  0  0  0  0  0  0  0
    3.6446   -1.5146   12.3335 N   0  0  0  0  0  0  0  0  0  0  0  0
    3.4703   -0.7786   13.8826 S   0  0  0  0  0  0  0  0  0  0  0  0
    1.9210   -0.0214   13.5267 N   0  0  0  0  0  0  0  0  0  0  0  0
    1.6152   -0.3583   12.2689 C   0  0  0  0  0  0  0  0  0  0  0  0
    0.3584    0.1436   11.7047 N   0  0  0  0  0  0  0  0  0  0  0  0
   -0.4805    1.0740   12.4118 C   0  0  0  0  0  0  0  0  0  0  0  0
   -1.8724    0.4786   12.4691 C   0  0  0  0  0  0  0  0  0  0  0  0
   -2.2352   -0.1944   11.3298 O   0  0  0  0  0  0  0  0  0  0  0  0
   -1.5106    0.1911   10.2064 C   0  0  0  0  0  0  0  0  0  0  0  0
   -0.0861   -0.2843   10.4039 C   0  0  0  0  0  0  0  0  0  0  0  0
    2.5761   -1.3201    7.5090 O   0  0  0  0  0  0  0  0  0  0  0  0
  1  2  1  0
  2  3  1  0
  2  4  1  0
  2  5  1  0
  5  6  1  0
  6  7  1  0
  7  8  1  0
  8  9  1  0
  9 10  1  0
 10 11  2  0
 11 12  1  0
 12 13  1  0
 13 14  2  0
 14 15  1  0
 15 16  1  0
 16 17  1  0
 17 18  1  0
 18 19  1  0
 19 20  1  0
  7 21  1  0
 14 10  1  0
 20 15  1  0
M  END
$$$$
