
     RDKit          3D

 21 22  0  0  0  0  0  0  0  0999 V2000
   -2.8701    0.3815   10.6483 C   0  0  0  0  0  0  0  0  0  0  0  0
   -1.6814   -0.3646   11.2576 C   0  0  0  0  0  0  0  0  0  0  0  0
   -2.0994   -1.5675   12.0364 C   0  0  0  0  0  0  0  0  0  0  0  0
   -1.0589    0.6065   12.2935 C   0  0  0  0  0  0  0  0  0  0  0  0
   -0.6793   -0.5607   10.2775 N   0  0  0  0  0  0  0  0  0  0  0  0
    0.4897   -1.2793   10.6167 C   0  0  0  0  0  0  0  0  0  0  0  0
    1.5113   -1.4218    9.5089 C   0  0  0  0  0  0  0  0  0  0  0  0
    1.7589   -2.8963    9.2105 C   0  0  0  0  0  0  0  0  0  0  0  0
    2.9674   -3.1909    8.6517 O   0  0  0  0  0  0  0  0  0  0  0  0
    3.5443   -4.4546    8.5861 C   0  0  0  0  0  0  0  0  0  0  0  0
    2.7183   -5.6246    8.4554 N   0  0  0  0  0  0  0  0  0  0  0  0
    3.8252   -6.9456    8.4197 S   0  0  0  0  0  0  0  0  0  0  0  0
    5.2689   -5.9491    8.5717 N   0  0  0  0  0  0  0  0  0  0  0  0
    4.8480   -4.6813    8.6411 C   0  0  0  0  0  0  0  0  0  0  0  0
    5.8555   -3.6244    8.7732 N   0  0  0  0  0  0  0  0  0  0  0  0
    5.5691   -2.3697    9.4161 C   0  0  0  0  0  0  0  0  0  0  0  0
    5.9462   -1.2665    8.4487 C   0  0  0  0  0  0  0  0  0  0  0  0
    7.0762   -1.5324    7.7173 O   0  0  0  0  0  0  0  0  0  0  0  0
    7.9075   -2.4778    8.3096 C   0  0  0  0  0  0  0  0  0  0  0  0
    7.1864   -3.8088    8.2559 C   0  0  0  0  0  0  0  0  0  0  0  0
    1.0160   -0.7468    8.4181 O   0  0  0  0  0  0  0  0  0  0  0  0
  1  2  1  0
  2  3  1  0
  2  4  1  0
  2  5  1  0
  5  6  1  0
  6  7  1  0
  7  8  1  0
  8  9  1  0
  9 10  1  0
 10 11  2  0
 11 12  1  0
 12 13  1  0
 13 14  2  0
 14 15  1  0
 15 16  1  0
 16 17  1  0
 17 18  1  0
 18 19  1  0
 19 20  1  0
  7 21  1  0
 14 10  1  0
 20 15  1  0
M  END
$$$$
