
     RDKit          3D

 21 22  0  0  0  0  0  0  0  0999 V2000
    6.0402   -4.0484    5.6932 C   0  0  0  0  0  0  0  0  0  0  0  0
    4.8226   -4.7845    6.2556 C   0  0  0  0  0  0  0  0  0  0  0  0
    5.1951   -5.8164    7.2679 C   0  0  0  0  0  0  0  0  0  0  0  0
    4.2160   -5.5698    5.0644 C   0  0  0  0  0  0  0  0  0  0  0  0
    3.8275   -3.8530    6.6367 N   0  0  0  0  0  0  0  0  0  0  0  0
    3.9184   -3.2194    7.8970 C   0  0  0  0  0  0  0  0  0  0  0  0
    2.7142   -2.3960    8.3006 C   0  0  0  0  0  0  0  0  0  0  0  0
    2.4229   -2.5859    9.7851 C   0  0  0  0  0  0  0  0  0  0  0  0
    1.3447   -1.9044   10.2673 O   0  0  0  0  0  0  0  0  0  0  0  0
    1.1699   -1.4885   11.5828 C   0  0  0  0  0  0  0  0  0  0  0  0
    2.2335   -1.6373   12.5393 N   0  0  0  0  0  0  0  0  0  0  0  0
    1.5940   -1.0110   14.0126 S   0  0  0  0  0  0  0  0  0  0  0  0
    0.0204   -0.5958   13.3405 N   0  0  0  0  0  0  0  0  0  0  0  0
    0.0554   -0.9471   12.0503 C   0  0  0  0  0  0  0  0  0  0  0  0
   -1.1411   -0.7104   11.2365 N   0  0  0  0  0  0  0  0  0  0  0  0
   -1.3543   -1.3736    9.9779 C   0  0  0  0  0  0  0  0  0  0  0  0
   -1.6215   -0.3035    8.9394 C   0  0  0  0  0  0  0  0  0  0  0  0
   -2.3673    0.7490    9.4068 O   0  0  0  0  0  0  0  0  0  0  0  0
   -3.1244    0.4333   10.5306 C   0  0  0  0  0  0  0  0  0  0  0  0
   -2.1589    0.2081   11.6758 C   0  0  0  0  0  0  0  0  0  0  0  0
    3.0016   -1.0876    7.9907 O   0  0  0  0  0  0  0  0  0  0  0  0
  1  2  1  0
  2  3  1  0
  2  4  1  0
  2  5  1  0
  5  6  1  0
  6  7  1  0
  7  8  1  0
  8  9  1  0
  9 10  1  0
 10 11  2  0
 11 12  1  0
 12 13  1  0
 13 14  2  0
 14 15  1  0
 15 16  1  0
 16 17  1  0
 17 18  1  0
 18 19  1  0
 19 20  1  0
  7 21  1  0
 14 10  1  0
 20 15  1  0
M  END
$$$$
