
     RDKit          3D

 21 22  0  0  0  0  0  0  0  0999 V2000
    0.7023   -2.2382    6.4713 C   0  0  0  0  0  0  0  0  0  0  0  0
    1.4280   -2.0542    5.1370 C   0  0  0  0  0  0  0  0  0  0  0  0
    0.8886   -0.9092    4.3456 C   0  0  0  0  0  0  0  0  0  0  0  0
    1.1095   -3.3225    4.3043 C   0  0  0  0  0  0  0  0  0  0  0  0
    2.8284   -2.0804    5.3401 N   0  0  0  0  0  0  0  0  0  0  0  0
    3.4336   -3.2557    5.8405 C   0  0  0  0  0  0  0  0  0  0  0  0
    4.9100   -3.1450    6.1554 C   0  0  0  0  0  0  0  0  0  0  0  0
    5.2522   -3.9987    7.3714 C   0  0  0  0  0  0  0  0  0  0  0  0
    5.1346   -3.3787    8.5802 O   0  0  0  0  0  0  0  0  0  0  0  0
    5.3663   -3.9662    9.8192 C   0  0  0  0  0  0  0  0  0  0  0  0
    6.1723   -5.1529    9.9213 N   0  0  0  0  0  0  0  0  0  0  0  0
    6.1894   -5.5325   11.6028 S   0  0  0  0  0  0  0  0  0  0  0  0
    5.1790   -4.1732   12.0841 N   0  0  0  0  0  0  0  0  0  0  0  0
    4.8818   -3.5069   10.9629 C   0  0  0  0  0  0  0  0  0  0  0  0
    4.0396   -2.3117   11.0715 N   0  0  0  0  0  0  0  0  0  0  0  0
    3.7731   -1.6751   12.3337 C   0  0  0  0  0  0  0  0  0  0  0  0
    2.2693   -1.5613   12.4771 C   0  0  0  0  0  0  0  0  0  0  0  0
    1.6201   -1.2752   11.3027 O   0  0  0  0  0  0  0  0  0  0  0  0
    2.4404   -0.6805   10.3492 C   0  0  0  0  0  0  0  0  0  0  0  0
    3.4412   -1.7253    9.9007 C   0  0  0  0  0  0  0  0  0  0  0  0
    5.5907   -3.5467    5.0302 O   0  0  0  0  0  0  0  0  0  0  0  0
  1  2  1  0
  2  3  1  0
  2  4  1  0
  2  5  1  0
  5  6  1  0
  6  7  1  0
  7  8  1  0
  8  9  1  0
  9 10  1  0
 10 11  2  0
 11 12  1  0
 12 13  1  0
 13 14  2  0
 14 15  1  0
 15 16  1  0
 16 17  1  0
 17 18  1  0
 18 19  1  0
 19 20  1  0
  7 21  1  0
 14 10  1  0
 20 15  1  0
M  END
$$$$
