
     RDKit          3D

 21 22  0  0  0  0  0  0  0  0999 V2000
    5.2765   -3.4941    5.2315 C   0  0  0  0  0  0  0  0  0  0  0  0
    4.8352   -4.3477    6.4220 C   0  0  0  0  0  0  0  0  0  0  0  0
    5.8832   -4.4376    7.4812 C   0  0  0  0  0  0  0  0  0  0  0  0
    4.6741   -5.7884    5.8724 C   0  0  0  0  0  0  0  0  0  0  0  0
    3.5408   -3.9595    6.8424 N   0  0  0  0  0  0  0  0  0  0  0  0
    3.3322   -2.6444    7.3169 C   0  0  0  0  0  0  0  0  0  0  0  0
    1.9714   -2.3791    7.9243 C   0  0  0  0  0  0  0  0  0  0  0  0
    2.0787   -2.3170    9.4439 C   0  0  0  0  0  0  0  0  0  0  0  0
    1.2057   -1.4723   10.0636 O   0  0  0  0  0  0  0  0  0  0  0  0
    1.3500   -0.9546   11.3463 C   0  0  0  0  0  0  0  0  0  0  0  0
    2.6237   -1.0067   12.0119 N   0  0  0  0  0  0  0  0  0  0  0  0
    2.3498   -0.2750   13.5485 S   0  0  0  0  0  0  0  0  0  0  0  0
    0.6437    0.0563   13.2664 N   0  0  0  0  0  0  0  0  0  0  0  0
    0.3681   -0.3973   12.0386 C   0  0  0  0  0  0  0  0  0  0  0  0
   -1.0018   -0.2486   11.5378 N   0  0  0  0  0  0  0  0  0  0  0  0
   -1.5423   -1.1093   10.5197 C   0  0  0  0  0  0  0  0  0  0  0  0
   -2.0766   -0.2242    9.4124 C   0  0  0  0  0  0  0  0  0  0  0  0
   -2.6711    0.9280    9.8613 O   0  0  0  0  0  0  0  0  0  0  0  0
   -3.1016    0.8487   11.1819 C   0  0  0  0  0  0  0  0  0  0  0  0
   -1.8661    0.7798   12.0554 C   0  0  0  0  0  0  0  0  0  0  0  0
    1.5163   -1.1981    7.3868 O   0  0  0  0  0  0  0  0  0  0  0  0
  1  2  1  0
  2  3  1  0
  2  4  1  0
  2  5  1  0
  5  6  1  0
  6  7  1  0
  7  8  1  0
  8  9  1  0
  9 10  1  0
 10 11  2  0
 11 12  1  0
 12 13  1  0
 13 14  2  0
 14 15  1  0
 15 16  1  0
 16 17  1  0
 17 18  1  0
 18 19  1  0
 19 20  1  0
  7 21  1  0
 14 10  1  0
 20 15  1  0
M  END
$$$$
