
     RDKit          3D

 21 22  0  0  0  0  0  0  0  0999 V2000
    6.4841   -3.5447    7.0908 C   0  0  0  0  0  0  0  0  0  0  0  0
    5.2329   -4.1021    6.4092 C   0  0  0  0  0  0  0  0  0  0  0  0
    5.1062   -5.5811    6.5672 C   0  0  0  0  0  0  0  0  0  0  0  0
    5.4359   -3.8615    4.8912 C   0  0  0  0  0  0  0  0  0  0  0  0
    4.1028   -3.3276    6.7642 N   0  0  0  0  0  0  0  0  0  0  0  0
    3.5762   -3.4301    8.0720 C   0  0  0  0  0  0  0  0  0  0  0  0
    2.3586   -2.5759    8.3528 C   0  0  0  0  0  0  0  0  0  0  0  0
    2.2484   -2.2953    9.8474 C   0  0  0  0  0  0  0  0  0  0  0  0
    1.0966   -1.6869   10.2507 O   0  0  0  0  0  0  0  0  0  0  0  0
    0.9484   -0.9058   11.3918 C   0  0  0  0  0  0  0  0  0  0  0  0
    2.0258   -0.7886   12.3371 N   0  0  0  0  0  0  0  0  0  0  0  0
    1.4179    0.2469   13.5741 S   0  0  0  0  0  0  0  0  0  0  0  0
   -0.1616    0.4748   12.8303 N   0  0  0  0  0  0  0  0  0  0  0  0
   -0.1520   -0.2349   11.6965 C   0  0  0  0  0  0  0  0  0  0  0  0
   -1.3589   -0.2247   10.8641 N   0  0  0  0  0  0  0  0  0  0  0  0
   -1.4666   -1.0081    9.6624 C   0  0  0  0  0  0  0  0  0  0  0  0
   -1.8601   -0.0689    8.5408 C   0  0  0  0  0  0  0  0  0  0  0  0
   -2.7444    0.9090    8.9206 O   0  0  0  0  0  0  0  0  0  0  0  0
   -3.4671    0.5856   10.0647 C   0  0  0  0  0  0  0  0  0  0  0  0
   -2.4948    0.5823   11.2261 C   0  0  0  0  0  0  0  0  0  0  0  0
    2.4995   -1.4232    7.6167 O   0  0  0  0  0  0  0  0  0  0  0  0
  1  2  1  0
  2  3  1  0
  2  4  1  0
  2  5  1  0
  5  6  1  0
  6  7  1  0
  7  8  1  0
  8  9  1  0
  9 10  1  0
 10 11  2  0
 11 12  1  0
 12 13  1  0
 13 14  2  0
 14 15  1  0
 15 16  1  0
 16 17  1  0
 17 18  1  0
 18 19  1  0
 19 20  1  0
  7 21  1  0
 14 10  1  0
 20 15  1  0
M  END
$$$$
