
     RDKit          3D

 21 22  0  0  0  0  0  0  0  0999 V2000
   -0.9684   -0.0720   12.7213 C   0  0  0  0  0  0  0  0  0  0  0  0
   -1.5846   -0.1292   11.3220 C   0  0  0  0  0  0  0  0  0  0  0  0
   -2.4773    1.0340   11.0421 C   0  0  0  0  0  0  0  0  0  0  0  0
   -2.5089   -1.3739   11.3178 C   0  0  0  0  0  0  0  0  0  0  0  0
   -0.5812   -0.4035   10.3623 N   0  0  0  0  0  0  0  0  0  0  0  0
    0.2685   -1.5178   10.5479 C   0  0  0  0  0  0  0  0  0  0  0  0
    1.3515   -1.6922    9.5050 C   0  0  0  0  0  0  0  0  0  0  0  0
    2.4355   -2.6290   10.0264 C   0  0  0  0  0  0  0  0  0  0  0  0
    3.3196   -3.0860    9.0942 O   0  0  0  0  0  0  0  0  0  0  0  0
    4.4926   -3.7835    9.3620 C   0  0  0  0  0  0  0  0  0  0  0  0
    4.8014   -4.1978   10.7040 N   0  0  0  0  0  0  0  0  0  0  0  0
    6.3187   -5.0065   10.5791 S   0  0  0  0  0  0  0  0  0  0  0  0
    6.4797   -4.7773    8.8408 N   0  0  0  0  0  0  0  0  0  0  0  0
    5.3911   -4.1084    8.4448 C   0  0  0  0  0  0  0  0  0  0  0  0
    5.2617   -3.7781    7.0222 N   0  0  0  0  0  0  0  0  0  0  0  0
    4.4064   -2.7192    6.5569 C   0  0  0  0  0  0  0  0  0  0  0  0
    3.4852   -3.3067    5.5074 C   0  0  0  0  0  0  0  0  0  0  0  0
    4.0865   -4.2398    4.7012 O   0  0  0  0  0  0  0  0  0  0  0  0
    5.4724   -4.1237    4.6608 C   0  0  0  0  0  0  0  0  0  0  0  0
    5.9974   -4.5137    6.0270 C   0  0  0  0  0  0  0  0  0  0  0  0
    0.7426   -2.1810    8.3732 O   0  0  0  0  0  0  0  0  0  0  0  0
  1  2  1  0
  2  3  1  0
  2  4  1  0
  2  5  1  0
  5  6  1  0
  6  7  1  0
  7  8  1  0
  8  9  1  0
  9 10  1  0
 10 11  2  0
 11 12  1  0
 12 13  1  0
 13 14  2  0
 14 15  1  0
 15 16  1  0
 16 17  1  0
 17 18  1  0
 18 19  1  0
 19 20  1  0
  7 21  1  0
 14 10  1  0
 20 15  1  0
M  END
$$$$
