
     RDKit          3D

 21 22  0  0  0  0  0  0  0  0999 V2000
    6.0050   -5.1185    7.4598 C   0  0  0  0  0  0  0  0  0  0  0  0
    5.1073   -4.1396    6.7004 C   0  0  0  0  0  0  0  0  0  0  0  0
    4.9146   -4.5300    5.2725 C   0  0  0  0  0  0  0  0  0  0  0  0
    5.8818   -2.7971    6.6640 C   0  0  0  0  0  0  0  0  0  0  0  0
    3.9356   -3.8768    7.4494 N   0  0  0  0  0  0  0  0  0  0  0  0
    3.2178   -2.6817    7.2156 C   0  0  0  0  0  0  0  0  0  0  0  0
    1.8580   -2.5988    7.8753 C   0  0  0  0  0  0  0  0  0  0  0  0
    2.0147   -2.3231    9.3666 C   0  0  0  0  0  0  0  0  0  0  0  0
    1.2965   -1.2700    9.8511 O   0  0  0  0  0  0  0  0  0  0  0  0
    1.2319   -0.8766   11.1835 C   0  0  0  0  0  0  0  0  0  0  0  0
    2.2771   -1.2431   12.1008 N   0  0  0  0  0  0  0  0  0  0  0  0
    1.7963   -0.5670   13.6119 S   0  0  0  0  0  0  0  0  0  0  0  0
    0.3034    0.1406   13.0030 N   0  0  0  0  0  0  0  0  0  0  0  0
    0.2425   -0.1655   11.7023 C   0  0  0  0  0  0  0  0  0  0  0  0
   -0.9143    0.3055   10.9345 N   0  0  0  0  0  0  0  0  0  0  0  0
   -1.7720    1.3578   11.4105 C   0  0  0  0  0  0  0  0  0  0  0  0
   -3.1931    0.8336   11.3832 C   0  0  0  0  0  0  0  0  0  0  0  0
   -3.4660    0.0263   10.3079 O   0  0  0  0  0  0  0  0  0  0  0  0
   -2.6017    0.2241    9.2356 C   0  0  0  0  0  0  0  0  0  0  0  0
   -1.2367   -0.2780    9.6585 C   0  0  0  0  0  0  0  0  0  0  0  0
    1.1614   -1.6024    7.2330 O   0  0  0  0  0  0  0  0  0  0  0  0
  1  2  1  0
  2  3  1  0
  2  4  1  0
  2  5  1  0
  5  6  1  0
  6  7  1  0
  7  8  1  0
  8  9  1  0
  9 10  1  0
 10 11  2  0
 11 12  1  0
 12 13  1  0
 13 14  2  0
 14 15  1  0
 15 16  1  0
 16 17  1  0
 17 18  1  0
 18 19  1  0
 19 20  1  0
  7 21  1  0
 14 10  1  0
 20 15  1  0
M  END
$$$$
