
     RDKit          3D

 37 40  0  0  0  0  0  0  0  0999 V2000
    0.3260    4.2544    8.4133 C   0  0  0  0  0  0  0  0  0  0  0  0
   -0.7036    3.1202    8.3140 C   0  0  0  0  0  0  0  0  0  0  0  0
   -0.3194    2.2890    7.1779 C   0  0  0  0  0  0  0  0  0  0  0  0
    0.1360    1.0078    7.4039 C   0  0  0  0  0  0  0  0  0  0  0  0
    0.5180    0.1603    6.3871 C   0  0  0  0  0  0  0  0  0  0  0  0
    0.4421    0.6128    5.0816 C   0  0  0  0  0  0  0  0  0  0  0  0
   -0.0120    1.8928    4.8416 C   0  0  0  0  0  0  0  0  0  0  0  0
   -0.3934    2.7373    5.8655 C   0  0  0  0  0  0  0  0  0  0  0  0
   -0.0862    2.3565    3.4503 C   0  0  0  0  0  0  0  0  0  0  0  0
   -1.2797    1.9505    2.8616 F   0  0  0  0  0  0  0  0  0  0  0  0
   -0.0060    3.7333    3.4343 F   0  0  0  0  0  0  0  0  0  0  0  0
    0.9727    1.8660    2.7225 F   0  0  0  0  0  0  0  0  0  0  0  0
    1.0092   -1.2208    6.6270 C   0  0  0  0  0  0  0  0  0  0  0  0
    1.6731   -1.2392    7.8386 F   0  0  0  0  0  0  0  0  0  0  0  0
   -0.0410   -2.1238    6.7315 F   0  0  0  0  0  0  0  0  0  0  0  0
    1.9014   -1.6171    5.6435 F   0  0  0  0  0  0  0  0  0  0  0  0
   -0.7396    2.3943    9.5014 O   0  0  0  0  0  0  0  0  0  0  0  0
   -2.0427    2.1872    9.9397 C   0  0  0  0  0  0  0  0  0  0  0  0
   -2.1313    1.9896   11.4212 C   0  0  0  0  0  0  0  0  0  0  0  0
   -2.6115    3.0624   12.1777 N   0  0  0  0  0  0  0  0  0  0  0  0
   -3.2155    4.1623   11.5605 C   0  0  0  0  0  0  0  0  0  0  0  0
   -2.6964    4.3961   10.1732 C   0  0  0  0  0  0  0  0  0  0  0  0
   -2.8286    3.2195    9.4597 O   0  0  0  0  0  0  0  0  0  0  0  0
   -2.2377    3.1369   13.5339 C   0  0  0  0  0  0  0  0  0  0  0  0
   -1.4095    4.3183   13.8741 C   0  0  0  0  0  0  0  0  0  0  0  0
   -1.5878    5.2454   14.8276 N   0  0  0  0  0  0  0  0  0  0  0  0
   -0.5656    6.1261   14.7501 C   0  0  0  0  0  0  0  0  0  0  0  0
   -0.3563    7.1482   15.4664 O   0  0  0  0  0  0  0  0  0  0  0  0
    0.2298    5.7355   13.7540 N   0  0  0  0  0  0  0  0  0  0  0  0
   -0.2808    4.6390   13.2216 N   0  0  0  0  0  0  0  0  0  0  0  0
   -2.9016    0.7571   11.7692 C   0  0  0  0  0  0  0  0  0  0  0  0
   -2.2610   -0.4401   12.0075 C   0  0  0  0  0  0  0  0  0  0  0  0
   -2.9590   -1.5864   12.3298 C   0  0  0  0  0  0  0  0  0  0  0  0
   -4.3358   -1.5343   12.4163 C   0  0  0  0  0  0  0  0  0  0  0  0
   -5.0016   -0.3712   12.1880 C   0  0  0  0  0  0  0  0  0  0  0  0
   -4.2768    0.7566   11.8681 C   0  0  0  0  0  0  0  0  0  0  0  0
   -4.9751   -2.6892   12.7365 F   0  0  0  0  0  0  0  0  0  0  0  0
  1  2  1  0
  2  3  1  0
  3  4  2  0
  4  5  1  0
  5  6  2  0
  6  7  1  0
  7  8  2  0
  7  9  1  0
  9 10  1  0
  9 11  1  0
  9 12  1  0
  5 13  1  0
 13 14  1  0
 13 15  1  0
 13 16  1  0
  2 17  1  0
 17 18  1  0
 18 19  1  0
 19 20  1  0
 20 21  1  0
 21 22  1  0
 22 23  1  0
 20 24  1  0
 24 25  1  0
 25 26  2  0
 26 27  1  0
 27 28  2  0
 27 29  1  0
 29 30  1  0
 19 31  1  0
 31 32  2  0
 32 33  1  0
 33 34  2  0
 34 35  1  0
 35 36  2  0
 34 37  1  0
  8  3  1  0
 23 18  1  0
 30 25  1  0
 36 31  1  0
M  END
$$$$
