
     RDKit          3D

 37 40  0  0  0  0  0  0  0  0999 V2000
   -4.2930    3.1313    6.3295 C   0  0  0  0  0  0  0  0  0  0  0  0
   -3.3092    2.5711    7.3662 C   0  0  0  0  0  0  0  0  0  0  0  0
   -2.2073    1.9624    6.6282 C   0  0  0  0  0  0  0  0  0  0  0  0
   -2.0007    0.6031    6.7260 C   0  0  0  0  0  0  0  0  0  0  0  0
   -0.9839   -0.0478    6.0621 C   0  0  0  0  0  0  0  0  0  0  0  0
   -0.1322    0.6932    5.2620 C   0  0  0  0  0  0  0  0  0  0  0  0
   -0.3280    2.0543    5.1554 C   0  0  0  0  0  0  0  0  0  0  0  0
   -1.3492    2.7006    5.8236 C   0  0  0  0  0  0  0  0  0  0  0  0
    0.5851    2.8250    4.3019 C   0  0  0  0  0  0  0  0  0  0  0  0
   -0.0186    3.1262    3.0851 F   0  0  0  0  0  0  0  0  0  0  0  0
    0.9249    3.9927    4.9527 F   0  0  0  0  0  0  0  0  0  0  0  0
    1.7432    2.1187    4.0753 F   0  0  0  0  0  0  0  0  0  0  0  0
   -0.7582   -1.5122    6.1652 C   0  0  0  0  0  0  0  0  0  0  0  0
   -1.9720   -2.1196    6.4240 F   0  0  0  0  0  0  0  0  0  0  0  0
   -0.2923   -2.0411    4.9683 F   0  0  0  0  0  0  0  0  0  0  0  0
    0.1043   -1.8179    7.2058 F   0  0  0  0  0  0  0  0  0  0  0  0
   -2.8708    3.5845    8.2140 O   0  0  0  0  0  0  0  0  0  0  0  0
   -2.1840    3.0775    9.3115 C   0  0  0  0  0  0  0  0  0  0  0  0
   -1.5083    4.1444   10.1157 C   0  0  0  0  0  0  0  0  0  0  0  0
   -2.1078    4.5030   11.3265 N   0  0  0  0  0  0  0  0  0  0  0  0
   -3.1353    3.7295   11.8753 C   0  0  0  0  0  0  0  0  0  0  0  0
   -3.9326    3.0113   10.8277 C   0  0  0  0  0  0  0  0  0  0  0  0
   -3.0564    2.2887   10.0396 O   0  0  0  0  0  0  0  0  0  0  0  0
   -1.8463    5.7884   11.8404 C   0  0  0  0  0  0  0  0  0  0  0  0
   -1.8135    5.8582   13.3207 C   0  0  0  0  0  0  0  0  0  0  0  0
   -2.4871    6.6629   14.1569 N   0  0  0  0  0  0  0  0  0  0  0  0
   -2.1252    6.3489   15.4207 C   0  0  0  0  0  0  0  0  0  0  0  0
   -2.5266    6.8687   16.5024 O   0  0  0  0  0  0  0  0  0  0  0  0
   -1.2359    5.3581   15.3520 N   0  0  0  0  0  0  0  0  0  0  0  0
   -1.0457    5.0593   14.0788 N   0  0  0  0  0  0  0  0  0  0  0  0
   -0.0673    3.8278   10.3538 C   0  0  0  0  0  0  0  0  0  0  0  0
    0.3420    2.5433   10.6417 C   0  0  0  0  0  0  0  0  0  0  0  0
    1.6691    2.2360   10.8640 C   0  0  0  0  0  0  0  0  0  0  0  0
    2.6133    3.2408   10.7966 C   0  0  0  0  0  0  0  0  0  0  0  0
    2.2467    4.5193   10.5151 C   0  0  0  0  0  0  0  0  0  0  0  0
    0.9138    4.7950   10.2980 C   0  0  0  0  0  0  0  0  0  0  0  0
    3.9048    2.8861   11.0231 F   0  0  0  0  0  0  0  0  0  0  0  0
  1  2  1  0
  2  3  1  0
  3  4  2  0
  4  5  1  0
  5  6  2  0
  6  7  1  0
  7  8  2  0
  7  9  1  0
  9 10  1  0
  9 11  1  0
  9 12  1  0
  5 13  1  0
 13 14  1  0
 13 15  1  0
 13 16  1  0
  2 17  1  0
 17 18  1  0
 18 19  1  0
 19 20  1  0
 20 21  1  0
 21 22  1  0
 22 23  1  0
 20 24  1  0
 24 25  1  0
 25 26  2  0
 26 27  1  0
 27 28  2  0
 27 29  1  0
 29 30  1  0
 19 31  1  0
 31 32  2  0
 32 33  1  0
 33 34  2  0
 34 35  1  0
 35 36  2  0
 34 37  1  0
  8  3  1  0
 23 18  1  0
 30 25  1  0
 36 31  1  0
M  END
$$$$
