
     RDKit          3D

 37 40  0  0  0  0  0  0  0  0999 V2000
    0.5725    5.1436    7.0067 C   0  0  0  0  0  0  0  0  0  0  0  0
   -0.3619    4.0374    7.5162 C   0  0  0  0  0  0  0  0  0  0  0  0
   -0.0393    2.8250    6.7709 C   0  0  0  0  0  0  0  0  0  0  0  0
   -0.2315    2.8020    5.4062 C   0  0  0  0  0  0  0  0  0  0  0  0
    0.0480    1.6980    4.6308 C   0  0  0  0  0  0  0  0  0  0  0  0
    0.5431    0.5621    5.2466 C   0  0  0  0  0  0  0  0  0  0  0  0
    0.7400    0.5718    6.6117 C   0  0  0  0  0  0  0  0  0  0  0  0
    0.4579    1.6818    7.3832 C   0  0  0  0  0  0  0  0  0  0  0  0
    1.2661   -0.6422    7.2486 C   0  0  0  0  0  0  0  0  0  0  0  0
    0.8273   -1.7781    6.5756 F   0  0  0  0  0  0  0  0  0  0  0  0
    2.6444   -0.5947    7.2287 F   0  0  0  0  0  0  0  0  0  0  0  0
    0.8675   -0.7070    8.5633 F   0  0  0  0  0  0  0  0  0  0  0  0
   -0.1579    1.6696    3.1601 C   0  0  0  0  0  0  0  0  0  0  0  0
   -0.4433    2.9541    2.7386 F   0  0  0  0  0  0  0  0  0  0  0  0
    0.9944    1.2752    2.4921 F   0  0  0  0  0  0  0  0  0  0  0  0
   -1.2270    0.8581    2.8157 F   0  0  0  0  0  0  0  0  0  0  0  0
   -0.2021    3.8630    8.8881 O   0  0  0  0  0  0  0  0  0  0  0  0
   -1.1718    3.0184    9.4168 C   0  0  0  0  0  0  0  0  0  0  0  0
   -0.9702    2.7460   10.8752 C   0  0  0  0  0  0  0  0  0  0  0  0
   -1.8179    3.4077   11.7682 N   0  0  0  0  0  0  0  0  0  0  0  0
   -2.9536    4.0842   11.3121 C   0  0  0  0  0  0  0  0  0  0  0  0
   -2.7898    4.5985    9.9131 C   0  0  0  0  0  0  0  0  0  0  0  0
   -2.4146    3.5405    9.1064 O   0  0  0  0  0  0  0  0  0  0  0  0
   -1.3659    3.6061   13.0877 C   0  0  0  0  0  0  0  0  0  0  0  0
   -1.8433    4.8622   13.7135 C   0  0  0  0  0  0  0  0  0  0  0  0
   -1.3218    6.0975   13.6643 N   0  0  0  0  0  0  0  0  0  0  0  0
   -2.1151    6.9149   14.3917 C   0  0  0  0  0  0  0  0  0  0  0  0
   -1.9792    8.1555   14.6012 O   0  0  0  0  0  0  0  0  0  0  0  0
   -3.1138    6.1791   14.8803 N   0  0  0  0  0  0  0  0  0  0  0  0
   -2.9503    4.9337   14.4698 N   0  0  0  0  0  0  0  0  0  0  0  0
   -0.9885    1.2813   11.1716 C   0  0  0  0  0  0  0  0  0  0  0  0
   -2.1604    0.5575   11.1156 C   0  0  0  0  0  0  0  0  0  0  0  0
   -2.1926   -0.7954   11.3868 C   0  0  0  0  0  0  0  0  0  0  0  0
   -1.0207   -1.4428   11.7232 C   0  0  0  0  0  0  0  0  0  0  0  0
    0.1539   -0.7615   11.7884 C   0  0  0  0  0  0  0  0  0  0  0  0
    0.1541    0.5888   11.5122 C   0  0  0  0  0  0  0  0  0  0  0  0
   -1.1065   -2.7738   11.9805 F   0  0  0  0  0  0  0  0  0  0  0  0
  1  2  1  0
  2  3  1  0
  3  4  2  0
  4  5  1  0
  5  6  2  0
  6  7  1  0
  7  8  2  0
  7  9  1  0
  9 10  1  0
  9 11  1  0
  9 12  1  0
  5 13  1  0
 13 14  1  0
 13 15  1  0
 13 16  1  0
  2 17  1  0
 17 18  1  0
 18 19  1  0
 19 20  1  0
 20 21  1  0
 21 22  1  0
 22 23  1  0
 20 24  1  0
 24 25  1  0
 25 26  2  0
 26 27  1  0
 27 28  2  0
 27 29  1  0
 29 30  1  0
 19 31  1  0
 31 32  2  0
 32 33  1  0
 33 34  2  0
 34 35  1  0
 35 36  2  0
 34 37  1  0
  8  3  1  0
 23 18  1  0
 30 25  1  0
 36 31  1  0
M  END
$$$$
