
     RDKit          3D

 37 40  0  0  0  0  0  0  0  0999 V2000
   -2.0128    4.3754    5.4716 C   0  0  0  0  0  0  0  0  0  0  0  0
   -2.2752    3.2005    6.4241 C   0  0  0  0  0  0  0  0  0  0  0  0
   -1.1734    2.2582    6.2582 C   0  0  0  0  0  0  0  0  0  0  0  0
   -0.6452    2.0538    5.0016 C   0  0  0  0  0  0  0  0  0  0  0  0
    0.3944    1.1824    4.7606 C   0  0  0  0  0  0  0  0  0  0  0  0
    0.9330    0.4809    5.8248 C   0  0  0  0  0  0  0  0  0  0  0  0
    0.4137    0.6761    7.0875 C   0  0  0  0  0  0  0  0  0  0  0  0
   -0.6286    1.5512    7.3222 C   0  0  0  0  0  0  0  0  0  0  0  0
    0.9973   -0.0764    8.2052 C   0  0  0  0  0  0  0  0  0  0  0  0
    0.0494   -0.9201    8.7758 F   0  0  0  0  0  0  0  0  0  0  0  0
    2.0585   -0.8217    7.7352 F   0  0  0  0  0  0  0  0  0  0  0  0
    1.4803    0.7833    9.1639 F   0  0  0  0  0  0  0  0  0  0  0  0
    0.9660    0.9596    3.4079 C   0  0  0  0  0  0  0  0  0  0  0  0
    0.9464    2.1617    2.7270 F   0  0  0  0  0  0  0  0  0  0  0  0
    2.2943    0.5590    3.4761 F   0  0  0  0  0  0  0  0  0  0  0  0
    0.2142    0.0462    2.6865 F   0  0  0  0  0  0  0  0  0  0  0  0
   -2.3784    3.6549    7.7358 O   0  0  0  0  0  0  0  0  0  0  0  0
   -3.2587    2.8796    8.4823 C   0  0  0  0  0  0  0  0  0  0  0  0
   -2.8597    2.7729    9.9214 C   0  0  0  0  0  0  0  0  0  0  0  0
   -3.5867    3.5350   10.8405 N   0  0  0  0  0  0  0  0  0  0  0  0
   -4.7809    4.1604   10.4687 C   0  0  0  0  0  0  0  0  0  0  0  0
   -4.8125    4.5127    9.0114 C   0  0  0  0  0  0  0  0  0  0  0  0
   -4.5377    3.3687    8.2857 O   0  0  0  0  0  0  0  0  0  0  0  0
   -2.9635    3.8792   12.0561 C   0  0  0  0  0  0  0  0  0  0  0  0
   -1.8901    4.8931   11.9253 C   0  0  0  0  0  0  0  0  0  0  0  0
   -0.6860    4.7975   11.3408 N   0  0  0  0  0  0  0  0  0  0  0  0
   -0.0611    5.9884   11.4747 C   0  0  0  0  0  0  0  0  0  0  0  0
    1.0895    6.3196   11.0650 O   0  0  0  0  0  0  0  0  0  0  0  0
   -0.8821    6.8033   12.1375 N   0  0  0  0  0  0  0  0  0  0  0  0
   -1.9920    6.1404   12.4116 N   0  0  0  0  0  0  0  0  0  0  0  0
   -2.8219    1.3511   10.3805 C   0  0  0  0  0  0  0  0  0  0  0  0
   -3.9584    0.7198   10.8388 C   0  0  0  0  0  0  0  0  0  0  0  0
   -3.9386   -0.5925   11.2660 C   0  0  0  0  0  0  0  0  0  0  0  0
   -2.7496   -1.2932   11.2340 C   0  0  0  0  0  0  0  0  0  0  0  0
   -1.6087   -0.7032   10.7883 C   0  0  0  0  0  0  0  0  0  0  0  0
   -1.6602    0.6085   10.3684 C   0  0  0  0  0  0  0  0  0  0  0  0
   -2.7839   -2.5809   11.6649 F   0  0  0  0  0  0  0  0  0  0  0  0
  1  2  1  0
  2  3  1  0
  3  4  2  0
  4  5  1  0
  5  6  2  0
  6  7  1  0
  7  8  2  0
  7  9  1  0
  9 10  1  0
  9 11  1  0
  9 12  1  0
  5 13  1  0
 13 14  1  0
 13 15  1  0
 13 16  1  0
  2 17  1  0
 17 18  1  0
 18 19  1  0
 19 20  1  0
 20 21  1  0
 21 22  1  0
 22 23  1  0
 20 24  1  0
 24 25  1  0
 25 26  2  0
 26 27  1  0
 27 28  2  0
 27 29  1  0
 29 30  1  0
 19 31  1  0
 31 32  2  0
 32 33  1  0
 33 34  2  0
 34 35  1  0
 35 36  2  0
 34 37  1  0
  8  3  1  0
 23 18  1  0
 30 25  1  0
 36 31  1  0
M  END
$$$$
