
     RDKit          3D

 37 40  0  0  0  0  0  0  0  0999 V2000
    1.7428    4.5405    7.7423 C   0  0  0  0  0  0  0  0  0  0  0  0
    0.3236    3.9820    7.5672 C   0  0  0  0  0  0  0  0  0  0  0  0
    0.4573    2.5773    7.1954 C   0  0  0  0  0  0  0  0  0  0  0  0
    0.0532    2.1709    5.9418 C   0  0  0  0  0  0  0  0  0  0  0  0
    0.1457    0.8645    5.5139 C   0  0  0  0  0  0  0  0  0  0  0  0
    0.6664   -0.0821    6.3785 C   0  0  0  0  0  0  0  0  0  0  0  0
    1.0745    0.3113    7.6358 C   0  0  0  0  0  0  0  0  0  0  0  0
    0.9790    1.6225    8.0585 C   0  0  0  0  0  0  0  0  0  0  0  0
    1.6247   -0.7064    8.5402 C   0  0  0  0  0  0  0  0  0  0  0  0
    1.4145   -0.3470    9.8678 F   0  0  0  0  0  0  0  0  0  0  0  0
    1.0071   -1.9125    8.2828 F   0  0  0  0  0  0  0  0  0  0  0  0
    2.9721   -0.8692    8.3183 F   0  0  0  0  0  0  0  0  0  0  0  0
   -0.2888    0.4230    4.1639 C   0  0  0  0  0  0  0  0  0  0  0  0
   -1.6311    0.7185    4.0235 F   0  0  0  0  0  0  0  0  0  0  0  0
    0.3809    1.1142    3.1622 F   0  0  0  0  0  0  0  0  0  0  0  0
   -0.1322   -0.9447    4.0055 F   0  0  0  0  0  0  0  0  0  0  0  0
   -0.4076    4.1425    8.7409 O   0  0  0  0  0  0  0  0  0  0  0  0
   -1.7721    3.9882    8.5233 C   0  0  0  0  0  0  0  0  0  0  0  0
   -2.5307    3.7009    9.7817 C   0  0  0  0  0  0  0  0  0  0  0  0
   -3.2753    4.7501   10.3283 N   0  0  0  0  0  0  0  0  0  0  0  0
   -3.5036    5.9227    9.6016 C   0  0  0  0  0  0  0  0  0  0  0  0
   -2.4038    6.2134    8.6245 C   0  0  0  0  0  0  0  0  0  0  0  0
   -2.2266    5.0959    7.8304 O   0  0  0  0  0  0  0  0  0  0  0  0
   -3.5584    4.7134   11.7079 C   0  0  0  0  0  0  0  0  0  0  0  0
   -2.4874    5.2747   12.5653 C   0  0  0  0  0  0  0  0  0  0  0  0
   -1.6168    4.6481   13.3715 N   0  0  0  0  0  0  0  0  0  0  0  0
   -0.8297    5.5853   13.9449 C   0  0  0  0  0  0  0  0  0  0  0  0
    0.1165    5.4165   14.7681 O   0  0  0  0  0  0  0  0  0  0  0  0
   -1.2207    6.7755   13.4889 N   0  0  0  0  0  0  0  0  0  0  0  0
   -2.2262    6.5888   12.6520 N   0  0  0  0  0  0  0  0  0  0  0  0
   -3.4062    2.4983    9.6370 C   0  0  0  0  0  0  0  0  0  0  0  0
   -4.7182    2.6167    9.2311 C   0  0  0  0  0  0  0  0  0  0  0  0
   -5.5385    1.5153    9.0930 C   0  0  0  0  0  0  0  0  0  0  0  0
   -5.0329    0.2606    9.3684 C   0  0  0  0  0  0  0  0  0  0  0  0
   -3.7438    0.1053    9.7711 C   0  0  0  0  0  0  0  0  0  0  0  0
   -2.9493    1.2242    9.8997 C   0  0  0  0  0  0  0  0  0  0  0  0
   -5.8807   -0.7898    9.2170 F   0  0  0  0  0  0  0  0  0  0  0  0
  1  2  1  0
  2  3  1  0
  3  4  2  0
  4  5  1  0
  5  6  2  0
  6  7  1  0
  7  8  2  0
  7  9  1  0
  9 10  1  0
  9 11  1  0
  9 12  1  0
  5 13  1  0
 13 14  1  0
 13 15  1  0
 13 16  1  0
  2 17  1  0
 17 18  1  0
 18 19  1  0
 19 20  1  0
 20 21  1  0
 21 22  1  0
 22 23  1  0
 20 24  1  0
 24 25  1  0
 25 26  2  0
 26 27  1  0
 27 28  2  0
 27 29  1  0
 29 30  1  0
 19 31  1  0
 31 32  2  0
 32 33  1  0
 33 34  2  0
 34 35  1  0
 35 36  2  0
 34 37  1  0
  8  3  1  0
 23 18  1  0
 30 25  1  0
 36 31  1  0
M  END
$$$$
