
     RDKit          3D

 37 40  0  0  0  0  0  0  0  0999 V2000
   -1.2094    3.7817    4.8541 C   0  0  0  0  0  0  0  0  0  0  0  0
   -1.6054    2.8911    6.0401 C   0  0  0  0  0  0  0  0  0  0  0  0
   -0.4706    2.0171    6.3190 C   0  0  0  0  0  0  0  0  0  0  0  0
    0.3948    2.3422    7.3414 C   0  0  0  0  0  0  0  0  0  0  0  0
    1.4886    1.5709    7.6682 C   0  0  0  0  0  0  0  0  0  0  0  0
    1.7307    0.4195    6.9400 C   0  0  0  0  0  0  0  0  0  0  0  0
    0.8724    0.0826    5.9143 C   0  0  0  0  0  0  0  0  0  0  0  0
   -0.2223    0.8602    5.5918 C   0  0  0  0  0  0  0  0  0  0  0  0
    1.1443   -1.1427    5.1520 C   0  0  0  0  0  0  0  0  0  0  0  0
    0.6830   -2.2604    5.8402 F   0  0  0  0  0  0  0  0  0  0  0  0
    0.5116   -1.0569    3.9295 F   0  0  0  0  0  0  0  0  0  0  0  0
    2.4932   -1.2743    4.9180 F   0  0  0  0  0  0  0  0  0  0  0  0
    2.4232    1.9183    8.7691 C   0  0  0  0  0  0  0  0  0  0  0  0
    3.5919    1.2045    8.5855 F   0  0  0  0  0  0  0  0  0  0  0  0
    2.7665    3.2639    8.7401 F   0  0  0  0  0  0  0  0  0  0  0  0
    1.8992    1.5719   10.0043 F   0  0  0  0  0  0  0  0  0  0  0  0
   -1.9428    3.6734    7.1410 O   0  0  0  0  0  0  0  0  0  0  0  0
   -3.0617    3.1787    7.8015 C   0  0  0  0  0  0  0  0  0  0  0  0
   -2.7616    2.7400    9.2012 C   0  0  0  0  0  0  0  0  0  0  0  0
   -3.1811    3.5825   10.2348 N   0  0  0  0  0  0  0  0  0  0  0  0
   -4.0561    4.6442    9.9847 C   0  0  0  0  0  0  0  0  0  0  0  0
   -3.9243    5.1777    8.5895 C   0  0  0  0  0  0  0  0  0  0  0  0
   -4.0695    4.1218    7.7091 O   0  0  0  0  0  0  0  0  0  0  0  0
   -2.5027    3.5080   11.4672 C   0  0  0  0  0  0  0  0  0  0  0  0
   -1.4270    4.5143   11.6330 C   0  0  0  0  0  0  0  0  0  0  0  0
   -1.3905    5.6123   12.4035 N   0  0  0  0  0  0  0  0  0  0  0  0
   -0.1938    6.2127   12.2185 C   0  0  0  0  0  0  0  0  0  0  0  0
    0.2422    7.2723   12.7555 O   0  0  0  0  0  0  0  0  0  0  0  0
    0.4931    5.4824   11.3396 N   0  0  0  0  0  0  0  0  0  0  0  0
   -0.2536    4.4519   10.9835 N   0  0  0  0  0  0  0  0  0  0  0  0
   -3.2552    1.3541    9.4640 C   0  0  0  0  0  0  0  0  0  0  0  0
   -2.3856    0.2858    9.5159 C   0  0  0  0  0  0  0  0  0  0  0  0
   -2.8269   -0.9995    9.7575 C   0  0  0  0  0  0  0  0  0  0  0  0
   -4.1751   -1.2229    9.9525 C   0  0  0  0  0  0  0  0  0  0  0  0
   -5.0622   -0.1937    9.9084 C   0  0  0  0  0  0  0  0  0  0  0  0
   -4.5912    1.0785    9.6652 C   0  0  0  0  0  0  0  0  0  0  0  0
   -4.5575   -2.5052   10.1866 F   0  0  0  0  0  0  0  0  0  0  0  0
  1  2  1  0
  2  3  1  0
  3  4  2  0
  4  5  1  0
  5  6  2  0
  6  7  1  0
  7  8  2  0
  7  9  1  0
  9 10  1  0
  9 11  1  0
  9 12  1  0
  5 13  1  0
 13 14  1  0
 13 15  1  0
 13 16  1  0
  2 17  1  0
 17 18  1  0
 18 19  1  0
 19 20  1  0
 20 21  1  0
 21 22  1  0
 22 23  1  0
 20 24  1  0
 24 25  1  0
 25 26  2  0
 26 27  1  0
 27 28  2  0
 27 29  1  0
 29 30  1  0
 19 31  1  0
 31 32  2  0
 32 33  1  0
 33 34  2  0
 34 35  1  0
 35 36  2  0
 34 37  1  0
  8  3  1  0
 23 18  1  0
 30 25  1  0
 36 31  1  0
M  END
$$$$
