
     RDKit          3D

 37 40  0  0  0  0  0  0  0  0999 V2000
    1.4536    3.4042    7.9556 C   0  0  0  0  0  0  0  0  0  0  0  0
    0.1566    2.6004    8.1242 C   0  0  0  0  0  0  0  0  0  0  0  0
   -0.0967    1.9222    6.8572 C   0  0  0  0  0  0  0  0  0  0  0  0
   -0.1587    2.6636    5.6969 C   0  0  0  0  0  0  0  0  0  0  0  0
   -0.3935    2.1001    4.4618 C   0  0  0  0  0  0  0  0  0  0  0  0
   -0.5754    0.7308    4.3803 C   0  0  0  0  0  0  0  0  0  0  0  0
   -0.5158   -0.0228    5.5339 C   0  0  0  0  0  0  0  0  0  0  0  0
   -0.2800    0.5484    6.7689 C   0  0  0  0  0  0  0  0  0  0  0  0
   -0.7109   -1.4744    5.4290 C   0  0  0  0  0  0  0  0  0  0  0  0
    0.2242   -2.1517    6.2053 F   0  0  0  0  0  0  0  0  0  0  0  0
   -1.9837   -1.7855    5.8596 F   0  0  0  0  0  0  0  0  0  0  0  0
   -0.5995   -1.8814    4.1201 F   0  0  0  0  0  0  0  0  0  0  0  0
   -0.4610    2.8959    3.2094 C   0  0  0  0  0  0  0  0  0  0  0  0
   -0.6259    4.2248    3.5499 F   0  0  0  0  0  0  0  0  0  0  0  0
    0.7227    2.8108    2.4876 F   0  0  0  0  0  0  0  0  0  0  0  0
   -1.5407    2.5167    2.4280 F   0  0  0  0  0  0  0  0  0  0  0  0
    0.2783    1.7017    9.1804 O   0  0  0  0  0  0  0  0  0  0  0  0
   -0.9577    1.3840    9.7320 C   0  0  0  0  0  0  0  0  0  0  0  0
   -1.2220    2.1065   11.0165 C   0  0  0  0  0  0  0  0  0  0  0  0
   -2.1144    3.1814   10.9688 N   0  0  0  0  0  0  0  0  0  0  0  0
   -2.9091    3.4048    9.8402 C   0  0  0  0  0  0  0  0  0  0  0  0
   -2.2655    2.9084    8.5800 C   0  0  0  0  0  0  0  0  0  0  0  0
   -1.9258    1.5810    8.7638 O   0  0  0  0  0  0  0  0  0  0  0  0
   -2.0038    4.1788   11.9576 C   0  0  0  0  0  0  0  0  0  0  0  0
   -2.8712    3.9638   13.1403 C   0  0  0  0  0  0  0  0  0  0  0  0
   -4.2047    3.8348   13.2143 N   0  0  0  0  0  0  0  0  0  0  0  0
   -4.5352    3.6521   14.5120 C   0  0  0  0  0  0  0  0  0  0  0  0
   -5.6864    3.4894   15.0117 O   0  0  0  0  0  0  0  0  0  0  0  0
   -3.4073    3.6702   15.2227 N   0  0  0  0  0  0  0  0  0  0  0  0
   -2.3970    3.8592   14.3920 N   0  0  0  0  0  0  0  0  0  0  0  0
   -1.6380    1.1682   12.1028 C   0  0  0  0  0  0  0  0  0  0  0  0
   -0.9993    1.1644   13.3244 C   0  0  0  0  0  0  0  0  0  0  0  0
   -1.3724    0.3037   14.3369 C   0  0  0  0  0  0  0  0  0  0  0  0
   -2.4130   -0.5776   14.1221 C   0  0  0  0  0  0  0  0  0  0  0  0
   -3.0661   -0.6023   12.9300 C   0  0  0  0  0  0  0  0  0  0  0  0
   -2.6705    0.2693   11.9384 C   0  0  0  0  0  0  0  0  0  0  0  0
   -2.7408   -1.4029   15.1500 F   0  0  0  0  0  0  0  0  0  0  0  0
  1  2  1  0
  2  3  1  0
  3  4  2  0
  4  5  1  0
  5  6  2  0
  6  7  1  0
  7  8  2  0
  7  9  1  0
  9 10  1  0
  9 11  1  0
  9 12  1  0
  5 13  1  0
 13 14  1  0
 13 15  1  0
 13 16  1  0
  2 17  1  0
 17 18  1  0
 18 19  1  0
 19 20  1  0
 20 21  1  0
 21 22  1  0
 22 23  1  0
 20 24  1  0
 24 25  1  0
 25 26  2  0
 26 27  1  0
 27 28  2  0
 27 29  1  0
 29 30  1  0
 19 31  1  0
 31 32  2  0
 32 33  1  0
 33 34  2  0
 34 35  1  0
 35 36  2  0
 34 37  1  0
  8  3  1  0
 23 18  1  0
 30 25  1  0
 36 31  1  0
M  END
$$$$
