
     RDKit          3D

 37 40  0  0  0  0  0  0  0  0999 V2000
    1.2021    2.4862    7.9744 C   0  0  0  0  0  0  0  0  0  0  0  0
    0.0040    3.1975    7.3302 C   0  0  0  0  0  0  0  0  0  0  0  0
   -0.2251    2.5663    6.0347 C   0  0  0  0  0  0  0  0  0  0  0  0
   -0.1999    1.1913    5.9414 C   0  0  0  0  0  0  0  0  0  0  0  0
   -0.4063    0.5188    4.7567 C   0  0  0  0  0  0  0  0  0  0  0  0
   -0.6495    1.2536    3.6097 C   0  0  0  0  0  0  0  0  0  0  0  0
   -0.6774    2.6302    3.6892 C   0  0  0  0  0  0  0  0  0  0  0  0
   -0.4697    3.2982    4.8799 C   0  0  0  0  0  0  0  0  0  0  0  0
   -0.9369    3.3941    2.4623 C   0  0  0  0  0  0  0  0  0  0  0  0
   -0.0868    4.4925    2.3799 F   0  0  0  0  0  0  0  0  0  0  0  0
   -0.7378    2.5708    1.3738 F   0  0  0  0  0  0  0  0  0  0  0  0
   -2.2431    3.8235    2.4302 F   0  0  0  0  0  0  0  0  0  0  0  0
   -0.3798   -0.9626    4.6525 C   0  0  0  0  0  0  0  0  0  0  0  0
   -1.2737   -1.3430    3.6701 F   0  0  0  0  0  0  0  0  0  0  0  0
    0.8698   -1.4230    4.2577 F   0  0  0  0  0  0  0  0  0  0  0  0
   -0.7697   -1.5592    5.8409 F   0  0  0  0  0  0  0  0  0  0  0  0
   -1.1126    3.1093    8.1568 O   0  0  0  0  0  0  0  0  0  0  0  0
   -1.1054    1.9407    8.9101 C   0  0  0  0  0  0  0  0  0  0  0  0
   -1.2830    2.1943   10.3749 C   0  0  0  0  0  0  0  0  0  0  0  0
   -2.5377    1.9098   10.9215 N   0  0  0  0  0  0  0  0  0  0  0  0
   -3.4901    1.1885   10.1948 C   0  0  0  0  0  0  0  0  0  0  0  0
   -3.3423    1.3758    8.7143 C   0  0  0  0  0  0  0  0  0  0  0  0
   -2.0381    1.0735    8.3700 O   0  0  0  0  0  0  0  0  0  0  0  0
   -2.9174    2.5866   12.0972 C   0  0  0  0  0  0  0  0  0  0  0  0
   -2.1785    3.8485   12.3400 C   0  0  0  0  0  0  0  0  0  0  0  0
   -2.4650    5.0996   11.9486 N   0  0  0  0  0  0  0  0  0  0  0  0
   -1.4939    5.9157   12.4150 C   0  0  0  0  0  0  0  0  0  0  0  0
   -1.3862    7.1681   12.2690 O   0  0  0  0  0  0  0  0  0  0  0  0
   -0.6217    5.1635   13.0865 N   0  0  0  0  0  0  0  0  0  0  0  0
   -1.0356    3.9093   13.0420 N   0  0  0  0  0  0  0  0  0  0  0  0
   -0.2268    1.5153   11.1854 C   0  0  0  0  0  0  0  0  0  0  0  0
    1.1026    1.5876   10.8276 C   0  0  0  0  0  0  0  0  0  0  0  0
    2.0889    0.9657   11.5662 C   0  0  0  0  0  0  0  0  0  0  0  0
    1.7364    0.2518   12.6939 C   0  0  0  0  0  0  0  0  0  0  0  0
    0.4354    0.1586   13.0773 C   0  0  0  0  0  0  0  0  0  0  0  0
   -0.5267    0.7905   12.3193 C   0  0  0  0  0  0  0  0  0  0  0  0
    2.7442   -0.3410   13.3853 F   0  0  0  0  0  0  0  0  0  0  0  0
  1  2  1  0
  2  3  1  0
  3  4  2  0
  4  5  1  0
  5  6  2  0
  6  7  1  0
  7  8  2  0
  7  9  1  0
  9 10  1  0
  9 11  1  0
  9 12  1  0
  5 13  1  0
 13 14  1  0
 13 15  1  0
 13 16  1  0
  2 17  1  0
 17 18  1  0
 18 19  1  0
 19 20  1  0
 20 21  1  0
 21 22  1  0
 22 23  1  0
 20 24  1  0
 24 25  1  0
 25 26  2  0
 26 27  1  0
 27 28  2  0
 27 29  1  0
 29 30  1  0
 19 31  1  0
 31 32  2  0
 32 33  1  0
 33 34  2  0
 34 35  1  0
 35 36  2  0
 34 37  1  0
  8  3  1  0
 23 18  1  0
 30 25  1  0
 36 31  1  0
M  END
$$$$
