
     RDKit          3D

 37 40  0  0  0  0  0  0  0  0999 V2000
   -3.7945    3.4825    6.3670 C   0  0  0  0  0  0  0  0  0  0  0  0
   -3.0212    2.4092    7.1459 C   0  0  0  0  0  0  0  0  0  0  0  0
   -1.8048    2.1236    6.3921 C   0  0  0  0  0  0  0  0  0  0  0  0
   -0.7287    2.9780    6.5008 C   0  0  0  0  0  0  0  0  0  0  0  0
    0.4544    2.7796    5.8232 C   0  0  0  0  0  0  0  0  0  0  0  0
    0.5694    1.6754    4.9972 C   0  0  0  0  0  0  0  0  0  0  0  0
   -0.5000    0.8125    4.8794 C   0  0  0  0  0  0  0  0  0  0  0  0
   -1.6832    1.0172    5.5615 C   0  0  0  0  0  0  0  0  0  0  0  0
   -0.3606   -0.3541    3.9986 C   0  0  0  0  0  0  0  0  0  0  0  0
    0.2435   -1.4093    4.6750 F   0  0  0  0  0  0  0  0  0  0  0  0
   -1.6124   -0.7374    3.5646 F   0  0  0  0  0  0  0  0  0  0  0  0
    0.3878   -0.0333    2.8902 F   0  0  0  0  0  0  0  0  0  0  0  0
    1.6159    3.6981    5.9380 C   0  0  0  0  0  0  0  0  0  0  0  0
    2.1308    3.9044    4.6725 F   0  0  0  0  0  0  0  0  0  0  0  0
    1.2350    4.9426    6.4236 F   0  0  0  0  0  0  0  0  0  0  0  0
    2.6171    3.1501    6.7238 F   0  0  0  0  0  0  0  0  0  0  0  0
   -2.7423    2.8540    8.4352 O   0  0  0  0  0  0  0  0  0  0  0  0
   -2.6585    1.7995    9.3375 C   0  0  0  0  0  0  0  0  0  0  0  0
   -1.5673    1.9848   10.3457 C   0  0  0  0  0  0  0  0  0  0  0  0
   -1.9516    2.3611   11.6359 N   0  0  0  0  0  0  0  0  0  0  0  0
   -3.2933    2.3153   12.0271 C   0  0  0  0  0  0  0  0  0  0  0  0
   -4.2321    2.5196   10.8756 C   0  0  0  0  0  0  0  0  0  0  0  0
   -3.9113    1.6043    9.8907 O   0  0  0  0  0  0  0  0  0  0  0  0
   -1.0097    3.0351   12.4380 C   0  0  0  0  0  0  0  0  0  0  0  0
   -0.9762    4.5032   12.2360 C   0  0  0  0  0  0  0  0  0  0  0  0
   -1.5861    5.4785   12.9268 N   0  0  0  0  0  0  0  0  0  0  0  0
   -1.2499    6.6610   12.3653 C   0  0  0  0  0  0  0  0  0  0  0  0
   -1.6104    7.8234   12.7120 O   0  0  0  0  0  0  0  0  0  0  0  0
   -0.4395    6.4047   11.3381 N   0  0  0  0  0  0  0  0  0  0  0  0
   -0.2725    5.0962   11.2584 N   0  0  0  0  0  0  0  0  0  0  0  0
   -0.6793    0.7853   10.4259 C   0  0  0  0  0  0  0  0  0  0  0  0
   -1.0521   -0.4161    9.8622 C   0  0  0  0  0  0  0  0  0  0  0  0
   -0.2426   -1.5322    9.9284 C   0  0  0  0  0  0  0  0  0  0  0  0
    0.9733   -1.4445   10.5762 C   0  0  0  0  0  0  0  0  0  0  0  0
    1.3740   -0.2761   11.1440 C   0  0  0  0  0  0  0  0  0  0  0  0
    0.5438    0.8210   11.0613 C   0  0  0  0  0  0  0  0  0  0  0  0
    1.7319   -2.5707   10.6133 F   0  0  0  0  0  0  0  0  0  0  0  0
  1  2  1  0
  2  3  1  0
  3  4  2  0
  4  5  1  0
  5  6  2  0
  6  7  1  0
  7  8  2  0
  7  9  1  0
  9 10  1  0
  9 11  1  0
  9 12  1  0
  5 13  1  0
 13 14  1  0
 13 15  1  0
 13 16  1  0
  2 17  1  0
 17 18  1  0
 18 19  1  0
 19 20  1  0
 20 21  1  0
 21 22  1  0
 22 23  1  0
 20 24  1  0
 24 25  1  0
 25 26  2  0
 26 27  1  0
 27 28  2  0
 27 29  1  0
 29 30  1  0
 19 31  1  0
 31 32  2  0
 32 33  1  0
 33 34  2  0
 34 35  1  0
 35 36  2  0
 34 37  1  0
  8  3  1  0
 23 18  1  0
 30 25  1  0
 36 31  1  0
M  END
$$$$
