
     RDKit          3D

 37 40  0  0  0  0  0  0  0  0999 V2000
    0.6786    2.9914    4.7256 C   0  0  0  0  0  0  0  0  0  0  0  0
   -0.4325    2.6758    5.7367 C   0  0  0  0  0  0  0  0  0  0  0  0
   -0.4457    1.2286    5.9232 C   0  0  0  0  0  0  0  0  0  0  0  0
   -1.3137    0.4611    5.1766 C   0  0  0  0  0  0  0  0  0  0  0  0
   -1.3880   -0.9097    5.2926 C   0  0  0  0  0  0  0  0  0  0  0  0
   -0.5562   -1.5456    6.1973 C   0  0  0  0  0  0  0  0  0  0  0  0
    0.3171   -0.7893    6.9507 C   0  0  0  0  0  0  0  0  0  0  0  0
    0.3866    0.5846    6.8294 C   0  0  0  0  0  0  0  0  0  0  0  0
    1.1925   -1.4805    7.9057 C   0  0  0  0  0  0  0  0  0  0  0  0
    0.4816   -2.4456    8.6122 F   0  0  0  0  0  0  0  0  0  0  0  0
    2.2240   -2.0790    7.2127 F   0  0  0  0  0  0  0  0  0  0  0  0
    1.7455   -0.5825    8.7884 F   0  0  0  0  0  0  0  0  0  0  0  0
   -2.3221   -1.7399    4.4898 C   0  0  0  0  0  0  0  0  0  0  0  0
   -1.6217   -2.8232    3.9952 F   0  0  0  0  0  0  0  0  0  0  0  0
   -3.3504   -2.2503    5.2719 F   0  0  0  0  0  0  0  0  0  0  0  0
   -2.8300   -1.0303    3.4133 F   0  0  0  0  0  0  0  0  0  0  0  0
   -0.2053    3.3525    6.9319 O   0  0  0  0  0  0  0  0  0  0  0  0
   -1.3913    3.7938    7.5080 C   0  0  0  0  0  0  0  0  0  0  0  0
   -1.3469    3.7853    9.0045 C   0  0  0  0  0  0  0  0  0  0  0  0
   -1.1975    5.0200    9.6426 N   0  0  0  0  0  0  0  0  0  0  0  0
   -1.3405    6.2165    8.9331 C   0  0  0  0  0  0  0  0  0  0  0  0
   -0.9734    6.0710    7.4864 C   0  0  0  0  0  0  0  0  0  0  0  0
   -1.7060    5.0240    6.9593 O   0  0  0  0  0  0  0  0  0  0  0  0
   -0.6411    5.0341   10.9368 C   0  0  0  0  0  0  0  0  0  0  0  0
   -1.5261    5.6142   11.9748 C   0  0  0  0  0  0  0  0  0  0  0  0
   -1.5841    5.3625   13.2915 N   0  0  0  0  0  0  0  0  0  0  0  0
   -2.5523    6.1411   13.8233 C   0  0  0  0  0  0  0  0  0  0  0  0
   -2.9273    6.2102   15.0300 O   0  0  0  0  0  0  0  0  0  0  0  0
   -3.0799    6.8624   12.8339 N   0  0  0  0  0  0  0  0  0  0  0  0
   -2.4585    6.5439   11.7120 N   0  0  0  0  0  0  0  0  0  0  0  0
   -2.5206    3.0676    9.5882 C   0  0  0  0  0  0  0  0  0  0  0  0
   -3.4896    2.5115    8.7806 C   0  0  0  0  0  0  0  0  0  0  0  0
   -4.5789    1.8459    9.3054 C   0  0  0  0  0  0  0  0  0  0  0  0
   -4.7030    1.7331   10.6756 C   0  0  0  0  0  0  0  0  0  0  0  0
   -3.7669    2.2689   11.5033 C   0  0  0  0  0  0  0  0  0  0  0  0
   -2.6905    2.9277   10.9494 C   0  0  0  0  0  0  0  0  0  0  0  0
   -5.7926    1.0689   11.1409 F   0  0  0  0  0  0  0  0  0  0  0  0
  1  2  1  0
  2  3  1  0
  3  4  2  0
  4  5  1  0
  5  6  2  0
  6  7  1  0
  7  8  2  0
  7  9  1  0
  9 10  1  0
  9 11  1  0
  9 12  1  0
  5 13  1  0
 13 14  1  0
 13 15  1  0
 13 16  1  0
  2 17  1  0
 17 18  1  0
 18 19  1  0
 19 20  1  0
 20 21  1  0
 21 22  1  0
 22 23  1  0
 20 24  1  0
 24 25  1  0
 25 26  2  0
 26 27  1  0
 27 28  2  0
 27 29  1  0
 29 30  1  0
 19 31  1  0
 31 32  2  0
 32 33  1  0
 33 34  2  0
 34 35  1  0
 35 36  2  0
 34 37  1  0
  8  3  1  0
 23 18  1  0
 30 25  1  0
 36 31  1  0
M  END
$$$$
