
     RDKit          3D

 37 40  0  0  0  0  0  0  0  0999 V2000
   -2.8619   -0.0493    9.7425 C   0  0  0  0  0  0  0  0  0  0  0  0
   -1.8233    1.0335   10.0671 C   0  0  0  0  0  0  0  0  0  0  0  0
   -0.9045    1.1010    8.9354 C   0  0  0  0  0  0  0  0  0  0  0  0
   -1.2799    1.7916    7.8032 C   0  0  0  0  0  0  0  0  0  0  0  0
   -0.4715    1.9024    6.6930 C   0  0  0  0  0  0  0  0  0  0  0  0
    0.7715    1.2948    6.7135 C   0  0  0  0  0  0  0  0  0  0  0  0
    1.1595    0.6006    7.8403 C   0  0  0  0  0  0  0  0  0  0  0  0
    0.3443    0.4934    8.9498 C   0  0  0  0  0  0  0  0  0  0  0  0
    2.4818   -0.0379    7.8447 C   0  0  0  0  0  0  0  0  0  0  0  0
    2.9097   -0.2694    9.1483 F   0  0  0  0  0  0  0  0  0  0  0  0
    2.4015   -1.2345    7.1635 F   0  0  0  0  0  0  0  0  0  0  0  0
    3.4004    0.7536    7.1958 F   0  0  0  0  0  0  0  0  0  0  0  0
   -0.8728    2.6457    5.4713 C   0  0  0  0  0  0  0  0  0  0  0  0
   -0.5198    3.9713    5.6362 F   0  0  0  0  0  0  0  0  0  0  0  0
   -0.1939    2.1865    4.3498 F   0  0  0  0  0  0  0  0  0  0  0  0
   -2.2431    2.5887    5.2731 F   0  0  0  0  0  0  0  0  0  0  0  0
   -2.4526    2.2532   10.3000 O   0  0  0  0  0  0  0  0  0  0  0  0
   -2.2984    2.6696   11.6176 C   0  0  0  0  0  0  0  0  0  0  0  0
   -2.4047    4.1550   11.7722 C   0  0  0  0  0  0  0  0  0  0  0  0
   -3.5938    4.6541   12.3116 N   0  0  0  0  0  0  0  0  0  0  0  0
   -4.5249    3.7993   12.9098 C   0  0  0  0  0  0  0  0  0  0  0  0
   -4.4867    2.4166   12.3306 C   0  0  0  0  0  0  0  0  0  0  0  0
   -3.1856    1.9552   12.4025 O   0  0  0  0  0  0  0  0  0  0  0  0
   -3.9554    5.9806   12.0044 C   0  0  0  0  0  0  0  0  0  0  0  0
   -3.9917    6.8893   13.1750 C   0  0  0  0  0  0  0  0  0  0  0  0
   -4.8098    6.8865   14.2385 N   0  0  0  0  0  0  0  0  0  0  0  0
   -4.4516    7.9111   15.0437 C   0  0  0  0  0  0  0  0  0  0  0  0
   -4.9668    8.2579   16.1463 O   0  0  0  0  0  0  0  0  0  0  0  0
   -3.4206    8.5333   14.4715 N   0  0  0  0  0  0  0  0  0  0  0  0
   -3.1404    7.9147   13.3379 N   0  0  0  0  0  0  0  0  0  0  0  0
   -1.2456    4.7161   12.5305 C   0  0  0  0  0  0  0  0  0  0  0  0
   -0.6307    5.8834   12.1312 C   0  0  0  0  0  0  0  0  0  0  0  0
    0.4406    6.4135   12.8215 C   0  0  0  0  0  0  0  0  0  0  0  0
    0.9101    5.7582   13.9422 C   0  0  0  0  0  0  0  0  0  0  0  0
    0.3287    4.6046   14.3656 C   0  0  0  0  0  0  0  0  0  0  0  0
   -0.7393    4.1001   13.6554 C   0  0  0  0  0  0  0  0  0  0  0  0
    1.9659    6.3210   14.5853 F   0  0  0  0  0  0  0  0  0  0  0  0
  1  2  1  0
  2  3  1  0
  3  4  2  0
  4  5  1  0
  5  6  2  0
  6  7  1  0
  7  8  2  0
  7  9  1  0
  9 10  1  0
  9 11  1  0
  9 12  1  0
  5 13  1  0
 13 14  1  0
 13 15  1  0
 13 16  1  0
  2 17  1  0
 17 18  1  0
 18 19  1  0
 19 20  1  0
 20 21  1  0
 21 22  1  0
 22 23  1  0
 20 24  1  0
 24 25  1  0
 25 26  2  0
 26 27  1  0
 27 28  2  0
 27 29  1  0
 29 30  1  0
 19 31  1  0
 31 32  2  0
 32 33  1  0
 33 34  2  0
 34 35  1  0
 35 36  2  0
 34 37  1  0
  8  3  1  0
 23 18  1  0
 30 25  1  0
 36 31  1  0
M  END
$$$$
