
     RDKit          3D

 37 40  0  0  0  0  0  0  0  0999 V2000
   -1.0404    4.8586    5.3830 C   0  0  0  0  0  0  0  0  0  0  0  0
   -1.7569    3.6741    6.0463 C   0  0  0  0  0  0  0  0  0  0  0  0
   -0.8100    2.5644    6.0825 C   0  0  0  0  0  0  0  0  0  0  0  0
   -0.8242    1.6332    5.0664 C   0  0  0  0  0  0  0  0  0  0  0  0
    0.0357    0.5575    5.0266 C   0  0  0  0  0  0  0  0  0  0  0  0
    0.9542    0.4033    6.0500 C   0  0  0  0  0  0  0  0  0  0  0  0
    0.9790    1.3281    7.0729 C   0  0  0  0  0  0  0  0  0  0  0  0
    0.1142    2.4043    7.1068 C   0  0  0  0  0  0  0  0  0  0  0  0
    1.9602    1.1492    8.1506 C   0  0  0  0  0  0  0  0  0  0  0  0
    1.8662    2.1843    9.0756 F   0  0  0  0  0  0  0  0  0  0  0  0
    1.7198   -0.0559    8.7769 F   0  0  0  0  0  0  0  0  0  0  0  0
    3.2358    1.1085    7.6380 F   0  0  0  0  0  0  0  0  0  0  0  0
    0.0231   -0.4479    3.9333 C   0  0  0  0  0  0  0  0  0  0  0  0
    0.0965    0.2233    2.7278 F   0  0  0  0  0  0  0  0  0  0  0  0
    1.1320   -1.2821    3.9959 F   0  0  0  0  0  0  0  0  0  0  0  0
   -1.1487   -1.1875    3.9412 F   0  0  0  0  0  0  0  0  0  0  0  0
   -2.1957    4.0257    7.3198 O   0  0  0  0  0  0  0  0  0  0  0  0
   -3.0422    3.0627    7.8576 C   0  0  0  0  0  0  0  0  0  0  0  0
   -2.8278    2.8571    9.3250 C   0  0  0  0  0  0  0  0  0  0  0  0
   -3.7767    3.4105   10.1894 N   0  0  0  0  0  0  0  0  0  0  0  0
   -4.9903    3.9047    9.7012 C   0  0  0  0  0  0  0  0  0  0  0  0
   -4.8790    4.4039    8.2915 C   0  0  0  0  0  0  0  0  0  0  0  0
   -4.3419    3.3922    7.5175 O   0  0  0  0  0  0  0  0  0  0  0  0
   -3.3800    3.7034   11.5091 C   0  0  0  0  0  0  0  0  0  0  0  0
   -2.2930    4.7061   11.6108 C   0  0  0  0  0  0  0  0  0  0  0  0
   -0.9996    4.5404   11.9270 N   0  0  0  0  0  0  0  0  0  0  0  0
   -0.4010    5.7514   11.8853 C   0  0  0  0  0  0  0  0  0  0  0  0
    0.8103    6.0348   12.1175 O   0  0  0  0  0  0  0  0  0  0  0  0
   -1.3269    6.6484   11.5453 N   0  0  0  0  0  0  0  0  0  0  0  0
   -2.4751    6.0159   11.3784 N   0  0  0  0  0  0  0  0  0  0  0  0
   -2.6398    1.4126    9.6591 C   0  0  0  0  0  0  0  0  0  0  0  0
   -1.4178    0.9312   10.0780 C   0  0  0  0  0  0  0  0  0  0  0  0
   -1.2293   -0.4001   10.3898 C   0  0  0  0  0  0  0  0  0  0  0  0
   -2.2919   -1.2744   10.2798 C   0  0  0  0  0  0  0  0  0  0  0  0
   -3.5116   -0.8356    9.8698 C   0  0  0  0  0  0  0  0  0  0  0  0
   -3.6687    0.4995    9.5656 C   0  0  0  0  0  0  0  0  0  0  0  0
   -2.0540   -2.5732   10.5984 F   0  0  0  0  0  0  0  0  0  0  0  0
  1  2  1  0
  2  3  1  0
  3  4  2  0
  4  5  1  0
  5  6  2  0
  6  7  1  0
  7  8  2  0
  7  9  1  0
  9 10  1  0
  9 11  1  0
  9 12  1  0
  5 13  1  0
 13 14  1  0
 13 15  1  0
 13 16  1  0
  2 17  1  0
 17 18  1  0
 18 19  1  0
 19 20  1  0
 20 21  1  0
 21 22  1  0
 22 23  1  0
 20 24  1  0
 24 25  1  0
 25 26  2  0
 26 27  1  0
 27 28  2  0
 27 29  1  0
 29 30  1  0
 19 31  1  0
 31 32  2  0
 32 33  1  0
 33 34  2  0
 34 35  1  0
 35 36  2  0
 34 37  1  0
  8  3  1  0
 23 18  1  0
 30 25  1  0
 36 31  1  0
M  END
$$$$
