
     RDKit          3D

 37 40  0  0  0  0  0  0  0  0999 V2000
   -3.2211   -1.4177    9.0846 C   0  0  0  0  0  0  0  0  0  0  0  0
   -1.9887   -0.6146    9.5237 C   0  0  0  0  0  0  0  0  0  0  0  0
   -0.9226   -0.9081    8.5715 C   0  0  0  0  0  0  0  0  0  0  0  0
   -0.9472   -0.3135    7.3283 C   0  0  0  0  0  0  0  0  0  0  0  0
    0.0203   -0.5378    6.3734 C   0  0  0  0  0  0  0  0  0  0  0  0
    1.0628   -1.3969    6.6733 C   0  0  0  0  0  0  0  0  0  0  0  0
    1.0994   -1.9985    7.9138 C   0  0  0  0  0  0  0  0  0  0  0  0
    0.1263   -1.7694    8.8666 C   0  0  0  0  0  0  0  0  0  0  0  0
    2.2128   -2.9072    8.2152 C   0  0  0  0  0  0  0  0  0  0  0  0
    2.9304   -2.4539    9.3177 F   0  0  0  0  0  0  0  0  0  0  0  0
    1.7055   -4.1629    8.4764 F   0  0  0  0  0  0  0  0  0  0  0  0
    3.0550   -3.0116    7.1329 F   0  0  0  0  0  0  0  0  0  0  0  0
   -0.0031    0.1012    5.0327 C   0  0  0  0  0  0  0  0  0  0  0  0
    1.3021    0.3093    4.6301 F   0  0  0  0  0  0  0  0  0  0  0  0
   -0.5881   -0.7276    4.0838 F   0  0  0  0  0  0  0  0  0  0  0  0
   -0.6410    1.3307    5.0707 F   0  0  0  0  0  0  0  0  0  0  0  0
   -2.2874    0.7443    9.5679 O   0  0  0  0  0  0  0  0  0  0  0  0
   -1.3293    1.4600   10.2771 C   0  0  0  0  0  0  0  0  0  0  0  0
   -1.7372    2.8775   10.5340 C   0  0  0  0  0  0  0  0  0  0  0  0
   -2.1624    3.1917   11.8280 N   0  0  0  0  0  0  0  0  0  0  0  0
   -1.9722    2.2945   12.8835 C   0  0  0  0  0  0  0  0  0  0  0  0
   -1.9577    0.8668   12.4252 C   0  0  0  0  0  0  0  0  0  0  0  0
   -1.0162    0.7465   11.4201 O   0  0  0  0  0  0  0  0  0  0  0  0
   -3.0169    4.2994   11.9941 C   0  0  0  0  0  0  0  0  0  0  0  0
   -2.4214    5.4191   12.7616 C   0  0  0  0  0  0  0  0  0  0  0  0
   -1.6972    5.3959   13.8910 N   0  0  0  0  0  0  0  0  0  0  0  0
   -1.3749    6.6699   14.2066 C   0  0  0  0  0  0  0  0  0  0  0  0
   -0.7011    7.0858   15.1938 O   0  0  0  0  0  0  0  0  0  0  0  0
   -1.9011    7.4631   13.2731 N   0  0  0  0  0  0  0  0  0  0  0  0
   -2.5362    6.7058   12.3958 N   0  0  0  0  0  0  0  0  0  0  0  0
   -0.6754    3.8426   10.1159 C   0  0  0  0  0  0  0  0  0  0  0  0
    0.6603    3.5115   10.1969 C   0  0  0  0  0  0  0  0  0  0  0  0
    1.6518    4.3924    9.8146 C   0  0  0  0  0  0  0  0  0  0  0  0
    1.2981    5.6388    9.3382 C   0  0  0  0  0  0  0  0  0  0  0  0
   -0.0092    6.0001    9.2443 C   0  0  0  0  0  0  0  0  0  0  0  0
   -0.9764    5.0988    9.6338 C   0  0  0  0  0  0  0  0  0  0  0  0
    2.3112    6.4677    8.9755 F   0  0  0  0  0  0  0  0  0  0  0  0
  1  2  1  0
  2  3  1  0
  3  4  2  0
  4  5  1  0
  5  6  2  0
  6  7  1  0
  7  8  2  0
  7  9  1  0
  9 10  1  0
  9 11  1  0
  9 12  1  0
  5 13  1  0
 13 14  1  0
 13 15  1  0
 13 16  1  0
  2 17  1  0
 17 18  1  0
 18 19  1  0
 19 20  1  0
 20 21  1  0
 21 22  1  0
 22 23  1  0
 20 24  1  0
 24 25  1  0
 25 26  2  0
 26 27  1  0
 27 28  2  0
 27 29  1  0
 29 30  1  0
 19 31  1  0
 31 32  2  0
 32 33  1  0
 33 34  2  0
 34 35  1  0
 35 36  2  0
 34 37  1  0
  8  3  1  0
 23 18  1  0
 30 25  1  0
 36 31  1  0
M  END
$$$$
