
     RDKit          3D

 37 40  0  0  0  0  0  0  0  0999 V2000
   -1.6244   -0.9698    8.0525 C   0  0  0  0  0  0  0  0  0  0  0  0
   -1.1719    0.4663    8.3516 C   0  0  0  0  0  0  0  0  0  0  0  0
   -1.1787    1.1917    7.0854 C   0  0  0  0  0  0  0  0  0  0  0  0
   -0.3567    0.7695    6.0627 C   0  0  0  0  0  0  0  0  0  0  0  0
   -0.3039    1.3988    4.8382 C   0  0  0  0  0  0  0  0  0  0  0  0
   -1.1102    2.5027    4.6237 C   0  0  0  0  0  0  0  0  0  0  0  0
   -1.9375    2.9356    5.6388 C   0  0  0  0  0  0  0  0  0  0  0  0
   -1.9856    2.3002    6.8640 C   0  0  0  0  0  0  0  0  0  0  0  0
   -2.7864    4.1085    5.3938 C   0  0  0  0  0  0  0  0  0  0  0  0
   -2.1238    5.0343    4.5940 F   0  0  0  0  0  0  0  0  0  0  0  0
   -3.9440    3.6979    4.7664 F   0  0  0  0  0  0  0  0  0  0  0  0
   -3.1413    4.7022    6.5825 F   0  0  0  0  0  0  0  0  0  0  0  0
    0.5806    0.9467    3.7340 C   0  0  0  0  0  0  0  0  0  0  0  0
    0.0172   -0.1774    3.1614 F   0  0  0  0  0  0  0  0  0  0  0  0
    0.6734    1.9038    2.7316 F   0  0  0  0  0  0  0  0  0  0  0  0
    1.8386    0.6038    4.2033 F   0  0  0  0  0  0  0  0  0  0  0  0
   -2.0140    1.0529    9.2921 O   0  0  0  0  0  0  0  0  0  0  0  0
   -1.5284    0.8994   10.5858 C   0  0  0  0  0  0  0  0  0  0  0  0
   -1.4671    2.1919   11.3390 C   0  0  0  0  0  0  0  0  0  0  0  0
   -2.4541    2.4123   12.3039 N   0  0  0  0  0  0  0  0  0  0  0  0
   -3.2953    1.3757   12.7199 C   0  0  0  0  0  0  0  0  0  0  0  0
   -3.5105    0.3488   11.6484 C   0  0  0  0  0  0  0  0  0  0  0  0
   -2.2724   -0.0844   11.2120 O   0  0  0  0  0  0  0  0  0  0  0  0
   -2.7593    3.7441   12.6476 C   0  0  0  0  0  0  0  0  0  0  0  0
   -2.0508    4.2409   13.8511 C   0  0  0  0  0  0  0  0  0  0  0  0
   -1.4507    5.4214   14.0674 N   0  0  0  0  0  0  0  0  0  0  0  0
   -0.9455    5.4096   15.3209 C   0  0  0  0  0  0  0  0  0  0  0  0
   -0.3060    6.3250   15.9163 O   0  0  0  0  0  0  0  0  0  0  0  0
   -1.2376    4.2272   15.8632 N   0  0  0  0  0  0  0  0  0  0  0  0
   -1.9081    3.5172   14.9729 N   0  0  0  0  0  0  0  0  0  0  0  0
   -0.1215    2.4115   11.9511 C   0  0  0  0  0  0  0  0  0  0  0  0
    0.5146    3.6308   11.8552 C   0  0  0  0  0  0  0  0  0  0  0  0
    1.7572    3.8483   12.4153 C   0  0  0  0  0  0  0  0  0  0  0  0
    2.3812    2.8183   13.0900 C   0  0  0  0  0  0  0  0  0  0  0  0
    1.7843    1.6022   13.2047 C   0  0  0  0  0  0  0  0  0  0  0  0
    0.5434    1.4157   12.6347 C   0  0  0  0  0  0  0  0  0  0  0  0
    3.6023    3.0839   13.6225 F   0  0  0  0  0  0  0  0  0  0  0  0
  1  2  1  0
  2  3  1  0
  3  4  2  0
  4  5  1  0
  5  6  2  0
  6  7  1  0
  7  8  2  0
  7  9  1  0
  9 10  1  0
  9 11  1  0
  9 12  1  0
  5 13  1  0
 13 14  1  0
 13 15  1  0
 13 16  1  0
  2 17  1  0
 17 18  1  0
 18 19  1  0
 19 20  1  0
 20 21  1  0
 21 22  1  0
 22 23  1  0
 20 24  1  0
 24 25  1  0
 25 26  2  0
 26 27  1  0
 27 28  2  0
 27 29  1  0
 29 30  1  0
 19 31  1  0
 31 32  2  0
 32 33  1  0
 33 34  2  0
 34 35  1  0
 35 36  2  0
 34 37  1  0
  8  3  1  0
 23 18  1  0
 30 25  1  0
 36 31  1  0
M  END
$$$$
