
     RDKit          3D

 37 40  0  0  0  0  0  0  0  0999 V2000
    0.7849    4.7645    7.7874 C   0  0  0  0  0  0  0  0  0  0  0  0
   -0.2711    3.7055    8.1340 C   0  0  0  0  0  0  0  0  0  0  0  0
    0.1320    2.4658    7.4783 C   0  0  0  0  0  0  0  0  0  0  0  0
   -0.0639    2.3270    6.1211 C   0  0  0  0  0  0  0  0  0  0  0  0
    0.2884    1.1898    5.4276 C   0  0  0  0  0  0  0  0  0  0  0  0
    0.8642    0.1403    6.1219 C   0  0  0  0  0  0  0  0  0  0  0  0
    1.0658    0.2662    7.4804 C   0  0  0  0  0  0  0  0  0  0  0  0
    0.7103    1.4090    8.1695 C   0  0  0  0  0  0  0  0  0  0  0  0
    1.6780   -0.8571    8.2012 C   0  0  0  0  0  0  0  0  0  0  0  0
    1.4058   -2.0596    7.5564 F   0  0  0  0  0  0  0  0  0  0  0  0
    3.0419   -0.6599    8.2587 F   0  0  0  0  0  0  0  0  0  0  0  0
    1.2075   -0.9138    9.4923 F   0  0  0  0  0  0  0  0  0  0  0  0
    0.0787    1.0367    3.9652 C   0  0  0  0  0  0  0  0  0  0  0  0
    0.6321    2.1330    3.3320 F   0  0  0  0  0  0  0  0  0  0  0  0
    0.7335   -0.0844    3.4714 F   0  0  0  0  0  0  0  0  0  0  0  0
   -1.2701    0.9957    3.6503 F   0  0  0  0  0  0  0  0  0  0  0  0
   -0.3709    3.5556    9.5144 O   0  0  0  0  0  0  0  0  0  0  0  0
   -1.6034    3.0321    9.8883 C   0  0  0  0  0  0  0  0  0  0  0  0
   -1.6829    2.7254   11.3516 C   0  0  0  0  0  0  0  0  0  0  0  0
   -2.4143    3.6116   12.1477 N   0  0  0  0  0  0  0  0  0  0  0  0
   -3.2368    4.5837   11.5699 C   0  0  0  0  0  0  0  0  0  0  0  0
   -2.7489    5.0168   10.2196 C   0  0  0  0  0  0  0  0  0  0  0  0
   -2.5911    3.8887    9.4364 O   0  0  0  0  0  0  0  0  0  0  0  0
   -2.1025    3.6819   13.5197 C   0  0  0  0  0  0  0  0  0  0  0  0
   -1.4212    4.9338   13.9268 C   0  0  0  0  0  0  0  0  0  0  0  0
   -1.9316    6.0537   14.4615 N   0  0  0  0  0  0  0  0  0  0  0  0
   -0.9150    6.9209   14.6637 C   0  0  0  0  0  0  0  0  0  0  0  0
   -0.9662    8.0885   15.1489 O   0  0  0  0  0  0  0  0  0  0  0  0
    0.2077    6.3302   14.2535 N   0  0  0  0  0  0  0  0  0  0  0  0
   -0.0977    5.1248   13.8063 N   0  0  0  0  0  0  0  0  0  0  0  0
   -2.1609    1.3311   11.5990 C   0  0  0  0  0  0  0  0  0  0  0  0
   -3.5027    1.0543   11.7513 C   0  0  0  0  0  0  0  0  0  0  0  0
   -3.9588   -0.2281   11.9802 C   0  0  0  0  0  0  0  0  0  0  0  0
   -3.0481   -1.2625   12.0590 C   0  0  0  0  0  0  0  0  0  0  0  0
   -1.7170   -1.0273   11.9138 C   0  0  0  0  0  0  0  0  0  0  0  0
   -1.2922    0.2639   11.6861 C   0  0  0  0  0  0  0  0  0  0  0  0
   -3.5482   -2.5050   12.2856 F   0  0  0  0  0  0  0  0  0  0  0  0
  1  2  1  0
  2  3  1  0
  3  4  2  0
  4  5  1  0
  5  6  2  0
  6  7  1  0
  7  8  2  0
  7  9  1  0
  9 10  1  0
  9 11  1  0
  9 12  1  0
  5 13  1  0
 13 14  1  0
 13 15  1  0
 13 16  1  0
  2 17  1  0
 17 18  1  0
 18 19  1  0
 19 20  1  0
 20 21  1  0
 21 22  1  0
 22 23  1  0
 20 24  1  0
 24 25  1  0
 25 26  2  0
 26 27  1  0
 27 28  2  0
 27 29  1  0
 29 30  1  0
 19 31  1  0
 31 32  2  0
 32 33  1  0
 33 34  2  0
 34 35  1  0
 35 36  2  0
 34 37  1  0
  8  3  1  0
 23 18  1  0
 30 25  1  0
 36 31  1  0
M  END
$$$$
