
     RDKit          3D

 37 40  0  0  0  0  0  0  0  0999 V2000
   -0.4638    4.7658    5.3937 C   0  0  0  0  0  0  0  0  0  0  0  0
   -1.3256    3.6546    6.0094 C   0  0  0  0  0  0  0  0  0  0  0  0
   -0.5695    2.4116    5.8964 C   0  0  0  0  0  0  0  0  0  0  0  0
   -0.6163    1.6995    4.7172 C   0  0  0  0  0  0  0  0  0  0  0  0
    0.0677    0.5183    4.5299 C   0  0  0  0  0  0  0  0  0  0  0  0
    0.8355    0.0236    5.5694 C   0  0  0  0  0  0  0  0  0  0  0  0
    0.8910    0.7264    6.7548 C   0  0  0  0  0  0  0  0  0  0  0  0
    0.2028    1.9100    6.9359 C   0  0  0  0  0  0  0  0  0  0  0  0
    1.7107    0.1870    7.8472 C   0  0  0  0  0  0  0  0  0  0  0  0
    0.9056   -0.3843    8.8277 F   0  0  0  0  0  0  0  0  0  0  0  0
    2.5649   -0.7669    7.3346 F   0  0  0  0  0  0  0  0  0  0  0  0
    2.4789    1.1804    8.4079 F   0  0  0  0  0  0  0  0  0  0  0  0
    0.0195   -0.2517    3.2607 C   0  0  0  0  0  0  0  0  0  0  0  0
   -0.7585    0.4489    2.3592 F   0  0  0  0  0  0  0  0  0  0  0  0
    1.2806   -0.3744    2.6914 F   0  0  0  0  0  0  0  0  0  0  0  0
   -0.5579   -1.4974    3.4476 F   0  0  0  0  0  0  0  0  0  0  0  0
   -1.6333    3.9581    7.3326 O   0  0  0  0  0  0  0  0  0  0  0  0
   -2.4435    2.9865    7.9095 C   0  0  0  0  0  0  0  0  0  0  0  0
   -2.3596    2.9747    9.4043 C   0  0  0  0  0  0  0  0  0  0  0  0
   -3.4339    3.5300   10.1053 N   0  0  0  0  0  0  0  0  0  0  0  0
   -4.6307    3.8439    9.4536 C   0  0  0  0  0  0  0  0  0  0  0  0
   -4.4226    4.1841    8.0080 C   0  0  0  0  0  0  0  0  0  0  0  0
   -3.7263    3.1464    7.4171 O   0  0  0  0  0  0  0  0  0  0  0  0
   -3.1973    4.0116   11.4080 C   0  0  0  0  0  0  0  0  0  0  0  0
   -2.2999    5.1898   11.4689 C   0  0  0  0  0  0  0  0  0  0  0  0
   -2.5798    6.4670   11.7704 N   0  0  0  0  0  0  0  0  0  0  0  0
   -1.4312    7.1752   11.6955 C   0  0  0  0  0  0  0  0  0  0  0  0
   -1.2579    8.4111   11.9048 O   0  0  0  0  0  0  0  0  0  0  0  0
   -0.4582    6.3317   11.3500 N   0  0  0  0  0  0  0  0  0  0  0  0
   -0.9836    5.1270   11.2122 N   0  0  0  0  0  0  0  0  0  0  0  0
   -2.0827    1.6040    9.9315 C   0  0  0  0  0  0  0  0  0  0  0  0
   -0.8721    1.2959   10.5146 C   0  0  0  0  0  0  0  0  0  0  0  0
   -0.6021    0.0346   11.0058 C   0  0  0  0  0  0  0  0  0  0  0  0
   -1.5693   -0.9459   10.9114 C   0  0  0  0  0  0  0  0  0  0  0  0
   -2.7748   -0.6786   10.3427 C   0  0  0  0  0  0  0  0  0  0  0  0
   -3.0147    0.5904    9.8613 C   0  0  0  0  0  0  0  0  0  0  0  0
   -1.2538   -2.1696   11.4096 F   0  0  0  0  0  0  0  0  0  0  0  0
  1  2  1  0
  2  3  1  0
  3  4  2  0
  4  5  1  0
  5  6  2  0
  6  7  1  0
  7  8  2  0
  7  9  1  0
  9 10  1  0
  9 11  1  0
  9 12  1  0
  5 13  1  0
 13 14  1  0
 13 15  1  0
 13 16  1  0
  2 17  1  0
 17 18  1  0
 18 19  1  0
 19 20  1  0
 20 21  1  0
 21 22  1  0
 22 23  1  0
 20 24  1  0
 24 25  1  0
 25 26  2  0
 26 27  1  0
 27 28  2  0
 27 29  1  0
 29 30  1  0
 19 31  1  0
 31 32  2  0
 32 33  1  0
 33 34  2  0
 34 35  1  0
 35 36  2  0
 34 37  1  0
  8  3  1  0
 23 18  1  0
 30 25  1  0
 36 31  1  0
M  END
$$$$
