
     RDKit          3D

 37 40  0  0  0  0  0  0  0  0999 V2000
   -1.8443    4.1671    4.0718 C   0  0  0  0  0  0  0  0  0  0  0  0
   -2.1610    3.4007    5.3637 C   0  0  0  0  0  0  0  0  0  0  0  0
   -1.3209    2.2076    5.3727 C   0  0  0  0  0  0  0  0  0  0  0  0
   -0.1811    2.1922    6.1476 C   0  0  0  0  0  0  0  0  0  0  0  0
    0.6646    1.1064    6.2113 C   0  0  0  0  0  0  0  0  0  0  0  0
    0.3583   -0.0184    5.4659 C   0  0  0  0  0  0  0  0  0  0  0  0
   -0.7794   -0.0162    4.6862 C   0  0  0  0  0  0  0  0  0  0  0  0
   -1.6229    1.0757    4.6269 C   0  0  0  0  0  0  0  0  0  0  0  0
   -1.0892   -1.2182    3.9018 C   0  0  0  0  0  0  0  0  0  0  0  0
   -0.1885   -1.3632    2.8512 F   0  0  0  0  0  0  0  0  0  0  0  0
   -1.0192   -2.3203    4.7282 F   0  0  0  0  0  0  0  0  0  0  0  0
   -2.3683   -1.1496    3.4013 F   0  0  0  0  0  0  0  0  0  0  0  0
    1.8936    1.0863    7.0452 C   0  0  0  0  0  0  0  0  0  0  0  0
    2.6454   -0.0141    6.6808 F   0  0  0  0  0  0  0  0  0  0  0  0
    2.6834    2.2056    6.8150 F   0  0  0  0  0  0  0  0  0  0  0  0
    1.5880    0.9697    8.3917 F   0  0  0  0  0  0  0  0  0  0  0  0
   -1.9305    4.2081    6.4740 O   0  0  0  0  0  0  0  0  0  0  0  0
   -2.3934    3.6187    7.6451 C   0  0  0  0  0  0  0  0  0  0  0  0
   -1.5988    4.0196    8.8490 C   0  0  0  0  0  0  0  0  0  0  0  0
   -2.1820    4.9497    9.7144 N   0  0  0  0  0  0  0  0  0  0  0  0
   -3.5334    5.2894    9.5976 C   0  0  0  0  0  0  0  0  0  0  0  0
   -4.0379    5.1541    8.1919 C   0  0  0  0  0  0  0  0  0  0  0  0
   -3.7484    3.8762    7.7514 O   0  0  0  0  0  0  0  0  0  0  0  0
   -1.3301    5.7289   10.5217 C   0  0  0  0  0  0  0  0  0  0  0  0
   -1.7213    5.7786   11.9506 C   0  0  0  0  0  0  0  0  0  0  0  0
   -2.6104    6.5703   12.5698 N   0  0  0  0  0  0  0  0  0  0  0  0
   -2.6220    6.2400   13.8803 C   0  0  0  0  0  0  0  0  0  0  0  0
   -3.3184    6.7441   14.8089 O   0  0  0  0  0  0  0  0  0  0  0  0
   -1.7440    5.2522   14.0559 N   0  0  0  0  0  0  0  0  0  0  0  0
   -1.1968    4.9712   12.8863 N   0  0  0  0  0  0  0  0  0  0  0  0
   -1.1476    2.8309    9.6345 C   0  0  0  0  0  0  0  0  0  0  0  0
   -2.0489    1.8889   10.0823 C   0  0  0  0  0  0  0  0  0  0  0  0
   -1.6469    0.7861   10.8087 C   0  0  0  0  0  0  0  0  0  0  0  0
   -0.3067    0.6207   11.0953 C   0  0  0  0  0  0  0  0  0  0  0  0
    0.6108    1.5293   10.6701 C   0  0  0  0  0  0  0  0  0  0  0  0
    0.1787    2.6201    9.9468 C   0  0  0  0  0  0  0  0  0  0  0  0
    0.0364   -0.4806   11.8126 F   0  0  0  0  0  0  0  0  0  0  0  0
  1  2  1  0
  2  3  1  0
  3  4  2  0
  4  5  1  0
  5  6  2  0
  6  7  1  0
  7  8  2  0
  7  9  1  0
  9 10  1  0
  9 11  1  0
  9 12  1  0
  5 13  1  0
 13 14  1  0
 13 15  1  0
 13 16  1  0
  2 17  1  0
 17 18  1  0
 18 19  1  0
 19 20  1  0
 20 21  1  0
 21 22  1  0
 22 23  1  0
 20 24  1  0
 24 25  1  0
 25 26  2  0
 26 27  1  0
 27 28  2  0
 27 29  1  0
 29 30  1  0
 19 31  1  0
 31 32  2  0
 32 33  1  0
 33 34  2  0
 34 35  1  0
 35 36  2  0
 34 37  1  0
  8  3  1  0
 23 18  1  0
 30 25  1  0
 36 31  1  0
M  END
$$$$
