
     RDKit          3D

 37 40  0  0  0  0  0  0  0  0999 V2000
    1.8913    1.4905    7.4634 C   0  0  0  0  0  0  0  0  0  0  0  0
    0.4214    1.0647    7.5840 C   0  0  0  0  0  0  0  0  0  0  0  0
    0.4102   -0.3672    7.8647 C   0  0  0  0  0  0  0  0  0  0  0  0
   -0.5361   -0.8771    8.7276 C   0  0  0  0  0  0  0  0  0  0  0  0
   -0.6140   -2.2156    9.0448 C   0  0  0  0  0  0  0  0  0  0  0  0
    0.2961   -3.0875    8.4736 C   0  0  0  0  0  0  0  0  0  0  0  0
    1.2481   -2.5902    7.6084 C   0  0  0  0  0  0  0  0  0  0  0  0
    1.3207   -1.2473    7.2946 C   0  0  0  0  0  0  0  0  0  0  0  0
    2.2058   -3.5296    7.0113 C   0  0  0  0  0  0  0  0  0  0  0  0
    2.0019   -3.6308    5.6387 F   0  0  0  0  0  0  0  0  0  0  0  0
    3.4857   -3.0787    7.2580 F   0  0  0  0  0  0  0  0  0  0  0  0
    2.0812   -4.7733    7.5850 F   0  0  0  0  0  0  0  0  0  0  0  0
   -1.6322   -2.7685    9.9742 C   0  0  0  0  0  0  0  0  0  0  0  0
   -2.0996   -1.7376   10.7665 F   0  0  0  0  0  0  0  0  0  0  0  0
   -2.7280   -3.2742    9.2865 F   0  0  0  0  0  0  0  0  0  0  0  0
   -1.0860   -3.7336   10.8050 F   0  0  0  0  0  0  0  0  0  0  0  0
   -0.2137    1.7962    8.5838 O   0  0  0  0  0  0  0  0  0  0  0  0
   -1.1583    2.6722    8.0608 C   0  0  0  0  0  0  0  0  0  0  0  0
   -1.6586    3.6563    9.0721 C   0  0  0  0  0  0  0  0  0  0  0  0
   -1.1733    4.9640    8.9801 N   0  0  0  0  0  0  0  0  0  0  0  0
   -0.4620    5.3879    7.8532 C   0  0  0  0  0  0  0  0  0  0  0  0
    0.2769    4.2655    7.1876 C   0  0  0  0  0  0  0  0  0  0  0  0
   -0.6257    3.2524    6.9235 O   0  0  0  0  0  0  0  0  0  0  0  0
   -1.1801    5.7569   10.1446 C   0  0  0  0  0  0  0  0  0  0  0  0
   -0.7874    5.0332   11.3772 C   0  0  0  0  0  0  0  0  0  0  0  0
    0.4030    4.5255   11.7318 N   0  0  0  0  0  0  0  0  0  0  0  0
    0.2686    3.9583   12.9512 C   0  0  0  0  0  0  0  0  0  0  0  0
    1.1499    3.3697   13.6427 O   0  0  0  0  0  0  0  0  0  0  0  0
   -0.9978    4.1211   13.3352 N   0  0  0  0  0  0  0  0  0  0  0  0
   -1.6396    4.7729   12.3815 N   0  0  0  0  0  0  0  0  0  0  0  0
   -3.1519    3.6870    9.1217 C   0  0  0  0  0  0  0  0  0  0  0  0
   -3.8223    3.8372   10.3169 C   0  0  0  0  0  0  0  0  0  0  0  0
   -5.2008    3.8673   10.3781 C   0  0  0  0  0  0  0  0  0  0  0  0
   -5.9294    3.7438    9.2121 C   0  0  0  0  0  0  0  0  0  0  0  0
   -5.3026    3.5941    8.0151 C   0  0  0  0  0  0  0  0  0  0  0  0
   -3.9249    3.5678    7.9862 C   0  0  0  0  0  0  0  0  0  0  0  0
   -7.2824    3.7797    9.3268 F   0  0  0  0  0  0  0  0  0  0  0  0
  1  2  1  0
  2  3  1  0
  3  4  2  0
  4  5  1  0
  5  6  2  0
  6  7  1  0
  7  8  2  0
  7  9  1  0
  9 10  1  0
  9 11  1  0
  9 12  1  0
  5 13  1  0
 13 14  1  0
 13 15  1  0
 13 16  1  0
  2 17  1  0
 17 18  1  0
 18 19  1  0
 19 20  1  0
 20 21  1  0
 21 22  1  0
 22 23  1  0
 20 24  1  0
 24 25  1  0
 25 26  2  0
 26 27  1  0
 27 28  2  0
 27 29  1  0
 29 30  1  0
 19 31  1  0
 31 32  2  0
 32 33  1  0
 33 34  2  0
 34 35  1  0
 35 36  2  0
 34 37  1  0
  8  3  1  0
 23 18  1  0
 30 25  1  0
 36 31  1  0
M  END
$$$$
