
     RDKit          3D

 37 40  0  0  0  0  0  0  0  0999 V2000
   -3.1270    4.6857    6.5698 C   0  0  0  0  0  0  0  0  0  0  0  0
   -2.9416    3.2918    7.1855 C   0  0  0  0  0  0  0  0  0  0  0  0
   -1.6564    2.7828    6.7179 C   0  0  0  0  0  0  0  0  0  0  0  0
   -0.6651    2.5110    7.6362 C   0  0  0  0  0  0  0  0  0  0  0  0
    0.5745    2.0289    7.2769 C   0  0  0  0  0  0  0  0  0  0  0  0
    0.8379    1.8072    5.9367 C   0  0  0  0  0  0  0  0  0  0  0  0
   -0.1454    2.0750    5.0075 C   0  0  0  0  0  0  0  0  0  0  0  0
   -1.3860    2.5582    5.3743 C   0  0  0  0  0  0  0  0  0  0  0  0
    0.1512    1.8339    3.5897 C   0  0  0  0  0  0  0  0  0  0  0  0
    0.7295    2.9596    3.0117 F   0  0  0  0  0  0  0  0  0  0  0  0
    1.0172    0.7650    3.4908 F   0  0  0  0  0  0  0  0  0  0  0  0
   -0.9972    1.5080    2.9066 F   0  0  0  0  0  0  0  0  0  0  0  0
    1.6451    1.7350    8.2638 C   0  0  0  0  0  0  0  0  0  0  0  0
    1.0581    1.5777    9.5045 F   0  0  0  0  0  0  0  0  0  0  0  0
    2.2925    0.5411    7.9722 F   0  0  0  0  0  0  0  0  0  0  0  0
    2.5534    2.7780    8.3486 F   0  0  0  0  0  0  0  0  0  0  0  0
   -2.9983    3.3650    8.5745 O   0  0  0  0  0  0  0  0  0  0  0  0
   -3.3818    2.1538    9.1394 C   0  0  0  0  0  0  0  0  0  0  0  0
   -2.7196    1.8933   10.4566 C   0  0  0  0  0  0  0  0  0  0  0  0
   -3.4979    2.0680   11.6045 N   0  0  0  0  0  0  0  0  0  0  0  0
   -4.8843    2.2265   11.5143 C   0  0  0  0  0  0  0  0  0  0  0  0
   -5.3049    2.8568   10.2202 C   0  0  0  0  0  0  0  0  0  0  0  0
   -4.7638    2.1174    9.1851 O   0  0  0  0  0  0  0  0  0  0  0  0
   -2.8372    2.3484   12.8168 C   0  0  0  0  0  0  0  0  0  0  0  0
   -2.0675    3.6152   12.8130 C   0  0  0  0  0  0  0  0  0  0  0  0
   -0.7825    3.8375   12.4968 N   0  0  0  0  0  0  0  0  0  0  0  0
   -0.5390    5.1588   12.6433 C   0  0  0  0  0  0  0  0  0  0  0  0
    0.5447    5.7821   12.4470 O   0  0  0  0  0  0  0  0  0  0  0  0
   -1.6711    5.7361   13.0467 N   0  0  0  0  0  0  0  0  0  0  0  0
   -2.5992    4.8010   13.1501 N   0  0  0  0  0  0  0  0  0  0  0  0
   -2.0793    0.5434   10.4960 C   0  0  0  0  0  0  0  0  0  0  0  0
   -2.7138   -0.5618    9.9704 C   0  0  0  0  0  0  0  0  0  0  0  0
   -2.1350   -1.8145    9.9997 C   0  0  0  0  0  0  0  0  0  0  0  0
   -0.8871   -1.9664   10.5701 C   0  0  0  0  0  0  0  0  0  0  0  0
   -0.2314   -0.8990   11.0984 C   0  0  0  0  0  0  0  0  0  0  0  0
   -0.8353    0.3391   11.0542 C   0  0  0  0  0  0  0  0  0  0  0  0
   -0.3618   -3.2190   10.5735 F   0  0  0  0  0  0  0  0  0  0  0  0
  1  2  1  0
  2  3  1  0
  3  4  2  0
  4  5  1  0
  5  6  2  0
  6  7  1  0
  7  8  2  0
  7  9  1  0
  9 10  1  0
  9 11  1  0
  9 12  1  0
  5 13  1  0
 13 14  1  0
 13 15  1  0
 13 16  1  0
  2 17  1  0
 17 18  1  0
 18 19  1  0
 19 20  1  0
 20 21  1  0
 21 22  1  0
 22 23  1  0
 20 24  1  0
 24 25  1  0
 25 26  2  0
 26 27  1  0
 27 28  2  0
 27 29  1  0
 29 30  1  0
 19 31  1  0
 31 32  2  0
 32 33  1  0
 33 34  2  0
 34 35  1  0
 35 36  2  0
 34 37  1  0
  8  3  1  0
 23 18  1  0
 30 25  1  0
 36 31  1  0
M  END
$$$$
