
     RDKit          3D

 37 40  0  0  0  0  0  0  0  0999 V2000
   -0.6382    4.5517    5.6226 C   0  0  0  0  0  0  0  0  0  0  0  0
   -1.4565    3.4411    6.2959 C   0  0  0  0  0  0  0  0  0  0  0  0
   -0.7138    2.1965    6.1260 C   0  0  0  0  0  0  0  0  0  0  0  0
   -0.1712    1.5793    7.2326 C   0  0  0  0  0  0  0  0  0  0  0  0
    0.5430    0.4036    7.1574 C   0  0  0  0  0  0  0  0  0  0  0  0
    0.7248   -0.1849    5.9183 C   0  0  0  0  0  0  0  0  0  0  0  0
    0.1870    0.4224    4.8028 C   0  0  0  0  0  0  0  0  0  0  0  0
   -0.5280    1.6010    4.8852 C   0  0  0  0  0  0  0  0  0  0  0  0
    0.3895   -0.2159    3.4960 C   0  0  0  0  0  0  0  0  0  0  0  0
    0.9505   -1.4798    3.6497 F   0  0  0  0  0  0  0  0  0  0  0  0
   -0.8290   -0.3236    2.8588 F   0  0  0  0  0  0  0  0  0  0  0  0
    1.2094    0.5553    2.7058 F   0  0  0  0  0  0  0  0  0  0  0  0
    1.1291   -0.2642    8.3477 C   0  0  0  0  0  0  0  0  0  0  0  0
    1.2135   -1.6182    8.0861 F   0  0  0  0  0  0  0  0  0  0  0  0
    2.4226    0.1780    8.5943 F   0  0  0  0  0  0  0  0  0  0  0  0
    0.3301   -0.0931    9.4669 F   0  0  0  0  0  0  0  0  0  0  0  0
   -1.6675    3.7421    7.6386 O   0  0  0  0  0  0  0  0  0  0  0  0
   -2.6686    2.9522    8.1929 C   0  0  0  0  0  0  0  0  0  0  0  0
   -2.7455    3.0752    9.6830 C   0  0  0  0  0  0  0  0  0  0  0  0
   -3.7940    3.8388   10.2041 N   0  0  0  0  0  0  0  0  0  0  0  0
   -4.8558    4.2489    9.3919 C   0  0  0  0  0  0  0  0  0  0  0  0
   -4.4484    4.4143    7.9582 C   0  0  0  0  0  0  0  0  0  0  0  0
   -3.8545    3.2379    7.5406 O   0  0  0  0  0  0  0  0  0  0  0  0
   -3.6277    4.4083   11.4819 C   0  0  0  0  0  0  0  0  0  0  0  0
   -2.2724    4.9527   11.7352 C   0  0  0  0  0  0  0  0  0  0  0  0
   -1.7919    6.1885   11.5295 N   0  0  0  0  0  0  0  0  0  0  0  0
   -0.4974    6.2032   11.9177 C   0  0  0  0  0  0  0  0  0  0  0  0
    0.3178    7.1707   11.8897 O   0  0  0  0  0  0  0  0  0  0  0  0
   -0.1934    4.9817   12.3571 N   0  0  0  0  0  0  0  0  0  0  0  0
   -1.2690    4.2220   12.2470 N   0  0  0  0  0  0  0  0  0  0  0  0
   -2.7312    1.7376   10.3495 C   0  0  0  0  0  0  0  0  0  0  0  0
   -1.5892    1.2534   10.9511 C   0  0  0  0  0  0  0  0  0  0  0  0
   -1.5610    0.0201   11.5702 C   0  0  0  0  0  0  0  0  0  0  0  0
   -2.7062   -0.7504   11.5885 C   0  0  0  0  0  0  0  0  0  0  0  0
   -3.8509   -0.3055   11.0054 C   0  0  0  0  0  0  0  0  0  0  0  0
   -3.8479    0.9302   10.3950 C   0  0  0  0  0  0  0  0  0  0  0  0
   -2.6257   -1.9554   12.2102 F   0  0  0  0  0  0  0  0  0  0  0  0
  1  2  1  0
  2  3  1  0
  3  4  2  0
  4  5  1  0
  5  6  2  0
  6  7  1  0
  7  8  2  0
  7  9  1  0
  9 10  1  0
  9 11  1  0
  9 12  1  0
  5 13  1  0
 13 14  1  0
 13 15  1  0
 13 16  1  0
  2 17  1  0
 17 18  1  0
 18 19  1  0
 19 20  1  0
 20 21  1  0
 21 22  1  0
 22 23  1  0
 20 24  1  0
 24 25  1  0
 25 26  2  0
 26 27  1  0
 27 28  2  0
 27 29  1  0
 29 30  1  0
 19 31  1  0
 31 32  2  0
 32 33  1  0
 33 34  2  0
 34 35  1  0
 35 36  2  0
 34 37  1  0
  8  3  1  0
 23 18  1  0
 30 25  1  0
 36 31  1  0
M  END
$$$$
