
     RDKit          3D

 37 40  0  0  0  0  0  0  0  0999 V2000
    1.5506    1.9063    7.2717 C   0  0  0  0  0  0  0  0  0  0  0  0
    0.2113    1.5145    7.9115 C   0  0  0  0  0  0  0  0  0  0  0  0
    0.3726    0.1712    8.4580 C   0  0  0  0  0  0  0  0  0  0  0  0
   -0.6622   -0.3946    9.1715 C   0  0  0  0  0  0  0  0  0  0  0  0
   -0.5897   -1.6565    9.7196 C   0  0  0  0  0  0  0  0  0  0  0  0
    0.5713   -2.3895    9.5477 C   0  0  0  0  0  0  0  0  0  0  0  0
    1.6144   -1.8351    8.8359 C   0  0  0  0  0  0  0  0  0  0  0  0
    1.5352   -0.5695    8.2890 C   0  0  0  0  0  0  0  0  0  0  0  0
    2.8389   -2.6269    8.6631 C   0  0  0  0  0  0  0  0  0  0  0  0
    2.5289   -3.9587    8.4059 F   0  0  0  0  0  0  0  0  0  0  0  0
    3.5612   -2.1069    7.6094 F   0  0  0  0  0  0  0  0  0  0  0  0
    3.6247   -2.5496    9.7892 F   0  0  0  0  0  0  0  0  0  0  0  0
   -1.7028   -2.2692   10.4890 C   0  0  0  0  0  0  0  0  0  0  0  0
   -2.8515   -2.1895    9.7254 F   0  0  0  0  0  0  0  0  0  0  0  0
   -1.4738   -3.6181   10.7291 F   0  0  0  0  0  0  0  0  0  0  0  0
   -1.9293   -1.5909   11.6759 F   0  0  0  0  0  0  0  0  0  0  0  0
   -0.1443    2.4362    8.8923 O   0  0  0  0  0  0  0  0  0  0  0  0
   -1.2399    3.2012    8.5080 C   0  0  0  0  0  0  0  0  0  0  0  0
   -2.1994    3.4445    9.6312 C   0  0  0  0  0  0  0  0  0  0  0  0
   -2.1873    4.7154   10.2131 N   0  0  0  0  0  0  0  0  0  0  0  0
   -1.5004    5.7739    9.6106 C   0  0  0  0  0  0  0  0  0  0  0  0
   -0.3259    5.3079    8.8032 C   0  0  0  0  0  0  0  0  0  0  0  0
   -0.7708    4.3549    7.9060 O   0  0  0  0  0  0  0  0  0  0  0  0
   -2.6477    4.8418   11.5385 C   0  0  0  0  0  0  0  0  0  0  0  0
   -1.5740    4.8336   12.5605 C   0  0  0  0  0  0  0  0  0  0  0  0
   -1.3508    3.9709   13.5637 N   0  0  0  0  0  0  0  0  0  0  0  0
   -0.2466    4.3790   14.2275 C   0  0  0  0  0  0  0  0  0  0  0  0
    0.3034    3.8461   15.2349 O   0  0  0  0  0  0  0  0  0  0  0  0
    0.1987    5.4845   13.6299 N   0  0  0  0  0  0  0  0  0  0  0  0
   -0.6055    5.7616   12.6186 N   0  0  0  0  0  0  0  0  0  0  0  0
   -3.6001    3.0911    9.2479 C   0  0  0  0  0  0  0  0  0  0  0  0
   -4.3136    2.1436    9.9504 C   0  0  0  0  0  0  0  0  0  0  0  0
   -5.6077    1.8070    9.6081 C   0  0  0  0  0  0  0  0  0  0  0  0
   -6.2049    2.4351    8.5336 C   0  0  0  0  0  0  0  0  0  0  0  0
   -5.5319    3.3745    7.8175 C   0  0  0  0  0  0  0  0  0  0  0  0
   -4.2410    3.6892    8.1837 C   0  0  0  0  0  0  0  0  0  0  0  0
   -7.4789    2.0681    8.2383 F   0  0  0  0  0  0  0  0  0  0  0  0
  1  2  1  0
  2  3  1  0
  3  4  2  0
  4  5  1  0
  5  6  2  0
  6  7  1  0
  7  8  2  0
  7  9  1  0
  9 10  1  0
  9 11  1  0
  9 12  1  0
  5 13  1  0
 13 14  1  0
 13 15  1  0
 13 16  1  0
  2 17  1  0
 17 18  1  0
 18 19  1  0
 19 20  1  0
 20 21  1  0
 21 22  1  0
 22 23  1  0
 20 24  1  0
 24 25  1  0
 25 26  2  0
 26 27  1  0
 27 28  2  0
 27 29  1  0
 29 30  1  0
 19 31  1  0
 31 32  2  0
 32 33  1  0
 33 34  2  0
 34 35  1  0
 35 36  2  0
 34 37  1  0
  8  3  1  0
 23 18  1  0
 30 25  1  0
 36 31  1  0
M  END
$$$$
