
     RDKit          3D

 46 52  0  0  0  0  0  0  0  0999 V2000
   -0.2831   -3.1262    5.4139 C   0  0  0  0  0  0  0  0  0  0  0  0
    0.1448   -1.6870    5.7867 C   0  0  0  0  0  0  0  0  0  0  0  0
    0.6123   -1.6668    7.1732 C   0  0  0  0  0  0  0  0  0  0  0  0
    0.0947   -2.6011    8.0295 N   0  0  0  0  0  0  0  0  0  0  0  0
    0.4683   -2.6972    9.3148 C   0  0  0  0  0  0  0  0  0  0  0  0
    1.4135   -1.8279    9.8169 C   0  0  0  0  0  0  0  0  0  0  0  0
    1.8268   -1.8928   11.1451 C   0  0  0  0  0  0  0  0  0  0  0  0
    1.2951   -2.8375   12.0001 C   0  0  0  0  0  0  0  0  0  0  0  0
    0.3492   -3.7035   11.4888 C   0  0  0  0  0  0  0  0  0  0  0  0
   -0.0630   -3.6415   10.1698 C   0  0  0  0  0  0  0  0  0  0  0  0
    1.6569   -2.9745   13.3586 N   0  0  0  0  0  0  0  0  0  0  0  0
    1.5630   -1.8162   14.2138 C   0  0  0  0  0  0  0  0  0  0  0  0
    2.8653   -1.0562   14.2544 C   0  0  0  0  0  0  0  0  0  0  0  0
    3.1969   -0.2887   15.3419 C   0  0  0  0  0  0  0  0  0  0  0  0
    4.3826    0.3974   15.3735 C   0  0  0  0  0  0  0  0  0  0  0  0
    5.2981    0.3609   14.3369 C   0  0  0  0  0  0  0  0  0  0  0  0
    4.9424   -0.4175   13.2550 C   0  0  0  0  0  0  0  0  0  0  0  0
    3.7542   -1.1147   13.2054 C   0  0  0  0  0  0  0  0  0  0  0  0
    2.1066   -4.2186   13.8462 C   0  0  0  0  0  0  0  0  0  0  0  0
    2.4704   -4.3143   15.0543 O   0  0  0  0  0  0  0  0  0  0  0  0
    2.1883   -5.4237   13.0573 C   0  0  0  0  0  0  0  0  0  0  0  0
    1.5572   -5.7948   11.9085 C   0  0  0  0  0  0  0  0  0  0  0  0
    1.8079   -6.9907   11.3660 C   0  0  0  0  0  0  0  0  0  0  0  0
    2.7176   -7.8361   11.9954 C   0  0  0  0  0  0  0  0  0  0  0  0
    3.2042   -6.8088   13.4319 S   0  0  0  0  0  0  0  0  0  0  0  0
    1.9315   -0.8914    8.9542 C   0  0  0  0  0  0  0  0  0  0  0  0
    2.7866   -0.1116    9.4060 O   0  0  0  0  0  0  0  0  0  0  0  0
    1.5321   -0.8110    7.6391 N   0  0  0  0  0  0  0  0  0  0  0  0
    2.1074    0.1732    6.7898 C   0  0  0  0  0  0  0  0  0  0  0  0
    1.3974    1.4785    6.7626 C   0  0  0  0  0  0  0  0  0  0  0  0
    0.7645    1.9594    7.9106 C   0  0  0  0  0  0  0  0  0  0  0  0
    0.0999    3.1454    7.9684 C   0  0  0  0  0  0  0  0  0  0  0  0
    0.0212    3.9476    6.8583 C   0  0  0  0  0  0  0  0  0  0  0  0
    0.6331    3.5064    5.7053 C   0  0  0  0  0  0  0  0  0  0  0  0
    1.3151    2.2859    5.6521 C   0  0  0  0  0  0  0  0  0  0  0  0
   -0.6635    5.2294    6.8509 C   0  0  0  0  0  0  0  0  0  0  0  0
   -1.6401    5.5332    5.9039 C   0  0  0  0  0  0  0  0  0  0  0  0
   -2.2710    6.7589    5.9358 C   0  0  0  0  0  0  0  0  0  0  0  0
   -1.9511    7.6946    6.8933 C   0  0  0  0  0  0  0  0  0  0  0  0
   -0.9772    7.3783    7.8293 C   0  0  0  0  0  0  0  0  0  0  0  0
   -0.3400    6.1564    7.8067 C   0  0  0  0  0  0  0  0  0  0  0  0
    0.6834    5.8238    8.7825 C   0  0  0  0  0  0  0  0  0  0  0  0
    1.9540    5.5599    8.4394 N   0  0  0  0  0  0  0  0  0  0  0  0
    2.6399    5.2902    9.5280 N   0  0  0  0  0  0  0  0  0  0  0  0
    1.8002    5.3860   10.5419 N   0  0  0  0  0  0  0  0  0  0  0  0
    0.5968    5.7118   10.1085 N   0  0  0  0  0  0  0  0  0  0  0  0
  1  2  1  0
  2  3  1  0
  3  4  2  0
  4  5  1  0
  5  6  2  0
  6  7  1  0
  7  8  2  0
  8  9  1  0
  9 10  2  0
  8 11  1  0
 11 12  1  0
 12 13  1  0
 13 14  2  0
 14 15  1  0
 15 16  2  0
 16 17  1  0
 17 18  2  0
 11 19  1  0
 19 20  2  0
 19 21  1  0
 21 22  2  0
 22 23  1  0
 23 24  2  0
 24 25  1  0
  6 26  1  0
 26 27  2  0
 26 28  1  0
 28 29  1  0
 29 30  1  0
 30 31  2  0
 31 32  1  0
 32 33  2  0
 33 34  1  0
 34 35  2  0
 33 36  1  0
 36 37  2  0
 37 38  1  0
 38 39  2  0
 39 40  1  0
 40 41  2  0
 41 42  1  0
 42 43  2  0
 43 44  1  0
 44 45  1  0
 45 46  2  0
 28  3  1  0
 10  5  1  0
 18 13  1  0
 25 21  1  0
 35 30  1  0
 41 36  1  0
 46 42  1  0
M  END
$$$$
