
     RDKit          3D

 46 52  0  0  0  0  0  0  0  0999 V2000
    1.7911   -3.4897    5.3322 C   0  0  0  0  0  0  0  0  0  0  0  0
    1.3074   -2.0890    5.7763 C   0  0  0  0  0  0  0  0  0  0  0  0
    1.5439   -1.9297    7.2116 C   0  0  0  0  0  0  0  0  0  0  0  0
    1.0748   -2.9107    8.0433 N   0  0  0  0  0  0  0  0  0  0  0  0
    1.2564   -2.8869    9.3727 C   0  0  0  0  0  0  0  0  0  0  0  0
    1.9430   -1.8389    9.9483 C   0  0  0  0  0  0  0  0  0  0  0  0
    2.1511   -1.7754   11.3238 C   0  0  0  0  0  0  0  0  0  0  0  0
    1.6702   -2.7692   12.1528 C   0  0  0  0  0  0  0  0  0  0  0  0
    0.9838   -3.8145   11.5677 C   0  0  0  0  0  0  0  0  0  0  0  0
    0.7759   -3.8802   10.2017 C   0  0  0  0  0  0  0  0  0  0  0  0
    1.8363   -2.7850   13.5554 N   0  0  0  0  0  0  0  0  0  0  0  0
    1.0294   -1.8927   14.3519 C   0  0  0  0  0  0  0  0  0  0  0  0
   -0.2646   -2.5463   14.7684 C   0  0  0  0  0  0  0  0  0  0  0  0
   -0.5328   -3.8493   14.4337 C   0  0  0  0  0  0  0  0  0  0  0  0
   -1.7093   -4.4379   14.8171 C   0  0  0  0  0  0  0  0  0  0  0  0
   -2.6776   -3.7726   15.5478 C   0  0  0  0  0  0  0  0  0  0  0  0
   -2.3849   -2.4642   15.8723 C   0  0  0  0  0  0  0  0  0  0  0  0
   -1.2069   -1.8554   15.4956 C   0  0  0  0  0  0  0  0  0  0  0  0
    2.7803   -3.6513   14.1436 C   0  0  0  0  0  0  0  0  0  0  0  0
    2.8990   -3.6731   15.4031 O   0  0  0  0  0  0  0  0  0  0  0  0
    3.6459   -4.5385   13.4052 C   0  0  0  0  0  0  0  0  0  0  0  0
    3.8583   -4.6856   12.0677 C   0  0  0  0  0  0  0  0  0  0  0  0
    4.7279   -5.6003   11.6270 C   0  0  0  0  0  0  0  0  0  0  0  0
    5.4022   -6.3882   12.5559 C   0  0  0  0  0  0  0  0  0  0  0  0
    4.7123   -5.7377   14.1233 S   0  0  0  0  0  0  0  0  0  0  0  0
    2.4132   -0.8559    9.1102 C   0  0  0  0  0  0  0  0  0  0  0  0
    3.0358    0.0856    9.6291 O   0  0  0  0  0  0  0  0  0  0  0  0
    2.2138   -0.9010    7.7488 N   0  0  0  0  0  0  0  0  0  0  0  0
    2.7292    0.1399    6.9291 C   0  0  0  0  0  0  0  0  0  0  0  0
    1.8792    1.3558    6.8415 C   0  0  0  0  0  0  0  0  0  0  0  0
    0.7932    1.5189    7.7040 C   0  0  0  0  0  0  0  0  0  0  0  0
   -0.0278    2.6039    7.6910 C   0  0  0  0  0  0  0  0  0  0  0  0
    0.1858    3.6207    6.7952 C   0  0  0  0  0  0  0  0  0  0  0  0
    1.2479    3.4956    5.9265 C   0  0  0  0  0  0  0  0  0  0  0  0
    2.0888    2.3775    5.9448 C   0  0  0  0  0  0  0  0  0  0  0  0
   -0.6448    4.8116    6.7316 C   0  0  0  0  0  0  0  0  0  0  0  0
   -1.2660    5.2095    5.5490 C   0  0  0  0  0  0  0  0  0  0  0  0
   -2.0517    6.3426    5.5328 C   0  0  0  0  0  0  0  0  0  0  0  0
   -2.2348    7.0930    6.6720 C   0  0  0  0  0  0  0  0  0  0  0  0
   -1.6102    6.6849    7.8416 C   0  0  0  0  0  0  0  0  0  0  0  0
   -0.8225    5.5543    7.8693 C   0  0  0  0  0  0  0  0  0  0  0  0
   -0.1635    5.1266    9.0912 C   0  0  0  0  0  0  0  0  0  0  0  0
    1.1622    5.2299    9.2743 N   0  0  0  0  0  0  0  0  0  0  0  0
    1.4637    4.7613   10.4650 N   0  0  0  0  0  0  0  0  0  0  0  0
    0.3314    4.3690   11.0187 N   0  0  0  0  0  0  0  0  0  0  0  0
   -0.6776    4.5834   10.1952 N   0  0  0  0  0  0  0  0  0  0  0  0
  1  2  1  0
  2  3  1  0
  3  4  2  0
  4  5  1  0
  5  6  2  0
  6  7  1  0
  7  8  2  0
  8  9  1  0
  9 10  2  0
  8 11  1  0
 11 12  1  0
 12 13  1  0
 13 14  2  0
 14 15  1  0
 15 16  2  0
 16 17  1  0
 17 18  2  0
 11 19  1  0
 19 20  2  0
 19 21  1  0
 21 22  2  0
 22 23  1  0
 23 24  2  0
 24 25  1  0
  6 26  1  0
 26 27  2  0
 26 28  1  0
 28 29  1  0
 29 30  1  0
 30 31  2  0
 31 32  1  0
 32 33  2  0
 33 34  1  0
 34 35  2  0
 33 36  1  0
 36 37  2  0
 37 38  1  0
 38 39  2  0
 39 40  1  0
 40 41  2  0
 41 42  1  0
 42 43  2  0
 43 44  1  0
 44 45  1  0
 45 46  2  0
 28  3  1  0
 10  5  1  0
 18 13  1  0
 25 21  1  0
 35 30  1  0
 41 36  1  0
 46 42  1  0
M  END
$$$$
