
     RDKit          3D

 46 52  0  0  0  0  0  0  0  0999 V2000
    0.5063   -2.7240    4.3982 C   0  0  0  0  0  0  0  0  0  0  0  0
    0.9900   -1.3193    4.8297 C   0  0  0  0  0  0  0  0  0  0  0  0
    1.1927   -1.3032    6.2788 C   0  0  0  0  0  0  0  0  0  0  0  0
    2.2091   -2.0683    6.7845 N   0  0  0  0  0  0  0  0  0  0  0  0
    2.5072   -2.1112    8.0922 C   0  0  0  0  0  0  0  0  0  0  0  0
    1.7716   -1.3597    8.9841 C   0  0  0  0  0  0  0  0  0  0  0  0
    2.0471   -1.3778   10.3490 C   0  0  0  0  0  0  0  0  0  0  0  0
    3.0728   -2.1560   10.8476 C   0  0  0  0  0  0  0  0  0  0  0  0
    3.8038   -2.9051    9.9473 C   0  0  0  0  0  0  0  0  0  0  0  0
    3.5325   -2.8889    8.5909 C   0  0  0  0  0  0  0  0  0  0  0  0
    3.4211   -2.2331   12.2143 N   0  0  0  0  0  0  0  0  0  0  0  0
    4.4857   -1.3888   12.6998 C   0  0  0  0  0  0  0  0  0  0  0  0
    3.9477   -0.1025   13.2752 C   0  0  0  0  0  0  0  0  0  0  0  0
    3.3687    0.8412   12.4652 C   0  0  0  0  0  0  0  0  0  0  0  0
    2.8798    2.0067   12.9946 C   0  0  0  0  0  0  0  0  0  0  0  0
    2.9374    2.2990   14.3457 C   0  0  0  0  0  0  0  0  0  0  0  0
    3.5237    1.3350   15.1393 C   0  0  0  0  0  0  0  0  0  0  0  0
    4.0209    0.1567   14.6248 C   0  0  0  0  0  0  0  0  0  0  0  0
    2.7403   -3.1272   13.0657 C   0  0  0  0  0  0  0  0  0  0  0  0
    3.0381   -3.1582   14.2951 O   0  0  0  0  0  0  0  0  0  0  0  0
    1.7041   -4.0347   12.6366 C   0  0  0  0  0  0  0  0  0  0  0  0
    0.4307   -4.2256   13.0814 C   0  0  0  0  0  0  0  0  0  0  0  0
   -0.3448   -5.1507   12.5069 C   0  0  0  0  0  0  0  0  0  0  0  0
    0.1737   -5.9039   11.4571 C   0  0  0  0  0  0  0  0  0  0  0  0
    1.8622   -5.2043   11.3336 S   0  0  0  0  0  0  0  0  0  0  0  0
    0.7522   -0.5923    8.4729 C   0  0  0  0  0  0  0  0  0  0  0  0
    0.0929    0.0880    9.2766 O   0  0  0  0  0  0  0  0  0  0  0  0
    0.4639   -0.5650    7.1270 N   0  0  0  0  0  0  0  0  0  0  0  0
   -0.5976    0.2533    6.6530 C   0  0  0  0  0  0  0  0  0  0  0  0
   -0.3784    1.7167    6.7915 C   0  0  0  0  0  0  0  0  0  0  0  0
    0.9123    2.2223    6.9598 C   0  0  0  0  0  0  0  0  0  0  0  0
    1.1960    3.5469    7.0877 C   0  0  0  0  0  0  0  0  0  0  0  0
    0.1867    4.4754    7.0558 C   0  0  0  0  0  0  0  0  0  0  0  0
   -1.1015    4.0149    6.8921 C   0  0  0  0  0  0  0  0  0  0  0  0
   -1.3870    2.6514    6.7609 C   0  0  0  0  0  0  0  0  0  0  0  0
    0.4178    5.9051    7.1769 C   0  0  0  0  0  0  0  0  0  0  0  0
    0.1711    6.7795    6.1198 C   0  0  0  0  0  0  0  0  0  0  0  0
    0.3973    8.1305    6.2780 C   0  0  0  0  0  0  0  0  0  0  0  0
    0.8658    8.6346    7.4701 C   0  0  0  0  0  0  0  0  0  0  0  0
    1.1068    7.7524    8.5132 C   0  0  0  0  0  0  0  0  0  0  0  0
    0.8846    6.4002    8.3662 C   0  0  0  0  0  0  0  0  0  0  0  0
    1.1403    5.4733    9.4550 C   0  0  0  0  0  0  0  0  0  0  0  0
    0.1590    4.8195   10.0963 N   0  0  0  0  0  0  0  0  0  0  0  0
    0.6928    4.0622   11.0288 N   0  0  0  0  0  0  0  0  0  0  0  0
    1.9988    4.2443   10.9673 N   0  0  0  0  0  0  0  0  0  0  0  0
    2.2950    5.1042   10.0108 N   0  0  0  0  0  0  0  0  0  0  0  0
  1  2  1  0
  2  3  1  0
  3  4  2  0
  4  5  1  0
  5  6  2  0
  6  7  1  0
  7  8  2  0
  8  9  1  0
  9 10  2  0
  8 11  1  0
 11 12  1  0
 12 13  1  0
 13 14  2  0
 14 15  1  0
 15 16  2  0
 16 17  1  0
 17 18  2  0
 11 19  1  0
 19 20  2  0
 19 21  1  0
 21 22  2  0
 22 23  1  0
 23 24  2  0
 24 25  1  0
  6 26  1  0
 26 27  2  0
 26 28  1  0
 28 29  1  0
 29 30  1  0
 30 31  2  0
 31 32  1  0
 32 33  2  0
 33 34  1  0
 34 35  2  0
 33 36  1  0
 36 37  2  0
 37 38  1  0
 38 39  2  0
 39 40  1  0
 40 41  2  0
 41 42  1  0
 42 43  2  0
 43 44  1  0
 44 45  1  0
 45 46  2  0
 28  3  1  0
 10  5  1  0
 18 13  1  0
 25 21  1  0
 35 30  1  0
 41 36  1  0
 46 42  1  0
M  END
$$$$
