
     RDKit          3D

 46 52  0  0  0  0  0  0  0  0999 V2000
    0.5119   -3.1378    4.7465 C   0  0  0  0  0  0  0  0  0  0  0  0
   -0.2597   -2.0418    5.5190 C   0  0  0  0  0  0  0  0  0  0  0  0
    0.3619   -1.8471    6.8294 C   0  0  0  0  0  0  0  0  0  0  0  0
    0.0843   -2.7667    7.8047 N   0  0  0  0  0  0  0  0  0  0  0  0
    0.6176   -2.7075    9.0347 C   0  0  0  0  0  0  0  0  0  0  0  0
    1.4862   -1.6850    9.3526 C   0  0  0  0  0  0  0  0  0  0  0  0
    2.0594   -1.5862   10.6179 C   0  0  0  0  0  0  0  0  0  0  0  0
    1.7691   -2.5180   11.5945 C   0  0  0  0  0  0  0  0  0  0  0  0
    0.8983   -3.5382   11.2673 C   0  0  0  0  0  0  0  0  0  0  0  0
    0.3277   -3.6389   10.0111 C   0  0  0  0  0  0  0  0  0  0  0  0
    2.3052   -2.4946   12.9010 N   0  0  0  0  0  0  0  0  0  0  0  0
    3.3851   -3.3983   13.2158 C   0  0  0  0  0  0  0  0  0  0  0  0
    2.8763   -4.7959   13.4670 C   0  0  0  0  0  0  0  0  0  0  0  0
    3.1701   -5.8168   12.5992 C   0  0  0  0  0  0  0  0  0  0  0  0
    2.7068   -7.0848   12.8344 C   0  0  0  0  0  0  0  0  0  0  0  0
    1.9326   -7.4083   13.9344 C   0  0  0  0  0  0  0  0  0  0  0  0
    1.6508   -6.3654   14.7921 C   0  0  0  0  0  0  0  0  0  0  0  0
    2.1081   -5.0837   14.5721 C   0  0  0  0  0  0  0  0  0  0  0  0
    1.7775   -1.6100   13.8636 C   0  0  0  0  0  0  0  0  0  0  0  0
    2.1496   -1.7136   15.0685 O   0  0  0  0  0  0  0  0  0  0  0  0
    0.8210   -0.5683   13.5782 C   0  0  0  0  0  0  0  0  0  0  0  0
   -0.4262   -0.6134   13.0319 C   0  0  0  0  0  0  0  0  0  0  0  0
   -1.1230    0.5154   12.8661 C   0  0  0  0  0  0  0  0  0  0  0  0
   -0.5506    1.7218   13.2601 C   0  0  0  0  0  0  0  0  0  0  0  0
    1.0684    1.1436   13.8926 S   0  0  0  0  0  0  0  0  0  0  0  0
    1.7633   -0.7636    8.3708 C   0  0  0  0  0  0  0  0  0  0  0  0
    2.5496    0.1547    8.6565 O   0  0  0  0  0  0  0  0  0  0  0  0
    1.2031   -0.8441    7.1158 N   0  0  0  0  0  0  0  0  0  0  0  0
    1.5315    0.1328    6.1366 C   0  0  0  0  0  0  0  0  0  0  0  0
    0.9951    1.4942    6.3965 C   0  0  0  0  0  0  0  0  0  0  0  0
    1.8657    2.5683    6.5915 C   0  0  0  0  0  0  0  0  0  0  0  0
    1.4540    3.8434    6.8283 C   0  0  0  0  0  0  0  0  0  0  0  0
    0.1153    4.1369    6.8879 C   0  0  0  0  0  0  0  0  0  0  0  0
   -0.7755    3.1025    6.7012 C   0  0  0  0  0  0  0  0  0  0  0  0
   -0.3460    1.7932    6.4579 C   0  0  0  0  0  0  0  0  0  0  0  0
   -0.3949    5.4765    7.1275 C   0  0  0  0  0  0  0  0  0  0  0  0
   -1.2198    6.1218    6.2078 C   0  0  0  0  0  0  0  0  0  0  0  0
   -1.6882    7.3907    6.4764 C   0  0  0  0  0  0  0  0  0  0  0  0
   -1.3531    8.0358    7.6452 C   0  0  0  0  0  0  0  0  0  0  0  0
   -0.5312    7.3812    8.5510 C   0  0  0  0  0  0  0  0  0  0  0  0
   -0.0571    6.1131    8.2929 C   0  0  0  0  0  0  0  0  0  0  0  0
    0.8073    5.4267    9.2371 C   0  0  0  0  0  0  0  0  0  0  0  0
    0.4134    4.3443    9.9264 N   0  0  0  0  0  0  0  0  0  0  0  0
    1.4016    3.9506   10.6988 N   0  0  0  0  0  0  0  0  0  0  0  0
    2.4042    4.7837   10.4906 N   0  0  0  0  0  0  0  0  0  0  0  0
    2.0623    5.6953    9.5993 N   0  0  0  0  0  0  0  0  0  0  0  0
  1  2  1  0
  2  3  1  0
  3  4  2  0
  4  5  1  0
  5  6  2  0
  6  7  1  0
  7  8  2  0
  8  9  1  0
  9 10  2  0
  8 11  1  0
 11 12  1  0
 12 13  1  0
 13 14  2  0
 14 15  1  0
 15 16  2  0
 16 17  1  0
 17 18  2  0
 11 19  1  0
 19 20  2  0
 19 21  1  0
 21 22  2  0
 22 23  1  0
 23 24  2  0
 24 25  1  0
  6 26  1  0
 26 27  2  0
 26 28  1  0
 28 29  1  0
 29 30  1  0
 30 31  2  0
 31 32  1  0
 32 33  2  0
 33 34  1  0
 34 35  2  0
 33 36  1  0
 36 37  2  0
 37 38  1  0
 38 39  2  0
 39 40  1  0
 40 41  2  0
 41 42  1  0
 42 43  2  0
 43 44  1  0
 44 45  1  0
 45 46  2  0
 28  3  1  0
 10  5  1  0
 18 13  1  0
 25 21  1  0
 35 30  1  0
 41 36  1  0
 46 42  1  0
M  END
$$$$
