
     RDKit          3D

 46 52  0  0  0  0  0  0  0  0999 V2000
    3.0473   -1.4706    4.3490 C   0  0  0  0  0  0  0  0  0  0  0  0
    1.9417   -2.3220    5.0169 C   0  0  0  0  0  0  0  0  0  0  0  0
    1.9599   -2.0887    6.4614 C   0  0  0  0  0  0  0  0  0  0  0  0
    3.0895   -2.4477    7.1465 N   0  0  0  0  0  0  0  0  0  0  0  0
    3.2320   -2.2564    8.4671 C   0  0  0  0  0  0  0  0  0  0  0  0
    2.2097   -1.6739    9.1859 C   0  0  0  0  0  0  0  0  0  0  0  0
    2.3169   -1.4599   10.5577 C   0  0  0  0  0  0  0  0  0  0  0  0
    3.4599   -1.8293   11.2384 C   0  0  0  0  0  0  0  0  0  0  0  0
    4.4783   -2.4118   10.5106 C   0  0  0  0  0  0  0  0  0  0  0  0
    4.3745   -2.6255    9.1478 C   0  0  0  0  0  0  0  0  0  0  0  0
    3.6532   -1.6486   12.6258 N   0  0  0  0  0  0  0  0  0  0  0  0
    3.9531   -2.8062   13.4333 C   0  0  0  0  0  0  0  0  0  0  0  0
    2.7690   -3.7364   13.5211 C   0  0  0  0  0  0  0  0  0  0  0  0
    1.5056   -3.2956   13.2190 C   0  0  0  0  0  0  0  0  0  0  0  0
    0.4344   -4.1464   13.2985 C   0  0  0  0  0  0  0  0  0  0  0  0
    0.5555   -5.4711   13.6789 C   0  0  0  0  0  0  0  0  0  0  0  0
    1.8352   -5.8907   13.9773 C   0  0  0  0  0  0  0  0  0  0  0  0
    2.9247   -5.0494   13.9030 C   0  0  0  0  0  0  0  0  0  0  0  0
    3.5413   -0.3620   13.1913 C   0  0  0  0  0  0  0  0  0  0  0  0
    3.6237   -0.2291   14.4470 O   0  0  0  0  0  0  0  0  0  0  0  0
    3.3342    0.8480   12.4335 C   0  0  0  0  0  0  0  0  0  0  0  0
    2.3238    1.2316   11.6042 C   0  0  0  0  0  0  0  0  0  0  0  0
    2.3685    2.4267   11.0067 C   0  0  0  0  0  0  0  0  0  0  0  0
    3.4582    3.2585   11.2496 C   0  0  0  0  0  0  0  0  0  0  0  0
    4.4337    2.2195   12.4004 S   0  0  0  0  0  0  0  0  0  0  0  0
    1.0772   -1.3141    8.4948 C   0  0  0  0  0  0  0  0  0  0  0  0
    0.1583   -0.7852    9.1423 O   0  0  0  0  0  0  0  0  0  0  0  0
    0.9529   -1.5213    7.1394 N   0  0  0  0  0  0  0  0  0  0  0  0
   -0.2387   -1.1222    6.4747 C   0  0  0  0  0  0  0  0  0  0  0  0
   -0.3690    0.3383    6.2324 C   0  0  0  0  0  0  0  0  0  0  0  0
   -1.5575    0.8635    5.7211 C   0  0  0  0  0  0  0  0  0  0  0  0
   -1.7573    2.1872    5.4774 C   0  0  0  0  0  0  0  0  0  0  0  0
   -0.7607    3.0946    5.7336 C   0  0  0  0  0  0  0  0  0  0  0  0
    0.4278    2.6141    6.2383 C   0  0  0  0  0  0  0  0  0  0  0  0
    0.6273    1.2517    6.4869 C   0  0  0  0  0  0  0  0  0  0  0  0
   -0.9082    4.5224    5.5063 C   0  0  0  0  0  0  0  0  0  0  0  0
   -0.7021    5.0895    4.2498 C   0  0  0  0  0  0  0  0  0  0  0  0
   -0.8589    6.4483    4.0748 C   0  0  0  0  0  0  0  0  0  0  0  0
   -1.2178    7.2604    5.1266 C   0  0  0  0  0  0  0  0  0  0  0  0
   -1.4194    6.6819    6.3713 C   0  0  0  0  0  0  0  0  0  0  0  0
   -1.2653    5.3251    6.5578 C   0  0  0  0  0  0  0  0  0  0  0  0
   -1.4712    4.7169    7.8607 C   0  0  0  0  0  0  0  0  0  0  0  0
   -0.6235    4.8948    8.8861 N   0  0  0  0  0  0  0  0  0  0  0  0
   -1.0670    4.2221    9.9248 N   0  0  0  0  0  0  0  0  0  0  0  0
   -2.1843    3.6293    9.5469 N   0  0  0  0  0  0  0  0  0  0  0  0
   -2.4507    3.9186    8.2869 N   0  0  0  0  0  0  0  0  0  0  0  0
  1  2  1  0
  2  3  1  0
  3  4  2  0
  4  5  1  0
  5  6  2  0
  6  7  1  0
  7  8  2  0
  8  9  1  0
  9 10  2  0
  8 11  1  0
 11 12  1  0
 12 13  1  0
 13 14  2  0
 14 15  1  0
 15 16  2  0
 16 17  1  0
 17 18  2  0
 11 19  1  0
 19 20  2  0
 19 21  1  0
 21 22  2  0
 22 23  1  0
 23 24  2  0
 24 25  1  0
  6 26  1  0
 26 27  2  0
 26 28  1  0
 28 29  1  0
 29 30  1  0
 30 31  2  0
 31 32  1  0
 32 33  2  0
 33 34  1  0
 34 35  2  0
 33 36  1  0
 36 37  2  0
 37 38  1  0
 38 39  2  0
 39 40  1  0
 40 41  2  0
 41 42  1  0
 42 43  2  0
 43 44  1  0
 44 45  1  0
 45 46  2  0
 28  3  1  0
 10  5  1  0
 18 13  1  0
 25 21  1  0
 35 30  1  0
 41 36  1  0
 46 42  1  0
M  END
$$$$
