
     RDKit          3D

 46 52  0  0  0  0  0  0  0  0999 V2000
    5.8390   -0.0202    9.7110 C   0  0  0  0  0  0  0  0  0  0  0  0
    4.4986    0.7512    9.6730 C   0  0  0  0  0  0  0  0  0  0  0  0
    3.4587   -0.0572   10.3104 C   0  0  0  0  0  0  0  0  0  0  0  0
    3.7447   -0.6098   11.5298 N   0  0  0  0  0  0  0  0  0  0  0  0
    2.8610   -1.3457   12.2213 C   0  0  0  0  0  0  0  0  0  0  0  0
    1.6036   -1.5678   11.7010 C   0  0  0  0  0  0  0  0  0  0  0  0
    0.6583   -2.3274   12.3855 C   0  0  0  0  0  0  0  0  0  0  0  0
    0.9596   -2.8824   13.6134 C   0  0  0  0  0  0  0  0  0  0  0  0
    2.2210   -2.6549   14.1265 C   0  0  0  0  0  0  0  0  0  0  0  0
    3.1619   -1.9005   13.4487 C   0  0  0  0  0  0  0  0  0  0  0  0
    0.0628   -3.6637   14.3751 N   0  0  0  0  0  0  0  0  0  0  0  0
   -0.8676   -2.9870   15.2459 C   0  0  0  0  0  0  0  0  0  0  0  0
   -0.1515   -2.2630   16.3586 C   0  0  0  0  0  0  0  0  0  0  0  0
    1.2077   -2.0821   16.3182 C   0  0  0  0  0  0  0  0  0  0  0  0
    1.8519   -1.4213   17.3311 C   0  0  0  0  0  0  0  0  0  0  0  0
    1.1895   -0.9074   18.4317 C   0  0  0  0  0  0  0  0  0  0  0  0
   -0.1760   -1.1017   18.4495 C   0  0  0  0  0  0  0  0  0  0  0  0
   -0.8413   -1.7636   17.4398 C   0  0  0  0  0  0  0  0  0  0  0  0
    0.0981   -5.0700   14.2811 C   0  0  0  0  0  0  0  0  0  0  0  0
   -0.7748   -5.7526   14.8919 O   0  0  0  0  0  0  0  0  0  0  0  0
    1.0762   -5.8137   13.5250 C   0  0  0  0  0  0  0  0  0  0  0  0
    1.7780   -5.4982   12.4008 C   0  0  0  0  0  0  0  0  0  0  0  0
    2.6399   -6.3795   11.8833 C   0  0  0  0  0  0  0  0  0  0  0  0
    2.8005   -7.6109   12.5129 C   0  0  0  0  0  0  0  0  0  0  0  0
    1.6303   -7.4368   13.9115 S   0  0  0  0  0  0  0  0  0  0  0  0
    1.3195   -1.0111   10.4767 C   0  0  0  0  0  0  0  0  0  0  0  0
    0.1848   -1.2077   10.0107 O   0  0  0  0  0  0  0  0  0  0  0  0
    2.2429   -0.2602    9.7847 N   0  0  0  0  0  0  0  0  0  0  0  0
    1.8917    0.2980    8.5253 C   0  0  0  0  0  0  0  0  0  0  0  0
    1.1766    1.5993    8.5875 C   0  0  0  0  0  0  0  0  0  0  0  0
    0.6326    2.1594    7.4298 C   0  0  0  0  0  0  0  0  0  0  0  0
   -0.0403    3.3418    7.4048 C   0  0  0  0  0  0  0  0  0  0  0  0
   -0.2182    4.0596    8.5602 C   0  0  0  0  0  0  0  0  0  0  0  0
    0.3053    3.5395    9.7237 C   0  0  0  0  0  0  0  0  0  0  0  0
    0.9963    2.3230    9.7431 C   0  0  0  0  0  0  0  0  0  0  0  0
   -0.9337    5.3237    8.6084 C   0  0  0  0  0  0  0  0  0  0  0  0
   -2.1595    5.4475    9.2602 C   0  0  0  0  0  0  0  0  0  0  0  0
   -2.8029    6.6668    9.2886 C   0  0  0  0  0  0  0  0  0  0  0  0
   -2.2521    7.7718    8.6802 C   0  0  0  0  0  0  0  0  0  0  0  0
   -1.0317    7.6335    8.0352 C   0  0  0  0  0  0  0  0  0  0  0  0
   -0.3798    6.4196    8.0004 C   0  0  0  0  0  0  0  0  0  0  0  0
    0.8959    6.2703    7.3220 C   0  0  0  0  0  0  0  0  0  0  0  0
    1.0166    6.3168    5.9860 N   0  0  0  0  0  0  0  0  0  0  0  0
    2.2808    6.1469    5.6681 N   0  0  0  0  0  0  0  0  0  0  0  0
    2.9422    5.9957    6.8005 N   0  0  0  0  0  0  0  0  0  0  0  0
    2.1140    6.0678    7.8257 N   0  0  0  0  0  0  0  0  0  0  0  0
  1  2  1  0
  2  3  1  0
  3  4  2  0
  4  5  1  0
  5  6  2  0
  6  7  1  0
  7  8  2  0
  8  9  1  0
  9 10  2  0
  8 11  1  0
 11 12  1  0
 12 13  1  0
 13 14  2  0
 14 15  1  0
 15 16  2  0
 16 17  1  0
 17 18  2  0
 11 19  1  0
 19 20  2  0
 19 21  1  0
 21 22  2  0
 22 23  1  0
 23 24  2  0
 24 25  1  0
  6 26  1  0
 26 27  2  0
 26 28  1  0
 28 29  1  0
 29 30  1  0
 30 31  2  0
 31 32  1  0
 32 33  2  0
 33 34  1  0
 34 35  2  0
 33 36  1  0
 36 37  2  0
 37 38  1  0
 38 39  2  0
 39 40  1  0
 40 41  2  0
 41 42  1  0
 42 43  2  0
 43 44  1  0
 44 45  1  0
 45 46  2  0
 28  3  1  0
 10  5  1  0
 18 13  1  0
 25 21  1  0
 35 30  1  0
 41 36  1  0
 46 42  1  0
M  END
$$$$
