
     RDKit          3D

 46 52  0  0  0  0  0  0  0  0999 V2000
    4.9513    1.8253   12.8887 C   0  0  0  0  0  0  0  0  0  0  0  0
    3.8933    2.1154   11.7980 C   0  0  0  0  0  0  0  0  0  0  0  0
    3.2344    0.8645   11.4206 C   0  0  0  0  0  0  0  0  0  0  0  0
    4.0330   -0.1982   11.0935 N   0  0  0  0  0  0  0  0  0  0  0  0
    3.5430   -1.4018   10.7589 C   0  0  0  0  0  0  0  0  0  0  0  0
    2.1787   -1.6005   10.7375 C   0  0  0  0  0  0  0  0  0  0  0  0
    1.6298   -2.8333   10.3938 C   0  0  0  0  0  0  0  0  0  0  0  0
    2.4456   -3.8968   10.0626 C   0  0  0  0  0  0  0  0  0  0  0  0
    3.8102   -3.6887   10.0866 C   0  0  0  0  0  0  0  0  0  0  0  0
    4.3582   -2.4652   10.4279 C   0  0  0  0  0  0  0  0  0  0  0  0
    1.9747   -5.1791    9.7035 N   0  0  0  0  0  0  0  0  0  0  0  0
    1.9712   -6.2149   10.7080 C   0  0  0  0  0  0  0  0  0  0  0  0
    1.1435   -5.8169   11.9045 C   0  0  0  0  0  0  0  0  0  0  0  0
   -0.2053   -6.0646   11.9392 C   0  0  0  0  0  0  0  0  0  0  0  0
   -0.9512   -5.7026   13.0302 C   0  0  0  0  0  0  0  0  0  0  0  0
   -0.4054   -5.0799   14.1386 C   0  0  0  0  0  0  0  0  0  0  0  0
    0.9520   -4.8418   14.0802 C   0  0  0  0  0  0  0  0  0  0  0  0
    1.7185   -5.1988   12.9914 C   0  0  0  0  0  0  0  0  0  0  0  0
    1.5326   -5.4246    8.3874 C   0  0  0  0  0  0  0  0  0  0  0  0
    1.0585   -6.5609    8.0961 O   0  0  0  0  0  0  0  0  0  0  0  0
    1.5793   -4.4587    7.3167 C   0  0  0  0  0  0  0  0  0  0  0  0
    1.3335   -3.1189    7.2987 C   0  0  0  0  0  0  0  0  0  0  0  0
    1.4447   -2.4356    6.1550 C   0  0  0  0  0  0  0  0  0  0  0  0
    1.8129   -3.1176    4.9984 C   0  0  0  0  0  0  0  0  0  0  0  0
    1.9951   -4.8209    5.6474 S   0  0  0  0  0  0  0  0  0  0  0  0
    1.3797   -0.5316   11.0670 C   0  0  0  0  0  0  0  0  0  0  0  0
    0.1508   -0.7126   11.0520 O   0  0  0  0  0  0  0  0  0  0  0  0
    1.9052    0.6949   11.4060 N   0  0  0  0  0  0  0  0  0  0  0  0
    1.0311    1.7635   11.7454 C   0  0  0  0  0  0  0  0  0  0  0  0
    0.7007    2.6889   10.6304 C   0  0  0  0  0  0  0  0  0  0  0  0
    1.4156    2.6309    9.4324 C   0  0  0  0  0  0  0  0  0  0  0  0
    1.1706    3.4380    8.3646 C   0  0  0  0  0  0  0  0  0  0  0  0
    0.1733    4.3780    8.4241 C   0  0  0  0  0  0  0  0  0  0  0  0
   -0.5542    4.4662    9.5909 C   0  0  0  0  0  0  0  0  0  0  0  0
   -0.2976    3.6334   10.6855 C   0  0  0  0  0  0  0  0  0  0  0  0
   -0.1489    5.2660    7.3196 C   0  0  0  0  0  0  0  0  0  0  0  0
   -0.6191    4.7791    6.1011 C   0  0  0  0  0  0  0  0  0  0  0  0
   -0.9198    5.6561    5.0804 C   0  0  0  0  0  0  0  0  0  0  0  0
   -0.7626    7.0137    5.2446 C   0  0  0  0  0  0  0  0  0  0  0  0
   -0.2937    7.4836    6.4627 C   0  0  0  0  0  0  0  0  0  0  0  0
    0.0102    6.6162    7.4898 C   0  0  0  0  0  0  0  0  0  0  0  0
    0.5058    7.1047    8.7649 C   0  0  0  0  0  0  0  0  0  0  0  0
    1.8053    7.0704    9.0990 N   0  0  0  0  0  0  0  0  0  0  0  0
    1.9464    7.5727   10.3057 N   0  0  0  0  0  0  0  0  0  0  0  0
    0.7410    7.9172   10.7191 N   0  0  0  0  0  0  0  0  0  0  0  0
   -0.1561    7.6397    9.7916 N   0  0  0  0  0  0  0  0  0  0  0  0
  1  2  1  0
  2  3  1  0
  3  4  2  0
  4  5  1  0
  5  6  2  0
  6  7  1  0
  7  8  2  0
  8  9  1  0
  9 10  2  0
  8 11  1  0
 11 12  1  0
 12 13  1  0
 13 14  2  0
 14 15  1  0
 15 16  2  0
 16 17  1  0
 17 18  2  0
 11 19  1  0
 19 20  2  0
 19 21  1  0
 21 22  2  0
 22 23  1  0
 23 24  2  0
 24 25  1  0
  6 26  1  0
 26 27  2  0
 26 28  1  0
 28 29  1  0
 29 30  1  0
 30 31  2  0
 31 32  1  0
 32 33  2  0
 33 34  1  0
 34 35  2  0
 33 36  1  0
 36 37  2  0
 37 38  1  0
 38 39  2  0
 39 40  1  0
 40 41  2  0
 41 42  1  0
 42 43  2  0
 43 44  1  0
 44 45  1  0
 45 46  2  0
 28  3  1  0
 10  5  1  0
 18 13  1  0
 25 21  1  0
 35 30  1  0
 41 36  1  0
 46 42  1  0
M  END
$$$$
