
     RDKit          3D

 46 52  0  0  0  0  0  0  0  0999 V2000
   -1.7675   -1.6556    4.5244 C   0  0  0  0  0  0  0  0  0  0  0  0
   -0.8611   -0.4369    4.8186 C   0  0  0  0  0  0  0  0  0  0  0  0
   -0.1498   -0.6579    6.0783 C   0  0  0  0  0  0  0  0  0  0  0  0
    0.7772   -1.6645    6.1137 N   0  0  0  0  0  0  0  0  0  0  0  0
    1.5101   -1.9418    7.2032 C   0  0  0  0  0  0  0  0  0  0  0  0
    1.3394   -1.1929    8.3483 C   0  0  0  0  0  0  0  0  0  0  0  0
    2.0781   -1.4495    9.5005 C   0  0  0  0  0  0  0  0  0  0  0  0
    3.0081   -2.4698    9.5252 C   0  0  0  0  0  0  0  0  0  0  0  0
    3.1721   -3.2144    8.3742 C   0  0  0  0  0  0  0  0  0  0  0  0
    2.4398   -2.9615    7.2281 C   0  0  0  0  0  0  0  0  0  0  0  0
    3.7997   -2.7978   10.6480 N   0  0  0  0  0  0  0  0  0  0  0  0
    5.1995   -3.0805   10.4415 C   0  0  0  0  0  0  0  0  0  0  0  0
    5.4246   -4.5377   10.1235 C   0  0  0  0  0  0  0  0  0  0  0  0
    6.4380   -4.9248    9.2839 C   0  0  0  0  0  0  0  0  0  0  0  0
    6.6387   -6.2504    9.0009 C   0  0  0  0  0  0  0  0  0  0  0  0
    5.8519   -7.2578    9.5303 C   0  0  0  0  0  0  0  0  0  0  0  0
    4.8400   -6.8437   10.3714 C   0  0  0  0  0  0  0  0  0  0  0  0
    4.6230   -5.5150   10.6678 C   0  0  0  0  0  0  0  0  0  0  0  0
    3.2159   -2.8529   11.9301 C   0  0  0  0  0  0  0  0  0  0  0  0
    3.9599   -3.0045   12.9423 O   0  0  0  0  0  0  0  0  0  0  0  0
    1.8004   -2.7485   12.1881 C   0  0  0  0  0  0  0  0  0  0  0  0
    0.7180   -3.0632   11.4230 C   0  0  0  0  0  0  0  0  0  0  0  0
   -0.5155   -2.8655   11.8990 C   0  0  0  0  0  0  0  0  0  0  0  0
   -0.6649   -2.3373   13.1784 C   0  0  0  0  0  0  0  0  0  0  0  0
    1.0872   -2.1351   13.6733 S   0  0  0  0  0  0  0  0  0  0  0  0
    0.4081   -0.1825    8.3090 C   0  0  0  0  0  0  0  0  0  0  0  0
    0.2582    0.4947    9.3397 O   0  0  0  0  0  0  0  0  0  0  0  0
   -0.3332    0.0829    7.1797 N   0  0  0  0  0  0  0  0  0  0  0  0
   -1.2774    1.1456    7.1937 C   0  0  0  0  0  0  0  0  0  0  0  0
   -0.7017    2.5055    7.0268 C   0  0  0  0  0  0  0  0  0  0  0  0
   -1.1361    3.5578    7.8354 C   0  0  0  0  0  0  0  0  0  0  0  0
   -0.6552    4.8277    7.7488 C   0  0  0  0  0  0  0  0  0  0  0  0
    0.3130    5.1380    6.8279 C   0  0  0  0  0  0  0  0  0  0  0  0
    0.7669    4.1258    6.0108 C   0  0  0  0  0  0  0  0  0  0  0  0
    0.2685    2.8218    6.1046 C   0  0  0  0  0  0  0  0  0  0  0  0
    0.8781    6.4695    6.6867 C   0  0  0  0  0  0  0  0  0  0  0  0
    1.3615    6.9347    5.4649 C   0  0  0  0  0  0  0  0  0  0  0  0
    1.8839    8.2075    5.3719 C   0  0  0  0  0  0  0  0  0  0  0  0
    1.9368    9.0327    6.4723 C   0  0  0  0  0  0  0  0  0  0  0  0
    1.4520    8.5561    7.6816 C   0  0  0  0  0  0  0  0  0  0  0  0
    0.9280    7.2857    7.7862 C   0  0  0  0  0  0  0  0  0  0  0  0
    0.4238    6.7820    9.0519 C   0  0  0  0  0  0  0  0  0  0  0  0
    1.2314    6.3801   10.0458 N   0  0  0  0  0  0  0  0  0  0  0  0
    0.4927    5.9749   11.0550 N   0  0  0  0  0  0  0  0  0  0  0  0
   -0.7671    6.1243   10.6902 N   0  0  0  0  0  0  0  0  0  0  0  0
   -0.8326    6.6171    9.4674 N   0  0  0  0  0  0  0  0  0  0  0  0
  1  2  1  0
  2  3  1  0
  3  4  2  0
  4  5  1  0
  5  6  2  0
  6  7  1  0
  7  8  2  0
  8  9  1  0
  9 10  2  0
  8 11  1  0
 11 12  1  0
 12 13  1  0
 13 14  2  0
 14 15  1  0
 15 16  2  0
 16 17  1  0
 17 18  2  0
 11 19  1  0
 19 20  2  0
 19 21  1  0
 21 22  2  0
 22 23  1  0
 23 24  2  0
 24 25  1  0
  6 26  1  0
 26 27  2  0
 26 28  1  0
 28 29  1  0
 29 30  1  0
 30 31  2  0
 31 32  1  0
 32 33  2  0
 33 34  1  0
 34 35  2  0
 33 36  1  0
 36 37  2  0
 37 38  1  0
 38 39  2  0
 39 40  1  0
 40 41  2  0
 41 42  1  0
 42 43  2  0
 43 44  1  0
 44 45  1  0
 45 46  2  0
 28  3  1  0
 10  5  1  0
 18 13  1  0
 25 21  1  0
 35 30  1  0
 41 36  1  0
 46 42  1  0
M  END
$$$$
