
     RDKit          3D

 46 52  0  0  0  0  0  0  0  0999 V2000
    5.7769    0.2491    9.4196 C   0  0  0  0  0  0  0  0  0  0  0  0
    4.3162    0.7552    9.3601 C   0  0  0  0  0  0  0  0  0  0  0  0
    3.4411   -0.2197   10.0121 C   0  0  0  0  0  0  0  0  0  0  0  0
    3.7858   -0.6389   11.2690 N   0  0  0  0  0  0  0  0  0  0  0  0
    3.0462   -1.5077   11.9754 C   0  0  0  0  0  0  0  0  0  0  0  0
    1.8841   -2.0131   11.4322 C   0  0  0  0  0  0  0  0  0  0  0  0
    1.0895   -2.9182   12.1312 C   0  0  0  0  0  0  0  0  0  0  0  0
    1.4493   -3.3361   13.3970 C   0  0  0  0  0  0  0  0  0  0  0  0
    2.6145   -2.8249   13.9329 C   0  0  0  0  0  0  0  0  0  0  0  0
    3.4056   -1.9255   13.2408 C   0  0  0  0  0  0  0  0  0  0  0  0
    0.7035   -4.2484   14.1758 N   0  0  0  0  0  0  0  0  0  0  0  0
    0.7791   -5.6516   13.8487 C   0  0  0  0  0  0  0  0  0  0  0  0
    0.1888   -5.9314   12.4891 C   0  0  0  0  0  0  0  0  0  0  0  0
    0.9288   -6.5551   11.5170 C   0  0  0  0  0  0  0  0  0  0  0  0
    0.3858   -6.8086   10.2847 C   0  0  0  0  0  0  0  0  0  0  0  0
   -0.9108   -6.4603    9.9505 C   0  0  0  0  0  0  0  0  0  0  0  0
   -1.6347   -5.8348   10.9442 C   0  0  0  0  0  0  0  0  0  0  0  0
   -1.1054   -5.5718   12.1896 C   0  0  0  0  0  0  0  0  0  0  0  0
   -0.0980   -3.7789   15.2364 C   0  0  0  0  0  0  0  0  0  0  0  0
   -0.8385   -4.5941   15.8596 O   0  0  0  0  0  0  0  0  0  0  0  0
   -0.1439   -2.4069   15.6801 C   0  0  0  0  0  0  0  0  0  0  0  0
   -0.4273   -1.2524   15.0148 C   0  0  0  0  0  0  0  0  0  0  0  0
   -0.3989   -0.0841   15.6641 C   0  0  0  0  0  0  0  0  0  0  0  0
   -0.0771   -0.0764   17.0187 C   0  0  0  0  0  0  0  0  0  0  0  0
    0.1875   -1.8641   17.3191 S   0  0  0  0  0  0  0  0  0  0  0  0
    1.5407   -1.5897   10.1703 C   0  0  0  0  0  0  0  0  0  0  0  0
    0.4910   -2.0419    9.6834 O   0  0  0  0  0  0  0  0  0  0  0  0
    2.3160   -0.6981    9.4637 N   0  0  0  0  0  0  0  0  0  0  0  0
    1.9081   -0.2890    8.1648 C   0  0  0  0  0  0  0  0  0  0  0  0
    1.2033    1.0181    8.1054 C   0  0  0  0  0  0  0  0  0  0  0  0
    1.0204    1.6641    6.8810 C   0  0  0  0  0  0  0  0  0  0  0  0
    0.3818    2.8576    6.7426 C   0  0  0  0  0  0  0  0  0  0  0  0
   -0.1277    3.4998    7.8425 C   0  0  0  0  0  0  0  0  0  0  0  0
    0.0338    2.8937    9.0693 C   0  0  0  0  0  0  0  0  0  0  0  0
    0.6914    1.6662    9.2053 C   0  0  0  0  0  0  0  0  0  0  0  0
   -0.8286    4.7707    7.7672 C   0  0  0  0  0  0  0  0  0  0  0  0
   -1.9426    4.9457    6.9479 C   0  0  0  0  0  0  0  0  0  0  0  0
   -2.5834    6.1661    6.9104 C   0  0  0  0  0  0  0  0  0  0  0  0
   -2.1392    7.2222    7.6732 C   0  0  0  0  0  0  0  0  0  0  0  0
   -1.0293    7.0333    8.4837 C   0  0  0  0  0  0  0  0  0  0  0  0
   -0.3809    5.8180    8.5289 C   0  0  0  0  0  0  0  0  0  0  0  0
    0.7843    5.6181    9.3730 C   0  0  0  0  0  0  0  0  0  0  0  0
    0.7203    5.6371   10.7136 N   0  0  0  0  0  0  0  0  0  0  0  0
    1.9250    5.4332   11.1986 N   0  0  0  0  0  0  0  0  0  0  0  0
    2.7332    5.2884   10.1650 N   0  0  0  0  0  0  0  0  0  0  0  0
    2.0559    5.3978    9.0374 N   0  0  0  0  0  0  0  0  0  0  0  0
  1  2  1  0
  2  3  1  0
  3  4  2  0
  4  5  1  0
  5  6  2  0
  6  7  1  0
  7  8  2  0
  8  9  1  0
  9 10  2  0
  8 11  1  0
 11 12  1  0
 12 13  1  0
 13 14  2  0
 14 15  1  0
 15 16  2  0
 16 17  1  0
 17 18  2  0
 11 19  1  0
 19 20  2  0
 19 21  1  0
 21 22  2  0
 22 23  1  0
 23 24  2  0
 24 25  1  0
  6 26  1  0
 26 27  2  0
 26 28  1  0
 28 29  1  0
 29 30  1  0
 30 31  2  0
 31 32  1  0
 32 33  2  0
 33 34  1  0
 34 35  2  0
 33 36  1  0
 36 37  2  0
 37 38  1  0
 38 39  2  0
 39 40  1  0
 40 41  2  0
 41 42  1  0
 42 43  2  0
 43 44  1  0
 44 45  1  0
 45 46  2  0
 28  3  1  0
 10  5  1  0
 18 13  1  0
 25 21  1  0
 35 30  1  0
 41 36  1  0
 46 42  1  0
M  END
$$$$
