
     RDKit          3D

 46 52  0  0  0  0  0  0  0  0999 V2000
   -4.1757    0.4951    8.5809 C   0  0  0  0  0  0  0  0  0  0  0  0
   -2.8020    0.6572    7.8881 C   0  0  0  0  0  0  0  0  0  0  0  0
   -1.7793   -0.0287    8.6786 C   0  0  0  0  0  0  0  0  0  0  0  0
   -2.1797   -0.6456    9.8334 N   0  0  0  0  0  0  0  0  0  0  0  0
   -1.3375   -1.3283   10.6242 C   0  0  0  0  0  0  0  0  0  0  0  0
   -0.0063   -1.4266   10.2785 C   0  0  0  0  0  0  0  0  0  0  0  0
    0.9005   -2.1238   11.0727 C   0  0  0  0  0  0  0  0  0  0  0  0
    0.4854   -2.7391   12.2369 C   0  0  0  0  0  0  0  0  0  0  0  0
   -0.8491   -2.6352   12.5752 C   0  0  0  0  0  0  0  0  0  0  0  0
   -1.7521   -1.9435   11.7880 C   0  0  0  0  0  0  0  0  0  0  0  0
    1.3355   -3.4661   13.0994 N   0  0  0  0  0  0  0  0  0  0  0  0
    1.2099   -4.9030   13.1357 C   0  0  0  0  0  0  0  0  0  0  0  0
    1.9181   -5.5460   11.9694 C   0  0  0  0  0  0  0  0  0  0  0  0
    1.7149   -6.8684   11.6667 C   0  0  0  0  0  0  0  0  0  0  0  0
    2.3596   -7.4459   10.6044 C   0  0  0  0  0  0  0  0  0  0  0  0
    3.2346   -6.7498    9.7897 C   0  0  0  0  0  0  0  0  0  0  0  0
    3.4224   -5.4222   10.1139 C   0  0  0  0  0  0  0  0  0  0  0  0
    2.7826   -4.8241   11.1785 C   0  0  0  0  0  0  0  0  0  0  0  0
    2.2707   -2.7854   13.9055 C   0  0  0  0  0  0  0  0  0  0  0  0
    2.9572   -3.4398   14.7431 O   0  0  0  0  0  0  0  0  0  0  0  0
    2.5143   -1.3645   13.8515 C   0  0  0  0  0  0  0  0  0  0  0  0
    2.2014   -0.4304   12.9105 C   0  0  0  0  0  0  0  0  0  0  0  0
    2.5475    0.8472   13.0980 C   0  0  0  0  0  0  0  0  0  0  0  0
    3.2262    1.1951   14.2628 C   0  0  0  0  0  0  0  0  0  0  0  0
    3.3448   -0.4345   15.0910 S   0  0  0  0  0  0  0  0  0  0  0  0
    0.3922   -0.8066    9.1181 C   0  0  0  0  0  0  0  0  0  0  0  0
    1.5908   -0.8996    8.8049 O   0  0  0  0  0  0  0  0  0  0  0  0
   -0.4900   -0.1105    8.3228 N   0  0  0  0  0  0  0  0  0  0  0  0
   -0.0237    0.5050    7.1292 C   0  0  0  0  0  0  0  0  0  0  0  0
    0.0924    1.9856    7.1846 C   0  0  0  0  0  0  0  0  0  0  0  0
    0.4989    2.7023    6.0573 C   0  0  0  0  0  0  0  0  0  0  0  0
    0.6239    4.0569    6.0257 C   0  0  0  0  0  0  0  0  0  0  0  0
    0.3454    4.8023    7.1432 C   0  0  0  0  0  0  0  0  0  0  0  0
   -0.0582    4.1304    8.2763 C   0  0  0  0  0  0  0  0  0  0  0  0
   -0.1850    2.7372    8.3026 C   0  0  0  0  0  0  0  0  0  0  0  0
    0.4483    6.2515    7.1779 C   0  0  0  0  0  0  0  0  0  0  0  0
   -0.0330    7.0455    6.1383 C   0  0  0  0  0  0  0  0  0  0  0  0
    0.0781    8.4179    6.2133 C   0  0  0  0  0  0  0  0  0  0  0  0
    0.6603    9.0220    7.3046 C   0  0  0  0  0  0  0  0  0  0  0  0
    1.1348    8.2190    8.3315 C   0  0  0  0  0  0  0  0  0  0  0  0
    1.0292    6.8464    8.2670 C   0  0  0  0  0  0  0  0  0  0  0  0
    1.5292    6.0025    9.3384 C   0  0  0  0  0  0  0  0  0  0  0  0
    2.6705    5.3031    9.2381 N   0  0  0  0  0  0  0  0  0  0  0  0
    2.8584    4.6355   10.3549 N   0  0  0  0  0  0  0  0  0  0  0  0
    1.8394    4.9185   11.1449 N   0  0  0  0  0  0  0  0  0  0  0  0
    1.0135    5.7536   10.5428 N   0  0  0  0  0  0  0  0  0  0  0  0
  1  2  1  0
  2  3  1  0
  3  4  2  0
  4  5  1  0
  5  6  2  0
  6  7  1  0
  7  8  2  0
  8  9  1  0
  9 10  2  0
  8 11  1  0
 11 12  1  0
 12 13  1  0
 13 14  2  0
 14 15  1  0
 15 16  2  0
 16 17  1  0
 17 18  2  0
 11 19  1  0
 19 20  2  0
 19 21  1  0
 21 22  2  0
 22 23  1  0
 23 24  2  0
 24 25  1  0
  6 26  1  0
 26 27  2  0
 26 28  1  0
 28 29  1  0
 29 30  1  0
 30 31  2  0
 31 32  1  0
 32 33  2  0
 33 34  1  0
 34 35  2  0
 33 36  1  0
 36 37  2  0
 37 38  1  0
 38 39  2  0
 39 40  1  0
 40 41  2  0
 41 42  1  0
 42 43  2  0
 43 44  1  0
 44 45  1  0
 45 46  2  0
 28  3  1  0
 10  5  1  0
 18 13  1  0
 25 21  1  0
 35 30  1  0
 41 36  1  0
 46 42  1  0
M  END
$$$$
