
     RDKit          3D

 46 52  0  0  0  0  0  0  0  0999 V2000
    5.1777   -0.9978   10.5462 C   0  0  0  0  0  0  0  0  0  0  0  0
    3.7259   -1.2638   11.0096 C   0  0  0  0  0  0  0  0  0  0  0  0
    2.8338   -1.2191    9.8505 C   0  0  0  0  0  0  0  0  0  0  0  0
    3.3360   -1.6399    8.6485 N   0  0  0  0  0  0  0  0  0  0  0  0
    2.6043   -1.6704    7.5240 C   0  0  0  0  0  0  0  0  0  0  0  0
    1.2867   -1.2654    7.5567 C   0  0  0  0  0  0  0  0  0  0  0  0
    0.4941   -1.2797    6.4119 C   0  0  0  0  0  0  0  0  0  0  0  0
    1.0127   -1.7032    5.2045 C   0  0  0  0  0  0  0  0  0  0  0  0
    2.3329   -2.1067    5.1811 C   0  0  0  0  0  0  0  0  0  0  0  0
    3.1225   -2.0938    6.3169 C   0  0  0  0  0  0  0  0  0  0  0  0
    0.2813   -1.7509    3.9971 N   0  0  0  0  0  0  0  0  0  0  0  0
    0.3109   -2.9691    3.2246 C   0  0  0  0  0  0  0  0  0  0  0  0
   -0.3170   -4.1140    3.9798 C   0  0  0  0  0  0  0  0  0  0  0  0
   -1.5187   -3.9564    4.6222 C   0  0  0  0  0  0  0  0  0  0  0  0
   -2.0850   -5.0011    5.3046 C   0  0  0  0  0  0  0  0  0  0  0  0
   -1.4957   -6.2501    5.3873 C   0  0  0  0  0  0  0  0  0  0  0  0
   -0.2885   -6.3838    4.7334 C   0  0  0  0  0  0  0  0  0  0  0  0
    0.2963   -5.3445    4.0420 C   0  0  0  0  0  0  0  0  0  0  0  0
   -0.4458   -0.6215    3.5685 C   0  0  0  0  0  0  0  0  0  0  0  0
   -1.1797   -0.7118    2.5418 O   0  0  0  0  0  0  0  0  0  0  0  0
   -0.4191    0.6637    4.2233 C   0  0  0  0  0  0  0  0  0  0  0  0
    0.6134    1.4947    4.5384 C   0  0  0  0  0  0  0  0  0  0  0  0
    0.3715    2.6529    5.1607 C   0  0  0  0  0  0  0  0  0  0  0  0
   -0.9438    2.9846    5.4745 C   0  0  0  0  0  0  0  0  0  0  0  0
   -1.8324    1.5230    4.8190 S   0  0  0  0  0  0  0  0  0  0  0  0
    0.7855   -0.8440    8.7654 C   0  0  0  0  0  0  0  0  0  0  0  0
   -0.4030   -0.4837    8.7951 O   0  0  0  0  0  0  0  0  0  0  0  0
    1.5558   -0.8203    9.9063 N   0  0  0  0  0  0  0  0  0  0  0  0
    0.9826   -0.3818   11.1311 C   0  0  0  0  0  0  0  0  0  0  0  0
    1.1853    1.0566   11.4451 C   0  0  0  0  0  0  0  0  0  0  0  0
    1.9837    1.8514   10.6201 C   0  0  0  0  0  0  0  0  0  0  0  0
    2.2132    3.1751   10.8358 C   0  0  0  0  0  0  0  0  0  0  0  0
    1.6483    3.8071   11.9144 C   0  0  0  0  0  0  0  0  0  0  0  0
    0.8541    3.0554   12.7527 C   0  0  0  0  0  0  0  0  0  0  0  0
    0.6217    1.6945   12.5255 C   0  0  0  0  0  0  0  0  0  0  0  0
    1.8429    5.2187   12.2002 C   0  0  0  0  0  0  0  0  0  0  0  0
    1.4821    6.2078   11.2868 C   0  0  0  0  0  0  0  0  0  0  0  0
    1.6773    7.5365   11.5996 C   0  0  0  0  0  0  0  0  0  0  0  0
    2.2260    7.9061   12.8066 C   0  0  0  0  0  0  0  0  0  0  0  0
    2.5803    6.9107   13.7057 C   0  0  0  0  0  0  0  0  0  0  0  0
    2.3900    5.5795   13.4035 C   0  0  0  0  0  0  0  0  0  0  0  0
    2.7641    4.5346   14.3407 C   0  0  0  0  0  0  0  0  0  0  0  0
    3.7109    3.6226   14.0699 N   0  0  0  0  0  0  0  0  0  0  0  0
    3.8240    2.8106   15.0975 N   0  0  0  0  0  0  0  0  0  0  0  0
    2.9521    3.2159   16.0021 N   0  0  0  0  0  0  0  0  0  0  0  0
    2.2924    4.2701   15.5597 N   0  0  0  0  0  0  0  0  0  0  0  0
  1  2  1  0
  2  3  1  0
  3  4  2  0
  4  5  1  0
  5  6  2  0
  6  7  1  0
  7  8  2  0
  8  9  1  0
  9 10  2  0
  8 11  1  0
 11 12  1  0
 12 13  1  0
 13 14  2  0
 14 15  1  0
 15 16  2  0
 16 17  1  0
 17 18  2  0
 11 19  1  0
 19 20  2  0
 19 21  1  0
 21 22  2  0
 22 23  1  0
 23 24  2  0
 24 25  1  0
  6 26  1  0
 26 27  2  0
 26 28  1  0
 28 29  1  0
 29 30  1  0
 30 31  2  0
 31 32  1  0
 32 33  2  0
 33 34  1  0
 34 35  2  0
 33 36  1  0
 36 37  2  0
 37 38  1  0
 38 39  2  0
 39 40  1  0
 40 41  2  0
 41 42  1  0
 42 43  2  0
 43 44  1  0
 44 45  1  0
 45 46  2  0
 28  3  1  0
 10  5  1  0
 18 13  1  0
 25 21  1  0
 35 30  1  0
 41 36  1  0
 46 42  1  0
M  END
$$$$
