
     RDKit          3D

 46 52  0  0  0  0  0  0  0  0999 V2000
    0.5645   -2.9758    4.6788 C   0  0  0  0  0  0  0  0  0  0  0  0
    1.3085   -1.6858    5.0981 C   0  0  0  0  0  0  0  0  0  0  0  0
    1.3599   -1.6120    6.5587 C   0  0  0  0  0  0  0  0  0  0  0  0
    2.2569   -2.4214    7.2024 N   0  0  0  0  0  0  0  0  0  0  0  0
    2.4131   -2.4203    8.5352 C   0  0  0  0  0  0  0  0  0  0  0  0
    1.6481   -1.5749    9.3106 C   0  0  0  0  0  0  0  0  0  0  0  0
    1.7779   -1.5445   10.6967 C   0  0  0  0  0  0  0  0  0  0  0  0
    2.6839   -2.3681   11.3349 C   0  0  0  0  0  0  0  0  0  0  0  0
    3.4454   -3.2113   10.5506 C   0  0  0  0  0  0  0  0  0  0  0  0
    3.3187   -3.2434    9.1734 C   0  0  0  0  0  0  0  0  0  0  0  0
    2.8811   -2.4016   12.7331 N   0  0  0  0  0  0  0  0  0  0  0  0
    4.2176   -2.2108   13.2423 C   0  0  0  0  0  0  0  0  0  0  0  0
    4.6969   -0.7993   13.0121 C   0  0  0  0  0  0  0  0  0  0  0  0
    5.9886   -0.4401   13.3023 C   0  0  0  0  0  0  0  0  0  0  0  0
    6.4184    0.8434   13.0886 C   0  0  0  0  0  0  0  0  0  0  0  0
    5.5979    1.8341   12.5794 C   0  0  0  0  0  0  0  0  0  0  0  0
    4.3042    1.4487   12.2954 C   0  0  0  0  0  0  0  0  0  0  0  0
    3.8539    0.1625   12.5036 C   0  0  0  0  0  0  0  0  0  0  0  0
    1.7876   -2.6277   13.5939 C   0  0  0  0  0  0  0  0  0  0  0  0
    1.9034   -2.3578   14.8246 O   0  0  0  0  0  0  0  0  0  0  0  0
    0.5131   -3.1571   13.1734 C   0  0  0  0  0  0  0  0  0  0  0  0
    0.1130   -3.7206   11.9995 C   0  0  0  0  0  0  0  0  0  0  0  0
   -1.1492   -4.1372   11.8556 C   0  0  0  0  0  0  0  0  0  0  0  0
   -2.0327   -3.9833   12.9206 C   0  0  0  0  0  0  0  0  0  0  0  0
   -0.9400   -3.1958   14.1622 S   0  0  0  0  0  0  0  0  0  0  0  0
    0.7489   -0.7630    8.6610 C   0  0  0  0  0  0  0  0  0  0  0  0
    0.0633    0.0017    9.3599 O   0  0  0  0  0  0  0  0  0  0  0  0
    0.6052   -0.7824    7.2919 N   0  0  0  0  0  0  0  0  0  0  0  0
   -0.3358    0.0849    6.6727 C   0  0  0  0  0  0  0  0  0  0  0  0
   -0.1815    1.5255    7.0038 C   0  0  0  0  0  0  0  0  0  0  0  0
    1.0910    2.0875    7.1251 C   0  0  0  0  0  0  0  0  0  0  0  0
    1.3156    3.3968    7.4195 C   0  0  0  0  0  0  0  0  0  0  0  0
    0.2605    4.2509    7.6173 C   0  0  0  0  0  0  0  0  0  0  0  0
   -1.0115    3.7330    7.5068 C   0  0  0  0  0  0  0  0  0  0  0  0
   -1.2361    2.3856    7.2037 C   0  0  0  0  0  0  0  0  0  0  0  0
    0.4266    5.6615    7.9252 C   0  0  0  0  0  0  0  0  0  0  0  0
    0.6950    6.6018    6.9319 C   0  0  0  0  0  0  0  0  0  0  0  0
    0.8391    7.9320    7.2654 C   0  0  0  0  0  0  0  0  0  0  0  0
    0.7217    8.3508    8.5713 C   0  0  0  0  0  0  0  0  0  0  0  0
    0.4545    7.4037    9.5491 C   0  0  0  0  0  0  0  0  0  0  0  0
    0.3088    6.0715    9.2273 C   0  0  0  0  0  0  0  0  0  0  0  0
    0.0336    5.0766   10.2494 C   0  0  0  0  0  0  0  0  0  0  0  0
    0.9187    4.1289   10.5958 N   0  0  0  0  0  0  0  0  0  0  0  0
    0.3896    3.3778   11.5361 N   0  0  0  0  0  0  0  0  0  0  0  0
   -0.8178    3.8561   11.7726 N   0  0  0  0  0  0  0  0  0  0  0  0
   -1.0566    4.8964   10.9960 N   0  0  0  0  0  0  0  0  0  0  0  0
  1  2  1  0
  2  3  1  0
  3  4  2  0
  4  5  1  0
  5  6  2  0
  6  7  1  0
  7  8  2  0
  8  9  1  0
  9 10  2  0
  8 11  1  0
 11 12  1  0
 12 13  1  0
 13 14  2  0
 14 15  1  0
 15 16  2  0
 16 17  1  0
 17 18  2  0
 11 19  1  0
 19 20  2  0
 19 21  1  0
 21 22  2  0
 22 23  1  0
 23 24  2  0
 24 25  1  0
  6 26  1  0
 26 27  2  0
 26 28  1  0
 28 29  1  0
 29 30  1  0
 30 31  2  0
 31 32  1  0
 32 33  2  0
 33 34  1  0
 34 35  2  0
 33 36  1  0
 36 37  2  0
 37 38  1  0
 38 39  2  0
 39 40  1  0
 40 41  2  0
 41 42  1  0
 42 43  2  0
 43 44  1  0
 44 45  1  0
 45 46  2  0
 28  3  1  0
 10  5  1  0
 18 13  1  0
 25 21  1  0
 35 30  1  0
 41 36  1  0
 46 42  1  0
M  END
$$$$
