
     RDKit          3D

 46 52  0  0  0  0  0  0  0  0999 V2000
    1.6273   -2.7460    4.9443 C   0  0  0  0  0  0  0  0  0  0  0  0
    1.4531   -1.3091    5.4905 C   0  0  0  0  0  0  0  0  0  0  0  0
    1.6677   -1.3142    6.9380 C   0  0  0  0  0  0  0  0  0  0  0  0
    1.4699   -2.4942    7.6033 N   0  0  0  0  0  0  0  0  0  0  0  0
    1.6629   -2.6266    8.9247 C   0  0  0  0  0  0  0  0  0  0  0  0
    2.0791   -1.5404    9.6651 C   0  0  0  0  0  0  0  0  0  0  0  0
    2.2887   -1.6351   11.0385 C   0  0  0  0  0  0  0  0  0  0  0  0
    2.0827   -2.8300   11.6990 C   0  0  0  0  0  0  0  0  0  0  0  0
    1.6660   -3.9121   10.9496 C   0  0  0  0  0  0  0  0  0  0  0  0
    1.4572   -3.8208    9.5852 C   0  0  0  0  0  0  0  0  0  0  0  0
    2.2718   -3.0151   13.0864 N   0  0  0  0  0  0  0  0  0  0  0  0
    3.1956   -4.0337   13.5232 C   0  0  0  0  0  0  0  0  0  0  0  0
    4.6241   -3.5603   13.4205 C   0  0  0  0  0  0  0  0  0  0  0  0
    5.6619   -4.3708   13.8050 C   0  0  0  0  0  0  0  0  0  0  0  0
    6.9575   -3.9356   13.7070 C   0  0  0  0  0  0  0  0  0  0  0  0
    7.2934   -2.6826   13.2261 C   0  0  0  0  0  0  0  0  0  0  0  0
    6.2331   -1.8864   12.8457 C   0  0  0  0  0  0  0  0  0  0  0  0
    4.9235   -2.3070   12.9370 C   0  0  0  0  0  0  0  0  0  0  0  0
    1.5580   -2.2209   14.0071 C   0  0  0  0  0  0  0  0  0  0  0  0
    1.7963   -2.3427   15.2437 O   0  0  0  0  0  0  0  0  0  0  0  0
    0.5499   -1.2551   13.6431 C   0  0  0  0  0  0  0  0  0  0  0  0
    0.1184   -0.8154   12.4281 C   0  0  0  0  0  0  0  0  0  0  0  0
   -0.8466    0.1070   12.3568 C   0  0  0  0  0  0  0  0  0  0  0  0
   -1.3925    0.6006   13.5386 C   0  0  0  0  0  0  0  0  0  0  0  0
   -0.4329   -0.3439   14.7809 S   0  0  0  0  0  0  0  0  0  0  0  0
    2.2772   -0.3572    8.9938 C   0  0  0  0  0  0  0  0  0  0  0  0
    2.6566    0.6198    9.6608 O   0  0  0  0  0  0  0  0  0  0  0  0
    2.0717   -0.2448    7.6372 N   0  0  0  0  0  0  0  0  0  0  0  0
    2.2996    1.0022    6.9937 C   0  0  0  0  0  0  0  0  0  0  0  0
    1.2797    2.0490    7.2636 C   0  0  0  0  0  0  0  0  0  0  0  0
   -0.0734    1.7117    7.3339 C   0  0  0  0  0  0  0  0  0  0  0  0
   -1.0656    2.6091    7.5822 C   0  0  0  0  0  0  0  0  0  0  0  0
   -0.7655    3.9329    7.7807 C   0  0  0  0  0  0  0  0  0  0  0  0
    0.5597    4.3049    7.7182 C   0  0  0  0  0  0  0  0  0  0  0  0
    1.5756    3.3774    7.4626 C   0  0  0  0  0  0  0  0  0  0  0  0
   -1.7724    4.9431    8.0593 C   0  0  0  0  0  0  0  0  0  0  0  0
   -3.0821    4.6004    8.3910 C   0  0  0  0  0  0  0  0  0  0  0  0
   -4.0058    5.5897    8.6548 C   0  0  0  0  0  0  0  0  0  0  0  0
   -3.6548    6.9193    8.5959 C   0  0  0  0  0  0  0  0  0  0  0  0
   -2.3477    7.2453    8.2644 C   0  0  0  0  0  0  0  0  0  0  0  0
   -1.4163    6.2649    7.9986 C   0  0  0  0  0  0  0  0  0  0  0  0
   -0.0481    6.6029    7.6467 C   0  0  0  0  0  0  0  0  0  0  0  0
    0.4090    6.5559    6.3855 N   0  0  0  0  0  0  0  0  0  0  0  0
    1.6755    6.9084    6.3800 N   0  0  0  0  0  0  0  0  0  0  0  0
    2.0036    7.1729    7.6310 N   0  0  0  0  0  0  0  0  0  0  0  0
    0.9635    6.9925    8.4234 N   0  0  0  0  0  0  0  0  0  0  0  0
  1  2  1  0
  2  3  1  0
  3  4  2  0
  4  5  1  0
  5  6  2  0
  6  7  1  0
  7  8  2  0
  8  9  1  0
  9 10  2  0
  8 11  1  0
 11 12  1  0
 12 13  1  0
 13 14  2  0
 14 15  1  0
 15 16  2  0
 16 17  1  0
 17 18  2  0
 11 19  1  0
 19 20  2  0
 19 21  1  0
 21 22  2  0
 22 23  1  0
 23 24  2  0
 24 25  1  0
  6 26  1  0
 26 27  2  0
 26 28  1  0
 28 29  1  0
 29 30  1  0
 30 31  2  0
 31 32  1  0
 32 33  2  0
 33 34  1  0
 34 35  2  0
 33 36  1  0
 36 37  2  0
 37 38  1  0
 38 39  2  0
 39 40  1  0
 40 41  2  0
 41 42  1  0
 42 43  2  0
 43 44  1  0
 44 45  1  0
 45 46  2  0
 28  3  1  0
 10  5  1  0
 18 13  1  0
 25 21  1  0
 35 30  1  0
 41 36  1  0
 46 42  1  0
M  END
$$$$
