
     RDKit          3D

 46 52  0  0  0  0  0  0  0  0999 V2000
    0.6740   -1.5620    4.9885 C   0  0  0  0  0  0  0  0  0  0  0  0
    2.1563   -1.8414    5.3323 C   0  0  0  0  0  0  0  0  0  0  0  0
    2.3228   -1.8391    6.7861 C   0  0  0  0  0  0  0  0  0  0  0  0
    2.1252   -3.0211    7.4479 N   0  0  0  0  0  0  0  0  0  0  0  0
    2.2767   -3.1467    8.7753 C   0  0  0  0  0  0  0  0  0  0  0  0
    2.6477   -2.0512    9.5259 C   0  0  0  0  0  0  0  0  0  0  0  0
    2.8133   -2.1389   10.9058 C   0  0  0  0  0  0  0  0  0  0  0  0
    2.6080   -3.3358   11.5626 C   0  0  0  0  0  0  0  0  0  0  0  0
    2.2367   -4.4273   10.8030 C   0  0  0  0  0  0  0  0  0  0  0  0
    2.0716   -4.3431    9.4322 C   0  0  0  0  0  0  0  0  0  0  0  0
    2.7543   -3.5141   12.9561 N   0  0  0  0  0  0  0  0  0  0  0  0
    4.0771   -3.7484   13.4827 C   0  0  0  0  0  0  0  0  0  0  0  0
    4.9311   -2.5081   13.3945 C   0  0  0  0  0  0  0  0  0  0  0  0
    6.0068   -2.4551   12.5450 C   0  0  0  0  0  0  0  0  0  0  0  0
    6.7772   -1.3245   12.4680 C   0  0  0  0  0  0  0  0  0  0  0  0
    6.5258   -0.1928   13.2230 C   0  0  0  0  0  0  0  0  0  0  0  0
    5.4392   -0.2703   14.0691 C   0  0  0  0  0  0  0  0  0  0  0  0
    4.6527   -1.3989   14.1601 C   0  0  0  0  0  0  0  0  0  0  0  0
    1.6219   -3.4713   13.7949 C   0  0  0  0  0  0  0  0  0  0  0  0
    1.7695   -3.6300   15.0415 O   0  0  0  0  0  0  0  0  0  0  0  0
    0.2719   -3.2561   13.3340 C   0  0  0  0  0  0  0  0  0  0  0  0
   -0.2409   -2.3901   12.4158 C   0  0  0  0  0  0  0  0  0  0  0  0
   -1.5541   -2.3843   12.1650 C   0  0  0  0  0  0  0  0  0  0  0  0
   -2.3736   -3.2729   12.8558 C   0  0  0  0  0  0  0  0  0  0  0  0
   -1.1413   -4.1335   13.9030 S   0  0  0  0  0  0  0  0  0  0  0  0
    2.8458   -0.8661    8.8582 C   0  0  0  0  0  0  0  0  0  0  0  0
    3.1845    0.1194    9.5345 O   0  0  0  0  0  0  0  0  0  0  0  0
    2.6833   -0.7607    7.4951 N   0  0  0  0  0  0  0  0  0  0  0  0
    2.9091    0.4889    6.8559 C   0  0  0  0  0  0  0  0  0  0  0  0
    1.7763    1.4485    6.9249 C   0  0  0  0  0  0  0  0  0  0  0  0
    0.6058    1.1078    7.6059 C   0  0  0  0  0  0  0  0  0  0  0  0
   -0.4714    1.9314    7.7191 C   0  0  0  0  0  0  0  0  0  0  0  0
   -0.4508    3.1778    7.1463 C   0  0  0  0  0  0  0  0  0  0  0  0
    0.6872    3.5501    6.4647 C   0  0  0  0  0  0  0  0  0  0  0  0
    1.7919    2.6987    6.3518 C   0  0  0  0  0  0  0  0  0  0  0  0
   -1.5606    4.1119    7.2354 C   0  0  0  0  0  0  0  0  0  0  0  0
   -2.8060    3.8255    6.6788 C   0  0  0  0  0  0  0  0  0  0  0  0
   -3.8351    4.7363    6.7913 C   0  0  0  0  0  0  0  0  0  0  0  0
   -3.6530    5.9321    7.4482 C   0  0  0  0  0  0  0  0  0  0  0  0
   -2.4081    6.2034    7.9970 C   0  0  0  0  0  0  0  0  0  0  0  0
   -1.3723    5.3006    7.8905 C   0  0  0  0  0  0  0  0  0  0  0  0
   -0.0663    5.5836    8.4600 C   0  0  0  0  0  0  0  0  0  0  0  0
    0.4572    4.8653    9.4658 N   0  0  0  0  0  0  0  0  0  0  0  0
    1.6384    5.3569    9.7681 N   0  0  0  0  0  0  0  0  0  0  0  0
    1.8477    6.3751    8.9544 N   0  0  0  0  0  0  0  0  0  0  0  0
    0.8169    6.5318    8.1450 N   0  0  0  0  0  0  0  0  0  0  0  0
  1  2  1  0
  2  3  1  0
  3  4  2  0
  4  5  1  0
  5  6  2  0
  6  7  1  0
  7  8  2  0
  8  9  1  0
  9 10  2  0
  8 11  1  0
 11 12  1  0
 12 13  1  0
 13 14  2  0
 14 15  1  0
 15 16  2  0
 16 17  1  0
 17 18  2  0
 11 19  1  0
 19 20  2  0
 19 21  1  0
 21 22  2  0
 22 23  1  0
 23 24  2  0
 24 25  1  0
  6 26  1  0
 26 27  2  0
 26 28  1  0
 28 29  1  0
 29 30  1  0
 30 31  2  0
 31 32  1  0
 32 33  2  0
 33 34  1  0
 34 35  2  0
 33 36  1  0
 36 37  2  0
 37 38  1  0
 38 39  2  0
 39 40  1  0
 40 41  2  0
 41 42  1  0
 42 43  2  0
 43 44  1  0
 44 45  1  0
 45 46  2  0
 28  3  1  0
 10  5  1  0
 18 13  1  0
 25 21  1  0
 35 30  1  0
 41 36  1  0
 46 42  1  0
M  END
$$$$
