
     RDKit          3D

 46 52  0  0  0  0  0  0  0  0999 V2000
    2.4484   -2.6131    4.3458 C   0  0  0  0  0  0  0  0  0  0  0  0
    1.8000   -1.3324    4.9225 C   0  0  0  0  0  0  0  0  0  0  0  0
    1.7644   -1.4255    6.3825 C   0  0  0  0  0  0  0  0  0  0  0  0
    2.6952   -2.2255    6.9888 N   0  0  0  0  0  0  0  0  0  0  0  0
    2.7775   -2.3667    8.3208 C   0  0  0  0  0  0  0  0  0  0  0  0
    1.8969   -1.6854    9.1342 C   0  0  0  0  0  0  0  0  0  0  0  0
    1.9472   -1.8062   10.5206 C   0  0  0  0  0  0  0  0  0  0  0  0
    2.8885   -2.6188   11.1205 C   0  0  0  0  0  0  0  0  0  0  0  0
    3.7660   -3.2971   10.2982 C   0  0  0  0  0  0  0  0  0  0  0  0
    3.7184   -3.1788    8.9208 C   0  0  0  0  0  0  0  0  0  0  0  0
    3.0111   -2.7984   12.5161 N   0  0  0  0  0  0  0  0  0  0  0  0
    2.4643   -3.9971   13.1043 C   0  0  0  0  0  0  0  0  0  0  0  0
    0.9587   -3.9378   13.1730 C   0  0  0  0  0  0  0  0  0  0  0  0
    0.1903   -4.9190   12.5997 C   0  0  0  0  0  0  0  0  0  0  0  0
   -1.1770   -4.8605   12.6677 C   0  0  0  0  0  0  0  0  0  0  0  0
   -1.8530   -3.8340   13.3027 C   0  0  0  0  0  0  0  0  0  0  0  0
   -1.0590   -2.8598   13.8713 C   0  0  0  0  0  0  0  0  0  0  0  0
    0.3176   -2.9018   13.8132 C   0  0  0  0  0  0  0  0  0  0  0  0
    3.6466   -1.8140   13.3003 C   0  0  0  0  0  0  0  0  0  0  0  0
    3.6889   -1.9566   14.5568 O   0  0  0  0  0  0  0  0  0  0  0  0
    4.2686   -0.6245   12.7714 C   0  0  0  0  0  0  0  0  0  0  0  0
    4.3040   -0.1090   11.5109 C   0  0  0  0  0  0  0  0  0  0  0  0
    4.9643    1.0291   11.2740 C   0  0  0  0  0  0  0  0  0  0  0  0
    5.6061    1.6660   12.3328 C   0  0  0  0  0  0  0  0  0  0  0  0
    5.2064    0.5277   13.7114 S   0  0  0  0  0  0  0  0  0  0  0  0
    0.9639   -0.8825    8.5222 C   0  0  0  0  0  0  0  0  0  0  0  0
    0.1739   -0.2655    9.2559 O   0  0  0  0  0  0  0  0  0  0  0  0
    0.8978   -0.7541    7.1530 N   0  0  0  0  0  0  0  0  0  0  0  0
   -0.0834    0.0966    6.5745 C   0  0  0  0  0  0  0  0  0  0  0  0
    0.1472    1.5519    6.7690 C   0  0  0  0  0  0  0  0  0  0  0  0
    0.6739    2.3256    5.7328 C   0  0  0  0  0  0  0  0  0  0  0  0
    0.9084    3.6625    5.8298 C   0  0  0  0  0  0  0  0  0  0  0  0
    0.6265    4.3302    6.9945 C   0  0  0  0  0  0  0  0  0  0  0  0
    0.1060    3.6002    8.0407 C   0  0  0  0  0  0  0  0  0  0  0  0
   -0.1330    2.2256    7.9349 C   0  0  0  0  0  0  0  0  0  0  0  0
    0.8427    5.7572    7.1650 C   0  0  0  0  0  0  0  0  0  0  0  0
    1.6983    6.4736    6.3299 C   0  0  0  0  0  0  0  0  0  0  0  0
    1.8707    7.8283    6.5212 C   0  0  0  0  0  0  0  0  0  0  0  0
    1.2079    8.4904    7.5296 C   0  0  0  0  0  0  0  0  0  0  0  0
    0.3597    7.7643    8.3530 C   0  0  0  0  0  0  0  0  0  0  0  0
    0.1800    6.4100    8.1711 C   0  0  0  0  0  0  0  0  0  0  0  0
   -0.7039    5.6459    9.0342 C   0  0  0  0  0  0  0  0  0  0  0  0
   -1.9109    5.2142    8.6363 N   0  0  0  0  0  0  0  0  0  0  0  0
   -2.4757    4.5611    9.6276 N   0  0  0  0  0  0  0  0  0  0  0  0
   -1.6243    4.5869   10.6360 N   0  0  0  0  0  0  0  0  0  0  0  0
   -0.5327    5.2458   10.2948 N   0  0  0  0  0  0  0  0  0  0  0  0
  1  2  1  0
  2  3  1  0
  3  4  2  0
  4  5  1  0
  5  6  2  0
  6  7  1  0
  7  8  2  0
  8  9  1  0
  9 10  2  0
  8 11  1  0
 11 12  1  0
 12 13  1  0
 13 14  2  0
 14 15  1  0
 15 16  2  0
 16 17  1  0
 17 18  2  0
 11 19  1  0
 19 20  2  0
 19 21  1  0
 21 22  2  0
 22 23  1  0
 23 24  2  0
 24 25  1  0
  6 26  1  0
 26 27  2  0
 26 28  1  0
 28 29  1  0
 29 30  1  0
 30 31  2  0
 31 32  1  0
 32 33  2  0
 33 34  1  0
 34 35  2  0
 33 36  1  0
 36 37  2  0
 37 38  1  0
 38 39  2  0
 39 40  1  0
 40 41  2  0
 41 42  1  0
 42 43  2  0
 43 44  1  0
 44 45  1  0
 45 46  2  0
 28  3  1  0
 10  5  1  0
 18 13  1  0
 25 21  1  0
 35 30  1  0
 41 36  1  0
 46 42  1  0
M  END
$$$$
