
     RDKit          3D

 46 52  0  0  0  0  0  0  0  0999 V2000
    2.2994   -3.4922    5.0450 C   0  0  0  0  0  0  0  0  0  0  0  0
    2.6746   -2.0250    5.3609 C   0  0  0  0  0  0  0  0  0  0  0  0
    2.4032   -1.7511    6.7726 C   0  0  0  0  0  0  0  0  0  0  0  0
    3.3318   -2.1673    7.6883 N   0  0  0  0  0  0  0  0  0  0  0  0
    3.2047   -1.9476    9.0060 C   0  0  0  0  0  0  0  0  0  0  0  0
    2.0991   -1.2747    9.4814 C   0  0  0  0  0  0  0  0  0  0  0  0
    1.9284   -1.0283   10.8413 C   0  0  0  0  0  0  0  0  0  0  0  0
    2.8704   -1.4560   11.7556 C   0  0  0  0  0  0  0  0  0  0  0  0
    3.9739   -2.1290   11.2706 C   0  0  0  0  0  0  0  0  0  0  0  0
    4.1462   -2.3749    9.9202 C   0  0  0  0  0  0  0  0  0  0  0  0
    2.7777   -1.2484   13.1497 N   0  0  0  0  0  0  0  0  0  0  0  0
    2.2471    0.0072   13.6227 C   0  0  0  0  0  0  0  0  0  0  0  0
    0.7422   -0.0327   13.7163 C   0  0  0  0  0  0  0  0  0  0  0  0
    0.1209   -0.4784   14.8552 C   0  0  0  0  0  0  0  0  0  0  0  0
   -1.2467   -0.5099   14.9347 C   0  0  0  0  0  0  0  0  0  0  0  0
   -2.0677   -0.1045   13.8976 C   0  0  0  0  0  0  0  0  0  0  0  0
   -1.4199    0.3395   12.7635 C   0  0  0  0  0  0  0  0  0  0  0  0
   -0.0455    0.3785   12.6653 C   0  0  0  0  0  0  0  0  0  0  0  0
    3.2081   -2.2518   14.0418 C   0  0  0  0  0  0  0  0  0  0  0  0
    3.2246   -2.0094   15.2835 O   0  0  0  0  0  0  0  0  0  0  0  0
    3.6437   -3.5678   13.6422 C   0  0  0  0  0  0  0  0  0  0  0  0
    3.3794   -4.3063   12.5284 C   0  0  0  0  0  0  0  0  0  0  0  0
    3.9131   -5.5247   12.3937 C   0  0  0  0  0  0  0  0  0  0  0  0
    4.7345   -6.0136   13.4060 C   0  0  0  0  0  0  0  0  0  0  0  0
    4.7019   -4.6101   14.5828 S   0  0  0  0  0  0  0  0  0  0  0  0
    1.1689   -0.8576    8.5592 C   0  0  0  0  0  0  0  0  0  0  0  0
    0.1754   -0.2474    8.9879 O   0  0  0  0  0  0  0  0  0  0  0  0
    1.3201   -1.0955    7.2116 N   0  0  0  0  0  0  0  0  0  0  0  0
    0.3296   -0.6344    6.3021 C   0  0  0  0  0  0  0  0  0  0  0  0
    0.2117    0.8429    6.1908 C   0  0  0  0  0  0  0  0  0  0  0  0
   -1.0114    1.4281    5.8571 C   0  0  0  0  0  0  0  0  0  0  0  0
   -1.2021    2.7704    5.7415 C   0  0  0  0  0  0  0  0  0  0  0  0
   -0.1603    3.6368    5.9557 C   0  0  0  0  0  0  0  0  0  0  0  0
    1.0634    3.0968    6.2864 C   0  0  0  0  0  0  0  0  0  0  0  0
    1.2533    1.7155    6.4039 C   0  0  0  0  0  0  0  0  0  0  0  0
   -0.2944    5.0806    5.8586 C   0  0  0  0  0  0  0  0  0  0  0  0
   -0.5153    5.7156    4.6376 C   0  0  0  0  0  0  0  0  0  0  0  0
   -0.6435    7.0877    4.5896 C   0  0  0  0  0  0  0  0  0  0  0  0
   -0.5567    7.8469    5.7344 C   0  0  0  0  0  0  0  0  0  0  0  0
   -0.3365    7.2012    6.9423 C   0  0  0  0  0  0  0  0  0  0  0  0
   -0.2065    5.8304    7.0021 C   0  0  0  0  0  0  0  0  0  0  0  0
    0.0287    5.1516    8.2646 C   0  0  0  0  0  0  0  0  0  0  0  0
    1.2009    5.2163    8.9153 N   0  0  0  0  0  0  0  0  0  0  0  0
    1.1146    4.5032   10.0164 N   0  0  0  0  0  0  0  0  0  0  0  0
   -0.1046    3.9983   10.0497 N   0  0  0  0  0  0  0  0  0  0  0  0
   -0.7867    4.3824    8.9870 N   0  0  0  0  0  0  0  0  0  0  0  0
  1  2  1  0
  2  3  1  0
  3  4  2  0
  4  5  1  0
  5  6  2  0
  6  7  1  0
  7  8  2  0
  8  9  1  0
  9 10  2  0
  8 11  1  0
 11 12  1  0
 12 13  1  0
 13 14  2  0
 14 15  1  0
 15 16  2  0
 16 17  1  0
 17 18  2  0
 11 19  1  0
 19 20  2  0
 19 21  1  0
 21 22  2  0
 22 23  1  0
 23 24  2  0
 24 25  1  0
  6 26  1  0
 26 27  2  0
 26 28  1  0
 28 29  1  0
 29 30  1  0
 30 31  2  0
 31 32  1  0
 32 33  2  0
 33 34  1  0
 34 35  2  0
 33 36  1  0
 36 37  2  0
 37 38  1  0
 38 39  2  0
 39 40  1  0
 40 41  2  0
 41 42  1  0
 42 43  2  0
 43 44  1  0
 44 45  1  0
 45 46  2  0
 28  3  1  0
 10  5  1  0
 18 13  1  0
 25 21  1  0
 35 30  1  0
 41 36  1  0
 46 42  1  0
M  END
$$$$
