
     RDKit          3D

 46 52  0  0  0  0  0  0  0  0999 V2000
    1.2844   -2.8299    4.4668 C   0  0  0  0  0  0  0  0  0  0  0  0
    0.2835   -1.8724    5.1557 C   0  0  0  0  0  0  0  0  0  0  0  0
    0.6661   -1.7024    6.5579 C   0  0  0  0  0  0  0  0  0  0  0  0
    0.3601   -2.7165    7.4251 N   0  0  0  0  0  0  0  0  0  0  0  0
    0.6856   -2.6850    8.7266 C   0  0  0  0  0  0  0  0  0  0  0  0
    1.3585   -1.5941    9.2348 C   0  0  0  0  0  0  0  0  0  0  0  0
    1.7127   -1.5213   10.5796 C   0  0  0  0  0  0  0  0  0  0  0  0
    1.3957   -2.5491   11.4454 C   0  0  0  0  0  0  0  0  0  0  0  0
    0.7218   -3.6373   10.9277 C   0  0  0  0  0  0  0  0  0  0  0  0
    0.3689   -3.7122    9.5922 C   0  0  0  0  0  0  0  0  0  0  0  0
    1.7167   -2.5584   12.8208 N   0  0  0  0  0  0  0  0  0  0  0  0
    0.8690   -3.3053   13.7182 C   0  0  0  0  0  0  0  0  0  0  0  0
    1.2625   -4.7608   13.7619 C   0  0  0  0  0  0  0  0  0  0  0  0
    2.5403   -5.1331   14.0943 C   0  0  0  0  0  0  0  0  0  0  0  0
    2.8907   -6.4572   14.1344 C   0  0  0  0  0  0  0  0  0  0  0  0
    2.0008   -7.4775   13.8495 C   0  0  0  0  0  0  0  0  0  0  0  0
    0.7227   -7.0782   13.5184 C   0  0  0  0  0  0  0  0  0  0  0  0
    0.3518   -5.7513   13.4729 C   0  0  0  0  0  0  0  0  0  0  0  0
    2.8366   -1.8406   13.2880 C   0  0  0  0  0  0  0  0  0  0  0  0
    3.8469   -1.7135   12.5369 O   0  0  0  0  0  0  0  0  0  0  0  0
    2.9264   -1.2232   14.5888 C   0  0  0  0  0  0  0  0  0  0  0  0
    1.9895   -0.6051   15.3609 C   0  0  0  0  0  0  0  0  0  0  0  0
    2.3322   -0.1024   16.5513 C   0  0  0  0  0  0  0  0  0  0  0  0
    3.6522   -0.2244   16.9769 C   0  0  0  0  0  0  0  0  0  0  0  0
    4.3905   -1.1139   15.5558 S   0  0  0  0  0  0  0  0  0  0  0  0
    1.6647   -0.5779    8.3612 C   0  0  0  0  0  0  0  0  0  0  0  0
    2.2751    0.4026    8.8189 O   0  0  0  0  0  0  0  0  0  0  0  0
    1.3194   -0.6317    7.0296 N   0  0  0  0  0  0  0  0  0  0  0  0
    1.6685    0.4453    6.1699 C   0  0  0  0  0  0  0  0  0  0  0  0
    0.8553    1.6779    6.3379 C   0  0  0  0  0  0  0  0  0  0  0  0
   -0.4128    1.6107    6.9186 C   0  0  0  0  0  0  0  0  0  0  0  0
   -1.2151    2.6925    7.1124 C   0  0  0  0  0  0  0  0  0  0  0  0
   -0.7950    3.9411    6.7299 C   0  0  0  0  0  0  0  0  0  0  0  0
    0.4511    4.0478    6.1520 C   0  0  0  0  0  0  0  0  0  0  0  0
    1.2718    2.9317    5.9555 C   0  0  0  0  0  0  0  0  0  0  0  0
   -1.5951    5.1402    6.9149 C   0  0  0  0  0  0  0  0  0  0  0  0
   -2.8696    5.2630    6.3642 C   0  0  0  0  0  0  0  0  0  0  0  0
   -3.5990    6.4151    6.5690 C   0  0  0  0  0  0  0  0  0  0  0  0
   -3.0869    7.4538    7.3130 C   0  0  0  0  0  0  0  0  0  0  0  0
   -1.8171    7.3175    7.8548 C   0  0  0  0  0  0  0  0  0  0  0  0
   -1.0791    6.1705    7.6564 C   0  0  0  0  0  0  0  0  0  0  0  0
    0.2526    6.0264    8.2184 C   0  0  0  0  0  0  0  0  0  0  0  0
    0.5453    5.1232    9.1672 N   0  0  0  0  0  0  0  0  0  0  0  0
    1.8181    5.2319    9.4780 N   0  0  0  0  0  0  0  0  0  0  0  0
    2.3135    6.1974    8.7263 N   0  0  0  0  0  0  0  0  0  0  0  0
    1.3726    6.6977    7.9476 N   0  0  0  0  0  0  0  0  0  0  0  0
  1  2  1  0
  2  3  1  0
  3  4  2  0
  4  5  1  0
  5  6  2  0
  6  7  1  0
  7  8  2  0
  8  9  1  0
  9 10  2  0
  8 11  1  0
 11 12  1  0
 12 13  1  0
 13 14  2  0
 14 15  1  0
 15 16  2  0
 16 17  1  0
 17 18  2  0
 11 19  1  0
 19 20  2  0
 19 21  1  0
 21 22  2  0
 22 23  1  0
 23 24  2  0
 24 25  1  0
  6 26  1  0
 26 27  2  0
 26 28  1  0
 28 29  1  0
 29 30  1  0
 30 31  2  0
 31 32  1  0
 32 33  2  0
 33 34  1  0
 34 35  2  0
 33 36  1  0
 36 37  2  0
 37 38  1  0
 38 39  2  0
 39 40  1  0
 40 41  2  0
 41 42  1  0
 42 43  2  0
 43 44  1  0
 44 45  1  0
 45 46  2  0
 28  3  1  0
 10  5  1  0
 18 13  1  0
 25 21  1  0
 35 30  1  0
 41 36  1  0
 46 42  1  0
M  END
$$$$
