
     RDKit          3D

 46 52  0  0  0  0  0  0  0  0999 V2000
    1.2731   -2.0790    4.7666 C   0  0  0  0  0  0  0  0  0  0  0  0
    1.1653   -0.6209    5.2721 C   0  0  0  0  0  0  0  0  0  0  0  0
    1.2154   -0.6126    6.7346 C   0  0  0  0  0  0  0  0  0  0  0  0
    2.2239   -1.3151    7.3375 N   0  0  0  0  0  0  0  0  0  0  0  0
    2.3874   -1.3572    8.6688 C   0  0  0  0  0  0  0  0  0  0  0  0
    1.5139   -0.6701    9.4850 C   0  0  0  0  0  0  0  0  0  0  0  0
    1.6474   -0.6898   10.8710 C   0  0  0  0  0  0  0  0  0  0  0  0
    2.6667   -1.4048   11.4677 C   0  0  0  0  0  0  0  0  0  0  0  0
    3.5363   -2.0898   10.6427 C   0  0  0  0  0  0  0  0  0  0  0  0
    3.4063   -2.0717    9.2656 C   0  0  0  0  0  0  0  0  0  0  0  0
    2.8762   -1.4785   12.8626 N   0  0  0  0  0  0  0  0  0  0  0  0
    3.6897   -0.4646   13.4888 C   0  0  0  0  0  0  0  0  0  0  0  0
    5.1235   -0.9145   13.6202 C   0  0  0  0  0  0  0  0  0  0  0  0
    5.6134   -1.9343   12.8446 C   0  0  0  0  0  0  0  0  0  0  0  0
    6.9176   -2.3366   12.9672 C   0  0  0  0  0  0  0  0  0  0  0  0
    7.8012   -1.7548   13.8586 C   0  0  0  0  0  0  0  0  0  0  0  0
    7.2854   -0.7318   14.6269 C   0  0  0  0  0  0  0  0  0  0  0  0
    5.9765   -0.3134   14.5175 C   0  0  0  0  0  0  0  0  0  0  0  0
    2.3044   -2.5308   13.6065 C   0  0  0  0  0  0  0  0  0  0  0  0
    2.5091   -2.5887   14.8538 O   0  0  0  0  0  0  0  0  0  0  0  0
    1.4831   -3.5756   13.0450 C   0  0  0  0  0  0  0  0  0  0  0  0
    1.7962   -4.8157   12.5759 C   0  0  0  0  0  0  0  0  0  0  0  0
    0.8341   -5.6091   12.0940 C   0  0  0  0  0  0  0  0  0  0  0  0
   -0.4779   -5.1433   12.0836 C   0  0  0  0  0  0  0  0  0  0  0  0
   -0.2570   -3.4780   12.8141 S   0  0  0  0  0  0  0  0  0  0  0  0
    0.5028    0.0347    8.8763 C   0  0  0  0  0  0  0  0  0  0  0  0
   -0.2809    0.6574    9.6121 O   0  0  0  0  0  0  0  0  0  0  0  0
    0.3541    0.0625    7.5079 N   0  0  0  0  0  0  0  0  0  0  0  0
   -0.7060    0.8147    6.9322 C   0  0  0  0  0  0  0  0  0  0  0  0
   -0.6393    2.2812    7.1637 C   0  0  0  0  0  0  0  0  0  0  0  0
    0.5876    2.8992    7.4139 C   0  0  0  0  0  0  0  0  0  0  0  0
    0.7327    4.2349    7.6295 C   0  0  0  0  0  0  0  0  0  0  0  0
   -0.3627    5.0605    7.6094 C   0  0  0  0  0  0  0  0  0  0  0  0
   -1.5917    4.4872    7.3664 C   0  0  0  0  0  0  0  0  0  0  0  0
   -1.7346    3.1130    7.1453 C   0  0  0  0  0  0  0  0  0  0  0  0
   -0.2801    6.4958    7.8220 C   0  0  0  0  0  0  0  0  0  0  0  0
   -0.6029    7.0748    9.0482 C   0  0  0  0  0  0  0  0  0  0  0  0
   -0.5047    8.4406    9.2106 C   0  0  0  0  0  0  0  0  0  0  0  0
   -0.0906    9.2482    8.1758 C   0  0  0  0  0  0  0  0  0  0  0  0
    0.2271    8.6579    6.9612 C   0  0  0  0  0  0  0  0  0  0  0  0
    0.1324    7.2940    6.7875 C   0  0  0  0  0  0  0  0  0  0  0  0
    0.4600    6.6732    5.5157 C   0  0  0  0  0  0  0  0  0  0  0  0
   -0.4760    6.2097    4.6727 N   0  0  0  0  0  0  0  0  0  0  0  0
    0.1189    5.7028    3.6156 N   0  0  0  0  0  0  0  0  0  0  0  0
    1.4175    5.8506    3.8008 N   0  0  0  0  0  0  0  0  0  0  0  0
    1.6490    6.4425    4.9576 N   0  0  0  0  0  0  0  0  0  0  0  0
  1  2  1  0
  2  3  1  0
  3  4  2  0
  4  5  1  0
  5  6  2  0
  6  7  1  0
  7  8  2  0
  8  9  1  0
  9 10  2  0
  8 11  1  0
 11 12  1  0
 12 13  1  0
 13 14  2  0
 14 15  1  0
 15 16  2  0
 16 17  1  0
 17 18  2  0
 11 19  1  0
 19 20  2  0
 19 21  1  0
 21 22  2  0
 22 23  1  0
 23 24  2  0
 24 25  1  0
  6 26  1  0
 26 27  2  0
 26 28  1  0
 28 29  1  0
 29 30  1  0
 30 31  2  0
 31 32  1  0
 32 33  2  0
 33 34  1  0
 34 35  2  0
 33 36  1  0
 36 37  2  0
 37 38  1  0
 38 39  2  0
 39 40  1  0
 40 41  2  0
 41 42  1  0
 42 43  2  0
 43 44  1  0
 44 45  1  0
 45 46  2  0
 28  3  1  0
 10  5  1  0
 18 13  1  0
 25 21  1  0
 35 30  1  0
 41 36  1  0
 46 42  1  0
M  END
$$$$
