
     RDKit          3D

 46 52  0  0  0  0  0  0  0  0999 V2000
    1.0542   -2.5640    4.7628 C   0  0  0  0  0  0  0  0  0  0  0  0
    1.7541   -1.3157    5.3505 C   0  0  0  0  0  0  0  0  0  0  0  0
    1.5950   -1.3139    6.8052 C   0  0  0  0  0  0  0  0  0  0  0  0
    2.4340   -2.1125    7.5349 N   0  0  0  0  0  0  0  0  0  0  0  0
    2.4005   -2.1718    8.8751 C   0  0  0  0  0  0  0  0  0  0  0  0
    1.4900   -1.4032    9.5689 C   0  0  0  0  0  0  0  0  0  0  0  0
    1.4212   -1.4373   10.9594 C   0  0  0  0  0  0  0  0  0  0  0  0
    2.2706   -2.2493   11.6843 C   0  0  0  0  0  0  0  0  0  0  0  0
    3.1788   -3.0154   10.9812 C   0  0  0  0  0  0  0  0  0  0  0  0
    3.2495   -2.9833    9.6000 C   0  0  0  0  0  0  0  0  0  0  0  0
    2.2702   -2.3446   13.0935 N   0  0  0  0  0  0  0  0  0  0  0  0
    1.2593   -3.1569   13.7260 C   0  0  0  0  0  0  0  0  0  0  0  0
    1.6215   -4.6204   13.6785 C   0  0  0  0  0  0  0  0  0  0  0  0
    0.6463   -5.5848   13.6529 C   0  0  0  0  0  0  0  0  0  0  0  0
    0.9820   -6.9125   13.6075 C   0  0  0  0  0  0  0  0  0  0  0  0
    2.2929   -7.3542   13.5851 C   0  0  0  0  0  0  0  0  0  0  0  0
    3.2551   -6.3662   13.6114 C   0  0  0  0  0  0  0  0  0  0  0  0
    2.9365   -5.0258   13.6570 C   0  0  0  0  0  0  0  0  0  0  0  0
    3.2360   -1.6470   13.8473 C   0  0  0  0  0  0  0  0  0  0  0  0
    3.2056   -1.7199   15.1102 O   0  0  0  0  0  0  0  0  0  0  0  0
    4.2840   -0.8341   13.2797 C   0  0  0  0  0  0  0  0  0  0  0  0
    5.4891   -1.1649   12.7372 C   0  0  0  0  0  0  0  0  0  0  0  0
    6.2978   -0.2064   12.2741 C   0  0  0  0  0  0  0  0  0  0  0  0
    5.8840    1.1202   12.3586 C   0  0  0  0  0  0  0  0  0  0  0  0
    4.2447    0.9189   13.1510 S   0  0  0  0  0  0  0  0  0  0  0  0
    0.6494   -0.6020    8.8332 C   0  0  0  0  0  0  0  0  0  0  0  0
   -0.1675    0.0936    9.4593 O   0  0  0  0  0  0  0  0  0  0  0  0
    0.7014   -0.5584    7.4582 N   0  0  0  0  0  0  0  0  0  0  0  0
   -0.1876    0.2946    6.7489 C   0  0  0  0  0  0  0  0  0  0  0  0
   -0.0551    1.7426    7.0565 C   0  0  0  0  0  0  0  0  0  0  0  0
   -1.1362    2.6049    6.8631 C   0  0  0  0  0  0  0  0  0  0  0  0
   -1.0968    3.9394    7.1261 C   0  0  0  0  0  0  0  0  0  0  0  0
    0.0510    4.5142    7.6099 C   0  0  0  0  0  0  0  0  0  0  0  0
    1.1402    3.6953    7.8131 C   0  0  0  0  0  0  0  0  0  0  0  0
    1.0936    2.3236    7.5410 C   0  0  0  0  0  0  0  0  0  0  0  0
    0.1610    5.9295    7.9210 C   0  0  0  0  0  0  0  0  0  0  0  0
    0.4140    6.3776    9.2164 C   0  0  0  0  0  0  0  0  0  0  0  0
    0.5177    7.7293    9.4684 C   0  0  0  0  0  0  0  0  0  0  0  0
    0.3748    8.6507    8.4559 C   0  0  0  0  0  0  0  0  0  0  0  0
    0.1232    8.1901    7.1717 C   0  0  0  0  0  0  0  0  0  0  0  0
    0.0173    6.8414    6.9084 C   0  0  0  0  0  0  0  0  0  0  0  0
   -0.2506    6.3560    5.5658 C   0  0  0  0  0  0  0  0  0  0  0  0
   -1.4286    6.5409    4.9495 N   0  0  0  0  0  0  0  0  0  0  0  0
   -1.3741    5.9909    3.7567 N   0  0  0  0  0  0  0  0  0  0  0  0
   -0.1689    5.4670    3.6325 N   0  0  0  0  0  0  0  0  0  0  0  0
    0.5358    5.6789    4.7283 N   0  0  0  0  0  0  0  0  0  0  0  0
  1  2  1  0
  2  3  1  0
  3  4  2  0
  4  5  1  0
  5  6  2  0
  6  7  1  0
  7  8  2  0
  8  9  1  0
  9 10  2  0
  8 11  1  0
 11 12  1  0
 12 13  1  0
 13 14  2  0
 14 15  1  0
 15 16  2  0
 16 17  1  0
 17 18  2  0
 11 19  1  0
 19 20  2  0
 19 21  1  0
 21 22  2  0
 22 23  1  0
 23 24  2  0
 24 25  1  0
  6 26  1  0
 26 27  2  0
 26 28  1  0
 28 29  1  0
 29 30  1  0
 30 31  2  0
 31 32  1  0
 32 33  2  0
 33 34  1  0
 34 35  2  0
 33 36  1  0
 36 37  2  0
 37 38  1  0
 38 39  2  0
 39 40  1  0
 40 41  2  0
 41 42  1  0
 42 43  2  0
 43 44  1  0
 44 45  1  0
 45 46  2  0
 28  3  1  0
 10  5  1  0
 18 13  1  0
 25 21  1  0
 35 30  1  0
 41 36  1  0
 46 42  1  0
M  END
$$$$
