
     RDKit          3D

 46 52  0  0  0  0  0  0  0  0999 V2000
    0.1087   -2.0219    5.1305 C   0  0  0  0  0  0  0  0  0  0  0  0
    1.6112   -1.7258    5.3503 C   0  0  0  0  0  0  0  0  0  0  0  0
    1.8519   -1.4840    6.7733 C   0  0  0  0  0  0  0  0  0  0  0  0
    1.6200   -2.5185    7.6395 N   0  0  0  0  0  0  0  0  0  0  0  0
    1.8318   -2.4232    8.9612 C   0  0  0  0  0  0  0  0  0  0  0  0
    2.3039   -1.2418    9.4925 C   0  0  0  0  0  0  0  0  0  0  0  0
    2.5347   -1.1011   10.8586 C   0  0  0  0  0  0  0  0  0  0  0  0
    2.2940   -2.1506   11.7227 C   0  0  0  0  0  0  0  0  0  0  0  0
    1.8212   -3.3296   11.1818 C   0  0  0  0  0  0  0  0  0  0  0  0
    1.5913   -3.4722    9.8252 C   0  0  0  0  0  0  0  0  0  0  0  0
    2.5010   -2.0954   13.1189 N   0  0  0  0  0  0  0  0  0  0  0  0
    1.3752   -2.3337   13.9893 C   0  0  0  0  0  0  0  0  0  0  0  0
    1.2198   -3.8022   14.2969 C   0  0  0  0  0  0  0  0  0  0  0  0
    0.1360   -4.2613   15.0015 C   0  0  0  0  0  0  0  0  0  0  0  0
   -0.0004   -5.5969   15.2756 C   0  0  0  0  0  0  0  0  0  0  0  0
    0.9228   -6.5439   14.8695 C   0  0  0  0  0  0  0  0  0  0  0  0
    2.0032   -6.0581   14.1628 C   0  0  0  0  0  0  0  0  0  0  0  0
    2.1574   -4.7183   13.8776 C   0  0  0  0  0  0  0  0  0  0  0  0
    3.7817   -1.8026   13.6304 C   0  0  0  0  0  0  0  0  0  0  0  0
    3.9529   -1.7632   14.8835 O   0  0  0  0  0  0  0  0  0  0  0  0
    4.9442   -1.5363   12.8185 C   0  0  0  0  0  0  0  0  0  0  0  0
    5.0671   -1.1442   11.5197 C   0  0  0  0  0  0  0  0  0  0  0  0
    6.2811   -0.9649   10.9891 C   0  0  0  0  0  0  0  0  0  0  0  0
    7.4014   -1.1857   11.7857 C   0  0  0  0  0  0  0  0  0  0  0  0
    6.6098   -1.6726   13.3644 S   0  0  0  0  0  0  0  0  0  0  0  0
    2.5362   -0.2053    8.6200 C   0  0  0  0  0  0  0  0  0  0  0  0
    2.9660    0.8574    9.0989 O   0  0  0  0  0  0  0  0  0  0  0  0
    2.3105   -0.3258    7.2673 N   0  0  0  0  0  0  0  0  0  0  0  0
    2.5756    0.7771    6.4104 C   0  0  0  0  0  0  0  0  0  0  0  0
    1.7675    1.9952    6.6789 C   0  0  0  0  0  0  0  0  0  0  0  0
    1.0350    2.1071    7.8624 C   0  0  0  0  0  0  0  0  0  0  0  0
    0.2769    3.1903    8.1841 C   0  0  0  0  0  0  0  0  0  0  0  0
    0.1978    4.2573    7.3255 C   0  0  0  0  0  0  0  0  0  0  0  0
    0.9064    4.1837    6.1463 C   0  0  0  0  0  0  0  0  0  0  0  0
    1.6845    3.0671    5.8211 C   0  0  0  0  0  0  0  0  0  0  0  0
   -0.5844    5.4490    7.6087 C   0  0  0  0  0  0  0  0  0  0  0  0
   -0.2383    6.6940    7.0863 C   0  0  0  0  0  0  0  0  0  0  0  0
   -1.0111    7.7992    7.3738 C   0  0  0  0  0  0  0  0  0  0  0  0
   -2.1265    7.6939    8.1734 C   0  0  0  0  0  0  0  0  0  0  0  0
   -2.4586    6.4485    8.6864 C   0  0  0  0  0  0  0  0  0  0  0  0
   -1.6933    5.3372    8.4058 C   0  0  0  0  0  0  0  0  0  0  0  0
   -2.0357    4.0325    8.9449 C   0  0  0  0  0  0  0  0  0  0  0  0
   -1.3686    3.4721    9.9660 N   0  0  0  0  0  0  0  0  0  0  0  0
   -1.9002    2.2983   10.2266 N   0  0  0  0  0  0  0  0  0  0  0  0
   -2.8923    2.1303    9.3722 N   0  0  0  0  0  0  0  0  0  0  0  0
   -2.9933    3.1799    8.5782 N   0  0  0  0  0  0  0  0  0  0  0  0
  1  2  1  0
  2  3  1  0
  3  4  2  0
  4  5  1  0
  5  6  2  0
  6  7  1  0
  7  8  2  0
  8  9  1  0
  9 10  2  0
  8 11  1  0
 11 12  1  0
 12 13  1  0
 13 14  2  0
 14 15  1  0
 15 16  2  0
 16 17  1  0
 17 18  2  0
 11 19  1  0
 19 20  2  0
 19 21  1  0
 21 22  2  0
 22 23  1  0
 23 24  2  0
 24 25  1  0
  6 26  1  0
 26 27  2  0
 26 28  1  0
 28 29  1  0
 29 30  1  0
 30 31  2  0
 31 32  1  0
 32 33  2  0
 33 34  1  0
 34 35  2  0
 33 36  1  0
 36 37  2  0
 37 38  1  0
 38 39  2  0
 39 40  1  0
 40 41  2  0
 41 42  1  0
 42 43  2  0
 43 44  1  0
 44 45  1  0
 45 46  2  0
 28  3  1  0
 10  5  1  0
 18 13  1  0
 25 21  1  0
 35 30  1  0
 41 36  1  0
 46 42  1  0
M  END
$$$$
