
     RDKit          3D

 46 52  0  0  0  0  0  0  0  0999 V2000
    1.9489   -2.8328    4.7865 C   0  0  0  0  0  0  0  0  0  0  0  0
    0.9184   -2.0040    5.5892 C   0  0  0  0  0  0  0  0  0  0  0  0
    1.5397   -1.5297    6.8264 C   0  0  0  0  0  0  0  0  0  0  0  0
    1.6651   -2.4241    7.8552 N   0  0  0  0  0  0  0  0  0  0  0  0
    2.2427   -2.1118    9.0255 C   0  0  0  0  0  0  0  0  0  0  0  0
    2.7394   -0.8408    9.2229 C   0  0  0  0  0  0  0  0  0  0  0  0
    3.3440   -0.4758   10.4231 C   0  0  0  0  0  0  0  0  0  0  0  0
    3.4617   -1.3858   11.4547 C   0  0  0  0  0  0  0  0  0  0  0  0
    2.9614   -2.6559   11.2482 C   0  0  0  0  0  0  0  0  0  0  0  0
    2.3606   -3.0213   10.0569 C   0  0  0  0  0  0  0  0  0  0  0  0
    4.0600   -1.1014   12.7022 N   0  0  0  0  0  0  0  0  0  0  0  0
    5.4531   -0.7264   12.7254 C   0  0  0  0  0  0  0  0  0  0  0  0
    6.3488   -1.9400   12.7209 C   0  0  0  0  0  0  0  0  0  0  0  0
    7.4366   -2.0069   11.8878 C   0  0  0  0  0  0  0  0  0  0  0  0
    8.2477   -3.1113   11.8903 C   0  0  0  0  0  0  0  0  0  0  0  0
    8.0271   -4.2020   12.7124 C   0  0  0  0  0  0  0  0  0  0  0  0
    6.9279   -4.1110   13.5408 C   0  0  0  0  0  0  0  0  0  0  0  0
    6.1007   -3.0083   13.5523 C   0  0  0  0  0  0  0  0  0  0  0  0
    3.3007   -1.1973   13.8862 C   0  0  0  0  0  0  0  0  0  0  0  0
    3.8447   -0.9182   14.9940 O   0  0  0  0  0  0  0  0  0  0  0  0
    1.9162   -1.5996   13.9382 C   0  0  0  0  0  0  0  0  0  0  0  0
    0.9246   -1.5439   13.0057 C   0  0  0  0  0  0  0  0  0  0  0  0
   -0.3002   -1.9867   13.3072 C   0  0  0  0  0  0  0  0  0  0  0  0
   -0.5345   -2.4992   14.5803 C   0  0  0  0  0  0  0  0  0  0  0  0
    1.1230   -2.3103   15.3371 S   0  0  0  0  0  0  0  0  0  0  0  0
    2.6124    0.0546    8.1876 C   0  0  0  0  0  0  0  0  0  0  0  0
    3.0644    1.1981    8.3645 O   0  0  0  0  0  0  0  0  0  0  0  0
    2.0148   -0.2883    6.9957 N   0  0  0  0  0  0  0  0  0  0  0  0
    1.9175    0.6766    5.9562 C   0  0  0  0  0  0  0  0  0  0  0  0
    1.3296    1.9813    6.3572 C   0  0  0  0  0  0  0  0  0  0  0  0
    1.1534    2.2885    7.7079 C   0  0  0  0  0  0  0  0  0  0  0  0
    0.6286    3.4614    8.1556 C   0  0  0  0  0  0  0  0  0  0  0  0
    0.2356    4.4269    7.2638 C   0  0  0  0  0  0  0  0  0  0  0  0
    0.3930    4.1602    5.9213 C   0  0  0  0  0  0  0  0  0  0  0  0
    0.9334    2.9522    5.4671 C   0  0  0  0  0  0  0  0  0  0  0  0
   -0.3235    5.7050    7.6713 C   0  0  0  0  0  0  0  0  0  0  0  0
    0.1082    6.9059    7.1108 C   0  0  0  0  0  0  0  0  0  0  0  0
   -0.4531    8.0969    7.5206 C   0  0  0  0  0  0  0  0  0  0  0  0
   -1.4394    8.1209    8.4804 C   0  0  0  0  0  0  0  0  0  0  0  0
   -1.8589    6.9179    9.0294 C   0  0  0  0  0  0  0  0  0  0  0  0
   -1.3047    5.7217    8.6276 C   0  0  0  0  0  0  0  0  0  0  0  0
   -1.7385    4.4608    9.2037 C   0  0  0  0  0  0  0  0  0  0  0  0
   -2.2397    3.4596    8.4633 N   0  0  0  0  0  0  0  0  0  0  0  0
   -2.5458    2.4573    9.2570 N   0  0  0  0  0  0  0  0  0  0  0  0
   -2.2365    2.8336   10.4839 N   0  0  0  0  0  0  0  0  0  0  0  0
   -1.7405    4.0568   10.4746 N   0  0  0  0  0  0  0  0  0  0  0  0
  1  2  1  0
  2  3  1  0
  3  4  2  0
  4  5  1  0
  5  6  2  0
  6  7  1  0
  7  8  2  0
  8  9  1  0
  9 10  2  0
  8 11  1  0
 11 12  1  0
 12 13  1  0
 13 14  2  0
 14 15  1  0
 15 16  2  0
 16 17  1  0
 17 18  2  0
 11 19  1  0
 19 20  2  0
 19 21  1  0
 21 22  2  0
 22 23  1  0
 23 24  2  0
 24 25  1  0
  6 26  1  0
 26 27  2  0
 26 28  1  0
 28 29  1  0
 29 30  1  0
 30 31  2  0
 31 32  1  0
 32 33  2  0
 33 34  1  0
 34 35  2  0
 33 36  1  0
 36 37  2  0
 37 38  1  0
 38 39  2  0
 39 40  1  0
 40 41  2  0
 41 42  1  0
 42 43  2  0
 43 44  1  0
 44 45  1  0
 45 46  2  0
 28  3  1  0
 10  5  1  0
 18 13  1  0
 25 21  1  0
 35 30  1  0
 41 36  1  0
 46 42  1  0
M  END
$$$$
