
     RDKit          3D

 46 52  0  0  0  0  0  0  0  0999 V2000
   -2.3386   -0.0491    7.0093 C   0  0  0  0  0  0  0  0  0  0  0  0
   -1.0335   -0.8233    6.7086 C   0  0  0  0  0  0  0  0  0  0  0  0
   -0.2035   -0.8556    7.9133 C   0  0  0  0  0  0  0  0  0  0  0  0
   -0.6458   -1.6096    8.9669 N   0  0  0  0  0  0  0  0  0  0  0  0
    0.0434   -1.7373   10.1113 C   0  0  0  0  0  0  0  0  0  0  0  0
    1.2527   -1.0906   10.2546 C   0  0  0  0  0  0  0  0  0  0  0  0
    1.9977   -1.1954   11.4264 C   0  0  0  0  0  0  0  0  0  0  0  0
    1.5395   -1.9563   12.4836 C   0  0  0  0  0  0  0  0  0  0  0  0
    0.3277   -2.6001   12.3311 C   0  0  0  0  0  0  0  0  0  0  0  0
   -0.4143   -2.4978   11.1681 C   0  0  0  0  0  0  0  0  0  0  0  0
    2.2295   -2.1181   13.7054 N   0  0  0  0  0  0  0  0  0  0  0  0
    2.5730   -0.9378   14.4609 C   0  0  0  0  0  0  0  0  0  0  0  0
    3.9531   -0.4419   14.1078 C   0  0  0  0  0  0  0  0  0  0  0  0
    5.0594   -1.2190   14.3402 C   0  0  0  0  0  0  0  0  0  0  0  0
    6.3101   -0.7636   14.0150 C   0  0  0  0  0  0  0  0  0  0  0  0
    6.5317    0.4778   13.4459 C   0  0  0  0  0  0  0  0  0  0  0  0
    5.4043    1.2404   13.2219 C   0  0  0  0  0  0  0  0  0  0  0  0
    4.1382    0.7990   13.5423 C   0  0  0  0  0  0  0  0  0  0  0  0
    2.5748   -3.4093   14.1541 C   0  0  0  0  0  0  0  0  0  0  0  0
    3.1887   -3.5384   15.2529 O   0  0  0  0  0  0  0  0  0  0  0  0
    2.2772   -4.6281   13.4419 C   0  0  0  0  0  0  0  0  0  0  0  0
    1.7070   -5.7959   13.8507 C   0  0  0  0  0  0  0  0  0  0  0  0
    1.5407   -6.7973   12.9808 C   0  0  0  0  0  0  0  0  0  0  0  0
    1.9587   -6.6199   11.6646 C   0  0  0  0  0  0  0  0  0  0  0  0
    2.6147   -4.9112   11.7399 S   0  0  0  0  0  0  0  0  0  0  0  0
    1.6941   -0.3349    9.1946 C   0  0  0  0  0  0  0  0  0  0  0  0
    2.7860    0.2437    9.3228 O   0  0  0  0  0  0  0  0  0  0  0  0
    0.9690   -0.2176    8.0302 N   0  0  0  0  0  0  0  0  0  0  0  0
    1.4780    0.5717    6.9630 C   0  0  0  0  0  0  0  0  0  0  0  0
    1.2592    2.0354    7.0985 C   0  0  0  0  0  0  0  0  0  0  0  0
    0.8991    2.5820    8.3320 C   0  0  0  0  0  0  0  0  0  0  0  0
    0.6868    3.9100    8.5388 C   0  0  0  0  0  0  0  0  0  0  0  0
    0.8227    4.8003    7.5040 C   0  0  0  0  0  0  0  0  0  0  0  0
    1.1764    4.2986    6.2705 C   0  0  0  0  0  0  0  0  0  0  0  0
    1.3934    2.9319    6.0640 C   0  0  0  0  0  0  0  0  0  0  0  0
    0.6207    6.2316    7.6552 C   0  0  0  0  0  0  0  0  0  0  0  0
    1.6020    7.1525    7.2926 C   0  0  0  0  0  0  0  0  0  0  0  0
    1.3679    8.5028    7.4458 C   0  0  0  0  0  0  0  0  0  0  0  0
    0.1735    8.9605    7.9542 C   0  0  0  0  0  0  0  0  0  0  0  0
   -0.7938    8.0322    8.3109 C   0  0  0  0  0  0  0  0  0  0  0  0
   -0.5705    6.6804    8.1623 C   0  0  0  0  0  0  0  0  0  0  0  0
   -1.5794    5.7056    8.5391 C   0  0  0  0  0  0  0  0  0  0  0  0
   -2.1434    4.8673    7.6554 N   0  0  0  0  0  0  0  0  0  0  0  0
   -3.0166    4.1124    8.2847 N   0  0  0  0  0  0  0  0  0  0  0  0
   -2.9952    4.4796    9.5525 N   0  0  0  0  0  0  0  0  0  0  0  0
   -2.1224    5.4535    9.7307 N   0  0  0  0  0  0  0  0  0  0  0  0
  1  2  1  0
  2  3  1  0
  3  4  2  0
  4  5  1  0
  5  6  2  0
  6  7  1  0
  7  8  2  0
  8  9  1  0
  9 10  2  0
  8 11  1  0
 11 12  1  0
 12 13  1  0
 13 14  2  0
 14 15  1  0
 15 16  2  0
 16 17  1  0
 17 18  2  0
 11 19  1  0
 19 20  2  0
 19 21  1  0
 21 22  2  0
 22 23  1  0
 23 24  2  0
 24 25  1  0
  6 26  1  0
 26 27  2  0
 26 28  1  0
 28 29  1  0
 29 30  1  0
 30 31  2  0
 31 32  1  0
 32 33  2  0
 33 34  1  0
 34 35  2  0
 33 36  1  0
 36 37  2  0
 37 38  1  0
 38 39  2  0
 39 40  1  0
 40 41  2  0
 41 42  1  0
 42 43  2  0
 43 44  1  0
 44 45  1  0
 45 46  2  0
 28  3  1  0
 10  5  1  0
 18 13  1  0
 25 21  1  0
 35 30  1  0
 41 36  1  0
 46 42  1  0
M  END
$$$$
