
     RDKit          3D

 46 52  0  0  0  0  0  0  0  0999 V2000
   -2.9266    1.2636    8.0037 C   0  0  0  0  0  0  0  0  0  0  0  0
   -2.0155    0.3409    7.1600 C   0  0  0  0  0  0  0  0  0  0  0  0
   -0.8005    0.0393    7.9176 C   0  0  0  0  0  0  0  0  0  0  0  0
   -0.9246   -0.7625    9.0203 N   0  0  0  0  0  0  0  0  0  0  0  0
    0.1221   -1.1295    9.7756 C   0  0  0  0  0  0  0  0  0  0  0  0
    1.3875   -0.6925    9.4454 C   0  0  0  0  0  0  0  0  0  0  0  0
    2.4996   -1.0487   10.2041 C   0  0  0  0  0  0  0  0  0  0  0  0
    2.3614   -1.8552   11.3161 C   0  0  0  0  0  0  0  0  0  0  0  0
    1.0907   -2.2878   11.6392 C   0  0  0  0  0  0  0  0  0  0  0  0
   -0.0157   -1.9358   10.8872 C   0  0  0  0  0  0  0  0  0  0  0  0
    3.4330   -2.2652   12.1399 N   0  0  0  0  0  0  0  0  0  0  0  0
    4.0293   -1.2934   13.0242 C   0  0  0  0  0  0  0  0  0  0  0  0
    3.2821   -1.2091   14.3318 C   0  0  0  0  0  0  0  0  0  0  0  0
    2.3100   -0.2608   14.5252 C   0  0  0  0  0  0  0  0  0  0  0  0
    1.6332   -0.1910   15.7147 C   0  0  0  0  0  0  0  0  0  0  0  0
    1.8809   -1.0507   16.7700 C   0  0  0  0  0  0  0  0  0  0  0  0
    2.8622   -1.9952   16.5514 C   0  0  0  0  0  0  0  0  0  0  0  0
    3.5533   -2.0807   15.3617 C   0  0  0  0  0  0  0  0  0  0  0  0
    3.9015   -3.5935   12.0779 C   0  0  0  0  0  0  0  0  0  0  0  0
    4.7651   -3.9843   12.9160 O   0  0  0  0  0  0  0  0  0  0  0  0
    3.4644   -4.5692   11.1092 C   0  0  0  0  0  0  0  0  0  0  0  0
    2.7974   -5.7482   11.2538 C   0  0  0  0  0  0  0  0  0  0  0  0
    2.5069   -6.4865   10.1777 C   0  0  0  0  0  0  0  0  0  0  0  0
    2.8973   -6.0271    8.9228 C   0  0  0  0  0  0  0  0  0  0  0  0
    3.7178   -4.4524    9.3734 S   0  0  0  0  0  0  0  0  0  0  0  0
    1.5087    0.1118    8.3373 C   0  0  0  0  0  0  0  0  0  0  0  0
    2.6497    0.5013    8.0378 O   0  0  0  0  0  0  0  0  0  0  0  0
    0.4198    0.4764    7.5779 N   0  0  0  0  0  0  0  0  0  0  0  0
    0.6051    1.3045    6.4373 C   0  0  0  0  0  0  0  0  0  0  0  0
    0.6100    2.7654    6.7104 C   0  0  0  0  0  0  0  0  0  0  0  0
    1.5456    3.3138    7.5901 C   0  0  0  0  0  0  0  0  0  0  0  0
    1.6190    4.6395    7.8876 C   0  0  0  0  0  0  0  0  0  0  0  0
    0.7428    5.5255    7.3137 C   0  0  0  0  0  0  0  0  0  0  0  0
   -0.1962    5.0219    6.4402 C   0  0  0  0  0  0  0  0  0  0  0  0
   -0.2666    3.6575    6.1382 C   0  0  0  0  0  0  0  0  0  0  0  0
    0.7697    6.9542    7.5784 C   0  0  0  0  0  0  0  0  0  0  0  0
    1.8174    7.7614    7.1384 C   0  0  0  0  0  0  0  0  0  0  0  0
    1.8014    9.1143    7.4047 C   0  0  0  0  0  0  0  0  0  0  0  0
    0.7616    9.6859    8.1023 C   0  0  0  0  0  0  0  0  0  0  0  0
   -0.2741    8.8701    8.5340 C   0  0  0  0  0  0  0  0  0  0  0  0
   -0.2684    7.5167    8.2737 C   0  0  0  0  0  0  0  0  0  0  0  0
   -1.3490    6.6589    8.7282 C   0  0  0  0  0  0  0  0  0  0  0  0
   -1.1755    5.7031    9.6545 N   0  0  0  0  0  0  0  0  0  0  0  0
   -2.3229    5.0935    9.8550 N   0  0  0  0  0  0  0  0  0  0  0  0
   -3.2046    5.6673    9.0576 N   0  0  0  0  0  0  0  0  0  0  0  0
   -2.6300    6.6284    8.3587 N   0  0  0  0  0  0  0  0  0  0  0  0
  1  2  1  0
  2  3  1  0
  3  4  2  0
  4  5  1  0
  5  6  2  0
  6  7  1  0
  7  8  2  0
  8  9  1  0
  9 10  2  0
  8 11  1  0
 11 12  1  0
 12 13  1  0
 13 14  2  0
 14 15  1  0
 15 16  2  0
 16 17  1  0
 17 18  2  0
 11 19  1  0
 19 20  2  0
 19 21  1  0
 21 22  2  0
 22 23  1  0
 23 24  2  0
 24 25  1  0
  6 26  1  0
 26 27  2  0
 26 28  1  0
 28 29  1  0
 29 30  1  0
 30 31  2  0
 31 32  1  0
 32 33  2  0
 33 34  1  0
 34 35  2  0
 33 36  1  0
 36 37  2  0
 37 38  1  0
 38 39  2  0
 39 40  1  0
 40 41  2  0
 41 42  1  0
 42 43  2  0
 43 44  1  0
 44 45  1  0
 45 46  2  0
 28  3  1  0
 10  5  1  0
 18 13  1  0
 25 21  1  0
 35 30  1  0
 41 36  1  0
 46 42  1  0
M  END
$$$$
