
     RDKit          3D

 46 52  0  0  0  0  0  0  0  0999 V2000
    0.4429   -2.6812    3.9749 C   0  0  0  0  0  0  0  0  0  0  0  0
    1.0047   -1.3041    4.4004 C   0  0  0  0  0  0  0  0  0  0  0  0
    1.2095   -1.2936    5.8493 C   0  0  0  0  0  0  0  0  0  0  0  0
    2.2198   -2.0690    6.3516 N   0  0  0  0  0  0  0  0  0  0  0  0
    2.5192   -2.1181    7.6588 C   0  0  0  0  0  0  0  0  0  0  0  0
    1.7914   -1.3627    8.5537 C   0  0  0  0  0  0  0  0  0  0  0  0
    2.0685   -1.3869    9.9182 C   0  0  0  0  0  0  0  0  0  0  0  0
    3.0880   -2.1755   10.4133 C   0  0  0  0  0  0  0  0  0  0  0  0
    3.8112   -2.9286    9.5100 C   0  0  0  0  0  0  0  0  0  0  0  0
    3.5382   -2.9062    8.1540 C   0  0  0  0  0  0  0  0  0  0  0  0
    3.4373   -2.2593   11.7793 N   0  0  0  0  0  0  0  0  0  0  0  0
    3.4594   -3.5601   12.4033 C   0  0  0  0  0  0  0  0  0  0  0  0
    2.1051   -4.2214   12.3430 C   0  0  0  0  0  0  0  0  0  0  0  0
    1.9779   -5.5776   12.5053 C   0  0  0  0  0  0  0  0  0  0  0  0
    0.7444   -6.1719   12.4518 C   0  0  0  0  0  0  0  0  0  0  0  0
   -0.4222   -5.4602   12.2360 C   0  0  0  0  0  0  0  0  0  0  0  0
   -0.2686   -4.0988   12.0759 C   0  0  0  0  0  0  0  0  0  0  0  0
    0.9638   -3.4833   12.1267 C   0  0  0  0  0  0  0  0  0  0  0  0
    3.7436   -1.0879   12.5016 C   0  0  0  0  0  0  0  0  0  0  0  0
    3.4638    0.0392   11.9993 O   0  0  0  0  0  0  0  0  0  0  0  0
    4.3680   -1.0701   13.8021 C   0  0  0  0  0  0  0  0  0  0  0  0
    5.5906   -1.5000   14.2221 C   0  0  0  0  0  0  0  0  0  0  0  0
    5.9378   -1.3712   15.5067 C   0  0  0  0  0  0  0  0  0  0  0  0
    5.0317   -0.7947   16.3927 C   0  0  0  0  0  0  0  0  0  0  0  0
    3.6299   -0.4400   15.2680 S   0  0  0  0  0  0  0  0  0  0  0  0
    0.7781   -0.5848    8.0460 C   0  0  0  0  0  0  0  0  0  0  0  0
    0.1259    0.0991    8.8523 O   0  0  0  0  0  0  0  0  0  0  0  0
    0.4883   -0.5513    6.7005 N   0  0  0  0  0  0  0  0  0  0  0  0
   -0.5665    0.2776    6.2302 C   0  0  0  0  0  0  0  0  0  0  0  0
   -0.3572    1.7366    6.4204 C   0  0  0  0  0  0  0  0  0  0  0  0
    0.9223    2.2376    6.6688 C   0  0  0  0  0  0  0  0  0  0  0  0
    1.1968    3.5583    6.8479 C   0  0  0  0  0  0  0  0  0  0  0  0
    0.1889    4.4870    6.7901 C   0  0  0  0  0  0  0  0  0  0  0  0
   -1.0884    4.0309    6.5475 C   0  0  0  0  0  0  0  0  0  0  0  0
   -1.3645    2.6716    6.3640 C   0  0  0  0  0  0  0  0  0  0  0  0
    0.4110    5.9129    6.9626 C   0  0  0  0  0  0  0  0  0  0  0  0
    0.2185    6.8161    5.9187 C   0  0  0  0  0  0  0  0  0  0  0  0
    0.4339    8.1623    6.1258 C   0  0  0  0  0  0  0  0  0  0  0  0
    0.8386    8.6332    7.3543 C   0  0  0  0  0  0  0  0  0  0  0  0
    1.0263    7.7225    8.3838 C   0  0  0  0  0  0  0  0  0  0  0  0
    0.8142    6.3749    8.1880 C   0  0  0  0  0  0  0  0  0  0  0  0
    1.0142    5.4181    9.2625 C   0  0  0  0  0  0  0  0  0  0  0  0
    2.2208    5.1662    9.7939 N   0  0  0  0  0  0  0  0  0  0  0  0
    2.0883    4.2591   10.7361 N   0  0  0  0  0  0  0  0  0  0  0  0
    0.8063    3.9490   10.7899 N   0  0  0  0  0  0  0  0  0  0  0  0
    0.1302    4.6468    9.8965 N   0  0  0  0  0  0  0  0  0  0  0  0
  1  2  1  0
  2  3  1  0
  3  4  2  0
  4  5  1  0
  5  6  2  0
  6  7  1  0
  7  8  2  0
  8  9  1  0
  9 10  2  0
  8 11  1  0
 11 12  1  0
 12 13  1  0
 13 14  2  0
 14 15  1  0
 15 16  2  0
 16 17  1  0
 17 18  2  0
 11 19  1  0
 19 20  2  0
 19 21  1  0
 21 22  2  0
 22 23  1  0
 23 24  2  0
 24 25  1  0
  6 26  1  0
 26 27  2  0
 26 28  1  0
 28 29  1  0
 29 30  1  0
 30 31  2  0
 31 32  1  0
 32 33  2  0
 33 34  1  0
 34 35  2  0
 33 36  1  0
 36 37  2  0
 37 38  1  0
 38 39  2  0
 39 40  1  0
 40 41  2  0
 41 42  1  0
 42 43  2  0
 43 44  1  0
 44 45  1  0
 45 46  2  0
 28  3  1  0
 10  5  1  0
 18 13  1  0
 25 21  1  0
 35 30  1  0
 41 36  1  0
 46 42  1  0
M  END
$$$$
