
     RDKit          3D

 46 52  0  0  0  0  0  0  0  0999 V2000
    1.5530   -2.5926    4.9031 C   0  0  0  0  0  0  0  0  0  0  0  0
    1.8418   -1.2139    5.5427 C   0  0  0  0  0  0  0  0  0  0  0  0
    1.5976   -1.2901    6.9835 C   0  0  0  0  0  0  0  0  0  0  0  0
    2.5228   -1.9479    7.7486 N   0  0  0  0  0  0  0  0  0  0  0  0
    2.4198   -2.0576    9.0821 C   0  0  0  0  0  0  0  0  0  0  0  0
    1.3439   -1.4903    9.7317 C   0  0  0  0  0  0  0  0  0  0  0  0
    1.1987   -1.5833   11.1135 C   0  0  0  0  0  0  0  0  0  0  0  0
    2.1368   -2.2523   11.8743 C   0  0  0  0  0  0  0  0  0  0  0  0
    3.2106   -2.8171   11.2153 C   0  0  0  0  0  0  0  0  0  0  0  0
    3.3574   -2.7261    9.8428 C   0  0  0  0  0  0  0  0  0  0  0  0
    2.0688   -2.3937   13.2780 N   0  0  0  0  0  0  0  0  0  0  0  0
    2.3310   -1.2356   14.0977 C   0  0  0  0  0  0  0  0  0  0  0  0
    1.0557   -0.6651   14.6665 C   0  0  0  0  0  0  0  0  0  0  0  0
    0.2236    0.1032   13.8926 C   0  0  0  0  0  0  0  0  0  0  0  0
   -0.9346    0.6166   14.4147 C   0  0  0  0  0  0  0  0  0  0  0  0
   -1.3289    0.3985   15.7228 C   0  0  0  0  0  0  0  0  0  0  0  0
   -0.4761   -0.3768   16.4807 C   0  0  0  0  0  0  0  0  0  0  0  0
    0.6929   -0.9018   15.9728 C   0  0  0  0  0  0  0  0  0  0  0  0
    1.7609   -3.6468   13.8460 C   0  0  0  0  0  0  0  0  0  0  0  0
    1.6675   -3.7495   15.1036 O   0  0  0  0  0  0  0  0  0  0  0  0
    1.5385   -4.8543   13.0885 C   0  0  0  0  0  0  0  0  0  0  0  0
    1.0525   -5.0546   11.8317 C   0  0  0  0  0  0  0  0  0  0  0  0
    0.9384   -6.2967   11.3507 C   0  0  0  0  0  0  0  0  0  0  0  0
    1.3233   -7.3662   12.1547 C   0  0  0  0  0  0  0  0  0  0  0  0
    1.8676   -6.4825   13.6643 S   0  0  0  0  0  0  0  0  0  0  0  0
    0.4171   -0.8301    8.9605 C   0  0  0  0  0  0  0  0  0  0  0  0
   -0.5495   -0.3153    9.5471 O   0  0  0  0  0  0  0  0  0  0  0  0
    0.5432   -0.7313    7.5931 N   0  0  0  0  0  0  0  0  0  0  0  0
   -0.4422   -0.0297    6.8463 C   0  0  0  0  0  0  0  0  0  0  0  0
   -0.4496    1.4442    7.0366 C   0  0  0  0  0  0  0  0  0  0  0  0
   -0.8328    2.2869    5.9912 C   0  0  0  0  0  0  0  0  0  0  0  0
   -0.8716    3.6436    6.0876 C   0  0  0  0  0  0  0  0  0  0  0  0
   -0.5218    4.2627    7.2608 C   0  0  0  0  0  0  0  0  0  0  0  0
   -0.1369    3.4643    8.3156 C   0  0  0  0  0  0  0  0  0  0  0  0
   -0.0991    2.0696    8.2104 C   0  0  0  0  0  0  0  0  0  0  0  0
   -0.5489    5.7051    7.4371 C   0  0  0  0  0  0  0  0  0  0  0  0
   -1.5315    6.4973    6.8459 C   0  0  0  0  0  0  0  0  0  0  0  0
   -1.5254    7.8620    7.0437 C   0  0  0  0  0  0  0  0  0  0  0  0
   -0.5590    8.4600    7.8203 C   0  0  0  0  0  0  0  0  0  0  0  0
    0.4126    7.6588    8.4023 C   0  0  0  0  0  0  0  0  0  0  0  0
    0.4163    6.2939    8.2112 C   0  0  0  0  0  0  0  0  0  0  0  0
    1.4349    5.4527    8.8153 C   0  0  0  0  0  0  0  0  0  0  0  0
    2.3884    4.8391    8.0969 N   0  0  0  0  0  0  0  0  0  0  0  0
    3.1561    4.1502    8.9119 N   0  0  0  0  0  0  0  0  0  0  0  0
    2.6822    4.3346   10.1300 N   0  0  0  0  0  0  0  0  0  0  0  0
    1.6286    5.1288   10.0943 N   0  0  0  0  0  0  0  0  0  0  0  0
  1  2  1  0
  2  3  1  0
  3  4  2  0
  4  5  1  0
  5  6  2  0
  6  7  1  0
  7  8  2  0
  8  9  1  0
  9 10  2  0
  8 11  1  0
 11 12  1  0
 12 13  1  0
 13 14  2  0
 14 15  1  0
 15 16  2  0
 16 17  1  0
 17 18  2  0
 11 19  1  0
 19 20  2  0
 19 21  1  0
 21 22  2  0
 22 23  1  0
 23 24  2  0
 24 25  1  0
  6 26  1  0
 26 27  2  0
 26 28  1  0
 28 29  1  0
 29 30  1  0
 30 31  2  0
 31 32  1  0
 32 33  2  0
 33 34  1  0
 34 35  2  0
 33 36  1  0
 36 37  2  0
 37 38  1  0
 38 39  2  0
 39 40  1  0
 40 41  2  0
 41 42  1  0
 42 43  2  0
 43 44  1  0
 44 45  1  0
 45 46  2  0
 28  3  1  0
 10  5  1  0
 18 13  1  0
 25 21  1  0
 35 30  1  0
 41 36  1  0
 46 42  1  0
M  END
$$$$
