
     RDKit          3D

 46 52  0  0  0  0  0  0  0  0999 V2000
    0.6214   -3.2216    4.7024 C   0  0  0  0  0  0  0  0  0  0  0  0
    1.1654   -1.8137    5.0419 C   0  0  0  0  0  0  0  0  0  0  0  0
    1.3556   -1.7062    6.4888 C   0  0  0  0  0  0  0  0  0  0  0  0
    2.3158   -2.4962    7.0616 N   0  0  0  0  0  0  0  0  0  0  0  0
    2.5986   -2.4638    8.3730 C   0  0  0  0  0  0  0  0  0  0  0  0
    1.9051   -1.6047    9.1989 C   0  0  0  0  0  0  0  0  0  0  0  0
    2.1665   -1.5420   10.5653 C   0  0  0  0  0  0  0  0  0  0  0  0
    3.1352   -2.3461   11.1321 C   0  0  0  0  0  0  0  0  0  0  0  0
    3.8244   -3.2033   10.2975 C   0  0  0  0  0  0  0  0  0  0  0  0
    3.5669   -3.2675    8.9399 C   0  0  0  0  0  0  0  0  0  0  0  0
    3.4654   -2.3467   12.5054 N   0  0  0  0  0  0  0  0  0  0  0  0
    4.5857   -1.5492   12.9421 C   0  0  0  0  0  0  0  0  0  0  0  0
    4.3410   -0.0802   12.7026 C   0  0  0  0  0  0  0  0  0  0  0  0
    3.2381    0.5430   13.2289 C   0  0  0  0  0  0  0  0  0  0  0  0
    3.0228    1.8783   13.0096 C   0  0  0  0  0  0  0  0  0  0  0  0
    3.8822    2.6636   12.2620 C   0  0  0  0  0  0  0  0  0  0  0  0
    4.9836    2.0147   11.7437 C   0  0  0  0  0  0  0  0  0  0  0  0
    5.2168    0.6724   11.9538 C   0  0  0  0  0  0  0  0  0  0  0  0
    2.7129   -3.1224   13.4109 C   0  0  0  0  0  0  0  0  0  0  0  0
    2.8636   -2.9413   14.6540 O   0  0  0  0  0  0  0  0  0  0  0  0
    1.7597   -4.1338   13.0239 C   0  0  0  0  0  0  0  0  0  0  0  0
    1.1747   -4.4110   11.8252 C   0  0  0  0  0  0  0  0  0  0  0  0
    0.3038   -5.4204   11.7256 C   0  0  0  0  0  0  0  0  0  0  0  0
    0.0132   -6.1712   12.8615 C   0  0  0  0  0  0  0  0  0  0  0  0
    1.0731   -5.3399   14.1031 S   0  0  0  0  0  0  0  0  0  0  0  0
    0.9422   -0.8124    8.6204 C   0  0  0  0  0  0  0  0  0  0  0  0
    0.3210   -0.0353    9.3645 O   0  0  0  0  0  0  0  0  0  0  0  0
    0.6684   -0.8638    7.2722 N   0  0  0  0  0  0  0  0  0  0  0  0
   -0.3335   -0.0156    6.7266 C   0  0  0  0  0  0  0  0  0  0  0  0
   -0.1214    1.4384    6.9493 C   0  0  0  0  0  0  0  0  0  0  0  0
    1.1408    2.0033    6.7553 C   0  0  0  0  0  0  0  0  0  0  0  0
    1.4144    3.3244    6.9322 C   0  0  0  0  0  0  0  0  0  0  0  0
    0.4234    4.1884    7.3239 C   0  0  0  0  0  0  0  0  0  0  0  0
   -0.8361    3.6679    7.5263 C   0  0  0  0  0  0  0  0  0  0  0  0
   -1.1114    2.3084    7.3426 C   0  0  0  0  0  0  0  0  0  0  0  0
    0.6422    5.6113    7.5226 C   0  0  0  0  0  0  0  0  0  0  0  0
    0.8881    6.4713    6.4536 C   0  0  0  0  0  0  0  0  0  0  0  0
    1.0838    7.8166    6.6845 C   0  0  0  0  0  0  0  0  0  0  0  0
    1.0405    8.3290    7.9613 C   0  0  0  0  0  0  0  0  0  0  0  0
    0.7949    7.4611    9.0153 C   0  0  0  0  0  0  0  0  0  0  0  0
    0.5980    6.1147    8.7963 C   0  0  0  0  0  0  0  0  0  0  0  0
    0.3452    5.2025    9.8981 C   0  0  0  0  0  0  0  0  0  0  0  0
    1.2380    4.2835   10.2981 N   0  0  0  0  0  0  0  0  0  0  0  0
    0.7295    3.6083   11.3049 N   0  0  0  0  0  0  0  0  0  0  0  0
   -0.4727    4.1050   11.5294 N   0  0  0  0  0  0  0  0  0  0  0  0
   -0.7286    5.0822   10.6797 N   0  0  0  0  0  0  0  0  0  0  0  0
  1  2  1  0
  2  3  1  0
  3  4  2  0
  4  5  1  0
  5  6  2  0
  6  7  1  0
  7  8  2  0
  8  9  1  0
  9 10  2  0
  8 11  1  0
 11 12  1  0
 12 13  1  0
 13 14  2  0
 14 15  1  0
 15 16  2  0
 16 17  1  0
 17 18  2  0
 11 19  1  0
 19 20  2  0
 19 21  1  0
 21 22  2  0
 22 23  1  0
 23 24  2  0
 24 25  1  0
  6 26  1  0
 26 27  2  0
 26 28  1  0
 28 29  1  0
 29 30  1  0
 30 31  2  0
 31 32  1  0
 32 33  2  0
 33 34  1  0
 34 35  2  0
 33 36  1  0
 36 37  2  0
 37 38  1  0
 38 39  2  0
 39 40  1  0
 40 41  2  0
 41 42  1  0
 42 43  2  0
 43 44  1  0
 44 45  1  0
 45 46  2  0
 28  3  1  0
 10  5  1  0
 18 13  1  0
 25 21  1  0
 35 30  1  0
 41 36  1  0
 46 42  1  0
M  END
$$$$
