
     RDKit          3D

 46 52  0  0  0  0  0  0  0  0999 V2000
    3.9916   -0.5345    5.3144 C   0  0  0  0  0  0  0  0  0  0  0  0
    2.7015   -1.3017    5.6893 C   0  0  0  0  0  0  0  0  0  0  0  0
    1.8409   -0.4337    6.4938 C   0  0  0  0  0  0  0  0  0  0  0  0
    1.5386    0.8022    5.9886 N   0  0  0  0  0  0  0  0  0  0  0  0
    0.7375    1.6723    6.6228 C   0  0  0  0  0  0  0  0  0  0  0  0
    0.1828    1.3279    7.8372 C   0  0  0  0  0  0  0  0  0  0  0  0
   -0.6516    2.2025    8.5285 C   0  0  0  0  0  0  0  0  0  0  0  0
   -0.9466    3.4478    8.0103 C   0  0  0  0  0  0  0  0  0  0  0  0
   -0.3867    3.7841    6.7939 C   0  0  0  0  0  0  0  0  0  0  0  0
    0.4424    2.9171    6.1050 C   0  0  0  0  0  0  0  0  0  0  0  0
   -1.7824    4.3950    8.6423 N   0  0  0  0  0  0  0  0  0  0  0  0
   -1.2269    5.2012    9.7021 C   0  0  0  0  0  0  0  0  0  0  0  0
    0.1519    5.6999    9.3480 C   0  0  0  0  0  0  0  0  0  0  0  0
    0.3164    6.8365    8.5978 C   0  0  0  0  0  0  0  0  0  0  0  0
    1.5717    7.2856    8.2815 C   0  0  0  0  0  0  0  0  0  0  0  0
    2.7246    6.6378    8.6882 C   0  0  0  0  0  0  0  0  0  0  0  0
    2.5334    5.4979    9.4411 C   0  0  0  0  0  0  0  0  0  0  0  0
    1.2785    5.0311    9.7692 C   0  0  0  0  0  0  0  0  0  0  0  0
   -3.1272    4.5276    8.2403 C   0  0  0  0  0  0  0  0  0  0  0  0
   -3.8623    5.3834    8.8131 O   0  0  0  0  0  0  0  0  0  0  0  0
   -3.7499    3.7445    7.2009 C   0  0  0  0  0  0  0  0  0  0  0  0
   -3.2498    3.2081    6.0529 C   0  0  0  0  0  0  0  0  0  0  0  0
   -4.0493    2.5121    5.2382 C   0  0  0  0  0  0  0  0  0  0  0  0
   -5.3875    2.3512    5.5871 C   0  0  0  0  0  0  0  0  0  0  0  0
   -5.4414    3.2660    7.1732 S   0  0  0  0  0  0  0  0  0  0  0  0
    0.4880    0.0859    8.3413 C   0  0  0  0  0  0  0  0  0  0  0  0
   -0.0159   -0.2254    9.4333 O   0  0  0  0  0  0  0  0  0  0  0  0
    1.3136   -0.7899    7.6731 N   0  0  0  0  0  0  0  0  0  0  0  0
    1.5888   -2.0650    8.2383 C   0  0  0  0  0  0  0  0  0  0  0  0
    2.5534   -2.0608    9.3689 C   0  0  0  0  0  0  0  0  0  0  0  0
    3.1894   -0.8767    9.7471 C   0  0  0  0  0  0  0  0  0  0  0  0
    4.0790   -0.7892   10.7730 C   0  0  0  0  0  0  0  0  0  0  0  0
    4.4000   -1.9038   11.5055 C   0  0  0  0  0  0  0  0  0  0  0  0
    3.7932   -3.0920   11.1617 C   0  0  0  0  0  0  0  0  0  0  0  0
    2.8790   -3.1757   10.1058 C   0  0  0  0  0  0  0  0  0  0  0  0
    5.3337   -1.8814   12.6190 C   0  0  0  0  0  0  0  0  0  0  0  0
    6.7039   -1.7169   12.4232 C   0  0  0  0  0  0  0  0  0  0  0  0
    7.5554   -1.6945   13.5075 C   0  0  0  0  0  0  0  0  0  0  0  0
    7.0728   -1.8327   14.7892 C   0  0  0  0  0  0  0  0  0  0  0  0
    5.7069   -1.9958   14.9686 C   0  0  0  0  0  0  0  0  0  0  0  0
    4.8465   -2.0199   13.8922 C   0  0  0  0  0  0  0  0  0  0  0  0
    3.4163   -2.1951   14.0762 C   0  0  0  0  0  0  0  0  0  0  0  0
    2.6470   -1.2821   14.6897 N   0  0  0  0  0  0  0  0  0  0  0  0
    1.4067   -1.7174   14.7102 N   0  0  0  0  0  0  0  0  0  0  0  0
    1.4053   -2.8945   14.1126 N   0  0  0  0  0  0  0  0  0  0  0  0
    2.6251   -3.2065   13.7165 N   0  0  0  0  0  0  0  0  0  0  0  0
  1  2  1  0
  2  3  1  0
  3  4  2  0
  4  5  1  0
  5  6  2  0
  6  7  1  0
  7  8  2  0
  8  9  1  0
  9 10  2  0
  8 11  1  0
 11 12  1  0
 12 13  1  0
 13 14  2  0
 14 15  1  0
 15 16  2  0
 16 17  1  0
 17 18  2  0
 11 19  1  0
 19 20  2  0
 19 21  1  0
 21 22  2  0
 22 23  1  0
 23 24  2  0
 24 25  1  0
  6 26  1  0
 26 27  2  0
 26 28  1  0
 28 29  1  0
 29 30  1  0
 30 31  2  0
 31 32  1  0
 32 33  2  0
 33 34  1  0
 34 35  2  0
 33 36  1  0
 36 37  2  0
 37 38  1  0
 38 39  2  0
 39 40  1  0
 40 41  2  0
 41 42  1  0
 42 43  2  0
 43 44  1  0
 44 45  1  0
 45 46  2  0
 28  3  1  0
 10  5  1  0
 18 13  1  0
 25 21  1  0
 35 30  1  0
 41 36  1  0
 46 42  1  0
M  END
$$$$
