
     RDKit          3D

 46 52  0  0  0  0  0  0  0  0999 V2000
   -3.3238    0.2050    7.8792 C   0  0  0  0  0  0  0  0  0  0  0  0
   -2.2391   -0.4897    7.0226 C   0  0  0  0  0  0  0  0  0  0  0  0
   -1.0309   -0.6703    7.8282 C   0  0  0  0  0  0  0  0  0  0  0  0
   -1.1393   -1.4097    8.9753 N   0  0  0  0  0  0  0  0  0  0  0  0
   -0.0951   -1.6657    9.7783 C   0  0  0  0  0  0  0  0  0  0  0  0
    1.1513   -1.1734    9.4537 C   0  0  0  0  0  0  0  0  0  0  0  0
    2.2600   -1.4145   10.2611 C   0  0  0  0  0  0  0  0  0  0  0  0
    2.1374   -2.1589   11.4174 C   0  0  0  0  0  0  0  0  0  0  0  0
    0.8857   -2.6476   11.7345 C   0  0  0  0  0  0  0  0  0  0  0  0
   -0.2173   -2.4099   10.9342 C   0  0  0  0  0  0  0  0  0  0  0  0
    3.2070   -2.4521   12.2921 N   0  0  0  0  0  0  0  0  0  0  0  0
    4.0622   -3.5712   11.9792 C   0  0  0  0  0  0  0  0  0  0  0  0
    3.5133   -4.8572   12.5450 C   0  0  0  0  0  0  0  0  0  0  0  0
    2.9989   -4.9022   13.8158 C   0  0  0  0  0  0  0  0  0  0  0  0
    2.4995   -6.0732   14.3231 C   0  0  0  0  0  0  0  0  0  0  0  0
    2.4827   -7.2551   13.6041 C   0  0  0  0  0  0  0  0  0  0  0  0
    3.0050   -7.1845   12.3293 C   0  0  0  0  0  0  0  0  0  0  0  0
    3.5115   -6.0158   11.8022 C   0  0  0  0  0  0  0  0  0  0  0  0
    3.4116   -1.6650   13.4438 C   0  0  0  0  0  0  0  0  0  0  0  0
    4.3330   -1.9795   14.2520 O   0  0  0  0  0  0  0  0  0  0  0  0
    2.6336   -0.4989   13.7848 C   0  0  0  0  0  0  0  0  0  0  0  0
    1.7446    0.2363   13.0603 C   0  0  0  0  0  0  0  0  0  0  0  0
    1.1464    1.2955   13.6149 C   0  0  0  0  0  0  0  0  0  0  0  0
    1.4500    1.6243   14.9333 C   0  0  0  0  0  0  0  0  0  0  0  0
    2.6600    0.3118   15.3446 S   0  0  0  0  0  0  0  0  0  0  0  0
    1.2568   -0.4319    8.3010 C   0  0  0  0  0  0  0  0  0  0  0  0
    2.3810    0.0073    8.0068 O   0  0  0  0  0  0  0  0  0  0  0  0
    0.1708   -0.1811    7.4929 N   0  0  0  0  0  0  0  0  0  0  0  0
    0.3398    0.5859    6.3080 C   0  0  0  0  0  0  0  0  0  0  0  0
    0.3266    2.0595    6.5012 C   0  0  0  0  0  0  0  0  0  0  0  0
    0.7414    2.6141    7.7137 C   0  0  0  0  0  0  0  0  0  0  0  0
    0.7642    3.9509    7.9664 C   0  0  0  0  0  0  0  0  0  0  0  0
    0.3649    4.8426    7.0034 C   0  0  0  0  0  0  0  0  0  0  0  0
   -0.0524    4.3332    5.7932 C   0  0  0  0  0  0  0  0  0  0  0  0
   -0.0735    2.9574    5.5391 C   0  0  0  0  0  0  0  0  0  0  0  0
    0.3722    6.2824    7.2012 C   0  0  0  0  0  0  0  0  0  0  0  0
    0.6428    7.1643    6.1564 C   0  0  0  0  0  0  0  0  0  0  0  0
    0.6333    8.5242    6.3846 C   0  0  0  0  0  0  0  0  0  0  0  0
    0.3592    9.0297    7.6352 C   0  0  0  0  0  0  0  0  0  0  0  0
    0.0918    8.1400    8.6654 C   0  0  0  0  0  0  0  0  0  0  0  0
    0.0989    6.7789    8.4488 C   0  0  0  0  0  0  0  0  0  0  0  0
   -0.1761    5.8444    9.5263 C   0  0  0  0  0  0  0  0  0  0  0  0
   -1.2766    5.0764    9.5569 N   0  0  0  0  0  0  0  0  0  0  0  0
   -1.2518    4.3431   10.6476 N   0  0  0  0  0  0  0  0  0  0  0  0
   -0.1419    4.6536   11.2914 N   0  0  0  0  0  0  0  0  0  0  0  0
    0.5319    5.5707   10.6227 N   0  0  0  0  0  0  0  0  0  0  0  0
  1  2  1  0
  2  3  1  0
  3  4  2  0
  4  5  1  0
  5  6  2  0
  6  7  1  0
  7  8  2  0
  8  9  1  0
  9 10  2  0
  8 11  1  0
 11 12  1  0
 12 13  1  0
 13 14  2  0
 14 15  1  0
 15 16  2  0
 16 17  1  0
 17 18  2  0
 11 19  1  0
 19 20  2  0
 19 21  1  0
 21 22  2  0
 22 23  1  0
 23 24  2  0
 24 25  1  0
  6 26  1  0
 26 27  2  0
 26 28  1  0
 28 29  1  0
 29 30  1  0
 30 31  2  0
 31 32  1  0
 32 33  2  0
 33 34  1  0
 34 35  2  0
 33 36  1  0
 36 37  2  0
 37 38  1  0
 38 39  2  0
 39 40  1  0
 40 41  2  0
 41 42  1  0
 42 43  2  0
 43 44  1  0
 44 45  1  0
 45 46  2  0
 28  3  1  0
 10  5  1  0
 18 13  1  0
 25 21  1  0
 35 30  1  0
 41 36  1  0
 46 42  1  0
M  END
$$$$
