
     RDKit          3D

 46 52  0  0  0  0  0  0  0  0999 V2000
    3.0091   -2.9055    6.1706 C   0  0  0  0  0  0  0  0  0  0  0  0
    1.7998   -2.0233    6.5616 C   0  0  0  0  0  0  0  0  0  0  0  0
    1.7229   -1.9294    8.0199 C   0  0  0  0  0  0  0  0  0  0  0  0
    1.1877   -2.9930    8.6955 N   0  0  0  0  0  0  0  0  0  0  0  0
    1.0915   -3.0322   10.0334 C   0  0  0  0  0  0  0  0  0  0  0  0
    1.5455   -1.9663   10.7811 C   0  0  0  0  0  0  0  0  0  0  0  0
    1.4619   -1.9665   12.1711 C   0  0  0  0  0  0  0  0  0  0  0  0
    0.9170   -3.0437   12.8412 C   0  0  0  0  0  0  0  0  0  0  0  0
    0.4649   -4.1063   12.0845 C   0  0  0  0  0  0  0  0  0  0  0  0
    0.5469   -4.1088   10.7035 C   0  0  0  0  0  0  0  0  0  0  0  0
    0.7945   -3.1278   14.2458 N   0  0  0  0  0  0  0  0  0  0  0  0
   -0.4539   -2.7309   14.8506 C   0  0  0  0  0  0  0  0  0  0  0  0
   -1.4733   -3.8408   14.7857 C   0  0  0  0  0  0  0  0  0  0  0  0
   -1.1032   -5.1467   14.9843 C   0  0  0  0  0  0  0  0  0  0  0  0
   -2.0345   -6.1502   14.9263 C   0  0  0  0  0  0  0  0  0  0  0  0
   -3.3738   -5.9164   14.6700 C   0  0  0  0  0  0  0  0  0  0  0  0
   -3.7213   -4.5959   14.4740 C   0  0  0  0  0  0  0  0  0  0  0  0
   -2.7985   -3.5732   14.5287 C   0  0  0  0  0  0  0  0  0  0  0  0
    1.8805   -3.5813   15.0221 C   0  0  0  0  0  0  0  0  0  0  0  0
    1.7670   -3.6191   16.2818 O   0  0  0  0  0  0  0  0  0  0  0  0
    3.1453   -4.0165   14.4816 C   0  0  0  0  0  0  0  0  0  0  0  0
    3.4457   -4.8657   13.4596 C   0  0  0  0  0  0  0  0  0  0  0  0
    4.7228   -5.1122   13.1506 C   0  0  0  0  0  0  0  0  0  0  0  0
    5.7248   -4.4881   13.8887 C   0  0  0  0  0  0  0  0  0  0  0  0
    4.7228   -3.5112   15.0709 S   0  0  0  0  0  0  0  0  0  0  0  0
    2.0828   -0.9003   10.0995 C   0  0  0  0  0  0  0  0  0  0  0  0
    2.4959    0.0577   10.7741 O   0  0  0  0  0  0  0  0  0  0  0  0
    2.1702   -0.8819    8.7257 N   0  0  0  0  0  0  0  0  0  0  0  0
    2.7424    0.2445    8.0739 C   0  0  0  0  0  0  0  0  0  0  0  0
    1.7810    1.3134    7.6973 C   0  0  0  0  0  0  0  0  0  0  0  0
    2.1626    2.6553    7.7544 C   0  0  0  0  0  0  0  0  0  0  0  0
    1.3443    3.6901    7.4211 C   0  0  0  0  0  0  0  0  0  0  0  0
    0.0615    3.4479    6.9996 C   0  0  0  0  0  0  0  0  0  0  0  0
   -0.3524    2.1356    6.9309 C   0  0  0  0  0  0  0  0  0  0  0  0
    0.4938    1.0756    7.2748 C   0  0  0  0  0  0  0  0  0  0  0  0
   -0.8628    4.5030    6.6195 C   0  0  0  0  0  0  0  0  0  0  0  0
   -1.7654    4.3433    5.5695 C   0  0  0  0  0  0  0  0  0  0  0  0
   -2.6305    5.3669    5.2449 C   0  0  0  0  0  0  0  0  0  0  0  0
   -2.6184    6.5522    5.9446 C   0  0  0  0  0  0  0  0  0  0  0  0
   -1.7145    6.6968    6.9870 C   0  0  0  0  0  0  0  0  0  0  0  0
   -0.8451    5.6805    7.3199 C   0  0  0  0  0  0  0  0  0  0  0  0
    0.1057    5.8304    8.4079 C   0  0  0  0  0  0  0  0  0  0  0  0
    1.4110    5.5475    8.2743 N   0  0  0  0  0  0  0  0  0  0  0  0
    2.0136    5.7743    9.4204 N   0  0  0  0  0  0  0  0  0  0  0  0
    1.0878    6.1959   10.2617 N   0  0  0  0  0  0  0  0  0  0  0  0
   -0.0877    6.2379    9.6628 N   0  0  0  0  0  0  0  0  0  0  0  0
  1  2  1  0
  2  3  1  0
  3  4  2  0
  4  5  1  0
  5  6  2  0
  6  7  1  0
  7  8  2  0
  8  9  1  0
  9 10  2  0
  8 11  1  0
 11 12  1  0
 12 13  1  0
 13 14  2  0
 14 15  1  0
 15 16  2  0
 16 17  1  0
 17 18  2  0
 11 19  1  0
 19 20  2  0
 19 21  1  0
 21 22  2  0
 22 23  1  0
 23 24  2  0
 24 25  1  0
  6 26  1  0
 26 27  2  0
 26 28  1  0
 28 29  1  0
 29 30  1  0
 30 31  2  0
 31 32  1  0
 32 33  2  0
 33 34  1  0
 34 35  2  0
 33 36  1  0
 36 37  2  0
 37 38  1  0
 38 39  2  0
 39 40  1  0
 40 41  2  0
 41 42  1  0
 42 43  2  0
 43 44  1  0
 44 45  1  0
 45 46  2  0
 28  3  1  0
 10  5  1  0
 18 13  1  0
 25 21  1  0
 35 30  1  0
 41 36  1  0
 46 42  1  0
M  END
$$$$
