
     RDKit          3D

 46 52  0  0  0  0  0  0  0  0999 V2000
    0.3378   -2.8004    4.8099 C   0  0  0  0  0  0  0  0  0  0  0  0
    1.0768   -1.5316    5.2972 C   0  0  0  0  0  0  0  0  0  0  0  0
    0.9955   -1.4567    6.7564 C   0  0  0  0  0  0  0  0  0  0  0  0
    1.8326   -2.2634    7.4793 N   0  0  0  0  0  0  0  0  0  0  0  0
    1.8675   -2.2610    8.8208 C   0  0  0  0  0  0  0  0  0  0  0  0
    1.0333   -1.4171    9.5230 C   0  0  0  0  0  0  0  0  0  0  0  0
    1.0369   -1.3855   10.9152 C   0  0  0  0  0  0  0  0  0  0  0  0
    1.8834   -2.2063   11.6335 C   0  0  0  0  0  0  0  0  0  0  0  0
    2.7150   -3.0480   10.9221 C   0  0  0  0  0  0  0  0  0  0  0  0
    2.7136   -3.0813    9.5391 C   0  0  0  0  0  0  0  0  0  0  0  0
    1.9533   -2.2384   13.0438 N   0  0  0  0  0  0  0  0  0  0  0  0
    1.0655   -3.1262   13.7547 C   0  0  0  0  0  0  0  0  0  0  0  0
    1.2649   -4.5594   13.3289 C   0  0  0  0  0  0  0  0  0  0  0  0
    0.3835   -5.1661   12.4705 C   0  0  0  0  0  0  0  0  0  0  0  0
    0.5717   -6.4677   12.0856 C   0  0  0  0  0  0  0  0  0  0  0  0
    1.6357   -7.2340   12.5271 C   0  0  0  0  0  0  0  0  0  0  0  0
    2.5079   -6.6021   13.3889 C   0  0  0  0  0  0  0  0  0  0  0  0
    2.3350   -5.2937   13.7870 C   0  0  0  0  0  0  0  0  0  0  0  0
    2.8678   -1.4078   13.7233 C   0  0  0  0  0  0  0  0  0  0  0  0
    2.8867   -1.4140   14.9884 O   0  0  0  0  0  0  0  0  0  0  0  0
    3.8087   -0.5271   13.0749 C   0  0  0  0  0  0  0  0  0  0  0  0
    4.6367   -0.7175   12.0100 C   0  0  0  0  0  0  0  0  0  0  0  0
    5.4306    0.2755   11.5964 C   0  0  0  0  0  0  0  0  0  0  0  0
    5.3909    1.4925   12.2715 C   0  0  0  0  0  0  0  0  0  0  0  0
    4.1330    1.1331   13.5538 S   0  0  0  0  0  0  0  0  0  0  0  0
    0.1945   -0.6080    8.7939 C   0  0  0  0  0  0  0  0  0  0  0  0
   -0.5535    0.1554    9.4272 O   0  0  0  0  0  0  0  0  0  0  0  0
    0.1754   -0.6286    7.4175 N   0  0  0  0  0  0  0  0  0  0  0  0
   -0.7078    0.2359    6.7149 C   0  0  0  0  0  0  0  0  0  0  0  0
   -0.4783    1.6880    6.9331 C   0  0  0  0  0  0  0  0  0  0  0  0
    0.7573    2.1432    7.3976 C   0  0  0  0  0  0  0  0  0  0  0  0
    1.0475    3.4544    7.6167 C   0  0  0  0  0  0  0  0  0  0  0  0
    0.1015    4.4196    7.3815 C   0  0  0  0  0  0  0  0  0  0  0  0
   -1.1312    4.0092    6.9230 C   0  0  0  0  0  0  0  0  0  0  0  0
   -1.4237    2.6593    6.6995 C   0  0  0  0  0  0  0  0  0  0  0  0
    0.3455    5.8379    7.5847 C   0  0  0  0  0  0  0  0  0  0  0  0
    1.2062    6.5590    6.7589 C   0  0  0  0  0  0  0  0  0  0  0  0
    1.4051    7.9052    6.9816 C   0  0  0  0  0  0  0  0  0  0  0  0
    0.7641    8.5542    8.0124 C   0  0  0  0  0  0  0  0  0  0  0  0
   -0.0895    7.8235    8.8261 C   0  0  0  0  0  0  0  0  0  0  0  0
   -0.2956    6.4776    8.6129 C   0  0  0  0  0  0  0  0  0  0  0  0
   -1.1852    5.7086    9.4658 C   0  0  0  0  0  0  0  0  0  0  0  0
   -0.7441    4.7550   10.3011 N   0  0  0  0  0  0  0  0  0  0  0  0
   -1.7733    4.2351   10.9326 N   0  0  0  0  0  0  0  0  0  0  0  0
   -2.8480    4.8623   10.4921 N   0  0  0  0  0  0  0  0  0  0  0  0
   -2.5113    5.7686    9.5935 N   0  0  0  0  0  0  0  0  0  0  0  0
  1  2  1  0
  2  3  1  0
  3  4  2  0
  4  5  1  0
  5  6  2  0
  6  7  1  0
  7  8  2  0
  8  9  1  0
  9 10  2  0
  8 11  1  0
 11 12  1  0
 12 13  1  0
 13 14  2  0
 14 15  1  0
 15 16  2  0
 16 17  1  0
 17 18  2  0
 11 19  1  0
 19 20  2  0
 19 21  1  0
 21 22  2  0
 22 23  1  0
 23 24  2  0
 24 25  1  0
  6 26  1  0
 26 27  2  0
 26 28  1  0
 28 29  1  0
 29 30  1  0
 30 31  2  0
 31 32  1  0
 32 33  2  0
 33 34  1  0
 34 35  2  0
 33 36  1  0
 36 37  2  0
 37 38  1  0
 38 39  2  0
 39 40  1  0
 40 41  2  0
 41 42  1  0
 42 43  2  0
 43 44  1  0
 44 45  1  0
 45 46  2  0
 28  3  1  0
 10  5  1  0
 18 13  1  0
 25 21  1  0
 35 30  1  0
 41 36  1  0
 46 42  1  0
M  END
$$$$
