
     RDKit          3D

 46 52  0  0  0  0  0  0  0  0999 V2000
    2.6111   -1.3433    4.5418 C   0  0  0  0  0  0  0  0  0  0  0  0
    1.2435   -1.6498    5.1969 C   0  0  0  0  0  0  0  0  0  0  0  0
    1.3899   -1.6253    6.6527 C   0  0  0  0  0  0  0  0  0  0  0  0
    2.2932   -2.4881    7.2128 N   0  0  0  0  0  0  0  0  0  0  0  0
    2.5331   -2.5360    8.5323 C   0  0  0  0  0  0  0  0  0  0  0  0
    1.8524   -1.6881    9.3802 C   0  0  0  0  0  0  0  0  0  0  0  0
    2.0704   -1.7076   10.7554 C   0  0  0  0  0  0  0  0  0  0  0  0
    2.9818   -2.5846   11.3091 C   0  0  0  0  0  0  0  0  0  0  0  0
    3.6586   -3.4299   10.4525 C   0  0  0  0  0  0  0  0  0  0  0  0
    3.4441   -3.4125    9.0860 C   0  0  0  0  0  0  0  0  0  0  0  0
    3.2654   -2.6708   12.6901 N   0  0  0  0  0  0  0  0  0  0  0  0
    3.0013   -3.9166   13.3684 C   0  0  0  0  0  0  0  0  0  0  0  0
    1.5637   -4.3404   13.1987 C   0  0  0  0  0  0  0  0  0  0  0  0
    0.5973   -3.9117   14.0728 C   0  0  0  0  0  0  0  0  0  0  0  0
   -0.7074   -4.2985   13.9117 C   0  0  0  0  0  0  0  0  0  0  0  0
   -1.1229   -5.1254   12.8833 C   0  0  0  0  0  0  0  0  0  0  0  0
   -0.1334   -5.5431   12.0177 C   0  0  0  0  0  0  0  0  0  0  0  0
    1.1840   -5.1643   12.1637 C   0  0  0  0  0  0  0  0  0  0  0  0
    3.7838   -1.5523   13.3742 C   0  0  0  0  0  0  0  0  0  0  0  0
    3.8148   -1.5609   14.6391 O   0  0  0  0  0  0  0  0  0  0  0  0
    4.2949   -0.3663   12.7311 C   0  0  0  0  0  0  0  0  0  0  0  0
    3.6699    0.6211   12.0310 C   0  0  0  0  0  0  0  0  0  0  0  0
    4.3823    1.6316   11.5223 C   0  0  0  0  0  0  0  0  0  0  0  0
    5.7599    1.6499   11.7230 C   0  0  0  0  0  0  0  0  0  0  0  0
    5.9855    0.1149   12.6969 S   0  0  0  0  0  0  0  0  0  0  0  0
    0.9466   -0.8227    8.8144 C   0  0  0  0  0  0  0  0  0  0  0  0
    0.3370   -0.0559    9.5785 O   0  0  0  0  0  0  0  0  0  0  0  0
    0.7161   -0.7923    7.4574 N   0  0  0  0  0  0  0  0  0  0  0  0
   -0.2272    0.1292    6.9262 C   0  0  0  0  0  0  0  0  0  0  0  0
    0.0604    1.5603    7.2051 C   0  0  0  0  0  0  0  0  0  0  0  0
   -0.8556    2.3362    7.9184 C   0  0  0  0  0  0  0  0  0  0  0  0
   -0.6636    3.6494    8.2188 C   0  0  0  0  0  0  0  0  0  0  0  0
    0.4815    4.2893    7.8174 C   0  0  0  0  0  0  0  0  0  0  0  0
    1.4096    3.5566    7.1101 C   0  0  0  0  0  0  0  0  0  0  0  0
    1.2065    2.2065    6.8043 C   0  0  0  0  0  0  0  0  0  0  0  0
    0.7563    5.6858    8.1112 C   0  0  0  0  0  0  0  0  0  0  0  0
    2.0248    6.1184    8.4940 C   0  0  0  0  0  0  0  0  0  0  0  0
    2.2453    7.4538    8.7574 C   0  0  0  0  0  0  0  0  0  0  0  0
    1.2275    8.3740    8.6480 C   0  0  0  0  0  0  0  0  0  0  0  0
   -0.0297    7.9289    8.2661 C   0  0  0  0  0  0  0  0  0  0  0  0
   -0.2615    6.5965    8.0007 C   0  0  0  0  0  0  0  0  0  0  0  0
   -1.5778    6.1265    7.6050 C   0  0  0  0  0  0  0  0  0  0  0  0
   -1.8118    5.5366    6.4222 N   0  0  0  0  0  0  0  0  0  0  0  0
   -3.0873    5.2271    6.3476 N   0  0  0  0  0  0  0  0  0  0  0  0
   -3.6429    5.6226    7.4779 N   0  0  0  0  0  0  0  0  0  0  0  0
   -2.7370    6.1758    8.2624 N   0  0  0  0  0  0  0  0  0  0  0  0
  1  2  1  0
  2  3  1  0
  3  4  2  0
  4  5  1  0
  5  6  2  0
  6  7  1  0
  7  8  2  0
  8  9  1  0
  9 10  2  0
  8 11  1  0
 11 12  1  0
 12 13  1  0
 13 14  2  0
 14 15  1  0
 15 16  2  0
 16 17  1  0
 17 18  2  0
 11 19  1  0
 19 20  2  0
 19 21  1  0
 21 22  2  0
 22 23  1  0
 23 24  2  0
 24 25  1  0
  6 26  1  0
 26 27  2  0
 26 28  1  0
 28 29  1  0
 29 30  1  0
 30 31  2  0
 31 32  1  0
 32 33  2  0
 33 34  1  0
 34 35  2  0
 33 36  1  0
 36 37  2  0
 37 38  1  0
 38 39  2  0
 39 40  1  0
 40 41  2  0
 41 42  1  0
 42 43  2  0
 43 44  1  0
 44 45  1  0
 45 46  2  0
 28  3  1  0
 10  5  1  0
 18 13  1  0
 25 21  1  0
 35 30  1  0
 41 36  1  0
 46 42  1  0
M  END
$$$$
