
     RDKit          3D

 46 52  0  0  0  0  0  0  0  0999 V2000
    0.6465   -1.8893    4.9200 C   0  0  0  0  0  0  0  0  0  0  0  0
    2.1092   -1.5161    5.2585 C   0  0  0  0  0  0  0  0  0  0  0  0
    2.2252   -1.2767    6.6974 C   0  0  0  0  0  0  0  0  0  0  0  0
    2.1682   -2.3644    7.5268 N   0  0  0  0  0  0  0  0  0  0  0  0
    2.2909   -2.2710    8.8599 C   0  0  0  0  0  0  0  0  0  0  0  0
    2.4841   -1.0360    9.4419 C   0  0  0  0  0  0  0  0  0  0  0  0
    2.6139   -0.8958   10.8213 C   0  0  0  0  0  0  0  0  0  0  0  0
    2.5515   -1.9999   11.6479 C   0  0  0  0  0  0  0  0  0  0  0  0
    2.3577   -3.2322   11.0564 C   0  0  0  0  0  0  0  0  0  0  0  0
    2.2286   -3.3745    9.6864 C   0  0  0  0  0  0  0  0  0  0  0  0
    2.6741   -1.9490   13.0541 N   0  0  0  0  0  0  0  0  0  0  0  0
    3.5685   -0.9743   13.6300 C   0  0  0  0  0  0  0  0  0  0  0  0
    4.9822   -1.4962   13.6941 C   0  0  0  0  0  0  0  0  0  0  0  0
    5.9923   -0.7262   14.2124 C   0  0  0  0  0  0  0  0  0  0  0  0
    7.2742   -1.2072   14.2698 C   0  0  0  0  0  0  0  0  0  0  0  0
    7.6229   -2.4682   13.8201 C   0  0  0  0  0  0  0  0  0  0  0  0
    6.5904   -3.2232   13.3036 C   0  0  0  0  0  0  0  0  0  0  0  0
    5.2950   -2.7564   13.2378 C   0  0  0  0  0  0  0  0  0  0  0  0
    1.9398   -2.8444   13.8584 C   0  0  0  0  0  0  0  0  0  0  0  0
    1.9964   -2.7334   15.1175 O   0  0  0  0  0  0  0  0  0  0  0  0
    1.1073   -3.9063   13.3478 C   0  0  0  0  0  0  0  0  0  0  0  0
    1.3142   -4.8183   12.3572 C   0  0  0  0  0  0  0  0  0  0  0  0
    0.3661   -5.7152   12.0675 C   0  0  0  0  0  0  0  0  0  0  0  0
   -0.8219   -5.6946   12.7931 C   0  0  0  0  0  0  0  0  0  0  0  0
   -0.5035   -4.2970   13.9338 S   0  0  0  0  0  0  0  0  0  0  0  0
    2.5414    0.0538    8.6061 C   0  0  0  0  0  0  0  0  0  0  0  0
    2.7201    1.1656    9.1309 O   0  0  0  0  0  0  0  0  0  0  0  0
    2.4117   -0.0661    7.2408 N   0  0  0  0  0  0  0  0  0  0  0  0
    2.4867    1.0949    6.4239 C   0  0  0  0  0  0  0  0  0  0  0  0
    1.3835    2.0729    6.6120 C   0  0  0  0  0  0  0  0  0  0  0  0
    0.2481    1.7208    7.3445 C   0  0  0  0  0  0  0  0  0  0  0  0
   -0.8002    2.5596    7.5662 C   0  0  0  0  0  0  0  0  0  0  0  0
   -0.7839    3.8341    7.0591 C   0  0  0  0  0  0  0  0  0  0  0  0
    0.3199    4.2185    6.3296 C   0  0  0  0  0  0  0  0  0  0  0  0
    1.3949    3.3515    6.1051 C   0  0  0  0  0  0  0  0  0  0  0  0
   -1.8635    4.7851    7.2645 C   0  0  0  0  0  0  0  0  0  0  0  0
   -3.1214    4.6003    6.6933 C   0  0  0  0  0  0  0  0  0  0  0  0
   -4.1210    5.5232    6.9184 C   0  0  0  0  0  0  0  0  0  0  0  0
   -3.8968    6.6317    7.7030 C   0  0  0  0  0  0  0  0  0  0  0  0
   -2.6399    6.8025    8.2648 C   0  0  0  0  0  0  0  0  0  0  0  0
   -1.6335    5.8867    8.0463 C   0  0  0  0  0  0  0  0  0  0  0  0
   -0.3149    6.0648    8.6293 C   0  0  0  0  0  0  0  0  0  0  0  0
    0.5387    7.0143    8.2153 N   0  0  0  0  0  0  0  0  0  0  0  0
    1.6444    6.9274    8.9210 N   0  0  0  0  0  0  0  0  0  0  0  0
    1.4788    5.9294    9.7690 N   0  0  0  0  0  0  0  0  0  0  0  0
    0.2862    5.3871    9.6080 N   0  0  0  0  0  0  0  0  0  0  0  0
  1  2  1  0
  2  3  1  0
  3  4  2  0
  4  5  1  0
  5  6  2  0
  6  7  1  0
  7  8  2  0
  8  9  1  0
  9 10  2  0
  8 11  1  0
 11 12  1  0
 12 13  1  0
 13 14  2  0
 14 15  1  0
 15 16  2  0
 16 17  1  0
 17 18  2  0
 11 19  1  0
 19 20  2  0
 19 21  1  0
 21 22  2  0
 22 23  1  0
 23 24  2  0
 24 25  1  0
  6 26  1  0
 26 27  2  0
 26 28  1  0
 28 29  1  0
 29 30  1  0
 30 31  2  0
 31 32  1  0
 32 33  2  0
 33 34  1  0
 34 35  2  0
 33 36  1  0
 36 37  2  0
 37 38  1  0
 38 39  2  0
 39 40  1  0
 40 41  2  0
 41 42  1  0
 42 43  2  0
 43 44  1  0
 44 45  1  0
 45 46  2  0
 28  3  1  0
 10  5  1  0
 18 13  1  0
 25 21  1  0
 35 30  1  0
 41 36  1  0
 46 42  1  0
M  END
$$$$
