
     RDKit          3D

 46 52  0  0  0  0  0  0  0  0999 V2000
   -0.9690   -2.3718    5.8541 C   0  0  0  0  0  0  0  0  0  0  0  0
   -1.0156   -0.9617    6.4888 C   0  0  0  0  0  0  0  0  0  0  0  0
   -0.1376   -0.9305    7.6591 C   0  0  0  0  0  0  0  0  0  0  0  0
   -0.4683   -1.7297    8.7203 N   0  0  0  0  0  0  0  0  0  0  0  0
    0.2755   -1.8055    9.8347 C   0  0  0  0  0  0  0  0  0  0  0  0
    1.4277   -1.0552    9.9376 C   0  0  0  0  0  0  0  0  0  0  0  0
    2.2261   -1.1034   11.0775 C   0  0  0  0  0  0  0  0  0  0  0  0
    1.8804   -1.9109   12.1428 C   0  0  0  0  0  0  0  0  0  0  0  0
    0.7251   -2.6585   12.0309 C   0  0  0  0  0  0  0  0  0  0  0  0
   -0.0698   -2.6127   10.8996 C   0  0  0  0  0  0  0  0  0  0  0  0
    2.6312   -2.0213   13.3341 N   0  0  0  0  0  0  0  0  0  0  0  0
    2.7585   -0.8559   14.1752 C   0  0  0  0  0  0  0  0  0  0  0  0
    1.6271   -0.7695   15.1691 C   0  0  0  0  0  0  0  0  0  0  0  0
    1.8090   -1.1482   16.4749 C   0  0  0  0  0  0  0  0  0  0  0  0
    0.7777   -1.0650   17.3734 C   0  0  0  0  0  0  0  0  0  0  0  0
   -0.4811   -0.6054   17.0297 C   0  0  0  0  0  0  0  0  0  0  0  0
   -0.6392   -0.2305   15.7116 C   0  0  0  0  0  0  0  0  0  0  0  0
    0.3864   -0.3071   14.7937 C   0  0  0  0  0  0  0  0  0  0  0  0
    3.2426   -3.2462   13.6709 C   0  0  0  0  0  0  0  0  0  0  0  0
    4.0113   -3.2981   14.6746 O   0  0  0  0  0  0  0  0  0  0  0  0
    3.0583   -4.4783   12.9433 C   0  0  0  0  0  0  0  0  0  0  0  0
    3.4711   -4.8648   11.7040 C   0  0  0  0  0  0  0  0  0  0  0  0
    3.1623   -6.0830   11.2479 C   0  0  0  0  0  0  0  0  0  0  0  0
    2.4187   -6.9354   12.0595 C   0  0  0  0  0  0  0  0  0  0  0  0
    2.1806   -5.8806   13.5383 S   0  0  0  0  0  0  0  0  0  0  0  0
    1.7571   -0.2543    8.8701 C   0  0  0  0  0  0  0  0  0  0  0  0
    2.7978    0.4179    8.9618 O   0  0  0  0  0  0  0  0  0  0  0  0
    0.9777   -0.1918    7.7370 N   0  0  0  0  0  0  0  0  0  0  0  0
    1.3710    0.6486    6.6600 C   0  0  0  0  0  0  0  0  0  0  0  0
    1.0970    2.0963    6.8547 C   0  0  0  0  0  0  0  0  0  0  0  0
    0.9659    2.6209    8.1421 C   0  0  0  0  0  0  0  0  0  0  0  0
    0.7212    3.9336    8.4035 C   0  0  0  0  0  0  0  0  0  0  0  0
    0.5876    4.8296    7.3734 C   0  0  0  0  0  0  0  0  0  0  0  0
    0.7098    4.3494    6.0878 C   0  0  0  0  0  0  0  0  0  0  0  0
    0.9616    2.9983    5.8252 C   0  0  0  0  0  0  0  0  0  0  0  0
    0.3352    6.2459    7.5796 C   0  0  0  0  0  0  0  0  0  0  0  0
    1.3699    7.1460    7.8285 C   0  0  0  0  0  0  0  0  0  0  0  0
    1.0883    8.4834    8.0119 C   0  0  0  0  0  0  0  0  0  0  0  0
   -0.2058    8.9485    7.9531 C   0  0  0  0  0  0  0  0  0  0  0  0
   -1.2252    8.0410    7.7047 C   0  0  0  0  0  0  0  0  0  0  0  0
   -0.9555    6.7021    7.5201 C   0  0  0  0  0  0  0  0  0  0  0  0
   -2.0210    5.7486    7.2643 C   0  0  0  0  0  0  0  0  0  0  0  0
   -1.8150    4.4226    7.2319 N   0  0  0  0  0  0  0  0  0  0  0  0
   -2.9562    3.8223    6.9757 N   0  0  0  0  0  0  0  0  0  0  0  0
   -3.8663    4.7701    6.8496 N   0  0  0  0  0  0  0  0  0  0  0  0
   -3.3157    5.9572    7.0225 N   0  0  0  0  0  0  0  0  0  0  0  0
  1  2  1  0
  2  3  1  0
  3  4  2  0
  4  5  1  0
  5  6  2  0
  6  7  1  0
  7  8  2  0
  8  9  1  0
  9 10  2  0
  8 11  1  0
 11 12  1  0
 12 13  1  0
 13 14  2  0
 14 15  1  0
 15 16  2  0
 16 17  1  0
 17 18  2  0
 11 19  1  0
 19 20  2  0
 19 21  1  0
 21 22  2  0
 22 23  1  0
 23 24  2  0
 24 25  1  0
  6 26  1  0
 26 27  2  0
 26 28  1  0
 28 29  1  0
 29 30  1  0
 30 31  2  0
 31 32  1  0
 32 33  2  0
 33 34  1  0
 34 35  2  0
 33 36  1  0
 36 37  2  0
 37 38  1  0
 38 39  2  0
 39 40  1  0
 40 41  2  0
 41 42  1  0
 42 43  2  0
 43 44  1  0
 44 45  1  0
 45 46  2  0
 28  3  1  0
 10  5  1  0
 18 13  1  0
 25 21  1  0
 35 30  1  0
 41 36  1  0
 46 42  1  0
M  END
$$$$
