
     RDKit          3D

 46 52  0  0  0  0  0  0  0  0999 V2000
    1.8095   -2.7970    4.6127 C   0  0  0  0  0  0  0  0  0  0  0  0
    1.4516   -1.3396    4.9886 C   0  0  0  0  0  0  0  0  0  0  0  0
    1.2772   -1.2445    6.4384 C   0  0  0  0  0  0  0  0  0  0  0  0
    2.0716   -2.0349    7.2248 N   0  0  0  0  0  0  0  0  0  0  0  0
    2.0211   -2.0131    8.5657 C   0  0  0  0  0  0  0  0  0  0  0  0
    1.1387   -1.1652    9.2010 C   0  0  0  0  0  0  0  0  0  0  0  0
    1.0535   -1.1138   10.5899 C   0  0  0  0  0  0  0  0  0  0  0  0
    1.8578   -1.9182   11.3725 C   0  0  0  0  0  0  0  0  0  0  0  0
    2.7381   -2.7640   10.7278 C   0  0  0  0  0  0  0  0  0  0  0  0
    2.8249   -2.8170    9.3482 C   0  0  0  0  0  0  0  0  0  0  0  0
    1.8380   -1.9297   12.7848 N   0  0  0  0  0  0  0  0  0  0  0  0
    0.9091   -2.8103   13.4508 C   0  0  0  0  0  0  0  0  0  0  0  0
    1.3892   -4.2399   13.4203 C   0  0  0  0  0  0  0  0  0  0  0  0
    0.6095   -5.2312   12.8808 C   0  0  0  0  0  0  0  0  0  0  0  0
    1.0525   -6.5277   12.8540 C   0  0  0  0  0  0  0  0  0  0  0  0
    2.2834   -6.9101   13.3568 C   0  0  0  0  0  0  0  0  0  0  0  0
    3.0489   -5.8959   13.8936 C   0  0  0  0  0  0  0  0  0  0  0  0
    2.6201   -4.5863   13.9292 C   0  0  0  0  0  0  0  0  0  0  0  0
    2.7053   -1.0862   13.5087 C   0  0  0  0  0  0  0  0  0  0  0  0
    2.6531   -1.0840   14.7729 O   0  0  0  0  0  0  0  0  0  0  0  0
    3.6732   -0.2008   12.9081 C   0  0  0  0  0  0  0  0  0  0  0  0
    3.5694    0.6837   11.8772 C   0  0  0  0  0  0  0  0  0  0  0  0
    4.6350    1.3983   11.5016 C   0  0  0  0  0  0  0  0  0  0  0  0
    5.8371    1.2188   12.1806 C   0  0  0  0  0  0  0  0  0  0  0  0
    5.3518   -0.0510   13.4085 S   0  0  0  0  0  0  0  0  0  0  0  0
    0.3429   -0.3726    8.4083 C   0  0  0  0  0  0  0  0  0  0  0  0
   -0.4486    0.3944    8.9815 O   0  0  0  0  0  0  0  0  0  0  0  0
    0.4116   -0.4129    7.0339 N   0  0  0  0  0  0  0  0  0  0  0  0
   -0.4305    0.4351    6.2640 C   0  0  0  0  0  0  0  0  0  0  0  0
   -0.2606    1.8904    6.5131 C   0  0  0  0  0  0  0  0  0  0  0  0
    0.9462    2.3824    7.0145 C   0  0  0  0  0  0  0  0  0  0  0  0
    1.1820    3.6992    7.2634 C   0  0  0  0  0  0  0  0  0  0  0  0
    0.2061    4.6329    7.0232 C   0  0  0  0  0  0  0  0  0  0  0  0
   -0.9996    4.1856    6.5287 C   0  0  0  0  0  0  0  0  0  0  0  0
   -1.2361    2.8302    6.2745 C   0  0  0  0  0  0  0  0  0  0  0  0
    0.3921    6.0552    7.2570 C   0  0  0  0  0  0  0  0  0  0  0  0
    0.3084    6.9850    6.2220 C   0  0  0  0  0  0  0  0  0  0  0  0
    0.4846    8.3267    6.4874 C   0  0  0  0  0  0  0  0  0  0  0  0
    0.7435    8.7671    7.7655 C   0  0  0  0  0  0  0  0  0  0  0  0
    0.8241    7.8301    8.7854 C   0  0  0  0  0  0  0  0  0  0  0  0
    0.6500    6.4867    8.5316 C   0  0  0  0  0  0  0  0  0  0  0  0
    0.7382    5.5026    9.5965 C   0  0  0  0  0  0  0  0  0  0  0  0
   -0.2837    4.6970    9.9258 N   0  0  0  0  0  0  0  0  0  0  0  0
    0.0898    3.9235   10.9210 N   0  0  0  0  0  0  0  0  0  0  0  0
    1.3370    4.2466   11.2085 N   0  0  0  0  0  0  0  0  0  0  0  0
    1.7540    5.2112   10.4098 N   0  0  0  0  0  0  0  0  0  0  0  0
  1  2  1  0
  2  3  1  0
  3  4  2  0
  4  5  1  0
  5  6  2  0
  6  7  1  0
  7  8  2  0
  8  9  1  0
  9 10  2  0
  8 11  1  0
 11 12  1  0
 12 13  1  0
 13 14  2  0
 14 15  1  0
 15 16  2  0
 16 17  1  0
 17 18  2  0
 11 19  1  0
 19 20  2  0
 19 21  1  0
 21 22  2  0
 22 23  1  0
 23 24  2  0
 24 25  1  0
  6 26  1  0
 26 27  2  0
 26 28  1  0
 28 29  1  0
 29 30  1  0
 30 31  2  0
 31 32  1  0
 32 33  2  0
 33 34  1  0
 34 35  2  0
 33 36  1  0
 36 37  2  0
 37 38  1  0
 38 39  2  0
 39 40  1  0
 40 41  2  0
 41 42  1  0
 42 43  2  0
 43 44  1  0
 44 45  1  0
 45 46  2  0
 28  3  1  0
 10  5  1  0
 18 13  1  0
 25 21  1  0
 35 30  1  0
 41 36  1  0
 46 42  1  0
M  END
$$$$
