
     RDKit          3D

 46 52  0  0  0  0  0  0  0  0999 V2000
    0.9205   -2.7026    4.4844 C   0  0  0  0  0  0  0  0  0  0  0  0
    1.6058   -1.4429    5.0649 C   0  0  0  0  0  0  0  0  0  0  0  0
    1.4352   -1.4275    6.5182 C   0  0  0  0  0  0  0  0  0  0  0  0
    2.2369   -2.2541    7.2586 N   0  0  0  0  0  0  0  0  0  0  0  0
    2.1902   -2.3053    8.5987 C   0  0  0  0  0  0  0  0  0  0  0  0
    1.3044   -1.4987    9.2813 C   0  0  0  0  0  0  0  0  0  0  0  0
    1.2231   -1.5231   10.6713 C   0  0  0  0  0  0  0  0  0  0  0  0
    2.0347   -2.3635   11.4070 C   0  0  0  0  0  0  0  0  0  0  0  0
    2.9184   -3.1675   10.7152 C   0  0  0  0  0  0  0  0  0  0  0  0
    3.0014   -3.1452    9.3345 C   0  0  0  0  0  0  0  0  0  0  0  0
    2.0192   -2.4516   12.8167 N   0  0  0  0  0  0  0  0  0  0  0  0
    1.0974   -3.3723   13.4365 C   0  0  0  0  0  0  0  0  0  0  0  0
    1.5450   -4.8016   13.2579 C   0  0  0  0  0  0  0  0  0  0  0  0
    2.8006   -5.1977   13.6435 C   0  0  0  0  0  0  0  0  0  0  0  0
    3.2003   -6.4982   13.4806 C   0  0  0  0  0  0  0  0  0  0  0  0
    2.3839   -7.4705   12.9309 C   0  0  0  0  0  0  0  0  0  0  0  0
    1.1268   -7.0481   12.5514 C   0  0  0  0  0  0  0  0  0  0  0  0
    0.7071   -5.7444   12.7074 C   0  0  0  0  0  0  0  0  0  0  0  0
    2.8839   -1.6434   13.5828 C   0  0  0  0  0  0  0  0  0  0  0  0
    2.8107   -1.6834   14.8454 O   0  0  0  0  0  0  0  0  0  0  0  0
    3.8716   -0.7498   13.0285 C   0  0  0  0  0  0  0  0  0  0  0  0
    4.8246   -0.9387   12.0736 C   0  0  0  0  0  0  0  0  0  0  0  0
    5.6356    0.0678   11.7322 C   0  0  0  0  0  0  0  0  0  0  0  0
    5.4843    1.2972   12.3679 C   0  0  0  0  0  0  0  0  0  0  0  0
    4.0931    0.9289   13.5014 S   0  0  0  0  0  0  0  0  0  0  0  0
    0.5013   -0.6695    8.5348 C   0  0  0  0  0  0  0  0  0  0  0  0
   -0.2933    0.0602    9.1508 O   0  0  0  0  0  0  0  0  0  0  0  0
    0.5661   -0.6350    7.1601 N   0  0  0  0  0  0  0  0  0  0  0  0
   -0.2836    0.2481    6.4394 C   0  0  0  0  0  0  0  0  0  0  0  0
   -0.0552    1.6943    6.6943 C   0  0  0  0  0  0  0  0  0  0  0  0
   -1.0695    2.6214    6.4465 C   0  0  0  0  0  0  0  0  0  0  0  0
   -0.9410    3.9592    6.6592 C   0  0  0  0  0  0  0  0  0  0  0  0
    0.2356    4.4715    7.1440 C   0  0  0  0  0  0  0  0  0  0  0  0
    1.2609    3.5875    7.4002 C   0  0  0  0  0  0  0  0  0  0  0  0
    1.1228    2.2127    7.1796 C   0  0  0  0  0  0  0  0  0  0  0  0
    0.4392    5.8869    7.4033 C   0  0  0  0  0  0  0  0  0  0  0  0
    0.1806    6.8542    6.4336 C   0  0  0  0  0  0  0  0  0  0  0  0
    0.3806    8.1876    6.7223 C   0  0  0  0  0  0  0  0  0  0  0  0
    0.8344    8.5833    7.9601 C   0  0  0  0  0  0  0  0  0  0  0  0
    1.0877    7.6094    8.9151 C   0  0  0  0  0  0  0  0  0  0  0  0
    0.8915    6.2738    8.6375 C   0  0  0  0  0  0  0  0  0  0  0  0
    1.1601    5.2512    9.6337 C   0  0  0  0  0  0  0  0  0  0  0  0
    0.2088    4.4287   10.1031 N   0  0  0  0  0  0  0  0  0  0  0  0
    0.7466    3.6207   10.9897 N   0  0  0  0  0  0  0  0  0  0  0  0
    2.0251    3.9393   11.0707 N   0  0  0  0  0  0  0  0  0  0  0  0
    2.3001    4.9350   10.2490 N   0  0  0  0  0  0  0  0  0  0  0  0
  1  2  1  0
  2  3  1  0
  3  4  2  0
  4  5  1  0
  5  6  2  0
  6  7  1  0
  7  8  2  0
  8  9  1  0
  9 10  2  0
  8 11  1  0
 11 12  1  0
 12 13  1  0
 13 14  2  0
 14 15  1  0
 15 16  2  0
 16 17  1  0
 17 18  2  0
 11 19  1  0
 19 20  2  0
 19 21  1  0
 21 22  2  0
 22 23  1  0
 23 24  2  0
 24 25  1  0
  6 26  1  0
 26 27  2  0
 26 28  1  0
 28 29  1  0
 29 30  1  0
 30 31  2  0
 31 32  1  0
 32 33  2  0
 33 34  1  0
 34 35  2  0
 33 36  1  0
 36 37  2  0
 37 38  1  0
 38 39  2  0
 39 40  1  0
 40 41  2  0
 41 42  1  0
 42 43  2  0
 43 44  1  0
 44 45  1  0
 45 46  2  0
 28  3  1  0
 10  5  1  0
 18 13  1  0
 25 21  1  0
 35 30  1  0
 41 36  1  0
 46 42  1  0
M  END
$$$$
