
     RDKit          3D

 46 52  0  0  0  0  0  0  0  0999 V2000
    0.9720   -3.5213    5.0837 C   0  0  0  0  0  0  0  0  0  0  0  0
    0.3435   -2.2364    5.6730 C   0  0  0  0  0  0  0  0  0  0  0  0
    0.8605   -2.0232    7.0253 C   0  0  0  0  0  0  0  0  0  0  0  0
    0.6576   -3.0170    7.9447 N   0  0  0  0  0  0  0  0  0  0  0  0
    1.1100   -2.9457    9.2061 C   0  0  0  0  0  0  0  0  0  0  0  0
    1.8130   -1.8328    9.6164 C   0  0  0  0  0  0  0  0  0  0  0  0
    2.2976   -1.7187   10.9169 C   0  0  0  0  0  0  0  0  0  0  0  0
    2.0838   -2.7264   11.8363 C   0  0  0  0  0  0  0  0  0  0  0  0
    1.3789   -3.8368   11.4167 C   0  0  0  0  0  0  0  0  0  0  0  0
    0.8966   -3.9528   10.1253 C   0  0  0  0  0  0  0  0  0  0  0  0
    2.5397   -2.6939   13.1728 N   0  0  0  0  0  0  0  0  0  0  0  0
    3.3888   -3.7653   13.6343 C   0  0  0  0  0  0  0  0  0  0  0  0
    4.7590   -3.6889   13.0082 C   0  0  0  0  0  0  0  0  0  0  0  0
    5.5107   -2.5452   13.1009 C   0  0  0  0  0  0  0  0  0  0  0  0
    6.7557   -2.4831   12.5319 C   0  0  0  0  0  0  0  0  0  0  0  0
    7.3200   -3.5431   11.8449 C   0  0  0  0  0  0  0  0  0  0  0  0
    6.5453   -4.6817   11.7655 C   0  0  0  0  0  0  0  0  0  0  0  0
    5.2910   -4.7628   12.3315 C   0  0  0  0  0  0  0  0  0  0  0  0
    2.1550   -1.6373   14.0232 C   0  0  0  0  0  0  0  0  0  0  0  0
    2.5639   -1.6271   15.2205 O   0  0  0  0  0  0  0  0  0  0  0  0
    1.3093   -0.5373   13.6279 C   0  0  0  0  0  0  0  0  0  0  0  0
    0.2912   -0.4607   12.7260 C   0  0  0  0  0  0  0  0  0  0  0  0
   -0.3461    0.6991   12.5364 C   0  0  0  0  0  0  0  0  0  0  0  0
    0.0507    1.8117   13.2734 C   0  0  0  0  0  0  0  0  0  0  0  0
    1.4101    1.0958   14.2710 S   0  0  0  0  0  0  0  0  0  0  0  0
    2.0154   -0.8370    8.6905 C   0  0  0  0  0  0  0  0  0  0  0  0
    2.6529    0.1633    9.0596 O   0  0  0  0  0  0  0  0  0  0  0  0
    1.5407   -0.9317    7.4017 N   0  0  0  0  0  0  0  0  0  0  0  0
    1.7862    0.1258    6.4838 C   0  0  0  0  0  0  0  0  0  0  0  0
    0.9697    1.3494    6.6955 C   0  0  0  0  0  0  0  0  0  0  0  0
    1.5478    2.6133    6.5606 C   0  0  0  0  0  0  0  0  0  0  0  0
    0.8677    3.7793    6.7319 C   0  0  0  0  0  0  0  0  0  0  0  0
   -0.4649    3.7599    7.0571 C   0  0  0  0  0  0  0  0  0  0  0  0
   -1.0710    2.5308    7.1998 C   0  0  0  0  0  0  0  0  0  0  0  0
   -0.3663    1.3352    7.0222 C   0  0  0  0  0  0  0  0  0  0  0  0
   -1.2546    4.9653    7.2456 C   0  0  0  0  0  0  0  0  0  0  0  0
   -2.4472    5.1755    6.5555 C   0  0  0  0  0  0  0  0  0  0  0  0
   -3.1704    6.3301    6.7683 C   0  0  0  0  0  0  0  0  0  0  0  0
   -2.7321    7.2858    7.6567 C   0  0  0  0  0  0  0  0  0  0  0  0
   -1.5433    7.0630    8.3362 C   0  0  0  0  0  0  0  0  0  0  0  0
   -0.8123    5.9127    8.1312 C   0  0  0  0  0  0  0  0  0  0  0  0
    0.4351    5.6784    8.8377 C   0  0  0  0  0  0  0  0  0  0  0  0
    1.5081    6.4726    8.6975 N   0  0  0  0  0  0  0  0  0  0  0  0
    2.4799    6.0096    9.4521 N   0  0  0  0  0  0  0  0  0  0  0  0
    2.0133    4.9336   10.0579 N   0  0  0  0  0  0  0  0  0  0  0  0
    0.7633    4.7124    9.6965 N   0  0  0  0  0  0  0  0  0  0  0  0
  1  2  1  0
  2  3  1  0
  3  4  2  0
  4  5  1  0
  5  6  2  0
  6  7  1  0
  7  8  2  0
  8  9  1  0
  9 10  2  0
  8 11  1  0
 11 12  1  0
 12 13  1  0
 13 14  2  0
 14 15  1  0
 15 16  2  0
 16 17  1  0
 17 18  2  0
 11 19  1  0
 19 20  2  0
 19 21  1  0
 21 22  2  0
 22 23  1  0
 23 24  2  0
 24 25  1  0
  6 26  1  0
 26 27  2  0
 26 28  1  0
 28 29  1  0
 29 30  1  0
 30 31  2  0
 31 32  1  0
 32 33  2  0
 33 34  1  0
 34 35  2  0
 33 36  1  0
 36 37  2  0
 37 38  1  0
 38 39  2  0
 39 40  1  0
 40 41  2  0
 41 42  1  0
 42 43  2  0
 43 44  1  0
 44 45  1  0
 45 46  2  0
 28  3  1  0
 10  5  1  0
 18 13  1  0
 25 21  1  0
 35 30  1  0
 41 36  1  0
 46 42  1  0
M  END
$$$$
