
     RDKit          3D

 46 52  0  0  0  0  0  0  0  0999 V2000
    0.9760   -2.3484    4.5031 C   0  0  0  0  0  0  0  0  0  0  0  0
    1.5927   -1.0781    5.1350 C   0  0  0  0  0  0  0  0  0  0  0  0
    1.3744   -1.1045    6.5817 C   0  0  0  0  0  0  0  0  0  0  0  0
    2.2207   -1.8722    7.3358 N   0  0  0  0  0  0  0  0  0  0  0  0
    2.1353   -1.9520    8.6727 C   0  0  0  0  0  0  0  0  0  0  0  0
    1.1609   -1.2380    9.3374 C   0  0  0  0  0  0  0  0  0  0  0  0
    1.0370   -1.2951   10.7232 C   0  0  0  0  0  0  0  0  0  0  0  0
    1.8945   -2.0755   11.4728 C   0  0  0  0  0  0  0  0  0  0  0  0
    2.8669   -2.7871   10.7988 C   0  0  0  0  0  0  0  0  0  0  0  0
    2.9923   -2.7321    9.4223 C   0  0  0  0  0  0  0  0  0  0  0  0
    1.8411   -2.1907   12.8796 N   0  0  0  0  0  0  0  0  0  0  0  0
    0.8599   -3.0760   13.4587 C   0  0  0  0  0  0  0  0  0  0  0  0
    1.3910   -4.4828   13.5768 C   0  0  0  0  0  0  0  0  0  0  0  0
    0.5975   -5.4954   14.0531 C   0  0  0  0  0  0  0  0  0  0  0  0
    1.0853   -6.7718   14.1556 C   0  0  0  0  0  0  0  0  0  0  0  0
    2.3767   -7.1123   13.7945 C   0  0  0  0  0  0  0  0  0  0  0  0
    3.1548   -6.0776   13.3185 C   0  0  0  0  0  0  0  0  0  0  0  0
    2.6814   -4.7876   13.2082 C   0  0  0  0  0  0  0  0  0  0  0  0
    2.7266   -1.4426   13.6821 C   0  0  0  0  0  0  0  0  0  0  0  0
    2.5601   -1.4257   14.9363 O   0  0  0  0  0  0  0  0  0  0  0  0
    3.8368   -0.6735   13.1749 C   0  0  0  0  0  0  0  0  0  0  0  0
    4.9216   -1.0350   12.4344 C   0  0  0  0  0  0  0  0  0  0  0  0
    5.8288   -0.1163   12.0878 C   0  0  0  0  0  0  0  0  0  0  0  0
    5.6404    1.2012   12.4966 C   0  0  0  0  0  0  0  0  0  0  0  0
    4.0657    1.0522   13.4208 S   0  0  0  0  0  0  0  0  0  0  0  0
    0.3133   -0.4677    8.5772 C   0  0  0  0  0  0  0  0  0  0  0  0
   -0.5614    0.1790    9.1773 O   0  0  0  0  0  0  0  0  0  0  0  0
    0.4193   -0.4022    7.2062 N   0  0  0  0  0  0  0  0  0  0  0  0
   -0.4803    0.4172    6.4710 C   0  0  0  0  0  0  0  0  0  0  0  0
   -0.3061    1.8803    6.6653 C   0  0  0  0  0  0  0  0  0  0  0  0
    0.9493    2.4037    6.9811 C   0  0  0  0  0  0  0  0  0  0  0  0
    1.1916    3.7295    7.1685 C   0  0  0  0  0  0  0  0  0  0  0  0
    0.1731    4.6409    7.0508 C   0  0  0  0  0  0  0  0  0  0  0  0
   -1.0811    4.1624    6.7408 C   0  0  0  0  0  0  0  0  0  0  0  0
   -1.3241    2.7979    6.5491 C   0  0  0  0  0  0  0  0  0  0  0  0
    0.3618    6.0710    7.2283 C   0  0  0  0  0  0  0  0  0  0  0  0
    0.3973    6.9456    6.1437 C   0  0  0  0  0  0  0  0  0  0  0  0
    0.5717    8.2970    6.3557 C   0  0  0  0  0  0  0  0  0  0  0  0
    0.7122    8.8011    7.6287 C   0  0  0  0  0  0  0  0  0  0  0  0
    0.6749    7.9186    8.6985 C   0  0  0  0  0  0  0  0  0  0  0  0
    0.5014    6.5661    8.4983 C   0  0  0  0  0  0  0  0  0  0  0  0
    0.4664    5.6388    9.6159 C   0  0  0  0  0  0  0  0  0  0  0  0
   -0.6494    4.9909    9.9859 N   0  0  0  0  0  0  0  0  0  0  0  0
   -0.3747    4.2315   11.0232 N   0  0  0  0  0  0  0  0  0  0  0  0
    0.9049    4.4066   11.2964 N   0  0  0  0  0  0  0  0  0  0  0  0
    1.4395    5.2641   10.4472 N   0  0  0  0  0  0  0  0  0  0  0  0
  1  2  1  0
  2  3  1  0
  3  4  2  0
  4  5  1  0
  5  6  2  0
  6  7  1  0
  7  8  2  0
  8  9  1  0
  9 10  2  0
  8 11  1  0
 11 12  1  0
 12 13  1  0
 13 14  2  0
 14 15  1  0
 15 16  2  0
 16 17  1  0
 17 18  2  0
 11 19  1  0
 19 20  2  0
 19 21  1  0
 21 22  2  0
 22 23  1  0
 23 24  2  0
 24 25  1  0
  6 26  1  0
 26 27  2  0
 26 28  1  0
 28 29  1  0
 29 30  1  0
 30 31  2  0
 31 32  1  0
 32 33  2  0
 33 34  1  0
 34 35  2  0
 33 36  1  0
 36 37  2  0
 37 38  1  0
 38 39  2  0
 39 40  1  0
 40 41  2  0
 41 42  1  0
 42 43  2  0
 43 44  1  0
 44 45  1  0
 45 46  2  0
 28  3  1  0
 10  5  1  0
 18 13  1  0
 25 21  1  0
 35 30  1  0
 41 36  1  0
 46 42  1  0
M  END
$$$$
