
     RDKit          3D

 46 52  0  0  0  0  0  0  0  0999 V2000
    0.9467   -2.9667    5.1546 C   0  0  0  0  0  0  0  0  0  0  0  0
    0.4833   -1.6596    5.8400 C   0  0  0  0  0  0  0  0  0  0  0  0
    0.7590   -1.7435    7.2747 C   0  0  0  0  0  0  0  0  0  0  0  0
    0.2217   -2.7985    7.9620 N   0  0  0  0  0  0  0  0  0  0  0  0
    0.4289   -2.9950    9.2733 C   0  0  0  0  0  0  0  0  0  0  0  0
    1.2143   -2.1088    9.9796 C   0  0  0  0  0  0  0  0  0  0  0  0
    1.4522   -2.2755   11.3415 C   0  0  0  0  0  0  0  0  0  0  0  0
    0.9021   -3.3418   12.0246 C   0  0  0  0  0  0  0  0  0  0  0  0
    0.1169   -4.2239   11.3093 C   0  0  0  0  0  0  0  0  0  0  0  0
   -0.1208   -4.0609    9.9563 C   0  0  0  0  0  0  0  0  0  0  0  0
    1.0918   -3.5872   13.4026 N   0  0  0  0  0  0  0  0  0  0  0  0
    1.5278   -4.9002   13.8120 C   0  0  0  0  0  0  0  0  0  0  0  0
    3.0296   -5.0251   13.7481 C   0  0  0  0  0  0  0  0  0  0  0  0
    3.7906   -4.9400   14.8863 C   0  0  0  0  0  0  0  0  0  0  0  0
    5.1543   -5.0566   14.8216 C   0  0  0  0  0  0  0  0  0  0  0  0
    5.8340   -5.2624   13.6343 C   0  0  0  0  0  0  0  0  0  0  0  0
    5.0474   -5.3447   12.5041 C   0  0  0  0  0  0  0  0  0  0  0  0
    3.6744   -5.2299   12.5496 C   0  0  0  0  0  0  0  0  0  0  0  0
    0.8457   -2.5642   14.3411 C   0  0  0  0  0  0  0  0  0  0  0  0
    0.9954   -2.8069   15.5738 O   0  0  0  0  0  0  0  0  0  0  0  0
    0.4249   -1.2271   14.0001 C   0  0  0  0  0  0  0  0  0  0  0  0
    0.5921   -0.4898   12.8668 C   0  0  0  0  0  0  0  0  0  0  0  0
    0.1000    0.7514   12.7998 C   0  0  0  0  0  0  0  0  0  0  0  0
   -0.5784    1.2652   13.9017 C   0  0  0  0  0  0  0  0  0  0  0  0
   -0.4726   -0.1497   15.0605 S   0  0  0  0  0  0  0  0  0  0  0  0
    1.7527   -1.0509    9.2863 C   0  0  0  0  0  0  0  0  0  0  0  0
    2.4641   -0.2555    9.9225 O   0  0  0  0  0  0  0  0  0  0  0  0
    1.5253   -0.8690    7.9408 N   0  0  0  0  0  0  0  0  0  0  0  0
    2.1141    0.2393    7.2730 C   0  0  0  0  0  0  0  0  0  0  0  0
    1.3188    1.4943    7.3081 C   0  0  0  0  0  0  0  0  0  0  0  0
    1.8654    2.6874    6.8311 C   0  0  0  0  0  0  0  0  0  0  0  0
    1.2010    3.8749    6.8234 C   0  0  0  0  0  0  0  0  0  0  0  0
   -0.0821    3.9513    7.3028 C   0  0  0  0  0  0  0  0  0  0  0  0
   -0.6557    2.7944    7.7831 C   0  0  0  0  0  0  0  0  0  0  0  0
    0.0326    1.5762    7.7883 C   0  0  0  0  0  0  0  0  0  0  0  0
   -0.8534    5.1830    7.3164 C   0  0  0  0  0  0  0  0  0  0  0  0
   -2.1095    5.2676    6.7182 C   0  0  0  0  0  0  0  0  0  0  0  0
   -2.8120    6.4535    6.7592 C   0  0  0  0  0  0  0  0  0  0  0  0
   -2.2909    7.5632    7.3851 C   0  0  0  0  0  0  0  0  0  0  0  0
   -1.0397    7.4641    7.9760 C   0  0  0  0  0  0  0  0  0  0  0  0
   -0.3286    6.2840    7.9408 C   0  0  0  0  0  0  0  0  0  0  0  0
    0.9837    6.1781    8.5546 C   0  0  0  0  0  0  0  0  0  0  0  0
    1.2474    5.3293    9.5604 N   0  0  0  0  0  0  0  0  0  0  0  0
    2.5084    5.4619    9.9076 N   0  0  0  0  0  0  0  0  0  0  0  0
    3.0254    6.3881    9.1219 N   0  0  0  0  0  0  0  0  0  0  0  0
    2.1096    6.8402    8.2858 N   0  0  0  0  0  0  0  0  0  0  0  0
  1  2  1  0
  2  3  1  0
  3  4  2  0
  4  5  1  0
  5  6  2  0
  6  7  1  0
  7  8  2  0
  8  9  1  0
  9 10  2  0
  8 11  1  0
 11 12  1  0
 12 13  1  0
 13 14  2  0
 14 15  1  0
 15 16  2  0
 16 17  1  0
 17 18  2  0
 11 19  1  0
 19 20  2  0
 19 21  1  0
 21 22  2  0
 22 23  1  0
 23 24  2  0
 24 25  1  0
  6 26  1  0
 26 27  2  0
 26 28  1  0
 28 29  1  0
 29 30  1  0
 30 31  2  0
 31 32  1  0
 32 33  2  0
 33 34  1  0
 34 35  2  0
 33 36  1  0
 36 37  2  0
 37 38  1  0
 38 39  2  0
 39 40  1  0
 40 41  2  0
 41 42  1  0
 42 43  2  0
 43 44  1  0
 44 45  1  0
 45 46  2  0
 28  3  1  0
 10  5  1  0
 18 13  1  0
 25 21  1  0
 35 30  1  0
 41 36  1  0
 46 42  1  0
M  END
$$$$
