
     RDKit          3D

 22 24  0  0  0  0  0  0  0  0999 V2000
   -1.8031   -3.4296    3.6598 C   0  0  0  0  0  0  0  0  0  0  0  0
   -0.9915   -3.2318    4.9106 C   0  0  0  0  0  0  0  0  0  0  0  0
   -0.9135   -1.8425    5.3012 N   0  0  0  0  0  0  0  0  0  0  0  0
    0.2986   -1.2198    5.7008 C   0  0  0  0  0  0  0  0  0  0  0  0
    1.3480   -1.4618    5.0492 O   0  0  0  0  0  0  0  0  0  0  0  0
    0.3850   -0.2999    6.8474 C   0  0  1  0  0  0  0  0  0  0  0  0
    1.0832   -0.8512    7.9193 O   0  0  0  0  0  0  0  0  0  0  0  0
    1.2554    0.2697    8.7395 C   0  0  2  0  0  0  0  0  0  0  0  0
    1.8950    1.2409    7.7691 C   0  0  1  0  0  0  0  0  0  0  0  0
    1.0029    1.0195    6.5399 C   0  0  2  0  0  0  0  0  0  0  0  0
    0.0876    2.0719    6.5244 O   0  0  0  0  0  0  0  0  0  0  0  0
    1.8442    2.5449    8.2110 O   0  0  0  0  0  0  0  0  0  0  0  0
    2.0972   -0.0090    9.8795 N   0  0  0  0  0  0  0  0  0  0  0  0
    2.4738   -1.2479   10.2229 C   0  0  0  0  0  0  0  0  0  0  0  0
    3.2457   -1.1962   11.3141 N   0  0  0  0  0  0  0  0  0  0  0  0
    3.3702    0.0889   11.6810 C   0  0  0  0  0  0  0  0  0  0  0  0
    2.6432    0.8220   10.7702 C   0  0  0  0  0  0  0  0  0  0  0  0
    2.5986    2.1515   10.9063 N   0  0  0  0  0  0  0  0  0  0  0  0
    3.2606    2.7453   11.9244 C   0  0  0  0  0  0  0  0  0  0  0  0
    3.9752    2.0552   12.8244 N   0  0  0  0  0  0  0  0  0  0  0  0
    4.0511    0.7212   12.7314 C   0  0  0  0  0  0  0  0  0  0  0  0
    4.7870   -0.0872   13.6434 N   0  0  0  0  0  0  0  0  0  0  0  0
  1  2  1  0
  2  3  1  0
  3  4  1  0
  4  5  2  0
  6  4  1  6
  6  7  1  0
  7  8  1  0
  8  9  1  0
  9 10  1  0
 10 11  1  1
  9 12  1  1
  8 13  1  1
 13 14  1  0
 14 15  2  0
 15 16  1  0
 16 17  2  0
 17 18  1  0
 18 19  2  0
 19 20  1  0
 20 21  2  0
 21 22  1  0
 10  6  1  0
 17 13  1  0
 21 16  1  0
M  END
$$$$
