
     RDKit          3D

 22 24  0  0  0  0  0  0  0  0999 V2000
   -2.0690   -3.0878    3.7971 C   0  0  0  0  0  0  0  0  0  0  0  0
   -0.6380   -3.0041    4.2529 C   0  0  0  0  0  0  0  0  0  0  0  0
   -0.3658   -1.7907    4.9894 N   0  0  0  0  0  0  0  0  0  0  0  0
    0.7150   -1.6677    5.9022 C   0  0  0  0  0  0  0  0  0  0  0  0
    1.6609   -2.4957    5.8369 O   0  0  0  0  0  0  0  0  0  0  0  0
    0.7809   -0.6115    6.9262 C   0  0  1  0  0  0  0  0  0  0  0  0
    1.4255   -1.0355    8.0859 O   0  0  0  0  0  0  0  0  0  0  0  0
    1.5939    0.1769    8.7645 C   0  0  2  0  0  0  0  0  0  0  0  0
    2.2921    1.0048    7.7056 C   0  0  1  0  0  0  0  0  0  0  0  0
    1.4410    0.6462    6.4796 C   0  0  2  0  0  0  0  0  0  0  0  0
    0.5523    1.7053    6.2952 O   0  0  0  0  0  0  0  0  0  0  0  0
    2.2560    2.3551    7.9773 O   0  0  0  0  0  0  0  0  0  0  0  0
    2.3859    0.0292    9.9631 N   0  0  0  0  0  0  0  0  0  0  0  0
    2.8301   -1.1557   10.4027 C   0  0  0  0  0  0  0  0  0  0  0  0
    3.5316   -0.9827   11.5284 N   0  0  0  0  0  0  0  0  0  0  0  0
    3.5419    0.3273   11.8206 C   0  0  0  0  0  0  0  0  0  0  0  0
    2.8182    0.9494   10.8282 C   0  0  0  0  0  0  0  0  0  0  0  0
    2.6703    2.2774   10.8787 N   0  0  0  0  0  0  0  0  0  0  0  0
    3.2277    2.9776   11.8918 C   0  0  0  0  0  0  0  0  0  0  0  0
    3.9367    2.3968   12.8700 N   0  0  0  0  0  0  0  0  0  0  0  0
    4.1135    1.0691   12.8645 C   0  0  0  0  0  0  0  0  0  0  0  0
    4.8514    0.3728   13.8633 N   0  0  0  0  0  0  0  0  0  0  0  0
  1  2  1  0
  2  3  1  0
  3  4  1  0
  4  5  2  0
  6  4  1  6
  6  7  1  0
  7  8  1  0
  8  9  1  0
  9 10  1  0
 10 11  1  1
  9 12  1  1
  8 13  1  1
 13 14  1  0
 14 15  2  0
 15 16  1  0
 16 17  2  0
 17 18  1  0
 18 19  2  0
 19 20  1  0
 20 21  2  0
 21 22  1  0
 10  6  1  0
 17 13  1  0
 21 16  1  0
M  END
$$$$
