
     RDKit          3D

 22 24  0  0  0  0  0  0  0  0999 V2000
   -1.3756   -3.6982    4.4951 C   0  0  0  0  0  0  0  0  0  0  0  0
   -1.0578   -2.3525    3.9030 C   0  0  0  0  0  0  0  0  0  0  0  0
   -0.8365   -1.3449    4.9152 N   0  0  0  0  0  0  0  0  0  0  0  0
    0.3578   -1.2676    5.6795 C   0  0  0  0  0  0  0  0  0  0  0  0
    1.2842   -2.0857    5.4409 O   0  0  0  0  0  0  0  0  0  0  0  0
    0.5637   -0.2701    6.7430 C   0  0  1  0  0  0  0  0  0  0  0  0
    1.2669   -0.7880    7.8281 O   0  0  0  0  0  0  0  0  0  0  0  0
    1.5582    0.3771    8.5468 C   0  0  2  0  0  0  0  0  0  0  0  0
    2.2234    1.2169    7.4762 C   0  0  1  0  0  0  0  0  0  0  0  0
    1.2627    0.9695    6.3049 C   0  0  2  0  0  0  0  0  0  0  0  0
    0.4279    2.0849    6.2395 O   0  0  0  0  0  0  0  0  0  0  0  0
    2.2890    2.5516    7.8119 O   0  0  0  0  0  0  0  0  0  0  0  0
    2.4277    0.1244    9.6720 N   0  0  0  0  0  0  0  0  0  0  0  0
    2.9779   -1.0727    9.9145 C   0  0  0  0  0  0  0  0  0  0  0  0
    3.7308   -1.0055   11.0181 N   0  0  0  0  0  0  0  0  0  0  0  0
    3.6675    0.2476   11.4950 C   0  0  0  0  0  0  0  0  0  0  0  0
    2.8454    0.9449   10.6386 C   0  0  0  0  0  0  0  0  0  0  0  0
    2.6092    2.2375   10.8867 N   0  0  0  0  0  0  0  0  0  0  0  0
    3.1755    2.8297   11.9618 C   0  0  0  0  0  0  0  0  0  0  0  0
    3.9792    2.1740   12.8108 N   0  0  0  0  0  0  0  0  0  0  0  0
    4.2469    0.8777   12.6058 C   0  0  0  0  0  0  0  0  0  0  0  0
    5.0887    0.1073   13.4571 N   0  0  0  0  0  0  0  0  0  0  0  0
  1  2  1  0
  2  3  1  0
  3  4  1  0
  4  5  2  0
  6  4  1  6
  6  7  1  0
  7  8  1  0
  8  9  1  0
  9 10  1  0
 10 11  1  1
  9 12  1  1
  8 13  1  1
 13 14  1  0
 14 15  2  0
 15 16  1  0
 16 17  2  0
 17 18  1  0
 18 19  2  0
 19 20  1  0
 20 21  2  0
 21 22  1  0
 10  6  1  0
 17 13  1  0
 21 16  1  0
M  END
$$$$
