
     RDKit          3D

 22 24  0  0  0  0  0  0  0  0999 V2000
   -2.1147   -3.6306    4.8916 C   0  0  0  0  0  0  0  0  0  0  0  0
   -1.1350   -2.6531    4.3025 C   0  0  0  0  0  0  0  0  0  0  0  0
   -0.9480   -1.4900    5.1398 N   0  0  0  0  0  0  0  0  0  0  0  0
    0.3146   -1.1164    5.6717 C   0  0  0  0  0  0  0  0  0  0  0  0
    1.3565   -1.5977    5.1547 O   0  0  0  0  0  0  0  0  0  0  0  0
    0.4620   -0.1880    6.8051 C   0  0  1  0  0  0  0  0  0  0  0  0
    1.1619   -0.7543    7.8680 O   0  0  0  0  0  0  0  0  0  0  0  0
    1.3955    0.3680    8.6709 C   0  0  2  0  0  0  0  0  0  0  0  0
    2.0506    1.3028    7.6754 C   0  0  1  0  0  0  0  0  0  0  0  0
    1.1235    1.1028    6.4686 C   0  0  2  0  0  0  0  0  0  0  0  0
    0.2495    2.1898    6.4605 O   0  0  0  0  0  0  0  0  0  0  0  0
    2.0601    2.6126    8.1028 O   0  0  0  0  0  0  0  0  0  0  0  0
    2.2509    0.0693    9.7956 N   0  0  0  0  0  0  0  0  0  0  0  0
    2.8847   -1.1021    9.9393 C   0  0  0  0  0  0  0  0  0  0  0  0
    3.5999   -1.0899   11.0697 N   0  0  0  0  0  0  0  0  0  0  0  0
    3.4275    0.1013   11.6638 C   0  0  0  0  0  0  0  0  0  0  0  0
    2.5778    0.8180   10.8514 C   0  0  0  0  0  0  0  0  0  0  0  0
    2.2363    2.0583   11.2158 N   0  0  0  0  0  0  0  0  0  0  0  0
    2.7259    2.5806   12.3625 C   0  0  0  0  0  0  0  0  0  0  0  0
    3.5543    1.9047   13.1709 N   0  0  0  0  0  0  0  0  0  0  0  0
    3.9263    0.6586   12.8501 C   0  0  0  0  0  0  0  0  0  0  0  0
    4.8014   -0.1286   13.6510 N   0  0  0  0  0  0  0  0  0  0  0  0
  1  2  1  0
  2  3  1  0
  3  4  1  0
  4  5  2  0
  6  4  1  6
  6  7  1  0
  7  8  1  0
  8  9  1  0
  9 10  1  0
 10 11  1  1
  9 12  1  1
  8 13  1  1
 13 14  1  0
 14 15  2  0
 15 16  1  0
 16 17  2  0
 17 18  1  0
 18 19  2  0
 19 20  1  0
 20 21  2  0
 21 22  1  0
 10  6  1  0
 17 13  1  0
 21 16  1  0
M  END
$$$$
