
     RDKit          3D

 22 24  0  0  0  0  0  0  0  0999 V2000
   -1.6473   -3.6860    4.5629 C   0  0  0  0  0  0  0  0  0  0  0  0
   -1.2711   -2.3811    3.9163 C   0  0  0  0  0  0  0  0  0  0  0  0
   -1.1050   -1.3175    4.8806 N   0  0  0  0  0  0  0  0  0  0  0  0
    0.1491   -0.9901    5.4608 C   0  0  0  0  0  0  0  0  0  0  0  0
    1.1942   -1.4868    4.9654 O   0  0  0  0  0  0  0  0  0  0  0  0
    0.2840   -0.0926    6.6204 C   0  0  1  0  0  0  0  0  0  0  0  0
    0.9587   -0.6929    7.6810 O   0  0  0  0  0  0  0  0  0  0  0  0
    1.1878    0.4061    8.5168 C   0  0  2  0  0  0  0  0  0  0  0  0
    1.8700    1.3597    7.5580 C   0  0  1  0  0  0  0  0  0  0  0  0
    0.9637    1.1998    6.3296 C   0  0  2  0  0  0  0  0  0  0  0  0
    0.1002    2.2952    6.3336 O   0  0  0  0  0  0  0  0  0  0  0  0
    1.8838    2.6579    8.0192 O   0  0  0  0  0  0  0  0  0  0  0  0
    2.0193    0.0702    9.6489 N   0  0  0  0  0  0  0  0  0  0  0  0
    2.3963   -1.1840    9.9307 C   0  0  0  0  0  0  0  0  0  0  0  0
    3.1575   -1.1876   11.0307 N   0  0  0  0  0  0  0  0  0  0  0  0
    3.2745    0.0769   11.4655 C   0  0  0  0  0  0  0  0  0  0  0  0
    2.5542    0.8549   10.5871 C   0  0  0  0  0  0  0  0  0  0  0  0
    2.5043    2.1752   10.7922 N   0  0  0  0  0  0  0  0  0  0  0  0
    3.1547    2.7166   11.8464 C   0  0  0  0  0  0  0  0  0  0  0  0
    3.8627    1.9821   12.7160 N   0  0  0  0  0  0  0  0  0  0  0  0
    3.9434    0.6550   12.5541 C   0  0  0  0  0  0  0  0  0  0  0  0
    4.6728   -0.1982   13.4298 N   0  0  0  0  0  0  0  0  0  0  0  0
  1  2  1  0
  2  3  1  0
  3  4  1  0
  4  5  2  0
  6  4  1  6
  6  7  1  0
  7  8  1  0
  8  9  1  0
  9 10  1  0
 10 11  1  1
  9 12  1  1
  8 13  1  1
 13 14  1  0
 14 15  2  0
 15 16  1  0
 16 17  2  0
 17 18  1  0
 18 19  2  0
 19 20  1  0
 20 21  2  0
 21 22  1  0
 10  6  1  0
 17 13  1  0
 21 16  1  0
M  END
$$$$
