
     RDKit          3D

 22 24  0  0  0  0  0  0  0  0999 V2000
   -2.4168   -2.8762    3.9742 C   0  0  0  0  0  0  0  0  0  0  0  0
   -1.5678   -2.8188    5.2145 C   0  0  0  0  0  0  0  0  0  0  0  0
   -1.2211   -1.4645    5.5812 N   0  0  0  0  0  0  0  0  0  0  0  0
    0.0932   -1.0784    5.9555 C   0  0  0  0  0  0  0  0  0  0  0  0
    1.0715   -1.6107    5.3690 O   0  0  0  0  0  0  0  0  0  0  0  0
    0.3658   -0.0796    7.0026 C   0  0  1  0  0  0  0  0  0  0  0  0
    1.0950   -0.6091    8.0648 O   0  0  0  0  0  0  0  0  0  0  0  0
    1.4445    0.5524    8.7629 C   0  0  2  0  0  0  0  0  0  0  0  0
    2.0916    1.3664    7.6616 C   0  0  1  0  0  0  0  0  0  0  0  0
    1.0812    1.1373    6.5290 C   0  0  2  0  0  0  0  0  0  0  0  0
    0.2751    2.2747    6.4860 O   0  0  0  0  0  0  0  0  0  0  0  0
    2.2058    2.7010    7.9841 O   0  0  0  0  0  0  0  0  0  0  0  0
    2.3485    0.2838    9.8567 N   0  0  0  0  0  0  0  0  0  0  0  0
    3.0834   -0.8333    9.9384 C   0  0  0  0  0  0  0  0  0  0  0  0
    3.8212   -0.8048   11.0539 N   0  0  0  0  0  0  0  0  0  0  0  0
    3.5615    0.3422   11.7009 C   0  0  0  0  0  0  0  0  0  0  0  0
    2.6348    1.0148   10.9364 C   0  0  0  0  0  0  0  0  0  0  0  0
    2.1970    2.2053   11.3595 N   0  0  0  0  0  0  0  0  0  0  0  0
    2.6669    2.7214   12.5172 C   0  0  0  0  0  0  0  0  0  0  0  0
    3.5688    2.0876   13.2798 N   0  0  0  0  0  0  0  0  0  0  0  0
    4.0384    0.8923   12.8995 C   0  0  0  0  0  0  0  0  0  0  0  0
    4.9962    0.1521   13.6490 N   0  0  0  0  0  0  0  0  0  0  0  0
  1  2  1  0
  2  3  1  0
  3  4  1  0
  4  5  2  0
  6  4  1  6
  6  7  1  0
  7  8  1  0
  8  9  1  0
  9 10  1  0
 10 11  1  1
  9 12  1  1
  8 13  1  1
 13 14  1  0
 14 15  2  0
 15 16  1  0
 16 17  2  0
 17 18  1  0
 18 19  2  0
 19 20  1  0
 20 21  2  0
 21 22  1  0
 10  6  1  0
 17 13  1  0
 21 16  1  0
M  END
$$$$
