
     RDKit          3D

 22 24  0  0  0  0  0  0  0  0999 V2000
   -0.6490   -3.0174    3.3818 C   0  0  0  0  0  0  0  0  0  0  0  0
   -1.0850   -2.9414    4.8194 C   0  0  0  0  0  0  0  0  0  0  0  0
   -0.8738   -1.6300    5.3892 N   0  0  0  0  0  0  0  0  0  0  0  0
    0.4134   -1.1306    5.7213 C   0  0  0  0  0  0  0  0  0  0  0  0
    1.4147   -1.5762    5.1021 O   0  0  0  0  0  0  0  0  0  0  0  0
    0.6320   -0.1111    6.7610 C   0  0  1  0  0  0  0  0  0  0  0  0
    1.3053   -0.6189    7.8696 O   0  0  0  0  0  0  0  0  0  0  0  0
    1.6188    0.5566    8.5616 C   0  0  2  0  0  0  0  0  0  0  0  0
    2.3220    1.3489    7.4791 C   0  0  1  0  0  0  0  0  0  0  0  0
    1.3713    1.0967    6.3008 C   0  0  2  0  0  0  0  0  0  0  0  0
    0.5688    2.2325    6.1937 O   0  0  0  0  0  0  0  0  0  0  0  0
    2.4200    2.6898    7.7805 O   0  0  0  0  0  0  0  0  0  0  0  0
    2.4651    0.3103    9.7057 N   0  0  0  0  0  0  0  0  0  0  0  0
    3.0099   -0.8854    9.9664 C   0  0  0  0  0  0  0  0  0  0  0  0
    3.7402   -0.8119   11.0847 N   0  0  0  0  0  0  0  0  0  0  0  0
    3.6675    0.4440   11.5529 C   0  0  0  0  0  0  0  0  0  0  0  0
    2.8631    1.1364   10.6759 C   0  0  0  0  0  0  0  0  0  0  0  0
    2.6222    2.4304   10.9116 N   0  0  0  0  0  0  0  0  0  0  0  0
    3.1666    3.0288   11.9947 C   0  0  0  0  0  0  0  0  0  0  0  0
    3.9527    2.3779   12.8636 N   0  0  0  0  0  0  0  0  0  0  0  0
    4.2242    1.0805   12.6717 C   0  0  0  0  0  0  0  0  0  0  0  0
    5.0482    0.3149   13.5444 N   0  0  0  0  0  0  0  0  0  0  0  0
  1  2  1  0
  2  3  1  0
  3  4  1  0
  4  5  2  0
  6  4  1  6
  6  7  1  0
  7  8  1  0
  8  9  1  0
  9 10  1  0
 10 11  1  1
  9 12  1  1
  8 13  1  1
 13 14  1  0
 14 15  2  0
 15 16  1  0
 16 17  2  0
 17 18  1  0
 18 19  2  0
 19 20  1  0
 20 21  2  0
 21 22  1  0
 10  6  1  0
 17 13  1  0
 21 16  1  0
M  END
$$$$
