
     RDKit          3D

 22 24  0  0  0  0  0  0  0  0999 V2000
   -2.4521   -3.0031    4.0955 C   0  0  0  0  0  0  0  0  0  0  0  0
   -1.0467   -2.7911    4.5877 C   0  0  0  0  0  0  0  0  0  0  0  0
   -0.8766   -1.5068    5.2284 N   0  0  0  0  0  0  0  0  0  0  0  0
    0.3586   -1.0779    5.7825 C   0  0  0  0  0  0  0  0  0  0  0  0
    1.4297   -1.5148    5.2863 O   0  0  0  0  0  0  0  0  0  0  0  0
    0.4448   -0.1416    6.9157 C   0  0  1  0  0  0  0  0  0  0  0  0
    1.1347   -0.6808    7.9990 O   0  0  0  0  0  0  0  0  0  0  0  0
    1.3093    0.4512    8.8033 C   0  0  2  0  0  0  0  0  0  0  0  0
    1.9591    1.4043    7.8217 C   0  0  1  0  0  0  0  0  0  0  0  0
    1.0715    1.1696    6.5916 C   0  0  2  0  0  0  0  0  0  0  0  0
    0.1623    2.2267    6.5561 O   0  0  0  0  0  0  0  0  0  0  0  0
    1.9134    2.7150    8.2440 O   0  0  0  0  0  0  0  0  0  0  0  0
    2.1440    0.1847    9.9514 N   0  0  0  0  0  0  0  0  0  0  0  0
    2.5918   -1.0396   10.2596 C   0  0  0  0  0  0  0  0  0  0  0  0
    3.3367   -0.9792   11.3690 N   0  0  0  0  0  0  0  0  0  0  0  0
    3.3717    0.2970   11.7833 C   0  0  0  0  0  0  0  0  0  0  0  0
    2.6180    1.0156   10.8826 C   0  0  0  0  0  0  0  0  0  0  0  0
    2.4861    2.3338   11.0642 N   0  0  0  0  0  0  0  0  0  0  0  0
    3.0884    2.9307   12.1170 C   0  0  0  0  0  0  0  0  0  0  0  0
    3.8272    2.2547   13.0079 N   0  0  0  0  0  0  0  0  0  0  0  0
    3.9897    0.9323   12.8701 C   0  0  0  0  0  0  0  0  0  0  0  0
    4.7571    0.1392   13.7695 N   0  0  0  0  0  0  0  0  0  0  0  0
  1  2  1  0
  2  3  1  0
  3  4  1  0
  4  5  2  0
  6  4  1  6
  6  7  1  0
  7  8  1  0
  8  9  1  0
  9 10  1  0
 10 11  1  1
  9 12  1  1
  8 13  1  1
 13 14  1  0
 14 15  2  0
 15 16  1  0
 16 17  2  0
 17 18  1  0
 18 19  2  0
 19 20  1  0
 20 21  2  0
 21 22  1  0
 10  6  1  0
 17 13  1  0
 21 16  1  0
M  END
$$$$
