
     RDKit          3D

 22 24  0  0  0  0  0  0  0  0999 V2000
   -0.8865   -3.0683    3.3211 C   0  0  0  0  0  0  0  0  0  0  0  0
   -1.0941   -2.8202    4.7900 C   0  0  0  0  0  0  0  0  0  0  0  0
   -0.7411   -1.4726    5.1751 N   0  0  0  0  0  0  0  0  0  0  0  0
    0.5117   -1.1382    5.7541 C   0  0  0  0  0  0  0  0  0  0  0  0
    1.5503   -1.6999    5.3179 O   0  0  0  0  0  0  0  0  0  0  0  0
    0.6527   -0.1604    6.8461 C   0  0  1  0  0  0  0  0  0  0  0  0
    1.3286   -0.6853    7.9451 O   0  0  0  0  0  0  0  0  0  0  0  0
    1.5634    0.4700    8.6995 C   0  0  2  0  0  0  0  0  0  0  0  0
    2.2457    1.3503    7.6730 C   0  0  1  0  0  0  0  0  0  0  0  0
    1.3353    1.1057    6.4616 C   0  0  2  0  0  0  0  0  0  0  0  0
    0.4751    2.2013    6.3894 O   0  0  0  0  0  0  0  0  0  0  0  0
    2.2646    2.6781    8.0400 O   0  0  0  0  0  0  0  0  0  0  0  0
    2.3971    0.2134    9.8504 N   0  0  0  0  0  0  0  0  0  0  0  0
    2.9462   -0.9824   10.1017 C   0  0  0  0  0  0  0  0  0  0  0  0
    3.6623   -0.9196   11.2298 N   0  0  0  0  0  0  0  0  0  0  0  0
    3.5760    0.3293   11.7139 C   0  0  0  0  0  0  0  0  0  0  0  0
    2.7781    1.0287   10.8365 C   0  0  0  0  0  0  0  0  0  0  0  0
    2.5262    2.3179   11.0867 N   0  0  0  0  0  0  0  0  0  0  0  0
    3.0535    2.9049   12.1843 C   0  0  0  0  0  0  0  0  0  0  0  0
    3.8330    2.2471   13.0540 N   0  0  0  0  0  0  0  0  0  0  0  0
    4.1149    0.9540   12.8480 C   0  0  0  0  0  0  0  0  0  0  0  0
    4.9331    0.1817   13.7204 N   0  0  0  0  0  0  0  0  0  0  0  0
  1  2  1  0
  2  3  1  0
  3  4  1  0
  4  5  2  0
  6  4  1  6
  6  7  1  0
  7  8  1  0
  8  9  1  0
  9 10  1  0
 10 11  1  1
  9 12  1  1
  8 13  1  1
 13 14  1  0
 14 15  2  0
 15 16  1  0
 16 17  2  0
 17 18  1  0
 18 19  2  0
 19 20  1  0
 20 21  2  0
 21 22  1  0
 10  6  1  0
 17 13  1  0
 21 16  1  0
M  END
$$$$
