
     RDKit          3D

 22 24  0  0  0  0  0  0  0  0999 V2000
   -1.6581   -3.0860    3.4581 C   0  0  0  0  0  0  0  0  0  0  0  0
   -0.9795   -2.8666    4.7824 C   0  0  0  0  0  0  0  0  0  0  0  0
   -0.8662   -1.4650    5.1165 N   0  0  0  0  0  0  0  0  0  0  0  0
    0.3400   -0.8770    5.5810 C   0  0  0  0  0  0  0  0  0  0  0  0
    1.4151   -1.1475    4.9848 O   0  0  0  0  0  0  0  0  0  0  0  0
    0.3916    0.0387    6.7331 C   0  0  1  0  0  0  0  0  0  0  0  0
    1.0643   -0.5135    7.8207 O   0  0  0  0  0  0  0  0  0  0  0  0
    1.2091    0.6049    8.6496 C   0  0  2  0  0  0  0  0  0  0  0  0
    1.8689    1.5833    7.7001 C   0  0  1  0  0  0  0  0  0  0  0  0
    1.0104    1.3624    6.4471 C   0  0  2  0  0  0  0  0  0  0  0  0
    0.0904    2.4101    6.4117 O   0  0  0  0  0  0  0  0  0  0  0  0
    1.7997    2.8852    8.1457 O   0  0  0  0  0  0  0  0  0  0  0  0
    2.0221    0.3258    9.8101 N   0  0  0  0  0  0  0  0  0  0  0  0
    2.3434   -0.9167   10.1943 C   0  0  0  0  0  0  0  0  0  0  0  0
    3.1007   -0.8643   11.2957 N   0  0  0  0  0  0  0  0  0  0  0  0
    3.2714    0.4248   11.6281 C   0  0  0  0  0  0  0  0  0  0  0  0
    2.5880    1.1598   10.6856 C   0  0  0  0  0  0  0  0  0  0  0  0
    2.5950    2.4933   10.7835 N   0  0  0  0  0  0  0  0  0  0  0  0
    3.2655    3.0893   11.7948 C   0  0  0  0  0  0  0  0  0  0  0  0
    3.9384    2.3975   12.7250 N   0  0  0  0  0  0  0  0  0  0  0  0
    3.9618    1.0595   12.6709 C   0  0  0  0  0  0  0  0  0  0  0  0
    4.6511    0.2489   13.6169 N   0  0  0  0  0  0  0  0  0  0  0  0
  1  2  1  0
  2  3  1  0
  3  4  1  0
  4  5  2  0
  6  4  1  6
  6  7  1  0
  7  8  1  0
  8  9  1  0
  9 10  1  0
 10 11  1  1
  9 12  1  1
  8 13  1  1
 13 14  1  0
 14 15  2  0
 15 16  1  0
 16 17  2  0
 17 18  1  0
 18 19  2  0
 19 20  1  0
 20 21  2  0
 21 22  1  0
 10  6  1  0
 17 13  1  0
 21 16  1  0
M  END
$$$$
