
     RDKit          3D

 22 24  0  0  0  0  0  0  0  0999 V2000
   -1.6467   -3.1177    3.5776 C   0  0  0  0  0  0  0  0  0  0  0  0
   -1.1517   -3.2301    4.9935 C   0  0  0  0  0  0  0  0  0  0  0  0
   -1.1151   -1.9514    5.6662 N   0  0  0  0  0  0  0  0  0  0  0  0
    0.0935   -1.2591    5.9430 C   0  0  0  0  0  0  0  0  0  0  0  0
    1.0891   -1.4561    5.1985 O   0  0  0  0  0  0  0  0  0  0  0  0
    0.2364   -0.3171    7.0658 C   0  0  1  0  0  0  0  0  0  0  0  0
    0.9321   -0.8706    8.1382 O   0  0  0  0  0  0  0  0  0  0  0  0
    1.1625    0.2613    8.9285 C   0  0  2  0  0  0  0  0  0  0  0  0
    1.8216    1.1840    7.9244 C   0  0  1  0  0  0  0  0  0  0  0  0
    0.8993    0.9696    6.7164 C   0  0  2  0  0  0  0  0  0  0  0  0
    0.0255    2.0564    6.6918 O   0  0  0  0  0  0  0  0  0  0  0  0
    1.8295    2.4989    8.3361 O   0  0  0  0  0  0  0  0  0  0  0  0
    2.0134   -0.0239   10.0601 N   0  0  0  0  0  0  0  0  0  0  0  0
    2.4540   -1.2554   10.3496 C   0  0  0  0  0  0  0  0  0  0  0  0
    3.2178   -1.2125   11.4470 N   0  0  0  0  0  0  0  0  0  0  0  0
    3.2723    0.0594   11.8722 C   0  0  0  0  0  0  0  0  0  0  0  0
    2.5110    0.7936   10.9908 C   0  0  0  0  0  0  0  0  0  0  0  0
    2.3953    2.1113   11.1865 N   0  0  0  0  0  0  0  0  0  0  0  0
    3.0208    2.6925   12.2345 C   0  0  0  0  0  0  0  0  0  0  0  0
    3.7676    2.0011   13.1069 N   0  0  0  0  0  0  0  0  0  0  0  0
    3.9146    0.6786   12.9543 C   0  0  0  0  0  0  0  0  0  0  0  0
    4.6888   -0.1304   13.8336 N   0  0  0  0  0  0  0  0  0  0  0  0
  1  2  1  0
  2  3  1  0
  3  4  1  0
  4  5  2  0
  6  4  1  6
  6  7  1  0
  7  8  1  0
  8  9  1  0
  9 10  1  0
 10 11  1  1
  9 12  1  1
  8 13  1  1
 13 14  1  0
 14 15  2  0
 15 16  1  0
 16 17  2  0
 17 18  1  0
 18 19  2  0
 19 20  1  0
 20 21  2  0
 21 22  1  0
 10  6  1  0
 17 13  1  0
 21 16  1  0
M  END
$$$$
