
     RDKit          3D

 22 24  0  0  0  0  0  0  0  0999 V2000
   -1.4662   -3.7597    4.7182 C   0  0  0  0  0  0  0  0  0  0  0  0
   -1.2338   -2.4620    3.9940 C   0  0  0  0  0  0  0  0  0  0  0  0
   -1.0887   -1.3453    4.9000 N   0  0  0  0  0  0  0  0  0  0  0  0
    0.1459   -1.0039    5.5130 C   0  0  0  0  0  0  0  0  0  0  0  0
    1.2118   -1.4645    5.0271 O   0  0  0  0  0  0  0  0  0  0  0  0
    0.2372   -0.1320    6.6962 C   0  0  1  0  0  0  0  0  0  0  0  0
    0.9354   -0.7290    7.7433 O   0  0  0  0  0  0  0  0  0  0  0  0
    1.1126    0.3568    8.6084 C   0  0  2  0  0  0  0  0  0  0  0  0
    1.7538    1.3649    7.6774 C   0  0  1  0  0  0  0  0  0  0  0  0
    0.8588    1.1969    6.4418 C   0  0  2  0  0  0  0  0  0  0  0  0
   -0.0531    2.2519    6.4711 O   0  0  0  0  0  0  0  0  0  0  0  0
    1.7079    2.6499    8.1725 O   0  0  0  0  0  0  0  0  0  0  0  0
    1.9553    0.0290    9.7345 N   0  0  0  0  0  0  0  0  0  0  0  0
    2.3186   -1.2254   10.0332 C   0  0  0  0  0  0  0  0  0  0  0  0
    3.0953   -1.2205   11.1223 N   0  0  0  0  0  0  0  0  0  0  0  0
    3.2363    0.0496   11.5329 C   0  0  0  0  0  0  0  0  0  0  0  0
    2.5145    0.8223   10.6511 C   0  0  0  0  0  0  0  0  0  0  0  0
    2.4862    2.1466   10.8334 N   0  0  0  0  0  0  0  0  0  0  0  0
    3.1591    2.6970   11.8686 C   0  0  0  0  0  0  0  0  0  0  0  0
    3.8689    1.9678   12.7411 N   0  0  0  0  0  0  0  0  0  0  0  0
    3.9286    0.6371   12.6017 C   0  0  0  0  0  0  0  0  0  0  0  0
    4.6584   -0.2110   13.4820 N   0  0  0  0  0  0  0  0  0  0  0  0
  1  2  1  0
  2  3  1  0
  3  4  1  0
  4  5  2  0
  6  4  1  6
  6  7  1  0
  7  8  1  0
  8  9  1  0
  9 10  1  0
 10 11  1  1
  9 12  1  1
  8 13  1  1
 13 14  1  0
 14 15  2  0
 15 16  1  0
 16 17  2  0
 17 18  1  0
 18 19  2  0
 19 20  1  0
 20 21  2  0
 21 22  1  0
 10  6  1  0
 17 13  1  0
 21 16  1  0
M  END
$$$$
