
     RDKit          3D

 22 24  0  0  0  0  0  0  0  0999 V2000
   -1.8582   -3.3556    3.8485 C   0  0  0  0  0  0  0  0  0  0  0  0
   -0.6718   -2.9851    4.6956 C   0  0  0  0  0  0  0  0  0  0  0  0
   -0.7122   -1.6057    5.1250 N   0  0  0  0  0  0  0  0  0  0  0  0
    0.4458   -0.8868    5.5233 C   0  0  0  0  0  0  0  0  0  0  0  0
    1.4914   -0.9896    4.8301 O   0  0  0  0  0  0  0  0  0  0  0  0
    0.4802   -0.0227    6.7152 C   0  0  1  0  0  0  0  0  0  0  0  0
    1.1488   -0.6170    7.7829 O   0  0  0  0  0  0  0  0  0  0  0  0
    1.2773    0.4648    8.6617 C   0  0  2  0  0  0  0  0  0  0  0  0
    1.9364    1.4897    7.7621 C   0  0  1  0  0  0  0  0  0  0  0  0
    1.0900    1.3175    6.4933 C   0  0  2  0  0  0  0  0  0  0  0  0
    0.1613    2.3582    6.4966 O   0  0  0  0  0  0  0  0  0  0  0  0
    1.8524    2.7699    8.2643 O   0  0  0  0  0  0  0  0  0  0  0  0
    2.0833    0.1412    9.8156 N   0  0  0  0  0  0  0  0  0  0  0  0
    2.5131   -1.0996   10.0807 C   0  0  0  0  0  0  0  0  0  0  0  0
    3.2331   -1.0941   11.2080 N   0  0  0  0  0  0  0  0  0  0  0  0
    3.2699    0.1628   11.6776 C   0  0  0  0  0  0  0  0  0  0  0  0
    2.5433    0.9267   10.7921 C   0  0  0  0  0  0  0  0  0  0  0  0
    2.4189    2.2371   11.0273 N   0  0  0  0  0  0  0  0  0  0  0  0
    3.0024    2.7823   12.1180 C   0  0  0  0  0  0  0  0  0  0  0  0
    3.7148    2.0616   12.9954 N   0  0  0  0  0  0  0  0  0  0  0  0
    3.8687    0.7449   12.8043 C   0  0  0  0  0  0  0  0  0  0  0  0
    4.6084   -0.0936   13.6857 N   0  0  0  0  0  0  0  0  0  0  0  0
  1  2  1  0
  2  3  1  0
  3  4  1  0
  4  5  2  0
  6  4  1  6
  6  7  1  0
  7  8  1  0
  8  9  1  0
  9 10  1  0
 10 11  1  1
  9 12  1  1
  8 13  1  1
 13 14  1  0
 14 15  2  0
 15 16  1  0
 16 17  2  0
 17 18  1  0
 18 19  2  0
 19 20  1  0
 20 21  2  0
 21 22  1  0
 10  6  1  0
 17 13  1  0
 21 16  1  0
M  END
$$$$
