
     RDKit          3D

 22 24  0  0  0  0  0  0  0  0999 V2000
   -2.0280   -2.9749    3.6094 C   0  0  0  0  0  0  0  0  0  0  0  0
   -0.8561   -2.7610    4.5277 C   0  0  0  0  0  0  0  0  0  0  0  0
   -0.7789   -1.4018    5.0130 N   0  0  0  0  0  0  0  0  0  0  0  0
    0.4253   -0.8194    5.4897 C   0  0  0  0  0  0  0  0  0  0  0  0
    1.5030   -1.0830    4.8950 O   0  0  0  0  0  0  0  0  0  0  0  0
    0.4719    0.0825    6.6527 C   0  0  1  0  0  0  0  0  0  0  0  0
    1.1390   -0.4829    7.7370 O   0  0  0  0  0  0  0  0  0  0  0  0
    1.2805    0.6256    8.5797 C   0  0  2  0  0  0  0  0  0  0  0  0
    1.9455    1.6146    7.6450 C   0  0  1  0  0  0  0  0  0  0  0  0
    1.0930    1.4091    6.3853 C   0  0  2  0  0  0  0  0  0  0  0  0
    0.1738    2.4579    6.3579 O   0  0  0  0  0  0  0  0  0  0  0  0
    1.8750    2.9112    8.1056 O   0  0  0  0  0  0  0  0  0  0  0  0
    2.0877    0.3322    9.7408 N   0  0  0  0  0  0  0  0  0  0  0  0
    2.5404   -0.8965   10.0232 C   0  0  0  0  0  0  0  0  0  0  0  0
    3.2554   -0.8628   11.1533 N   0  0  0  0  0  0  0  0  0  0  0  0
    3.2658    0.4003   11.6071 C   0  0  0  0  0  0  0  0  0  0  0  0
    2.5282    1.1387   10.7091 C   0  0  0  0  0  0  0  0  0  0  0  0
    2.3774    2.4493   10.9273 N   0  0  0  0  0  0  0  0  0  0  0  0
    2.9455    3.0195   12.0134 C   0  0  0  0  0  0  0  0  0  0  0  0
    3.6681    2.3238   12.9026 N   0  0  0  0  0  0  0  0  0  0  0  0
    3.8484    1.0080   12.7288 C   0  0  0  0  0  0  0  0  0  0  0  0
    4.6004    0.1952   13.6236 N   0  0  0  0  0  0  0  0  0  0  0  0
  1  2  1  0
  2  3  1  0
  3  4  1  0
  4  5  2  0
  6  4  1  6
  6  7  1  0
  7  8  1  0
  8  9  1  0
  9 10  1  0
 10 11  1  1
  9 12  1  1
  8 13  1  1
 13 14  1  0
 14 15  2  0
 15 16  1  0
 16 17  2  0
 17 18  1  0
 18 19  2  0
 19 20  1  0
 20 21  2  0
 21 22  1  0
 10  6  1  0
 17 13  1  0
 21 16  1  0
M  END
$$$$
