
     RDKit          3D

 22 24  0  0  0  0  0  0  0  0999 V2000
   -1.1223   -3.4438    3.7620 C   0  0  0  0  0  0  0  0  0  0  0  0
   -1.0461   -3.1503    5.2353 C   0  0  0  0  0  0  0  0  0  0  0  0
   -0.8766   -1.7409    5.5069 N   0  0  0  0  0  0  0  0  0  0  0  0
    0.3711   -1.1696    5.8724 C   0  0  0  0  0  0  0  0  0  0  0  0
    1.3958   -1.4763    5.2088 O   0  0  0  0  0  0  0  0  0  0  0  0
    0.5222   -0.2309    6.9968 C   0  0  1  0  0  0  0  0  0  0  0  0
    1.2040   -0.7956    8.0722 O   0  0  0  0  0  0  0  0  0  0  0  0
    1.4472    0.3321    8.8648 C   0  0  2  0  0  0  0  0  0  0  0  0
    2.1251    1.2458    7.8649 C   0  0  1  0  0  0  0  0  0  0  0  0
    1.2059    1.0461    6.6520 C   0  0  2  0  0  0  0  0  0  0  0  0
    0.3485    2.1458    6.6239 O   0  0  0  0  0  0  0  0  0  0  0  0
    2.1504    2.5600    8.2779 O   0  0  0  0  0  0  0  0  0  0  0  0
    2.2879    0.0333   10.0004 N   0  0  0  0  0  0  0  0  0  0  0  0
    2.7289   -1.2010   10.2771 C   0  0  0  0  0  0  0  0  0  0  0  0
    3.4820   -1.1715   11.3823 N   0  0  0  0  0  0  0  0  0  0  0  0
    3.5291    0.0945   11.8256 C   0  0  0  0  0  0  0  0  0  0  0  0
    2.7744    0.8390   10.9471 C   0  0  0  0  0  0  0  0  0  0  0  0
    2.6533    2.1535   11.1600 N   0  0  0  0  0  0  0  0  0  0  0  0
    3.2673    2.7217   12.2219 C   0  0  0  0  0  0  0  0  0  0  0  0
    4.0074    2.0200   13.0918 N   0  0  0  0  0  0  0  0  0  0  0  0
    4.1593    0.7001   12.9223 C   0  0  0  0  0  0  0  0  0  0  0  0
    4.9271   -0.1190   13.7977 N   0  0  0  0  0  0  0  0  0  0  0  0
  1  2  1  0
  2  3  1  0
  3  4  1  0
  4  5  2  0
  6  4  1  6
  6  7  1  0
  7  8  1  0
  8  9  1  0
  9 10  1  0
 10 11  1  1
  9 12  1  1
  8 13  1  1
 13 14  1  0
 14 15  2  0
 15 16  1  0
 16 17  2  0
 17 18  1  0
 18 19  2  0
 19 20  1  0
 20 21  2  0
 21 22  1  0
 10  6  1  0
 17 13  1  0
 21 16  1  0
M  END
$$$$
