
     RDKit          3D

 22 24  0  0  0  0  0  0  0  0999 V2000
   -0.5696   -3.4760    3.7008 C   0  0  0  0  0  0  0  0  0  0  0  0
   -1.2160   -2.9640    4.9587 C   0  0  0  0  0  0  0  0  0  0  0  0
   -0.8496   -1.5962    5.2476 N   0  0  0  0  0  0  0  0  0  0  0  0
    0.3982   -1.2360    5.8219 C   0  0  0  0  0  0  0  0  0  0  0  0
    1.4500   -1.7466    5.3557 O   0  0  0  0  0  0  0  0  0  0  0  0
    0.5190   -0.2886    6.9427 C   0  0  1  0  0  0  0  0  0  0  0  0
    1.1542   -0.8510    8.0475 O   0  0  0  0  0  0  0  0  0  0  0  0
    1.3814    0.2811    8.8384 C   0  0  2  0  0  0  0  0  0  0  0  0
    2.1063    1.1777    7.8561 C   0  0  1  0  0  0  0  0  0  0  0  0
    1.2300    0.9772    6.6120 C   0  0  2  0  0  0  0  0  0  0  0  0
    0.3871    2.0864    6.5427 O   0  0  0  0  0  0  0  0  0  0  0  0
    2.1319    2.4953    8.2581 O   0  0  0  0  0  0  0  0  0  0  0  0
    2.1764   -0.0167   10.0068 N   0  0  0  0  0  0  0  0  0  0  0  0
    2.5105   -1.2640   10.3635 C   0  0  0  0  0  0  0  0  0  0  0  0
    3.2454   -1.2299   11.4807 N   0  0  0  0  0  0  0  0  0  0  0  0
    3.3886    0.0522   11.8511 C   0  0  0  0  0  0  0  0  0  0  0  0
    2.7116    0.8018   10.9155 C   0  0  0  0  0  0  0  0  0  0  0  0
    2.6949    2.1321   11.0496 N   0  0  0  0  0  0  0  0  0  0  0  0
    3.3358    2.7108   12.0896 C   0  0  0  0  0  0  0  0  0  0  0  0
    4.0019    2.0045   13.0139 N   0  0  0  0  0  0  0  0  0  0  0  0
    4.0482    0.6690   12.9241 C   0  0  0  0  0  0  0  0  0  0  0  0
    4.7322   -0.1561   13.8612 N   0  0  0  0  0  0  0  0  0  0  0  0
  1  2  1  0
  2  3  1  0
  3  4  1  0
  4  5  2  0
  6  4  1  6
  6  7  1  0
  7  8  1  0
  8  9  1  0
  9 10  1  0
 10 11  1  1
  9 12  1  1
  8 13  1  1
 13 14  1  0
 14 15  2  0
 15 16  1  0
 16 17  2  0
 17 18  1  0
 18 19  2  0
 19 20  1  0
 20 21  2  0
 21 22  1  0
 10  6  1  0
 17 13  1  0
 21 16  1  0
M  END
$$$$
