
     RDKit          3D

 22 24  0  0  0  0  0  0  0  0999 V2000
   -0.7323   -3.8428    5.0309 C   0  0  0  0  0  0  0  0  0  0  0  0
   -1.3314   -2.6032    4.4252 C   0  0  0  0  0  0  0  0  0  0  0  0
   -1.1402   -1.4371    5.2575 N   0  0  0  0  0  0  0  0  0  0  0  0
    0.1190   -1.0798    5.8083 C   0  0  0  0  0  0  0  0  0  0  0  0
    1.1643   -1.5443    5.2830 O   0  0  0  0  0  0  0  0  0  0  0  0
    0.2590   -0.1871    6.9710 C   0  0  1  0  0  0  0  0  0  0  0  0
    0.9484   -0.7877    8.0218 O   0  0  0  0  0  0  0  0  0  0  0  0
    1.1780    0.3088    8.8609 C   0  0  2  0  0  0  0  0  0  0  0  0
    1.8439    1.2719    7.9001 C   0  0  1  0  0  0  0  0  0  0  0  0
    0.9266    1.1116    6.6799 C   0  0  2  0  0  0  0  0  0  0  0  0
    0.0555    2.2008    6.6979 O   0  0  0  0  0  0  0  0  0  0  0  0
    1.8530    2.5679    8.3676 O   0  0  0  0  0  0  0  0  0  0  0  0
    2.0230   -0.0267    9.9830 N   0  0  0  0  0  0  0  0  0  0  0  0
    2.4671   -1.2689   10.2162 C   0  0  0  0  0  0  0  0  0  0  0  0
    3.2238   -1.2754   11.3193 N   0  0  0  0  0  0  0  0  0  0  0  0
    3.2702   -0.0250   11.8051 C   0  0  0  0  0  0  0  0  0  0  0  0
    2.5112    0.7474   10.9548 C   0  0  0  0  0  0  0  0  0  0  0  0
    2.3885    2.0537   11.2125 N   0  0  0  0  0  0  0  0  0  0  0  0
    3.0049    2.5867   12.2911 C   0  0  0  0  0  0  0  0  0  0  0  0
    3.7492    1.8574   13.1343 N   0  0  0  0  0  0  0  0  0  0  0  0
    3.9029    0.5443   12.9197 C   0  0  0  0  0  0  0  0  0  0  0  0
    4.6751   -0.3026   13.7643 N   0  0  0  0  0  0  0  0  0  0  0  0
  1  2  1  0
  2  3  1  0
  3  4  1  0
  4  5  2  0
  6  4  1  6
  6  7  1  0
  7  8  1  0
  8  9  1  0
  9 10  1  0
 10 11  1  1
  9 12  1  1
  8 13  1  1
 13 14  1  0
 14 15  2  0
 15 16  1  0
 16 17  2  0
 17 18  1  0
 18 19  2  0
 19 20  1  0
 20 21  2  0
 21 22  1  0
 10  6  1  0
 17 13  1  0
 21 16  1  0
M  END
$$$$
