
     RDKit          3D

 22 24  0  0  0  0  0  0  0  0999 V2000
   -1.7163   -3.5877    4.7159 C   0  0  0  0  0  0  0  0  0  0  0  0
   -1.1751   -2.3162    4.1220 C   0  0  0  0  0  0  0  0  0  0  0  0
   -0.9142   -1.3086    5.1248 N   0  0  0  0  0  0  0  0  0  0  0  0
    0.3826   -1.0544    5.6447 C   0  0  0  0  0  0  0  0  0  0  0  0
    1.3618   -1.6835    5.1655 O   0  0  0  0  0  0  0  0  0  0  0  0
    0.6358   -0.0844    6.7233 C   0  0  1  0  0  0  0  0  0  0  0  0
    1.3098   -0.6530    7.8015 O   0  0  0  0  0  0  0  0  0  0  0  0
    1.6576    0.4852    8.5381 C   0  0  2  0  0  0  0  0  0  0  0  0
    2.3664    1.3064    7.4810 C   0  0  1  0  0  0  0  0  0  0  0  0
    1.3971    1.1249    6.3049 C   0  0  2  0  0  0  0  0  0  0  0  0
    0.6194    2.2817    6.2549 O   0  0  0  0  0  0  0  0  0  0  0  0
    2.4981    2.6310    7.8368 O   0  0  0  0  0  0  0  0  0  0  0  0
    2.5109    0.1724    9.6605 N   0  0  0  0  0  0  0  0  0  0  0  0
    3.1708   -0.9878    9.7745 C   0  0  0  0  0  0  0  0  0  0  0  0
    3.8765   -0.9932   10.9108 N   0  0  0  0  0  0  0  0  0  0  0  0
    3.6716    0.1752   11.5389 C   0  0  0  0  0  0  0  0  0  0  0  0
    2.8118    0.8962   10.7411 C   0  0  0  0  0  0  0  0  0  0  0  0
    2.4384    2.1167   11.1397 N   0  0  0  0  0  0  0  0  0  0  0  0
    2.9066    2.6153   12.3058 C   0  0  0  0  0  0  0  0  0  0  0  0
    3.7442    1.9346   13.1006 N   0  0  0  0  0  0  0  0  0  0  0  0
    4.1478    0.7078   12.7457 C   0  0  0  0  0  0  0  0  0  0  0  0
    5.0347   -0.0828   13.5301 N   0  0  0  0  0  0  0  0  0  0  0  0
  1  2  1  0
  2  3  1  0
  3  4  1  0
  4  5  2  0
  6  4  1  6
  6  7  1  0
  7  8  1  0
  8  9  1  0
  9 10  1  0
 10 11  1  1
  9 12  1  1
  8 13  1  1
 13 14  1  0
 14 15  2  0
 15 16  1  0
 16 17  2  0
 17 18  1  0
 18 19  2  0
 19 20  1  0
 20 21  2  0
 21 22  1  0
 10  6  1  0
 17 13  1  0
 21 16  1  0
M  END
$$$$
