
     RDKit          3D

 22 24  0  0  0  0  0  0  0  0999 V2000
   -2.1094   -3.6379    4.6041 C   0  0  0  0  0  0  0  0  0  0  0  0
   -0.9742   -2.7803    4.1160 C   0  0  0  0  0  0  0  0  0  0  0  0
   -0.7922   -1.5967    4.9251 N   0  0  0  0  0  0  0  0  0  0  0  0
    0.4326   -1.2850    5.5727 C   0  0  0  0  0  0  0  0  0  0  0  0
    1.4825   -1.8690    5.1972 O   0  0  0  0  0  0  0  0  0  0  0  0
    0.5317   -0.3058    6.6680 C   0  0  1  0  0  0  0  0  0  0  0  0
    1.2392   -0.8011    7.7609 O   0  0  0  0  0  0  0  0  0  0  0  0
    1.4211    0.3613    8.5189 C   0  0  2  0  0  0  0  0  0  0  0  0
    2.0531    1.2783    7.4922 C   0  0  1  0  0  0  0  0  0  0  0  0
    1.1487    0.9940    6.2851 C   0  0  2  0  0  0  0  0  0  0  0  0
    0.2351    2.0461    6.2226 O   0  0  0  0  0  0  0  0  0  0  0  0
    2.0086    2.6040    7.8649 O   0  0  0  0  0  0  0  0  0  0  0  0
    2.2734    0.1416    9.6639 N   0  0  0  0  0  0  0  0  0  0  0  0
    2.8647   -1.0331    9.9187 C   0  0  0  0  0  0  0  0  0  0  0  0
    3.5883   -0.9378   11.0397 N   0  0  0  0  0  0  0  0  0  0  0  0
    3.4643    0.3111   11.5156 C   0  0  0  0  0  0  0  0  0  0  0  0
    2.6355    0.9766   10.6405 C   0  0  0  0  0  0  0  0  0  0  0  0
    2.3425    2.2584   10.8838 N   0  0  0  0  0  0  0  0  0  0  0  0
    2.8595    2.8710   11.9722 C   0  0  0  0  0  0  0  0  0  0  0  0
    3.6685    2.2464   12.8394 N   0  0  0  0  0  0  0  0  0  0  0  0
    3.9920    0.9621   12.6401 C   0  0  0  0  0  0  0  0  0  0  0  0
    4.8436    0.2243   13.5105 N   0  0  0  0  0  0  0  0  0  0  0  0
  1  2  1  0
  2  3  1  0
  3  4  1  0
  4  5  2  0
  6  4  1  6
  6  7  1  0
  7  8  1  0
  8  9  1  0
  9 10  1  0
 10 11  1  1
  9 12  1  1
  8 13  1  1
 13 14  1  0
 14 15  2  0
 15 16  1  0
 16 17  2  0
 17 18  1  0
 18 19  2  0
 19 20  1  0
 20 21  2  0
 21 22  1  0
 10  6  1  0
 17 13  1  0
 21 16  1  0
M  END
$$$$
