
     RDKit          3D

 22 24  0  0  0  0  0  0  0  0999 V2000
   -1.8691   -3.2274    3.3776 C   0  0  0  0  0  0  0  0  0  0  0  0
   -1.4183   -3.1358    4.8096 C   0  0  0  0  0  0  0  0  0  0  0  0
   -1.1149   -1.7790    5.2046 N   0  0  0  0  0  0  0  0  0  0  0  0
    0.1606   -1.3820    5.6863 C   0  0  0  0  0  0  0  0  0  0  0  0
    1.1890   -1.8953    5.1730 O   0  0  0  0  0  0  0  0  0  0  0  0
    0.3367   -0.3934    6.7633 C   0  0  1  0  0  0  0  0  0  0  0  0
    1.0788   -0.8960    7.8295 O   0  0  0  0  0  0  0  0  0  0  0  0
    1.3276    0.2695    8.5635 C   0  0  2  0  0  0  0  0  0  0  0  0
    1.9379    1.1559    7.4977 C   0  0  1  0  0  0  0  0  0  0  0  0
    0.9722    0.8837    6.3362 C   0  0  2  0  0  0  0  0  0  0  0  0
    0.0867    1.9608    6.3011 O   0  0  0  0  0  0  0  0  0  0  0  0
    1.9478    2.4866    7.8547 O   0  0  0  0  0  0  0  0  0  0  0  0
    2.2243    0.0388    9.6718 N   0  0  0  0  0  0  0  0  0  0  0  0
    2.7326   -1.1666    9.9604 C   0  0  0  0  0  0  0  0  0  0  0  0
    3.5253   -1.0742   11.0339 N   0  0  0  0  0  0  0  0  0  0  0  0
    3.5304    0.2036   11.4445 C   0  0  0  0  0  0  0  0  0  0  0  0
    2.7086    0.8900   10.5790 C   0  0  0  0  0  0  0  0  0  0  0  0
    2.5347    2.2027   10.7649 N   0  0  0  0  0  0  0  0  0  0  0  0
    3.1617    2.8254   11.7878 C   0  0  0  0  0  0  0  0  0  0  0  0
    3.9666    2.1810   12.6443 N   0  0  0  0  0  0  0  0  0  0  0  0
    4.1733    0.8654   12.5007 C   0  0  0  0  0  0  0  0  0  0  0  0
    5.0115    0.1050   13.3644 N   0  0  0  0  0  0  0  0  0  0  0  0
  1  2  1  0
  2  3  1  0
  3  4  1  0
  4  5  2  0
  6  4  1  6
  6  7  1  0
  7  8  1  0
  8  9  1  0
  9 10  1  0
 10 11  1  1
  9 12  1  1
  8 13  1  1
 13 14  1  0
 14 15  2  0
 15 16  1  0
 16 17  2  0
 17 18  1  0
 18 19  2  0
 19 20  1  0
 20 21  2  0
 21 22  1  0
 10  6  1  0
 17 13  1  0
 21 16  1  0
M  END
$$$$
