
     RDKit          3D

 22 24  0  0  0  0  0  0  0  0999 V2000
   -2.2738   -3.3183    4.3629 C   0  0  0  0  0  0  0  0  0  0  0  0
   -1.1216   -2.3657    4.1972 C   0  0  0  0  0  0  0  0  0  0  0  0
   -1.0186   -1.4313    5.2950 N   0  0  0  0  0  0  0  0  0  0  0  0
    0.0165   -1.4912    6.2653 C   0  0  0  0  0  0  0  0  0  0  0  0
    0.7832   -2.4895    6.2729 O   0  0  0  0  0  0  0  0  0  0  0  0
    0.2356   -0.4348    7.2674 C   0  0  1  0  0  0  0  0  0  0  0  0
    0.9389   -0.8943    8.3785 O   0  0  0  0  0  0  0  0  0  0  0  0
    1.2434    0.3084    9.0263 C   0  0  2  0  0  0  0  0  0  0  0  0
    1.9113    1.0779    7.9056 C   0  0  1  0  0  0  0  0  0  0  0  0
    0.9435    0.7706    6.7546 C   0  0  2  0  0  0  0  0  0  0  0  0
    0.1181    1.8876    6.6267 O   0  0  0  0  0  0  0  0  0  0  0  0
    1.9898    2.4294    8.1620 O   0  0  0  0  0  0  0  0  0  0  0  0
    2.1155    0.1146   10.1611 N   0  0  0  0  0  0  0  0  0  0  0  0
    2.7678   -1.0324   10.3925 C   0  0  0  0  0  0  0  0  0  0  0  0
    3.4952   -0.9177   11.5093 N   0  0  0  0  0  0  0  0  0  0  0  0
    3.3121    0.3158   12.0059 C   0  0  0  0  0  0  0  0  0  0  0  0
    2.4431    0.9517   11.1480 C   0  0  0  0  0  0  0  0  0  0  0  0
    2.0876    2.2131   11.4138 N   0  0  0  0  0  0  0  0  0  0  0  0
    2.5823    2.8343   12.5078 C   0  0  0  0  0  0  0  0  0  0  0  0
    3.4293    2.2382   13.3587 N   0  0  0  0  0  0  0  0  0  0  0  0
    3.8158    0.9752   13.1365 C   0  0  0  0  0  0  0  0  0  0  0  0
    4.7110    0.2683   13.9884 N   0  0  0  0  0  0  0  0  0  0  0  0
  1  2  1  0
  2  3  1  0
  3  4  1  0
  4  5  2  0
  6  4  1  6
  6  7  1  0
  7  8  1  0
  8  9  1  0
  9 10  1  0
 10 11  1  1
  9 12  1  1
  8 13  1  1
 13 14  1  0
 14 15  2  0
 15 16  1  0
 16 17  2  0
 17 18  1  0
 18 19  2  0
 19 20  1  0
 20 21  2  0
 21 22  1  0
 10  6  1  0
 17 13  1  0
 21 16  1  0
M  END
$$$$
