
     RDKit          3D

 22 24  0  0  0  0  0  0  0  0999 V2000
   -1.5187   -3.2631    3.7575 C   0  0  0  0  0  0  0  0  0  0  0  0
   -1.3717   -2.9516    5.2217 C   0  0  0  0  0  0  0  0  0  0  0  0
   -1.0032   -1.5739    5.4562 N   0  0  0  0  0  0  0  0  0  0  0  0
    0.2657   -1.1900    5.9652 C   0  0  0  0  0  0  0  0  0  0  0  0
    1.2993   -1.7172    5.4772 O   0  0  0  0  0  0  0  0  0  0  0  0
    0.4291   -0.1992    7.0423 C   0  0  1  0  0  0  0  0  0  0  0  0
    1.1497   -0.7031    8.1226 O   0  0  0  0  0  0  0  0  0  0  0  0
    1.3926    0.4631    8.8574 C   0  0  2  0  0  0  0  0  0  0  0  0
    2.0265    1.3428    7.7999 C   0  0  1  0  0  0  0  0  0  0  0  0
    1.0793    1.0728    6.6226 C   0  0  2  0  0  0  0  0  0  0  0  0
    0.2009    2.1550    6.5693 O   0  0  0  0  0  0  0  0  0  0  0  0
    2.0380    2.6745    8.1533 O   0  0  0  0  0  0  0  0  0  0  0  0
    2.2687    0.2303    9.9817 N   0  0  0  0  0  0  0  0  0  0  0  0
    2.7649   -0.9772   10.2824 C   0  0  0  0  0  0  0  0  0  0  0  0
    3.5396   -0.8863   11.3691 N   0  0  0  0  0  0  0  0  0  0  0  0
    3.5450    0.3927   11.7762 C   0  0  0  0  0  0  0  0  0  0  0  0
    2.7424    1.0813   10.8947 C   0  0  0  0  0  0  0  0  0  0  0  0
    2.5730    2.3955   11.0739 N   0  0  0  0  0  0  0  0  0  0  0  0
    3.1860    3.0176   12.1058 C   0  0  0  0  0  0  0  0  0  0  0  0
    3.9722    2.3709   12.9778 N   0  0  0  0  0  0  0  0  0  0  0  0
    4.1735    1.0538   12.8415 C   0  0  0  0  0  0  0  0  0  0  0  0
    4.9922    0.2910   13.7217 N   0  0  0  0  0  0  0  0  0  0  0  0
  1  2  1  0
  2  3  1  0
  3  4  1  0
  4  5  2  0
  6  4  1  6
  6  7  1  0
  7  8  1  0
  8  9  1  0
  9 10  1  0
 10 11  1  1
  9 12  1  1
  8 13  1  1
 13 14  1  0
 14 15  2  0
 15 16  1  0
 16 17  2  0
 17 18  1  0
 18 19  2  0
 19 20  1  0
 20 21  2  0
 21 22  1  0
 10  6  1  0
 17 13  1  0
 21 16  1  0
M  END
$$$$
