
     RDKit          3D

 22 24  0  0  0  0  0  0  0  0999 V2000
   -1.4338   -3.7744    4.9036 C   0  0  0  0  0  0  0  0  0  0  0  0
   -0.7480   -2.6578    4.1652 C   0  0  0  0  0  0  0  0  0  0  0  0
   -0.6796   -1.4432    4.9457 N   0  0  0  0  0  0  0  0  0  0  0  0
    0.5312   -0.9469    5.4971 C   0  0  0  0  0  0  0  0  0  0  0  0
    1.6176   -1.2316    4.9286 O   0  0  0  0  0  0  0  0  0  0  0  0
    0.5749   -0.1109    6.7085 C   0  0  1  0  0  0  0  0  0  0  0  0
    1.2248   -0.7423    7.7664 O   0  0  0  0  0  0  0  0  0  0  0  0
    1.3688    0.3165    8.6703 C   0  0  2  0  0  0  0  0  0  0  0  0
    2.0537    1.3483    7.7982 C   0  0  1  0  0  0  0  0  0  0  0  0
    1.2123    1.2216    6.5208 C   0  0  2  0  0  0  0  0  0  0  0  0
    0.3043    2.2802    6.5422 O   0  0  0  0  0  0  0  0  0  0  0  0
    1.9917    2.6183    8.3289 O   0  0  0  0  0  0  0  0  0  0  0  0
    2.1609   -0.0489    9.8214 N   0  0  0  0  0  0  0  0  0  0  0  0
    2.5439   -1.3076   10.0737 C   0  0  0  0  0  0  0  0  0  0  0  0
    3.2623   -1.3407   11.2016 N   0  0  0  0  0  0  0  0  0  0  0  0
    3.3452   -0.0911   11.6845 C   0  0  0  0  0  0  0  0  0  0  0  0
    2.6485    0.7085   10.8065 C   0  0  0  0  0  0  0  0  0  0  0  0
    2.5727    2.0201   11.0555 N   0  0  0  0  0  0  0  0  0  0  0  0
    3.1747    2.5318   12.1524 C   0  0  0  0  0  0  0  0  0  0  0  0
    3.8588    1.7758   13.0226 N   0  0  0  0  0  0  0  0  0  0  0  0
    3.9639    0.4563   12.8178 C   0  0  0  0  0  0  0  0  0  0  0  0
    4.6708   -0.4183   13.6908 N   0  0  0  0  0  0  0  0  0  0  0  0
  1  2  1  0
  2  3  1  0
  3  4  1  0
  4  5  2  0
  6  4  1  6
  6  7  1  0
  7  8  1  0
  8  9  1  0
  9 10  1  0
 10 11  1  1
  9 12  1  1
  8 13  1  1
 13 14  1  0
 14 15  2  0
 15 16  1  0
 16 17  2  0
 17 18  1  0
 18 19  2  0
 19 20  1  0
 20 21  2  0
 21 22  1  0
 10  6  1  0
 17 13  1  0
 21 16  1  0
M  END
$$$$
