
     RDKit          3D

 22 24  0  0  0  0  0  0  0  0999 V2000
   -1.5174   -4.0820    5.4293 C   0  0  0  0  0  0  0  0  0  0  0  0
   -1.3413   -2.7799    4.6972 C   0  0  0  0  0  0  0  0  0  0  0  0
   -1.0493   -1.6821    5.5907 N   0  0  0  0  0  0  0  0  0  0  0  0
    0.2738   -1.2712    5.9025 C   0  0  0  0  0  0  0  0  0  0  0  0
    1.2318   -1.7724    5.2580 O   0  0  0  0  0  0  0  0  0  0  0  0
    0.5782   -0.2817    6.9497 C   0  0  1  0  0  0  0  0  0  0  0  0
    1.2959   -0.8328    8.0087 O   0  0  0  0  0  0  0  0  0  0  0  0
    1.6807    0.3177    8.7067 C   0  0  2  0  0  0  0  0  0  0  0  0
    2.3466    1.1142    7.6038 C   0  0  1  0  0  0  0  0  0  0  0  0
    1.3261    0.9150    6.4747 C   0  0  2  0  0  0  0  0  0  0  0  0
    0.5523    2.0748    6.4356 O   0  0  0  0  0  0  0  0  0  0  0  0
    2.4997    2.4447    7.9273 O   0  0  0  0  0  0  0  0  0  0  0  0
    2.5806    0.0223    9.7970 N   0  0  0  0  0  0  0  0  0  0  0  0
    3.4152   -1.0254    9.7908 C   0  0  0  0  0  0  0  0  0  0  0  0
    4.1213   -1.0437   10.9268 N   0  0  0  0  0  0  0  0  0  0  0  0
    3.7400    0.0026   11.6761 C   0  0  0  0  0  0  0  0  0  0  0  0
    2.7718    0.6623   10.9528 C   0  0  0  0  0  0  0  0  0  0  0  0
    2.2143    1.7584   11.4780 N   0  0  0  0  0  0  0  0  0  0  0  0
    2.6068    2.1943   12.6959 C   0  0  0  0  0  0  0  0  0  0  0  0
    3.5466    1.5709   13.4204 N   0  0  0  0  0  0  0  0  0  0  0  0
    4.1353    0.4686   12.9384 C   0  0  0  0  0  0  0  0  0  0  0  0
    5.1410   -0.2537   13.6410 N   0  0  0  0  0  0  0  0  0  0  0  0
  1  2  1  0
  2  3  1  0
  3  4  1  0
  4  5  2  0
  6  4  1  6
  6  7  1  0
  7  8  1  0
  8  9  1  0
  9 10  1  0
 10 11  1  1
  9 12  1  1
  8 13  1  1
 13 14  1  0
 14 15  2  0
 15 16  1  0
 16 17  2  0
 17 18  1  0
 18 19  2  0
 19 20  1  0
 20 21  2  0
 21 22  1  0
 10  6  1  0
 17 13  1  0
 21 16  1  0
M  END
$$$$
