
     RDKit          3D

 22 24  0  0  0  0  0  0  0  0999 V2000
   -1.3927   -3.3140    3.5710 C   0  0  0  0  0  0  0  0  0  0  0  0
   -1.0582   -3.0773    5.0182 C   0  0  0  0  0  0  0  0  0  0  0  0
   -0.8966   -1.6737    5.3226 N   0  0  0  0  0  0  0  0  0  0  0  0
    0.3313   -1.1168    5.7685 C   0  0  0  0  0  0  0  0  0  0  0  0
    1.3943   -1.4422    5.1781 O   0  0  0  0  0  0  0  0  0  0  0  0
    0.4189   -0.1720    6.8945 C   0  0  1  0  0  0  0  0  0  0  0  0
    1.1135   -0.7017    7.9795 O   0  0  0  0  0  0  0  0  0  0  0  0
    1.2880    0.4365    8.7750 C   0  0  2  0  0  0  0  0  0  0  0  0
    1.9325    1.3839    7.7844 C   0  0  1  0  0  0  0  0  0  0  0  0
    1.0416    1.1382    6.5589 C   0  0  2  0  0  0  0  0  0  0  0  0
    0.1298    2.1930    6.5185 O   0  0  0  0  0  0  0  0  0  0  0  0
    1.8852    2.6975    8.1972 O   0  0  0  0  0  0  0  0  0  0  0  0
    2.1270    0.1804    9.9223 N   0  0  0  0  0  0  0  0  0  0  0  0
    2.6542   -1.0223   10.1867 C   0  0  0  0  0  0  0  0  0  0  0  0
    3.3817   -0.9571   11.3074 N   0  0  0  0  0  0  0  0  0  0  0  0
    3.3249    0.3004   11.7733 C   0  0  0  0  0  0  0  0  0  0  0  0
    2.5332    1.0025   10.8925 C   0  0  0  0  0  0  0  0  0  0  0  0
    2.3095    2.3001   11.1254 N   0  0  0  0  0  0  0  0  0  0  0  0
    2.8585    2.8927   12.2093 C   0  0  0  0  0  0  0  0  0  0  0  0
    3.6326    2.2324   13.0819 N   0  0  0  0  0  0  0  0  0  0  0  0
    3.8866    0.9309   12.8930 C   0  0  0  0  0  0  0  0  0  0  0  0
    4.6971    0.1554   13.7697 N   0  0  0  0  0  0  0  0  0  0  0  0
  1  2  1  0
  2  3  1  0
  3  4  1  0
  4  5  2  0
  6  4  1  6
  6  7  1  0
  7  8  1  0
  8  9  1  0
  9 10  1  0
 10 11  1  1
  9 12  1  1
  8 13  1  1
 13 14  1  0
 14 15  2  0
 15 16  1  0
 16 17  2  0
 17 18  1  0
 18 19  2  0
 19 20  1  0
 20 21  2  0
 21 22  1  0
 10  6  1  0
 17 13  1  0
 21 16  1  0
M  END
$$$$
