
     RDKit          3D

 22 24  0  0  0  0  0  0  0  0999 V2000
   -2.1196   -3.3899    4.2085 C   0  0  0  0  0  0  0  0  0  0  0  0
   -0.7027   -2.9072    4.3557 C   0  0  0  0  0  0  0  0  0  0  0  0
   -0.6144   -1.6888    5.1280 N   0  0  0  0  0  0  0  0  0  0  0  0
    0.6216   -1.1225    5.5381 C   0  0  0  0  0  0  0  0  0  0  0  0
    1.6664   -1.4235    4.9039 O   0  0  0  0  0  0  0  0  0  0  0  0
    0.7381   -0.1952    6.6761 C   0  0  1  0  0  0  0  0  0  0  0  0
    1.4227   -0.7572    7.7512 O   0  0  0  0  0  0  0  0  0  0  0  0
    1.6299    0.3655    8.5608 C   0  0  2  0  0  0  0  0  0  0  0  0
    2.2951    1.3088    7.5801 C   0  0  1  0  0  0  0  0  0  0  0  0
    1.3935    1.1026    6.3551 C   0  0  2  0  0  0  0  0  0  0  0  0
    0.5094    2.1812    6.3324 O   0  0  0  0  0  0  0  0  0  0  0  0
    2.2837    2.6177    8.0103 O   0  0  0  0  0  0  0  0  0  0  0  0
    2.4662    0.0725    9.7012 N   0  0  0  0  0  0  0  0  0  0  0  0
    2.9196   -1.1576    9.9767 C   0  0  0  0  0  0  0  0  0  0  0  0
    3.6647   -1.1232   11.0871 N   0  0  0  0  0  0  0  0  0  0  0  0
    3.6941    0.1417   11.5351 C   0  0  0  0  0  0  0  0  0  0  0  0
    2.9368    0.8805   10.6540 C   0  0  0  0  0  0  0  0  0  0  0  0
    2.7990    2.1928   10.8705 N   0  0  0  0  0  0  0  0  0  0  0  0
    3.3990    2.7642   11.9386 C   0  0  0  0  0  0  0  0  0  0  0  0
    4.1413    2.0682   12.8112 N   0  0  0  0  0  0  0  0  0  0  0  0
    4.3097    0.7508   12.6382 C   0  0  0  0  0  0  0  0  0  0  0  0
    5.0809   -0.0625   13.5161 N   0  0  0  0  0  0  0  0  0  0  0  0
  1  2  1  0
  2  3  1  0
  3  4  1  0
  4  5  2  0
  6  4  1  6
  6  7  1  0
  7  8  1  0
  8  9  1  0
  9 10  1  0
 10 11  1  1
  9 12  1  1
  8 13  1  1
 13 14  1  0
 14 15  2  0
 15 16  1  0
 16 17  2  0
 17 18  1  0
 18 19  2  0
 19 20  1  0
 20 21  2  0
 21 22  1  0
 10  6  1  0
 17 13  1  0
 21 16  1  0
M  END
$$$$
