
     RDKit          3D

 22 24  0  0  0  0  0  0  0  0999 V2000
   -1.6047   -2.9257    3.6418 C   0  0  0  0  0  0  0  0  0  0  0  0
   -0.9912   -3.1354    4.9990 C   0  0  0  0  0  0  0  0  0  0  0  0
   -0.9063   -1.9091    5.7592 N   0  0  0  0  0  0  0  0  0  0  0  0
    0.3281   -1.3361    6.1650 C   0  0  0  0  0  0  0  0  0  0  0  0
    1.3816   -1.6816    5.5691 O   0  0  0  0  0  0  0  0  0  0  0  0
    0.4330   -0.3521    7.2554 C   0  0  1  0  0  0  0  0  0  0  0  0
    1.1078   -0.8579    8.3641 O   0  0  0  0  0  0  0  0  0  0  0  0
    1.3064    0.3048    9.1176 C   0  0  2  0  0  0  0  0  0  0  0  0
    1.9803    1.1978    8.0965 C   0  0  1  0  0  0  0  0  0  0  0  0
    1.0905    0.9286    6.8751 C   0  0  2  0  0  0  0  0  0  0  0  0
    0.2059    2.0035    6.7892 O   0  0  0  0  0  0  0  0  0  0  0  0
    1.9638    2.5268    8.4595 O   0  0  0  0  0  0  0  0  0  0  0  0
    2.1320    0.0711   10.2793 N   0  0  0  0  0  0  0  0  0  0  0  0
    2.6224   -1.1349   10.5953 C   0  0  0  0  0  0  0  0  0  0  0  0
    3.3461   -1.0454   11.7167 N   0  0  0  0  0  0  0  0  0  0  0  0
    3.3242    0.2311   12.1309 C   0  0  0  0  0  0  0  0  0  0  0  0
    2.5577    0.9197   11.2177 C   0  0  0  0  0  0  0  0  0  0  0  0
    2.3713    2.2317   11.3965 N   0  0  0  0  0  0  0  0  0  0  0  0
    2.9324    2.8515   12.4587 C   0  0  0  0  0  0  0  0  0  0  0  0
    3.6825    2.2049   13.3620 N   0  0  0  0  0  0  0  0  0  0  0  0
    3.8990    0.8900   13.2274 C   0  0  0  0  0  0  0  0  0  0  0  0
    4.6821    0.1274   14.1396 N   0  0  0  0  0  0  0  0  0  0  0  0
  1  2  1  0
  2  3  1  0
  3  4  1  0
  4  5  2  0
  6  4  1  6
  6  7  1  0
  7  8  1  0
  8  9  1  0
  9 10  1  0
 10 11  1  1
  9 12  1  1
  8 13  1  1
 13 14  1  0
 14 15  2  0
 15 16  1  0
 16 17  2  0
 17 18  1  0
 18 19  2  0
 19 20  1  0
 20 21  2  0
 21 22  1  0
 10  6  1  0
 17 13  1  0
 21 16  1  0
M  END
$$$$
