
     RDKit          3D

 22 24  0  0  0  0  0  0  0  0999 V2000
   -1.5249   -3.2954    3.9209 C   0  0  0  0  0  0  0  0  0  0  0  0
   -1.9156   -2.8573    5.3057 C   0  0  0  0  0  0  0  0  0  0  0  0
   -1.4928   -1.5058    5.5945 N   0  0  0  0  0  0  0  0  0  0  0  0
   -0.1842   -1.1854    6.0434 C   0  0  0  0  0  0  0  0  0  0  0  0
    0.8004   -1.7300    5.4792 O   0  0  0  0  0  0  0  0  0  0  0  0
    0.0753   -0.2413    7.1433 C   0  0  1  0  0  0  0  0  0  0  0  0
    0.8338   -0.8103    8.1637 O   0  0  0  0  0  0  0  0  0  0  0  0
    1.1609    0.3186    8.9237 C   0  0  2  0  0  0  0  0  0  0  0  0
    1.7696    1.2128    7.8634 C   0  0  1  0  0  0  0  0  0  0  0  0
    0.7501    1.0207    6.7322 C   0  0  2  0  0  0  0  0  0  0  0  0
   -0.0878    2.1353    6.7653 O   0  0  0  0  0  0  0  0  0  0  0  0
    1.8514    2.5293    8.2614 O   0  0  0  0  0  0  0  0  0  0  0  0
    2.0873    0.0131    9.9887 N   0  0  0  0  0  0  0  0  0  0  0  0
    2.5976   -1.2101   10.1834 C   0  0  0  0  0  0  0  0  0  0  0  0
    3.4207   -1.1906   11.2377 N   0  0  0  0  0  0  0  0  0  0  0  0
    3.4435    0.0577   11.7306 C   0  0  0  0  0  0  0  0  0  0  0  0
    2.6011    0.8017   10.9354 C   0  0  0  0  0  0  0  0  0  0  0  0
    2.4390    2.1000   11.2114 N   0  0  0  0  0  0  0  0  0  0  0  0
    3.0976    2.6526   12.2546 C   0  0  0  0  0  0  0  0  0  0  0  0
    3.9231    1.9510   13.0440 N   0  0  0  0  0  0  0  0  0  0  0  0
    4.1191    0.6471   12.8090 C   0  0  0  0  0  0  0  0  0  0  0  0
    4.9776   -0.1708   13.5971 N   0  0  0  0  0  0  0  0  0  0  0  0
  1  2  1  0
  2  3  1  0
  3  4  1  0
  4  5  2  0
  6  4  1  6
  6  7  1  0
  7  8  1  0
  8  9  1  0
  9 10  1  0
 10 11  1  1
  9 12  1  1
  8 13  1  1
 13 14  1  0
 14 15  2  0
 15 16  1  0
 16 17  2  0
 17 18  1  0
 18 19  2  0
 19 20  1  0
 20 21  2  0
 21 22  1  0
 10  6  1  0
 17 13  1  0
 21 16  1  0
M  END
$$$$
