
     RDKit          3D

 22 24  0  0  0  0  0  0  0  0999 V2000
   -1.9005   -3.3328    4.3239 C   0  0  0  0  0  0  0  0  0  0  0  0
   -0.7347   -2.4685    3.9288 C   0  0  0  0  0  0  0  0  0  0  0  0
   -0.6183   -1.2901    4.7575 N   0  0  0  0  0  0  0  0  0  0  0  0
    0.6183   -0.8410    5.2918 C   0  0  0  0  0  0  0  0  0  0  0  0
    1.6876   -1.2198    4.7463 O   0  0  0  0  0  0  0  0  0  0  0  0
    0.7081    0.0513    6.4598 C   0  0  1  0  0  0  0  0  0  0  0  0
    1.3681   -0.5431    7.5328 O   0  0  0  0  0  0  0  0  0  0  0  0
    1.5560    0.5545    8.3806 C   0  0  2  0  0  0  0  0  0  0  0  0
    2.2431    1.5270    7.4445 C   0  0  1  0  0  0  0  0  0  0  0  0
    1.3700    1.3582    6.1934 C   0  0  2  0  0  0  0  0  0  0  0  0
    0.4861    2.4371    6.1830 O   0  0  0  0  0  0  0  0  0  0  0  0
    2.2211    2.8222    7.9138 O   0  0  0  0  0  0  0  0  0  0  0  0
    2.3660    0.2269    9.5305 N   0  0  0  0  0  0  0  0  0  0  0  0
    2.8213   -1.0092    9.7741 C   0  0  0  0  0  0  0  0  0  0  0  0
    3.5385   -1.0091   10.9032 N   0  0  0  0  0  0  0  0  0  0  0  0
    3.5477    0.2395   11.3958 C   0  0  0  0  0  0  0  0  0  0  0  0
    2.8071    1.0039   10.5224 C   0  0  0  0  0  0  0  0  0  0  0  0
    2.6546    2.3069   10.7812 N   0  0  0  0  0  0  0  0  0  0  0  0
    3.2239    2.8443   11.8832 C   0  0  0  0  0  0  0  0  0  0  0  0
    3.9494    2.1227   12.7491 N   0  0  0  0  0  0  0  0  0  0  0  0
    4.1315    0.8133   12.5345 C   0  0  0  0  0  0  0  0  0  0  0  0
    4.8867   -0.0254   13.4023 N   0  0  0  0  0  0  0  0  0  0  0  0
  1  2  1  0
  2  3  1  0
  3  4  1  0
  4  5  2  0
  6  4  1  6
  6  7  1  0
  7  8  1  0
  8  9  1  0
  9 10  1  0
 10 11  1  1
  9 12  1  1
  8 13  1  1
 13 14  1  0
 14 15  2  0
 15 16  1  0
 16 17  2  0
 17 18  1  0
 18 19  2  0
 19 20  1  0
 20 21  2  0
 21 22  1  0
 10  6  1  0
 17 13  1  0
 21 16  1  0
M  END
$$$$
