
     RDKit          3D

 22 24  0  0  0  0  0  0  0  0999 V2000
   -1.4754   -2.9689    3.4224 C   0  0  0  0  0  0  0  0  0  0  0  0
   -1.6233   -2.7438    4.9022 C   0  0  0  0  0  0  0  0  0  0  0  0
   -1.1658   -1.4341    5.3075 N   0  0  0  0  0  0  0  0  0  0  0  0
    0.0909   -1.2140    5.9309 C   0  0  0  0  0  0  0  0  0  0  0  0
    1.0827   -1.8896    5.5509 O   0  0  0  0  0  0  0  0  0  0  0  0
    0.2886   -0.2275    7.0061 C   0  0  1  0  0  0  0  0  0  0  0  0
    1.0111   -0.7473    8.0776 O   0  0  0  0  0  0  0  0  0  0  0  0
    1.2880    0.4130    8.8097 C   0  0  2  0  0  0  0  0  0  0  0  0
    1.9279    1.2794    7.7447 C   0  0  1  0  0  0  0  0  0  0  0  0
    0.9610    1.0304    6.5789 C   0  0  2  0  0  0  0  0  0  0  0  0
    0.1056    2.1313    6.5364 O   0  0  0  0  0  0  0  0  0  0  0  0
    1.9725    2.6103    8.0982 O   0  0  0  0  0  0  0  0  0  0  0  0
    2.1724    0.1609    9.9233 N   0  0  0  0  0  0  0  0  0  0  0  0
    2.6606   -1.0539   10.2068 C   0  0  0  0  0  0  0  0  0  0  0  0
    3.4460   -0.9812   11.2872 N   0  0  0  0  0  0  0  0  0  0  0  0
    3.4666    0.2934   11.7073 C   0  0  0  0  0  0  0  0  0  0  0  0
    2.6620    0.9982   10.8405 C   0  0  0  0  0  0  0  0  0  0  0  0
    2.5059    2.3119   11.0348 N   0  0  0  0  0  0  0  0  0  0  0  0
    3.1340    2.9178   12.0673 C   0  0  0  0  0  0  0  0  0  0  0  0
    3.9224    2.2552   12.9252 N   0  0  0  0  0  0  0  0  0  0  0  0
    4.1108    0.9379   12.7734 C   0  0  0  0  0  0  0  0  0  0  0  0
    4.9308    0.1588   13.6380 N   0  0  0  0  0  0  0  0  0  0  0  0
  1  2  1  0
  2  3  1  0
  3  4  1  0
  4  5  2  0
  6  4  1  6
  6  7  1  0
  7  8  1  0
  8  9  1  0
  9 10  1  0
 10 11  1  1
  9 12  1  1
  8 13  1  1
 13 14  1  0
 14 15  2  0
 15 16  1  0
 16 17  2  0
 17 18  1  0
 18 19  2  0
 19 20  1  0
 20 21  2  0
 21 22  1  0
 10  6  1  0
 17 13  1  0
 21 16  1  0
M  END
$$$$
