
     RDKit          3D

 22 24  0  0  0  0  0  0  0  0999 V2000
   -0.8778   -2.9825    3.2697 C   0  0  0  0  0  0  0  0  0  0  0  0
   -1.0937   -2.7434    4.7390 C   0  0  0  0  0  0  0  0  0  0  0  0
   -0.8137   -1.3778    5.1207 N   0  0  0  0  0  0  0  0  0  0  0  0
    0.4083   -0.9802    5.7250 C   0  0  0  0  0  0  0  0  0  0  0  0
    1.4884   -1.4315    5.2623 O   0  0  0  0  0  0  0  0  0  0  0  0
    0.4706   -0.0602    6.8731 C   0  0  1  0  0  0  0  0  0  0  0  0
    1.1187   -0.6229    7.9701 O   0  0  0  0  0  0  0  0  0  0  0  0
    1.2824    0.4958    8.7950 C   0  0  2  0  0  0  0  0  0  0  0  0
    1.9753    1.4531    7.8475 C   0  0  1  0  0  0  0  0  0  0  0  0
    1.1243    1.2467    6.5869 C   0  0  2  0  0  0  0  0  0  0  0  0
    0.2305    2.3163    6.5371 O   0  0  0  0  0  0  0  0  0  0  0  0
    1.9334    2.7585    8.2860 O   0  0  0  0  0  0  0  0  0  0  0  0
    2.0767    0.2030    9.9651 N   0  0  0  0  0  0  0  0  0  0  0  0
    2.4261   -1.0414   10.3170 C   0  0  0  0  0  0  0  0  0  0  0  0
    3.1562   -1.0028   11.4373 N   0  0  0  0  0  0  0  0  0  0  0  0
    3.2808    0.2793   11.8144 C   0  0  0  0  0  0  0  0  0  0  0  0
    2.5974    1.0243   10.8797 C   0  0  0  0  0  0  0  0  0  0  0  0
    2.5624    2.3536   11.0201 N   0  0  0  0  0  0  0  0  0  0  0  0
    3.1915    2.9357   12.0654 C   0  0  0  0  0  0  0  0  0  0  0  0
    3.8634    2.2340   12.9889 N   0  0  0  0  0  0  0  0  0  0  0  0
    3.9279    0.8996   12.8929 C   0  0  0  0  0  0  0  0  0  0  0  0
    4.6193    0.0792   13.8288 N   0  0  0  0  0  0  0  0  0  0  0  0
  1  2  1  0
  2  3  1  0
  3  4  1  0
  4  5  2  0
  6  4  1  6
  6  7  1  0
  7  8  1  0
  8  9  1  0
  9 10  1  0
 10 11  1  1
  9 12  1  1
  8 13  1  1
 13 14  1  0
 14 15  2  0
 15 16  1  0
 16 17  2  0
 17 18  1  0
 18 19  2  0
 19 20  1  0
 20 21  2  0
 21 22  1  0
 10  6  1  0
 17 13  1  0
 21 16  1  0
M  END
$$$$
