
     RDKit          3D

 22 24  0  0  0  0  0  0  0  0999 V2000
   -1.6494   -3.2051    3.7076 C   0  0  0  0  0  0  0  0  0  0  0  0
   -1.2610   -3.1126    5.1578 C   0  0  0  0  0  0  0  0  0  0  0  0
   -1.0778   -1.7462    5.5917 N   0  0  0  0  0  0  0  0  0  0  0  0
    0.1707   -1.2393    6.0398 C   0  0  0  0  0  0  0  0  0  0  0  0
    1.2215   -1.6132    5.4561 O   0  0  0  0  0  0  0  0  0  0  0  0
    0.2937   -0.2922    7.1606 C   0  0  1  0  0  0  0  0  0  0  0  0
    0.9945   -0.8312    8.2370 O   0  0  0  0  0  0  0  0  0  0  0  0
    1.2030    0.3065    9.0252 C   0  0  2  0  0  0  0  0  0  0  0  0
    1.8503    1.2376    8.0210 C   0  0  1  0  0  0  0  0  0  0  0  0
    0.9362    1.0045    6.8102 C   0  0  2  0  0  0  0  0  0  0  0  0
    0.0443    2.0765    6.7795 O   0  0  0  0  0  0  0  0  0  0  0  0
    1.8345    2.5534    8.4293 O   0  0  0  0  0  0  0  0  0  0  0  0
    2.0544    0.0385   10.1606 N   0  0  0  0  0  0  0  0  0  0  0  0
    2.5248   -1.1825   10.4478 C   0  0  0  0  0  0  0  0  0  0  0  0
    3.2808   -1.1245   11.5498 N   0  0  0  0  0  0  0  0  0  0  0  0
    3.3002    0.1466   11.9804 C   0  0  0  0  0  0  0  0  0  0  0  0
    2.5254    0.8647   11.0974 C   0  0  0  0  0  0  0  0  0  0  0  0
    2.3747    2.1781   11.2977 N   0  0  0  0  0  0  0  0  0  0  0  0
    2.9791    2.7708   12.3517 C   0  0  0  0  0  0  0  0  0  0  0  0
    3.7383    2.0952   13.2257 N   0  0  0  0  0  0  0  0  0  0  0  0
    3.9201    0.7775   13.0687 C   0  0  0  0  0  0  0  0  0  0  0  0
    4.7097   -0.0149   13.9494 N   0  0  0  0  0  0  0  0  0  0  0  0
  1  2  1  0
  2  3  1  0
  3  4  1  0
  4  5  2  0
  6  4  1  6
  6  7  1  0
  7  8  1  0
  8  9  1  0
  9 10  1  0
 10 11  1  1
  9 12  1  1
  8 13  1  1
 13 14  1  0
 14 15  2  0
 15 16  1  0
 16 17  2  0
 17 18  1  0
 18 19  2  0
 19 20  1  0
 20 21  2  0
 21 22  1  0
 10  6  1  0
 17 13  1  0
 21 16  1  0
M  END
$$$$
