
     RDKit          3D

 22 24  0  0  0  0  0  0  0  0999 V2000
   -1.7942   -3.2101    3.5911 C   0  0  0  0  0  0  0  0  0  0  0  0
   -1.1467   -3.0155    4.9347 C   0  0  0  0  0  0  0  0  0  0  0  0
   -0.9614   -1.6192    5.2586 N   0  0  0  0  0  0  0  0  0  0  0  0
    0.2943   -1.0744    5.6365 C   0  0  0  0  0  0  0  0  0  0  0  0
    1.3207   -1.4120    4.9908 O   0  0  0  0  0  0  0  0  0  0  0  0
    0.4520   -0.1284    6.7539 C   0  0  1  0  0  0  0  0  0  0  0  0
    1.1750   -0.6728    7.8128 O   0  0  0  0  0  0  0  0  0  0  0  0
    1.4115    0.4630    8.5956 C   0  0  2  0  0  0  0  0  0  0  0  0
    2.0410    1.3893    7.5758 C   0  0  1  0  0  0  0  0  0  0  0  0
    1.0956    1.1634    6.3879 C   0  0  2  0  0  0  0  0  0  0  0  0
    0.2115    2.2422    6.3791 O   0  0  0  0  0  0  0  0  0  0  0  0
    2.0453    2.7052    7.9843 O   0  0  0  0  0  0  0  0  0  0  0  0
    2.2885    0.1884    9.7097 N   0  0  0  0  0  0  0  0  0  0  0  0
    2.7818   -1.0302    9.9668 C   0  0  0  0  0  0  0  0  0  0  0  0
    3.5581   -0.9799   11.0550 N   0  0  0  0  0  0  0  0  0  0  0  0
    3.5676    0.2839   11.5070 C   0  0  0  0  0  0  0  0  0  0  0  0
    2.7656    1.0054   10.6515 C   0  0  0  0  0  0  0  0  0  0  0  0
    2.6000    2.3129   10.8772 N   0  0  0  0  0  0  0  0  0  0  0  0
    3.2160    2.8965   11.9295 C   0  0  0  0  0  0  0  0  0  0  0  0
    4.0016    2.2174   12.7771 N   0  0  0  0  0  0  0  0  0  0  0  0
    4.1993    0.9054   12.5940 C   0  0  0  0  0  0  0  0  0  0  0  0
    5.0171    0.1098   13.4456 N   0  0  0  0  0  0  0  0  0  0  0  0
  1  2  1  0
  2  3  1  0
  3  4  1  0
  4  5  2  0
  6  4  1  6
  6  7  1  0
  7  8  1  0
  8  9  1  0
  9 10  1  0
 10 11  1  1
  9 12  1  1
  8 13  1  1
 13 14  1  0
 14 15  2  0
 15 16  1  0
 16 17  2  0
 17 18  1  0
 18 19  2  0
 19 20  1  0
 20 21  2  0
 21 22  1  0
 10  6  1  0
 17 13  1  0
 21 16  1  0
M  END
$$$$
