
     RDKit          3D

 22 24  0  0  0  0  0  0  0  0999 V2000
   -2.2886   -3.3584    4.1087 C   0  0  0  0  0  0  0  0  0  0  0  0
   -0.9540   -3.1722    4.7770 C   0  0  0  0  0  0  0  0  0  0  0  0
   -0.8672   -1.9190    5.4918 N   0  0  0  0  0  0  0  0  0  0  0  0
    0.3664   -1.3486    5.9032 C   0  0  0  0  0  0  0  0  0  0  0  0
    1.4187   -1.6769    5.2954 O   0  0  0  0  0  0  0  0  0  0  0  0
    0.4722   -0.3866    7.0131 C   0  0  1  0  0  0  0  0  0  0  0  0
    1.1894   -0.8976    8.0924 O   0  0  0  0  0  0  0  0  0  0  0  0
    1.3750    0.2531    8.8672 C   0  0  2  0  0  0  0  0  0  0  0  0
    1.9970    1.1875    7.8502 C   0  0  1  0  0  0  0  0  0  0  0  0
    1.0836    0.9204    6.6459 C   0  0  2  0  0  0  0  0  0  0  0  0
    0.1675    1.9714    6.6072 O   0  0  0  0  0  0  0  0  0  0  0  0
    1.9529    2.5070    8.2441 O   0  0  0  0  0  0  0  0  0  0  0  0
    2.2367    0.0171   10.0019 N   0  0  0  0  0  0  0  0  0  0  0  0
    2.7451   -1.1874   10.2940 C   0  0  0  0  0  0  0  0  0  0  0  0
    3.5014   -1.1008   11.3939 N   0  0  0  0  0  0  0  0  0  0  0  0
    3.4826    0.1725   11.8182 C   0  0  0  0  0  0  0  0  0  0  0  0
    2.6841    0.8620   10.9336 C   0  0  0  0  0  0  0  0  0  0  0  0
    2.4935    2.1711   11.1278 N   0  0  0  0  0  0  0  0  0  0  0  0
    3.0817    2.7874   12.1774 C   0  0  0  0  0  0  0  0  0  0  0  0
    3.8632    2.1398   13.0529 N   0  0  0  0  0  0  0  0  0  0  0  0
    4.0851    0.8276   12.9020 C   0  0  0  0  0  0  0  0  0  0  0  0
    4.9007    0.0642   13.7846 N   0  0  0  0  0  0  0  0  0  0  0  0
  1  2  1  0
  2  3  1  0
  3  4  1  0
  4  5  2  0
  6  4  1  6
  6  7  1  0
  7  8  1  0
  8  9  1  0
  9 10  1  0
 10 11  1  1
  9 12  1  1
  8 13  1  1
 13 14  1  0
 14 15  2  0
 15 16  1  0
 16 17  2  0
 17 18  1  0
 18 19  2  0
 19 20  1  0
 20 21  2  0
 21 22  1  0
 10  6  1  0
 17 13  1  0
 21 16  1  0
M  END
$$$$
