
     RDKit          3D

 22 24  0  0  0  0  0  0  0  0999 V2000
   -1.7071   -3.8771    4.9615 C   0  0  0  0  0  0  0  0  0  0  0  0
   -1.1584   -2.6865    4.2241 C   0  0  0  0  0  0  0  0  0  0  0  0
   -1.0456   -1.5200    5.0700 N   0  0  0  0  0  0  0  0  0  0  0  0
    0.1937   -1.0582    5.5870 C   0  0  0  0  0  0  0  0  0  0  0  0
    1.2579   -1.4057    5.0115 O   0  0  0  0  0  0  0  0  0  0  0  0
    0.2919   -0.1876    6.7706 C   0  0  1  0  0  0  0  0  0  0  0  0
    1.0120   -0.7784    7.8062 O   0  0  0  0  0  0  0  0  0  0  0  0
    1.1890    0.3077    8.6711 C   0  0  2  0  0  0  0  0  0  0  0  0
    1.8049    1.3250    7.7331 C   0  0  1  0  0  0  0  0  0  0  0  0
    0.8943    1.1490    6.5101 C   0  0  2  0  0  0  0  0  0  0  0  0
   -0.0292    2.1933    6.5547 O   0  0  0  0  0  0  0  0  0  0  0  0
    1.7513    2.6084    8.2314 O   0  0  0  0  0  0  0  0  0  0  0  0
    2.0516   -0.0125    9.7842 N   0  0  0  0  0  0  0  0  0  0  0  0
    2.6137   -1.2173    9.9487 C   0  0  0  0  0  0  0  0  0  0  0  0
    3.3562   -1.2182   11.0614 N   0  0  0  0  0  0  0  0  0  0  0  0
    3.2741   -0.0018   11.6230 C   0  0  0  0  0  0  0  0  0  0  0  0
    2.4512    0.7439   10.8091 C   0  0  0  0  0  0  0  0  0  0  0  0
    2.1977    2.0134   11.1436 N   0  0  0  0  0  0  0  0  0  0  0  0
    2.7477    2.5362   12.2623 C   0  0  0  0  0  0  0  0  0  0  0  0
    3.5517    1.8323   13.0716 N   0  0  0  0  0  0  0  0  0  0  0  0
    3.8363    0.5564   12.7801 C   0  0  0  0  0  0  0  0  0  0  0  0
    4.6797   -0.2616   13.5841 N   0  0  0  0  0  0  0  0  0  0  0  0
  1  2  1  0
  2  3  1  0
  3  4  1  0
  4  5  2  0
  6  4  1  6
  6  7  1  0
  7  8  1  0
  8  9  1  0
  9 10  1  0
 10 11  1  1
  9 12  1  1
  8 13  1  1
 13 14  1  0
 14 15  2  0
 15 16  1  0
 16 17  2  0
 17 18  1  0
 18 19  2  0
 19 20  1  0
 20 21  2  0
 21 22  1  0
 10  6  1  0
 17 13  1  0
 21 16  1  0
M  END
$$$$
