
     RDKit          3D

 24 25  0  0  0  0  0  0  0  0999 V2000
    0.7167   -0.4738   -2.0262 C   0  0  0  0  0  0  0  0  0  0  0  0
    1.3473   -1.1867   -0.8766 C   0  0  0  0  0  0  0  0  0  0  0  0
    1.0836   -2.6979   -1.0211 C   0  0  0  0  0  0  0  0  0  0  0  0
    1.6891   -3.1853   -2.2258 N   0  0  0  0  0  0  0  0  0  0  0  0
    1.3337   -4.4514   -2.7463 C   0  0  0  0  0  0  0  0  0  0  0  0
    0.2509   -5.1516   -2.2756 C   0  0  0  0  0  0  0  0  0  0  0  0
   -0.0678   -6.3780   -2.8424 C   0  0  0  0  0  0  0  0  0  0  0  0
   -1.2618   -7.1197   -2.3010 C   0  0  0  0  0  0  0  0  0  0  0  0
    0.6589   -6.8971   -3.8434 N   0  0  0  0  0  0  0  0  0  0  0  0
    1.7343   -6.2406   -4.3390 C   0  0  0  0  0  0  0  0  0  0  0  0
    2.0649   -5.0287   -3.7920 C   0  0  0  0  0  0  0  0  0  0  0  0
    3.2325   -4.2636   -4.2938 C   0  0  0  0  0  0  0  0  0  0  0  0
    2.4954   -6.7806   -5.3853 O   0  0  0  0  0  0  0  0  0  0  0  0
    2.1063   -8.0051   -5.9149 C   0  0  0  0  0  0  0  0  0  0  0  0
    2.6445   -9.1782   -5.3820 C   0  0  0  0  0  0  0  0  0  0  0  0
    3.6245   -9.0295   -4.2525 C   0  0  0  0  0  0  0  0  0  0  0  0
    2.2984  -10.4071   -5.8628 C   0  0  0  0  0  0  0  0  0  0  0  0
    1.3867  -10.4762   -6.9088 C   0  0  0  0  0  0  0  0  0  0  0  0
    0.8499   -9.3175   -7.4411 C   0  0  0  0  0  0  0  0  0  0  0  0
    1.2101   -8.0651   -6.9426 C   0  0  0  0  0  0  0  0  0  0  0  0
    0.6411   -6.8129   -7.5053 C   0  0  0  0  0  0  0  0  0  0  0  0
    1.0234  -11.8201   -7.4172 C   0  0  0  0  0  0  0  0  0  0  0  0
    1.8296   -3.4003    0.1340 C   0  0  0  0  0  0  0  0  0  0  0  0
    0.7449   -3.9457    1.0535 C   0  0  0  0  0  0  0  0  0  0  0  0
  1  2  1  0
  2  3  1  0
  3  4  1  0
  4  5  1  0
  5  6  2  0
  6  7  1  0
  7  8  1  0
  7  9  2  0
  9 10  1  0
 10 11  2  0
 11 12  1  0
 10 13  1  0
 13 14  1  0
 14 15  2  0
 15 16  1  0
 15 17  1  0
 17 18  2  0
 18 19  1  0
 19 20  2  0
 20 21  1  0
 18 22  1  0
  3 23  1  0
 23 24  1  0
 11  5  1  0
 20 14  1  0
M  END
$$$$
