
     RDKit          3D

 24 25  0  0  0  0  0  0  0  0999 V2000
    1.1972   -9.8419   -8.2507 C   0  0  0  0  0  0  0  0  0  0  0  0
    2.0073   -8.8388   -9.0023 C   0  0  0  0  0  0  0  0  0  0  0  0
    1.3920   -7.4419   -8.7922 C   0  0  0  0  0  0  0  0  0  0  0  0
    2.0948   -6.7514   -7.7506 N   0  0  0  0  0  0  0  0  0  0  0  0
    1.5801   -6.7240   -6.4336 C   0  0  0  0  0  0  0  0  0  0  0  0
    0.4903   -7.4727   -6.0646 C   0  0  0  0  0  0  0  0  0  0  0  0
    0.0445   -7.4280   -4.7508 C   0  0  0  0  0  0  0  0  0  0  0  0
   -1.1544   -8.2614   -4.3808 C   0  0  0  0  0  0  0  0  0  0  0  0
    0.6556   -6.6684   -3.8293 N   0  0  0  0  0  0  0  0  0  0  0  0
    1.7340   -5.9148   -4.1489 C   0  0  0  0  0  0  0  0  0  0  0  0
    2.1885   -5.9456   -5.4410 C   0  0  0  0  0  0  0  0  0  0  0  0
    3.3657   -5.1409   -5.8500 C   0  0  0  0  0  0  0  0  0  0  0  0
    2.3748   -5.1203   -3.1877 O   0  0  0  0  0  0  0  0  0  0  0  0
    1.8351   -5.0764   -1.9078 C   0  0  0  0  0  0  0  0  0  0  0  0
    1.1507   -3.9305   -1.4976 C   0  0  0  0  0  0  0  0  0  0  0  0
    1.0449   -2.8056   -2.4884 C   0  0  0  0  0  0  0  0  0  0  0  0
    0.6009   -3.8326   -0.2528 C   0  0  0  0  0  0  0  0  0  0  0  0
    0.7339   -4.9082    0.6162 C   0  0  0  0  0  0  0  0  0  0  0  0
    1.4109   -6.0464    0.2156 C   0  0  0  0  0  0  0  0  0  0  0  0
    1.9698   -6.1371   -1.0595 C   0  0  0  0  0  0  0  0  0  0  0  0
    2.6994   -7.3537   -1.5024 C   0  0  0  0  0  0  0  0  0  0  0  0
    0.1299   -4.7829    1.9638 C   0  0  0  0  0  0  0  0  0  0  0  0
    1.6557   -6.6324  -10.0804 C   0  0  0  0  0  0  0  0  0  0  0  0
    0.5383   -5.6001  -10.1542 C   0  0  0  0  0  0  0  0  0  0  0  0
  1  2  1  0
  2  3  1  0
  3  4  1  0
  4  5  1  0
  5  6  2  0
  6  7  1  0
  7  8  1  0
  7  9  2  0
  9 10  1  0
 10 11  2  0
 11 12  1  0
 10 13  1  0
 13 14  1  0
 14 15  2  0
 15 16  1  0
 15 17  1  0
 17 18  2  0
 18 19  1  0
 19 20  2  0
 20 21  1  0
 18 22  1  0
  3 23  1  0
 23 24  1  0
 11  5  1  0
 20 14  1  0
M  END
$$$$
