
     RDKit          3D

 24 25  0  0  0  0  0  0  0  0999 V2000
    0.5624    6.3463    8.2439 C   0  0  0  0  0  0  0  0  0  0  0  0
   -0.5095    5.4109    8.6949 C   0  0  0  0  0  0  0  0  0  0  0  0
    0.1428    4.1054    9.1893 C   0  0  0  0  0  0  0  0  0  0  0  0
   -0.5874    3.5898   10.3102 N   0  0  0  0  0  0  0  0  0  0  0  0
   -0.5034    4.2207   11.5732 C   0  0  0  0  0  0  0  0  0  0  0  0
    0.4562    5.1619   11.8518 C   0  0  0  0  0  0  0  0  0  0  0  0
    0.4748    5.7691   13.0999 C   0  0  0  0  0  0  0  0  0  0  0  0
    1.5420    6.7967   13.3720 C   0  0  0  0  0  0  0  0  0  0  0  0
   -0.4261    5.4578   14.0438 N   0  0  0  0  0  0  0  0  0  0  0  0
   -1.3903    4.5360   13.8120 C   0  0  0  0  0  0  0  0  0  0  0  0
   -1.4246    3.9255   12.5859 C   0  0  0  0  0  0  0  0  0  0  0  0
   -2.4578    2.9077   12.2743 C   0  0  0  0  0  0  0  0  0  0  0  0
   -2.3334    4.2089   14.7965 O   0  0  0  0  0  0  0  0  0  0  0  0
   -2.3463    4.9583   15.9668 C   0  0  0  0  0  0  0  0  0  0  0  0
   -3.2041    6.0559   16.0618 C   0  0  0  0  0  0  0  0  0  0  0  0
   -4.0683    6.3538   14.8690 C   0  0  0  0  0  0  0  0  0  0  0  0
   -3.2583    6.8265   17.1863 C   0  0  0  0  0  0  0  0  0  0  0  0
   -2.4332    6.4979   18.2546 C   0  0  0  0  0  0  0  0  0  0  0  0
   -1.5810    5.4115   18.1665 C   0  0  0  0  0  0  0  0  0  0  0  0
   -1.5328    4.6293   17.0122 C   0  0  0  0  0  0  0  0  0  0  0  0
   -0.6221    3.4599   16.9046 C   0  0  0  0  0  0  0  0  0  0  0  0
   -2.5065    7.3468   19.4672 C   0  0  0  0  0  0  0  0  0  0  0  0
   -0.0266    3.0604    8.0652 C   0  0  0  0  0  0  0  0  0  0  0  0
    1.1974    2.1585    8.1535 C   0  0  0  0  0  0  0  0  0  0  0  0
  1  2  1  0
  2  3  1  0
  3  4  1  0
  4  5  1  0
  5  6  2  0
  6  7  1  0
  7  8  1  0
  7  9  2  0
  9 10  1  0
 10 11  2  0
 11 12  1  0
 10 13  1  0
 13 14  1  0
 14 15  2  0
 15 16  1  0
 15 17  1  0
 17 18  2  0
 18 19  1  0
 19 20  2  0
 20 21  1  0
 18 22  1  0
  3 23  1  0
 23 24  1  0
 11  5  1  0
 20 14  1  0
M  END
$$$$
