
     RDKit          3D

 24 25  0  0  0  0  0  0  0  0999 V2000
    2.2449  -10.5385   -2.4941 C   0  0  0  0  0  0  0  0  0  0  0  0
    0.8493  -10.7492   -2.9794 C   0  0  0  0  0  0  0  0  0  0  0  0
    0.2680   -9.3954   -3.4303 C   0  0  0  0  0  0  0  0  0  0  0  0
    0.9713   -8.9239   -4.5872 N   0  0  0  0  0  0  0  0  0  0  0  0
    1.1874   -7.5397   -4.7812 C   0  0  0  0  0  0  0  0  0  0  0  0
    1.1104   -6.6411   -3.7463 C   0  0  0  0  0  0  0  0  0  0  0  0
    1.3588   -5.2972   -3.9892 C   0  0  0  0  0  0  0  0  0  0  0  0
    1.2647   -4.3388   -2.8310 C   0  0  0  0  0  0  0  0  0  0  0  0
    1.6743   -4.8537   -5.2152 N   0  0  0  0  0  0  0  0  0  0  0  0
    1.7622   -5.7046   -6.2647 C   0  0  0  0  0  0  0  0  0  0  0  0
    1.5199   -7.0351   -6.0446 C   0  0  0  0  0  0  0  0  0  0  0  0
    1.6012   -8.0145   -7.1557 C   0  0  0  0  0  0  0  0  0  0  0  0
    2.0921   -5.2439   -7.5470 O   0  0  0  0  0  0  0  0  0  0  0  0
    2.1733   -3.8715   -7.7498 C   0  0  0  0  0  0  0  0  0  0  0  0
    1.2010   -3.2406   -8.5286 C   0  0  0  0  0  0  0  0  0  0  0  0
    0.1159   -4.1076   -9.1024 C   0  0  0  0  0  0  0  0  0  0  0  0
    1.2313   -1.8966   -8.7606 C   0  0  0  0  0  0  0  0  0  0  0  0
    2.2615   -1.1511   -8.2012 C   0  0  0  0  0  0  0  0  0  0  0  0
    3.2279   -1.7704   -7.4287 C   0  0  0  0  0  0  0  0  0  0  0  0
    3.1884   -3.1456   -7.1970 C   0  0  0  0  0  0  0  0  0  0  0  0
    4.2200   -3.8232   -6.3692 C   0  0  0  0  0  0  0  0  0  0  0  0
    2.2772    0.3072   -8.4647 C   0  0  0  0  0  0  0  0  0  0  0  0
   -1.1792   -9.6579   -3.9005 C   0  0  0  0  0  0  0  0  0  0  0  0
   -2.0229   -8.5574   -3.2708 C   0  0  0  0  0  0  0  0  0  0  0  0
  1  2  1  0
  2  3  1  0
  3  4  1  0
  4  5  1  0
  5  6  2  0
  6  7  1  0
  7  8  1  0
  7  9  2  0
  9 10  1  0
 10 11  2  0
 11 12  1  0
 10 13  1  0
 13 14  1  0
 14 15  2  0
 15 16  1  0
 15 17  1  0
 17 18  2  0
 18 19  1  0
 19 20  2  0
 20 21  1  0
 18 22  1  0
  3 23  1  0
 23 24  1  0
 11  5  1  0
 20 14  1  0
M  END
$$$$
