
     RDKit          3D

 24 25  0  0  0  0  0  0  0  0999 V2000
    1.2453   -8.1313    3.0854 C   0  0  0  0  0  0  0  0  0  0  0  0
    0.6042   -7.5762    1.8572 C   0  0  0  0  0  0  0  0  0  0  0  0
    1.6804   -6.8761    1.0053 C   0  0  0  0  0  0  0  0  0  0  0  0
    1.0559   -6.0470    0.0162 N   0  0  0  0  0  0  0  0  0  0  0  0
    1.2578   -6.2969   -1.3611 C   0  0  0  0  0  0  0  0  0  0  0  0
    1.7707   -7.4865   -1.8153 C   0  0  0  0  0  0  0  0  0  0  0  0
    1.9221   -7.6878   -3.1803 C   0  0  0  0  0  0  0  0  0  0  0  0
    2.4886   -9.0043   -3.6437 C   0  0  0  0  0  0  0  0  0  0  0  0
    1.5774   -6.7448   -4.0699 N   0  0  0  0  0  0  0  0  0  0  0  0
    1.0671   -5.5573   -3.6666 C   0  0  0  0  0  0  0  0  0  0  0  0
    0.9106   -5.3400   -2.3229 C   0  0  0  0  0  0  0  0  0  0  0  0
    0.3567   -4.0584   -1.8216 C   0  0  0  0  0  0  0  0  0  0  0  0
    0.7056   -4.5701   -4.5941 O   0  0  0  0  0  0  0  0  0  0  0  0
    1.3032   -4.5986   -5.8484 C   0  0  0  0  0  0  0  0  0  0  0  0
    0.7366   -5.3849   -6.8536 C   0  0  0  0  0  0  0  0  0  0  0  0
   -0.5022   -6.1586   -6.5002 C   0  0  0  0  0  0  0  0  0  0  0  0
    1.2808   -5.4506   -8.1029 C   0  0  0  0  0  0  0  0  0  0  0  0
    2.4271   -4.7110   -8.3656 C   0  0  0  0  0  0  0  0  0  0  0  0
    2.9932   -3.9300   -7.3737 C   0  0  0  0  0  0  0  0  0  0  0  0
    2.4293   -3.8693   -6.0990 C   0  0  0  0  0  0  0  0  0  0  0  0
    3.0273   -3.0345   -5.0247 C   0  0  0  0  0  0  0  0  0  0  0  0
    3.0033   -4.7954   -9.7284 C   0  0  0  0  0  0  0  0  0  0  0  0
    2.4400   -5.9097    1.9398 C   0  0  0  0  0  0  0  0  0  0  0  0
    3.9081   -6.0321    1.5537 C   0  0  0  0  0  0  0  0  0  0  0  0
  1  2  1  0
  2  3  1  0
  3  4  1  0
  4  5  1  0
  5  6  2  0
  6  7  1  0
  7  8  1  0
  7  9  2  0
  9 10  1  0
 10 11  2  0
 11 12  1  0
 10 13  1  0
 13 14  1  0
 14 15  2  0
 15 16  1  0
 15 17  1  0
 17 18  2  0
 18 19  1  0
 19 20  2  0
 20 21  1  0
 18 22  1  0
  3 23  1  0
 23 24  1  0
 11  5  1  0
 20 14  1  0
M  END
$$$$
