
     RDKit          3D

 24 25  0  0  0  0  0  0  0  0999 V2000
   -0.8155   -0.6954   -2.0459 C   0  0  0  0  0  0  0  0  0  0  0  0
    0.6444   -0.4385   -1.8723 C   0  0  0  0  0  0  0  0  0  0  0  0
    1.3435   -1.7610   -1.5031 C   0  0  0  0  0  0  0  0  0  0  0  0
    1.8331   -2.4011   -2.6889 N   0  0  0  0  0  0  0  0  0  0  0  0
    1.5550   -3.7659   -2.9348 C   0  0  0  0  0  0  0  0  0  0  0  0
    0.8215   -4.5264   -2.0584 C   0  0  0  0  0  0  0  0  0  0  0  0
    0.5557   -5.8541   -2.3639 C   0  0  0  0  0  0  0  0  0  0  0  0
   -0.2512   -6.6596   -1.3795 C   0  0  0  0  0  0  0  0  0  0  0  0
    0.9993   -6.4140   -3.4993 N   0  0  0  0  0  0  0  0  0  0  0  0
    1.7255   -5.7011   -4.3923 C   0  0  0  0  0  0  0  0  0  0  0  0
    1.9984   -4.3888   -4.1081 C   0  0  0  0  0  0  0  0  0  0  0  0
    2.7894   -3.5580   -5.0485 C   0  0  0  0  0  0  0  0  0  0  0  0
    2.1900   -6.2835   -5.5800 O   0  0  0  0  0  0  0  0  0  0  0  0
    1.9721   -7.6424   -5.7727 C   0  0  0  0  0  0  0  0  0  0  0  0
    0.8253   -8.0573   -6.4528 C   0  0  0  0  0  0  0  0  0  0  0  0
   -0.1087   -6.9841   -6.9368 C   0  0  0  0  0  0  0  0  0  0  0  0
    0.5609   -9.3779   -6.6705 C   0  0  0  0  0  0  0  0  0  0  0  0
    1.4647  -10.3209   -6.1974 C   0  0  0  0  0  0  0  0  0  0  0  0
    2.6028   -9.9161   -5.5227 C   0  0  0  0  0  0  0  0  0  0  0  0
    2.8646   -8.5631   -5.3050 C   0  0  0  0  0  0  0  0  0  0  0  0
    4.0831   -8.1149   -4.5819 C   0  0  0  0  0  0  0  0  0  0  0  0
    1.1600  -11.7502   -6.4435 C   0  0  0  0  0  0  0  0  0  0  0  0
    2.5970   -1.3960   -0.6786 C   0  0  0  0  0  0  0  0  0  0  0  0
    3.1199   -2.7126   -0.1193 C   0  0  0  0  0  0  0  0  0  0  0  0
  1  2  1  0
  2  3  1  0
  3  4  1  0
  4  5  1  0
  5  6  2  0
  6  7  1  0
  7  8  1  0
  7  9  2  0
  9 10  1  0
 10 11  2  0
 11 12  1  0
 10 13  1  0
 13 14  1  0
 14 15  2  0
 15 16  1  0
 15 17  1  0
 17 18  2  0
 18 19  1  0
 19 20  2  0
 20 21  1  0
 18 22  1  0
  3 23  1  0
 23 24  1  0
 11  5  1  0
 20 14  1  0
M  END
$$$$
