
     RDKit          3D

 24 25  0  0  0  0  0  0  0  0999 V2000
   -0.7981   -1.3888   -1.8452 C   0  0  0  0  0  0  0  0  0  0  0  0
    0.5374   -1.2241   -1.1996 C   0  0  0  0  0  0  0  0  0  0  0  0
    0.9108   -2.5363   -0.4834 C   0  0  0  0  0  0  0  0  0  0  0  0
    1.7924   -3.3085   -1.3093 N   0  0  0  0  0  0  0  0  0  0  0  0
    1.3351   -4.4893   -1.9393 C   0  0  0  0  0  0  0  0  0  0  0  0
    0.0547   -4.9537   -1.7687 C   0  0  0  0  0  0  0  0  0  0  0  0
   -0.3487   -6.1036   -2.4334 C   0  0  0  0  0  0  0  0  0  0  0  0
   -1.7602   -6.5855   -2.2227 C   0  0  0  0  0  0  0  0  0  0  0  0
    0.4855   -6.7743   -3.2421 N   0  0  0  0  0  0  0  0  0  0  0  0
    1.7565   -6.3518   -3.4400 C   0  0  0  0  0  0  0  0  0  0  0  0
    2.1731   -5.2187   -2.7920 C   0  0  0  0  0  0  0  0  0  0  0  0
    3.5543   -4.7080   -2.9701 C   0  0  0  0  0  0  0  0  0  0  0  0
    2.6303   -7.0505   -4.2849 O   0  0  0  0  0  0  0  0  0  0  0  0
    2.1342   -8.1479   -4.9784 C   0  0  0  0  0  0  0  0  0  0  0  0
    1.6907   -7.9785   -6.2915 C   0  0  0  0  0  0  0  0  0  0  0  0
    1.7835   -6.5953   -6.8716 C   0  0  0  0  0  0  0  0  0  0  0  0
    1.1944   -9.0203   -7.0192 C   0  0  0  0  0  0  0  0  0  0  0  0
    1.1353  -10.2745   -6.4247 C   0  0  0  0  0  0  0  0  0  0  0  0
    1.5732  -10.4488   -5.1239 C   0  0  0  0  0  0  0  0  0  0  0  0
    2.0793   -9.3771   -4.3877 C   0  0  0  0  0  0  0  0  0  0  0  0
    2.5528   -9.5506   -2.9898 C   0  0  0  0  0  0  0  0  0  0  0  0
    0.5931  -11.3934   -7.2312 C   0  0  0  0  0  0  0  0  0  0  0  0
    1.7370   -2.1526    0.7633 C   0  0  0  0  0  0  0  0  0  0  0  0
    0.7341   -1.6019    1.7685 C   0  0  0  0  0  0  0  0  0  0  0  0
  1  2  1  0
  2  3  1  0
  3  4  1  0
  4  5  1  0
  5  6  2  0
  6  7  1  0
  7  8  1  0
  7  9  2  0
  9 10  1  0
 10 11  2  0
 11 12  1  0
 10 13  1  0
 13 14  1  0
 14 15  2  0
 15 16  1  0
 15 17  1  0
 17 18  2  0
 18 19  1  0
 19 20  2  0
 20 21  1  0
 18 22  1  0
  3 23  1  0
 23 24  1  0
 11  5  1  0
 20 14  1  0
M  END
$$$$
