
     RDKit          3D

 24 25  0  0  0  0  0  0  0  0999 V2000
    4.3041   -3.2365  -10.7897 C   0  0  0  0  0  0  0  0  0  0  0  0
    3.6373   -2.1663   -9.9912 C   0  0  0  0  0  0  0  0  0  0  0  0
    2.5357   -2.8043   -9.1231 C   0  0  0  0  0  0  0  0  0  0  0  0
    3.1275   -3.4961   -8.0155 N   0  0  0  0  0  0  0  0  0  0  0  0
    2.5140   -4.6531   -7.4814 C   0  0  0  0  0  0  0  0  0  0  0  0
    1.5263   -5.3275   -8.1551 C   0  0  0  0  0  0  0  0  0  0  0  0
    0.9783   -6.4736   -7.5955 C   0  0  0  0  0  0  0  0  0  0  0  0
   -0.1040   -7.1882   -8.3615 C   0  0  0  0  0  0  0  0  0  0  0  0
    1.3927   -6.9402   -6.4080 N   0  0  0  0  0  0  0  0  0  0  0  0
    2.3646   -6.3073   -5.7095 C   0  0  0  0  0  0  0  0  0  0  0  0
    2.9174   -5.1741   -6.2455 C   0  0  0  0  0  0  0  0  0  0  0  0
    3.9857   -4.4382   -5.5261 C   0  0  0  0  0  0  0  0  0  0  0  0
    2.7998   -6.7930   -4.4684 O   0  0  0  0  0  0  0  0  0  0  0  0
    2.1167   -7.8656   -3.9079 C   0  0  0  0  0  0  0  0  0  0  0  0
    1.0791   -7.6152   -3.0076 C   0  0  0  0  0  0  0  0  0  0  0  0
    0.7697   -6.1764   -2.7037 C   0  0  0  0  0  0  0  0  0  0  0  0
    0.3748   -8.6293   -2.4274 C   0  0  0  0  0  0  0  0  0  0  0  0
    0.7105   -9.9381   -2.7507 C   0  0  0  0  0  0  0  0  0  0  0  0
    1.7376  -10.1927   -3.6420 C   0  0  0  0  0  0  0  0  0  0  0  0
    2.4521   -9.1487   -4.2302 C   0  0  0  0  0  0  0  0  0  0  0  0
    3.5575   -9.4084   -5.1891 C   0  0  0  0  0  0  0  0  0  0  0  0
   -0.0661  -11.0259   -2.1102 C   0  0  0  0  0  0  0  0  0  0  0  0
    1.7201   -1.6482   -8.5046 C   0  0  0  0  0  0  0  0  0  0  0  0
    0.4486   -1.5498   -9.3372 C   0  0  0  0  0  0  0  0  0  0  0  0
  1  2  1  0
  2  3  1  0
  3  4  1  0
  4  5  1  0
  5  6  2  0
  6  7  1  0
  7  8  1  0
  7  9  2  0
  9 10  1  0
 10 11  2  0
 11 12  1  0
 10 13  1  0
 13 14  1  0
 14 15  2  0
 15 16  1  0
 15 17  1  0
 17 18  2  0
 18 19  1  0
 19 20  2  0
 20 21  1  0
 18 22  1  0
  3 23  1  0
 23 24  1  0
 11  5  1  0
 20 14  1  0
M  END
$$$$
