
     RDKit          3D

 24 25  0  0  0  0  0  0  0  0999 V2000
    2.9895   -0.3129   -0.0352 C   0  0  0  0  0  0  0  0  0  0  0  0
    2.6334   -1.7529   -0.1999 C   0  0  0  0  0  0  0  0  0  0  0  0
    1.4265   -1.8628   -1.1515 C   0  0  0  0  0  0  0  0  0  0  0  0
    0.9200   -3.2041   -1.1434 N   0  0  0  0  0  0  0  0  0  0  0  0
    1.3145   -4.1263   -2.1404 C   0  0  0  0  0  0  0  0  0  0  0  0
    2.2864   -3.8266   -3.0625 C   0  0  0  0  0  0  0  0  0  0  0  0
    2.6534   -4.7803   -4.0019 C   0  0  0  0  0  0  0  0  0  0  0  0
    3.7224   -4.4176   -4.9992 C   0  0  0  0  0  0  0  0  0  0  0  0
    2.0797   -5.9926   -4.0304 N   0  0  0  0  0  0  0  0  0  0  0  0
    1.1178   -6.3311   -3.1397 C   0  0  0  0  0  0  0  0  0  0  0  0
    0.7419   -5.4027   -2.2048 C   0  0  0  0  0  0  0  0  0  0  0  0
   -0.3067   -5.7166   -1.2036 C   0  0  0  0  0  0  0  0  0  0  0  0
    0.5168   -7.5975   -3.1669 O   0  0  0  0  0  0  0  0  0  0  0  0
    0.8996   -8.4836   -4.1667 C   0  0  0  0  0  0  0  0  0  0  0  0
    1.9649   -9.3551   -3.9314 C   0  0  0  0  0  0  0  0  0  0  0  0
    2.6338   -9.2706   -2.5884 C   0  0  0  0  0  0  0  0  0  0  0  0
    2.3832  -10.2455   -4.8766 C   0  0  0  0  0  0  0  0  0  0  0  0
    1.7224  -10.2734   -6.0984 C   0  0  0  0  0  0  0  0  0  0  0  0
    0.6661   -9.4124   -6.3375 C   0  0  0  0  0  0  0  0  0  0  0  0
    0.2457   -8.5053   -5.3645 C   0  0  0  0  0  0  0  0  0  0  0  0
   -0.8874   -7.5751   -5.6085 C   0  0  0  0  0  0  0  0  0  0  0  0
    2.1914  -11.2474   -7.1122 C   0  0  0  0  0  0  0  0  0  0  0  0
    0.3006   -0.9886   -0.5579 C   0  0  0  0  0  0  0  0  0  0  0  0
   -0.4606   -0.4301   -1.7530 C   0  0  0  0  0  0  0  0  0  0  0  0
  1  2  1  0
  2  3  1  0
  3  4  1  0
  4  5  1  0
  5  6  2  0
  6  7  1  0
  7  8  1  0
  7  9  2  0
  9 10  1  0
 10 11  2  0
 11 12  1  0
 10 13  1  0
 13 14  1  0
 14 15  2  0
 15 16  1  0
 15 17  1  0
 17 18  2  0
 18 19  1  0
 19 20  2  0
 20 21  1  0
 18 22  1  0
  3 23  1  0
 23 24  1  0
 11  5  1  0
 20 14  1  0
M  END
$$$$
