
     RDKit          3D

 24 25  0  0  0  0  0  0  0  0999 V2000
    4.0163  -12.0576   -6.4494 C   0  0  0  0  0  0  0  0  0  0  0  0
    3.4456  -10.9252   -7.2365 C   0  0  0  0  0  0  0  0  0  0  0  0
    2.1099  -10.4971   -6.5987 C   0  0  0  0  0  0  0  0  0  0  0  0
    2.0038   -9.0673   -6.6030 N   0  0  0  0  0  0  0  0  0  0  0  0
    1.8211   -8.3575   -5.3935 C   0  0  0  0  0  0  0  0  0  0  0  0
    1.8175   -8.9892   -4.1748 C   0  0  0  0  0  0  0  0  0  0  0  0
    1.6613   -8.2390   -3.0174 C   0  0  0  0  0  0  0  0  0  0  0  0
    1.6612   -8.9645   -1.6974 C   0  0  0  0  0  0  0  0  0  0  0  0
    1.5137   -6.9064   -3.0611 N   0  0  0  0  0  0  0  0  0  0  0  0
    1.5120   -6.2422   -4.2409 C   0  0  0  0  0  0  0  0  0  0  0  0
    1.6646   -6.9658   -5.3943 C   0  0  0  0  0  0  0  0  0  0  0  0
    1.6706   -6.2929   -6.7163 C   0  0  0  0  0  0  0  0  0  0  0  0
    1.3584   -4.8495   -4.2896 O   0  0  0  0  0  0  0  0  0  0  0  0
    1.4537   -4.1374   -3.1000 C   0  0  0  0  0  0  0  0  0  0  0  0
    2.6460   -3.4769   -2.7968 C   0  0  0  0  0  0  0  0  0  0  0  0
    3.7617   -3.5854   -3.7976 C   0  0  0  0  0  0  0  0  0  0  0  0
    2.7954   -2.7633   -1.6436 C   0  0  0  0  0  0  0  0  0  0  0  0
    1.7255   -2.7020   -0.7595 C   0  0  0  0  0  0  0  0  0  0  0  0
    0.5416   -3.3544   -1.0543 C   0  0  0  0  0  0  0  0  0  0  0  0
    0.3984   -4.0818   -2.2363 C   0  0  0  0  0  0  0  0  0  0  0  0
   -0.8677   -4.7871   -2.5650 C   0  0  0  0  0  0  0  0  0  0  0  0
    1.9071   -1.9221    0.4875 C   0  0  0  0  0  0  0  0  0  0  0  0
    0.9830  -11.0015   -7.5260 C   0  0  0  0  0  0  0  0  0  0  0  0
   -0.3033  -10.8667   -6.7217 C   0  0  0  0  0  0  0  0  0  0  0  0
  1  2  1  0
  2  3  1  0
  3  4  1  0
  4  5  1  0
  5  6  2  0
  6  7  1  0
  7  8  1  0
  7  9  2  0
  9 10  1  0
 10 11  2  0
 11 12  1  0
 10 13  1  0
 13 14  1  0
 14 15  2  0
 15 16  1  0
 15 17  1  0
 17 18  2  0
 18 19  1  0
 19 20  2  0
 20 21  1  0
 18 22  1  0
  3 23  1  0
 23 24  1  0
 11  5  1  0
 20 14  1  0
M  END
$$$$
