
     RDKit          3D

 24 25  0  0  0  0  0  0  0  0999 V2000
    4.6677   -2.1339  -10.5104 C   0  0  0  0  0  0  0  0  0  0  0  0
    3.9742   -3.4136  -10.8406 C   0  0  0  0  0  0  0  0  0  0  0  0
    2.6965   -3.5236   -9.9866 C   0  0  0  0  0  0  0  0  0  0  0  0
    3.0396   -3.8714   -8.6387 N   0  0  0  0  0  0  0  0  0  0  0  0
    2.3527   -4.9102   -7.9685 C   0  0  0  0  0  0  0  0  0  0  0  0
    1.4871   -5.7494   -8.6249 C   0  0  0  0  0  0  0  0  0  0  0  0
    0.8608   -6.7697   -7.9224 C   0  0  0  0  0  0  0  0  0  0  0  0
   -0.0834   -7.6713   -8.6737 C   0  0  0  0  0  0  0  0  0  0  0  0
    1.0823   -6.9567   -6.6126 N   0  0  0  0  0  0  0  0  0  0  0  0
    1.9285   -6.1534   -5.9257 C   0  0  0  0  0  0  0  0  0  0  0  0
    2.5558   -5.1404   -6.6020 C   0  0  0  0  0  0  0  0  0  0  0  0
    3.4935   -4.2285   -5.9024 C   0  0  0  0  0  0  0  0  0  0  0  0
    2.1621   -6.3468   -4.5569 O   0  0  0  0  0  0  0  0  0  0  0  0
    1.5618   -7.4359   -3.9367 C   0  0  0  0  0  0  0  0  0  0  0  0
    2.1423   -8.6989   -4.0694 C   0  0  0  0  0  0  0  0  0  0  0  0
    3.3986   -8.7915   -4.8888 C   0  0  0  0  0  0  0  0  0  0  0  0
    1.5961   -9.8027   -3.4824 C   0  0  0  0  0  0  0  0  0  0  0  0
    0.4334   -9.6497   -2.7376 C   0  0  0  0  0  0  0  0  0  0  0  0
   -0.1466   -8.4009   -2.6024 C   0  0  0  0  0  0  0  0  0  0  0  0
    0.4195   -7.2779   -3.2065 C   0  0  0  0  0  0  0  0  0  0  0  0
   -0.1933   -5.9310   -3.0693 C   0  0  0  0  0  0  0  0  0  0  0  0
   -0.1446  -10.8603   -2.1078 C   0  0  0  0  0  0  0  0  0  0  0  0
    2.0808   -2.1098   -9.9084 C   0  0  0  0  0  0  0  0  0  0  0  0
    0.5867   -2.3220   -9.7029 C   0  0  0  0  0  0  0  0  0  0  0  0
  1  2  1  0
  2  3  1  0
  3  4  1  0
  4  5  1  0
  5  6  2  0
  6  7  1  0
  7  8  1  0
  7  9  2  0
  9 10  1  0
 10 11  2  0
 11 12  1  0
 10 13  1  0
 13 14  1  0
 14 15  2  0
 15 16  1  0
 15 17  1  0
 17 18  2  0
 18 19  1  0
 19 20  2  0
 20 21  1  0
 18 22  1  0
  3 23  1  0
 23 24  1  0
 11  5  1  0
 20 14  1  0
M  END
$$$$
