
     RDKit          3D

 24 25  0  0  0  0  0  0  0  0999 V2000
    1.0468   -1.6186    2.3939 C   0  0  0  0  0  0  0  0  0  0  0  0
    0.0372   -1.8803    1.3262 C   0  0  0  0  0  0  0  0  0  0  0  0
    0.7508   -1.9096   -0.0391 C   0  0  0  0  0  0  0  0  0  0  0  0
    0.0027   -2.7111   -0.9629 N   0  0  0  0  0  0  0  0  0  0  0  0
    0.4297   -4.0198   -1.2873 C   0  0  0  0  0  0  0  0  0  0  0  0
    0.6815   -4.9614   -0.3207 C   0  0  0  0  0  0  0  0  0  0  0  0
    1.0720   -6.2390   -0.6976 C   0  0  0  0  0  0  0  0  0  0  0  0
    1.3410   -7.2471    0.3889 C   0  0  0  0  0  0  0  0  0  0  0  0
    1.2092   -6.5773   -1.9884 N   0  0  0  0  0  0  0  0  0  0  0  0
    0.9706   -5.6808   -2.9746 C   0  0  0  0  0  0  0  0  0  0  0  0
    0.5845   -4.4143   -2.6221 C   0  0  0  0  0  0  0  0  0  0  0  0
    0.3092   -3.3895   -3.6586 C   0  0  0  0  0  0  0  0  0  0  0  0
    1.1128   -6.0317   -4.3245 O   0  0  0  0  0  0  0  0  0  0  0  0
    1.2567   -7.3773   -4.6405 C   0  0  0  0  0  0  0  0  0  0  0  0
    2.5346   -7.8866   -4.8799 C   0  0  0  0  0  0  0  0  0  0  0  0
    3.6845   -6.9246   -4.7768 C   0  0  0  0  0  0  0  0  0  0  0  0
    2.7346   -9.1990   -5.1940 C   0  0  0  0  0  0  0  0  0  0  0  0
    1.6291  -10.0367   -5.2736 C   0  0  0  0  0  0  0  0  0  0  0  0
    0.3603   -9.5381   -5.0374 C   0  0  0  0  0  0  0  0  0  0  0  0
    0.1659   -8.1942   -4.7168 C   0  0  0  0  0  0  0  0  0  0  0  0
   -1.1914   -7.6459   -4.4609 C   0  0  0  0  0  0  0  0  0  0  0  0
    1.8667  -11.4590   -5.6159 C   0  0  0  0  0  0  0  0  0  0  0  0
    0.7077   -0.4731   -0.6037 C   0  0  0  0  0  0  0  0  0  0  0  0
    1.9785   -0.3164   -1.4284 C   0  0  0  0  0  0  0  0  0  0  0  0
  1  2  1  0
  2  3  1  0
  3  4  1  0
  4  5  1  0
  5  6  2  0
  6  7  1  0
  7  8  1  0
  7  9  2  0
  9 10  1  0
 10 11  2  0
 11 12  1  0
 10 13  1  0
 13 14  1  0
 14 15  2  0
 15 16  1  0
 15 17  1  0
 17 18  2  0
 18 19  1  0
 19 20  2  0
 20 21  1  0
 18 22  1  0
  3 23  1  0
 23 24  1  0
 11  5  1  0
 20 14  1  0
M  END
$$$$
