
     RDKit          3D

 24 25  0  0  0  0  0  0  0  0999 V2000
    1.0242   -6.9337   -9.6241 C   0  0  0  0  0  0  0  0  0  0  0  0
    0.0476   -6.7021   -8.5195 C   0  0  0  0  0  0  0  0  0  0  0  0
    0.4699   -7.5386   -7.2964 C   0  0  0  0  0  0  0  0  0  0  0  0
   -0.0811   -6.9681   -6.1020 N   0  0  0  0  0  0  0  0  0  0  0  0
    0.6915   -6.8933   -4.9197 C   0  0  0  0  0  0  0  0  0  0  0  0
    2.0583   -7.0191   -4.9369 C   0  0  0  0  0  0  0  0  0  0  0  0
    2.7689   -6.9099   -3.7494 C   0  0  0  0  0  0  0  0  0  0  0  0
    4.2672   -7.0540   -3.8046 C   0  0  0  0  0  0  0  0  0  0  0  0
    2.1499   -6.6829   -2.5811 N   0  0  0  0  0  0  0  0  0  0  0  0
    0.8038   -6.5515   -2.5179 C   0  0  0  0  0  0  0  0  0  0  0  0
    0.0852   -6.6565   -3.6797 C   0  0  0  0  0  0  0  0  0  0  0  0
   -1.3920   -6.5215   -3.6723 C   0  0  0  0  0  0  0  0  0  0  0  0
    0.1544   -6.3138   -1.2983 O   0  0  0  0  0  0  0  0  0  0  0  0
    0.9030   -6.3942   -0.1302 C   0  0  0  0  0  0  0  0  0  0  0  0
    1.1964   -5.2230    0.5712 C   0  0  0  0  0  0  0  0  0  0  0  0
    0.6717   -3.9351    0.0017 C   0  0  0  0  0  0  0  0  0  0  0  0
    1.9271   -5.2429    1.7231 C   0  0  0  0  0  0  0  0  0  0  0  0
    2.3831   -6.4667    2.1969 C   0  0  0  0  0  0  0  0  0  0  0  0
    2.0956   -7.6306    1.5064 C   0  0  0  0  0  0  0  0  0  0  0  0
    1.3476   -7.6001    0.3291 C   0  0  0  0  0  0  0  0  0  0  0  0
    1.0318   -8.8428   -0.4222 C   0  0  0  0  0  0  0  0  0  0  0  0
    3.1751   -6.4677    3.4496 C   0  0  0  0  0  0  0  0  0  0  0  0
   -0.1969   -8.9236   -7.4427 C   0  0  0  0  0  0  0  0  0  0  0  0
    0.5558   -9.8456   -6.4927 C   0  0  0  0  0  0  0  0  0  0  0  0
  1  2  1  0
  2  3  1  0
  3  4  1  0
  4  5  1  0
  5  6  2  0
  6  7  1  0
  7  8  1  0
  7  9  2  0
  9 10  1  0
 10 11  2  0
 11 12  1  0
 10 13  1  0
 13 14  1  0
 14 15  2  0
 15 16  1  0
 15 17  1  0
 17 18  2  0
 18 19  1  0
 19 20  2  0
 20 21  1  0
 18 22  1  0
  3 23  1  0
 23 24  1  0
 11  5  1  0
 20 14  1  0
M  END
$$$$
