
     RDKit          3D

 24 25  0  0  0  0  0  0  0  0999 V2000
   -1.5163    7.4986   12.2107 C   0  0  0  0  0  0  0  0  0  0  0  0
   -0.6588    7.2391   11.0171 C   0  0  0  0  0  0  0  0  0  0  0  0
    0.2623    6.0404   11.3153 C   0  0  0  0  0  0  0  0  0  0  0  0
   -0.3744    4.8228   10.9061 N   0  0  0  0  0  0  0  0  0  0  0  0
   -1.1155    4.0537   11.8332 C   0  0  0  0  0  0  0  0  0  0  0  0
   -1.1490    4.3631   13.1701 C   0  0  0  0  0  0  0  0  0  0  0  0
   -1.9154    3.5895   14.0309 C   0  0  0  0  0  0  0  0  0  0  0  0
   -1.9286    3.9566   15.4916 C   0  0  0  0  0  0  0  0  0  0  0  0
   -2.6275    2.5432   13.5860 N   0  0  0  0  0  0  0  0  0  0  0  0
   -2.6242    2.2026   12.2757 C   0  0  0  0  0  0  0  0  0  0  0  0
   -1.8733    2.9543   11.4106 C   0  0  0  0  0  0  0  0  0  0  0  0
   -1.8307    2.6290    9.9640 C   0  0  0  0  0  0  0  0  0  0  0  0
   -3.3677    1.1099   11.8079 O   0  0  0  0  0  0  0  0  0  0  0  0
   -4.0029    0.3009   12.7424 C   0  0  0  0  0  0  0  0  0  0  0  0
   -5.3140    0.5983   13.1198 C   0  0  0  0  0  0  0  0  0  0  0  0
   -5.9562    1.7947   12.4761 C   0  0  0  0  0  0  0  0  0  0  0  0
   -5.9857   -0.1614   14.0325 C   0  0  0  0  0  0  0  0  0  0  0  0
   -5.3353   -1.2545   14.5910 C   0  0  0  0  0  0  0  0  0  0  0  0
   -4.0363   -1.5544   14.2212 C   0  0  0  0  0  0  0  0  0  0  0  0
   -3.3575   -0.7715   13.2869 C   0  0  0  0  0  0  0  0  0  0  0  0
   -1.9622   -1.0825   12.8810 C   0  0  0  0  0  0  0  0  0  0  0  0
   -6.0815   -2.0674   15.5804 C   0  0  0  0  0  0  0  0  0  0  0  0
    1.5037    6.1866   10.4088 C   0  0  0  0  0  0  0  0  0  0  0  0
    2.5148    5.1730   10.9283 C   0  0  0  0  0  0  0  0  0  0  0  0
  1  2  1  0
  2  3  1  0
  3  4  1  0
  4  5  1  0
  5  6  2  0
  6  7  1  0
  7  8  1  0
  7  9  2  0
  9 10  1  0
 10 11  2  0
 11 12  1  0
 10 13  1  0
 13 14  1  0
 14 15  2  0
 15 16  1  0
 15 17  1  0
 17 18  2  0
 18 19  1  0
 19 20  2  0
 20 21  1  0
 18 22  1  0
  3 23  1  0
 23 24  1  0
 11  5  1  0
 20 14  1  0
M  END
$$$$
