
     RDKit          3D

 24 25  0  0  0  0  0  0  0  0999 V2000
   -0.9044   -3.8878   15.2980 C   0  0  0  0  0  0  0  0  0  0  0  0
   -0.1476   -2.9638   14.4030 C   0  0  0  0  0  0  0  0  0  0  0  0
   -1.1440   -2.2336   13.4820 C   0  0  0  0  0  0  0  0  0  0  0  0
   -0.7435   -0.8669   13.3169 N   0  0  0  0  0  0  0  0  0  0  0  0
   -1.5675    0.1838   13.7830 C   0  0  0  0  0  0  0  0  0  0  0  0
   -2.7907   -0.0541   14.3589 C   0  0  0  0  0  0  0  0  0  0  0  0
   -3.5457    1.0139   14.8236 C   0  0  0  0  0  0  0  0  0  0  0  0
   -4.8834    0.7168   15.4491 C   0  0  0  0  0  0  0  0  0  0  0  0
   -3.1071    2.2777   14.7240 N   0  0  0  0  0  0  0  0  0  0  0  0
   -1.9068    2.5583   14.1640 C   0  0  0  0  0  0  0  0  0  0  0  0
   -1.1472    1.5171   13.6990 C   0  0  0  0  0  0  0  0  0  0  0  0
    0.1762    1.7631   13.0757 C   0  0  0  0  0  0  0  0  0  0  0  0
   -1.4457    3.8781   14.0588 O   0  0  0  0  0  0  0  0  0  0  0  0
   -2.2786    4.9005   14.4974 C   0  0  0  0  0  0  0  0  0  0  0  0
   -3.4437    5.1825   13.7814 C   0  0  0  0  0  0  0  0  0  0  0  0
   -3.7186    4.3444   12.5647 C   0  0  0  0  0  0  0  0  0  0  0  0
   -4.2975    6.1746   14.1661 C   0  0  0  0  0  0  0  0  0  0  0  0
   -3.9859    6.9134   15.3006 C   0  0  0  0  0  0  0  0  0  0  0  0
   -2.8329    6.6387   16.0144 C   0  0  0  0  0  0  0  0  0  0  0  0
   -1.9658    5.6220   15.6129 C   0  0  0  0  0  0  0  0  0  0  0  0
   -0.7242    5.3168   16.3704 C   0  0  0  0  0  0  0  0  0  0  0  0
   -4.9256    7.9866   15.7025 C   0  0  0  0  0  0  0  0  0  0  0  0
   -1.0218   -2.8756   12.0830 C   0  0  0  0  0  0  0  0  0  0  0  0
   -1.6609   -4.2527   12.2046 C   0  0  0  0  0  0  0  0  0  0  0  0
  1  2  1  0
  2  3  1  0
  3  4  1  0
  4  5  1  0
  5  6  2  0
  6  7  1  0
  7  8  1  0
  7  9  2  0
  9 10  1  0
 10 11  2  0
 11 12  1  0
 10 13  1  0
 13 14  1  0
 14 15  2  0
 15 16  1  0
 15 17  1  0
 17 18  2  0
 18 19  1  0
 19 20  2  0
 20 21  1  0
 18 22  1  0
  3 23  1  0
 23 24  1  0
 11  5  1  0
 20 14  1  0
M  END
$$$$
