
     RDKit          3D

 24 25  0  0  0  0  0  0  0  0999 V2000
   -1.2400   -2.9238    2.9509 C   0  0  0  0  0  0  0  0  0  0  0  0
   -0.9642   -1.4895    2.6442 C   0  0  0  0  0  0  0  0  0  0  0  0
    0.4678   -1.3640    2.0897 C   0  0  0  0  0  0  0  0  0  0  0  0
    0.4700   -1.6301    0.6809 N   0  0  0  0  0  0  0  0  0  0  0  0
    0.7229   -2.9349    0.1973 C   0  0  0  0  0  0  0  0  0  0  0  0
    1.1592   -3.9424    1.0214 C   0  0  0  0  0  0  0  0  0  0  0  0
    1.3652   -5.2114    0.4981 C   0  0  0  0  0  0  0  0  0  0  0  0
    1.8449   -6.2929    1.4304 C   0  0  0  0  0  0  0  0  0  0  0  0
    1.1468   -5.4784   -0.7983 N   0  0  0  0  0  0  0  0  0  0  0  0
    0.7157   -4.5154   -1.6467 C   0  0  0  0  0  0  0  0  0  0  0  0
    0.5070   -3.2562   -1.1486 C   0  0  0  0  0  0  0  0  0  0  0  0
    0.0350   -2.1607   -2.0303 C   0  0  0  0  0  0  0  0  0  0  0  0
    0.4862   -4.7917   -3.0019 O   0  0  0  0  0  0  0  0  0  0  0  0
    0.8172   -6.0544   -3.4788 C   0  0  0  0  0  0  0  0  0  0  0  0
   -0.1090   -7.0920   -3.3553 C   0  0  0  0  0  0  0  0  0  0  0  0
   -1.4222   -6.7626   -2.7032 C   0  0  0  0  0  0  0  0  0  0  0  0
    0.1625   -8.3509   -3.8056 C   0  0  0  0  0  0  0  0  0  0  0  0
    1.3956   -8.5902   -4.3993 C   0  0  0  0  0  0  0  0  0  0  0  0
    2.3175   -7.5662   -4.5245 C   0  0  0  0  0  0  0  0  0  0  0  0
    2.0306   -6.2819   -4.0609 C   0  0  0  0  0  0  0  0  0  0  0  0
    3.0118   -5.1732   -4.1891 C   0  0  0  0  0  0  0  0  0  0  0  0
    1.6719   -9.9639   -4.8820 C   0  0  0  0  0  0  0  0  0  0  0  0
    0.8816    0.1165    2.2347 C   0  0  0  0  0  0  0  0  0  0  0  0
    1.0916    0.3413    3.7264 C   0  0  0  0  0  0  0  0  0  0  0  0
  1  2  1  0
  2  3  1  0
  3  4  1  0
  4  5  1  0
  5  6  2  0
  6  7  1  0
  7  8  1  0
  7  9  2  0
  9 10  1  0
 10 11  2  0
 11 12  1  0
 10 13  1  0
 13 14  1  0
 14 15  2  0
 15 16  1  0
 15 17  1  0
 17 18  2  0
 18 19  1  0
 19 20  2  0
 20 21  1  0
 18 22  1  0
  3 23  1  0
 23 24  1  0
 11  5  1  0
 20 14  1  0
M  END
$$$$
