
     RDKit          3D

 24 25  0  0  0  0  0  0  0  0999 V2000
   -0.0426   -0.4217    1.7443 C   0  0  0  0  0  0  0  0  0  0  0  0
    0.5275   -1.7909    1.5775 C   0  0  0  0  0  0  0  0  0  0  0  0
    1.2883   -1.8551    0.2391 C   0  0  0  0  0  0  0  0  0  0  0  0
    0.5033   -2.5561   -0.7346 N   0  0  0  0  0  0  0  0  0  0  0  0
    1.0046   -3.7243   -1.3545 C   0  0  0  0  0  0  0  0  0  0  0  0
    2.1535   -4.3390   -0.9228 C   0  0  0  0  0  0  0  0  0  0  0  0
    2.5846   -5.4991   -1.5513 C   0  0  0  0  0  0  0  0  0  0  0  0
    3.8497   -6.1468   -1.0526 C   0  0  0  0  0  0  0  0  0  0  0  0
    1.9027   -6.0366   -2.5739 N   0  0  0  0  0  0  0  0  0  0  0  0
    0.7643   -5.4643   -3.0318 C   0  0  0  0  0  0  0  0  0  0  0  0
    0.3231   -4.3183   -2.4242 C   0  0  0  0  0  0  0  0  0  0  0  0
   -0.9176   -3.6465   -2.8824 C   0  0  0  0  0  0  0  0  0  0  0  0
    0.0494   -6.0241   -4.1000 O   0  0  0  0  0  0  0  0  0  0  0  0
    0.4944   -7.2310   -4.6259 C   0  0  0  0  0  0  0  0  0  0  0  0
    1.4018   -7.2168   -5.6871 C   0  0  0  0  0  0  0  0  0  0  0  0
    1.8403   -5.8718   -6.1941 C   0  0  0  0  0  0  0  0  0  0  0  0
    1.8719   -8.3710   -6.2421 C   0  0  0  0  0  0  0  0  0  0  0  0
    1.4272   -9.5823   -5.7273 C   0  0  0  0  0  0  0  0  0  0  0  0
    0.5281   -9.6030   -4.6759 C   0  0  0  0  0  0  0  0  0  0  0  0
    0.0530   -8.4171   -4.1149 C   0  0  0  0  0  0  0  0  0  0  0  0
   -0.9127   -8.4253   -2.9854 C   0  0  0  0  0  0  0  0  0  0  0  0
    1.9492  -10.8250   -6.3434 C   0  0  0  0  0  0  0  0  0  0  0  0
    1.4063   -0.4074   -0.2847 C   0  0  0  0  0  0  0  0  0  0  0  0
    2.6399   -0.3918   -1.1778 C   0  0  0  0  0  0  0  0  0  0  0  0
  1  2  1  0
  2  3  1  0
  3  4  1  0
  4  5  1  0
  5  6  2  0
  6  7  1  0
  7  8  1  0
  7  9  2  0
  9 10  1  0
 10 11  2  0
 11 12  1  0
 10 13  1  0
 13 14  1  0
 14 15  2  0
 15 16  1  0
 15 17  1  0
 17 18  2  0
 18 19  1  0
 19 20  2  0
 20 21  1  0
 18 22  1  0
  3 23  1  0
 23 24  1  0
 11  5  1  0
 20 14  1  0
M  END
$$$$
