
     RDKit          3D

 24 25  0  0  0  0  0  0  0  0999 V2000
    1.9425   -1.1756   -8.5220 C   0  0  0  0  0  0  0  0  0  0  0  0
    2.2102   -2.1522   -9.6184 C   0  0  0  0  0  0  0  0  0  0  0  0
    2.8621   -3.4119   -9.0165 C   0  0  0  0  0  0  0  0  0  0  0  0
    1.8467   -4.3198   -8.5690 N   0  0  0  0  0  0  0  0  0  0  0  0
    2.0144   -5.0493   -7.3691 C   0  0  0  0  0  0  0  0  0  0  0  0
    2.8394   -4.6116   -6.3629 C   0  0  0  0  0  0  0  0  0  0  0  0
    2.9449   -5.3543   -5.1950 C   0  0  0  0  0  0  0  0  0  0  0  0
    3.8598   -4.8454   -4.1120 C   0  0  0  0  0  0  0  0  0  0  0  0
    2.2572   -6.4935   -5.0247 N   0  0  0  0  0  0  0  0  0  0  0  0
    1.4316   -6.9618   -5.9902 C   0  0  0  0  0  0  0  0  0  0  0  0
    1.3146   -6.2425   -7.1505 C   0  0  0  0  0  0  0  0  0  0  0  0
    0.4255   -6.7062   -8.2436 C   0  0  0  0  0  0  0  0  0  0  0  0
    0.7114   -8.1518   -5.8149 O   0  0  0  0  0  0  0  0  0  0  0  0
    1.0382   -8.9629   -4.7348 C   0  0  0  0  0  0  0  0  0  0  0  0
    0.5604   -8.6301   -3.4656 C   0  0  0  0  0  0  0  0  0  0  0  0
   -0.2891   -7.3953   -3.3567 C   0  0  0  0  0  0  0  0  0  0  0  0
    0.8498   -9.3900   -2.3701 C   0  0  0  0  0  0  0  0  0  0  0  0
    1.6408  -10.5197   -2.5381 C   0  0  0  0  0  0  0  0  0  0  0  0
    2.1172  -10.8547   -3.7932 C   0  0  0  0  0  0  0  0  0  0  0  0
    1.8157  -10.0712   -4.9075 C   0  0  0  0  0  0  0  0  0  0  0  0
    2.3211  -10.4197   -6.2609 C   0  0  0  0  0  0  0  0  0  0  0  0
    1.9441  -11.3322   -1.3364 C   0  0  0  0  0  0  0  0  0  0  0  0
    3.5924   -4.1378  -10.1672 C   0  0  0  0  0  0  0  0  0  0  0  0
    5.0733   -4.0809   -9.8159 C   0  0  0  0  0  0  0  0  0  0  0  0
  1  2  1  0
  2  3  1  0
  3  4  1  0
  4  5  1  0
  5  6  2  0
  6  7  1  0
  7  8  1  0
  7  9  2  0
  9 10  1  0
 10 11  2  0
 11 12  1  0
 10 13  1  0
 13 14  1  0
 14 15  2  0
 15 16  1  0
 15 17  1  0
 17 18  2  0
 18 19  1  0
 19 20  2  0
 20 21  1  0
 18 22  1  0
  3 23  1  0
 23 24  1  0
 11  5  1  0
 20 14  1  0
M  END
$$$$
