
     RDKit          3D

 24 25  0  0  0  0  0  0  0  0999 V2000
    0.5472    0.8520    1.8792 C   0  0  0  0  0  0  0  0  0  0  0  0
    0.1253   -0.2098    2.8394 C   0  0  0  0  0  0  0  0  0  0  0  0
   -0.4366   -1.4054    2.0463 C   0  0  0  0  0  0  0  0  0  0  0  0
    0.6411   -2.1834    1.5087 N   0  0  0  0  0  0  0  0  0  0  0  0
    0.5694   -2.6958    0.1925 C   0  0  0  0  0  0  0  0  0  0  0  0
   -0.2892   -2.1749   -0.7434 C   0  0  0  0  0  0  0  0  0  0  0  0
   -0.2980   -2.6992   -2.0286 C   0  0  0  0  0  0  0  0  0  0  0  0
   -1.2533   -2.1045   -3.0299 C   0  0  0  0  0  0  0  0  0  0  0  0
    0.5159   -3.7061   -2.3799 N   0  0  0  0  0  0  0  0  0  0  0  0
    1.3791   -4.2495   -1.4895 C   0  0  0  0  0  0  0  0  0  0  0  0
    1.4020   -3.7454   -0.2157 C   0  0  0  0  0  0  0  0  0  0  0  0
    2.3265   -4.3005    0.8029 C   0  0  0  0  0  0  0  0  0  0  0  0
    2.2312   -5.3015   -1.8540 O   0  0  0  0  0  0  0  0  0  0  0  0
    1.7896   -6.1984   -2.8193 C   0  0  0  0  0  0  0  0  0  0  0  0
    2.3978   -6.1983   -4.0763 C   0  0  0  0  0  0  0  0  0  0  0  0
    3.5072   -5.2095   -4.2992 C   0  0  0  0  0  0  0  0  0  0  0  0
    2.0049   -7.0566   -5.0613 C   0  0  0  0  0  0  0  0  0  0  0  0
    0.9728   -7.9465   -4.7914 C   0  0  0  0  0  0  0  0  0  0  0  0
    0.3662   -7.9514   -3.5479 C   0  0  0  0  0  0  0  0  0  0  0  0
    0.7751   -7.0698   -2.5468 C   0  0  0  0  0  0  0  0  0  0  0  0
    0.1320   -7.0647   -1.2071 C   0  0  0  0  0  0  0  0  0  0  0  0
    0.5603   -8.8707   -5.8740 C   0  0  0  0  0  0  0  0  0  0  0  0
   -1.1501   -2.3262    3.0598 C   0  0  0  0  0  0  0  0  0  0  0  0
   -2.5432   -1.7380    3.2409 C   0  0  0  0  0  0  0  0  0  0  0  0
  1  2  1  0
  2  3  1  0
  3  4  1  0
  4  5  1  0
  5  6  2  0
  6  7  1  0
  7  8  1  0
  7  9  2  0
  9 10  1  0
 10 11  2  0
 11 12  1  0
 10 13  1  0
 13 14  1  0
 14 15  2  0
 15 16  1  0
 15 17  1  0
 17 18  2  0
 18 19  1  0
 19 20  2  0
 20 21  1  0
 18 22  1  0
  3 23  1  0
 23 24  1  0
 11  5  1  0
 20 14  1  0
M  END
$$$$
