
     RDKit          3D

 24 25  0  0  0  0  0  0  0  0999 V2000
   -0.1047   -6.1174   -9.6655 C   0  0  0  0  0  0  0  0  0  0  0  0
    1.3133   -5.8949  -10.0745 C   0  0  0  0  0  0  0  0  0  0  0  0
    1.8582   -4.6584   -9.3340 C   0  0  0  0  0  0  0  0  0  0  0  0
    2.4480   -5.0564   -8.0893 N   0  0  0  0  0  0  0  0  0  0  0  0
    2.0528   -4.4413   -6.8786 C   0  0  0  0  0  0  0  0  0  0  0  0
    1.1636   -3.3959   -6.8523 C   0  0  0  0  0  0  0  0  0  0  0  0
    0.7900   -2.8480   -5.6329 C   0  0  0  0  0  0  0  0  0  0  0  0
   -0.1869   -1.7015   -5.6409 C   0  0  0  0  0  0  0  0  0  0  0  0
    1.2782   -3.3176   -4.4750 N   0  0  0  0  0  0  0  0  0  0  0  0
    2.1568   -4.3475   -4.4540 C   0  0  0  0  0  0  0  0  0  0  0  0
    2.5378   -4.9012   -5.6479 C   0  0  0  0  0  0  0  0  0  0  0  0
    3.4975   -6.0317   -5.6875 C   0  0  0  0  0  0  0  0  0  0  0  0
    2.6683   -4.8406   -3.2453 O   0  0  0  0  0  0  0  0  0  0  0  0
    2.0964   -4.3935   -2.0604 C   0  0  0  0  0  0  0  0  0  0  0  0
    0.9760   -5.0555   -1.5540 C   0  0  0  0  0  0  0  0  0  0  0  0
    0.4594   -6.2263   -2.3419 C   0  0  0  0  0  0  0  0  0  0  0  0
    0.3741   -4.6600   -0.3954 C   0  0  0  0  0  0  0  0  0  0  0  0
    0.9008   -3.5698    0.2857 C   0  0  0  0  0  0  0  0  0  0  0  0
    2.0107   -2.9097   -0.2108 C   0  0  0  0  0  0  0  0  0  0  0  0
    2.6194   -3.3217   -1.3967 C   0  0  0  0  0  0  0  0  0  0  0  0
    3.8119   -2.6215   -1.9410 C   0  0  0  0  0  0  0  0  0  0  0  0
    0.2331   -3.1554    1.5422 C   0  0  0  0  0  0  0  0  0  0  0  0
    3.0182   -4.0962  -10.1839 C   0  0  0  0  0  0  0  0  0  0  0  0
    2.7898   -2.5918  -10.2487 C   0  0  0  0  0  0  0  0  0  0  0  0
  1  2  1  0
  2  3  1  0
  3  4  1  0
  4  5  1  0
  5  6  2  0
  6  7  1  0
  7  8  1  0
  7  9  2  0
  9 10  1  0
 10 11  2  0
 11 12  1  0
 10 13  1  0
 13 14  1  0
 14 15  2  0
 15 16  1  0
 15 17  1  0
 17 18  2  0
 18 19  1  0
 19 20  2  0
 20 21  1  0
 18 22  1  0
  3 23  1  0
 23 24  1  0
 11  5  1  0
 20 14  1  0
M  END
$$$$
