
     RDKit          3D

 24 25  0  0  0  0  0  0  0  0999 V2000
   -0.4862    0.1785   -2.2830 C   0  0  0  0  0  0  0  0  0  0  0  0
    0.7060   -0.1665   -1.4541 C   0  0  0  0  0  0  0  0  0  0  0  0
    0.4398   -1.4987   -0.7270 C   0  0  0  0  0  0  0  0  0  0  0  0
    1.4337   -2.4632   -1.0976 N   0  0  0  0  0  0  0  0  0  0  0  0
    1.0685   -3.6389   -1.7937 C   0  0  0  0  0  0  0  0  0  0  0  0
   -0.2412   -4.0302   -1.9201 C   0  0  0  0  0  0  0  0  0  0  0  0
   -0.5443   -5.1791   -2.6378 C   0  0  0  0  0  0  0  0  0  0  0  0
   -1.9915   -5.5797   -2.7557 C   0  0  0  0  0  0  0  0  0  0  0  0
    0.4153   -5.9186   -3.2138 N   0  0  0  0  0  0  0  0  0  0  0  0
    1.7198   -5.5696   -3.1154 C   0  0  0  0  0  0  0  0  0  0  0  0
    2.0386   -4.4388   -2.4105 C   0  0  0  0  0  0  0  0  0  0  0  0
    3.4505   -4.0068   -2.2685 C   0  0  0  0  0  0  0  0  0  0  0  0
    2.7247   -6.3405   -3.7167 O   0  0  0  0  0  0  0  0  0  0  0  0
    2.3414   -7.4325   -4.4860 C   0  0  0  0  0  0  0  0  0  0  0  0
    2.2944   -7.3024   -5.8754 C   0  0  0  0  0  0  0  0  0  0  0  0
    2.6688   -5.9652   -6.4501 C   0  0  0  0  0  0  0  0  0  0  0  0
    1.9253   -8.3410   -6.6793 C   0  0  0  0  0  0  0  0  0  0  0  0
    1.5910   -9.5516   -6.0854 C   0  0  0  0  0  0  0  0  0  0  0  0
    1.6356   -9.6868   -4.7092 C   0  0  0  0  0  0  0  0  0  0  0  0
    2.0143   -8.6187   -3.8954 C   0  0  0  0  0  0  0  0  0  0  0  0
    2.0664   -8.7506   -2.4161 C   0  0  0  0  0  0  0  0  0  0  0  0
    1.1927  -10.6678   -6.9753 C   0  0  0  0  0  0  0  0  0  0  0  0
    0.6503   -1.2417    0.7809 C   0  0  0  0  0  0  0  0  0  0  0  0
    0.0608   -2.4530    1.4914 C   0  0  0  0  0  0  0  0  0  0  0  0
  1  2  1  0
  2  3  1  0
  3  4  1  0
  4  5  1  0
  5  6  2  0
  6  7  1  0
  7  8  1  0
  7  9  2  0
  9 10  1  0
 10 11  2  0
 11 12  1  0
 10 13  1  0
 13 14  1  0
 14 15  2  0
 15 16  1  0
 15 17  1  0
 17 18  2  0
 18 19  1  0
 19 20  2  0
 20 21  1  0
 18 22  1  0
  3 23  1  0
 23 24  1  0
 11  5  1  0
 20 14  1  0
M  END
$$$$
