
     RDKit          3D

 24 25  0  0  0  0  0  0  0  0999 V2000
    2.7770   -0.1297   -0.1215 C   0  0  0  0  0  0  0  0  0  0  0  0
    1.3649   -0.4633   -0.4711 C   0  0  0  0  0  0  0  0  0  0  0  0
    1.2310   -0.5220   -2.0049 C   0  0  0  0  0  0  0  0  0  0  0  0
    1.9770   -1.6341   -2.5171 N   0  0  0  0  0  0  0  0  0  0  0  0
    1.5335   -2.9587   -2.2960 C   0  0  0  0  0  0  0  0  0  0  0  0
    0.4561   -3.2388   -1.4927 C   0  0  0  0  0  0  0  0  0  0  0  0
    0.0477   -4.5558   -1.3330 C   0  0  0  0  0  0  0  0  0  0  0  0
   -1.1375   -4.8271   -0.4439 C   0  0  0  0  0  0  0  0  0  0  0  0
    0.6822   -5.5653   -1.9476 N   0  0  0  0  0  0  0  0  0  0  0  0
    1.7486   -5.3350   -2.7493 C   0  0  0  0  0  0  0  0  0  0  0  0
    2.1669   -4.0414   -2.9189 C   0  0  0  0  0  0  0  0  0  0  0  0
    3.3294   -3.7278   -3.7853 C   0  0  0  0  0  0  0  0  0  0  0  0
    2.4134   -6.3881   -3.3932 O   0  0  0  0  0  0  0  0  0  0  0  0
    1.9451   -7.6807   -3.1902 C   0  0  0  0  0  0  0  0  0  0  0  0
    2.2458   -8.3326   -1.9926 C   0  0  0  0  0  0  0  0  0  0  0  0
    3.0701   -7.5751   -0.9899 C   0  0  0  0  0  0  0  0  0  0  0  0
    1.8123   -9.6012   -1.7399 C   0  0  0  0  0  0  0  0  0  0  0  0
    1.0539  -10.2469   -2.7084 C   0  0  0  0  0  0  0  0  0  0  0  0
    0.7526   -9.6064   -3.8971 C   0  0  0  0  0  0  0  0  0  0  0  0
    1.2005   -8.3087   -4.1463 C   0  0  0  0  0  0  0  0  0  0  0  0
    0.8840   -7.6094   -5.4188 C   0  0  0  0  0  0  0  0  0  0  0  0
    0.5923  -11.6245   -2.4155 C   0  0  0  0  0  0  0  0  0  0  0  0
   -0.2485   -0.8327   -2.3189 C   0  0  0  0  0  0  0  0  0  0  0  0
   -0.9946    0.4814   -2.1289 C   0  0  0  0  0  0  0  0  0  0  0  0
  1  2  1  0
  2  3  1  0
  3  4  1  0
  4  5  1  0
  5  6  2  0
  6  7  1  0
  7  8  1  0
  7  9  2  0
  9 10  1  0
 10 11  2  0
 11 12  1  0
 10 13  1  0
 13 14  1  0
 14 15  2  0
 15 16  1  0
 15 17  1  0
 17 18  2  0
 18 19  1  0
 19 20  2  0
 20 21  1  0
 18 22  1  0
  3 23  1  0
 23 24  1  0
 11  5  1  0
 20 14  1  0
M  END
$$$$
