
     RDKit          3D

 24 25  0  0  0  0  0  0  0  0999 V2000
   -2.2266    7.2257   11.5818 C   0  0  0  0  0  0  0  0  0  0  0  0
   -1.0920    6.9022   10.6677 C   0  0  0  0  0  0  0  0  0  0  0  0
    0.1108    6.4363   11.5107 C   0  0  0  0  0  0  0  0  0  0  0  0
    0.1878    5.0047   11.5006 N   0  0  0  0  0  0  0  0  0  0  0  0
   -0.5245    4.2409   12.4543 C   0  0  0  0  0  0  0  0  0  0  0  0
   -1.1984    4.8271   13.4966 C   0  0  0  0  0  0  0  0  0  0  0  0
   -1.9038    4.0302   14.3878 C   0  0  0  0  0  0  0  0  0  0  0  0
   -2.6311    4.7064   15.5203 C   0  0  0  0  0  0  0  0  0  0  0  0
   -1.9436    2.6960   14.2542 N   0  0  0  0  0  0  0  0  0  0  0  0
   -1.2943    2.0759   13.2407 C   0  0  0  0  0  0  0  0  0  0  0  0
   -0.5922    2.8459   12.3511 C   0  0  0  0  0  0  0  0  0  0  0  0
    0.1389    2.2225   11.2209 C   0  0  0  0  0  0  0  0  0  0  0  0
   -1.3345    0.6817   13.0984 O   0  0  0  0  0  0  0  0  0  0  0  0
   -1.9663   -0.0605   14.0890 C   0  0  0  0  0  0  0  0  0  0  0  0
   -1.1987   -0.6231   15.1108 C   0  0  0  0  0  0  0  0  0  0  0  0
    0.2837   -0.3809   15.0651 C   0  0  0  0  0  0  0  0  0  0  0  0
   -1.7658   -1.3607   16.1086 C   0  0  0  0  0  0  0  0  0  0  0  0
   -3.1423   -1.5476   16.0933 C   0  0  0  0  0  0  0  0  0  0  0  0
   -3.9083   -0.9928   15.0836 C   0  0  0  0  0  0  0  0  0  0  0  0
   -3.3191   -0.2399   14.0675 C   0  0  0  0  0  0  0  0  0  0  0  0
   -4.1303    0.3615   12.9771 C   0  0  0  0  0  0  0  0  0  0  0  0
   -3.7397   -2.3518   17.1856 C   0  0  0  0  0  0  0  0  0  0  0  0
    1.3856    6.9273   10.7910 C   0  0  0  0  0  0  0  0  0  0  0  0
    2.5052    6.8209   11.8180 C   0  0  0  0  0  0  0  0  0  0  0  0
  1  2  1  0
  2  3  1  0
  3  4  1  0
  4  5  1  0
  5  6  2  0
  6  7  1  0
  7  8  1  0
  7  9  2  0
  9 10  1  0
 10 11  2  0
 11 12  1  0
 10 13  1  0
 13 14  1  0
 14 15  2  0
 15 16  1  0
 15 17  1  0
 17 18  2  0
 18 19  1  0
 19 20  2  0
 20 21  1  0
 18 22  1  0
  3 23  1  0
 23 24  1  0
 11  5  1  0
 20 14  1  0
M  END
$$$$
