
     RDKit          3D

 24 25  0  0  0  0  0  0  0  0999 V2000
    0.8259   -0.2177   -3.6745 C   0  0  0  0  0  0  0  0  0  0  0  0
    1.0839   -0.0988   -2.2093 C   0  0  0  0  0  0  0  0  0  0  0  0
    0.1603   -1.0776   -1.4589 C   0  0  0  0  0  0  0  0  0  0  0  0
    0.8613   -2.2986   -1.1882 N   0  0  0  0  0  0  0  0  0  0  0  0
    0.7463   -3.4019   -2.0657 C   0  0  0  0  0  0  0  0  0  0  0  0
   -0.0634   -3.3667   -3.1736 C   0  0  0  0  0  0  0  0  0  0  0  0
   -0.1167   -4.4690   -4.0155 C   0  0  0  0  0  0  0  0  0  0  0  0
   -1.0163   -4.3965   -5.2215 C   0  0  0  0  0  0  0  0  0  0  0  0
    0.6071   -5.5719   -3.7721 N   0  0  0  0  0  0  0  0  0  0  0  0
    1.4195   -5.6499   -2.6918 C   0  0  0  0  0  0  0  0  0  0  0  0
    1.4851   -4.5717   -1.8488 C   0  0  0  0  0  0  0  0  0  0  0  0
    2.3574   -4.5991   -0.6494 C   0  0  0  0  0  0  0  0  0  0  0  0
    2.1774   -6.8011   -2.4352 O   0  0  0  0  0  0  0  0  0  0  0  0
    2.1360   -7.8338   -3.3642 C   0  0  0  0  0  0  0  0  0  0  0  0
    1.2639   -8.9037   -3.1529 C   0  0  0  0  0  0  0  0  0  0  0  0
    0.4166   -8.8607   -1.9125 C   0  0  0  0  0  0  0  0  0  0  0  0
    1.1817   -9.9441   -4.0315 C   0  0  0  0  0  0  0  0  0  0  0  0
    1.9924   -9.9238   -5.1595 C   0  0  0  0  0  0  0  0  0  0  0  0
    2.8586   -8.8665   -5.3745 C   0  0  0  0  0  0  0  0  0  0  0  0
    2.9355   -7.8070   -4.4701 C   0  0  0  0  0  0  0  0  0  0  0  0
    3.8615   -6.6654   -4.6890 C   0  0  0  0  0  0  0  0  0  0  0  0
    1.8887  -11.0628   -6.1020 C   0  0  0  0  0  0  0  0  0  0  0  0
   -0.1362   -0.4525   -0.0785 C   0  0  0  0  0  0  0  0  0  0  0  0
   -0.8443   -1.5379    0.7216 C   0  0  0  0  0  0  0  0  0  0  0  0
  1  2  1  0
  2  3  1  0
  3  4  1  0
  4  5  1  0
  5  6  2  0
  6  7  1  0
  7  8  1  0
  7  9  2  0
  9 10  1  0
 10 11  2  0
 11 12  1  0
 10 13  1  0
 13 14  1  0
 14 15  2  0
 15 16  1  0
 15 17  1  0
 17 18  2  0
 18 19  1  0
 19 20  2  0
 20 21  1  0
 18 22  1  0
  3 23  1  0
 23 24  1  0
 11  5  1  0
 20 14  1  0
M  END
$$$$
