
     RDKit          3D

 24 25  0  0  0  0  0  0  0  0999 V2000
    1.3703   -5.0940  -11.5457 C   0  0  0  0  0  0  0  0  0  0  0  0
    2.6038   -4.2619  -11.4294 C   0  0  0  0  0  0  0  0  0  0  0  0
    2.5259   -3.4326  -10.1331 C   0  0  0  0  0  0  0  0  0  0  0  0
    2.9030   -4.2434   -9.0124 N   0  0  0  0  0  0  0  0  0  0  0  0
    2.2666   -4.0777   -7.7602 C   0  0  0  0  0  0  0  0  0  0  0  0
    1.3546   -3.0765   -7.5365 C   0  0  0  0  0  0  0  0  0  0  0  0
    0.7400   -2.9776   -6.2958 C   0  0  0  0  0  0  0  0  0  0  0  0
   -0.2549   -1.8665   -6.0846 C   0  0  0  0  0  0  0  0  0  0  0  0
    1.0162   -3.8405   -5.3066 N   0  0  0  0  0  0  0  0  0  0  0  0
    1.9084   -4.8435   -5.4834 C   0  0  0  0  0  0  0  0  0  0  0  0
    2.5256   -4.9570   -6.7014 C   0  0  0  0  0  0  0  0  0  0  0  0
    3.5120   -6.0357   -6.9538 C   0  0  0  0  0  0  0  0  0  0  0  0
    2.1987   -5.7470   -4.4515 O   0  0  0  0  0  0  0  0  0  0  0  0
    1.2093   -6.0083   -3.5112 C   0  0  0  0  0  0  0  0  0  0  0  0
    0.3156   -7.0569   -3.7382 C   0  0  0  0  0  0  0  0  0  0  0  0
    0.4912   -7.8426   -5.0071 C   0  0  0  0  0  0  0  0  0  0  0  0
   -0.6748   -7.3581   -2.8496 C   0  0  0  0  0  0  0  0  0  0  0  0
   -0.7835   -6.5931   -1.6950 C   0  0  0  0  0  0  0  0  0  0  0  0
    0.0989   -5.5528   -1.4644 C   0  0  0  0  0  0  0  0  0  0  0  0
    1.1086   -5.2524   -2.3792 C   0  0  0  0  0  0  0  0  0  0  0  0
    2.0629   -4.1378   -2.1437 C   0  0  0  0  0  0  0  0  0  0  0  0
   -1.8656   -6.9357   -0.7420 C   0  0  0  0  0  0  0  0  0  0  0  0
    3.6049   -2.3327  -10.2336 C   0  0  0  0  0  0  0  0  0  0  0  0
    4.4456   -2.4638   -8.9704 C   0  0  0  0  0  0  0  0  0  0  0  0
  1  2  1  0
  2  3  1  0
  3  4  1  0
  4  5  1  0
  5  6  2  0
  6  7  1  0
  7  8  1  0
  7  9  2  0
  9 10  1  0
 10 11  2  0
 11 12  1  0
 10 13  1  0
 13 14  1  0
 14 15  2  0
 15 16  1  0
 15 17  1  0
 17 18  2  0
 18 19  1  0
 19 20  2  0
 20 21  1  0
 18 22  1  0
  3 23  1  0
 23 24  1  0
 11  5  1  0
 20 14  1  0
M  END
$$$$
