
     RDKit          3D

 24 25  0  0  0  0  0  0  0  0999 V2000
   -0.8927   -1.1227    2.7777 C   0  0  0  0  0  0  0  0  0  0  0  0
   -0.4442   -0.6671    1.4291 C   0  0  0  0  0  0  0  0  0  0  0  0
    0.6531   -1.6212    0.9193 C   0  0  0  0  0  0  0  0  0  0  0  0
    0.3267   -2.0789   -0.3996 N   0  0  0  0  0  0  0  0  0  0  0  0
    0.6729   -3.3869   -0.8115 C   0  0  0  0  0  0  0  0  0  0  0  0
    1.1613   -4.3197    0.0692 C   0  0  0  0  0  0  0  0  0  0  0  0
    1.4589   -5.5972   -0.3849 C   0  0  0  0  0  0  0  0  0  0  0  0
    1.9939   -6.5954    0.6082 C   0  0  0  0  0  0  0  0  0  0  0  0
    1.2795   -5.9439   -1.6684 N   0  0  0  0  0  0  0  0  0  0  0  0
    0.7995   -5.0562   -2.5710 C   0  0  0  0  0  0  0  0  0  0  0  0
    0.5002   -3.7900   -2.1416 C   0  0  0  0  0  0  0  0  0  0  0  0
   -0.0288   -2.7747   -3.0848 C   0  0  0  0  0  0  0  0  0  0  0  0
    0.6105   -5.4159   -3.9129 O   0  0  0  0  0  0  0  0  0  0  0  0
    0.8632   -6.7320   -4.2807 C   0  0  0  0  0  0  0  0  0  0  0  0
    2.0486   -7.0342   -4.9539 C   0  0  0  0  0  0  0  0  0  0  0  0
    2.9839   -5.8927   -5.2378 C   0  0  0  0  0  0  0  0  0  0  0  0
    2.3482   -8.3083   -5.3387 C   0  0  0  0  0  0  0  0  0  0  0  0
    1.4410   -9.3189   -5.0461 C   0  0  0  0  0  0  0  0  0  0  0  0
    0.2647   -9.0259   -4.3792 C   0  0  0  0  0  0  0  0  0  0  0  0
   -0.0328   -7.7196   -3.9898 C   0  0  0  0  0  0  0  0  0  0  0  0
   -1.2926   -7.3913   -3.2731 C   0  0  0  0  0  0  0  0  0  0  0  0
    1.7842  -10.6963   -5.4722 C   0  0  0  0  0  0  0  0  0  0  0  0
    1.9427   -0.7865    0.7635 C   0  0  0  0  0  0  0  0  0  0  0  0
    2.8050   -1.1316    1.9705 C   0  0  0  0  0  0  0  0  0  0  0  0
  1  2  1  0
  2  3  1  0
  3  4  1  0
  4  5  1  0
  5  6  2  0
  6  7  1  0
  7  8  1  0
  7  9  2  0
  9 10  1  0
 10 11  2  0
 11 12  1  0
 10 13  1  0
 13 14  1  0
 14 15  2  0
 15 16  1  0
 15 17  1  0
 17 18  2  0
 18 19  1  0
 19 20  2  0
 20 21  1  0
 18 22  1  0
  3 23  1  0
 23 24  1  0
 11  5  1  0
 20 14  1  0
M  END
$$$$
