
     RDKit          3D

 24 25  0  0  0  0  0  0  0  0999 V2000
   -1.3691    3.5839   20.1642 C   0  0  0  0  0  0  0  0  0  0  0  0
   -2.5017    4.4543   19.7317 C   0  0  0  0  0  0  0  0  0  0  0  0
   -2.0226    5.3628   18.5831 C   0  0  0  0  0  0  0  0  0  0  0  0
   -2.3389    4.7606   17.3210 N   0  0  0  0  0  0  0  0  0  0  0  0
   -1.5285    5.0020   16.1873 C   0  0  0  0  0  0  0  0  0  0  0  0
   -0.2208    5.4032   16.3022 C   0  0  0  0  0  0  0  0  0  0  0  0
    0.5364    5.5992   15.1555 C   0  0  0  0  0  0  0  0  0  0  0  0
    1.9674    6.0402   15.3182 C   0  0  0  0  0  0  0  0  0  0  0  0
    0.0194    5.4048   13.9330 N   0  0  0  0  0  0  0  0  0  0  0  0
   -1.2653    5.0085   13.7729 C   0  0  0  0  0  0  0  0  0  0  0  0
   -2.0286    4.8101   14.8933 C   0  0  0  0  0  0  0  0  0  0  0  0
   -3.4425    4.3760   14.7803 C   0  0  0  0  0  0  0  0  0  0  0  0
   -1.8081    4.8040   12.4966 O   0  0  0  0  0  0  0  0  0  0  0  0
   -0.9538    4.8703   11.4025 C   0  0  0  0  0  0  0  0  0  0  0  0
   -0.9399    6.0266   10.6198 C   0  0  0  0  0  0  0  0  0  0  0  0
   -1.8675    7.1375   11.0245 C   0  0  0  0  0  0  0  0  0  0  0  0
   -0.1218    6.1464    9.5347 C   0  0  0  0  0  0  0  0  0  0  0  0
    0.7123    5.0828    9.2137 C   0  0  0  0  0  0  0  0  0  0  0  0
    0.7032    3.9344    9.9853 C   0  0  0  0  0  0  0  0  0  0  0  0
   -0.1372    3.8213   11.0932 C   0  0  0  0  0  0  0  0  0  0  0  0
   -0.1569    2.5935   11.9303 C   0  0  0  0  0  0  0  0  0  0  0  0
    1.5936    5.2319    8.0315 C   0  0  0  0  0  0  0  0  0  0  0  0
   -2.8617    6.6572   18.6492 C   0  0  0  0  0  0  0  0  0  0  0  0
   -1.8598    7.7883   18.8397 C   0  0  0  0  0  0  0  0  0  0  0  0
  1  2  1  0
  2  3  1  0
  3  4  1  0
  4  5  1  0
  5  6  2  0
  6  7  1  0
  7  8  1  0
  7  9  2  0
  9 10  1  0
 10 11  2  0
 11 12  1  0
 10 13  1  0
 13 14  1  0
 14 15  2  0
 15 16  1  0
 15 17  1  0
 17 18  2  0
 18 19  1  0
 19 20  2  0
 20 21  1  0
 18 22  1  0
  3 23  1  0
 23 24  1  0
 11  5  1  0
 20 14  1  0
M  END
$$$$
