
     RDKit          3D

 24 25  0  0  0  0  0  0  0  0999 V2000
    0.1429   -0.3992   -1.7073 C   0  0  0  0  0  0  0  0  0  0  0  0
    1.0243   -1.0306   -0.6816 C   0  0  0  0  0  0  0  0  0  0  0  0
    0.8263   -2.5580   -0.7255 C   0  0  0  0  0  0  0  0  0  0  0  0
    1.4890   -3.1026   -1.8744 N   0  0  0  0  0  0  0  0  0  0  0  0
    1.0481   -4.3175   -2.4486 C   0  0  0  0  0  0  0  0  0  0  0  0
   -0.1478   -4.8936   -2.0988 C   0  0  0  0  0  0  0  0  0  0  0  0
   -0.5435   -6.0730   -2.7147 C   0  0  0  0  0  0  0  0  0  0  0  0
   -1.8610   -6.6781   -2.3062 C   0  0  0  0  0  0  0  0  0  0  0  0
    0.2170   -6.6653   -3.6476 N   0  0  0  0  0  0  0  0  0  0  0  0
    1.4032   -6.1318   -4.0236 C   0  0  0  0  0  0  0  0  0  0  0  0
    1.8109   -4.9680   -3.4265 C   0  0  0  0  0  0  0  0  0  0  0  0
    3.1010   -4.3368   -3.7977 C   0  0  0  0  0  0  0  0  0  0  0  0
    2.1999   -6.7485   -4.9986 O   0  0  0  0  0  0  0  0  0  0  0  0
    1.6986   -7.8760   -5.6379 C   0  0  0  0  0  0  0  0  0  0  0  0
    1.8087   -9.1186   -5.0105 C   0  0  0  0  0  0  0  0  0  0  0  0
    2.4742   -9.1480   -3.6634 C   0  0  0  0  0  0  0  0  0  0  0  0
    1.3344  -10.2581   -5.5916 C   0  0  0  0  0  0  0  0  0  0  0  0
    0.7294  -10.1631   -6.8386 C   0  0  0  0  0  0  0  0  0  0  0  0
    0.6173   -8.9348   -7.4653 C   0  0  0  0  0  0  0  0  0  0  0  0
    1.1055   -7.7749   -6.8630 C   0  0  0  0  0  0  0  0  0  0  0  0
    0.9915   -6.4494   -7.5253 C   0  0  0  0  0  0  0  0  0  0  0  0
    0.2205  -11.4119   -7.4534 C   0  0  0  0  0  0  0  0  0  0  0  0
    1.5627   -3.1456    0.4978 C   0  0  0  0  0  0  0  0  0  0  0  0
    0.4816   -3.7764    1.3655 C   0  0  0  0  0  0  0  0  0  0  0  0
  1  2  1  0
  2  3  1  0
  3  4  1  0
  4  5  1  0
  5  6  2  0
  6  7  1  0
  7  8  1  0
  7  9  2  0
  9 10  1  0
 10 11  2  0
 11 12  1  0
 10 13  1  0
 13 14  1  0
 14 15  2  0
 15 16  1  0
 15 17  1  0
 17 18  2  0
 18 19  1  0
 19 20  2  0
 20 21  1  0
 18 22  1  0
  3 23  1  0
 23 24  1  0
 11  5  1  0
 20 14  1  0
M  END
$$$$
