
     RDKit          3D

 24 25  0  0  0  0  0  0  0  0999 V2000
   -0.6630   -0.2166   -2.0259 C   0  0  0  0  0  0  0  0  0  0  0  0
    0.6600   -0.3457   -1.3474 C   0  0  0  0  0  0  0  0  0  0  0  0
    0.9908   -1.8412   -1.1791 C   0  0  0  0  0  0  0  0  0  0  0  0
    1.3551   -2.4053   -2.4458 N   0  0  0  0  0  0  0  0  0  0  0  0
    1.1805   -3.7868   -2.6931 C   0  0  0  0  0  0  0  0  0  0  0  0
    0.5287   -4.6063   -1.8053 C   0  0  0  0  0  0  0  0  0  0  0  0
    0.3620   -5.9497   -2.1122 C   0  0  0  0  0  0  0  0  0  0  0  0
   -0.3570   -6.8203   -1.1151 C   0  0  0  0  0  0  0  0  0  0  0  0
    0.8235   -6.4685   -3.2600 N   0  0  0  0  0  0  0  0  0  0  0  0
    1.4714   -5.6971   -4.1645 C   0  0  0  0  0  0  0  0  0  0  0  0
    1.6459   -4.3684   -3.8790 C   0  0  0  0  0  0  0  0  0  0  0  0
    2.3481   -3.4741   -4.8317 C   0  0  0  0  0  0  0  0  0  0  0  0
    1.9545   -6.2365   -5.3650 O   0  0  0  0  0  0  0  0  0  0  0  0
    1.9109   -7.6159   -5.5283 C   0  0  0  0  0  0  0  0  0  0  0  0
    2.9997   -8.3845   -5.1117 C   0  0  0  0  0  0  0  0  0  0  0  0
    4.1625   -7.6509   -4.5050 C   0  0  0  0  0  0  0  0  0  0  0  0
    3.0112   -9.7419   -5.2476 C   0  0  0  0  0  0  0  0  0  0  0  0
    1.9046  -10.3597   -5.8166 C   0  0  0  0  0  0  0  0  0  0  0  0
    0.8227   -9.6036   -6.2315 C   0  0  0  0  0  0  0  0  0  0  0  0
    0.8203   -8.2158   -6.0882 C   0  0  0  0  0  0  0  0  0  0  0  0
   -0.3351   -7.3920   -6.5296 C   0  0  0  0  0  0  0  0  0  0  0  0
    1.9359  -11.8349   -5.9558 C   0  0  0  0  0  0  0  0  0  0  0  0
    2.2596   -1.9287   -0.3035 C   0  0  0  0  0  0  0  0  0  0  0  0
    2.1190   -0.8252    0.7368 C   0  0  0  0  0  0  0  0  0  0  0  0
  1  2  1  0
  2  3  1  0
  3  4  1  0
  4  5  1  0
  5  6  2  0
  6  7  1  0
  7  8  1  0
  7  9  2  0
  9 10  1  0
 10 11  2  0
 11 12  1  0
 10 13  1  0
 13 14  1  0
 14 15  2  0
 15 16  1  0
 15 17  1  0
 17 18  2  0
 18 19  1  0
 19 20  2  0
 20 21  1  0
 18 22  1  0
  3 23  1  0
 23 24  1  0
 11  5  1  0
 20 14  1  0
M  END
$$$$
