
     RDKit          3D

 24 25  0  0  0  0  0  0  0  0999 V2000
   -2.1810   -2.7430    3.7726 C   0  0  0  0  0  0  0  0  0  0  0  0
   -1.6706   -1.3955    3.3836 C   0  0  0  0  0  0  0  0  0  0  0  0
   -0.1635   -1.5011    3.0805 C   0  0  0  0  0  0  0  0  0  0  0  0
    0.0424   -1.6125    1.6660 N   0  0  0  0  0  0  0  0  0  0  0  0
    0.3312   -2.8665    1.0793 C   0  0  0  0  0  0  0  0  0  0  0  0
    0.5742   -3.9842    1.8384 C   0  0  0  0  0  0  0  0  0  0  0  0
    0.8253   -5.1956    1.2089 C   0  0  0  0  0  0  0  0  0  0  0  0
    1.0888   -6.4014    2.0724 C   0  0  0  0  0  0  0  0  0  0  0  0
    0.8357   -5.3012   -0.1283 N   0  0  0  0  0  0  0  0  0  0  0  0
    0.6005   -4.2252   -0.9157 C   0  0  0  0  0  0  0  0  0  0  0  0
    0.3509   -3.0205   -0.3126 C   0  0  0  0  0  0  0  0  0  0  0  0
    0.0864   -1.8070   -1.1235 C   0  0  0  0  0  0  0  0  0  0  0  0
    0.6103   -4.3327   -2.3136 O   0  0  0  0  0  0  0  0  0  0  0  0
    0.8915   -5.5730   -2.8738 C   0  0  0  0  0  0  0  0  0  0  0  0
    2.2118   -5.8868   -3.2027 C   0  0  0  0  0  0  0  0  0  0  0  0
    3.2536   -4.8408   -2.9220 C   0  0  0  0  0  0  0  0  0  0  0  0
    2.5453   -7.0890   -3.7548 C   0  0  0  0  0  0  0  0  0  0  0  0
    1.5348   -8.0130   -3.9893 C   0  0  0  0  0  0  0  0  0  0  0  0
    0.2246   -7.7080   -3.6656 C   0  0  0  0  0  0  0  0  0  0  0  0
   -0.1066   -6.4758   -3.1013 C   0  0  0  0  0  0  0  0  0  0  0  0
   -1.5096   -6.1355   -2.7489 C   0  0  0  0  0  0  0  0  0  0  0  0
    1.9169   -9.3131   -4.5896 C   0  0  0  0  0  0  0  0  0  0  0  0
    0.4762   -0.1568    3.4902 C   0  0  0  0  0  0  0  0  0  0  0  0
    1.9716   -0.4267    3.5930 C   0  0  0  0  0  0  0  0  0  0  0  0
  1  2  1  0
  2  3  1  0
  3  4  1  0
  4  5  1  0
  5  6  2  0
  6  7  1  0
  7  8  1  0
  7  9  2  0
  9 10  1  0
 10 11  2  0
 11 12  1  0
 10 13  1  0
 13 14  1  0
 14 15  2  0
 15 16  1  0
 15 17  1  0
 17 18  2  0
 18 19  1  0
 19 20  2  0
 20 21  1  0
 18 22  1  0
  3 23  1  0
 23 24  1  0
 11  5  1  0
 20 14  1  0
M  END
$$$$
