
     RDKit          3D

 24 25  0  0  0  0  0  0  0  0999 V2000
   -0.4607    0.9670   -1.7058 C   0  0  0  0  0  0  0  0  0  0  0  0
    0.4182    0.1195   -2.5641 C   0  0  0  0  0  0  0  0  0  0  0  0
    0.7947   -1.1564   -1.7866 C   0  0  0  0  0  0  0  0  0  0  0  0
    1.6120   -2.0030   -2.6057 N   0  0  0  0  0  0  0  0  0  0  0  0
    1.2897   -3.3702   -2.7706 C   0  0  0  0  0  0  0  0  0  0  0  0
    0.2941   -3.9738   -2.0434 C   0  0  0  0  0  0  0  0  0  0  0  0
    0.0019   -5.3124   -2.2661 C   0  0  0  0  0  0  0  0  0  0  0  0
   -1.0959   -5.9432   -1.4500 C   0  0  0  0  0  0  0  0  0  0  0  0
    0.6709   -6.0331   -3.1785 N   0  0  0  0  0  0  0  0  0  0  0  0
    1.6597   -5.4782   -3.9185 C   0  0  0  0  0  0  0  0  0  0  0  0
    1.9628   -4.1579   -3.7127 C   0  0  0  0  0  0  0  0  0  0  0  0
    3.0362   -3.4958   -4.4936 C   0  0  0  0  0  0  0  0  0  0  0  0
    2.3603   -6.2288   -4.8731 O   0  0  0  0  0  0  0  0  0  0  0  0
    2.0697   -7.5832   -4.9843 C   0  0  0  0  0  0  0  0  0  0  0  0
    2.6435   -8.4782   -4.0791 C   0  0  0  0  0  0  0  0  0  0  0  0
    3.5515   -7.9016   -3.0296 C   0  0  0  0  0  0  0  0  0  0  0  0
    2.3934   -9.8179   -4.1413 C   0  0  0  0  0  0  0  0  0  0  0  0
    1.5446  -10.2875   -5.1359 C   0  0  0  0  0  0  0  0  0  0  0  0
    0.9729   -9.4057   -6.0358 C   0  0  0  0  0  0  0  0  0  0  0  0
    1.2348   -8.0372   -5.9640 C   0  0  0  0  0  0  0  0  0  0  0  0
    0.6274   -7.0793   -6.9243 C   0  0  0  0  0  0  0  0  0  0  0  0
    1.2852  -11.7458   -5.1872 C   0  0  0  0  0  0  0  0  0  0  0  0
    1.6944   -0.7208   -0.6097 C   0  0  0  0  0  0  0  0  0  0  0  0
    2.1652   -2.0111    0.0483 C   0  0  0  0  0  0  0  0  0  0  0  0
  1  2  1  0
  2  3  1  0
  3  4  1  0
  4  5  1  0
  5  6  2  0
  6  7  1  0
  7  8  1  0
  7  9  2  0
  9 10  1  0
 10 11  2  0
 11 12  1  0
 10 13  1  0
 13 14  1  0
 14 15  2  0
 15 16  1  0
 15 17  1  0
 17 18  2  0
 18 19  1  0
 19 20  2  0
 20 21  1  0
 18 22  1  0
  3 23  1  0
 23 24  1  0
 11  5  1  0
 20 14  1  0
M  END
$$$$
