
     RDKit          3D

 24 25  0  0  0  0  0  0  0  0999 V2000
   -2.5141    1.9435    7.7844 C   0  0  0  0  0  0  0  0  0  0  0  0
   -1.5614    3.0170    8.1936 C   0  0  0  0  0  0  0  0  0  0  0  0
   -1.5045    3.0740    9.7323 C   0  0  0  0  0  0  0  0  0  0  0  0
   -0.4349    3.9329   10.1490 N   0  0  0  0  0  0  0  0  0  0  0  0
    0.3832    3.5794   11.2471 C   0  0  0  0  0  0  0  0  0  0  0  0
    0.1748    2.4291   11.9667 C   0  0  0  0  0  0  0  0  0  0  0  0
    1.0259    2.1180   13.0182 C   0  0  0  0  0  0  0  0  0  0  0  0
    0.7676    0.8487   13.7869 C   0  0  0  0  0  0  0  0  0  0  0  0
    2.0515    2.9168   13.3491 N   0  0  0  0  0  0  0  0  0  0  0  0
    2.2946    4.0604   12.6662 C   0  0  0  0  0  0  0  0  0  0  0  0
    1.4649    4.3846   11.6252 C   0  0  0  0  0  0  0  0  0  0  0  0
    1.6818    5.6248   10.8407 C   0  0  0  0  0  0  0  0  0  0  0  0
    3.3659    4.8970   13.0096 O   0  0  0  0  0  0  0  0  0  0  0  0
    4.2392    4.4698   14.0026 C   0  0  0  0  0  0  0  0  0  0  0  0
    5.4583    3.8965   13.6353 C   0  0  0  0  0  0  0  0  0  0  0  0
    5.7439    3.7804   12.1645 C   0  0  0  0  0  0  0  0  0  0  0  0
    6.3534    3.4597   14.5676 C   0  0  0  0  0  0  0  0  0  0  0  0
    6.0291    3.5958   15.9116 C   0  0  0  0  0  0  0  0  0  0  0  0
    4.8228    4.1631   16.2819 C   0  0  0  0  0  0  0  0  0  0  0  0
    3.9138    4.6068   15.3210 C   0  0  0  0  0  0  0  0  0  0  0  0
    2.6147    5.2178   15.7052 C   0  0  0  0  0  0  0  0  0  0  0  0
    7.0143    3.1155   16.9092 C   0  0  0  0  0  0  0  0  0  0  0  0
   -2.8018    3.7629   10.2083 C   0  0  0  0  0  0  0  0  0  0  0  0
   -3.2274    3.0161   11.4655 C   0  0  0  0  0  0  0  0  0  0  0  0
  1  2  1  0
  2  3  1  0
  3  4  1  0
  4  5  1  0
  5  6  2  0
  6  7  1  0
  7  8  1  0
  7  9  2  0
  9 10  1  0
 10 11  2  0
 11 12  1  0
 10 13  1  0
 13 14  1  0
 14 15  2  0
 15 16  1  0
 15 17  1  0
 17 18  2  0
 18 19  1  0
 19 20  2  0
 20 21  1  0
 18 22  1  0
  3 23  1  0
 23 24  1  0
 11  5  1  0
 20 14  1  0
M  END
$$$$
