
     RDKit          3D

 24 25  0  0  0  0  0  0  0  0999 V2000
   -0.5178   -9.9473   -5.5055 C   0  0  0  0  0  0  0  0  0  0  0  0
   -0.7790   -9.9039   -4.0367 C   0  0  0  0  0  0  0  0  0  0  0  0
    0.5481   -9.6353   -3.3014 C   0  0  0  0  0  0  0  0  0  0  0  0
    0.5413   -8.3113   -2.7514 N   0  0  0  0  0  0  0  0  0  0  0  0
    1.2178   -7.2575   -3.4088 C   0  0  0  0  0  0  0  0  0  0  0  0
    2.0020   -7.4764   -4.5139 C   0  0  0  0  0  0  0  0  0  0  0  0
    2.6209   -6.4007   -5.1357 C   0  0  0  0  0  0  0  0  0  0  0  0
    3.4749   -6.6771   -6.3454 C   0  0  0  0  0  0  0  0  0  0  0  0
    2.4701   -5.1475   -4.6815 N   0  0  0  0  0  0  0  0  0  0  0  0
    1.7053   -4.8856   -3.5954 C   0  0  0  0  0  0  0  0  0  0  0  0
    1.0866   -5.9347   -2.9679 C   0  0  0  0  0  0  0  0  0  0  0  0
    0.2364   -5.7090   -1.7735 C   0  0  0  0  0  0  0  0  0  0  0  0
    1.5456   -3.5768   -3.1188 O   0  0  0  0  0  0  0  0  0  0  0  0
    2.1217   -2.5403   -3.8434 C   0  0  0  0  0  0  0  0  0  0  0  0
    3.3461   -2.0161   -3.4240 C   0  0  0  0  0  0  0  0  0  0  0  0
    3.9647   -2.6220   -2.1958 C   0  0  0  0  0  0  0  0  0  0  0  0
    3.9570   -0.9987   -4.0969 C   0  0  0  0  0  0  0  0  0  0  0  0
    3.3327   -0.4823   -5.2254 C   0  0  0  0  0  0  0  0  0  0  0  0
    2.1194   -0.9975   -5.6460 C   0  0  0  0  0  0  0  0  0  0  0  0
    1.5024   -2.0381   -4.9511 C   0  0  0  0  0  0  0  0  0  0  0  0
    0.1993   -2.6004   -5.3920 C   0  0  0  0  0  0  0  0  0  0  0  0
    4.0119    0.6224   -5.9428 C   0  0  0  0  0  0  0  0  0  0  0  0
    0.5954  -10.5901   -2.0889 C   0  0  0  0  0  0  0  0  0  0  0  0
    1.8046  -11.4873   -2.3180 C   0  0  0  0  0  0  0  0  0  0  0  0
  1  2  1  0
  2  3  1  0
  3  4  1  0
  4  5  1  0
  5  6  2  0
  6  7  1  0
  7  8  1  0
  7  9  2  0
  9 10  1  0
 10 11  2  0
 11 12  1  0
 10 13  1  0
 13 14  1  0
 14 15  2  0
 15 16  1  0
 15 17  1  0
 17 18  2  0
 18 19  1  0
 19 20  2  0
 20 21  1  0
 18 22  1  0
  3 23  1  0
 23 24  1  0
 11  5  1  0
 20 14  1  0
M  END
$$$$
