
     RDKit          3D

 24 25  0  0  0  0  0  0  0  0999 V2000
    3.2372   -1.1372   -0.1982 C   0  0  0  0  0  0  0  0  0  0  0  0
    1.7742   -0.9134   -0.3911 C   0  0  0  0  0  0  0  0  0  0  0  0
    1.3138   -1.6775   -1.6474 C   0  0  0  0  0  0  0  0  0  0  0  0
    1.1994   -3.0759   -1.3527 N   0  0  0  0  0  0  0  0  0  0  0  0
    1.3437   -4.0396   -2.3778 C   0  0  0  0  0  0  0  0  0  0  0  0
    1.7465   -3.6969   -3.6445 C   0  0  0  0  0  0  0  0  0  0  0  0
    1.8978   -4.6881   -4.6044 C   0  0  0  0  0  0  0  0  0  0  0  0
    2.3403   -4.2766   -5.9841 C   0  0  0  0  0  0  0  0  0  0  0  0
    1.6595   -5.9779   -4.3229 N   0  0  0  0  0  0  0  0  0  0  0  0
    1.2612   -6.3610   -3.0869 C   0  0  0  0  0  0  0  0  0  0  0  0
    1.1060   -5.3966   -2.1261 C   0  0  0  0  0  0  0  0  0  0  0  0
    0.6719   -5.7563   -0.7540 C   0  0  0  0  0  0  0  0  0  0  0  0
    1.0119   -7.7082   -2.7898 O   0  0  0  0  0  0  0  0  0  0  0  0
    1.0592   -8.6286   -3.8299 C   0  0  0  0  0  0  0  0  0  0  0  0
    2.2601   -9.2880   -4.1001 C   0  0  0  0  0  0  0  0  0  0  0  0
    3.4375   -8.9485   -3.2302 C   0  0  0  0  0  0  0  0  0  0  0  0
    2.3640  -10.2009   -5.1086 C   0  0  0  0  0  0  0  0  0  0  0  0
    1.2380  -10.4700   -5.8767 C   0  0  0  0  0  0  0  0  0  0  0  0
    0.0453   -9.8200   -5.6139 C   0  0  0  0  0  0  0  0  0  0  0  0
   -0.0510   -8.8879   -4.5802 C   0  0  0  0  0  0  0  0  0  0  0  0
   -1.3260   -8.1827   -4.2874 C   0  0  0  0  0  0  0  0  0  0  0  0
    1.3708  -11.4646   -6.9674 C   0  0  0  0  0  0  0  0  0  0  0  0
   -0.1194   -1.2005   -1.9678 C   0  0  0  0  0  0  0  0  0  0  0  0
    0.0075   -0.3131   -3.1991 C   0  0  0  0  0  0  0  0  0  0  0  0
  1  2  1  0
  2  3  1  0
  3  4  1  0
  4  5  1  0
  5  6  2  0
  6  7  1  0
  7  8  1  0
  7  9  2  0
  9 10  1  0
 10 11  2  0
 11 12  1  0
 10 13  1  0
 13 14  1  0
 14 15  2  0
 15 16  1  0
 15 17  1  0
 17 18  2  0
 18 19  1  0
 19 20  2  0
 20 21  1  0
 18 22  1  0
  3 23  1  0
 23 24  1  0
 11  5  1  0
 20 14  1  0
M  END
$$$$
