
     RDKit          3D

 24 25  0  0  0  0  0  0  0  0999 V2000
   -5.8177    2.3855   12.9872 C   0  0  0  0  0  0  0  0  0  0  0  0
   -5.4741    3.1596   11.7583 C   0  0  0  0  0  0  0  0  0  0  0  0
   -4.2054    3.9905   12.0303 C   0  0  0  0  0  0  0  0  0  0  0  0
   -3.0463    3.1504   11.9512 N   0  0  0  0  0  0  0  0  0  0  0  0
   -1.9527    3.3521   12.8250 C   0  0  0  0  0  0  0  0  0  0  0  0
   -2.0144    4.2372   13.8724 C   0  0  0  0  0  0  0  0  0  0  0  0
   -0.9200    4.3749   14.7152 C   0  0  0  0  0  0  0  0  0  0  0  0
   -1.0217    5.3558   15.8538 C   0  0  0  0  0  0  0  0  0  0  0  0
    0.2004    3.6606   14.5307 N   0  0  0  0  0  0  0  0  0  0  0  0
    0.3046    2.7758   13.5112 C   0  0  0  0  0  0  0  0  0  0  0  0
   -0.7653    2.6263   12.6684 C   0  0  0  0  0  0  0  0  0  0  0  0
   -0.7093    1.6721   11.5341 C   0  0  0  0  0  0  0  0  0  0  0  0
    1.4742    2.0277   13.3162 O   0  0  0  0  0  0  0  0  0  0  0  0
    2.6259    2.4253   13.9846 C   0  0  0  0  0  0  0  0  0  0  0  0
    3.3693    3.4946   13.4810 C   0  0  0  0  0  0  0  0  0  0  0  0
    2.8610    4.1512   12.2285 C   0  0  0  0  0  0  0  0  0  0  0  0
    4.5076    3.9273   14.0961 C   0  0  0  0  0  0  0  0  0  0  0  0
    4.9241    3.2774   15.2512 C   0  0  0  0  0  0  0  0  0  0  0  0
    4.1917    2.2172   15.7551 C   0  0  0  0  0  0  0  0  0  0  0  0
    3.0288    1.7820   15.1189 C   0  0  0  0  0  0  0  0  0  0  0  0
    2.2330    0.6446   15.6497 C   0  0  0  0  0  0  0  0  0  0  0  0
    6.1628    3.7619   15.9047 C   0  0  0  0  0  0  0  0  0  0  0  0
   -4.0681    5.0005   10.8703 C   0  0  0  0  0  0  0  0  0  0  0  0
   -3.8977    6.3632   11.5287 C   0  0  0  0  0  0  0  0  0  0  0  0
  1  2  1  0
  2  3  1  0
  3  4  1  0
  4  5  1  0
  5  6  2  0
  6  7  1  0
  7  8  1  0
  7  9  2  0
  9 10  1  0
 10 11  2  0
 11 12  1  0
 10 13  1  0
 13 14  1  0
 14 15  2  0
 15 16  1  0
 15 17  1  0
 17 18  2  0
 18 19  1  0
 19 20  2  0
 20 21  1  0
 18 22  1  0
  3 23  1  0
 23 24  1  0
 11  5  1  0
 20 14  1  0
M  END
$$$$
