
     RDKit          3D

 29 31  0  0  0  0  0  0  0  0999 V2000
   -6.4145    5.4342    6.1479 C   0  0  0  0  0  0  0  0  0  0  0  0
   -5.4238    3.9340    6.4553 S   0  0  0  0  0  0  0  0  0  0  0  0
   -4.8228    4.0492    8.1413 C   0  0  0  0  0  0  0  0  0  0  0  0
   -5.3390    4.9703    8.9973 N   0  0  0  0  0  0  0  0  0  0  0  0
   -4.8994    5.0690   10.2657 C   0  0  0  0  0  0  0  0  0  0  0  0
   -5.4523    6.0379   11.1417 N   0  0  0  0  0  0  0  0  0  0  0  0
   -3.9046    4.1896   10.6414 C   0  0  0  0  0  0  0  0  0  0  0  0
   -3.3634    3.2378    9.7756 C   0  0  0  0  0  0  0  0  0  0  0  0
   -3.8537    3.2036    8.5325 N   0  0  0  0  0  0  0  0  0  0  0  0
   -2.4203    2.5333   10.4248 N   0  0  0  0  0  0  0  0  0  0  0  0
   -2.3662    3.0254   11.6663 C   0  0  0  0  0  0  0  0  0  0  0  0
   -3.2702    4.0367   11.8042 N   0  0  0  0  0  0  0  0  0  0  0  0
   -1.6306    1.4723    9.9018 C   0  0  2  0  0  0  0  0  0  0  0  0
   -0.4402    1.2659   10.5980 O   0  0  0  0  0  0  0  0  0  0  0  0
    0.1260    0.2324    9.8532 C   0  0  1  0  0  0  0  0  0  0  0  0
   -0.0522    0.6139    8.4004 C   0  0  2  0  0  0  0  0  0  0  0  0
   -1.1064    1.7247    8.5051 C   0  0  1  0  0  0  0  0  0  0  0  0
   -2.0984    1.5477    7.5436 O   0  0  0  0  0  0  0  0  0  0  0  0
   -0.6739   -0.4314    7.7030 O   0  0  0  0  0  0  0  0  0  0  0  0
    1.6034    0.0842   10.1217 C   0  0  0  0  0  0  0  0  0  0  0  0
    2.2477    1.3302   10.0999 O   0  0  0  0  0  0  0  0  0  0  0  0
    2.9551    1.7082   11.5602 P   0  0  1  0  0  5  0  0  0  0  0  0
    2.3596    0.8864   12.6938 O   0  0  0  0  0  0  0  0  0  0  0  0
    4.6177    1.4373   11.5739 O   0  0  0  0  0  0  0  0  0  0  0  0
    5.0769    0.2656   12.6851 P   0  0  0  0  0  5  0  0  0  0  0  0
    6.5330   -0.0939   12.6008 O   0  0  0  0  0  0  0  0  0  0  0  0
    4.1323   -1.1168   12.4445 O   0  0  0  0  0  1  0  0  0  0  0  0
    4.7519    0.8711   14.2498 O   0  0  0  0  0  1  0  0  0  0  0  0
    2.6772    3.3419   11.9753 O   0  0  0  0  0  1  0  0  0  0  0  0
  1  2  1  0
  2  3  1  0
  3  4  2  0
  4  5  1  0
  5  6  1  0
  5  7  2  0
  7  8  1  0
  8  9  2  0
  8 10  1  0
 10 11  1  0
 11 12  2  0
 13 10  1  1
 13 14  1  0
 14 15  1  0
 15 16  1  0
 16 17  1  0
 17 18  1  6
 16 19  1  6
 15 20  1  1
 20 21  1  0
 21 22  1  0
 22 23  2  0
 22 24  1  0
 24 25  1  0
 25 26  2  0
 25 27  1  0
 25 28  1  0
 22 29  1  1
  9  3  1  0
 17 13  1  0
 12  7  1  0
M  CHG  3  27  -1  28  -1  29  -1
M  END
$$$$
