
     RDKit          3D

 29 31  0  0  0  0  0  0  0  0999 V2000
   -4.5025    2.7010    5.5112 C   0  0  0  0  0  0  0  0  0  0  0  0
   -5.8368    3.2978    6.6021 S   0  0  0  0  0  0  0  0  0  0  0  0
   -5.1091    3.5372    8.2238 C   0  0  0  0  0  0  0  0  0  0  0  0
   -5.7808    4.2198    9.1885 N   0  0  0  0  0  0  0  0  0  0  0  0
   -5.2489    4.4074   10.4106 C   0  0  0  0  0  0  0  0  0  0  0  0
   -5.9676    5.1231   11.4021 N   0  0  0  0  0  0  0  0  0  0  0  0
   -3.9952    3.8717   10.6240 C   0  0  0  0  0  0  0  0  0  0  0  0
   -3.2916    3.1682    9.6450 C   0  0  0  0  0  0  0  0  0  0  0  0
   -3.8883    3.0250    8.4574 N   0  0  0  0  0  0  0  0  0  0  0  0
   -2.1088    2.7729   10.1470 N   0  0  0  0  0  0  0  0  0  0  0  0
   -2.0652    3.2139   11.4080 C   0  0  0  0  0  0  0  0  0  0  0  0
   -3.2142    3.8853   11.7046 N   0  0  0  0  0  0  0  0  0  0  0  0
   -1.0971    2.0318    9.4761 C   0  0  2  0  0  0  0  0  0  0  0  0
   -0.3537    1.2089   10.3213 O   0  0  0  0  0  0  0  0  0  0  0  0
    0.5613    0.6636    9.4219 C   0  0  1  0  0  0  0  0  0  0  0  0
    1.0510    1.8138    8.5702 C   0  0  2  0  0  0  0  0  0  0  0  0
   -0.0041    2.8868    8.8733 C   0  0  1  0  0  0  0  0  0  0  0  0
   -0.4235    3.5040    7.6972 O   0  0  0  0  0  0  0  0  0  0  0  0
    0.8951    1.5048    7.2117 O   0  0  0  0  0  0  0  0  0  0  0  0
    1.7526    0.0583   10.1228 C   0  0  0  0  0  0  0  0  0  0  0  0
    2.7321    1.0285   10.3822 O   0  0  0  0  0  0  0  0  0  0  0  0
    3.5986    0.7054   11.7681 P   0  0  1  0  0  5  0  0  0  0  0  0
    4.9537    0.0937   11.4446 O   0  0  0  0  0  0  0  0  0  0  0  0
    3.8864    2.0804   12.6978 O   0  0  0  0  0  0  0  0  0  0  0  0
    5.0433    1.8304   13.8884 P   0  0  0  0  0  5  0  0  0  0  0  0
    5.8999    3.0372   14.1462 O   0  0  0  0  0  0  0  0  0  0  0  0
    6.0182    0.5234   13.4383 O   0  0  0  0  0  1  0  0  0  0  0  0
    4.2284    1.4185   15.3330 O   0  0  0  0  0  1  0  0  0  0  0  0
    2.7932   -0.4408   12.7457 O   0  0  0  0  0  1  0  0  0  0  0  0
  1  2  1  0
  2  3  1  0
  3  4  2  0
  4  5  1  0
  5  6  1  0
  5  7  2  0
  7  8  1  0
  8  9  2  0
  8 10  1  0
 10 11  1  0
 11 12  2  0
 13 10  1  1
 13 14  1  0
 14 15  1  0
 15 16  1  0
 16 17  1  0
 17 18  1  6
 16 19  1  6
 15 20  1  1
 20 21  1  0
 21 22  1  0
 22 23  2  0
 22 24  1  0
 24 25  1  0
 25 26  2  0
 25 27  1  0
 25 28  1  0
 22 29  1  1
  9  3  1  0
 17 13  1  0
 12  7  1  0
M  CHG  3  27  -1  28  -1  29  -1
M  END
$$$$
