
     RDKit          3D

 29 31  0  0  0  0  0  0  0  0999 V2000
    0.2882    0.2979   13.5830 C   0  0  0  0  0  0  0  0  0  0  0  0
   -0.0120    1.9372   14.3240 S   0  0  0  0  0  0  0  0  0  0  0  0
   -1.1265    2.8063   13.2197 C   0  0  0  0  0  0  0  0  0  0  0  0
   -2.0960    3.6196   13.7160 N   0  0  0  0  0  0  0  0  0  0  0  0
   -2.9396    4.2793   12.9007 C   0  0  0  0  0  0  0  0  0  0  0  0
   -3.9442    5.1227   13.4406 N   0  0  0  0  0  0  0  0  0  0  0  0
   -2.7642    4.0833   11.5461 C   0  0  0  0  0  0  0  0  0  0  0  0
   -1.7742    3.2520   11.0194 C   0  0  0  0  0  0  0  0  0  0  0  0
   -0.9766    2.6324   11.8951 N   0  0  0  0  0  0  0  0  0  0  0  0
   -1.8525    3.2646    9.6774 N   0  0  0  0  0  0  0  0  0  0  0  0
   -2.8636    4.0807    9.3638 C   0  0  0  0  0  0  0  0  0  0  0  0
   -3.4237    4.5833   10.5007 N   0  0  0  0  0  0  0  0  0  0  0  0
   -1.0271    2.5529    8.7637 C   0  0  2  0  0  0  0  0  0  0  0  0
   -1.5062    2.5616    7.4542 O   0  0  0  0  0  0  0  0  0  0  0  0
   -0.5497    1.7723    6.8174 C   0  0  1  0  0  0  0  0  0  0  0  0
   -0.3190    0.5803    7.7195 C   0  0  2  0  0  0  0  0  0  0  0  0
   -0.9507    1.0657    9.0316 C   0  0  1  0  0  0  0  0  0  0  0  0
   -0.1164    0.7796   10.1096 O   0  0  0  0  0  0  0  0  0  0  0  0
    1.0497    0.4408    7.9891 O   0  0  0  0  0  0  0  0  0  0  0  0
   -1.0333    1.2633    5.4818 C   0  0  0  0  0  0  0  0  0  0  0  0
   -2.3812    0.8795    5.5460 O   0  0  0  0  0  0  0  0  0  0  0  0
   -2.7848   -0.2312    4.3715 P   0  0  1  0  0  5  0  0  0  0  0  0
   -1.5713   -1.0349    3.9282 O   0  0  0  0  0  0  0  0  0  0  0  0
   -3.9485   -1.3358    4.8848 O   0  0  0  0  0  0  0  0  0  0  0  0
   -5.4409   -0.6224    5.1717 P   0  0  0  0  0  5  0  0  0  0  0  0
   -6.4305   -1.5537    5.8121 O   0  0  0  0  0  0  0  0  0  0  0  0
   -6.0627   -0.0467    3.7078 O   0  0  0  0  0  1  0  0  0  0  0  0
   -5.1931    0.7119    6.2104 O   0  0  0  0  0  1  0  0  0  0  0  0
   -3.3679    0.5433    2.9649 O   0  0  0  0  0  1  0  0  0  0  0  0
  1  2  1  0
  2  3  1  0
  3  4  2  0
  4  5  1  0
  5  6  1  0
  5  7  2  0
  7  8  1  0
  8  9  2  0
  8 10  1  0
 10 11  1  0
 11 12  2  0
 13 10  1  1
 13 14  1  0
 14 15  1  0
 15 16  1  0
 16 17  1  0
 17 18  1  1
 16 19  1  1
 15 20  1  6
 20 21  1  0
 21 22  1  0
 22 23  2  0
 22 24  1  0
 24 25  1  0
 25 26  2  0
 25 27  1  0
 25 28  1  0
 22 29  1  6
  9  3  1  0
 17 13  1  0
 12  7  1  0
M  CHG  3  27  -1  28  -1  29  -1
M  END
$$$$
