
     RDKit          3D

 29 31  0  0  0  0  0  0  0  0999 V2000
   -2.1923    8.0601   12.5859 C   0  0  0  0  0  0  0  0  0  0  0  0
   -1.6760    6.9932   11.1996 S   0  0  0  0  0  0  0  0  0  0  0  0
   -2.1918    5.3256   11.6122 C   0  0  0  0  0  0  0  0  0  0  0  0
   -2.7906    5.0626   12.8038 N   0  0  0  0  0  0  0  0  0  0  0  0
   -3.1842    3.8169   13.1280 C   0  0  0  0  0  0  0  0  0  0  0  0
   -3.8070    3.5653   14.3773 N   0  0  0  0  0  0  0  0  0  0  0  0
   -2.9463    2.8336   12.1897 C   0  0  0  0  0  0  0  0  0  0  0  0
   -2.3328    3.0860   10.9616 C   0  0  0  0  0  0  0  0  0  0  0  0
   -1.9714    4.3491   10.7149 N   0  0  0  0  0  0  0  0  0  0  0  0
   -2.2399    1.9380   10.2681 N   0  0  0  0  0  0  0  0  0  0  0  0
   -2.7793    0.9861   11.0358 C   0  0  0  0  0  0  0  0  0  0  0  0
   -3.2123    1.5271   12.2100 N   0  0  0  0  0  0  0  0  0  0  0  0
   -1.6794    1.7617    8.9729 C   0  0  2  0  0  0  0  0  0  0  0  0
   -2.5909    1.2898    8.0290 O   0  0  0  0  0  0  0  0  0  0  0  0
   -1.7725    1.1726    6.9066 C   0  0  1  0  0  0  0  0  0  0  0  0
   -0.4964    0.5149    7.3828 C   0  0  2  0  0  0  0  0  0  0  0  0
   -0.6134    0.6903    8.9033 C   0  0  1  0  0  0  0  0  0  0  0  0
    0.5949    1.1315    9.4376 O   0  0  0  0  0  0  0  0  0  0  0  0
    0.6114    1.2834    6.9987 O   0  0  0  0  0  0  0  0  0  0  0  0
   -2.3873    0.2918    5.8468 C   0  0  0  0  0  0  0  0  0  0  0  0
   -2.9003   -0.8879    6.4064 O   0  0  0  0  0  0  0  0  0  0  0  0
   -3.8431   -1.7454    5.3332 P   0  0  1  0  0  5  0  0  0  0  0  0
   -4.2819   -3.0776    5.9227 O   0  0  0  0  0  0  0  0  0  0  0  0
   -5.2408   -0.9200    4.8825 O   0  0  0  0  0  0  0  0  0  0  0  0
   -5.2195   -0.4335    3.2759 P   0  0  0  0  0  5  0  0  0  0  0  0
   -3.8515   -0.4871    2.6577 O   0  0  0  0  0  0  0  0  0  0  0  0
   -5.8318    1.1399    3.1724 O   0  0  0  0  0  1  0  0  0  0  0  0
   -6.2573   -1.4710    2.4001 O   0  0  0  0  0  1  0  0  0  0  0  0
   -2.9700   -2.1297    3.9160 O   0  0  0  0  0  1  0  0  0  0  0  0
  1  2  1  0
  2  3  1  0
  3  4  2  0
  4  5  1  0
  5  6  1  0
  5  7  2  0
  7  8  1  0
  8  9  2  0
  8 10  1  0
 10 11  1  0
 11 12  2  0
 13 10  1  1
 13 14  1  0
 14 15  1  0
 15 16  1  0
 16 17  1  0
 17 18  1  6
 16 19  1  6
 15 20  1  6
 20 21  1  0
 21 22  1  0
 22 23  2  0
 22 24  1  0
 24 25  1  0
 25 26  2  0
 25 27  1  0
 25 28  1  0
 22 29  1  6
  9  3  1  0
 17 13  1  0
 12  7  1  0
M  CHG  3  27  -1  28  -1  29  -1
M  END
$$$$
