
     RDKit          3D

 29 31  0  0  0  0  0  0  0  0999 V2000
   -4.4850    8.0350    8.0136 C   0  0  0  0  0  0  0  0  0  0  0  0
   -3.0745    6.8788    7.9944 S   0  0  0  0  0  0  0  0  0  0  0  0
   -3.7601    5.2263    8.1219 C   0  0  0  0  0  0  0  0  0  0  0  0
   -5.1056    5.0337    8.1089 N   0  0  0  0  0  0  0  0  0  0  0  0
   -5.6357    3.8001    8.2030 C   0  0  0  0  0  0  0  0  0  0  0  0
   -7.0429    3.6225    8.1876 N   0  0  0  0  0  0  0  0  0  0  0  0
   -4.7424    2.7541    8.3121 C   0  0  0  0  0  0  0  0  0  0  0  0
   -3.3583    2.9338    8.3270 C   0  0  0  0  0  0  0  0  0  0  0  0
   -2.9109    4.1897    8.2293 N   0  0  0  0  0  0  0  0  0  0  0  0
   -2.7570    1.7370    8.4426 N   0  0  0  0  0  0  0  0  0  0  0  0
   -3.7331    0.8257    8.4992 C   0  0  0  0  0  0  0  0  0  0  0  0
   -4.9473    1.4409    8.4200 N   0  0  0  0  0  0  0  0  0  0  0  0
   -1.3589    1.4813    8.4953 C   0  0  2  0  0  0  0  0  0  0  0  0
   -1.0410    0.2071    8.9639 O   0  0  0  0  0  0  0  0  0  0  0  0
    0.3520    0.2608    8.9518 C   0  0  1  0  0  0  0  0  0  0  0  0
    0.7271    1.5973    9.5526 C   0  0  2  0  0  0  0  0  0  0  0  0
   -0.6110    2.3465    9.4859 C   0  0  1  0  0  0  0  0  0  0  0  0
   -0.4228    3.6386    9.0009 O   0  0  0  0  0  0  0  0  0  0  0  0
    1.5887    2.2868    8.6879 O   0  0  0  0  0  0  0  0  0  0  0  0
    0.9680   -0.8245    9.8001 C   0  0  0  0  0  0  0  0  0  0  0  0
    0.0905   -1.2294   10.8170 O   0  0  0  0  0  0  0  0  0  0  0  0
    0.8413   -1.3418   12.3001 P   0  0  1  0  0  5  0  0  0  0  0  0
    2.1105   -2.1769   12.2170 O   0  0  0  0  0  0  0  0  0  0  0  0
    1.2771    0.1583   12.9305 O   0  0  0  0  0  0  0  0  0  0  0  0
    2.8914    0.2284   13.3864 P   0  0  0  0  0  5  0  0  0  0  0  0
    3.2073   -0.6224   14.5835 O   0  0  0  0  0  0  0  0  0  0  0  0
    3.3005    1.8383   13.7058 O   0  0  0  0  0  1  0  0  0  0  0  0
    3.8328   -0.3121   12.0666 O   0  0  0  0  0  1  0  0  0  0  0  0
   -0.1589   -2.1292   13.4394 O   0  0  0  0  0  1  0  0  0  0  0  0
  1  2  1  0
  2  3  1  0
  3  4  2  0
  4  5  1  0
  5  6  1  0
  5  7  2  0
  7  8  1  0
  8  9  2  0
  8 10  1  0
 10 11  1  0
 11 12  2  0
 13 10  1  1
 13 14  1  0
 14 15  1  0
 15 16  1  0
 16 17  1  0
 17 18  1  6
 16 19  1  6
 15 20  1  1
 20 21  1  0
 21 22  1  0
 22 23  2  0
 22 24  1  0
 24 25  1  0
 25 26  2  0
 25 27  1  0
 25 28  1  0
 22 29  1  1
  9  3  1  0
 17 13  1  0
 12  7  1  0
M  CHG  3  27  -1  28  -1  29  -1
M  END
$$$$
