
     RDKit          3D

 29 31  0  0  0  0  0  0  0  0999 V2000
   -2.1749    8.5588   10.7455 C   0  0  0  0  0  0  0  0  0  0  0  0
   -1.4872    6.9917   10.1145 S   0  0  0  0  0  0  0  0  0  0  0  0
   -2.7765    5.7566   10.2857 C   0  0  0  0  0  0  0  0  0  0  0  0
   -3.8588    5.9922   11.0736 N   0  0  0  0  0  0  0  0  0  0  0  0
   -4.8351    5.0760   11.2119 C   0  0  0  0  0  0  0  0  0  0  0  0
   -5.9555    5.3431   12.0396 N   0  0  0  0  0  0  0  0  0  0  0  0
   -4.6740    3.8963   10.5143 C   0  0  0  0  0  0  0  0  0  0  0  0
   -3.5694    3.6379    9.7010 C   0  0  0  0  0  0  0  0  0  0  0  0
   -2.6435    4.5983    9.6163 N   0  0  0  0  0  0  0  0  0  0  0  0
   -3.6950    2.4145    9.1581 N   0  0  0  0  0  0  0  0  0  0  0  0
   -4.8467    1.9129    9.6150 C   0  0  0  0  0  0  0  0  0  0  0  0
   -5.4485    2.8133   10.4433 N   0  0  0  0  0  0  0  0  0  0  0  0
   -2.7869    1.7722    8.2719 C   0  0  2  0  0  0  0  0  0  0  0  0
   -2.3469    0.5296    8.7263 O   0  0  0  0  0  0  0  0  0  0  0  0
   -1.4621    0.1742    7.7093 C   0  0  1  0  0  0  0  0  0  0  0  0
   -0.6369    1.4081    7.4189 C   0  0  2  0  0  0  0  0  0  0  0  0
   -1.4706    2.4994    8.1047 C   0  0  1  0  0  0  0  0  0  0  0  0
   -1.5984    3.6098    7.2736 O   0  0  0  0  0  0  0  0  0  0  0  0
   -0.6823    1.7038    6.0493 O   0  0  0  0  0  0  0  0  0  0  0  0
   -0.5238   -0.9285    8.1345 C   0  0  0  0  0  0  0  0  0  0  0  0
    0.4368   -0.4527    9.0393 O   0  0  0  0  0  0  0  0  0  0  0  0
    0.7483   -1.5353   10.2668 P   0  0  1  0  0  5  0  0  0  0  0  0
    1.7941   -0.9948   11.2306 O   0  0  0  0  0  0  0  0  0  0  0  0
   -0.6193   -1.9056   11.1782 O   0  0  0  0  0  0  0  0  0  0  0  0
   -1.5968   -3.0574   10.4461 P   0  0  0  0  0  5  0  0  0  0  0  0
   -1.7706   -2.8368    8.9704 O   0  0  0  0  0  0  0  0  0  0  0  0
   -3.1080   -3.0555   11.2059 O   0  0  0  0  0  1  0  0  0  0  0  0
   -0.8764   -4.5878   10.6899 O   0  0  0  0  0  1  0  0  0  0  0  0
    1.3919   -2.9942    9.6537 O   0  0  0  0  0  1  0  0  0  0  0  0
  1  2  1  0
  2  3  1  0
  3  4  2  0
  4  5  1  0
  5  6  1  0
  5  7  2  0
  7  8  1  0
  8  9  2  0
  8 10  1  0
 10 11  1  0
 11 12  2  0
 13 10  1  1
 13 14  1  0
 14 15  1  0
 15 16  1  0
 16 17  1  0
 17 18  1  6
 16 19  1  6
 15 20  1  1
 20 21  1  0
 21 22  1  0
 22 23  2  0
 22 24  1  0
 24 25  1  0
 25 26  2  0
 25 27  1  0
 25 28  1  0
 22 29  1  6
  9  3  1  0
 17 13  1  0
 12  7  1  0
M  CHG  3  27  -1  28  -1  29  -1
M  END
$$$$
