
     RDKit          3D

 29 31  0  0  0  0  0  0  0  0999 V2000
   -3.8103    1.6038    4.9436 C   0  0  0  0  0  0  0  0  0  0  0  0
   -5.3074    2.2278    5.7780 S   0  0  0  0  0  0  0  0  0  0  0  0
   -4.8952    2.4022    7.5148 C   0  0  0  0  0  0  0  0  0  0  0  0
   -5.8358    2.8010    8.4114 N   0  0  0  0  0  0  0  0  0  0  0  0
   -5.5427    2.9360    9.7181 C   0  0  0  0  0  0  0  0  0  0  0  0
   -6.5400    3.3539   10.6361 N   0  0  0  0  0  0  0  0  0  0  0  0
   -4.2452    2.6489   10.0897 C   0  0  0  0  0  0  0  0  0  0  0  0
   -3.2670    2.2382    9.1825 C   0  0  0  0  0  0  0  0  0  0  0  0
   -3.6375    2.1284    7.9029 N   0  0  0  0  0  0  0  0  0  0  0  0
   -2.1111    2.0353    9.8384 N   0  0  0  0  0  0  0  0  0  0  0  0
   -2.3512    2.3099   11.1244 C   0  0  0  0  0  0  0  0  0  0  0  0
   -3.6523    2.6850   11.2835 N   0  0  0  0  0  0  0  0  0  0  0  0
   -0.8724    1.6124    9.2822 C   0  0  2  0  0  0  0  0  0  0  0  0
    0.1287    1.4150   10.2326 O   0  0  0  0  0  0  0  0  0  0  0  0
    1.2028    1.0641    9.4162 C   0  0  1  0  0  0  0  0  0  0  0  0
    1.1909    2.0409    8.2615 C   0  0  2  0  0  0  0  0  0  0  0  0
   -0.2175    2.6391    8.3842 C   0  0  1  0  0  0  0  0  0  0  0  0
   -0.8328    2.6978    7.1360 O   0  0  0  0  0  0  0  0  0  0  0  0
    1.2001    1.3449    7.0446 O   0  0  0  0  0  0  0  0  0  0  0  0
    2.5250    1.1984   10.1309 C   0  0  0  0  0  0  0  0  0  0  0  0
    2.7093    2.5040   10.6099 O   0  0  0  0  0  0  0  0  0  0  0  0
    2.9281    2.5527   12.2609 P   0  0  1  0  0  5  0  0  0  0  0  0
    1.9874    3.5536   12.9154 O   0  0  0  0  0  0  0  0  0  0  0  0
    2.6599    1.0642   13.0027 O   0  0  0  0  0  0  0  0  0  0  0  0
    4.0593    0.1484   13.1483 P   0  0  0  0  0  5  0  0  0  0  0  0
    5.2262    0.9287   13.6835 O   0  0  0  0  0  0  0  0  0  0  0  0
    4.4502   -0.4981   11.6349 O   0  0  0  0  0  1  0  0  0  0  0  0
    3.7305   -1.1456   14.2151 O   0  0  0  0  0  1  0  0  0  0  0  0
    4.5067    3.0704   12.6586 O   0  0  0  0  0  1  0  0  0  0  0  0
  1  2  1  0
  2  3  1  0
  3  4  2  0
  4  5  1  0
  5  6  1  0
  5  7  2  0
  7  8  1  0
  8  9  2  0
  8 10  1  0
 10 11  1  0
 11 12  2  0
 13 10  1  1
 13 14  1  0
 14 15  1  0
 15 16  1  0
 16 17  1  0
 17 18  1  6
 16 19  1  6
 15 20  1  1
 20 21  1  0
 21 22  1  0
 22 23  2  0
 22 24  1  0
 24 25  1  0
 25 26  2  0
 25 27  1  0
 25 28  1  0
 22 29  1  6
  9  3  1  0
 17 13  1  0
 12  7  1  0
M  CHG  3  27  -1  28  -1  29  -1
M  END
$$$$
