
     RDKit          3D

 29 31  0  0  0  0  0  0  0  0999 V2000
  -13.2577    2.6665  -21.2984 C   0  0  0  0  0  0  0  0  0  0  0  0
  -13.9599    0.9995  -21.5320 S   0  0  0  0  0  0  0  0  0  0  0  0
  -13.0459    0.2381  -22.8743 C   0  0  0  0  0  0  0  0  0  0  0  0
  -13.3879   -0.9960  -23.3303 N   0  0  0  0  0  0  0  0  0  0  0  0
  -12.7126   -1.5807  -24.3372 C   0  0  0  0  0  0  0  0  0  0  0  0
  -13.0868   -2.8693  -24.7969 N   0  0  0  0  0  0  0  0  0  0  0  0
  -11.6641   -0.8613  -24.8732 C   0  0  0  0  0  0  0  0  0  0  0  0
  -11.2994    0.4066  -24.4172 C   0  0  0  0  0  0  0  0  0  0  0  0
  -12.0196    0.9183  -23.4140 N   0  0  0  0  0  0  0  0  0  0  0  0
  -10.2491    0.8490  -25.1302 N   0  0  0  0  0  0  0  0  0  0  0  0
   -9.9573   -0.1119  -26.0123 C   0  0  0  0  0  0  0  0  0  0  0  0
  -10.8180   -1.1583  -25.8600 N   0  0  0  0  0  0  0  0  0  0  0  0
   -9.5746    2.0923  -24.9819 C   0  0  2  0  0  0  0  0  0  0  0  0
   -8.5517    2.2874  -25.9092 O   0  0  0  0  0  0  0  0  0  0  0  0
   -8.0575    3.5255  -25.5013 C   0  0  1  0  0  0  0  0  0  0  0  0
   -7.9517    3.4607  -23.9938 C   0  0  2  0  0  0  0  0  0  0  0  0
   -8.8134    2.2293  -23.6815 C   0  0  1  0  0  0  0  0  0  0  0  0
   -9.6661    2.4897  -22.6113 O   0  0  0  0  0  0  0  0  0  0  0  0
   -8.6249    4.5477  -23.4187 O   0  0  0  0  0  0  0  0  0  0  0  0
   -6.6812    3.7971  -26.0571 C   0  0  0  0  0  0  0  0  0  0  0  0
   -5.7292    2.9369  -25.4898 O   0  0  0  0  0  0  0  0  0  0  0  0
   -4.8354    2.1276  -26.6397 P   0  0  1  0  0  5  0  0  0  0  0  0
   -5.2486    2.5303  -28.0475 O   0  0  0  0  0  0  0  0  0  0  0  0
   -3.1810    2.4169  -26.5084 O   0  0  0  0  0  0  0  0  0  0  0  0
   -2.2573    1.3185  -27.3795 P   0  0  0  0  0  5  0  0  0  0  0  0
   -0.7832    1.6007  -27.3158 O   0  0  0  0  0  0  0  0  0  0  0  0
   -2.7716    1.3276  -28.9908 O   0  0  0  0  0  1  0  0  0  0  0  0
   -2.5455   -0.2373  -26.7338 O   0  0  0  0  0  1  0  0  0  0  0  0
   -5.0914    0.4412  -26.5451 O   0  0  0  0  0  1  0  0  0  0  0  0
  1  2  1  0
  2  3  1  0
  3  4  2  0
  4  5  1  0
  5  6  1  0
  5  7  2  0
  7  8  1  0
  8  9  2  0
  8 10  1  0
 10 11  1  0
 11 12  2  0
 13 10  1  6
 13 14  1  0
 14 15  1  0
 15 16  1  0
 16 17  1  0
 17 18  1  1
 16 19  1  1
 15 20  1  6
 20 21  1  0
 21 22  1  0
 22 23  2  0
 22 24  1  0
 24 25  1  0
 25 26  2  0
 25 27  1  0
 25 28  1  0
 22 29  1  6
  9  3  1  0
 17 13  1  0
 12  7  1  0
M  CHG  3  27  -1  28  -1  29  -1
M  END
$$$$
