
     RDKit          3D

 29 31  0  0  0  0  0  0  0  0999 V2000
   -2.6192    5.9457    8.1206 C   0  0  0  0  0  0  0  0  0  0  0  0
   -4.3652    5.4185    8.1383 S   0  0  0  0  0  0  0  0  0  0  0  0
   -4.4019    3.7793    8.8653 C   0  0  0  0  0  0  0  0  0  0  0  0
   -5.5317    3.3120    9.4592 N   0  0  0  0  0  0  0  0  0  0  0  0
   -5.5757    2.0840   10.0086 C   0  0  0  0  0  0  0  0  0  0  0  0
   -6.7655    1.6169   10.6235 N   0  0  0  0  0  0  0  0  0  0  0  0
   -4.4186    1.3359    9.9343 C   0  0  0  0  0  0  0  0  0  0  0  0
   -3.2499    1.7999    9.3283 C   0  0  0  0  0  0  0  0  0  0  0  0
   -3.2873    3.0299    8.8061 N   0  0  0  0  0  0  0  0  0  0  0  0
   -2.3003    0.8520    9.4124 N   0  0  0  0  0  0  0  0  0  0  0  0
   -2.8526   -0.1827   10.0535 C   0  0  0  0  0  0  0  0  0  0  0  0
   -4.1457    0.1072   10.3744 N   0  0  0  0  0  0  0  0  0  0  0  0
   -0.9682    0.9266    8.9197 C   0  0  2  0  0  0  0  0  0  0  0  0
   -0.0525    0.1905    9.6707 O   0  0  0  0  0  0  0  0  0  0  0  0
    1.1347    0.4835    9.0012 C   0  0  1  0  0  0  0  0  0  0  0  0
    1.1185    1.9747    8.7484 C   0  0  2  0  0  0  0  0  0  0  0  0
   -0.3586    2.3092    8.9982 C   0  0  1  0  0  0  0  0  0  0  0  0
   -0.8459    3.1439    7.9953 O   0  0  0  0  0  0  0  0  0  0  0  0
    1.3387    2.2328    7.3882 O   0  0  0  0  0  0  0  0  0  0  0  0
    2.3499    0.1622    9.8360 C   0  0  0  0  0  0  0  0  0  0  0  0
    2.1266    0.4612   11.1883 O   0  0  0  0  0  0  0  0  0  0  0  0
    3.1576   -0.3654   12.2031 P   0  0  1  0  0  5  0  0  0  0  0  0
    4.2168   -1.1250   11.4182 O   0  0  0  0  0  0  0  0  0  0  0  0
    3.9696    0.6452   13.2789 O   0  0  0  0  0  0  0  0  0  0  0  0
    4.0426    2.2362   12.7481 P   0  0  0  0  0  5  0  0  0  0  0  0
    2.7179    2.9423   12.8056 O   0  0  0  0  0  0  0  0  0  0  0  0
    4.6330    2.2577   11.1631 O   0  0  0  0  0  1  0  0  0  0  0  0
    5.1519    3.0710   13.7446 O   0  0  0  0  0  1  0  0  0  0  0  0
    2.3167   -1.5442   13.1095 O   0  0  0  0  0  1  0  0  0  0  0  0
  1  2  1  0
  2  3  1  0
  3  4  2  0
  4  5  1  0
  5  6  1  0
  5  7  2  0
  7  8  1  0
  8  9  2  0
  8 10  1  0
 10 11  1  0
 11 12  2  0
 13 10  1  1
 13 14  1  0
 14 15  1  0
 15 16  1  0
 16 17  1  0
 17 18  1  6
 16 19  1  6
 15 20  1  1
 20 21  1  0
 21 22  1  0
 22 23  2  0
 22 24  1  0
 24 25  1  0
 25 26  2  0
 25 27  1  0
 25 28  1  0
 22 29  1  1
  9  3  1  0
 17 13  1  0
 12  7  1  0
M  CHG  3  27  -1  28  -1  29  -1
M  END
$$$$
