
     RDKit          3D

 29 31  0  0  0  0  0  0  0  0999 V2000
    4.5055    3.5930   11.5226 C   0  0  0  0  0  0  0  0  0  0  0  0
    4.2506    2.2127   12.6873 S   0  0  0  0  0  0  0  0  0  0  0  0
    2.4819    2.0838   12.9554 C   0  0  0  0  0  0  0  0  0  0  0  0
    1.9846    1.8971   14.2067 N   0  0  0  0  0  0  0  0  0  0  0  0
    0.6600    1.7992   14.4247 C   0  0  0  0  0  0  0  0  0  0  0  0
    0.1632    1.6042   15.7389 N   0  0  0  0  0  0  0  0  0  0  0  0
   -0.1543    1.8983   13.3151 C   0  0  0  0  0  0  0  0  0  0  0  0
    0.3392    2.0900   12.0236 C   0  0  0  0  0  0  0  0  0  0  0  0
    1.6665    2.1772   11.8906 N   0  0  0  0  0  0  0  0  0  0  0  0
   -0.6893    2.1465   11.1597 N   0  0  0  0  0  0  0  0  0  0  0  0
   -1.8022    1.9948   11.8842 C   0  0  0  0  0  0  0  0  0  0  0  0
   -1.4816    1.8429   13.2007 N   0  0  0  0  0  0  0  0  0  0  0  0
   -0.6170    2.3306    9.7513 C   0  0  2  0  0  0  0  0  0  0  0  0
   -1.7829    2.8560    9.1957 O   0  0  0  0  0  0  0  0  0  0  0  0
   -1.4446    2.8791    7.8436 C   0  0  1  0  0  0  0  0  0  0  0  0
   -0.7881    1.5482    7.5511 C   0  0  2  0  0  0  0  0  0  0  0  0
   -0.4801    1.0435    8.9677 C   0  0  1  0  0  0  0  0  0  0  0  0
    0.8155    0.5365    9.0337 O   0  0  0  0  0  0  0  0  0  0  0  0
    0.4591    1.7518    6.9439 O   0  0  0  0  0  0  0  0  0  0  0  0
   -2.6593    3.0079    6.9577 C   0  0  0  0  0  0  0  0  0  0  0  0
   -3.7918    2.4508    7.5701 O   0  0  0  0  0  0  0  0  0  0  0  0
   -4.9850    2.0645    6.4733 P   0  0  1  0  0  5  0  0  0  0  0  0
   -4.4490    2.0610    5.0494 O   0  0  0  0  0  0  0  0  0  0  0  0
   -5.6643    0.5478    6.7494 O   0  0  0  0  0  0  0  0  0  0  0  0
   -4.5204   -0.6146    7.1478 P   0  0  0  0  0  5  0  0  0  0  0  0
   -3.2006   -0.0302    7.5641 O   0  0  0  0  0  0  0  0  0  0  0  0
   -4.2980   -1.6407    5.8217 O   0  0  0  0  0  1  0  0  0  0  0  0
   -5.1424   -1.5399    8.4429 O   0  0  0  0  0  1  0  0  0  0  0  0
   -6.2402    3.2231    6.4942 O   0  0  0  0  0  1  0  0  0  0  0  0
  1  2  1  0
  2  3  1  0
  3  4  2  0
  4  5  1  0
  5  6  1  0
  5  7  2  0
  7  8  1  0
  8  9  2  0
  8 10  1  0
 10 11  1  0
 11 12  2  0
 13 10  1  1
 13 14  1  0
 14 15  1  0
 15 16  1  0
 16 17  1  0
 17 18  1  6
 16 19  1  6
 15 20  1  6
 20 21  1  0
 21 22  1  0
 22 23  2  0
 22 24  1  0
 24 25  1  0
 25 26  2  0
 25 27  1  0
 25 28  1  0
 22 29  1  6
  9  3  1  0
 17 13  1  0
 12  7  1  0
M  CHG  3  27  -1  28  -1  29  -1
M  END
$$$$
