
     RDKit          3D

 29 31  0  0  0  0  0  0  0  0999 V2000
    1.3310    0.9299   13.4108 C   0  0  0  0  0  0  0  0  0  0  0  0
    0.8626    2.2178   12.2072 S   0  0  0  0  0  0  0  0  0  0  0  0
   -0.8990    2.4917   12.4041 C   0  0  0  0  0  0  0  0  0  0  0  0
   -1.4948    2.3151   13.6130 N   0  0  0  0  0  0  0  0  0  0  0  0
   -2.8154    2.5172   13.7773 C   0  0  0  0  0  0  0  0  0  0  0  0
   -3.4161    2.3266   15.0480 N   0  0  0  0  0  0  0  0  0  0  0  0
   -3.5208    2.9099   12.6583 C   0  0  0  0  0  0  0  0  0  0  0  0
   -2.9252    3.0960   11.4097 C   0  0  0  0  0  0  0  0  0  0  0  0
   -1.6093    2.8750   11.3289 N   0  0  0  0  0  0  0  0  0  0  0  0
   -3.8621    3.4762   10.5237 N   0  0  0  0  0  0  0  0  0  0  0  0
   -5.0180    3.5291   11.1929 C   0  0  0  0  0  0  0  0  0  0  0  0
   -4.8155    3.1845   12.4964 N   0  0  0  0  0  0  0  0  0  0  0  0
   -3.6706    3.7665    9.1447 C   0  0  2  0  0  0  0  0  0  0  0  0
   -3.8856    2.6719    8.3080 O   0  0  0  0  0  0  0  0  0  0  0  0
   -3.5868    3.2268    7.0645 C   0  0  1  0  0  0  0  0  0  0  0  0
   -2.3143    4.0224    7.2533 C   0  0  2  0  0  0  0  0  0  0  0  0
   -2.2468    4.1291    8.7831 C   0  0  1  0  0  0  0  0  0  0  0  0
   -1.9341    5.4308    9.1678 O   0  0  0  0  0  0  0  0  0  0  0  0
   -2.4956    5.3336    6.7915 O   0  0  0  0  0  0  0  0  0  0  0  0
   -3.3285    2.1694    6.0196 C   0  0  0  0  0  0  0  0  0  0  0  0
   -2.6667    1.0634    6.5737 O   0  0  0  0  0  0  0  0  0  0  0  0
   -2.3481   -0.1203    5.4454 P   0  0  1  0  0  5  0  0  0  0  0  0
   -1.4461   -1.2036    6.0181 O   0  0  0  0  0  0  0  0  0  0  0  0
   -3.7408   -0.8831    4.8830 O   0  0  0  0  0  0  0  0  0  0  0  0
   -4.3404   -2.0208    5.9622 P   0  0  0  0  0  5  0  0  0  0  0  0
   -4.1420   -1.6363    7.4008 O   0  0  0  0  0  0  0  0  0  0  0  0
   -3.5938   -3.5082    5.6602 O   0  0  0  0  0  1  0  0  0  0  0  0
   -6.0149   -2.1920    5.6670 O   0  0  0  0  0  1  0  0  0  0  0  0
   -1.5099    0.5189    4.1010 O   0  0  0  0  0  1  0  0  0  0  0  0
  1  2  1  0
  2  3  1  0
  3  4  2  0
  4  5  1  0
  5  6  1  0
  5  7  2  0
  7  8  1  0
  8  9  2  0
  8 10  1  0
 10 11  1  0
 11 12  2  0
 13 10  1  1
 13 14  1  0
 14 15  1  0
 15 16  1  0
 16 17  1  0
 17 18  1  6
 16 19  1  6
 15 20  1  6
 20 21  1  0
 21 22  1  0
 22 23  2  0
 22 24  1  0
 24 25  1  0
 25 26  2  0
 25 27  1  0
 25 28  1  0
 22 29  1  6
  9  3  1  0
 17 13  1  0
 12  7  1  0
M  CHG  3  27  -1  28  -1  29  -1
M  END
$$$$
