
     RDKit          3D

 29 31  0  0  0  0  0  0  0  0999 V2000
   -1.3759    8.4322   12.1081 C   0  0  0  0  0  0  0  0  0  0  0  0
   -0.8061    6.9039   11.2917 S   0  0  0  0  0  0  0  0  0  0  0  0
   -2.2591    6.1222   10.5883 C   0  0  0  0  0  0  0  0  0  0  0  0
   -3.5018    6.5994   10.8634 N   0  0  0  0  0  0  0  0  0  0  0  0
   -4.6020    6.0246   10.3429 C   0  0  0  0  0  0  0  0  0  0  0  0
   -5.8891    6.5393   10.6437 N   0  0  0  0  0  0  0  0  0  0  0  0
   -4.3960    4.9343    9.5227 C   0  0  0  0  0  0  0  0  0  0  0  0
   -3.1274    4.4312    9.2297 C   0  0  0  0  0  0  0  0  0  0  0  0
   -2.0856    5.0579    9.7857 N   0  0  0  0  0  0  0  0  0  0  0  0
   -3.2486    3.3727    8.4099 N   0  0  0  0  0  0  0  0  0  0  0  0
   -4.5570    3.2105    8.1903 C   0  0  0  0  0  0  0  0  0  0  0  0
   -5.2622    4.1610    8.8672 N   0  0  0  0  0  0  0  0  0  0  0  0
   -2.1977    2.5764    7.8767 C   0  0  2  0  0  0  0  0  0  0  0  0
   -2.5498    1.2406    7.6870 O   0  0  0  0  0  0  0  0  0  0  0  0
   -1.3475    0.7143    7.2171 C   0  0  1  0  0  0  0  0  0  0  0  0
   -0.2640    1.2769    8.1101 C   0  0  2  0  0  0  0  0  0  0  0  0
   -1.0061    2.4313    8.7977 C   0  0  1  0  0  0  0  0  0  0  0  0
   -0.2193    3.5807    8.8056 O   0  0  0  0  0  0  0  0  0  0  0  0
    0.7336    1.8804    7.3317 O   0  0  0  0  0  0  0  0  0  0  0  0
   -1.3081   -0.7904    7.3224 C   0  0  0  0  0  0  0  0  0  0  0  0
   -1.7610   -1.2204    8.5786 O   0  0  0  0  0  0  0  0  0  0  0  0
   -1.7755   -2.8806    8.7175 P   0  0  1  0  0  5  0  0  0  0  0  0
   -2.1637   -3.3160   10.1227 O   0  0  0  0  0  0  0  0  0  0  0  0
   -2.8550   -3.6187    7.6555 O   0  0  0  0  0  0  0  0  0  0  0  0
   -3.9678   -4.6023    8.4383 P   0  0  0  0  0  5  0  0  0  0  0  0
   -4.8531   -5.3649    7.4942 O   0  0  0  0  0  0  0  0  0  0  0  0
   -4.9150   -3.6480    9.4646 O   0  0  0  0  0  1  0  0  0  0  0  0
   -3.0981   -5.7189    9.3961 O   0  0  0  0  0  1  0  0  0  0  0  0
   -0.2224   -3.5360    8.4407 O   0  0  0  0  0  1  0  0  0  0  0  0
  1  2  1  0
  2  3  1  0
  3  4  2  0
  4  5  1  0
  5  6  1  0
  5  7  2  0
  7  8  1  0
  8  9  2  0
  8 10  1  0
 10 11  1  0
 11 12  2  0
 13 10  1  1
 13 14  1  0
 14 15  1  0
 15 16  1  0
 16 17  1  0
 17 18  1  6
 16 19  1  6
 15 20  1  1
 20 21  1  0
 21 22  1  0
 22 23  2  0
 22 24  1  0
 24 25  1  0
 25 26  2  0
 25 27  1  0
 25 28  1  0
 22 29  1  6
  9  3  1  0
 17 13  1  0
 12  7  1  0
M  CHG  3  27  -1  28  -1  29  -1
M  END
$$$$
