
     RDKit          3D

 29 31  0  0  0  0  0  0  0  0999 V2000
    4.5363   12.3429  -30.2496 C   0  0  0  0  0  0  0  0  0  0  0  0
    3.6087   11.1352  -29.2456 S   0  0  0  0  0  0  0  0  0  0  0  0
    4.4345    9.5557  -29.4455 C   0  0  0  0  0  0  0  0  0  0  0  0
    5.5930    9.4660  -30.1509 N   0  0  0  0  0  0  0  0  0  0  0  0
    6.2252    8.2884  -30.3093 C   0  0  0  0  0  0  0  0  0  0  0  0
    7.4331    8.2182  -31.0498 N   0  0  0  0  0  0  0  0  0  0  0  0
    5.6343    7.1896  -29.7199 C   0  0  0  0  0  0  0  0  0  0  0  0
    4.4454    7.2635  -28.9924 C   0  0  0  0  0  0  0  0  0  0  0  0
    3.8792    8.4693  -28.8808 N   0  0  0  0  0  0  0  0  0  0  0  0
    4.1225    6.0377  -28.5446 N   0  0  0  0  0  0  0  0  0  0  0  0
    5.0802    5.2114  -28.9768 C   0  0  0  0  0  0  0  0  0  0  0  0
    6.0057    5.9092  -29.6948 N   0  0  0  0  0  0  0  0  0  0  0  0
    2.9879    5.6810  -27.7649 C   0  0  2  0  0  0  0  0  0  0  0  0
    3.1156    4.4498  -27.1229 O   0  0  0  0  0  0  0  0  0  0  0  0
    1.8746    4.3483  -26.4960 C   0  0  1  0  0  0  0  0  0  0  0  0
    0.8474    4.7623  -27.5263 C   0  0  2  0  0  0  0  0  0  0  0  0
    1.7303    5.4535  -28.5747 C   0  0  1  0  0  0  0  0  0  0  0  0
    1.1553    6.6556  -28.9803 O   0  0  0  0  0  0  0  0  0  0  0  0
    0.0235    5.7693  -27.0042 O   0  0  0  0  0  0  0  0  0  0  0  0
    1.5687    2.9333  -26.0707 C   0  0  0  0  0  0  0  0  0  0  0  0
    1.6782    2.0465  -27.1523 O   0  0  0  0  0  0  0  0  0  0  0  0
    1.6800    0.4513  -26.6715 P   0  0  1  0  0  5  0  0  0  0  0  0
    2.6371    0.2232  -25.5110 O   0  0  0  0  0  0  0  0  0  0  0  0
    0.1629   -0.0859  -26.1737 O   0  0  0  0  0  0  0  0  0  0  0  0
   -0.9690   -0.0784  -27.4135 P   0  0  0  0  0  5  0  0  0  0  0  0
   -0.3881   -0.4447  -28.7495 O   0  0  0  0  0  0  0  0  0  0  0  0
   -1.6765    1.4556  -27.4993 O   0  0  0  0  0  1  0  0  0  0  0  0
   -2.1877   -1.2091  -27.0176 O   0  0  0  0  0  1  0  0  0  0  0  0
    2.2220   -0.5709  -27.9283 O   0  0  0  0  0  1  0  0  0  0  0  0
  1  2  1  0
  2  3  1  0
  3  4  2  0
  4  5  1  0
  5  6  1  0
  5  7  2  0
  7  8  1  0
  8  9  2  0
  8 10  1  0
 10 11  1  0
 11 12  2  0
 13 10  1  6
 13 14  1  0
 14 15  1  0
 15 16  1  0
 16 17  1  0
 17 18  1  1
 16 19  1  1
 15 20  1  6
 20 21  1  0
 21 22  1  0
 22 23  2  0
 22 24  1  0
 24 25  1  0
 25 26  2  0
 25 27  1  0
 25 28  1  0
 22 29  1  6
  9  3  1  0
 17 13  1  0
 12  7  1  0
M  CHG  3  27  -1  28  -1  29  -1
M  END
$$$$
