
     RDKit          3D

 29 31  0  0  0  0  0  0  0  0999 V2000
   -6.6725    1.8434    4.3436 C   0  0  0  0  0  0  0  0  0  0  0  0
   -4.9078    1.6352    4.7550 S   0  0  0  0  0  0  0  0  0  0  0  0
   -4.8085    1.4841    6.5395 C   0  0  0  0  0  0  0  0  0  0  0  0
   -5.9220    1.2219    7.2736 N   0  0  0  0  0  0  0  0  0  0  0  0
   -5.8641    1.1048    8.6133 C   0  0  0  0  0  0  0  0  0  0  0  0
   -7.0389    0.8311    9.3595 N   0  0  0  0  0  0  0  0  0  0  0  0
   -4.6212    1.2649    9.1909 C   0  0  0  0  0  0  0  0  0  0  0  0
   -3.4678    1.5343    8.4524 C   0  0  0  0  0  0  0  0  0  0  0  0
   -3.6088    1.6357    7.1270 N   0  0  0  0  0  0  0  0  0  0  0  0
   -2.4197    1.6360    9.2882 N   0  0  0  0  0  0  0  0  0  0  0  0
   -2.8966    1.4366   10.5209 C   0  0  0  0  0  0  0  0  0  0  0  0
   -4.2399    1.2095   10.4674 N   0  0  0  0  0  0  0  0  0  0  0  0
   -1.0672    1.9032    8.9390 C   0  0  2  0  0  0  0  0  0  0  0  0
   -0.1407    1.2671    9.7643 O   0  0  0  0  0  0  0  0  0  0  0  0
    1.0574    1.7379    9.2291 C   0  0  1  0  0  0  0  0  0  0  0  0
    0.8661    3.2223    9.0101 C   0  0  2  0  0  0  0  0  0  0  0  0
   -0.6602    3.3502    9.1121 C   0  0  1  0  0  0  0  0  0  0  0  0
   -1.1524    4.1495    8.0831 O   0  0  0  0  0  0  0  0  0  0  0  0
    1.1848    3.5566    7.6864 O   0  0  0  0  0  0  0  0  0  0  0  0
    2.2148    1.5490   10.1785 C   0  0  0  0  0  0  0  0  0  0  0  0
    1.7917    1.6342   11.5134 O   0  0  0  0  0  0  0  0  0  0  0  0
    3.0637    1.6018   12.5890 P   0  0  1  0  0  5  0  0  0  0  0  0
    3.9365    2.8406   12.4528 O   0  0  0  0  0  0  0  0  0  0  0  0
    2.5629    1.5243   14.1956 O   0  0  0  0  0  0  0  0  0  0  0  0
    0.9394    1.1268   14.3525 P   0  0  0  0  0  5  0  0  0  0  0  0
    0.4135    1.3188   15.7465 O   0  0  0  0  0  0  0  0  0  0  0  0
    0.7213   -0.4815   13.8762 O   0  0  0  0  0  1  0  0  0  0  0  0
    0.0498    2.1259   13.2892 O   0  0  0  0  0  1  0  0  0  0  0  0
    4.0934    0.2727   12.2863 O   0  0  0  0  0  1  0  0  0  0  0  0
  1  2  1  0
  2  3  1  0
  3  4  2  0
  4  5  1  0
  5  6  1  0
  5  7  2  0
  7  8  1  0
  8  9  2  0
  8 10  1  0
 10 11  1  0
 11 12  2  0
 13 10  1  1
 13 14  1  0
 14 15  1  0
 15 16  1  0
 16 17  1  0
 17 18  1  6
 16 19  1  6
 15 20  1  1
 20 21  1  0
 21 22  1  0
 22 23  2  0
 22 24  1  0
 24 25  1  0
 25 26  2  0
 25 27  1  0
 25 28  1  0
 22 29  1  6
  9  3  1  0
 17 13  1  0
 12  7  1  0
M  CHG  3  27  -1  28  -1  29  -1
M  END
$$$$
