
     RDKit          3D

 29 31  0  0  0  0  0  0  0  0999 V2000
   -5.7521    7.3508    6.4112 C   0  0  0  0  0  0  0  0  0  0  0  0
   -4.4185    6.1150    6.5560 S   0  0  0  0  0  0  0  0  0  0  0  0
   -4.3914    5.5836    8.2689 C   0  0  0  0  0  0  0  0  0  0  0  0
   -5.2504    6.1236    9.1735 N   0  0  0  0  0  0  0  0  0  0  0  0
   -5.2432    5.7351   10.4622 C   0  0  0  0  0  0  0  0  0  0  0  0
   -6.1485    6.3124   11.3890 N   0  0  0  0  0  0  0  0  0  0  0  0
   -4.3223    4.7671   10.8070 C   0  0  0  0  0  0  0  0  0  0  0  0
   -3.4331    4.2020    9.8913 C   0  0  0  0  0  0  0  0  0  0  0  0
   -3.5033    4.6414    8.6308 N   0  0  0  0  0  0  0  0  0  0  0  0
   -2.6662    3.2944   10.5201 N   0  0  0  0  0  0  0  0  0  0  0  0
   -3.0590    3.2855   11.7977 C   0  0  0  0  0  0  0  0  0  0  0  0
   -4.0697    4.1826   11.9785 N   0  0  0  0  0  0  0  0  0  0  0  0
   -1.6373    2.4969    9.9474 C   0  0  2  0  0  0  0  0  0  0  0  0
   -1.7975    1.1305   10.1745 O   0  0  0  0  0  0  0  0  0  0  0  0
   -0.6536    0.6242    9.5593 C   0  0  1  0  0  0  0  0  0  0  0  0
    0.4882    1.5157    9.9944 C   0  0  2  0  0  0  0  0  0  0  0  0
   -0.2692    2.7298   10.5502 C   0  0  1  0  0  0  0  0  0  0  0  0
    0.3014    3.9136   10.0886 O   0  0  0  0  0  0  0  0  0  0  0  0
    1.1835    1.9867    8.8719 O   0  0  0  0  0  0  0  0  0  0  0  0
   -0.3461   -0.7839   10.0061 C   0  0  0  0  0  0  0  0  0  0  0  0
   -0.8619   -1.0308   11.2871 O   0  0  0  0  0  0  0  0  0  0  0  0
   -0.2020   -2.3899   11.9894 P   0  0  1  0  0  5  0  0  0  0  0  0
    0.6647   -3.1584   11.0029 O   0  0  0  0  0  0  0  0  0  0  0  0
    0.7632   -2.0362   13.3241 O   0  0  0  0  0  0  0  0  0  0  0  0
    2.4039   -2.1663   12.9932 P   0  0  0  0  0  5  0  0  0  0  0  0
    3.2705   -1.4791   14.0097 O   0  0  0  0  0  0  0  0  0  0  0  0
    2.7051   -1.5239   11.4578 O   0  0  0  0  0  1  0  0  0  0  0  0
    2.8032   -3.8278   12.9667 O   0  0  0  0  0  1  0  0  0  0  0  0
   -1.4197   -3.4806   12.4855 O   0  0  0  0  0  1  0  0  0  0  0  0
  1  2  1  0
  2  3  1  0
  3  4  2  0
  4  5  1  0
  5  6  1  0
  5  7  2  0
  7  8  1  0
  8  9  2  0
  8 10  1  0
 10 11  1  0
 11 12  2  0
 13 10  1  1
 13 14  1  0
 14 15  1  0
 15 16  1  0
 16 17  1  0
 17 18  1  6
 16 19  1  6
 15 20  1  1
 20 21  1  0
 21 22  1  0
 22 23  2  0
 22 24  1  0
 24 25  1  0
 25 26  2  0
 25 27  1  0
 25 28  1  0
 22 29  1  1
  9  3  1  0
 17 13  1  0
 12  7  1  0
M  CHG  3  27  -1  28  -1  29  -1
M  END
$$$$
