
     RDKit          3D

 29 31  0  0  0  0  0  0  0  0999 V2000
   -5.6311   -1.1732    4.1869 C   0  0  0  0  0  0  0  0  0  0  0  0
   -4.9175   -1.0867    5.8632 S   0  0  0  0  0  0  0  0  0  0  0  0
   -4.6667    0.6513    6.2281 C   0  0  0  0  0  0  0  0  0  0  0  0
   -5.1770    1.6096    5.4102 N   0  0  0  0  0  0  0  0  0  0  0  0
   -4.9983    2.9181    5.6705 C   0  0  0  0  0  0  0  0  0  0  0  0
   -5.5397    3.9011    4.8031 N   0  0  0  0  0  0  0  0  0  0  0  0
   -4.2743    3.2257    6.8042 C   0  0  0  0  0  0  0  0  0  0  0  0
   -3.7432    2.2547    7.6549 C   0  0  0  0  0  0  0  0  0  0  0  0
   -3.9645    0.9778    7.3271 N   0  0  0  0  0  0  0  0  0  0  0  0
   -3.0943    2.8580    8.6660 N   0  0  0  0  0  0  0  0  0  0  0  0
   -3.2114    4.1736    8.4608 C   0  0  0  0  0  0  0  0  0  0  0  0
   -3.9308    4.4038    7.3257 N   0  0  0  0  0  0  0  0  0  0  0  0
   -2.4143    2.2288    9.7450 C   0  0  2  0  0  0  0  0  0  0  0  0
   -1.3690    2.9900   10.2667 O   0  0  0  0  0  0  0  0  0  0  0  0
   -0.8751    2.1267   11.2436 C   0  0  1  0  0  0  0  0  0  0  0  0
   -0.8043    0.7595   10.6004 C   0  0  2  0  0  0  0  0  0  0  0  0
   -1.6820    0.9627    9.3576 C   0  0  1  0  0  0  0  0  0  0  0  0
   -2.5571   -0.1092    9.1981 O   0  0  0  0  0  0  0  0  0  0  0  0
   -1.4824   -0.1783   11.3917 O   0  0  0  0  0  0  0  0  0  0  0  0
    0.5155    2.5092   11.6870 C   0  0  0  0  0  0  0  0  0  0  0  0
    1.4087    2.5070   10.6052 O   0  0  0  0  0  0  0  0  0  0  0  0
    2.9898    2.7254   11.0830 P   0  0  1  0  0  5  0  0  0  0  0  0
    3.1729    4.0533   11.8028 O   0  0  0  0  0  0  0  0  0  0  0  0
    3.5331    1.5189   12.1256 O   0  0  0  0  0  0  0  0  0  0  0  0
    4.6981    0.5320   11.4277 P   0  0  0  0  0  5  0  0  0  0  0  0
    5.9181    0.3558   12.2863 O   0  0  0  0  0  0  0  0  0  0  0  0
    5.1420    1.1834    9.9312 O   0  0  0  0  0  1  0  0  0  0  0  0
    3.9929   -1.0009   11.1570 O   0  0  0  0  0  1  0  0  0  0  0  0
    4.0391    2.7789    9.7360 O   0  0  0  0  0  1  0  0  0  0  0  0
  1  2  1  0
  2  3  1  0
  3  4  2  0
  4  5  1  0
  5  6  1  0
  5  7  2  0
  7  8  1  0
  8  9  2  0
  8 10  1  0
 10 11  1  0
 11 12  2  0
 13 10  1  6
 13 14  1  0
 14 15  1  0
 15 16  1  0
 16 17  1  0
 17 18  1  1
 16 19  1  1
 15 20  1  6
 20 21  1  0
 21 22  1  0
 22 23  2  0
 22 24  1  0
 24 25  1  0
 25 26  2  0
 25 27  1  0
 25 28  1  0
 22 29  1  6
  9  3  1  0
 17 13  1  0
 12  7  1  0
M  CHG  3  27  -1  28  -1  29  -1
M  END
$$$$
