
     RDKit          3D

 29 31  0  0  0  0  0  0  0  0999 V2000
   -6.7262    4.8151    6.4305 C   0  0  0  0  0  0  0  0  0  0  0  0
   -5.1018    3.9869    6.3848 S   0  0  0  0  0  0  0  0  0  0  0  0
   -4.8189    3.3152    8.0236 C   0  0  0  0  0  0  0  0  0  0  0  0
   -5.7821    3.3965    8.9793 N   0  0  0  0  0  0  0  0  0  0  0  0
   -5.5856    2.8967   10.2136 C   0  0  0  0  0  0  0  0  0  0  0  0
   -6.6047    2.9929   11.1954 N   0  0  0  0  0  0  0  0  0  0  0  0
   -4.3621    2.3037   10.4488 C   0  0  0  0  0  0  0  0  0  0  0  0
   -3.3621    2.2116    9.4793 C   0  0  0  0  0  0  0  0  0  0  0  0
   -3.6348    2.7320    8.2786 N   0  0  0  0  0  0  0  0  0  0  0  0
   -2.2934    1.5859   10.0026 N   0  0  0  0  0  0  0  0  0  0  0  0
   -2.6084    1.2905   11.2676 C   0  0  0  0  0  0  0  0  0  0  0  0
   -3.8701    1.7263   11.5453 N   0  0  0  0  0  0  0  0  0  0  0  0
   -1.0658    1.2923    9.3473 C   0  0  2  0  0  0  0  0  0  0  0  0
   -0.1880    0.5322   10.1194 O   0  0  0  0  0  0  0  0  0  0  0  0
    0.9097    0.4462    9.2643 C   0  0  1  0  0  0  0  0  0  0  0  0
    1.1199    1.8369    8.7079 C   0  0  2  0  0  0  0  0  0  0  0  0
   -0.2145    2.5095    9.0592 C   0  0  1  0  0  0  0  0  0  0  0  0
   -0.6990    3.2299    7.9700 O   0  0  0  0  0  0  0  0  0  0  0  0
    1.1620    1.7916    7.3073 O   0  0  0  0  0  0  0  0  0  0  0  0
    2.1657    0.0380    9.9943 C   0  0  0  0  0  0  0  0  0  0  0  0
    1.9861    0.1051   11.3840 O   0  0  0  0  0  0  0  0  0  0  0  0
    3.1997    0.9571   12.1436 P   0  0  1  0  0  5  0  0  0  0  0  0
    2.7424    2.3594   12.5171 O   0  0  0  0  0  0  0  0  0  0  0  0
    3.7333    0.2176   13.5601 O   0  0  0  0  0  0  0  0  0  0  0  0
    4.1273    1.3217   14.7618 P   0  0  0  0  0  5  0  0  0  0  0  0
    2.9307    1.8362   15.5103 O   0  0  0  0  0  0  0  0  0  0  0  0
    4.9638    2.6154   14.0635 O   0  0  0  0  0  1  0  0  0  0  0  0
    5.1716    0.5427   15.8676 O   0  0  0  0  0  1  0  0  0  0  0  0
    4.5448    1.1668   11.1117 O   0  0  0  0  0  1  0  0  0  0  0  0
  1  2  1  0
  2  3  1  0
  3  4  2  0
  4  5  1  0
  5  6  1  0
  5  7  2  0
  7  8  1  0
  8  9  2  0
  8 10  1  0
 10 11  1  0
 11 12  2  0
 13 10  1  1
 13 14  1  0
 14 15  1  0
 15 16  1  0
 16 17  1  0
 17 18  1  6
 16 19  1  6
 15 20  1  1
 20 21  1  0
 21 22  1  0
 22 23  2  0
 22 24  1  0
 24 25  1  0
 25 26  2  0
 25 27  1  0
 25 28  1  0
 22 29  1  6
  9  3  1  0
 17 13  1  0
 12  7  1  0
M  CHG  3  27  -1  28  -1  29  -1
M  END
$$$$
