
     RDKit          3D

 29 31  0  0  0  0  0  0  0  0999 V2000
   -0.1634    5.7306  -34.0249 C   0  0  0  0  0  0  0  0  0  0  0  0
    1.4439    6.5649  -34.2424 S   0  0  0  0  0  0  0  0  0  0  0  0
    2.4260    6.1788  -32.7921 C   0  0  0  0  0  0  0  0  0  0  0  0
    3.6483    6.7463  -32.6143 N   0  0  0  0  0  0  0  0  0  0  0  0
    4.3972    6.4676  -31.5312 C   0  0  0  0  0  0  0  0  0  0  0  0
    5.6701    7.0713  -31.3662 N   0  0  0  0  0  0  0  0  0  0  0  0
    3.8568    5.5814  -30.6220 C   0  0  0  0  0  0  0  0  0  0  0  0
    2.6036    4.9896  -30.7887 C   0  0  0  0  0  0  0  0  0  0  0  0
    1.9221    5.3180  -31.8908 N   0  0  0  0  0  0  0  0  0  0  0  0
    2.3536    4.1793  -29.7455 N   0  0  0  0  0  0  0  0  0  0  0  0
    3.4185    4.2563  -28.9414 C   0  0  0  0  0  0  0  0  0  0  0  0
    4.3392    5.1108  -29.4715 N   0  0  0  0  0  0  0  0  0  0  0  0
    1.1889    3.3916  -29.5315 C   0  0  2  0  0  0  0  0  0  0  0  0
    1.0368    2.9657  -28.2125 O   0  0  0  0  0  0  0  0  0  0  0  0
   -0.1245    2.2011  -28.3137 C   0  0  1  0  0  0  0  0  0  0  0  0
    0.0364    1.3536  -29.5561 C   0  0  2  0  0  0  0  0  0  0  0  0
    1.1982    2.0666  -30.2619 C   0  0  1  0  0  0  0  0  0  0  0  0
    0.9216    2.2248  -31.6178 O   0  0  0  0  0  0  0  0  0  0  0  0
   -1.0736    1.5189  -30.3963 O   0  0  0  0  0  0  0  0  0  0  0  0
   -0.2984    1.2764  -27.1341 C   0  0  0  0  0  0  0  0  0  0  0  0
    0.8404    1.2836  -26.3150 O   0  0  0  0  0  0  0  0  0  0  0  0
    1.1960   -0.2250  -25.7037 P   0  0  1  0  0  5  0  0  0  0  0  0
    0.2211   -1.2746  -26.2162 O   0  0  0  0  0  0  0  0  0  0  0  0
    2.7448   -0.7491  -26.1093 O   0  0  0  0  0  0  0  0  0  0  0  0
    3.7528    0.5063  -26.5850 P   0  0  0  0  0  5  0  0  0  0  0  0
    3.0537    1.8340  -26.6565 O   0  0  0  0  0  0  0  0  0  0  0  0
    4.4207    0.1304  -28.0929 O   0  0  0  0  0  1  0  0  0  0  0  0
    5.0241    0.6173  -25.4485 O   0  0  0  0  0  1  0  0  0  0  0  0
    1.0529   -0.2500  -24.0016 O   0  0  0  0  0  1  0  0  0  0  0  0
  1  2  1  0
  2  3  1  0
  3  4  2  0
  4  5  1  0
  5  6  1  0
  5  7  2  0
  7  8  1  0
  8  9  2  0
  8 10  1  0
 10 11  1  0
 11 12  2  0
 13 10  1  1
 13 14  1  0
 14 15  1  0
 15 16  1  0
 16 17  1  0
 17 18  1  6
 16 19  1  6
 15 20  1  1
 20 21  1  0
 21 22  1  0
 22 23  2  0
 22 24  1  0
 24 25  1  0
 25 26  2  0
 25 27  1  0
 25 28  1  0
 22 29  1  1
  9  3  1  0
 17 13  1  0
 12  7  1  0
M  CHG  3  27  -1  28  -1  29  -1
M  END
$$$$
