
     RDKit          3D

 29 31  0  0  0  0  0  0  0  0999 V2000
   -6.7753    4.1954    5.7271 C   0  0  0  0  0  0  0  0  0  0  0  0
   -5.0048    4.0148    6.1264 S   0  0  0  0  0  0  0  0  0  0  0  0
   -4.9155    3.1574    7.6993 C   0  0  0  0  0  0  0  0  0  0  0  0
   -6.0004    3.0974    8.5160 N   0  0  0  0  0  0  0  0  0  0  0  0
   -5.9499    2.4573    9.6990 C   0  0  0  0  0  0  0  0  0  0  0  0
   -7.0943    2.4075   10.5355 N   0  0  0  0  0  0  0  0  0  0  0  0
   -4.7449    1.8721   10.0300 C   0  0  0  0  0  0  0  0  0  0  0  0
   -3.6212    1.9240    9.2035 C   0  0  0  0  0  0  0  0  0  0  0  0
   -3.7525    2.5785    8.0454 N   0  0  0  0  0  0  0  0  0  0  0  0
   -2.6067    1.2676    9.7928 N   0  0  0  0  0  0  0  0  0  0  0  0
   -3.0752    0.8132   10.9593 C   0  0  0  0  0  0  0  0  0  0  0  0
   -4.3800    1.1793   11.1093 N   0  0  0  0  0  0  0  0  0  0  0  0
   -1.2911    1.0874    9.2834 C   0  0  2  0  0  0  0  0  0  0  0  0
   -0.3200    0.9605   10.2758 O   0  0  0  0  0  0  0  0  0  0  0  0
    0.8350    0.8492    9.5031 C   0  0  1  0  0  0  0  0  0  0  0  0
    0.7283    1.9110    8.4311 C   0  0  2  0  0  0  0  0  0  0  0  0
   -0.7604    2.2763    8.5126 C   0  0  1  0  0  0  0  0  0  0  0  0
   -1.3146    2.3512    7.2369 O   0  0  0  0  0  0  0  0  0  0  0  0
    0.9063    1.3344    7.1657 O   0  0  0  0  0  0  0  0  0  0  0  0
    2.0829    1.1182   10.3075 C   0  0  0  0  0  0  0  0  0  0  0  0
    1.9855    2.3354   10.9981 O   0  0  0  0  0  0  0  0  0  0  0  0
    3.0109    2.4087   12.3093 P   0  0  1  0  0  5  0  0  0  0  0  0
    2.6599    1.3530   13.3471 O   0  0  0  0  0  0  0  0  0  0  0  0
    4.6264    2.1747   11.8930 O   0  0  0  0  0  0  0  0  0  0  0  0
    5.2150    0.6811   12.3840 P   0  0  0  0  0  5  0  0  0  0  0  0
    4.1492   -0.2268   12.9286 O   0  0  0  0  0  0  0  0  0  0  0  0
    6.4124    0.9225   13.5540 O   0  0  0  0  0  1  0  0  0  0  0  0
    5.9342   -0.0704   11.0281 O   0  0  0  0  0  1  0  0  0  0  0  0
    2.8789    3.9109   13.1120 O   0  0  0  0  0  1  0  0  0  0  0  0
  1  2  1  0
  2  3  1  0
  3  4  2  0
  4  5  1  0
  5  6  1  0
  5  7  2  0
  7  8  1  0
  8  9  2  0
  8 10  1  0
 10 11  1  0
 11 12  2  0
 13 10  1  1
 13 14  1  0
 14 15  1  0
 15 16  1  0
 16 17  1  0
 17 18  1  6
 16 19  1  6
 15 20  1  1
 20 21  1  0
 21 22  1  0
 22 23  2  0
 22 24  1  0
 24 25  1  0
 25 26  2  0
 25 27  1  0
 25 28  1  0
 22 29  1  1
  9  3  1  0
 17 13  1  0
 12  7  1  0
M  CHG  3  27  -1  28  -1  29  -1
M  END
$$$$
