
     RDKit          3D

 29 31  0  0  0  0  0  0  0  0999 V2000
   -2.1279   -5.0626  -23.2557 C   0  0  0  0  0  0  0  0  0  0  0  0
   -0.8456   -3.8460  -23.7053 S   0  0  0  0  0  0  0  0  0  0  0  0
   -1.3086   -3.1749  -25.3029 C   0  0  0  0  0  0  0  0  0  0  0  0
   -2.3337   -3.7194  -26.0102 N   0  0  0  0  0  0  0  0  0  0  0  0
   -2.6939   -3.2270  -27.2100 C   0  0  0  0  0  0  0  0  0  0  0  0
   -3.7668   -3.8112  -27.9308 N   0  0  0  0  0  0  0  0  0  0  0  0
   -1.9689   -2.1488  -27.6744 C   0  0  0  0  0  0  0  0  0  0  0  0
   -0.9136   -1.5773  -26.9615 C   0  0  0  0  0  0  0  0  0  0  0  0
   -0.6178   -2.1240  -25.7781 N   0  0  0  0  0  0  0  0  0  0  0  0
   -0.4071   -0.5506  -27.6662 N   0  0  0  0  0  0  0  0  0  0  0  0
   -1.1217   -0.4745  -28.7932 C   0  0  0  0  0  0  0  0  0  0  0  0
   -2.0765   -1.4477  -28.8035 N   0  0  0  0  0  0  0  0  0  0  0  0
    0.6755    0.2934  -27.2941 C   0  0  2  0  0  0  0  0  0  0  0  0
    0.6833    1.5186  -27.9596 O   0  0  0  0  0  0  0  0  0  0  0  0
    1.8448    2.0921  -27.4444 C   0  0  1  0  0  0  0  0  0  0  0  0
    2.8984    1.0071  -27.4727 C   0  0  2  0  0  0  0  0  0  0  0  0
    2.0370   -0.2476  -27.6723 C   0  0  1  0  0  0  0  0  0  0  0  0
    2.4453   -1.2618  -26.8093 O   0  0  0  0  0  0  0  0  0  0  0  0
    3.4781    0.8685  -26.2038 O   0  0  0  0  0  0  0  0  0  0  0  0
    2.3325    3.2420  -28.2909 C   0  0  0  0  0  0  0  0  0  0  0  0
    3.0143    2.7792  -29.4262 O   0  0  0  0  0  0  0  0  0  0  0  0
    2.0388    2.7184  -30.7755 P   0  0  1  0  0  5  0  0  0  0  0  0
    0.6306    2.2639  -30.4214 O   0  0  0  0  0  0  0  0  0  0  0  0
    1.8972    4.2074  -31.5507 O   0  0  0  0  0  0  0  0  0  0  0  0
    0.9008    5.2779  -30.7264 P   0  0  0  0  0  5  0  0  0  0  0  0
    1.2675    6.7181  -30.9451 O   0  0  0  0  0  0  0  0  0  0  0  0
    0.9586    4.9181  -29.0747 O   0  0  0  0  0  1  0  0  0  0  0  0
   -0.6996    5.0312  -31.2729 O   0  0  0  0  0  1  0  0  0  0  0  0
    2.6230    1.5806  -31.9080 O   0  0  0  0  0  1  0  0  0  0  0  0
  1  2  1  0
  2  3  1  0
  3  4  2  0
  4  5  1  0
  5  6  1  0
  5  7  2  0
  7  8  1  0
  8  9  2  0
  8 10  1  0
 10 11  1  0
 11 12  2  0
 13 10  1  6
 13 14  1  0
 14 15  1  0
 15 16  1  0
 16 17  1  0
 17 18  1  1
 16 19  1  1
 15 20  1  6
 20 21  1  0
 21 22  1  0
 22 23  2  0
 22 24  1  0
 24 25  1  0
 25 26  2  0
 25 27  1  0
 25 28  1  0
 22 29  1  6
  9  3  1  0
 17 13  1  0
 12  7  1  0
M  CHG  3  27  -1  28  -1  29  -1
M  END
$$$$
