
     RDKit          3D

 29 31  0  0  0  0  0  0  0  0999 V2000
   -1.8523    6.3736    7.8100 C   0  0  0  0  0  0  0  0  0  0  0  0
   -3.3751    6.8163    8.7109 S   0  0  0  0  0  0  0  0  0  0  0  0
   -3.9482    5.3222    9.5210 C   0  0  0  0  0  0  0  0  0  0  0  0
   -4.9156    5.3806   10.4740 N   0  0  0  0  0  0  0  0  0  0  0  0
   -5.3570    4.2686   11.0907 C   0  0  0  0  0  0  0  0  0  0  0  0
   -6.3674    4.3531   12.0826 N   0  0  0  0  0  0  0  0  0  0  0  0
   -4.7757    3.0789   10.7025 C   0  0  0  0  0  0  0  0  0  0  0  0
   -3.7814    3.0007    9.7259 C   0  0  0  0  0  0  0  0  0  0  0  0
   -3.3978    4.1498    9.1608 N   0  0  0  0  0  0  0  0  0  0  0  0
   -3.4158    1.7168    9.5672 N   0  0  0  0  0  0  0  0  0  0  0  0
   -4.1578    1.0027   10.4193 C   0  0  0  0  0  0  0  0  0  0  0  0
   -4.9897    1.8291   11.1149 N   0  0  0  0  0  0  0  0  0  0  0  0
   -2.4340    1.2092    8.6720 C   0  0  2  0  0  0  0  0  0  0  0  0
   -1.7400    0.1072    9.1701 O   0  0  0  0  0  0  0  0  0  0  0  0
   -0.8429   -0.1325    8.1303 C   0  0  1  0  0  0  0  0  0  0  0  0
   -0.2895    1.2177    7.7320 C   0  0  2  0  0  0  0  0  0  0  0  0
   -1.2948    2.1668    8.3992 C   0  0  1  0  0  0  0  0  0  0  0  0
   -1.6717    3.1764    7.5168 O   0  0  0  0  0  0  0  0  0  0  0  0
   -0.4459    1.4121    6.3525 O   0  0  0  0  0  0  0  0  0  0  0  0
    0.3105   -1.0023    8.5663 C   0  0  0  0  0  0  0  0  0  0  0  0
    0.0868   -1.5330    9.8455 O   0  0  0  0  0  0  0  0  0  0  0  0
    1.4396   -1.4529   10.8148 P   0  0  1  0  0  5  0  0  0  0  0  0
    2.5119   -2.4278   10.3516 O   0  0  0  0  0  0  0  0  0  0  0  0
    2.1407    0.0787   10.8378 O   0  0  0  0  0  0  0  0  0  0  0  0
    2.3121    0.6925   12.3910 P   0  0  0  0  0  5  0  0  0  0  0  0
    3.0477   -0.2337   13.3172 O   0  0  0  0  0  0  0  0  0  0  0  0
    0.7779    1.0285   13.0190 O   0  0  0  0  0  1  0  0  0  0  0  0
    3.1798    2.1606   12.2818 O   0  0  0  0  0  1  0  0  0  0  0  0
    1.0726   -1.8960   12.4233 O   0  0  0  0  0  1  0  0  0  0  0  0
  1  2  1  0
  2  3  1  0
  3  4  2  0
  4  5  1  0
  5  6  1  0
  5  7  2  0
  7  8  1  0
  8  9  2  0
  8 10  1  0
 10 11  1  0
 11 12  2  0
 13 10  1  1
 13 14  1  0
 14 15  1  0
 15 16  1  0
 16 17  1  0
 17 18  1  6
 16 19  1  6
 15 20  1  1
 20 21  1  0
 21 22  1  0
 22 23  2  0
 22 24  1  0
 24 25  1  0
 25 26  2  0
 25 27  1  0
 25 28  1  0
 22 29  1  1
  9  3  1  0
 17 13  1  0
 12  7  1  0
M  CHG  3  27  -1  28  -1  29  -1
M  END
$$$$
