
     RDKit          3D

 29 31  0  0  0  0  0  0  0  0999 V2000
  -17.6385   -3.6487  -17.0654 C   0  0  0  0  0  0  0  0  0  0  0  0
  -17.7491   -5.2056  -18.0091 S   0  0  0  0  0  0  0  0  0  0  0  0
  -16.8268   -4.9555  -19.5269 C   0  0  0  0  0  0  0  0  0  0  0  0
  -16.5811   -5.9966  -20.3656 N   0  0  0  0  0  0  0  0  0  0  0  0
  -15.8913   -5.8253  -21.5086 C   0  0  0  0  0  0  0  0  0  0  0  0
  -15.6464   -6.9262  -22.3689 N   0  0  0  0  0  0  0  0  0  0  0  0
  -15.4529   -4.5445  -21.7756 C   0  0  0  0  0  0  0  0  0  0  0  0
  -15.6961   -3.4642  -20.9258 C   0  0  0  0  0  0  0  0  0  0  0  0
  -16.3883   -3.7167  -19.8105 N   0  0  0  0  0  0  0  0  0  0  0  0
  -15.1487   -2.3545  -21.4514 N   0  0  0  0  0  0  0  0  0  0  0  0
  -14.5752   -2.7223  -22.6014 C   0  0  0  0  0  0  0  0  0  0  0  0
  -14.7578   -4.0581  -22.8044 N   0  0  0  0  0  0  0  0  0  0  0  0
  -15.1702   -1.0438  -20.8998 C   0  0  2  0  0  0  0  0  0  0  0  0
  -14.6136   -0.0765  -21.7356 O   0  0  0  0  0  0  0  0  0  0  0  0
  -14.7265    1.0602  -20.9365 C   0  0  1  0  0  0  0  0  0  0  0  0
  -14.2739    0.6489  -19.5530 C   0  0  2  0  0  0  0  0  0  0  0  0
  -14.3141   -0.8816  -19.6628 C   0  0  1  0  0  0  0  0  0  0  0  0
  -14.9235   -1.4352  -18.5393 O   0  0  0  0  0  0  0  0  0  0  0  0
  -15.2536    0.9850  -18.6083 O   0  0  0  0  0  0  0  0  0  0  0  0
  -13.8300    2.1775  -21.4107 C   0  0  0  0  0  0  0  0  0  0  0  0
  -12.5523    1.6967  -21.7336 O   0  0  0  0  0  0  0  0  0  0  0  0
  -12.1408    1.9946  -23.3204 P   0  0  1  0  0  5  0  0  0  0  0  0
  -12.7067    3.3232  -23.7996 O   0  0  0  0  0  0  0  0  0  0  0  0
  -10.4753    2.0488  -23.5675 O   0  0  0  0  0  0  0  0  0  0  0  0
  -10.0242    1.4898  -25.0849 P   0  0  0  0  0  5  0  0  0  0  0  0
  -11.0049    1.8482  -26.1649 O   0  0  0  0  0  0  0  0  0  0  0  0
   -9.8387   -0.1901  -25.0162 O   0  0  0  0  0  1  0  0  0  0  0  0
   -8.5093    2.1809  -25.4692 O   0  0  0  0  0  1  0  0  0  0  0  0
  -12.7963    0.8085  -24.3605 O   0  0  0  0  0  1  0  0  0  0  0  0
  1  2  1  0
  2  3  1  0
  3  4  2  0
  4  5  1  0
  5  6  1  0
  5  7  2  0
  7  8  1  0
  8  9  2  0
  8 10  1  0
 10 11  1  0
 11 12  2  0
 13 10  1  6
 13 14  1  0
 14 15  1  0
 15 16  1  0
 16 17  1  0
 17 18  1  1
 16 19  1  1
 15 20  1  6
 20 21  1  0
 21 22  1  0
 22 23  2  0
 22 24  1  0
 24 25  1  0
 25 26  2  0
 25 27  1  0
 25 28  1  0
 22 29  1  6
  9  3  1  0
 17 13  1  0
 12  7  1  0
M  CHG  3  27  -1  28  -1  29  -1
M  END
$$$$
