
     RDKit          3D

 29 31  0  0  0  0  0  0  0  0999 V2000
   -5.6868    6.5364    7.5526 C   0  0  0  0  0  0  0  0  0  0  0  0
   -4.0304    5.7903    7.7158 S   0  0  0  0  0  0  0  0  0  0  0  0
   -4.2516    4.2220    8.5574 C   0  0  0  0  0  0  0  0  0  0  0  0
   -5.3633    3.9895    9.3043 N   0  0  0  0  0  0  0  0  0  0  0  0
   -5.5445    2.8177    9.9414 C   0  0  0  0  0  0  0  0  0  0  0  0
   -6.7123    2.5970   10.7157 N   0  0  0  0  0  0  0  0  0  0  0  0
   -4.5462    1.8768    9.7930 C   0  0  0  0  0  0  0  0  0  0  0  0
   -3.3985    2.0988    9.0301 C   0  0  0  0  0  0  0  0  0  0  0  0
   -3.2932    3.2880    8.4289 N   0  0  0  0  0  0  0  0  0  0  0  0
   -2.6173    1.0056    9.0760 N   0  0  0  0  0  0  0  0  0  0  0  0
   -3.2527    0.1171    9.8463 C   0  0  0  0  0  0  0  0  0  0  0  0
   -4.4307    0.6436   10.2868 N   0  0  0  0  0  0  0  0  0  0  0  0
   -1.3611    0.8220    8.4350 C   0  0  2  0  0  0  0  0  0  0  0  0
   -0.4536    0.0768    9.1870 O   0  0  0  0  0  0  0  0  0  0  0  0
    0.6641    0.1027    8.3542 C   0  0  1  0  0  0  0  0  0  0  0  0
    0.7990    1.5310    7.8749 C   0  0  2  0  0  0  0  0  0  0  0  0
   -0.5810    2.1020    8.2295 C   0  0  1  0  0  0  0  0  0  0  0  0
   -1.0874    2.8481    7.1679 O   0  0  0  0  0  0  0  0  0  0  0  0
    0.8717    1.5622    6.4752 O   0  0  0  0  0  0  0  0  0  0  0  0
    1.9281   -0.2665    9.0909 C   0  0  0  0  0  0  0  0  0  0  0  0
    2.1325    0.5743   10.1952 O   0  0  0  0  0  0  0  0  0  0  0  0
    3.0429   -0.1494   11.3882 P   0  0  1  0  0  5  0  0  0  0  0  0
    4.3215    0.6295   11.6592 O   0  0  0  0  0  0  0  0  0  0  0  0
    2.2221   -0.2773   12.8537 O   0  0  0  0  0  0  0  0  0  0  0  0
    2.7356    0.8495   13.9874 P   0  0  0  0  0  5  0  0  0  0  0  0
    2.0846    0.6789   15.3305 O   0  0  0  0  0  0  0  0  0  0  0  0
    2.4243    2.4029   13.3949 O   0  0  0  0  0  1  0  0  0  0  0  0
    4.4255    0.6749   14.1719 O   0  0  0  0  0  1  0  0  0  0  0  0
    3.5430   -1.7139   10.9185 O   0  0  0  0  0  1  0  0  0  0  0  0
  1  2  1  0
  2  3  1  0
  3  4  2  0
  4  5  1  0
  5  6  1  0
  5  7  2  0
  7  8  1  0
  8  9  2  0
  8 10  1  0
 10 11  1  0
 11 12  2  0
 13 10  1  1
 13 14  1  0
 14 15  1  0
 15 16  1  0
 16 17  1  0
 17 18  1  6
 16 19  1  6
 15 20  1  1
 20 21  1  0
 21 22  1  0
 22 23  2  0
 22 24  1  0
 24 25  1  0
 25 26  2  0
 25 27  1  0
 25 28  1  0
 22 29  1  6
  9  3  1  0
 17 13  1  0
 12  7  1  0
M  CHG  3  27  -1  28  -1  29  -1
M  END
$$$$
