
     RDKit          3D

 29 31  0  0  0  0  0  0  0  0999 V2000
   -5.7133    3.7655    5.2040 C   0  0  0  0  0  0  0  0  0  0  0  0
   -5.5503    2.0595    5.8283 S   0  0  0  0  0  0  0  0  0  0  0  0
   -4.9792    2.1831    7.5240 C   0  0  0  0  0  0  0  0  0  0  0  0
   -5.8576    2.4235    8.5331 N   0  0  0  0  0  0  0  0  0  0  0  0
   -5.4450    2.5183    9.8108 C   0  0  0  0  0  0  0  0  0  0  0  0
   -6.3793    2.7699   10.8480 N   0  0  0  0  0  0  0  0  0  0  0  0
   -4.0926    2.3588   10.0333 C   0  0  0  0  0  0  0  0  0  0  0  0
   -3.1769    2.1115    9.0092 C   0  0  0  0  0  0  0  0  0  0  0  0
   -3.6658    2.0315    7.7677 N   0  0  0  0  0  0  0  0  0  0  0  0
   -1.9436    2.0040    9.5336 N   0  0  0  0  0  0  0  0  0  0  0  0
   -2.0753    2.1785   10.8522 C   0  0  0  0  0  0  0  0  0  0  0  0
   -3.3851    2.3954   11.1629 N   0  0  0  0  0  0  0  0  0  0  0  0
   -0.7322    1.7545    8.8316 C   0  0  2  0  0  0  0  0  0  0  0  0
    0.0447    0.7450    9.3987 O   0  0  0  0  0  0  0  0  0  0  0  0
    1.1529    0.7573    8.5530 C   0  0  1  0  0  0  0  0  0  0  0  0
    1.5136    2.2126    8.3529 C   0  0  2  0  0  0  0  0  0  0  0  0
    0.2417    2.9122    8.8521 C   0  0  1  0  0  0  0  0  0  0  0  0
   -0.1388    3.9201    7.9692 O   0  0  0  0  0  0  0  0  0  0  0  0
    1.5913    2.5034    6.9837 O   0  0  0  0  0  0  0  0  0  0  0  0
    2.3416    0.0593    9.1666 C   0  0  0  0  0  0  0  0  0  0  0  0
    2.1872   -0.0742   10.5546 O   0  0  0  0  0  0  0  0  0  0  0  0
    3.6115    0.1772   11.3818 P   0  0  1  0  0  5  0  0  0  0  0  0
    4.8086   -0.3295   10.5911 O   0  0  0  0  0  0  0  0  0  0  0  0
    3.8954    1.8027   11.7211 O   0  0  0  0  0  0  0  0  0  0  0  0
    3.3534    2.2536   13.2446 P   0  0  0  0  0  5  0  0  0  0  0  0
    2.9434    1.0872   14.0979 O   0  0  0  0  0  0  0  0  0  0  0  0
    2.0511    3.3187   13.0691 O   0  0  0  0  0  1  0  0  0  0  0  0
    4.6241    3.0854   14.0282 O   0  0  0  0  0  1  0  0  0  0  0  0
    3.6291   -0.6865   12.8556 O   0  0  0  0  0  1  0  0  0  0  0  0
  1  2  1  0
  2  3  1  0
  3  4  2  0
  4  5  1  0
  5  6  1  0
  5  7  2  0
  7  8  1  0
  8  9  2  0
  8 10  1  0
 10 11  1  0
 11 12  2  0
 13 10  1  1
 13 14  1  0
 14 15  1  0
 15 16  1  0
 16 17  1  0
 17 18  1  6
 16 19  1  6
 15 20  1  1
 20 21  1  0
 21 22  1  0
 22 23  2  0
 22 24  1  0
 24 25  1  0
 25 26  2  0
 25 27  1  0
 25 28  1  0
 22 29  1  1
  9  3  1  0
 17 13  1  0
 12  7  1  0
M  CHG  3  27  -1  28  -1  29  -1
M  END
$$$$
