
     RDKit          3D

 29 31  0  0  0  0  0  0  0  0999 V2000
  -14.1087    3.9534   -8.7208 C   0  0  0  0  0  0  0  0  0  0  0  0
  -13.1248    2.6493   -7.9095 S   0  0  0  0  0  0  0  0  0  0  0  0
  -12.7008    1.4569   -9.1804 C   0  0  0  0  0  0  0  0  0  0  0  0
  -12.0505    0.3071   -8.8597 N   0  0  0  0  0  0  0  0  0  0  0  0
  -11.7259   -0.5980   -9.8015 C   0  0  0  0  0  0  0  0  0  0  0  0
  -11.0470   -1.7910   -9.4441 N   0  0  0  0  0  0  0  0  0  0  0  0
  -12.0882   -0.2931  -11.0975 C   0  0  0  0  0  0  0  0  0  0  0  0
  -12.7561    0.8824  -11.4445 C   0  0  0  0  0  0  0  0  0  0  0  0
  -13.0427    1.7302  -10.4515 N   0  0  0  0  0  0  0  0  0  0  0  0
  -12.9711    0.8952  -12.7715 N   0  0  0  0  0  0  0  0  0  0  0  0
  -12.4537   -0.2403  -13.2507 C   0  0  0  0  0  0  0  0  0  0  0  0
  -11.9135   -0.9696  -12.2332 N   0  0  0  0  0  0  0  0  0  0  0  0
  -13.6196    1.9119  -13.5254 C   0  0  2  0  0  0  0  0  0  0  0  0
  -14.2909    1.4321  -14.6494 O   0  0  0  0  0  0  0  0  0  0  0  0
  -14.7713    2.6203  -15.1978 C   0  0  1  0  0  0  0  0  0  0  0  0
  -13.6228    3.6032  -15.1447 C   0  0  2  0  0  0  0  0  0  0  0  0
  -12.6732    2.9077  -14.1594 C   0  0  1  0  0  0  0  0  0  0  0  0
  -12.1853    3.8195  -13.2263 O   0  0  0  0  0  0  0  0  0  0  0  0
  -14.0305    4.7829  -14.5064 O   0  0  0  0  0  0  0  0  0  0  0  0
  -15.1800    2.4537  -16.6407 C   0  0  0  0  0  0  0  0  0  0  0  0
  -14.0710    2.1624  -17.4489 O   0  0  0  0  0  0  0  0  0  0  0  0
  -14.4484    1.1321  -18.7027 P   0  0  1  0  0  5  0  0  0  0  0  0
  -15.9539    0.9761  -18.8579 O   0  0  0  0  0  0  0  0  0  0  0  0
  -13.8504    1.6580  -20.1872 O   0  0  0  0  0  0  0  0  0  0  0  0
  -14.9390    1.4301  -21.4448 P   0  0  0  0  0  5  0  0  0  0  0  0
  -15.6337    0.0991  -21.3943 O   0  0  0  0  0  0  0  0  0  0  0  0
  -14.1181    1.5907  -22.9150 O   0  0  0  0  0  1  0  0  0  0  0  0
  -16.1155    2.6659  -21.3502 O   0  0  0  0  0  1  0  0  0  0  0  0
  -13.8463   -0.4399  -18.4116 O   0  0  0  0  0  1  0  0  0  0  0  0
  1  2  1  0
  2  3  1  0
  3  4  2  0
  4  5  1  0
  5  6  1  0
  5  7  2  0
  7  8  1  0
  8  9  2  0
  8 10  1  0
 10 11  1  0
 11 12  2  0
 13 10  1  6
 13 14  1  0
 14 15  1  0
 15 16  1  0
 16 17  1  0
 17 18  1  1
 16 19  1  1
 15 20  1  6
 20 21  1  0
 21 22  1  0
 22 23  2  0
 22 24  1  0
 24 25  1  0
 25 26  2  0
 25 27  1  0
 25 28  1  0
 22 29  1  1
  9  3  1  0
 17 13  1  0
 12  7  1  0
M  CHG  3  27  -1  28  -1  29  -1
M  END
$$$$
