
     RDKit          3D

 29 31  0  0  0  0  0  0  0  0999 V2000
    1.5671    3.9208   14.6603 C   0  0  0  0  0  0  0  0  0  0  0  0
    1.2602    2.8883   13.1883 S   0  0  0  0  0  0  0  0  0  0  0  0
   -0.3635    3.3372   12.5727 C   0  0  0  0  0  0  0  0  0  0  0  0
   -1.2409    4.0091   13.3640 N   0  0  0  0  0  0  0  0  0  0  0  0
   -2.4627    4.3539   12.9167 C   0  0  0  0  0  0  0  0  0  0  0  0
   -3.3624    5.0548   13.7601 N   0  0  0  0  0  0  0  0  0  0  0  0
   -2.7685    3.9889   11.6216 C   0  0  0  0  0  0  0  0  0  0  0  0
   -1.8798    3.2990   10.7954 C   0  0  0  0  0  0  0  0  0  0  0  0
   -0.6862    2.9932   11.3138 N   0  0  0  0  0  0  0  0  0  0  0  0
   -2.4584    3.0875    9.6005 N   0  0  0  0  0  0  0  0  0  0  0  0
   -3.6788    3.6283    9.6687 C   0  0  0  0  0  0  0  0  0  0  0  0
   -3.8735    4.1800   10.9003 N   0  0  0  0  0  0  0  0  0  0  0  0
   -1.8917    2.4206    8.4794 C   0  0  2  0  0  0  0  0  0  0  0  0
   -2.6037    2.6129    7.2961 O   0  0  0  0  0  0  0  0  0  0  0  0
   -1.8647    1.8280    6.4122 C   0  0  1  0  0  0  0  0  0  0  0  0
   -1.5870    0.5283    7.1344 C   0  0  2  0  0  0  0  0  0  0  0  0
   -1.9122    0.9114    8.5849 C   0  0  1  0  0  0  0  0  0  0  0  0
   -0.9232    0.4426    9.4464 O   0  0  0  0  0  0  0  0  0  0  0  0
   -0.2124    0.2538    7.1161 O   0  0  0  0  0  0  0  0  0  0  0  0
   -2.6366    1.5107    5.1551 C   0  0  0  0  0  0  0  0  0  0  0  0
   -3.9892    1.2719    5.4403 O   0  0  0  0  0  0  0  0  0  0  0  0
   -4.7414    0.3720    4.2569 P   0  0  1  0  0  5  0  0  0  0  0  0
   -3.7291   -0.2537    3.3089 O   0  0  0  0  0  0  0  0  0  0  0  0
   -5.6756   -0.8832    4.8810 O   0  0  0  0  0  0  0  0  0  0  0  0
   -4.7868   -2.2802    5.1578 P   0  0  0  0  0  5  0  0  0  0  0  0
   -3.4104   -2.2365    4.5576 O   0  0  0  0  0  0  0  0  0  0  0  0
   -5.6390   -3.6030    4.5372 O   0  0  0  0  0  1  0  0  0  0  0  0
   -4.6408   -2.4823    6.8485 O   0  0  0  0  0  1  0  0  0  0  0  0
   -5.7462    1.3516    3.2826 O   0  0  0  0  0  1  0  0  0  0  0  0
  1  2  1  0
  2  3  1  0
  3  4  2  0
  4  5  1  0
  5  6  1  0
  5  7  2  0
  7  8  1  0
  8  9  2  0
  8 10  1  0
 10 11  1  0
 11 12  2  0
 13 10  1  1
 13 14  1  0
 14 15  1  0
 15 16  1  0
 16 17  1  0
 17 18  1  1
 16 19  1  1
 15 20  1  6
 20 21  1  0
 21 22  1  0
 22 23  2  0
 22 24  1  0
 24 25  1  0
 25 26  2  0
 25 27  1  0
 25 28  1  0
 22 29  1  6
  9  3  1  0
 17 13  1  0
 12  7  1  0
M  CHG  3  27  -1  28  -1  29  -1
M  END
$$$$
