
     RDKit          3D

 29 31  0  0  0  0  0  0  0  0999 V2000
    0.2529   -1.6740   15.3833 C   0  0  0  0  0  0  0  0  0  0  0  0
    0.2415   -1.2635   13.6062 S   0  0  0  0  0  0  0  0  0  0  0  0
   -1.0157   -0.0052   13.3754 C   0  0  0  0  0  0  0  0  0  0  0  0
   -1.9198    0.2561   14.3561 N   0  0  0  0  0  0  0  0  0  0  0  0
   -2.8689    1.1975   14.1988 C   0  0  0  0  0  0  0  0  0  0  0  0
   -3.8024    1.4534   15.2356 N   0  0  0  0  0  0  0  0  0  0  0  0
   -2.8697    1.8742   12.9962 C   0  0  0  0  0  0  0  0  0  0  0  0
   -1.9490    1.6188   11.9786 C   0  0  0  0  0  0  0  0  0  0  0  0
   -1.0381    0.6687   12.2123 N   0  0  0  0  0  0  0  0  0  0  0  0
   -2.2017    2.4312   10.9378 N   0  0  0  0  0  0  0  0  0  0  0  0
   -3.2527    3.1796   11.2869 C   0  0  0  0  0  0  0  0  0  0  0  0
   -3.6646    2.8438   12.5425 N   0  0  0  0  0  0  0  0  0  0  0  0
   -1.4958    2.4897    9.7045 C   0  0  2  0  0  0  0  0  0  0  0  0
   -2.0475    3.3825    8.7865 O   0  0  0  0  0  0  0  0  0  0  0  0
   -1.2018    3.1949    7.6942 C   0  0  1  0  0  0  0  0  0  0  0  0
   -1.0236    1.6997    7.5515 C   0  0  2  0  0  0  0  0  0  0  0  0
   -1.5335    1.2019    8.9111 C   0  0  1  0  0  0  0  0  0  0  0  0
   -0.6661    0.2478    9.4376 O   0  0  0  0  0  0  0  0  0  0  0  0
    0.3411    1.3802    7.5206 O   0  0  0  0  0  0  0  0  0  0  0  0
   -1.8046    3.7199    6.4144 C   0  0  0  0  0  0  0  0  0  0  0  0
   -3.1504    4.0711    6.5974 O   0  0  0  0  0  0  0  0  0  0  0  0
   -4.1765    3.1971    5.6181 P   0  0  1  0  0  5  0  0  0  0  0  0
   -4.2744    3.8111    4.2295 O   0  0  0  0  0  0  0  0  0  0  0  0
   -3.6883    1.5972    5.4177 O   0  0  0  0  0  0  0  0  0  0  0  0
   -4.6004    0.7774    4.2713 P   0  0  0  0  0  5  0  0  0  0  0  0
   -5.1648    1.6765    3.2084 O   0  0  0  0  0  0  0  0  0  0  0  0
   -5.8572   -0.0401    5.0544 O   0  0  0  0  0  1  0  0  0  0  0  0
   -3.5887   -0.3818    3.5275 O   0  0  0  0  0  1  0  0  0  0  0  0
   -5.7683    3.1955    6.2383 O   0  0  0  0  0  1  0  0  0  0  0  0
  1  2  1  0
  2  3  1  0
  3  4  2  0
  4  5  1  0
  5  6  1  0
  5  7  2  0
  7  8  1  0
  8  9  2  0
  8 10  1  0
 10 11  1  0
 11 12  2  0
 13 10  1  1
 13 14  1  0
 14 15  1  0
 15 16  1  0
 16 17  1  0
 17 18  1  1
 16 19  1  1
 15 20  1  6
 20 21  1  0
 21 22  1  0
 22 23  2  0
 22 24  1  0
 24 25  1  0
 25 26  2  0
 25 27  1  0
 25 28  1  0
 22 29  1  1
  9  3  1  0
 17 13  1  0
 12  7  1  0
M  CHG  3  27  -1  28  -1  29  -1
M  END
$$$$
