
     RDKit          3D

 29 31  0  0  0  0  0  0  0  0999 V2000
    2.5315   -1.0564   14.8694 C   0  0  0  0  0  0  0  0  0  0  0  0
    1.2642   -1.3189   13.5842 S   0  0  0  0  0  0  0  0  0  0  0  0
    0.3136    0.1984   13.4794 C   0  0  0  0  0  0  0  0  0  0  0  0
   -0.1692    0.7902   14.6038 N   0  0  0  0  0  0  0  0  0  0  0  0
   -0.8836    1.9293   14.5422 C   0  0  0  0  0  0  0  0  0  0  0  0
   -1.3780    2.5295   15.7285 N   0  0  0  0  0  0  0  0  0  0  0  0
   -1.0946    2.4550   13.2839 C   0  0  0  0  0  0  0  0  0  0  0  0
   -0.6063    1.8606   12.1192 C   0  0  0  0  0  0  0  0  0  0  0  0
    0.0939    0.7312   12.2649 N   0  0  0  0  0  0  0  0  0  0  0  0
   -0.9712    2.6000   11.0574 N   0  0  0  0  0  0  0  0  0  0  0  0
   -1.6709    3.6332   11.5368 C   0  0  0  0  0  0  0  0  0  0  0  0
   -1.7493    3.5497   12.8954 N   0  0  0  0  0  0  0  0  0  0  0  0
   -0.6762    2.3417    9.6903 C   0  0  2  0  0  0  0  0  0  0  0  0
   -1.5434    2.9762    8.8018 O   0  0  0  0  0  0  0  0  0  0  0  0
   -1.0548    2.5148    7.5804 C   0  0  1  0  0  0  0  0  0  0  0  0
   -0.8177    1.0312    7.7551 C   0  0  2  0  0  0  0  0  0  0  0  0
   -0.8559    0.8954    9.2837 C   0  0  1  0  0  0  0  0  0  0  0  0
    0.1981    0.1011    9.7291 O   0  0  0  0  0  0  0  0  0  0  0  0
    0.4939    0.7078    7.3805 O   0  0  0  0  0  0  0  0  0  0  0  0
   -2.0523    2.7023    6.4639 C   0  0  0  0  0  0  0  0  0  0  0  0
   -3.3391    2.3148    6.8665 O   0  0  0  0  0  0  0  0  0  0  0  0
   -4.5348    3.2133    6.1325 P   0  0  1  0  0  5  0  0  0  0  0  0
   -3.9906    4.5309    5.6007 O   0  0  0  0  0  0  0  0  0  0  0  0
   -5.2522    2.4149    4.8341 O   0  0  0  0  0  0  0  0  0  0  0  0
   -4.8062    0.7994    4.7369 P   0  0  0  0  0  5  0  0  0  0  0  0
   -5.4684    0.0681    3.6041 O   0  0  0  0  0  0  0  0  0  0  0  0
   -5.1778    0.0400    6.2019 O   0  0  0  0  0  1  0  0  0  0  0  0
   -3.1130    0.7354    4.5145 O   0  0  0  0  0  1  0  0  0  0  0  0
   -5.7617    3.6327    7.2448 O   0  0  0  0  0  1  0  0  0  0  0  0
  1  2  1  0
  2  3  1  0
  3  4  2  0
  4  5  1  0
  5  6  1  0
  5  7  2  0
  7  8  1  0
  8  9  2  0
  8 10  1  0
 10 11  1  0
 11 12  2  0
 13 10  1  1
 13 14  1  0
 14 15  1  0
 15 16  1  0
 16 17  1  0
 17 18  1  1
 16 19  1  1
 15 20  1  6
 20 21  1  0
 21 22  1  0
 22 23  2  0
 22 24  1  0
 24 25  1  0
 25 26  2  0
 25 27  1  0
 25 28  1  0
 22 29  1  1
  9  3  1  0
 17 13  1  0
 12  7  1  0
M  CHG  3  27  -1  28  -1  29  -1
M  END
$$$$
