
     RDKit          3D

 29 31  0  0  0  0  0  0  0  0999 V2000
    1.3018    1.6270   12.5359 C   0  0  0  0  0  0  0  0  0  0  0  0
    0.2603    2.4091   13.8127 S   0  0  0  0  0  0  0  0  0  0  0  0
   -1.0826    3.2292   12.9520 C   0  0  0  0  0  0  0  0  0  0  0  0
   -2.0004    3.9590   13.6395 N   0  0  0  0  0  0  0  0  0  0  0  0
   -3.0135    4.5811   13.0083 C   0  0  0  0  0  0  0  0  0  0  0  0
   -3.9600    5.3373   13.7461 N   0  0  0  0  0  0  0  0  0  0  0  0
   -3.0648    4.4357   11.6371 C   0  0  0  0  0  0  0  0  0  0  0  0
   -2.1311    3.6902   10.9154 C   0  0  0  0  0  0  0  0  0  0  0  0
   -1.1553    3.1032   11.6155 N   0  0  0  0  0  0  0  0  0  0  0  0
   -2.4428    3.7348    9.6084 N   0  0  0  0  0  0  0  0  0  0  0  0
   -3.5428    4.4872    9.5061 C   0  0  0  0  0  0  0  0  0  0  0  0
   -3.9269    4.9177   10.7414 N   0  0  0  0  0  0  0  0  0  0  0  0
   -1.7459    3.1080    8.5388 C   0  0  2  0  0  0  0  0  0  0  0  0
   -2.5309    2.9018    7.4050 O   0  0  0  0  0  0  0  0  0  0  0  0
   -1.6241    2.2502    6.5704 C   0  0  1  0  0  0  0  0  0  0  0  0
   -0.9319    1.2143    7.4281 C   0  0  2  0  0  0  0  0  0  0  0  0
   -1.2985    1.6942    8.8393 C   0  0  1  0  0  0  0  0  0  0  0  0
   -0.1787    1.6741    9.6674 O   0  0  0  0  0  0  0  0  0  0  0  0
    0.4588    1.3615    7.3292 O   0  0  0  0  0  0  0  0  0  0  0  0
   -2.3129    1.5346    5.4345 C   0  0  0  0  0  0  0  0  0  0  0  0
   -3.6526    1.2616    5.7485 O   0  0  0  0  0  0  0  0  0  0  0  0
   -4.2135   -0.1195    5.0044 P   0  0  1  0  0  5  0  0  0  0  0  0
   -4.4584    0.1108    3.5205 O   0  0  0  0  0  0  0  0  0  0  0  0
   -3.1445   -1.4151    5.1336 O   0  0  0  0  0  0  0  0  0  0  0  0
   -3.8478   -2.7720    5.8283 P   0  0  0  0  0  5  0  0  0  0  0  0
   -4.8783   -2.4391    6.8693 O   0  0  0  0  0  0  0  0  0  0  0  0
   -2.6323   -3.7284    6.5131 O   0  0  0  0  0  1  0  0  0  0  0  0
   -4.5979   -3.6697    4.5825 O   0  0  0  0  0  1  0  0  0  0  0  0
   -5.7180   -0.6023    5.6540 O   0  0  0  0  0  1  0  0  0  0  0  0
  1  2  1  0
  2  3  1  0
  3  4  2  0
  4  5  1  0
  5  6  1  0
  5  7  2  0
  7  8  1  0
  8  9  2  0
  8 10  1  0
 10 11  1  0
 11 12  2  0
 13 10  1  1
 13 14  1  0
 14 15  1  0
 15 16  1  0
 16 17  1  0
 17 18  1  1
 16 19  1  1
 15 20  1  6
 20 21  1  0
 21 22  1  0
 22 23  2  0
 22 24  1  0
 24 25  1  0
 25 26  2  0
 25 27  1  0
 25 28  1  0
 22 29  1  1
  9  3  1  0
 17 13  1  0
 12  7  1  0
M  CHG  3  27  -1  28  -1  29  -1
M  END
$$$$
