
     RDKit          3D

 29 31  0  0  0  0  0  0  0  0999 V2000
    2.4116    9.6886  -31.4633 C   0  0  0  0  0  0  0  0  0  0  0  0
    2.4944    9.2096  -33.2213 S   0  0  0  0  0  0  0  0  0  0  0  0
    2.8539    7.4528  -33.2609 C   0  0  0  0  0  0  0  0  0  0  0  0
    3.0725    6.8188  -34.4432 N   0  0  0  0  0  0  0  0  0  0  0  0
    3.3441    5.5013  -34.4898 C   0  0  0  0  0  0  0  0  0  0  0  0
    3.5686    4.8603  -35.7350 N   0  0  0  0  0  0  0  0  0  0  0  0
    3.3869    4.8396  -33.2797 C   0  0  0  0  0  0  0  0  0  0  0  0
    3.1650    5.4748  -32.0567 C   0  0  0  0  0  0  0  0  0  0  0  0
    2.9014    6.7847  -32.0952 N   0  0  0  0  0  0  0  0  0  0  0  0
    3.2729    4.5750  -31.0637 N   0  0  0  0  0  0  0  0  0  0  0  0
    3.5551    3.4035  -31.6421 C   0  0  0  0  0  0  0  0  0  0  0  0
    3.6259    3.5591  -32.9948 N   0  0  0  0  0  0  0  0  0  0  0  0
    3.1185    4.8133  -29.6701 C   0  0  2  0  0  0  0  0  0  0  0  0
    3.5221    3.7435  -28.8721 O   0  0  0  0  0  0  0  0  0  0  0  0
    3.2190    4.2319  -27.6020 C   0  0  1  0  0  0  0  0  0  0  0  0
    1.8434    4.8522  -27.7067 C   0  0  2  0  0  0  0  0  0  0  0  0
    1.6805    4.9750  -29.2281 C   0  0  1  0  0  0  0  0  0  0  0  0
    1.1769    6.2292  -29.5649 O   0  0  0  0  0  0  0  0  0  0  0  0
    1.8727    6.1678  -27.2232 O   0  0  0  0  0  0  0  0  0  0  0  0
    3.1604    3.1316  -26.5711 C   0  0  0  0  0  0  0  0  0  0  0  0
    2.3243    2.0875  -26.9944 O   0  0  0  0  0  0  0  0  0  0  0  0
    3.1342    0.6381  -27.1328 P   0  0  1  0  0  5  0  0  0  0  0  0
    4.3320    0.7590  -28.0632 O   0  0  0  0  0  0  0  0  0  0  0  0
    3.7104    0.0646  -25.6573 O   0  0  0  0  0  0  0  0  0  0  0  0
    2.4791   -0.3130  -24.5804 P   0  0  0  0  0  5  0  0  0  0  0  0
    1.8127   -1.6260  -24.8778 O   0  0  0  0  0  0  0  0  0  0  0  0
    1.3309    0.9288  -24.6047 O   0  0  0  0  0  1  0  0  0  0  0  0
    3.1570   -0.3855  -23.0133 O   0  0  0  0  0  1  0  0  0  0  0  0
    2.1331   -0.5645  -27.8184 O   0  0  0  0  0  1  0  0  0  0  0  0
  1  2  1  0
  2  3  1  0
  3  4  2  0
  4  5  1  0
  5  6  1  0
  5  7  2  0
  7  8  1  0
  8  9  2  0
  8 10  1  0
 10 11  1  0
 11 12  2  0
 13 10  1  6
 13 14  1  0
 14 15  1  0
 15 16  1  0
 16 17  1  0
 17 18  1  1
 16 19  1  1
 15 20  1  1
 20 21  1  0
 21 22  1  0
 22 23  2  0
 22 24  1  0
 24 25  1  0
 25 26  2  0
 25 27  1  0
 25 28  1  0
 22 29  1  6
  9  3  1  0
 17 13  1  0
 12  7  1  0
M  CHG  3  27  -1  28  -1  29  -1
M  END
$$$$
