
     RDKit          3D

 29 31  0  0  0  0  0  0  0  0999 V2000
    1.4581    9.9074  -31.7498 C   0  0  0  0  0  0  0  0  0  0  0  0
    3.0956    9.9233  -32.5528 S   0  0  0  0  0  0  0  0  0  0  0  0
    4.1614    8.8652  -31.5723 C   0  0  0  0  0  0  0  0  0  0  0  0
    5.4633    9.1969  -31.3657 N   0  0  0  0  0  0  0  0  0  0  0  0
    6.2758    8.4141  -30.6318 C   0  0  0  0  0  0  0  0  0  0  0  0
    7.6313    8.7797  -30.4294 N   0  0  0  0  0  0  0  0  0  0  0  0
    5.7152    7.2674  -30.1073 C   0  0  0  0  0  0  0  0  0  0  0  0
    4.3806    6.9117  -30.3094 C   0  0  0  0  0  0  0  0  0  0  0  0
    3.6394    7.7418  -31.0499 N   0  0  0  0  0  0  0  0  0  0  0  0
    4.1307    5.7511  -29.6786 N   0  0  0  0  0  0  0  0  0  0  0  0
    5.2749    5.3829  -29.0938 C   0  0  0  0  0  0  0  0  0  0  0  0
    6.2455    6.3049  -29.3522 N   0  0  0  0  0  0  0  0  0  0  0  0
    2.8960    5.0466  -29.6365 C   0  0  2  0  0  0  0  0  0  0  0  0
    2.6242    4.4687  -28.3970 O   0  0  0  0  0  0  0  0  0  0  0  0
    1.4153    3.8275  -28.6635 C   0  0  1  0  0  0  0  0  0  0  0  0
    1.5903    3.1368  -29.9978 C   0  0  2  0  0  0  0  0  0  0  0  0
    2.8488    3.8313  -30.5366 C   0  0  1  0  0  0  0  0  0  0  0  0
    2.6755    4.1869  -31.8721 O   0  0  0  0  0  0  0  0  0  0  0  0
    0.5546    3.5052  -30.8678 O   0  0  0  0  0  0  0  0  0  0  0  0
    1.0916    2.7767  -27.6301 C   0  0  0  0  0  0  0  0  0  0  0  0
    1.7938    1.5885  -27.8814 O   0  0  0  0  0  0  0  0  0  0  0  0
    3.0834    1.3788  -26.8477 P   0  0  1  0  0  5  0  0  0  0  0  0
    3.0823    2.4231  -25.7411 O   0  0  0  0  0  0  0  0  0  0  0  0
    3.0878   -0.1316  -26.1017 O   0  0  0  0  0  0  0  0  0  0  0  0
    1.9584   -0.2499  -24.8653 P   0  0  0  0  0  5  0  0  0  0  0  0
    0.5700    0.1345  -25.2910 O   0  0  0  0  0  0  0  0  0  0  0  0
    2.4525    0.7288  -23.5773 O   0  0  0  0  0  1  0  0  0  0  0  0
    1.9370   -1.8721  -24.3281 O   0  0  0  0  0  1  0  0  0  0  0  0
    4.5692    1.5731  -27.6681 O   0  0  0  0  0  1  0  0  0  0  0  0
  1  2  1  0
  2  3  1  0
  3  4  2  0
  4  5  1  0
  5  6  1  0
  5  7  2  0
  7  8  1  0
  8  9  2  0
  8 10  1  0
 10 11  1  0
 11 12  2  0
 13 10  1  1
 13 14  1  0
 14 15  1  0
 15 16  1  0
 16 17  1  0
 17 18  1  6
 16 19  1  6
 15 20  1  1
 20 21  1  0
 21 22  1  0
 22 23  2  0
 22 24  1  0
 24 25  1  0
 25 26  2  0
 25 27  1  0
 25 28  1  0
 22 29  1  6
  9  3  1  0
 17 13  1  0
 12  7  1  0
M  CHG  3  27  -1  28  -1  29  -1
M  END
$$$$
