
     RDKit          3D

 29 31  0  0  0  0  0  0  0  0999 V2000
   -5.0829    0.0117    6.9678 C   0  0  0  0  0  0  0  0  0  0  0  0
   -5.5722    1.7342    6.6207 S   0  0  0  0  0  0  0  0  0  0  0  0
   -4.7108    2.7648    7.8093 C   0  0  0  0  0  0  0  0  0  0  0  0
   -5.2510    3.9415    8.2230 N   0  0  0  0  0  0  0  0  0  0  0  0
   -4.6176    4.7258    9.1148 C   0  0  0  0  0  0  0  0  0  0  0  0
   -5.1999    5.9500    9.5323 N   0  0  0  0  0  0  0  0  0  0  0  0
   -3.4008    4.2697    9.5791 C   0  0  0  0  0  0  0  0  0  0  0  0
   -2.8317    3.0643    9.1652 C   0  0  0  0  0  0  0  0  0  0  0  0
   -3.5232    2.3429    8.2773 N   0  0  0  0  0  0  0  0  0  0  0  0
   -1.6525    2.8937    9.7880 N   0  0  0  0  0  0  0  0  0  0  0  0
   -1.4805    3.9611   10.5739 C   0  0  0  0  0  0  0  0  0  0  0  0
   -2.5447    4.8044   10.4504 N   0  0  0  0  0  0  0  0  0  0  0  0
   -0.7580    1.7974    9.6449 C   0  0  2  0  0  0  0  0  0  0  0  0
    0.2537    1.7726   10.6042 O   0  0  0  0  0  0  0  0  0  0  0  0
    0.9784    0.6540   10.1955 C   0  0  1  0  0  0  0  0  0  0  0  0
    1.1179    0.7684    8.6937 C   0  0  2  0  0  0  0  0  0  0  0  0
    0.0560    1.8284    8.3698 C   0  0  1  0  0  0  0  0  0  0  0  0
   -0.7007    1.4394    7.2670 O   0  0  0  0  0  0  0  0  0  0  0  0
    0.6731   -0.4108    8.0797 O   0  0  0  0  0  0  0  0  0  0  0  0
    2.3630    0.6261   10.7947 C   0  0  0  0  0  0  0  0  0  0  0  0
    2.7374    1.8958   11.2593 O   0  0  0  0  0  0  0  0  0  0  0  0
    4.0057    1.8318   12.3379 P   0  0  1  0  0  5  0  0  0  0  0  0
    4.1029    0.4648   12.9987 O   0  0  0  0  0  0  0  0  0  0  0  0
    5.4968    2.1393   11.6167 O   0  0  0  0  0  0  0  0  0  0  0  0
    5.5701    1.6131   10.0242 P   0  0  0  0  0  5  0  0  0  0  0  0
    4.2416    1.6535    9.3241 O   0  0  0  0  0  0  0  0  0  0  0  0
    6.1828    0.0368    9.9964 O   0  0  0  0  0  1  0  0  0  0  0  0
    6.6615    2.6270    9.1868 O   0  0  0  0  0  1  0  0  0  0  0  0
    3.7885    2.9491   13.6118 O   0  0  0  0  0  1  0  0  0  0  0  0
  1  2  1  0
  2  3  1  0
  3  4  2  0
  4  5  1  0
  5  6  1  0
  5  7  2  0
  7  8  1  0
  8  9  2  0
  8 10  1  0
 10 11  1  0
 11 12  2  0
 13 10  1  1
 13 14  1  0
 14 15  1  0
 15 16  1  0
 16 17  1  0
 17 18  1  6
 16 19  1  6
 15 20  1  1
 20 21  1  0
 21 22  1  0
 22 23  2  0
 22 24  1  0
 24 25  1  0
 25 26  2  0
 25 27  1  0
 25 28  1  0
 22 29  1  1
  9  3  1  0
 17 13  1  0
 12  7  1  0
M  CHG  3  27  -1  28  -1  29  -1
M  END
$$$$
