
     RDKit          3D

 37 41  0  0  0  0  0  0  0  0999 V2000
  -35.7622   80.3027   31.0132 C   0  0  0  0  0  0  0  0  0  0  0  0
  -35.4978   80.2766   29.6054 N   0  0  0  0  0  0  0  0  0  0  0  0
  -36.5705   80.7391   28.7821 C   0  0  0  0  0  0  0  0  0  0  0  0
  -37.5174   79.6343   28.4044 C   0  0  0  0  0  0  0  0  0  0  0  0
  -37.1906   78.3424   29.1330 C   0  0  0  0  0  0  0  0  0  0  0  0
  -35.7873   77.9636   28.8041 C   0  0  0  0  0  0  0  0  0  0  0  0
  -34.8492   79.0946   29.1358 C   0  0  0  0  0  0  0  0  0  0  0  0
  -35.3384   76.6979   29.4946 C   0  0  0  0  0  0  0  0  0  0  0  0
  -34.9437   75.6705   28.5749 N   0  0  0  0  0  0  0  0  0  0  0  0
  -34.0241   75.9677   27.5041 C   0  0  0  0  0  0  0  0  0  0  0  0
  -35.4438   74.3506   28.6949 C   0  0  0  0  0  0  0  0  0  0  0  0
  -36.2155   74.0431   29.6399 O   0  0  0  0  0  0  0  0  0  0  0  0
  -35.0667   73.3462   27.7260 C   0  0  0  0  0  0  0  0  0  0  0  0
  -35.2115   71.9790   28.0880 N   0  0  0  0  0  0  0  0  0  0  0  0
  -36.3030   71.1765   27.8886 C   0  0  0  0  0  0  0  0  0  0  0  0
  -37.5438   71.4386   27.3268 C   0  0  0  0  0  0  0  0  0  0  0  0
  -38.5177   70.4811   27.2201 C   0  0  0  0  0  0  0  0  0  0  0  0
  -38.2577   69.2089   27.6877 C   0  0  0  0  0  0  0  0  0  0  0  0
  -37.0226   68.9560   28.2447 C   0  0  0  0  0  0  0  0  0  0  0  0
  -36.0360   69.9113   28.3567 C   0  0  0  0  0  0  0  0  0  0  0  0
  -34.7529   69.9570   28.8492 C   0  0  0  0  0  0  0  0  0  0  0  0
  -34.0378   68.8176   29.4667 C   0  0  0  0  0  0  0  0  0  0  0  0
  -34.9485   68.0132   30.3727 C   0  0  0  0  0  0  0  0  0  0  0  0
  -34.2142   66.8478   30.9341 C   0  0  0  0  0  0  0  0  0  0  0  0
  -33.3159   66.1421   29.9850 C   0  0  0  0  0  0  0  0  0  0  0  0
  -33.4926   66.5515   28.5443 C   0  0  0  0  0  0  0  0  0  0  0  0
  -33.3082   68.0355   28.4419 C   0  0  0  0  0  0  0  0  0  0  0  0
  -34.2534   71.2402   28.6765 C   0  0  0  0  0  0  0  0  0  0  0  0
  -32.8858   71.6328   29.0330 C   0  0  0  0  0  0  0  0  0  0  0  0
  -32.5860   72.1298   30.2690 C   0  0  0  0  0  0  0  0  0  0  0  0
  -31.2803   72.5322   30.5751 C   0  0  0  0  0  0  0  0  0  0  0  0
  -30.2879   72.4275   29.6262 C   0  0  0  0  0  0  0  0  0  0  0  0
  -30.5655   71.9341   28.3862 C   0  0  0  0  0  0  0  0  0  0  0  0
  -31.8489   71.5466   28.1068 C   0  0  0  0  0  0  0  0  0  0  0  0
  -39.8090   70.7985   26.6223 C   0  0  0  0  0  0  0  0  0  0  0  0
  -40.1121   72.1076   26.2904 O   0  0  0  0  0  0  0  0  0  0  0  0
  -40.6418   69.8645   26.4134 O   0  0  0  0  0  0  0  0  0  0  0  0
  1  2  1  0
  2  3  1  0
  3  4  1  0
  4  5  1  0
  5  6  1  0
  6  7  1  0
  6  8  1  0
  8  9  1  0
  9 10  1  0
  9 11  1  0
 11 12  2  0
 11 13  1  0
 13 14  1  0
 14 15  1  0
 15 16  2  0
 16 17  1  0
 17 18  2  0
 18 19  1  0
 19 20  2  0
 20 21  1  0
 21 22  1  0
 22 23  1  0
 23 24  1  0
 24 25  1  0
 25 26  1  0
 26 27  1  0
 21 28  2  0
 28 29  1  0
 29 30  2  0
 30 31  1  0
 31 32  2  0
 32 33  1  0
 33 34  2  0
 17 35  1  0
 35 36  1  0
 35 37  2  0
  7  2  1  0
 28 14  1  0
 20 15  1  0
 27 22  1  0
 34 29  1  0
M  END
$$$$
