
     RDKit          3D

 37 41  0  0  0  0  0  0  0  0999 V2000
    4.8353   44.8033   49.2939 C   0  0  0  0  0  0  0  0  0  0  0  0
    5.2342   44.0903   48.1170 N   0  0  0  0  0  0  0  0  0  0  0  0
    4.1639   43.7177   47.2463 C   0  0  0  0  0  0  0  0  0  0  0  0
    3.5824   42.3768   47.5980 C   0  0  0  0  0  0  0  0  0  0  0  0
    4.1640   41.8357   48.8925 C   0  0  0  0  0  0  0  0  0  0  0  0
    5.6428   41.7393   48.7352 C   0  0  0  0  0  0  0  0  0  0  0  0
    6.2134   43.0736   48.3313 C   0  0  0  0  0  0  0  0  0  0  0  0
    6.3383   41.2317   49.9756 C   0  0  0  0  0  0  0  0  0  0  0  0
    7.7234   40.9316   49.7553 N   0  0  0  0  0  0  0  0  0  0  0  0
    8.1106   39.6669   49.1796 C   0  0  0  0  0  0  0  0  0  0  0  0
    8.7360   41.8621   50.0954 C   0  0  0  0  0  0  0  0  0  0  0  0
    9.9490   41.5312   50.0505 O   0  0  0  0  0  0  0  0  0  0  0  0
    8.3766   43.2032   50.4978 C   0  0  0  0  0  0  0  0  0  0  0  0
    9.3902   44.0288   51.0567 N   0  0  0  0  0  0  0  0  0  0  0  0
   10.2910   44.8111   50.3845 C   0  0  0  0  0  0  0  0  0  0  0  0
   10.4993   45.0108   49.0277 C   0  0  0  0  0  0  0  0  0  0  0  0
   11.4722   45.8491   48.5507 C   0  0  0  0  0  0  0  0  0  0  0  0
   12.2755   46.5201   49.4502 C   0  0  0  0  0  0  0  0  0  0  0  0
   12.0625   46.3166   50.7966 C   0  0  0  0  0  0  0  0  0  0  0  0
   11.0870   45.4762   51.2871 C   0  0  0  0  0  0  0  0  0  0  0  0
   10.6528   45.0824   52.5311 C   0  0  0  0  0  0  0  0  0  0  0  0
   11.2266   45.5400   53.8165 C   0  0  0  0  0  0  0  0  0  0  0  0
   12.5852   44.9188   54.0728 C   0  0  0  0  0  0  0  0  0  0  0  0
   13.1556   45.4394   55.3441 C   0  0  0  0  0  0  0  0  0  0  0  0
   12.9567   46.8913   55.5853 C   0  0  0  0  0  0  0  0  0  0  0  0
   12.4466   47.6538   54.3883 C   0  0  0  0  0  0  0  0  0  0  0  0
   11.1726   47.0166   53.9219 C   0  0  0  0  0  0  0  0  0  0  0  0
    9.6028   44.1884   52.3755 C   0  0  0  0  0  0  0  0  0  0  0  0
    8.8558   43.6117   53.4984 C   0  0  0  0  0  0  0  0  0  0  0  0
    9.0835   42.3348   53.9254 C   0  0  0  0  0  0  0  0  0  0  0  0
    8.3330   41.7927   54.9758 C   0  0  0  0  0  0  0  0  0  0  0  0
    7.3574   42.5491   55.5860 C   0  0  0  0  0  0  0  0  0  0  0  0
    7.1138   43.8258   55.1755 C   0  0  0  0  0  0  0  0  0  0  0  0
    7.8585   44.3370   54.1461 C   0  0  0  0  0  0  0  0  0  0  0  0
   11.6579   46.0310   47.1162 C   0  0  0  0  0  0  0  0  0  0  0  0
   10.9410   45.2526   46.2239 O   0  0  0  0  0  0  0  0  0  0  0  0
   12.4788   46.9057   46.7033 O   0  0  0  0  0  0  0  0  0  0  0  0
  1  2  1  0
  2  3  1  0
  3  4  1  0
  4  5  1  0
  5  6  1  0
  6  7  1  0
  6  8  1  0
  8  9  1  0
  9 10  1  0
  9 11  1  0
 11 12  2  0
 11 13  1  0
 13 14  1  0
 14 15  1  0
 15 16  2  0
 16 17  1  0
 17 18  2  0
 18 19  1  0
 19 20  2  0
 20 21  1  0
 21 22  1  0
 22 23  1  0
 23 24  1  0
 24 25  1  0
 25 26  1  0
 26 27  1  0
 21 28  2  0
 28 29  1  0
 29 30  2  0
 30 31  1  0
 31 32  2  0
 32 33  1  0
 33 34  2  0
 17 35  1  0
 35 36  1  0
 35 37  2  0
  7  2  1  0
 28 14  1  0
 20 15  1  0
 27 22  1  0
 34 29  1  0
M  END
$$$$
