
     RDKit          3D

 37 41  0  0  0  0  0  0  0  0999 V2000
    9.3661   42.8914   42.9073 C   0  0  0  0  0  0  0  0  0  0  0  0
   10.3651   43.1968   43.8878 N   0  0  0  0  0  0  0  0  0  0  0  0
   11.6270   42.5585   43.6814 C   0  0  0  0  0  0  0  0  0  0  0  0
   11.6999   41.2108   44.3434 C   0  0  0  0  0  0  0  0  0  0  0  0
   10.3568   40.7949   44.9177 C   0  0  0  0  0  0  0  0  0  0  0  0
    9.9251   41.8345   45.8944 C   0  0  0  0  0  0  0  0  0  0  0  0
    9.9047   43.1908   45.2392 C   0  0  0  0  0  0  0  0  0  0  0  0
    8.5819   41.5395   46.5180 C   0  0  0  0  0  0  0  0  0  0  0  0
    8.1063   42.6070   47.3496 N   0  0  0  0  0  0  0  0  0  0  0  0
    6.7847   43.1497   47.1507 C   0  0  0  0  0  0  0  0  0  0  0  0
    8.9165   43.1496   48.3772 C   0  0  0  0  0  0  0  0  0  0  0  0
   10.0009   42.5963   48.6950 O   0  0  0  0  0  0  0  0  0  0  0  0
    8.4975   44.3481   49.0682 C   0  0  0  0  0  0  0  0  0  0  0  0
    9.3931   44.9264   50.0087 N   0  0  0  0  0  0  0  0  0  0  0  0
   10.4932   45.6979   49.7447 C   0  0  0  0  0  0  0  0  0  0  0  0
   11.0579   46.1106   48.5469 C   0  0  0  0  0  0  0  0  0  0  0  0
   12.1816   46.8926   48.4968 C   0  0  0  0  0  0  0  0  0  0  0  0
   12.7753   47.2853   49.6791 C   0  0  0  0  0  0  0  0  0  0  0  0
   12.2086   46.8713   50.8653 C   0  0  0  0  0  0  0  0  0  0  0  0
   11.0787   46.0851   50.9271 C   0  0  0  0  0  0  0  0  0  0  0  0
   10.3106   45.5316   51.9245 C   0  0  0  0  0  0  0  0  0  0  0  0
   10.5678   45.6752   53.3751 C   0  0  0  0  0  0  0  0  0  0  0  0
   10.2782   44.3888   54.1224 C   0  0  0  0  0  0  0  0  0  0  0  0
   10.5968   44.5516   55.5662 C   0  0  0  0  0  0  0  0  0  0  0  0
   11.8399   45.3079   55.8640 C   0  0  0  0  0  0  0  0  0  0  0  0
   12.7157   45.5579   54.6620 C   0  0  0  0  0  0  0  0  0  0  0  0
   11.9053   46.2641   53.6174 C   0  0  0  0  0  0  0  0  0  0  0  0
    9.2710   44.8185   51.3442 C   0  0  0  0  0  0  0  0  0  0  0  0
    8.2188   44.1473   52.1149 C   0  0  0  0  0  0  0  0  0  0  0  0
    7.0963   44.8122   52.5180 C   0  0  0  0  0  0  0  0  0  0  0  0
    6.1218   44.1610   53.2841 C   0  0  0  0  0  0  0  0  0  0  0  0
    6.2922   42.8405   53.6356 C   0  0  0  0  0  0  0  0  0  0  0  0
    7.4052   42.1582   53.2437 C   0  0  0  0  0  0  0  0  0  0  0  0
    8.3465   42.8135   52.4954 C   0  0  0  0  0  0  0  0  0  0  0  0
   12.7431   47.3049   47.2161 C   0  0  0  0  0  0  0  0  0  0  0  0
   12.2032   46.8187   46.0379 O   0  0  0  0  0  0  0  0  0  0  0  0
   13.7247   48.1084   47.1993 O   0  0  0  0  0  0  0  0  0  0  0  0
  1  2  1  0
  2  3  1  0
  3  4  1  0
  4  5  1  0
  5  6  1  0
  6  7  1  0
  6  8  1  0
  8  9  1  0
  9 10  1  0
  9 11  1  0
 11 12  2  0
 11 13  1  0
 13 14  1  0
 14 15  1  0
 15 16  2  0
 16 17  1  0
 17 18  2  0
 18 19  1  0
 19 20  2  0
 20 21  1  0
 21 22  1  0
 22 23  1  0
 23 24  1  0
 24 25  1  0
 25 26  1  0
 26 27  1  0
 21 28  2  0
 28 29  1  0
 29 30  2  0
 30 31  1  0
 31 32  2  0
 32 33  1  0
 33 34  2  0
 17 35  1  0
 35 36  1  0
 35 37  2  0
  7  2  1  0
 28 14  1  0
 20 15  1  0
 27 22  1  0
 34 29  1  0
M  END
$$$$
