
     RDKit          3D

 37 41  0  0  0  0  0  0  0  0999 V2000
   13.0284   27.1668   71.4058 C   0  0  0  0  0  0  0  0  0  0  0  0
   12.4470   28.2271   70.6374 N   0  0  0  0  0  0  0  0  0  0  0  0
   13.3104   29.3401   70.3962 C   0  0  0  0  0  0  0  0  0  0  0  0
   13.2257   30.3745   71.4838 C   0  0  0  0  0  0  0  0  0  0  0  0
   12.3743   29.8962   72.6470 C   0  0  0  0  0  0  0  0  0  0  0  0
   11.0157   29.5709   72.1280 C   0  0  0  0  0  0  0  0  0  0  0  0
   11.1111   28.5737   71.0030 C   0  0  0  0  0  0  0  0  0  0  0  0
   10.0804   29.0590   73.1972 C   0  0  0  0  0  0  0  0  0  0  0  0
    9.7212   30.0661   74.1531 N   0  0  0  0  0  0  0  0  0  0  0  0
    9.9557   29.8495   75.5599 C   0  0  0  0  0  0  0  0  0  0  0  0
    9.1321   31.2870   73.7422 C   0  0  0  0  0  0  0  0  0  0  0  0
    8.9256   31.5182   72.5228 O   0  0  0  0  0  0  0  0  0  0  0  0
    8.7641   32.2776   74.7286 C   0  0  0  0  0  0  0  0  0  0  0  0
    8.4872   33.5981   74.2803 N   0  0  0  0  0  0  0  0  0  0  0  0
    7.2943   34.0873   73.8190 C   0  0  0  0  0  0  0  0  0  0  0  0
    6.0630   33.4765   73.6325 C   0  0  0  0  0  0  0  0  0  0  0  0
    4.9742   34.1532   73.1494 C   0  0  0  0  0  0  0  0  0  0  0  0
    5.1044   35.4909   72.8360 C   0  0  0  0  0  0  0  0  0  0  0  0
    6.3309   36.0910   73.0239 C   0  0  0  0  0  0  0  0  0  0  0  0
    7.4321   35.4200   73.5093 C   0  0  0  0  0  0  0  0  0  0  0  0
    8.7401   35.7371   73.7916 C   0  0  0  0  0  0  0  0  0  0  0  0
    9.3510   37.0723   73.6048 C   0  0  0  0  0  0  0  0  0  0  0  0
    8.9264   37.7007   72.2924 C   0  0  0  0  0  0  0  0  0  0  0  0
    9.5145   39.0605   72.1609 C   0  0  0  0  0  0  0  0  0  0  0  0
    9.5119   39.8795   73.3999 C   0  0  0  0  0  0  0  0  0  0  0  0
    8.6779   39.3073   74.5186 C   0  0  0  0  0  0  0  0  0  0  0  0
    9.1531   37.9153   74.8067 C   0  0  0  0  0  0  0  0  0  0  0  0
    9.3819   34.6028   74.2686 C   0  0  0  0  0  0  0  0  0  0  0  0
   10.7749   34.5920   74.7276 C   0  0  0  0  0  0  0  0  0  0  0  0
   11.1355   35.1422   75.9242 C   0  0  0  0  0  0  0  0  0  0  0  0
   12.4769   35.1528   76.3255 C   0  0  0  0  0  0  0  0  0  0  0  0
   13.4430   34.6054   75.5111 C   0  0  0  0  0  0  0  0  0  0  0  0
   13.1048   34.0511   74.3126 C   0  0  0  0  0  0  0  0  0  0  0  0
   11.7874   34.0513   73.9384 C   0  0  0  0  0  0  0  0  0  0  0  0
    3.6974   33.4732   72.9685 C   0  0  0  0  0  0  0  0  0  0  0  0
    3.6311   32.0939   73.0638 O   0  0  0  0  0  0  0  0  0  0  0  0
    2.6585   34.1595   72.7249 O   0  0  0  0  0  0  0  0  0  0  0  0
  1  2  1  0
  2  3  1  0
  3  4  1  0
  4  5  1  0
  5  6  1  0
  6  7  1  0
  6  8  1  0
  8  9  1  0
  9 10  1  0
  9 11  1  0
 11 12  2  0
 11 13  1  0
 13 14  1  0
 14 15  1  0
 15 16  2  0
 16 17  1  0
 17 18  2  0
 18 19  1  0
 19 20  2  0
 20 21  1  0
 21 22  1  0
 22 23  1  0
 23 24  1  0
 24 25  1  0
 25 26  1  0
 26 27  1  0
 21 28  2  0
 28 29  1  0
 29 30  2  0
 30 31  1  0
 31 32  2  0
 32 33  1  0
 33 34  2  0
 17 35  1  0
 35 36  1  0
 35 37  2  0
  7  2  1  0
 28 14  1  0
 20 15  1  0
 27 22  1  0
 34 29  1  0
M  END
$$$$
