
     RDKit          3D

 37 41  0  0  0  0  0  0  0  0999 V2000
   10.4219   29.7760   76.6884 C   0  0  0  0  0  0  0  0  0  0  0  0
    9.8619   28.8497   75.7498 N   0  0  0  0  0  0  0  0  0  0  0  0
   10.4280   28.9039   74.4386 C   0  0  0  0  0  0  0  0  0  0  0  0
    9.7228   29.8930   73.5529 C   0  0  0  0  0  0  0  0  0  0  0  0
    8.6993   30.7069   74.3253 C   0  0  0  0  0  0  0  0  0  0  0  0
    7.7214   29.7649   74.9394 C   0  0  0  0  0  0  0  0  0  0  0  0
    8.4384   28.7440   75.7836 C   0  0  0  0  0  0  0  0  0  0  0  0
    6.6612   30.4624   75.7577 C   0  0  0  0  0  0  0  0  0  0  0  0
    5.6960   31.1506   74.9503 N   0  0  0  0  0  0  0  0  0  0  0  0
    4.5020   30.4724   74.5084 C   0  0  0  0  0  0  0  0  0  0  0  0
    5.8908   32.5013   74.5702 C   0  0  0  0  0  0  0  0  0  0  0  0
    5.0975   33.0604   73.7695 O   0  0  0  0  0  0  0  0  0  0  0  0
    7.0085   33.2462   75.1044 C   0  0  0  0  0  0  0  0  0  0  0  0
    7.1717   34.5968   74.6913 N   0  0  0  0  0  0  0  0  0  0  0  0
    6.3985   35.6724   75.0384 C   0  0  0  0  0  0  0  0  0  0  0  0
    5.2667   35.7696   75.8344 C   0  0  0  0  0  0  0  0  0  0  0  0
    4.6283   36.9607   76.0593 C   0  0  0  0  0  0  0  0  0  0  0  0
    5.1270   38.1067   75.4739 C   0  0  0  0  0  0  0  0  0  0  0  0
    6.2518   38.0022   74.6843 C   0  0  0  0  0  0  0  0  0  0  0  0
    6.9017   36.8097   74.4517 C   0  0  0  0  0  0  0  0  0  0  0  0
    8.0035   36.4055   73.7349 C   0  0  0  0  0  0  0  0  0  0  0  0
    8.8662   37.2965   72.9269 C   0  0  0  0  0  0  0  0  0  0  0  0
    8.0826   38.4597   72.3522 C   0  0  0  0  0  0  0  0  0  0  0  0
    8.9880   39.3619   71.5914 C   0  0  0  0  0  0  0  0  0  0  0  0
   10.3140   39.6080   72.2135 C   0  0  0  0  0  0  0  0  0  0  0  0
   10.4300   39.1224   73.6366 C   0  0  0  0  0  0  0  0  0  0  0  0
   10.0919   37.6626   73.6737 C   0  0  0  0  0  0  0  0  0  0  0  0
    8.1607   35.0356   73.8917 C   0  0  0  0  0  0  0  0  0  0  0  0
    9.2747   34.2760   73.3143 C   0  0  0  0  0  0  0  0  0  0  0  0
   10.4082   34.0174   74.0304 C   0  0  0  0  0  0  0  0  0  0  0  0
   11.4739   33.3216   73.4466 C   0  0  0  0  0  0  0  0  0  0  0  0
   11.3826   32.8928   72.1412 C   0  0  0  0  0  0  0  0  0  0  0  0
   10.2602   33.1403   71.4085 C   0  0  0  0  0  0  0  0  0  0  0  0
    9.2295   33.8228   71.9979 C   0  0  0  0  0  0  0  0  0  0  0  0
    3.4410   37.0191   76.9033 C   0  0  0  0  0  0  0  0  0  0  0  0
    2.8657   35.8484   77.3663 O   0  0  0  0  0  0  0  0  0  0  0  0
    2.9488   38.1493   77.2035 O   0  0  0  0  0  0  0  0  0  0  0  0
  1  2  1  0
  2  3  1  0
  3  4  1  0
  4  5  1  0
  5  6  1  0
  6  7  1  0
  6  8  1  0
  8  9  1  0
  9 10  1  0
  9 11  1  0
 11 12  2  0
 11 13  1  0
 13 14  1  0
 14 15  1  0
 15 16  2  0
 16 17  1  0
 17 18  2  0
 18 19  1  0
 19 20  2  0
 20 21  1  0
 21 22  1  0
 22 23  1  0
 23 24  1  0
 24 25  1  0
 25 26  1  0
 26 27  1  0
 21 28  2  0
 28 29  1  0
 29 30  2  0
 30 31  1  0
 31 32  2  0
 32 33  1  0
 33 34  2  0
 17 35  1  0
 35 36  1  0
 35 37  2  0
  7  2  1  0
 28 14  1  0
 20 15  1  0
 27 22  1  0
 34 29  1  0
M  END
$$$$
