
     RDKit          3D

 37 41  0  0  0  0  0  0  0  0999 V2000
  -33.9353   65.5009   60.3054 C   0  0  0  0  0  0  0  0  0  0  0  0
  -33.2868   66.0910   59.1723 N   0  0  0  0  0  0  0  0  0  0  0  0
  -34.0033   67.1652   58.5597 C   0  0  0  0  0  0  0  0  0  0  0  0
  -34.9497   66.6858   57.4946 C   0  0  0  0  0  0  0  0  0  0  0  0
  -35.0309   65.1697   57.4579 C   0  0  0  0  0  0  0  0  0  0  0  0
  -33.6606   64.6348   57.2189 C   0  0  0  0  0  0  0  0  0  0  0  0
  -32.7056   65.1606   58.2584 C   0  0  0  0  0  0  0  0  0  0  0  0
  -33.6115   63.1260   57.1853 C   0  0  0  0  0  0  0  0  0  0  0  0
  -34.2562   62.5724   56.0298 N   0  0  0  0  0  0  0  0  0  0  0  0
  -35.6473   62.1945   56.0848 C   0  0  0  0  0  0  0  0  0  0  0  0
  -33.5482   62.3846   54.8174 C   0  0  0  0  0  0  0  0  0  0  0  0
  -32.3888   62.8523   54.6756 O   0  0  0  0  0  0  0  0  0  0  0  0
  -34.1591   61.6505   53.7323 C   0  0  0  0  0  0  0  0  0  0  0  0
  -33.3216   61.1923   52.6788 N   0  0  0  0  0  0  0  0  0  0  0  0
  -32.1892   60.4301   52.7875 C   0  0  0  0  0  0  0  0  0  0  0  0
  -31.5309   59.9185   53.8960 C   0  0  0  0  0  0  0  0  0  0  0  0
  -30.3901   59.1674   53.7896 C   0  0  0  0  0  0  0  0  0  0  0  0
  -29.8750   58.9090   52.5356 C   0  0  0  0  0  0  0  0  0  0  0  0
  -30.5346   59.4207   51.4389 C   0  0  0  0  0  0  0  0  0  0  0  0
  -31.6825   60.1769   51.5345 C   0  0  0  0  0  0  0  0  0  0  0  0
  -32.5321   60.8033   50.6531 C   0  0  0  0  0  0  0  0  0  0  0  0
  -32.3772   60.8093   49.1810 C   0  0  0  0  0  0  0  0  0  0  0  0
  -30.9840   61.2412   48.7690 C   0  0  0  0  0  0  0  0  0  0  0  0
  -30.8464   61.1854   47.2890 C   0  0  0  0  0  0  0  0  0  0  0  0
  -31.4722   60.0085   46.6339 C   0  0  0  0  0  0  0  0  0  0  0  0
  -31.9124   58.9287   47.5903 C   0  0  0  0  0  0  0  0  0  0  0  0
  -32.8456   59.5313   48.5966 C   0  0  0  0  0  0  0  0  0  0  0  0
  -33.5420   61.4267   51.3724 C   0  0  0  0  0  0  0  0  0  0  0  0
  -34.6611   62.1399   50.7475 C   0  0  0  0  0  0  0  0  0  0  0  0
  -35.6239   61.4769   50.0418 C   0  0  0  0  0  0  0  0  0  0  0  0
  -36.6632   62.1822   49.4230 C   0  0  0  0  0  0  0  0  0  0  0  0
  -36.7193   63.5543   49.5245 C   0  0  0  0  0  0  0  0  0  0  0  0
  -35.7685   64.2358   50.2242 C   0  0  0  0  0  0  0  0  0  0  0  0
  -34.7601   63.5273   50.8214 C   0  0  0  0  0  0  0  0  0  0  0  0
  -29.7291   58.6481   54.9808 C   0  0  0  0  0  0  0  0  0  0  0  0
  -28.7787   57.6488   54.8617 O   0  0  0  0  0  0  0  0  0  0  0  0
  -30.0360   59.1224   56.1167 O   0  0  0  0  0  0  0  0  0  0  0  0
  1  2  1  0
  2  3  1  0
  3  4  1  0
  4  5  1  0
  5  6  1  0
  6  7  1  0
  6  8  1  0
  8  9  1  0
  9 10  1  0
  9 11  1  0
 11 12  2  0
 11 13  1  0
 13 14  1  0
 14 15  1  0
 15 16  2  0
 16 17  1  0
 17 18  2  0
 18 19  1  0
 19 20  2  0
 20 21  1  0
 21 22  1  0
 22 23  1  0
 23 24  1  0
 24 25  1  0
 25 26  1  0
 26 27  1  0
 21 28  2  0
 28 29  1  0
 29 30  2  0
 30 31  1  0
 31 32  2  0
 32 33  1  0
 33 34  2  0
 17 35  1  0
 35 36  1  0
 35 37  2  0
  7  2  1  0
 28 14  1  0
 20 15  1  0
 27 22  1  0
 34 29  1  0
M  END
$$$$
