
     RDKit          3D

 25 28  0  0  0  0  0  0  0  0999 V2000
    1.1597    0.5912    6.1491 C   0  0  0  0  0  0  0  0  0  0  0  0
   -0.2992    0.7936    6.4632 C   0  0  0  0  0  0  0  0  0  0  0  0
   -1.0696    0.3968    5.3005 N   0  0  0  0  0  0  0  0  0  0  0  0
   -0.8532    1.3867    4.2533 C   0  0  0  0  0  0  0  0  0  0  0  0
    0.6087    1.5634    3.9467 C   0  0  0  0  0  0  0  0  0  0  0  0
    1.3503    0.4440    4.6507 C   0  0  0  0  0  0  0  0  0  0  0  0
    0.6703   -0.8510    4.1818 C   0  0  0  0  0  0  0  0  0  0  0  0
   -0.6442   -0.9287    4.8909 C   0  0  0  0  0  0  0  0  0  0  0  0
    1.5038   -1.9491    4.3898 O   0  0  0  0  0  0  0  0  0  0  0  0
    2.7188   -2.0256    3.7249 C   0  0  0  0  0  0  0  0  0  0  0  0
    3.0319   -1.0580    2.9736 O   0  0  0  0  0  0  0  0  0  0  0  0
    3.6412   -3.1884    3.8702 C   0  0  0  0  0  0  0  0  0  0  0  0
    4.0203   -3.7457    2.5453 C   0  0  0  0  0  0  0  0  0  0  0  0
    3.4318   -4.8793    2.0261 C   0  0  0  0  0  0  0  0  0  0  0  0
    3.7756   -5.4086    0.7991 C   0  0  0  0  0  0  0  0  0  0  0  0
    4.7375   -4.8088    0.0386 C   0  0  0  0  0  0  0  0  0  0  0  0
    5.3396   -3.6720    0.5403 C   0  0  0  0  0  0  0  0  0  0  0  0
    4.9981   -3.1413    1.7653 C   0  0  0  0  0  0  0  0  0  0  0  0
    4.8051   -2.9080    4.7220 C   0  0  0  0  0  0  0  0  0  0  0  0
    5.4508   -3.9268    5.3597 C   0  0  0  0  0  0  0  0  0  0  0  0
    6.5608   -3.6908    6.1798 C   0  0  0  0  0  0  0  0  0  0  0  0
    6.9788   -2.3988    6.3216 C   0  0  0  0  0  0  0  0  0  0  0  0
    6.3547   -1.3622    5.6982 C   0  0  0  0  0  0  0  0  0  0  0  0
    5.2460   -1.6284    4.8833 C   0  0  0  0  0  0  0  0  0  0  0  0
    2.9295   -4.2106    4.5481 O   0  0  0  0  0  0  0  0  0  0  0  0
  1  2  1  0
  2  3  1  0
  3  4  1  0
  4  5  1  0
  5  6  1  0
  6  7  1  0
  7  8  1  0
  7  9  1  0
  9 10  1  0
 10 11  2  0
 10 12  1  0
 12 13  1  0
 13 14  2  0
 14 15  1  0
 15 16  2  0
 16 17  1  0
 17 18  2  0
 12 19  1  0
 19 20  2  0
 20 21  1  0
 21 22  2  0
 22 23  1  0
 23 24  2  0
 12 25  1  0
  6  1  1  0
  8  3  1  0
 18 13  1  0
 24 19  1  0
M  END
$$$$
