
     RDKit          3D

 25 28  0  0  0  0  0  0  0  0999 V2000
    0.9734    0.0168    6.5436 C   0  0  0  0  0  0  0  0  0  0  0  0
   -0.4969   -0.1787    6.2827 C   0  0  0  0  0  0  0  0  0  0  0  0
   -0.7197   -0.0666    4.8542 N   0  0  0  0  0  0  0  0  0  0  0  0
   -0.5357    1.3281    4.4743 C   0  0  0  0  0  0  0  0  0  0  0  0
    0.8129    1.8465    4.8925 C   0  0  0  0  0  0  0  0  0  0  0  0
    1.6335    0.6500    5.3326 C   0  0  0  0  0  0  0  0  0  0  0  0
    1.5772   -0.3357    4.1559 C   0  0  0  0  0  0  0  0  0  0  0  0
    0.2107   -0.9436    4.1680 C   0  0  0  0  0  0  0  0  0  0  0  0
    2.6197   -1.2581    4.2347 O   0  0  0  0  0  0  0  0  0  0  0  0
    3.6391   -1.2252    3.2946 C   0  0  0  0  0  0  0  0  0  0  0  0
    3.5966   -0.3101    2.4232 O   0  0  0  0  0  0  0  0  0  0  0  0
    4.7549   -2.2147    3.2861 C   0  0  0  0  0  0  0  0  0  0  0  0
    5.1842   -2.5562    4.6677 C   0  0  0  0  0  0  0  0  0  0  0  0
    6.3841   -2.1279    5.1945 C   0  0  0  0  0  0  0  0  0  0  0  0
    6.7959   -2.4394    6.4740 C   0  0  0  0  0  0  0  0  0  0  0  0
    6.0048   -3.2040    7.2821 C   0  0  0  0  0  0  0  0  0  0  0  0
    4.7986   -3.6435    6.7737 C   0  0  0  0  0  0  0  0  0  0  0  0
    4.3850   -3.3338    5.4961 C   0  0  0  0  0  0  0  0  0  0  0  0
    4.4758   -3.4030    2.4683 C   0  0  0  0  0  0  0  0  0  0  0  0
    3.1914   -3.8266    2.2884 C   0  0  0  0  0  0  0  0  0  0  0  0
    2.8941   -4.9566    1.5170 C   0  0  0  0  0  0  0  0  0  0  0  0
    3.9388   -5.6255    0.9467 C   0  0  0  0  0  0  0  0  0  0  0  0
    5.2301   -5.2266    1.1085 C   0  0  0  0  0  0  0  0  0  0  0  0
    5.4978   -4.0918    1.8861 C   0  0  0  0  0  0  0  0  0  0  0  0
    5.8662   -1.5935    2.6614 O   0  0  0  0  0  0  0  0  0  0  0  0
  1  2  1  0
  2  3  1  0
  3  4  1  0
  4  5  1  0
  5  6  1  0
  6  7  1  0
  7  8  1  0
  7  9  1  0
  9 10  1  0
 10 11  2  0
 10 12  1  0
 12 13  1  0
 13 14  2  0
 14 15  1  0
 15 16  2  0
 16 17  1  0
 17 18  2  0
 12 19  1  0
 19 20  2  0
 20 21  1  0
 21 22  2  0
 22 23  1  0
 23 24  2  0
 12 25  1  0
  6  1  1  0
  8  3  1  0
 18 13  1  0
 24 19  1  0
M  END
$$$$
