
     RDKit          3D

 25 28  0  0  0  0  0  0  0  0999 V2000
    0.7237    0.0427    6.4586 C   0  0  0  0  0  0  0  0  0  0  0  0
   -0.7401   -0.1162    6.1417 C   0  0  0  0  0  0  0  0  0  0  0  0
   -0.9059    0.0049    4.7062 N   0  0  0  0  0  0  0  0  0  0  0  0
   -0.6737    1.3956    4.3382 C   0  0  0  0  0  0  0  0  0  0  0  0
    0.6703    1.8798    4.8087 C   0  0  0  0  0  0  0  0  0  0  0  0
    1.4443    0.6625    5.2755 C   0  0  0  0  0  0  0  0  0  0  0  0
    1.4085   -0.3186    4.0942 C   0  0  0  0  0  0  0  0  0  0  0  0
    0.0282   -0.8929    4.0527 C   0  0  0  0  0  0  0  0  0  0  0  0
    2.4245   -1.2664    4.2092 O   0  0  0  0  0  0  0  0  0  0  0  0
    3.6825   -0.9916    3.6934 C   0  0  0  0  0  0  0  0  0  0  0  0
    3.8466    0.1268    3.1270 O   0  0  0  0  0  0  0  0  0  0  0  0
    4.8167   -1.9554    3.7882 C   0  0  0  0  0  0  0  0  0  0  0  0
    4.9149   -2.5411    5.1509 C   0  0  0  0  0  0  0  0  0  0  0  0
    5.8858   -2.1564    6.0510 C   0  0  0  0  0  0  0  0  0  0  0  0
    5.9900   -2.6933    7.3178 C   0  0  0  0  0  0  0  0  0  0  0  0
    5.1090   -3.6505    7.7316 C   0  0  0  0  0  0  0  0  0  0  0  0
    4.1286   -4.0502    6.8452 C   0  0  0  0  0  0  0  0  0  0  0  0
    4.0223   -3.5155    5.5795 C   0  0  0  0  0  0  0  0  0  0  0  0
    4.8062   -2.9758    2.7312 C   0  0  0  0  0  0  0  0  0  0  0  0
    3.6663   -3.2177    2.0214 C   0  0  0  0  0  0  0  0  0  0  0  0
    3.6244   -4.1852    1.0103 C   0  0  0  0  0  0  0  0  0  0  0  0
    4.7697   -4.8836    0.7559 C   0  0  0  0  0  0  0  0  0  0  0  0
    5.9215   -4.6644    1.4472 C   0  0  0  0  0  0  0  0  0  0  0  0
    5.9338   -3.6895    2.4541 C   0  0  0  0  0  0  0  0  0  0  0  0
    6.0126   -1.2230    3.5778 O   0  0  0  0  0  0  0  0  0  0  0  0
  1  2  1  0
  2  3  1  0
  3  4  1  0
  4  5  1  0
  5  6  1  0
  6  7  1  0
  7  8  1  0
  7  9  1  0
  9 10  1  0
 10 11  2  0
 10 12  1  0
 12 13  1  0
 13 14  2  0
 14 15  1  0
 15 16  2  0
 16 17  1  0
 17 18  2  0
 12 19  1  0
 19 20  2  0
 20 21  1  0
 21 22  2  0
 22 23  1  0
 23 24  2  0
 12 25  1  0
  6  1  1  0
  8  3  1  0
 18 13  1  0
 24 19  1  0
M  END
$$$$
