
     RDKit          3D

 25 28  0  0  0  0  0  0  0  0999 V2000
   -0.3081   -1.2922    5.1616 C   0  0  0  0  0  0  0  0  0  0  0  0
   -1.2154   -0.4037    4.3521 C   0  0  0  0  0  0  0  0  0  0  0  0
   -0.4508    0.7524    3.9259 N   0  0  0  0  0  0  0  0  0  0  0  0
   -0.1925    1.5820    5.0957 C   0  0  0  0  0  0  0  0  0  0  0  0
    0.4904    0.8070    6.1890 C   0  0  0  0  0  0  0  0  0  0  0  0
    0.9239   -0.5178    5.5923 C   0  0  0  0  0  0  0  0  0  0  0  0
    1.7488   -0.1523    4.3492 C   0  0  0  0  0  0  0  0  0  0  0  0
    0.7772    0.2942    3.3034 C   0  0  0  0  0  0  0  0  0  0  0  0
    2.5606   -1.2187    3.9649 O   0  0  0  0  0  0  0  0  0  0  0  0
    3.8981   -0.9942    3.6736 C   0  0  0  0  0  0  0  0  0  0  0  0
    4.2861    0.2077    3.6145 O   0  0  0  0  0  0  0  0  0  0  0  0
    4.8648   -2.1046    3.4357 C   0  0  0  0  0  0  0  0  0  0  0  0
    5.3855   -2.6507    4.7165 C   0  0  0  0  0  0  0  0  0  0  0  0
    4.5599   -3.2004    5.6740 C   0  0  0  0  0  0  0  0  0  0  0  0
    5.0294   -3.7086    6.8678 C   0  0  0  0  0  0  0  0  0  0  0  0
    6.3655   -3.6822    7.1462 C   0  0  0  0  0  0  0  0  0  0  0  0
    7.2101   -3.1358    6.2003 C   0  0  0  0  0  0  0  0  0  0  0  0
    6.7437   -2.6276    5.0073 C   0  0  0  0  0  0  0  0  0  0  0  0
    4.3462   -3.1493    2.5422 C   0  0  0  0  0  0  0  0  0  0  0  0
    4.9669   -3.4080    1.3551 C   0  0  0  0  0  0  0  0  0  0  0  0
    4.4949   -4.3952    0.4816 C   0  0  0  0  0  0  0  0  0  0  0  0
    3.3854   -5.0955    0.8593 C   0  0  0  0  0  0  0  0  0  0  0  0
    2.7452   -4.8597    2.0371 C   0  0  0  0  0  0  0  0  0  0  0  0
    3.2403   -3.8653    2.8916 C   0  0  0  0  0  0  0  0  0  0  0  0
    5.9782   -1.5562    2.7498 O   0  0  0  0  0  0  0  0  0  0  0  0
  1  2  1  0
  2  3  1  0
  3  4  1  0
  4  5  1  0
  5  6  1  0
  6  7  1  0
  7  8  1  0
  7  9  1  0
  9 10  1  0
 10 11  2  0
 10 12  1  0
 12 13  1  0
 13 14  2  0
 14 15  1  0
 15 16  2  0
 16 17  1  0
 17 18  2  0
 12 19  1  0
 19 20  2  0
 20 21  1  0
 21 22  2  0
 22 23  1  0
 23 24  2  0
 12 25  1  0
  6  1  1  0
  8  3  1  0
 18 13  1  0
 24 19  1  0
M  END
$$$$
