
     RDKit          3D

 25 28  0  0  0  0  0  0  0  0999 V2000
   -0.5501   -0.5221    3.3911 C   0  0  0  0  0  0  0  0  0  0  0  0
   -0.4887    0.9820    3.3456 C   0  0  0  0  0  0  0  0  0  0  0  0
    0.2588    1.4374    4.5017 N   0  0  0  0  0  0  0  0  0  0  0  0
   -0.5571    1.2113    5.6877 C   0  0  0  0  0  0  0  0  0  0  0  0
   -0.9851   -0.2260    5.8042 C   0  0  0  0  0  0  0  0  0  0  0  0
   -0.1889   -1.0124    4.7812 C   0  0  0  0  0  0  0  0  0  0  0  0
    1.2825   -0.6765    5.0667 C   0  0  0  0  0  0  0  0  0  0  0  0
    1.5139    0.7114    4.5597 C   0  0  0  0  0  0  0  0  0  0  0  0
    2.1247   -1.6405    4.5142 O   0  0  0  0  0  0  0  0  0  0  0  0
    3.4611   -1.6790    4.8840 C   0  0  0  0  0  0  0  0  0  0  0  0
    3.9047   -0.7082    5.5618 O   0  0  0  0  0  0  0  0  0  0  0  0
    4.3639   -2.8067    4.5134 C   0  0  0  0  0  0  0  0  0  0  0  0
    3.6093   -4.0803    4.3777 C   0  0  0  0  0  0  0  0  0  0  0  0
    2.8605   -4.3785    3.2591 C   0  0  0  0  0  0  0  0  0  0  0  0
    2.1535   -5.5553    3.1211 C   0  0  0  0  0  0  0  0  0  0  0  0
    2.1740   -6.4886    4.1171 C   0  0  0  0  0  0  0  0  0  0  0  0
    2.9180   -6.2095    5.2464 C   0  0  0  0  0  0  0  0  0  0  0  0
    3.6250   -5.0350    5.3867 C   0  0  0  0  0  0  0  0  0  0  0  0
    5.2080   -2.5198    3.3455 C   0  0  0  0  0  0  0  0  0  0  0  0
    6.5671   -2.5806    3.4488 C   0  0  0  0  0  0  0  0  0  0  0  0
    7.3976   -2.3100    2.3546 C   0  0  0  0  0  0  0  0  0  0  0  0
    6.7988   -1.9812    1.1725 C   0  0  0  0  0  0  0  0  0  0  0  0
    5.4460   -1.9126    1.0393 C   0  0  0  0  0  0  0  0  0  0  0  0
    4.6395   -2.1886    2.1519 C   0  0  0  0  0  0  0  0  0  0  0  0
    5.2734   -2.9902    5.5858 O   0  0  0  0  0  0  0  0  0  0  0  0
  1  2  1  0
  2  3  1  0
  3  4  1  0
  4  5  1  0
  5  6  1  0
  6  7  1  0
  7  8  1  0
  7  9  1  0
  9 10  1  0
 10 11  2  0
 10 12  1  0
 12 13  1  0
 13 14  2  0
 14 15  1  0
 15 16  2  0
 16 17  1  0
 17 18  2  0
 12 19  1  0
 19 20  2  0
 20 21  1  0
 21 22  2  0
 22 23  1  0
 23 24  2  0
 12 25  1  0
  6  1  1  0
  8  3  1  0
 18 13  1  0
 24 19  1  0
M  END
$$$$
