
     RDKit          3D

 25 28  0  0  0  0  0  0  0  0999 V2000
    0.3230   -0.3084    6.3529 C   0  0  0  0  0  0  0  0  0  0  0  0
   -0.9882   -0.2442    5.6147 C   0  0  0  0  0  0  0  0  0  0  0  0
   -0.7334    0.2862    4.2894 N   0  0  0  0  0  0  0  0  0  0  0  0
   -0.4001    1.6985    4.4220 C   0  0  0  0  0  0  0  0  0  0  0  0
    0.7534    1.9130    5.3632 C   0  0  0  0  0  0  0  0  0  0  0  0
    1.3559    0.5511    5.6476 C   0  0  0  0  0  0  0  0  0  0  0  0
    1.6580   -0.0549    4.2689 C   0  0  0  0  0  0  0  0  0  0  0  0
    0.3460   -0.4720    3.6846 C   0  0  0  0  0  0  0  0  0  0  0  0
    2.5945   -1.0822    4.3760 O   0  0  0  0  0  0  0  0  0  0  0  0
    3.6737   -1.1221    3.5055 C   0  0  0  0  0  0  0  0  0  0  0  0
    3.7646   -0.1957    2.6499 O   0  0  0  0  0  0  0  0  0  0  0  0
    4.7028   -2.2005    3.5522 C   0  0  0  0  0  0  0  0  0  0  0  0
    5.0266   -2.5775    4.9532 C   0  0  0  0  0  0  0  0  0  0  0  0
    4.1954   -3.3714    5.7145 C   0  0  0  0  0  0  0  0  0  0  0  0
    4.4824   -3.7269    7.0164 C   0  0  0  0  0  0  0  0  0  0  0  0
    5.6323   -3.2906    7.6089 C   0  0  0  0  0  0  0  0  0  0  0  0
    6.4789   -2.4940    6.8636 C   0  0  0  0  0  0  0  0  0  0  0  0
    6.1946   -2.1377    5.5632 C   0  0  0  0  0  0  0  0  0  0  0  0
    4.3713   -3.3611    2.7143 C   0  0  0  0  0  0  0  0  0  0  0  0
    3.0731   -3.7548    2.5689 C   0  0  0  0  0  0  0  0  0  0  0  0
    2.7263   -4.8579    1.7795 C   0  0  0  0  0  0  0  0  0  0  0  0
    3.7368   -5.5315    1.1555 C   0  0  0  0  0  0  0  0  0  0  0  0
    5.0408   -5.1621    1.2819 C   0  0  0  0  0  0  0  0  0  0  0  0
    5.3582   -4.0537    2.0787 C   0  0  0  0  0  0  0  0  0  0  0  0
    5.8939   -1.6730    2.9919 O   0  0  0  0  0  0  0  0  0  0  0  0
  1  2  1  0
  2  3  1  0
  3  4  1  0
  4  5  1  0
  5  6  1  0
  6  7  1  0
  7  8  1  0
  7  9  1  0
  9 10  1  0
 10 11  2  0
 10 12  1  0
 12 13  1  0
 13 14  2  0
 14 15  1  0
 15 16  2  0
 16 17  1  0
 17 18  2  0
 12 19  1  0
 19 20  2  0
 20 21  1  0
 21 22  2  0
 22 23  1  0
 23 24  2  0
 12 25  1  0
  6  1  1  0
  8  3  1  0
 18 13  1  0
 24 19  1  0
M  END
$$$$
