
     RDKit          3D

 25 28  0  0  0  0  0  0  0  0999 V2000
    0.5220   -0.9027    6.1271 C   0  0  0  0  0  0  0  0  0  0  0  0
   -0.8252   -0.5805    5.5359 C   0  0  0  0  0  0  0  0  0  0  0  0
   -0.6147    0.2186    4.3443 N   0  0  0  0  0  0  0  0  0  0  0  0
   -0.1512    1.5368    4.7579 C   0  0  0  0  0  0  0  0  0  0  0  0
    1.0772    1.4501    5.6215 C   0  0  0  0  0  0  0  0  0  0  0  0
    1.5763    0.0205    5.5445 C   0  0  0  0  0  0  0  0  0  0  0  0
    1.7310   -0.2751    4.0452 C   0  0  0  0  0  0  0  0  0  0  0  0
    0.3513   -0.4554    3.4969 C   0  0  0  0  0  0  0  0  0  0  0  0
    2.5794   -1.3627    3.8418 O   0  0  0  0  0  0  0  0  0  0  0  0
    3.8630   -1.1525    3.3600 C   0  0  0  0  0  0  0  0  0  0  0  0
    4.1651    0.0226    3.0045 O   0  0  0  0  0  0  0  0  0  0  0  0
    4.8697   -2.2478    3.2542 C   0  0  0  0  0  0  0  0  0  0  0  0
    5.3280   -2.6913    4.5970 C   0  0  0  0  0  0  0  0  0  0  0  0
    4.6136   -3.5894    5.3609 C   0  0  0  0  0  0  0  0  0  0  0  0
    5.0261   -4.0077    6.6095 C   0  0  0  0  0  0  0  0  0  0  0  0
    6.1888   -3.5312    7.1429 C   0  0  0  0  0  0  0  0  0  0  0  0
    6.9197   -2.6304    6.3939 C   0  0  0  0  0  0  0  0  0  0  0  0
    6.5100   -2.2111    5.1467 C   0  0  0  0  0  0  0  0  0  0  0  0
    4.4308   -3.3648    2.4067 C   0  0  0  0  0  0  0  0  0  0  0  0
    5.2868   -3.9145    1.4973 C   0  0  0  0  0  0  0  0  0  0  0  0
    4.8969   -4.9777    0.6740 C   0  0  0  0  0  0  0  0  0  0  0  0
    3.6232   -5.4498    0.8118 C   0  0  0  0  0  0  0  0  0  0  0  0
    2.7473   -4.9218    1.7099 C   0  0  0  0  0  0  0  0  0  0  0  0
    3.1653   -3.8579    2.5209 C   0  0  0  0  0  0  0  0  0  0  0  0
    6.0072   -1.7145    2.5965 O   0  0  0  0  0  0  0  0  0  0  0  0
  1  2  1  0
  2  3  1  0
  3  4  1  0
  4  5  1  0
  5  6  1  0
  6  7  1  0
  7  8  1  0
  7  9  1  0
  9 10  1  0
 10 11  2  0
 10 12  1  0
 12 13  1  0
 13 14  2  0
 14 15  1  0
 15 16  2  0
 16 17  1  0
 17 18  2  0
 12 19  1  0
 19 20  2  0
 20 21  1  0
 21 22  2  0
 22 23  1  0
 23 24  2  0
 12 25  1  0
  6  1  1  0
  8  3  1  0
 18 13  1  0
 24 19  1  0
M  END
$$$$
