
     RDKit          3D

 25 28  0  0  0  0  0  0  0  0999 V2000
    0.0480   -0.8938    5.8111 C   0  0  0  0  0  0  0  0  0  0  0  0
   -1.0362   -0.4773    4.8523 C   0  0  0  0  0  0  0  0  0  0  0  0
   -0.4659    0.4647    3.9089 N   0  0  0  0  0  0  0  0  0  0  0  0
   -0.2022    1.7115    4.6156 C   0  0  0  0  0  0  0  0  0  0  0  0
    0.6733    1.4955    5.8194 C   0  0  0  0  0  0  0  0  0  0  0  0
    1.2094    0.0799    5.7325 C   0  0  0  0  0  0  0  0  0  0  0  0
    1.8596   -0.0232    4.3447 C   0  0  0  0  0  0  0  0  0  0  0  0
    0.7445   -0.1100    3.3518 C   0  0  0  0  0  0  0  0  0  0  0  0
    2.7574   -1.0889    4.2985 O   0  0  0  0  0  0  0  0  0  0  0  0
    3.9261   -0.9717    3.5606 C   0  0  0  0  0  0  0  0  0  0  0  0
    4.1142    0.1130    2.9386 O   0  0  0  0  0  0  0  0  0  0  0  0
    4.9399   -2.0627    3.4847 C   0  0  0  0  0  0  0  0  0  0  0  0
    5.2810   -2.5777    4.8368 C   0  0  0  0  0  0  0  0  0  0  0  0
    4.4038   -3.3396    5.5790 C   0  0  0  0  0  0  0  0  0  0  0  0
    4.7064   -3.8219    6.8358 C   0  0  0  0  0  0  0  0  0  0  0  0
    5.9197   -3.5518    7.4003 C   0  0  0  0  0  0  0  0  0  0  0  0
    6.8132   -2.7901    6.6735 C   0  0  0  0  0  0  0  0  0  0  0  0
    6.5134   -2.3073    5.4181 C   0  0  0  0  0  0  0  0  0  0  0  0
    4.5781   -3.1322    2.5445 C   0  0  0  0  0  0  0  0  0  0  0  0
    3.2860   -3.2738    2.1297 C   0  0  0  0  0  0  0  0  0  0  0  0
    2.9100   -4.2846    1.2368 C   0  0  0  0  0  0  0  0  0  0  0  0
    3.8855   -5.1298    0.7915 C   0  0  0  0  0  0  0  0  0  0  0  0
    5.1824   -5.0131    1.1877 C   0  0  0  0  0  0  0  0  0  0  0  0
    5.5296   -3.9917    2.0825 C   0  0  0  0  0  0  0  0  0  0  0  0
    6.1293   -1.4988    2.9571 O   0  0  0  0  0  0  0  0  0  0  0  0
  1  2  1  0
  2  3  1  0
  3  4  1  0
  4  5  1  0
  5  6  1  0
  6  7  1  0
  7  8  1  0
  7  9  1  0
  9 10  1  0
 10 11  2  0
 10 12  1  0
 12 13  1  0
 13 14  2  0
 14 15  1  0
 15 16  2  0
 16 17  1  0
 17 18  2  0
 12 19  1  0
 19 20  2  0
 20 21  1  0
 21 22  2  0
 22 23  1  0
 23 24  2  0
 12 25  1  0
  6  1  1  0
  8  3  1  0
 18 13  1  0
 24 19  1  0
M  END
$$$$
