
     RDKit          3D

 25 28  0  0  0  0  0  0  0  0999 V2000
   -0.4071   -0.8763    4.8659 C   0  0  0  0  0  0  0  0  0  0  0  0
   -1.1844   -0.0689    3.8598 C   0  0  0  0  0  0  0  0  0  0  0  0
   -0.3487    1.0332    3.4243 N   0  0  0  0  0  0  0  0  0  0  0  0
   -0.2282    1.9757    4.5291 C   0  0  0  0  0  0  0  0  0  0  0  0
    0.2919    1.3114    5.7743 C   0  0  0  0  0  0  0  0  0  0  0  0
    0.7734   -0.0697    5.3748 C   0  0  0  0  0  0  0  0  0  0  0  0
    1.7595    0.1625    4.2202 C   0  0  0  0  0  0  0  0  0  0  0  0
    0.9407    0.5065    3.0169 C   0  0  0  0  0  0  0  0  0  0  0  0
    2.5934   -0.9424    4.0540 O   0  0  0  0  0  0  0  0  0  0  0  0
    3.8446   -0.7787    3.4779 C   0  0  0  0  0  0  0  0  0  0  0  0
    4.1460    0.3766    3.0617 O   0  0  0  0  0  0  0  0  0  0  0  0
    4.8181   -1.9002    3.3414 C   0  0  0  0  0  0  0  0  0  0  0  0
    5.3534   -2.3145    4.6649 C   0  0  0  0  0  0  0  0  0  0  0  0
    6.6696   -2.6829    4.8459 C   0  0  0  0  0  0  0  0  0  0  0  0
    7.1790   -3.0717    6.0678 C   0  0  0  0  0  0  0  0  0  0  0  0
    6.3718   -3.1047    7.1682 C   0  0  0  0  0  0  0  0  0  0  0  0
    5.0497   -2.7395    7.0087 C   0  0  0  0  0  0  0  0  0  0  0  0
    4.5386   -2.3508    5.7894 C   0  0  0  0  0  0  0  0  0  0  0  0
    4.3005   -3.0312    2.5592 C   0  0  0  0  0  0  0  0  0  0  0  0
    4.7069   -3.2178    1.2702 C   0  0  0  0  0  0  0  0  0  0  0  0
    4.2295   -4.2843    0.4989 C   0  0  0  0  0  0  0  0  0  0  0  0
    3.3379   -5.1375    1.0829 C   0  0  0  0  0  0  0  0  0  0  0  0
    2.9143   -4.9767    2.3665 C   0  0  0  0  0  0  0  0  0  0  0  0
    3.4091   -3.8998    3.1147 C   0  0  0  0  0  0  0  0  0  0  0  0
    5.9216   -1.4139    2.5954 O   0  0  0  0  0  0  0  0  0  0  0  0
  1  2  1  0
  2  3  1  0
  3  4  1  0
  4  5  1  0
  5  6  1  0
  6  7  1  0
  7  8  1  0
  7  9  1  0
  9 10  1  0
 10 11  2  0
 10 12  1  0
 12 13  1  0
 13 14  2  0
 14 15  1  0
 15 16  2  0
 16 17  1  0
 17 18  2  0
 12 19  1  0
 19 20  2  0
 20 21  1  0
 21 22  2  0
 22 23  1  0
 23 24  2  0
 12 25  1  0
  6  1  1  0
  8  3  1  0
 18 13  1  0
 24 19  1  0
M  END
$$$$
