
     RDKit          3D

 25 28  0  0  0  0  0  0  0  0999 V2000
   -0.2495   -1.6362    5.4723 C   0  0  0  0  0  0  0  0  0  0  0  0
   -1.3128   -0.9026    4.6980 C   0  0  0  0  0  0  0  0  0  0  0  0
   -0.7270    0.3147    4.1708 N   0  0  0  0  0  0  0  0  0  0  0  0
   -0.4923    1.2247    5.2845 C   0  0  0  0  0  0  0  0  0  0  0  0
    0.3543    0.5905    6.3537 C   0  0  0  0  0  0  0  0  0  0  0  0
    0.9049   -0.7002    5.7793 C   0  0  0  0  0  0  0  0  0  0  0  0
    1.5909   -0.2991    4.4647 C   0  0  0  0  0  0  0  0  0  0  0  0
    0.5021   -0.0230    3.4773 C   0  0  0  0  0  0  0  0  0  0  0  0
    2.4989   -1.2781    4.0635 O   0  0  0  0  0  0  0  0  0  0  0  0
    3.7783   -0.9105    3.6734 C   0  0  0  0  0  0  0  0  0  0  0  0
    4.0332    0.3263    3.6088 O   0  0  0  0  0  0  0  0  0  0  0  0
    4.8332   -1.9099    3.3380 C   0  0  0  0  0  0  0  0  0  0  0  0
    5.4721   -2.4530    4.5654 C   0  0  0  0  0  0  0  0  0  0  0  0
    4.7378   -2.9024    5.6423 C   0  0  0  0  0  0  0  0  0  0  0  0
    5.3177   -3.4065    6.7883 C   0  0  0  0  0  0  0  0  0  0  0  0
    6.6768   -3.4781    6.8948 C   0  0  0  0  0  0  0  0  0  0  0  0
    7.4310   -3.0331    5.8272 C   0  0  0  0  0  0  0  0  0  0  0  0
    6.8543   -2.5292    4.6816 C   0  0  0  0  0  0  0  0  0  0  0  0
    4.3702   -2.9640    2.4251 C   0  0  0  0  0  0  0  0  0  0  0  0
    3.3718   -3.8124    2.8058 C   0  0  0  0  0  0  0  0  0  0  0  0
    2.9111   -4.8280    1.9592 C   0  0  0  0  0  0  0  0  0  0  0  0
    3.4979   -4.9424    0.7317 C   0  0  0  0  0  0  0  0  0  0  0  0
    4.4957   -4.1110    0.3245 C   0  0  0  0  0  0  0  0  0  0  0  0
    4.9365   -3.1033    1.1932 C   0  0  0  0  0  0  0  0  0  0  0  0
    5.8502   -1.2276    2.6232 O   0  0  0  0  0  0  0  0  0  0  0  0
  1  2  1  0
  2  3  1  0
  3  4  1  0
  4  5  1  0
  5  6  1  0
  6  7  1  0
  7  8  1  0
  7  9  1  0
  9 10  1  0
 10 11  2  0
 10 12  1  0
 12 13  1  0
 13 14  2  0
 14 15  1  0
 15 16  2  0
 16 17  1  0
 17 18  2  0
 12 19  1  0
 19 20  2  0
 20 21  1  0
 21 22  2  0
 22 23  1  0
 23 24  2  0
 12 25  1  0
  6  1  1  0
  8  3  1  0
 18 13  1  0
 24 19  1  0
M  END
$$$$
