
     RDKit          3D

 25 28  0  0  0  0  0  0  0  0999 V2000
   -0.4438   -1.2106    5.1654 C   0  0  0  0  0  0  0  0  0  0  0  0
   -1.3026   -0.5046    4.1493 C   0  0  0  0  0  0  0  0  0  0  0  0
   -0.5239    0.5746    3.5733 N   0  0  0  0  0  0  0  0  0  0  0  0
   -0.3587    1.6070    4.5883 C   0  0  0  0  0  0  0  0  0  0  0  0
    0.2548    1.0581    5.8471 C   0  0  0  0  0  0  0  0  0  0  0  0
    0.7453   -0.3412    5.5305 C   0  0  0  0  0  0  0  0  0  0  0  0
    1.6512   -0.1849    4.2999 C   0  0  0  0  0  0  0  0  0  0  0  0
    0.7504    0.0423    3.1278 C   0  0  0  0  0  0  0  0  0  0  0  0
    2.5009   -1.2827    4.1703 O   0  0  0  0  0  0  0  0  0  0  0  0
    3.7352   -1.1279    3.5566 C   0  0  0  0  0  0  0  0  0  0  0  0
    4.0178    0.0171    3.1007 O   0  0  0  0  0  0  0  0  0  0  0  0
    4.7119   -2.2472    3.4250 C   0  0  0  0  0  0  0  0  0  0  0  0
    5.2267   -2.6733    4.7529 C   0  0  0  0  0  0  0  0  0  0  0  0
    6.5728   -2.8286    5.0071 C   0  0  0  0  0  0  0  0  0  0  0  0
    7.0641   -3.2258    6.2338 C   0  0  0  0  0  0  0  0  0  0  0  0
    6.2073   -3.4850    7.2644 C   0  0  0  0  0  0  0  0  0  0  0  0
    4.8546   -3.3356    7.0308 C   0  0  0  0  0  0  0  0  0  0  0  0
    4.3614   -2.9390    5.8067 C   0  0  0  0  0  0  0  0  0  0  0  0
    4.2080   -3.3712    2.6242 C   0  0  0  0  0  0  0  0  0  0  0  0
    4.7773   -3.6659    1.4197 C   0  0  0  0  0  0  0  0  0  0  0  0
    4.3176   -4.7288    0.6328 C   0  0  0  0  0  0  0  0  0  0  0  0
    3.2737   -5.4659    1.1135 C   0  0  0  0  0  0  0  0  0  0  0  0
    2.6859   -5.1956    2.3110 C   0  0  0  0  0  0  0  0  0  0  0  0
    3.1671   -4.1254    3.0773 C   0  0  0  0  0  0  0  0  0  0  0  0
    5.8266   -1.7528    2.7011 O   0  0  0  0  0  0  0  0  0  0  0  0
  1  2  1  0
  2  3  1  0
  3  4  1  0
  4  5  1  0
  5  6  1  0
  6  7  1  0
  7  8  1  0
  7  9  1  0
  9 10  1  0
 10 11  2  0
 10 12  1  0
 12 13  1  0
 13 14  2  0
 14 15  1  0
 15 16  2  0
 16 17  1  0
 17 18  2  0
 12 19  1  0
 19 20  2  0
 20 21  1  0
 21 22  2  0
 22 23  1  0
 23 24  2  0
 12 25  1  0
  6  1  1  0
  8  3  1  0
 18 13  1  0
 24 19  1  0
M  END
$$$$
