
     RDKit          3D

 25 28  0  0  0  0  0  0  0  0999 V2000
    1.0361    1.5749    5.4303 C   0  0  0  0  0  0  0  0  0  0  0  0
    0.3693    1.4965    6.7784 C   0  0  0  0  0  0  0  0  0  0  0  0
   -0.1756    0.1618    6.9345 N   0  0  0  0  0  0  0  0  0  0  0  0
   -1.3137    0.0281    6.0344 C   0  0  0  0  0  0  0  0  0  0  0  0
   -0.9381    0.3375    4.6111 C   0  0  0  0  0  0  0  0  0  0  0  0
    0.5748    0.4222    4.5577 C   0  0  0  0  0  0  0  0  0  0  0  0
    1.0766   -0.8981    5.1613 C   0  0  0  0  0  0  0  0  0  0  0  0
    0.8667   -0.8036    6.6391 C   0  0  0  0  0  0  0  0  0  0  0  0
    2.3949   -1.1450    4.7805 O   0  0  0  0  0  0  0  0  0  0  0  0
    2.6535   -1.8205    3.5969 C   0  0  0  0  0  0  0  0  0  0  0  0
    1.6883   -1.9791    2.7956 O   0  0  0  0  0  0  0  0  0  0  0  0
    4.0050   -2.3496    3.2537 C   0  0  0  0  0  0  0  0  0  0  0  0
    4.8288   -2.5580    4.4734 C   0  0  0  0  0  0  0  0  0  0  0  0
    4.5546   -3.5528    5.3877 C   0  0  0  0  0  0  0  0  0  0  0  0
    5.3093   -3.7559    6.5248 C   0  0  0  0  0  0  0  0  0  0  0  0
    6.3827   -2.9545    6.7877 C   0  0  0  0  0  0  0  0  0  0  0  0
    6.6747   -1.9518    5.8844 C   0  0  0  0  0  0  0  0  0  0  0  0
    5.9226   -1.7469    4.7481 C   0  0  0  0  0  0  0  0  0  0  0  0
    3.9655   -3.5346    2.3860 C   0  0  0  0  0  0  0  0  0  0  0  0
    4.8973   -3.6971    1.4027 C   0  0  0  0  0  0  0  0  0  0  0  0
    4.8841   -4.8140    0.5585 C   0  0  0  0  0  0  0  0  0  0  0  0
    3.9014   -5.7418    0.7529 C   0  0  0  0  0  0  0  0  0  0  0  0
    2.9586   -5.6066    1.7252 C   0  0  0  0  0  0  0  0  0  0  0  0
    2.9966   -4.4781    2.5554 C   0  0  0  0  0  0  0  0  0  0  0  0
    4.6656   -1.3564    2.4868 O   0  0  0  0  0  0  0  0  0  0  0  0
  1  2  1  0
  2  3  1  0
  3  4  1  0
  4  5  1  0
  5  6  1  0
  6  7  1  0
  7  8  1  0
  7  9  1  0
  9 10  1  0
 10 11  2  0
 10 12  1  0
 12 13  1  0
 13 14  2  0
 14 15  1  0
 15 16  2  0
 16 17  1  0
 17 18  2  0
 12 19  1  0
 19 20  2  0
 20 21  1  0
 21 22  2  0
 22 23  1  0
 23 24  2  0
 12 25  1  0
  6  1  1  0
  8  3  1  0
 18 13  1  0
 24 19  1  0
M  END
$$$$
