
     RDKit          3D

 25 28  0  0  0  0  0  0  0  0999 V2000
    0.9353   -0.4445    5.7786 C   0  0  0  0  0  0  0  0  0  0  0  0
   -0.5328   -0.2838    5.4837 C   0  0  0  0  0  0  0  0  0  0  0  0
   -0.6650    0.3372    4.1799 N   0  0  0  0  0  0  0  0  0  0  0  0
   -0.2331    1.7243    4.2920 C   0  0  0  0  0  0  0  0  0  0  0  0
    1.1614    1.8310    4.8456 C   0  0  0  0  0  0  0  0  0  0  0  0
    1.7490    0.4333    4.8457 C   0  0  0  0  0  0  0  0  0  0  0  0
    1.5857   -0.0756    3.4057 C   0  0  0  0  0  0  0  0  0  0  0  0
    0.1381   -0.4063    3.2270 C   0  0  0  0  0  0  0  0  0  0  0  0
    2.4550   -1.1368    3.1560 O   0  0  0  0  0  0  0  0  0  0  0  0
    3.8242   -0.9149    3.1412 C   0  0  0  0  0  0  0  0  0  0  0  0
    4.2179    0.2865    3.1273 O   0  0  0  0  0  0  0  0  0  0  0  0
    4.8173   -2.0274    3.1423 C   0  0  0  0  0  0  0  0  0  0  0  0
    5.2433   -2.3695    4.5249 C   0  0  0  0  0  0  0  0  0  0  0  0
    4.3416   -2.5388    5.5540 C   0  0  0  0  0  0  0  0  0  0  0  0
    4.7232   -2.8540    6.8420 C   0  0  0  0  0  0  0  0  0  0  0  0
    6.0444   -3.0125    7.1464 C   0  0  0  0  0  0  0  0  0  0  0  0
    6.9642   -2.8472    6.1299 C   0  0  0  0  0  0  0  0  0  0  0  0
    6.5857   -2.5325    4.8428 C   0  0  0  0  0  0  0  0  0  0  0  0
    4.3796   -3.2022    2.3762 C   0  0  0  0  0  0  0  0  0  0  0  0
    3.5649   -4.1330    2.9520 C   0  0  0  0  0  0  0  0  0  0  0  0
    3.1333   -5.2641    2.2485 C   0  0  0  0  0  0  0  0  0  0  0  0
    3.5572   -5.4060    0.9584 C   0  0  0  0  0  0  0  0  0  0  0  0
    4.3698   -4.4941    0.3577 C   0  0  0  0  0  0  0  0  0  0  0  0
    4.7861   -3.3717    1.0864 C   0  0  0  0  0  0  0  0  0  0  0  0
    5.9748   -1.5617    2.4683 O   0  0  0  0  0  0  0  0  0  0  0  0
  1  2  1  0
  2  3  1  0
  3  4  1  0
  4  5  1  0
  5  6  1  0
  6  7  1  0
  7  8  1  0
  7  9  1  0
  9 10  1  0
 10 11  2  0
 10 12  1  0
 12 13  1  0
 13 14  2  0
 14 15  1  0
 15 16  2  0
 16 17  1  0
 17 18  2  0
 12 19  1  0
 19 20  2  0
 20 21  1  0
 21 22  2  0
 22 23  1  0
 23 24  2  0
 12 25  1  0
  6  1  1  0
  8  3  1  0
 18 13  1  0
 24 19  1  0
M  END
$$$$
