
     RDKit          3D

 25 28  0  0  0  0  0  0  0  0999 V2000
    1.1516   -1.0881    7.1004 C   0  0  0  0  0  0  0  0  0  0  0  0
   -0.3444   -1.2580    7.1368 C   0  0  0  0  0  0  0  0  0  0  0  0
   -0.8897   -0.7118    5.9091 N   0  0  0  0  0  0  0  0  0  0  0  0
   -0.7562    0.7383    5.9588 C   0  0  0  0  0  0  0  0  0  0  0  0
    0.6680    1.1592    6.1975 C   0  0  0  0  0  0  0  0  0  0  0  0
    1.5312   -0.0766    6.0347 C   0  0  0  0  0  0  0  0  0  0  0  0
    1.1724   -0.6430    4.6527 C   0  0  0  0  0  0  0  0  0  0  0  0
   -0.1718   -1.2850    4.7858 C   0  0  0  0  0  0  0  0  0  0  0  0
    2.1758   -1.4950    4.1932 O   0  0  0  0  0  0  0  0  0  0  0  0
    3.4095   -0.9729    3.8334 C   0  0  0  0  0  0  0  0  0  0  0  0
    3.5268    0.2859    3.8222 O   0  0  0  0  0  0  0  0  0  0  0  0
    4.5707   -1.8354    3.4700 C   0  0  0  0  0  0  0  0  0  0  0  0
    5.2621   -2.3486    4.6818 C   0  0  0  0  0  0  0  0  0  0  0  0
    4.8093   -2.0846    5.9569 C   0  0  0  0  0  0  0  0  0  0  0  0
    5.4424   -2.5524    7.0901 C   0  0  0  0  0  0  0  0  0  0  0  0
    6.5702   -3.3138    6.9807 C   0  0  0  0  0  0  0  0  0  0  0  0
    7.0406   -3.5900    5.7123 C   0  0  0  0  0  0  0  0  0  0  0  0
    6.4101   -3.1240    4.5790 C   0  0  0  0  0  0  0  0  0  0  0  0
    4.2316   -2.9002    2.5161 C   0  0  0  0  0  0  0  0  0  0  0  0
    3.5418   -4.0012    2.9326 C   0  0  0  0  0  0  0  0  0  0  0  0
    3.2065   -5.0335    2.0480 C   0  0  0  0  0  0  0  0  0  0  0  0
    3.5952   -4.9012    0.7459 C   0  0  0  0  0  0  0  0  0  0  0  0
    4.2842   -3.8147    0.3015 C   0  0  0  0  0  0  0  0  0  0  0  0
    4.6061   -2.7969    1.2097 C   0  0  0  0  0  0  0  0  0  0  0  0
    5.5075   -1.0180    2.7881 O   0  0  0  0  0  0  0  0  0  0  0  0
  1  2  1  0
  2  3  1  0
  3  4  1  0
  4  5  1  0
  5  6  1  0
  6  7  1  0
  7  8  1  0
  7  9  1  0
  9 10  1  0
 10 11  2  0
 10 12  1  0
 12 13  1  0
 13 14  2  0
 14 15  1  0
 15 16  2  0
 16 17  1  0
 17 18  2  0
 12 19  1  0
 19 20  2  0
 20 21  1  0
 21 22  2  0
 22 23  1  0
 23 24  2  0
 12 25  1  0
  6  1  1  0
  8  3  1  0
 18 13  1  0
 24 19  1  0
M  END
$$$$
