
     RDKit          3D

 25 28  0  0  0  0  0  0  0  0999 V2000
    1.0409   -0.4191    6.7378 C   0  0  0  0  0  0  0  0  0  0  0  0
   -0.4129   -0.6376    6.4111 C   0  0  0  0  0  0  0  0  0  0  0  0
   -0.6087   -0.3384    5.0058 N   0  0  0  0  0  0  0  0  0  0  0  0
   -0.4792    1.1018    4.8260 C   0  0  0  0  0  0  0  0  0  0  0  0
    0.8350    1.6130    5.3493 C   0  0  0  0  0  0  0  0  0  0  0  0
    1.6987    0.4022    5.6442 C   0  0  0  0  0  0  0  0  0  0  0  0
    1.7130   -0.4128    4.3424 C   0  0  0  0  0  0  0  0  0  0  0  0
    0.3753   -1.0728    4.2324 C   0  0  0  0  0  0  0  0  0  0  0  0
    2.7939   -1.2932    4.3234 O   0  0  0  0  0  0  0  0  0  0  0  0
    3.7427   -1.1951    3.3162 C   0  0  0  0  0  0  0  0  0  0  0  0
    3.6704   -0.1956    2.5452 O   0  0  0  0  0  0  0  0  0  0  0  0
    4.8180   -2.2106    3.1252 C   0  0  0  0  0  0  0  0  0  0  0  0
    5.4828   -2.5418    4.4129 C   0  0  0  0  0  0  0  0  0  0  0  0
    6.4802   -1.7568    4.9514 C   0  0  0  0  0  0  0  0  0  0  0  0
    7.1072   -2.0536    6.1441 C   0  0  0  0  0  0  0  0  0  0  0  0
    6.7491   -3.1665    6.8489 C   0  0  0  0  0  0  0  0  0  0  0  0
    5.7520   -3.9665    6.3269 C   0  0  0  0  0  0  0  0  0  0  0  0
    5.1242   -3.6723    5.1360 C   0  0  0  0  0  0  0  0  0  0  0  0
    4.3712   -3.4040    2.3937 C   0  0  0  0  0  0  0  0  0  0  0  0
    5.2084   -4.0220    1.5112 C   0  0  0  0  0  0  0  0  0  0  0  0
    4.8105   -5.1589    0.7975 C   0  0  0  0  0  0  0  0  0  0  0  0
    3.5485   -5.6324    1.0152 C   0  0  0  0  0  0  0  0  0  0  0  0
    2.6914   -5.0371    1.8891 C   0  0  0  0  0  0  0  0  0  0  0  0
    3.1170   -3.9002    2.5895 C   0  0  0  0  0  0  0  0  0  0  0  0
    5.8105   -1.6252    2.2987 O   0  0  0  0  0  0  0  0  0  0  0  0
  1  2  1  0
  2  3  1  0
  3  4  1  0
  4  5  1  0
  5  6  1  0
  6  7  1  0
  7  8  1  0
  7  9  1  0
  9 10  1  0
 10 11  2  0
 10 12  1  0
 12 13  1  0
 13 14  2  0
 14 15  1  0
 15 16  2  0
 16 17  1  0
 17 18  2  0
 12 19  1  0
 19 20  2  0
 20 21  1  0
 21 22  2  0
 22 23  1  0
 23 24  2  0
 12 25  1  0
  6  1  1  0
  8  3  1  0
 18 13  1  0
 24 19  1  0
M  END
$$$$
