
     RDKit          3D

 25 28  0  0  0  0  0  0  0  0999 V2000
    1.2830    0.0581    6.5567 C   0  0  0  0  0  0  0  0  0  0  0  0
   -0.2142   -0.0938    6.6162 C   0  0  0  0  0  0  0  0  0  0  0  0
   -0.7295   -0.0104    5.2633 N   0  0  0  0  0  0  0  0  0  0  0  0
   -0.5907    1.3671    4.8089 C   0  0  0  0  0  0  0  0  0  0  0  0
    0.8297    1.8498    4.9184 C   0  0  0  0  0  0  0  0  0  0  0  0
    1.6908    0.6376    5.2147 C   0  0  0  0  0  0  0  0  0  0  0  0
    1.3605   -0.3751    4.1080 C   0  0  0  0  0  0  0  0  0  0  0  0
    0.0108   -0.9357    4.4257 C   0  0  0  0  0  0  0  0  0  0  0  0
    2.3700   -1.3301    3.9959 O   0  0  0  0  0  0  0  0  0  0  0  0
    3.5895   -0.9788    3.4360 C   0  0  0  0  0  0  0  0  0  0  0  0
    3.7224    0.2124    3.0334 O   0  0  0  0  0  0  0  0  0  0  0  0
    4.7184   -1.9440    3.3011 C   0  0  0  0  0  0  0  0  0  0  0  0
    5.2708   -2.3177    4.6297 C   0  0  0  0  0  0  0  0  0  0  0  0
    6.3869   -1.7083    5.1624 C   0  0  0  0  0  0  0  0  0  0  0  0
    6.9116   -2.0468    6.3928 C   0  0  0  0  0  0  0  0  0  0  0  0
    6.3246   -3.0245    7.1432 C   0  0  0  0  0  0  0  0  0  0  0  0
    5.2054   -3.6477    6.6279 C   0  0  0  0  0  0  0  0  0  0  0  0
    4.6794   -3.3114    5.3993 C   0  0  0  0  0  0  0  0  0  0  0  0
    4.3918   -3.1129    2.4730 C   0  0  0  0  0  0  0  0  0  0  0  0
    5.2540   -3.5280    1.5005 C   0  0  0  0  0  0  0  0  0  0  0  0
    4.9695   -4.6365    0.6938 C   0  0  0  0  0  0  0  0  0  0  0  0
    3.7928   -5.2930    0.9138 C   0  0  0  0  0  0  0  0  0  0  0  0
    2.9133   -4.9022    1.8763 C   0  0  0  0  0  0  0  0  0  0  0  0
    3.2246   -3.7889    2.6687 C   0  0  0  0  0  0  0  0  0  0  0  0
    5.7603   -1.2814    2.6039 O   0  0  0  0  0  0  0  0  0  0  0  0
  1  2  1  0
  2  3  1  0
  3  4  1  0
  4  5  1  0
  5  6  1  0
  6  7  1  0
  7  8  1  0
  7  9  1  0
  9 10  1  0
 10 11  2  0
 10 12  1  0
 12 13  1  0
 13 14  2  0
 14 15  1  0
 15 16  2  0
 16 17  1  0
 17 18  2  0
 12 19  1  0
 19 20  2  0
 20 21  1  0
 21 22  2  0
 22 23  1  0
 23 24  2  0
 12 25  1  0
  6  1  1  0
  8  3  1  0
 18 13  1  0
 24 19  1  0
M  END
$$$$
