
     RDKit          3D

 25 28  0  0  0  0  0  0  0  0999 V2000
    0.7808    1.7431    5.3321 C   0  0  0  0  0  0  0  0  0  0  0  0
    0.3910    1.5569    6.7748 C   0  0  0  0  0  0  0  0  0  0  0  0
   -0.0541    0.1878    6.9481 N   0  0  0  0  0  0  0  0  0  0  0  0
   -1.3376    0.0391    6.2743 C   0  0  0  0  0  0  0  0  0  0  0  0
   -1.2580    0.4435    4.8278 C   0  0  0  0  0  0  0  0  0  0  0  0
    0.2109    0.6142    4.4929 C   0  0  0  0  0  0  0  0  0  0  0  0
    0.8776   -0.7063    4.9065 C   0  0  0  0  0  0  0  0  0  0  0  0
    0.9530   -0.7017    6.4002 C   0  0  0  0  0  0  0  0  0  0  0  0
    2.1071   -0.8596    4.2672 O   0  0  0  0  0  0  0  0  0  0  0  0
    2.4691   -2.0995    3.7615 C   0  0  0  0  0  0  0  0  0  0  0  0
    1.5780   -2.9959    3.7279 O   0  0  0  0  0  0  0  0  0  0  0  0
    3.8454   -2.3943    3.2687 C   0  0  0  0  0  0  0  0  0  0  0  0
    4.7940   -2.5835    4.3974 C   0  0  0  0  0  0  0  0  0  0  0  0
    4.5927   -3.5299    5.3795 C   0  0  0  0  0  0  0  0  0  0  0  0
    5.4636   -3.7146    6.4338 C   0  0  0  0  0  0  0  0  0  0  0  0
    6.5848   -2.9432    6.5403 C   0  0  0  0  0  0  0  0  0  0  0  0
    6.8053   -1.9891    5.5668 C   0  0  0  0  0  0  0  0  0  0  0  0
    5.9372   -1.8027    4.5129 C   0  0  0  0  0  0  0  0  0  0  0  0
    3.8945   -3.4939    2.2955 C   0  0  0  0  0  0  0  0  0  0  0  0
    3.0222   -4.5384    2.3949 C   0  0  0  0  0  0  0  0  0  0  0  0
    3.0461   -5.6019    1.4845 C   0  0  0  0  0  0  0  0  0  0  0  0
    3.9774   -5.5592    0.4870 C   0  0  0  0  0  0  0  0  0  0  0  0
    4.8602   -4.5307    0.3626 C   0  0  0  0  0  0  0  0  0  0  0  0
    4.8130   -3.4797    1.2886 C   0  0  0  0  0  0  0  0  0  0  0  0
    4.2922   -1.2536    2.5545 O   0  0  0  0  0  0  0  0  0  0  0  0
  1  2  1  0
  2  3  1  0
  3  4  1  0
  4  5  1  0
  5  6  1  0
  6  7  1  0
  7  8  1  0
  7  9  1  0
  9 10  1  0
 10 11  2  0
 10 12  1  0
 12 13  1  0
 13 14  2  0
 14 15  1  0
 15 16  2  0
 16 17  1  0
 17 18  2  0
 12 19  1  0
 19 20  2  0
 20 21  1  0
 21 22  2  0
 22 23  1  0
 23 24  2  0
 12 25  1  0
  6  1  1  0
  8  3  1  0
 18 13  1  0
 24 19  1  0
M  END
$$$$
