
     RDKit          3D

 25 28  0  0  0  0  0  0  0  0999 V2000
    0.9097    0.1490    6.2207 C   0  0  0  0  0  0  0  0  0  0  0  0
   -0.5785    0.0291    6.0227 C   0  0  0  0  0  0  0  0  0  0  0  0
   -0.8540    0.1349    4.6030 N   0  0  0  0  0  0  0  0  0  0  0  0
   -0.6123    1.5128    4.1952 C   0  0  0  0  0  0  0  0  0  0  0  0
    0.7780    1.9636    4.5504 C   0  0  0  0  0  0  0  0  0  0  0  0
    1.5517    0.7305    4.9745 C   0  0  0  0  0  0  0  0  0  0  0  0
    1.3945   -0.2656    3.8159 C   0  0  0  0  0  0  0  0  0  0  0  0
   -0.0005   -0.7993    3.8926 C   0  0  0  0  0  0  0  0  0  0  0  0
    2.3891   -1.2413    3.8659 O   0  0  0  0  0  0  0  0  0  0  0  0
    3.4902   -1.1442    3.0278 C   0  0  0  0  0  0  0  0  0  0  0  0
    3.5592   -0.1312    2.2743 O   0  0  0  0  0  0  0  0  0  0  0  0
    4.5666   -2.1759    2.9943 C   0  0  0  0  0  0  0  0  0  0  0  0
    5.1307   -2.4117    4.3493 C   0  0  0  0  0  0  0  0  0  0  0  0
    4.3573   -2.8444    5.4054 C   0  0  0  0  0  0  0  0  0  0  0  0
    4.8673   -3.0649    6.6684 C   0  0  0  0  0  0  0  0  0  0  0  0
    6.1927   -2.8553    6.9190 C   0  0  0  0  0  0  0  0  0  0  0  0
    6.9852   -2.4216    5.8748 C   0  0  0  0  0  0  0  0  0  0  0  0
    6.4783   -2.2006    4.6125 C   0  0  0  0  0  0  0  0  0  0  0  0
    4.1636   -3.4191    2.3230 C   0  0  0  0  0  0  0  0  0  0  0  0
    4.8118   -3.8321    1.1957 C   0  0  0  0  0  0  0  0  0  0  0  0
    4.4491   -5.0106    0.5324 C   0  0  0  0  0  0  0  0  0  0  0  0
    3.4182   -5.7380    1.0542 C   0  0  0  0  0  0  0  0  0  0  0  0
    2.7531   -5.3512    2.1770 C   0  0  0  0  0  0  0  0  0  0  0  0
    3.1381   -4.1668    2.8199 C   0  0  0  0  0  0  0  0  0  0  0  0
    5.6235   -1.6587    2.2028 O   0  0  0  0  0  0  0  0  0  0  0  0
  1  2  1  0
  2  3  1  0
  3  4  1  0
  4  5  1  0
  5  6  1  0
  6  7  1  0
  7  8  1  0
  7  9  1  0
  9 10  1  0
 10 11  2  0
 10 12  1  0
 12 13  1  0
 13 14  2  0
 14 15  1  0
 15 16  2  0
 16 17  1  0
 17 18  2  0
 12 19  1  0
 19 20  2  0
 20 21  1  0
 21 22  2  0
 22 23  1  0
 23 24  2  0
 12 25  1  0
  6  1  1  0
  8  3  1  0
 18 13  1  0
 24 19  1  0
M  END
$$$$
