
     RDKit          3D

 25 28  0  0  0  0  0  0  0  0999 V2000
   -0.2024   -1.1160    5.3116 C   0  0  0  0  0  0  0  0  0  0  0  0
   -1.1546   -0.4148    4.3791 C   0  0  0  0  0  0  0  0  0  0  0  0
   -0.4251    0.6368    3.6974 N   0  0  0  0  0  0  0  0  0  0  0  0
   -0.1327    1.6867    4.6645 C   0  0  0  0  0  0  0  0  0  0  0  0
    0.6050    1.1524    5.8615 C   0  0  0  0  0  0  0  0  0  0  0  0
    1.0341   -0.2625    5.5255 C   0  0  0  0  0  0  0  0  0  0  0  0
    1.8030   -0.1495    4.2006 C   0  0  0  0  0  0  0  0  0  0  0  0
    0.7838    0.0707    3.1284 C   0  0  0  0  0  0  0  0  0  0  0  0
    2.6147   -1.2660    4.0045 O   0  0  0  0  0  0  0  0  0  0  0  0
    3.8339   -1.1245    3.3583 C   0  0  0  0  0  0  0  0  0  0  0  0
    4.1075    0.0119    2.8761 O   0  0  0  0  0  0  0  0  0  0  0  0
    4.8049   -2.2482    3.2220 C   0  0  0  0  0  0  0  0  0  0  0  0
    5.3264   -2.6747    4.5471 C   0  0  0  0  0  0  0  0  0  0  0  0
    6.6214   -2.4215    4.9465 C   0  0  0  0  0  0  0  0  0  0  0  0
    7.1191   -2.8137    6.1723 C   0  0  0  0  0  0  0  0  0  0  0  0
    6.3212   -3.4845    7.0536 C   0  0  0  0  0  0  0  0  0  0  0  0
    5.0203   -3.7484    6.6730 C   0  0  0  0  0  0  0  0  0  0  0  0
    4.5209   -3.3577    5.4495 C   0  0  0  0  0  0  0  0  0  0  0  0
    4.2911   -3.3711    2.4259 C   0  0  0  0  0  0  0  0  0  0  0  0
    4.9152   -3.7347    1.2684 C   0  0  0  0  0  0  0  0  0  0  0  0
    4.4478   -4.7984    0.4871 C   0  0  0  0  0  0  0  0  0  0  0  0
    3.3393   -5.4647    0.9246 C   0  0  0  0  0  0  0  0  0  0  0  0
    2.6958   -5.1248    2.0749 C   0  0  0  0  0  0  0  0  0  0  0  0
    3.1863   -4.0555    2.8366 C   0  0  0  0  0  0  0  0  0  0  0  0
    5.9170   -1.7596    2.4902 O   0  0  0  0  0  0  0  0  0  0  0  0
  1  2  1  0
  2  3  1  0
  3  4  1  0
  4  5  1  0
  5  6  1  0
  6  7  1  0
  7  8  1  0
  7  9  1  0
  9 10  1  0
 10 11  2  0
 10 12  1  0
 12 13  1  0
 13 14  2  0
 14 15  1  0
 15 16  2  0
 16 17  1  0
 17 18  2  0
 12 19  1  0
 19 20  2  0
 20 21  1  0
 21 22  2  0
 22 23  1  0
 23 24  2  0
 12 25  1  0
  6  1  1  0
  8  3  1  0
 18 13  1  0
 24 19  1  0
M  END
$$$$
