
     RDKit          3D

 25 28  0  0  0  0  0  0  0  0999 V2000
    1.2572   -0.2497    6.5163 C   0  0  0  0  0  0  0  0  0  0  0  0
   -0.2469   -0.2737    6.4443 C   0  0  0  0  0  0  0  0  0  0  0  0
   -0.6399    0.1135    5.1033 N   0  0  0  0  0  0  0  0  0  0  0  0
   -0.3595    1.5342    4.9405 C   0  0  0  0  0  0  0  0  0  0  0  0
    1.0794    1.8560    5.2379 C   0  0  0  0  0  0  0  0  0  0  0  0
    1.8182    0.5364    5.3456 C   0  0  0  0  0  0  0  0  0  0  0  0
    1.5052   -0.2115    4.0410 C   0  0  0  0  0  0  0  0  0  0  0  0
    0.0951   -0.6976    4.1507 C   0  0  0  0  0  0  0  0  0  0  0  0
    2.4451   -1.2151    3.8100 O   0  0  0  0  0  0  0  0  0  0  0  0
    3.7775   -0.8787    3.6210 C   0  0  0  0  0  0  0  0  0  0  0  0
    4.0682    0.3515    3.5952 O   0  0  0  0  0  0  0  0  0  0  0  0
    4.8478   -1.9036    3.4529 C   0  0  0  0  0  0  0  0  0  0  0  0
    5.4447   -2.2804    4.7612 C   0  0  0  0  0  0  0  0  0  0  0  0
    4.8566   -3.2004    5.6029 C   0  0  0  0  0  0  0  0  0  0  0  0
    5.3984   -3.5575    6.8206 C   0  0  0  0  0  0  0  0  0  0  0  0
    6.5681   -2.9942    7.2424 C   0  0  0  0  0  0  0  0  0  0  0  0
    7.1737   -2.0701    6.4142 C   0  0  0  0  0  0  0  0  0  0  0  0
    6.6347   -1.7119    5.1976 C   0  0  0  0  0  0  0  0  0  0  0  0
    4.4220   -3.0694    2.6665 C   0  0  0  0  0  0  0  0  0  0  0  0
    3.3051   -3.7673    3.0227 C   0  0  0  0  0  0  0  0  0  0  0  0
    2.8758   -4.8837    2.2949 C   0  0  0  0  0  0  0  0  0  0  0  0
    3.6167   -5.2536    1.2093 C   0  0  0  0  0  0  0  0  0  0  0  0
    4.7351   -4.5770    0.8299 C   0  0  0  0  0  0  0  0  0  0  0  0
    5.1410   -3.4632    1.5776 C   0  0  0  0  0  0  0  0  0  0  0  0
    5.8869   -1.3092    2.6928 O   0  0  0  0  0  0  0  0  0  0  0  0
  1  2  1  0
  2  3  1  0
  3  4  1  0
  4  5  1  0
  5  6  1  0
  6  7  1  0
  7  8  1  0
  7  9  1  0
  9 10  1  0
 10 11  2  0
 10 12  1  0
 12 13  1  0
 13 14  2  0
 14 15  1  0
 15 16  2  0
 16 17  1  0
 17 18  2  0
 12 19  1  0
 19 20  2  0
 20 21  1  0
 21 22  2  0
 22 23  1  0
 23 24  2  0
 12 25  1  0
  6  1  1  0
  8  3  1  0
 18 13  1  0
 24 19  1  0
M  END
$$$$
