
     RDKit          3D

 25 28  0  0  0  0  0  0  0  0999 V2000
    1.3517    0.1815    6.6649 C   0  0  0  0  0  0  0  0  0  0  0  0
   -0.1218   -0.0781    6.8366 C   0  0  0  0  0  0  0  0  0  0  0  0
   -0.7078   -0.2363    5.5196 N   0  0  0  0  0  0  0  0  0  0  0  0
   -0.7120    1.0658    4.8654 C   0  0  0  0  0  0  0  0  0  0  0  0
    0.6645    1.6703    4.8179 C   0  0  0  0  0  0  0  0  0  0  0  0
    1.6415    0.5870    5.2314 C   0  0  0  0  0  0  0  0  0  0  0  0
    1.3472   -0.6008    4.3031 C   0  0  0  0  0  0  0  0  0  0  0  0
    0.0686   -1.2134    4.7793 C   0  0  0  0  0  0  0  0  0  0  0  0
    2.4295   -1.4789    4.2673 O   0  0  0  0  0  0  0  0  0  0  0  0
    3.4818   -1.2378    3.3963 C   0  0  0  0  0  0  0  0  0  0  0  0
    3.3821   -0.2395    2.6269 O   0  0  0  0  0  0  0  0  0  0  0  0
    4.6960   -2.1023    3.3461 C   0  0  0  0  0  0  0  0  0  0  0  0
    5.1396   -2.4899    4.7109 C   0  0  0  0  0  0  0  0  0  0  0  0
    4.7111   -3.6475    5.3250 C   0  0  0  0  0  0  0  0  0  0  0  0
    5.1129   -4.0180    6.5920 C   0  0  0  0  0  0  0  0  0  0  0  0
    5.9726   -3.2266    7.2977 C   0  0  0  0  0  0  0  0  0  0  0  0
    6.4139   -2.0624    6.7008 C   0  0  0  0  0  0  0  0  0  0  0  0
    6.0142   -1.6901    5.4356 C   0  0  0  0  0  0  0  0  0  0  0  0
    4.5555   -3.2552    2.4462 C   0  0  0  0  0  0  0  0  0  0  0  0
    3.3300   -3.5957    1.9524 C   0  0  0  0  0  0  0  0  0  0  0  0
    3.1641   -4.6902    1.0951 C   0  0  0  0  0  0  0  0  0  0  0  0
    4.2765   -5.4106    0.7671 C   0  0  0  0  0  0  0  0  0  0  0  0
    5.5116   -5.0949    1.2441 C   0  0  0  0  0  0  0  0  0  0  0  0
    5.6476   -3.9939    2.1005 C   0  0  0  0  0  0  0  0  0  0  0  0
    5.7439   -1.3275    2.7872 O   0  0  0  0  0  0  0  0  0  0  0  0
  1  2  1  0
  2  3  1  0
  3  4  1  0
  4  5  1  0
  5  6  1  0
  6  7  1  0
  7  8  1  0
  7  9  1  0
  9 10  1  0
 10 11  2  0
 10 12  1  0
 12 13  1  0
 13 14  2  0
 14 15  1  0
 15 16  2  0
 16 17  1  0
 17 18  2  0
 12 19  1  0
 19 20  2  0
 20 21  1  0
 21 22  2  0
 22 23  1  0
 23 24  2  0
 12 25  1  0
  6  1  1  0
  8  3  1  0
 18 13  1  0
 24 19  1  0
M  END
$$$$
