
     RDKit          3D

 25 28  0  0  0  0  0  0  0  0999 V2000
   -0.2376   -1.0088    4.9645 C   0  0  0  0  0  0  0  0  0  0  0  0
   -1.0420   -0.3164    3.8959 C   0  0  0  0  0  0  0  0  0  0  0  0
   -0.2502    0.7818    3.3766 N   0  0  0  0  0  0  0  0  0  0  0  0
   -0.1751    1.8126    4.4038 C   0  0  0  0  0  0  0  0  0  0  0  0
    0.3651    1.2709    5.6988 C   0  0  0  0  0  0  0  0  0  0  0  0
    0.9056   -0.1161    5.4108 C   0  0  0  0  0  0  0  0  0  0  0  0
    1.8877    0.0654    4.2438 C   0  0  0  0  0  0  0  0  0  0  0  0
    1.0621    0.2789    3.0151 C   0  0  0  0  0  0  0  0  0  0  0  0
    2.7676   -1.0134    4.1673 O   0  0  0  0  0  0  0  0  0  0  0  0
    3.8995   -0.9220    3.3707 C   0  0  0  0  0  0  0  0  0  0  0  0
    4.0814    0.1594    2.7414 O   0  0  0  0  0  0  0  0  0  0  0  0
    4.8820   -2.0365    3.2417 C   0  0  0  0  0  0  0  0  0  0  0  0
    5.4347   -2.4249    4.5659 C   0  0  0  0  0  0  0  0  0  0  0  0
    4.7999   -2.1153    5.7499 C   0  0  0  0  0  0  0  0  0  0  0  0
    5.3028   -2.4674    6.9856 C   0  0  0  0  0  0  0  0  0  0  0  0
    6.4793   -3.1536    7.0771 C   0  0  0  0  0  0  0  0  0  0  0  0
    7.1314   -3.4738    5.9028 C   0  0  0  0  0  0  0  0  0  0  0  0
    6.6313   -3.1233    4.6674 C   0  0  0  0  0  0  0  0  0  0  0  0
    4.3671   -3.1844    2.4828 C   0  0  0  0  0  0  0  0  0  0  0  0
    4.3856   -3.1697    1.1186 C   0  0  0  0  0  0  0  0  0  0  0  0
    3.8997   -4.2471    0.3678 C   0  0  0  0  0  0  0  0  0  0  0  0
    3.4033   -5.3203    1.0504 C   0  0  0  0  0  0  0  0  0  0  0  0
    3.3719   -5.3634    2.4105 C   0  0  0  0  0  0  0  0  0  0  0  0
    3.8651   -4.2703    3.1358 C   0  0  0  0  0  0  0  0  0  0  0  0
    5.9732   -1.5519    2.4767 O   0  0  0  0  0  0  0  0  0  0  0  0
  1  2  1  0
  2  3  1  0
  3  4  1  0
  4  5  1  0
  5  6  1  0
  6  7  1  0
  7  8  1  0
  7  9  1  0
  9 10  1  0
 10 11  2  0
 10 12  1  0
 12 13  1  0
 13 14  2  0
 14 15  1  0
 15 16  2  0
 16 17  1  0
 17 18  2  0
 12 19  1  0
 19 20  2  0
 20 21  1  0
 21 22  2  0
 22 23  1  0
 23 24  2  0
 12 25  1  0
  6  1  1  0
  8  3  1  0
 18 13  1  0
 24 19  1  0
M  END
$$$$
