
     RDKit          3D

 25 28  0  0  0  0  0  0  0  0999 V2000
   -0.5196    0.7945    3.2278 C   0  0  0  0  0  0  0  0  0  0  0  0
   -0.6973    1.8286    4.3081 C   0  0  0  0  0  0  0  0  0  0  0  0
   -0.3735    1.2117    5.5798 N   0  0  0  0  0  0  0  0  0  0  0  0
   -1.4289    0.2611    5.9050 C   0  0  0  0  0  0  0  0  0  0  0  0
   -1.6290   -0.7469    4.8066 C   0  0  0  0  0  0  0  0  0  0  0  0
   -0.4690   -0.5920    3.8427 C   0  0  0  0  0  0  0  0  0  0  0  0
    0.7953   -0.7136    4.7065 C   0  0  0  0  0  0  0  0  0  0  0  0
    0.9219    0.5674    5.4678 C   0  0  0  0  0  0  0  0  0  0  0  0
    1.9021   -1.0287    3.9193 O   0  0  0  0  0  0  0  0  0  0  0  0
    2.9555   -1.7443    4.4693 C   0  0  0  0  0  0  0  0  0  0  0  0
    2.8979   -2.0056    5.7050 O   0  0  0  0  0  0  0  0  0  0  0  0
    4.1227   -2.2022    3.6617 C   0  0  0  0  0  0  0  0  0  0  0  0
    5.2684   -2.5754    4.5323 C   0  0  0  0  0  0  0  0  0  0  0  0
    5.5561   -3.8853    4.8519 C   0  0  0  0  0  0  0  0  0  0  0  0
    6.6146   -4.2455    5.6604 C   0  0  0  0  0  0  0  0  0  0  0  0
    7.4341   -3.2878    6.1846 C   0  0  0  0  0  0  0  0  0  0  0  0
    7.1634   -1.9692    5.8768 C   0  0  0  0  0  0  0  0  0  0  0  0
    6.1070   -1.6069    5.0695 C   0  0  0  0  0  0  0  0  0  0  0  0
    3.7848   -3.2495    2.6882 C   0  0  0  0  0  0  0  0  0  0  0  0
    2.7866   -4.1402    2.9564 C   0  0  0  0  0  0  0  0  0  0  0  0
    2.4435   -5.1506    2.0499 C   0  0  0  0  0  0  0  0  0  0  0  0
    3.1453   -5.2158    0.8805 C   0  0  0  0  0  0  0  0  0  0  0  0
    4.1459   -4.3414    0.5856 C   0  0  0  0  0  0  0  0  0  0  0  0
    4.4676   -3.3402    1.5121 C   0  0  0  0  0  0  0  0  0  0  0  0
    4.5537   -1.1008    2.8794 O   0  0  0  0  0  0  0  0  0  0  0  0
  1  2  1  0
  2  3  1  0
  3  4  1  0
  4  5  1  0
  5  6  1  0
  6  7  1  0
  7  8  1  0
  7  9  1  0
  9 10  1  0
 10 11  2  0
 10 12  1  0
 12 13  1  0
 13 14  2  0
 14 15  1  0
 15 16  2  0
 16 17  1  0
 17 18  2  0
 12 19  1  0
 19 20  2  0
 20 21  1  0
 21 22  2  0
 22 23  1  0
 23 24  2  0
 12 25  1  0
  6  1  1  0
  8  3  1  0
 18 13  1  0
 24 19  1  0
M  END
$$$$
