
     RDKit          3D

 25 28  0  0  0  0  0  0  0  0999 V2000
    0.1845   -1.1438    6.0415 C   0  0  0  0  0  0  0  0  0  0  0  0
   -1.1169   -0.4604    5.7137 C   0  0  0  0  0  0  0  0  0  0  0  0
   -0.8197    0.7209    4.9270 N   0  0  0  0  0  0  0  0  0  0  0  0
   -0.1844    1.6995    5.8000 C   0  0  0  0  0  0  0  0  0  0  0  0
    1.0332    1.1340    6.4784 C   0  0  0  0  0  0  0  0  0  0  0  0
    1.3420   -0.1905    5.8083 C   0  0  0  0  0  0  0  0  0  0  0  0
    1.4385    0.1264    4.3084 C   0  0  0  0  0  0  0  0  0  0  0  0
    0.0404    0.3398    3.8222 C   0  0  0  0  0  0  0  0  0  0  0  0
    2.1364   -0.8762    3.6363 O   0  0  0  0  0  0  0  0  0  0  0  0
    3.4807   -1.0804    3.9107 C   0  0  0  0  0  0  0  0  0  0  0  0
    4.1281   -0.1099    4.3983 O   0  0  0  0  0  0  0  0  0  0  0  0
    4.1636   -2.3810    3.6534 C   0  0  0  0  0  0  0  0  0  0  0  0
    3.6034   -3.4628    4.5052 C   0  0  0  0  0  0  0  0  0  0  0  0
    2.6246   -4.3235    4.0559 C   0  0  0  0  0  0  0  0  0  0  0  0
    2.0942   -5.3301    4.8365 C   0  0  0  0  0  0  0  0  0  0  0  0
    2.5351   -5.5105    6.1158 C   0  0  0  0  0  0  0  0  0  0  0  0
    3.5153   -4.6589    6.5855 C   0  0  0  0  0  0  0  0  0  0  0  0
    4.0467   -3.6529    5.8080 C   0  0  0  0  0  0  0  0  0  0  0  0
    4.2098   -2.7452    2.2307 C   0  0  0  0  0  0  0  0  0  0  0  0
    3.6881   -1.9061    1.2898 C   0  0  0  0  0  0  0  0  0  0  0  0
    3.7148   -2.2266   -0.0729 C   0  0  0  0  0  0  0  0  0  0  0  0
    4.2841   -3.4146   -0.4318 C   0  0  0  0  0  0  0  0  0  0  0  0
    4.8124   -4.2716    0.4842 C   0  0  0  0  0  0  0  0  0  0  0  0
    4.7715   -3.9244    1.8414 C   0  0  0  0  0  0  0  0  0  0  0  0
    5.5205   -2.2291    4.0364 O   0  0  0  0  0  0  0  0  0  0  0  0
  1  2  1  0
  2  3  1  0
  3  4  1  0
  4  5  1  0
  5  6  1  0
  6  7  1  0
  7  8  1  0
  7  9  1  0
  9 10  1  0
 10 11  2  0
 10 12  1  0
 12 13  1  0
 13 14  2  0
 14 15  1  0
 15 16  2  0
 16 17  1  0
 17 18  2  0
 12 19  1  0
 19 20  2  0
 20 21  1  0
 21 22  2  0
 22 23  1  0
 23 24  2  0
 12 25  1  0
  6  1  1  0
  8  3  1  0
 18 13  1  0
 24 19  1  0
M  END
$$$$
