
     RDKit          3D

 25 28  0  0  0  0  0  0  0  0999 V2000
    1.0809    0.0806    6.1497 C   0  0  0  0  0  0  0  0  0  0  0  0
   -0.4236    0.0154    6.1331 C   0  0  0  0  0  0  0  0  0  0  0  0
   -0.8646    0.1353    4.7569 N   0  0  0  0  0  0  0  0  0  0  0  0
   -0.6239    1.5047    4.3208 C   0  0  0  0  0  0  0  0  0  0  0  0
    0.8147    1.9036    4.5048 C   0  0  0  0  0  0  0  0  0  0  0  0
    1.5885    0.6421    4.8342 C   0  0  0  0  0  0  0  0  0  0  0  0
    1.2564   -0.3443    3.7045 C   0  0  0  0  0  0  0  0  0  0  0  0
   -0.1377   -0.8272    3.9501 C   0  0  0  0  0  0  0  0  0  0  0  0
    2.2136   -1.3557    3.6355 O   0  0  0  0  0  0  0  0  0  0  0  0
    3.5158   -1.0460    3.2717 C   0  0  0  0  0  0  0  0  0  0  0  0
    3.7754    0.1648    3.0164 O   0  0  0  0  0  0  0  0  0  0  0  0
    4.5893   -2.0770    3.1773 C   0  0  0  0  0  0  0  0  0  0  0  0
    5.1579   -2.3883    4.5151 C   0  0  0  0  0  0  0  0  0  0  0  0
    4.3911   -2.3874    5.6609 C   0  0  0  0  0  0  0  0  0  0  0  0
    4.9063   -2.6721    6.9089 C   0  0  0  0  0  0  0  0  0  0  0  0
    6.2302   -2.9723    7.0522 C   0  0  0  0  0  0  0  0  0  0  0  0
    7.0160   -2.9787    5.9168 C   0  0  0  0  0  0  0  0  0  0  0  0
    6.5040   -2.6948    4.6693 C   0  0  0  0  0  0  0  0  0  0  0  0
    4.1805   -3.2804    2.4403 C   0  0  0  0  0  0  0  0  0  0  0  0
    4.5439   -3.4431    1.1353 C   0  0  0  0  0  0  0  0  0  0  0  0
    4.1674   -4.5774    0.4060 C   0  0  0  0  0  0  0  0  0  0  0  0
    3.4194   -5.5221    1.0480 C   0  0  0  0  0  0  0  0  0  0  0  0
    3.0419   -5.3873    2.3488 C   0  0  0  0  0  0  0  0  0  0  0  0
    3.4333   -4.2411    3.0539 C   0  0  0  0  0  0  0  0  0  0  0  0
    5.6446   -1.5197    2.4114 O   0  0  0  0  0  0  0  0  0  0  0  0
  1  2  1  0
  2  3  1  0
  3  4  1  0
  4  5  1  0
  5  6  1  0
  6  7  1  0
  7  8  1  0
  7  9  1  0
  9 10  1  0
 10 11  2  0
 10 12  1  0
 12 13  1  0
 13 14  2  0
 14 15  1  0
 15 16  2  0
 16 17  1  0
 17 18  2  0
 12 19  1  0
 19 20  2  0
 20 21  1  0
 21 22  2  0
 22 23  1  0
 23 24  2  0
 12 25  1  0
  6  1  1  0
  8  3  1  0
 18 13  1  0
 24 19  1  0
M  END
$$$$
