
     RDKit          3D

 25 28  0  0  0  0  0  0  0  0999 V2000
    1.0468   -0.3166    6.9547 C   0  0  0  0  0  0  0  0  0  0  0  0
   -0.4534   -0.4452    6.9222 C   0  0  0  0  0  0  0  0  0  0  0  0
   -0.8984   -0.1868    5.5665 N   0  0  0  0  0  0  0  0  0  0  0  0
   -0.7179    1.2329    5.2924 C   0  0  0  0  0  0  0  0  0  0  0  0
    0.7015    1.6705    5.5293 C   0  0  0  0  0  0  0  0  0  0  0  0
    1.5299    0.4143    5.7156 C   0  0  0  0  0  0  0  0  0  0  0  0
    1.2423   -0.4487    4.4780 C   0  0  0  0  0  0  0  0  0  0  0  0
   -0.1293   -1.0172    4.6583 C   0  0  0  0  0  0  0  0  0  0  0  0
    2.2431   -1.4027    4.2984 O   0  0  0  0  0  0  0  0  0  0  0  0
    3.2973   -1.1390    3.4363 C   0  0  0  0  0  0  0  0  0  0  0  0
    3.2762   -0.0398    2.8117 O   0  0  0  0  0  0  0  0  0  0  0  0
    4.4257   -2.0928    3.2333 C   0  0  0  0  0  0  0  0  0  0  0  0
    5.0629   -2.4582    4.5256 C   0  0  0  0  0  0  0  0  0  0  0  0
    6.2524   -1.9014    4.9451 C   0  0  0  0  0  0  0  0  0  0  0  0
    6.8560   -2.2331    6.1407 C   0  0  0  0  0  0  0  0  0  0  0  0
    6.2770   -3.1499    6.9701 C   0  0  0  0  0  0  0  0  0  0  0  0
    5.0850   -3.7196    6.5687 C   0  0  0  0  0  0  0  0  0  0  0  0
    4.4802   -3.3901    5.3752 C   0  0  0  0  0  0  0  0  0  0  0  0
    4.0608   -3.2666    2.4284 C   0  0  0  0  0  0  0  0  0  0  0  0
    4.9962   -3.8827    1.6492 C   0  0  0  0  0  0  0  0  0  0  0  0
    4.6782   -5.0012    0.8694 C   0  0  0  0  0  0  0  0  0  0  0  0
    3.3925   -5.4585    0.9145 C   0  0  0  0  0  0  0  0  0  0  0  0
    2.4382   -4.8647    1.6822 C   0  0  0  0  0  0  0  0  0  0  0  0
    2.7853   -3.7465    2.4525 C   0  0  0  0  0  0  0  0  0  0  0  0
    5.4157   -1.4208    2.4723 O   0  0  0  0  0  0  0  0  0  0  0  0
  1  2  1  0
  2  3  1  0
  3  4  1  0
  4  5  1  0
  5  6  1  0
  6  7  1  0
  7  8  1  0
  7  9  1  0
  9 10  1  0
 10 11  2  0
 10 12  1  0
 12 13  1  0
 13 14  2  0
 14 15  1  0
 15 16  2  0
 16 17  1  0
 17 18  2  0
 12 19  1  0
 19 20  2  0
 20 21  1  0
 21 22  2  0
 22 23  1  0
 23 24  2  0
 12 25  1  0
  6  1  1  0
  8  3  1  0
 18 13  1  0
 24 19  1  0
M  END
$$$$
