
     RDKit          3D

 25 28  0  0  0  0  0  0  0  0999 V2000
    1.3299   -4.3398    1.9765 C   0  0  0  0  0  0  0  0  0  0  0  0
    1.0312   -5.7691    2.3455 C   0  0  0  0  0  0  0  0  0  0  0  0
    2.2928   -6.4584    2.5354 N   0  0  0  0  0  0  0  0  0  0  0  0
    2.9245   -6.6161    1.2318 C   0  0  0  0  0  0  0  0  0  0  0  0
    3.0856   -5.2971    0.5271 C   0  0  0  0  0  0  0  0  0  0  0  0
    2.7773   -4.2107    1.5387 C   0  0  0  0  0  0  0  0  0  0  0  0
    3.6932   -4.5004    2.7372 C   0  0  0  0  0  0  0  0  0  0  0  0
    3.1140   -5.6829    3.4464 C   0  0  0  0  0  0  0  0  0  0  0  0
    3.8386   -3.3647    3.5329 O   0  0  0  0  0  0  0  0  0  0  0  0
    4.7447   -2.3803    3.1668 C   0  0  0  0  0  0  0  0  0  0  0  0
    5.3784   -2.5470    2.0854 O   0  0  0  0  0  0  0  0  0  0  0  0
    4.9837   -1.1622    3.9934 C   0  0  0  0  0  0  0  0  0  0  0  0
    3.7319   -0.3825    4.1803 C   0  0  0  0  0  0  0  0  0  0  0  0
    3.4752    0.7790    3.4834 C   0  0  0  0  0  0  0  0  0  0  0  0
    2.3189    1.5136    3.6487 C   0  0  0  0  0  0  0  0  0  0  0  0
    1.3650    1.1010    4.5337 C   0  0  0  0  0  0  0  0  0  0  0  0
    1.6024   -0.0602    5.2422 C   0  0  0  0  0  0  0  0  0  0  0  0
    2.7563   -0.7957    5.0788 C   0  0  0  0  0  0  0  0  0  0  0  0
    5.6727   -1.4419    5.2605 C   0  0  0  0  0  0  0  0  0  0  0  0
    6.5811   -2.4570    5.3387 C   0  0  0  0  0  0  0  0  0  0  0  0
    7.2517   -2.7494    6.5325 C   0  0  0  0  0  0  0  0  0  0  0  0
    6.9649   -1.9801    7.6234 C   0  0  0  0  0  0  0  0  0  0  0  0
    6.0637   -0.9611    7.5756 C   0  0  0  0  0  0  0  0  0  0  0  0
    5.4075   -0.6914    6.3669 C   0  0  0  0  0  0  0  0  0  0  0  0
    5.8731   -0.3279    3.2697 O   0  0  0  0  0  0  0  0  0  0  0  0
  1  2  1  0
  2  3  1  0
  3  4  1  0
  4  5  1  0
  5  6  1  0
  6  7  1  0
  7  8  1  0
  7  9  1  0
  9 10  1  0
 10 11  2  0
 10 12  1  0
 12 13  1  0
 13 14  2  0
 14 15  1  0
 15 16  2  0
 16 17  1  0
 17 18  2  0
 12 19  1  0
 19 20  2  0
 20 21  1  0
 21 22  2  0
 22 23  1  0
 23 24  2  0
 12 25  1  0
  6  1  1  0
  8  3  1  0
 18 13  1  0
 24 19  1  0
M  END
$$$$
