
     RDKit          3D

 25 28  0  0  0  0  0  0  0  0999 V2000
    2.0653   -2.0653    8.5651 C   0  0  0  0  0  0  0  0  0  0  0  0
    0.6536   -1.8325    9.0353 C   0  0  0  0  0  0  0  0  0  0  0  0
    0.2013   -0.5660    8.4931 N   0  0  0  0  0  0  0  0  0  0  0  0
    0.9194    0.5024    9.1758 C   0  0  0  0  0  0  0  0  0  0  0  0
    2.4097    0.3272    9.0721 C   0  0  0  0  0  0  0  0  0  0  0  0
    2.6601   -0.7666    8.0524 C   0  0  0  0  0  0  0  0  0  0  0  0
    1.8998   -0.3280    6.7919 C   0  0  0  0  0  0  0  0  0  0  0  0
    0.4470   -0.5579    7.0630 C   0  0  0  0  0  0  0  0  0  0  0  0
    2.3883   -0.9895    5.6660 O   0  0  0  0  0  0  0  0  0  0  0  0
    3.5814   -0.5777    5.0905 C   0  0  0  0  0  0  0  0  0  0  0  0
    4.1030    0.4859    5.5324 O   0  0  0  0  0  0  0  0  0  0  0  0
    4.2477   -1.3378    3.9939 C   0  0  0  0  0  0  0  0  0  0  0  0
    5.2041   -2.3391    4.5348 C   0  0  0  0  0  0  0  0  0  0  0  0
    6.0248   -2.0700    5.6094 C   0  0  0  0  0  0  0  0  0  0  0  0
    6.9184   -2.9890    6.1199 C   0  0  0  0  0  0  0  0  0  0  0  0
    7.0209   -4.2300    5.5604 C   0  0  0  0  0  0  0  0  0  0  0  0
    6.2076   -4.5200    4.4828 C   0  0  0  0  0  0  0  0  0  0  0  0
    5.3143   -3.6039    3.9711 C   0  0  0  0  0  0  0  0  0  0  0  0
    3.3044   -1.9176    3.0282 C   0  0  0  0  0  0  0  0  0  0  0  0
    2.5143   -2.9704    3.3872 C   0  0  0  0  0  0  0  0  0  0  0  0
    1.6080   -3.5459    2.4885 C   0  0  0  0  0  0  0  0  0  0  0  0
    1.5402   -3.0154    1.2323 C   0  0  0  0  0  0  0  0  0  0  0  0
    2.3156   -1.9657    0.8456 C   0  0  0  0  0  0  0  0  0  0  0  0
    3.2140   -1.4099    1.7666 C   0  0  0  0  0  0  0  0  0  0  0  0
    5.0162   -0.4116    3.2439 O   0  0  0  0  0  0  0  0  0  0  0  0
  1  2  1  0
  2  3  1  0
  3  4  1  0
  4  5  1  0
  5  6  1  0
  6  7  1  0
  7  8  1  0
  7  9  1  0
  9 10  1  0
 10 11  2  0
 10 12  1  0
 12 13  1  0
 13 14  2  0
 14 15  1  0
 15 16  2  0
 16 17  1  0
 17 18  2  0
 12 19  1  0
 19 20  2  0
 20 21  1  0
 21 22  2  0
 22 23  1  0
 23 24  2  0
 12 25  1  0
  6  1  1  0
  8  3  1  0
 18 13  1  0
 24 19  1  0
M  END
$$$$
