
     RDKit          3D

 36 40  0  0  0  0  0  0  0  0999 V2000
    0.9764   -0.9123   10.5579 C   0  0  0  0  0  0  0  0  0  0  0  0
    2.2713   -0.3725   11.0124 C   0  0  0  0  0  0  0  0  0  0  0  0
    2.8387   -0.7907   12.2467 N   0  0  0  0  0  0  0  0  0  0  0  0
    4.0210   -0.1109   12.3661 C   0  0  0  0  0  0  0  0  0  0  0  0
    4.2038    0.6683   11.3199 C   0  0  0  0  0  0  0  0  0  0  0  0
    3.1109    0.4871   10.5023 N   0  0  0  0  0  0  0  0  0  0  0  0
    3.0442    1.1973    9.2478 C   0  0  0  0  0  0  0  0  0  0  0  0
    2.6671    2.5955    9.2504 C   0  0  0  0  0  0  0  0  0  0  0  0
    3.3073    3.4444    8.3396 C   0  0  0  0  0  0  0  0  0  0  0  0
    3.1126    4.7821    8.3750 C   0  0  0  0  0  0  0  0  0  0  0  0
    2.2583    5.3593    9.3219 C   0  0  0  0  0  0  0  0  0  0  0  0
    1.6219    4.5077   10.2044 C   0  0  0  0  0  0  0  0  0  0  0  0
    1.8211    3.1571   10.1664 C   0  0  0  0  0  0  0  0  0  0  0  0
    2.1323    6.7871    9.4845 C   0  0  0  0  0  0  0  0  0  0  0  0
    2.0901    7.3422   10.6145 O   0  0  0  0  0  0  0  0  0  0  0  0
    2.0547    7.6215    8.2895 C   0  0  0  0  0  0  0  0  0  0  0  0
    1.9292    7.0456    7.0158 C   0  0  0  0  0  0  0  0  0  0  0  0
    2.0564    8.0178    6.0351 N   0  0  0  0  0  0  0  0  0  0  0  0
    2.2259    9.1381    6.6875 C   0  0  0  0  0  0  0  0  0  0  0  0
    2.2529   10.4589    6.2497 C   0  0  0  0  0  0  0  0  0  0  0  0
    2.3022   11.4943    7.1780 C   0  0  0  0  0  0  0  0  0  0  0  0
    2.3113   11.2639    8.5339 C   0  0  0  0  0  0  0  0  0  0  0  0
    2.2681    9.9816    9.0038 C   0  0  0  0  0  0  0  0  0  0  0  0
    2.2296    8.9364    8.0480 C   0  0  0  0  0  0  0  0  0  0  0  0
    2.1684    9.6490   10.3445 C   0  0  0  0  0  0  0  0  0  0  0  0
    2.0863    9.3425   11.5956 C   0  0  0  0  0  0  0  0  0  0  0  0
    1.7438    7.6675    4.7175 C   0  0  0  0  0  0  0  0  0  0  0  0
    2.7108    7.8929    3.8246 O   0  0  0  0  0  0  0  0  0  0  0  0
    0.5965    7.1355    4.1590 N   0  0  0  0  0  0  0  0  0  0  0  0
   -0.6932    7.0465    4.7550 C   0  0  0  0  0  0  0  0  0  0  0  0
    0.6602    6.5427    2.7757 C   0  0  0  0  0  0  0  0  0  0  0  0
    4.1174    2.8859    7.3897 F   0  0  0  0  0  0  0  0  0  0  0  0
    5.3711    1.4406   11.1503 C   0  0  0  0  0  0  0  0  0  0  0  0
    6.3352    1.3133   12.1877 C   0  0  0  0  0  0  0  0  0  0  0  0
    6.1082    0.5285   13.2015 N   0  0  0  0  0  0  0  0  0  0  0  0
    4.9841   -0.2371   13.4024 C   0  0  0  0  0  0  0  0  0  0  0  0
  1  2  1  0
  2  3  2  0
  3  4  1  0
  4  5  2  0
  5  6  1  0
  6  7  1  0
  7  8  1  0
  8  9  2  0
  9 10  1  0
 10 11  2  0
 11 12  1  0
 12 13  2  0
 11 14  1  0
 14 15  2  0
 14 16  1  0
 16 17  2  0
 17 18  1  0
 18 19  1  0
 19 20  2  0
 20 21  1  0
 21 22  2  0
 22 23  1  0
 23 24  2  0
 23 25  1  0
 25 26  3  0
 18 27  1  0
 27 28  2  0
 27 29  1  0
 29 30  1  0
 29 31  1  0
  9 32  1  0
  5 33  1  0
 33 34  2  0
 34 35  1  0
 35 36  2  0
  6  2  1  0
 36  4  1  0
 13  8  1  0
 24 16  1  0
 24 19  1  0
M  END
$$$$
