
     RDKit          3D

 36 40  0  0  0  0  0  0  0  0999 V2000
   -0.7450    2.7906   12.8767 C   0  0  0  0  0  0  0  0  0  0  0  0
    0.4089    1.8934   12.6806 C   0  0  0  0  0  0  0  0  0  0  0  0
    0.8381    1.0255   13.7212 N   0  0  0  0  0  0  0  0  0  0  0  0
    1.9135    0.3419   13.2205 C   0  0  0  0  0  0  0  0  0  0  0  0
    2.1588    0.7249   11.9844 C   0  0  0  0  0  0  0  0  0  0  0  0
    1.2169    1.6812   11.6775 N   0  0  0  0  0  0  0  0  0  0  0  0
    1.2154    2.2716   10.3607 C   0  0  0  0  0  0  0  0  0  0  0  0
    1.9858    3.4758   10.1292 C   0  0  0  0  0  0  0  0  0  0  0  0
    1.2857    4.6455    9.8103 C   0  0  0  0  0  0  0  0  0  0  0  0
    1.9375    5.7726    9.4446 C   0  0  0  0  0  0  0  0  0  0  0  0
    3.3355    5.8055    9.3798 C   0  0  0  0  0  0  0  0  0  0  0  0
    4.0132    4.6482    9.7118 C   0  0  0  0  0  0  0  0  0  0  0  0
    3.3520    3.5113   10.0802 C   0  0  0  0  0  0  0  0  0  0  0  0
    4.0614    6.9391    8.8609 C   0  0  0  0  0  0  0  0  0  0  0  0
    5.2372    7.2157    9.2183 O   0  0  0  0  0  0  0  0  0  0  0  0
    3.4064    7.7971    7.8786 C   0  0  0  0  0  0  0  0  0  0  0  0
    2.4560    7.2760    6.9870 C   0  0  0  0  0  0  0  0  0  0  0  0
    2.1110    8.2304    6.0418 N   0  0  0  0  0  0  0  0  0  0  0  0
    2.8035    9.2920    6.3628 C   0  0  0  0  0  0  0  0  0  0  0  0
    2.7584   10.5965    5.8800 C   0  0  0  0  0  0  0  0  0  0  0  0
    3.5098   11.5898    6.5004 C   0  0  0  0  0  0  0  0  0  0  0  0
    4.2979   11.3353    7.5985 C   0  0  0  0  0  0  0  0  0  0  0  0
    4.3553   10.0709    8.1131 C   0  0  0  0  0  0  0  0  0  0  0  0
    3.5945    9.0665    7.4651 C   0  0  0  0  0  0  0  0  0  0  0  0
    5.0338    9.7348    9.2727 C   0  0  0  0  0  0  0  0  0  0  0  0
    5.6751    9.4273   10.3498 C   0  0  0  0  0  0  0  0  0  0  0  0
    1.0211    7.9646    5.2064 C   0  0  0  0  0  0  0  0  0  0  0  0
   -0.0292    8.7734    5.3674 O   0  0  0  0  0  0  0  0  0  0  0  0
    0.8229    6.9962    4.2399 N   0  0  0  0  0  0  0  0  0  0  0  0
    1.7307    5.9742    3.8422 C   0  0  0  0  0  0  0  0  0  0  0  0
   -0.4694    6.9850    3.4661 C   0  0  0  0  0  0  0  0  0  0  0  0
   -0.0787    4.6322    9.9035 F   0  0  0  0  0  0  0  0  0  0  0  0
    3.1767    0.1413   11.2026 C   0  0  0  0  0  0  0  0  0  0  0  0
    3.9142   -0.8910   11.8447 C   0  0  0  0  0  0  0  0  0  0  0  0
    3.6324   -1.2345   13.0686 N   0  0  0  0  0  0  0  0  0  0  0  0
    2.6510   -0.6888   13.8617 C   0  0  0  0  0  0  0  0  0  0  0  0
  1  2  1  0
  2  3  2  0
  3  4  1  0
  4  5  2  0
  5  6  1  0
  6  7  1  0
  7  8  1  0
  8  9  2  0
  9 10  1  0
 10 11  2  0
 11 12  1  0
 12 13  2  0
 11 14  1  0
 14 15  2  0
 14 16  1  0
 16 17  2  0
 17 18  1  0
 18 19  1  0
 19 20  2  0
 20 21  1  0
 21 22  2  0
 22 23  1  0
 23 24  2  0
 23 25  1  0
 25 26  3  0
 18 27  1  0
 27 28  2  0
 27 29  1  0
 29 30  1  0
 29 31  1  0
  9 32  1  0
  5 33  1  0
 33 34  2  0
 34 35  1  0
 35 36  2  0
  6  2  1  0
 36  4  1  0
 13  8  1  0
 24 16  1  0
 24 19  1  0
M  END
$$$$
