
     RDKit          3D

 36 40  0  0  0  0  0  0  0  0999 V2000
    0.0585   -0.5819   11.2342 C   0  0  0  0  0  0  0  0  0  0  0  0
    1.5204   -0.6959   11.3914 C   0  0  0  0  0  0  0  0  0  0  0  0
    2.1926   -1.9059   11.0683 N   0  0  0  0  0  0  0  0  0  0  0  0
    3.5184   -1.6787   11.3237 C   0  0  0  0  0  0  0  0  0  0  0  0
    3.6909   -0.4504   11.7669 C   0  0  0  0  0  0  0  0  0  0  0  0
    2.4437    0.1322   11.7985 N   0  0  0  0  0  0  0  0  0  0  0  0
    2.3188    1.5070   12.2189 C   0  0  0  0  0  0  0  0  0  0  0  0
    2.6184    2.5617   11.2729 C   0  0  0  0  0  0  0  0  0  0  0  0
    1.5407    3.2401   10.6911 C   0  0  0  0  0  0  0  0  0  0  0  0
    1.7337    4.1383    9.6987 C   0  0  0  0  0  0  0  0  0  0  0  0
    3.0206    4.4220    9.2263 C   0  0  0  0  0  0  0  0  0  0  0  0
    4.0754    3.7560    9.8202 C   0  0  0  0  0  0  0  0  0  0  0  0
    3.8771    2.8490   10.8219 C   0  0  0  0  0  0  0  0  0  0  0  0
    3.2576    5.2641    8.0792 C   0  0  0  0  0  0  0  0  0  0  0  0
    3.8636    4.8596    7.0517 O   0  0  0  0  0  0  0  0  0  0  0  0
    2.7708    6.6397    8.1108 C   0  0  0  0  0  0  0  0  0  0  0  0
    2.0357    7.1187    9.2062 C   0  0  0  0  0  0  0  0  0  0  0  0
    1.5332    8.3816    8.9315 N   0  0  0  0  0  0  0  0  0  0  0  0
    1.9670    8.6660    7.7312 C   0  0  0  0  0  0  0  0  0  0  0  0
    1.9180    9.8455    6.9942 C   0  0  0  0  0  0  0  0  0  0  0  0
    2.5927    9.9308    5.7803 C   0  0  0  0  0  0  0  0  0  0  0  0
    3.3304    8.8853    5.2760 C   0  0  0  0  0  0  0  0  0  0  0  0
    3.4174    7.7165    5.9781 C   0  0  0  0  0  0  0  0  0  0  0  0
    2.7165    7.6387    7.2070 C   0  0  0  0  0  0  0  0  0  0  0  0
    4.2155    6.6466    5.6089 C   0  0  0  0  0  0  0  0  0  0  0  0
    4.9667    5.6522    5.2730 C   0  0  0  0  0  0  0  0  0  0  0  0
    0.9605    9.1046    9.9831 C   0  0  0  0  0  0  0  0  0  0  0  0
    1.4171   10.3507   10.1313 O   0  0  0  0  0  0  0  0  0  0  0  0
    0.0044    8.7571   10.9192 N   0  0  0  0  0  0  0  0  0  0  0  0
   -0.5775    9.5955   11.9118 C   0  0  0  0  0  0  0  0  0  0  0  0
   -0.4993    7.3381   10.9622 C   0  0  0  0  0  0  0  0  0  0  0  0
    0.2833    2.9940   11.1694 F   0  0  0  0  0  0  0  0  0  0  0  0
    4.9675    0.0750   12.0535 C   0  0  0  0  0  0  0  0  0  0  0  0
    6.0520   -0.8160   11.8258 C   0  0  0  0  0  0  0  0  0  0  0  0
    5.8296   -2.0211   11.3856 N   0  0  0  0  0  0  0  0  0  0  0  0
    4.6020   -2.5685   11.0971 C   0  0  0  0  0  0  0  0  0  0  0  0
  1  2  1  0
  2  3  2  0
  3  4  1  0
  4  5  2  0
  5  6  1  0
  6  7  1  0
  7  8  1  0
  8  9  2  0
  9 10  1  0
 10 11  2  0
 11 12  1  0
 12 13  2  0
 11 14  1  0
 14 15  2  0
 14 16  1  0
 16 17  2  0
 17 18  1  0
 18 19  1  0
 19 20  2  0
 20 21  1  0
 21 22  2  0
 22 23  1  0
 23 24  2  0
 23 25  1  0
 25 26  3  0
 18 27  1  0
 27 28  2  0
 27 29  1  0
 29 30  1  0
 29 31  1  0
  9 32  1  0
  5 33  1  0
 33 34  2  0
 34 35  1  0
 35 36  2  0
  6  2  1  0
 36  4  1  0
 13  8  1  0
 24 16  1  0
 24 19  1  0
M  END
$$$$
