
     RDKit          3D

 36 40  0  0  0  0  0  0  0  0999 V2000
    1.4030    6.4678    5.9867 C   0  0  0  0  0  0  0  0  0  0  0  0
    1.1835    7.6101    6.8934 C   0  0  0  0  0  0  0  0  0  0  0  0
   -0.0833    8.2513    6.9590 N   0  0  0  0  0  0  0  0  0  0  0  0
    0.0506    9.2540    7.8815 C   0  0  0  0  0  0  0  0  0  0  0  0
    1.2757    9.2647    8.3651 C   0  0  0  0  0  0  0  0  0  0  0  0
    1.9518    8.2416    7.7389 N   0  0  0  0  0  0  0  0  0  0  0  0
    3.3274    7.9861    8.0923 C   0  0  0  0  0  0  0  0  0  0  0  0
    3.6604    6.7545    8.7774 C   0  0  0  0  0  0  0  0  0  0  0  0
    4.1082    6.8460   10.1008 C   0  0  0  0  0  0  0  0  0  0  0  0
    4.5695    5.7587   10.7595 C   0  0  0  0  0  0  0  0  0  0  0  0
    4.6075    4.5047   10.1384 C   0  0  0  0  0  0  0  0  0  0  0  0
    4.1484    4.4270    8.8375 C   0  0  0  0  0  0  0  0  0  0  0  0
    3.6836    5.5271    8.1749 C   0  0  0  0  0  0  0  0  0  0  0  0
    5.2203    3.3527   10.7537 C   0  0  0  0  0  0  0  0  0  0  0  0
    6.3344    3.4059   11.3390 O   0  0  0  0  0  0  0  0  0  0  0  0
    4.5170    2.0750   10.6981 C   0  0  0  0  0  0  0  0  0  0  0  0
    3.1826    2.0053   10.2691 C   0  0  0  0  0  0  0  0  0  0  0  0
    2.6794    0.7291   10.4719 N   0  0  0  0  0  0  0  0  0  0  0  0
    3.6744    0.0483   10.9782 C   0  0  0  0  0  0  0  0  0  0  0  0
    3.8163   -1.3114   11.2389 C   0  0  0  0  0  0  0  0  0  0  0  0
    5.0481   -1.8120   11.6489 C   0  0  0  0  0  0  0  0  0  0  0  0
    6.1543   -1.0081   11.7964 C   0  0  0  0  0  0  0  0  0  0  0  0
    6.0601    0.3293   11.5333 C   0  0  0  0  0  0  0  0  0  0  0  0
    4.7975    0.8281   11.1277 C   0  0  0  0  0  0  0  0  0  0  0  0
    7.1356    1.2016   11.5509 C   0  0  0  0  0  0  0  0  0  0  0  0
    8.1308    2.0234   11.5665 C   0  0  0  0  0  0  0  0  0  0  0  0
    1.4394    0.4136    9.9069 C   0  0  0  0  0  0  0  0  0  0  0  0
    1.4789   -0.4685    8.9051 O   0  0  0  0  0  0  0  0  0  0  0  0
    0.1632    0.8634   10.1898 N   0  0  0  0  0  0  0  0  0  0  0  0
   -1.0540    0.4496    9.5784 C   0  0  0  0  0  0  0  0  0  0  0  0
   -0.0237    1.9318   11.2351 C   0  0  0  0  0  0  0  0  0  0  0  0
    4.0431    8.0605   10.7264 F   0  0  0  0  0  0  0  0  0  0  0  0
    1.6778   10.1578    9.3793 C   0  0  0  0  0  0  0  0  0  0  0  0
    0.6643   11.0411    9.8425 C   0  0  0  0  0  0  0  0  0  0  0  0
   -0.5328   10.9906    9.3329 N   0  0  0  0  0  0  0  0  0  0  0  0
   -0.9612   10.1370    8.3440 C   0  0  0  0  0  0  0  0  0  0  0  0
  1  2  1  0
  2  3  2  0
  3  4  1  0
  4  5  2  0
  5  6  1  0
  6  7  1  0
  7  8  1  0
  8  9  2  0
  9 10  1  0
 10 11  2  0
 11 12  1  0
 12 13  2  0
 11 14  1  0
 14 15  2  0
 14 16  1  0
 16 17  2  0
 17 18  1  0
 18 19  1  0
 19 20  2  0
 20 21  1  0
 21 22  2  0
 22 23  1  0
 23 24  2  0
 23 25  1  0
 25 26  3  0
 18 27  1  0
 27 28  2  0
 27 29  1  0
 29 30  1  0
 29 31  1  0
  9 32  1  0
  5 33  1  0
 33 34  2  0
 34 35  1  0
 35 36  2  0
  6  2  1  0
 36  4  1  0
 13  8  1  0
 24 16  1  0
 24 19  1  0
M  END
$$$$
