
     RDKit          3D

 36 40  0  0  0  0  0  0  0  0999 V2000
    6.1695   -0.5120   11.5491 C   0  0  0  0  0  0  0  0  0  0  0  0
    4.7637   -0.3123   11.9475 C   0  0  0  0  0  0  0  0  0  0  0  0
    4.3076   -0.7226   13.2296 N   0  0  0  0  0  0  0  0  0  0  0  0
    2.9784   -0.3982   13.2770 C   0  0  0  0  0  0  0  0  0  0  0  0
    2.6080    0.1637   12.1447 C   0  0  0  0  0  0  0  0  0  0  0  0
    3.7276    0.2039   11.3441 N   0  0  0  0  0  0  0  0  0  0  0  0
    3.6354    0.8013   10.0338 C   0  0  0  0  0  0  0  0  0  0  0  0
    3.7802    2.2363    9.9034 C   0  0  0  0  0  0  0  0  0  0  0  0
    3.4517    2.8148    8.6715 C   0  0  0  0  0  0  0  0  0  0  0  0
    3.6914    4.1231    8.4274 C   0  0  0  0  0  0  0  0  0  0  0  0
    4.2710    4.9419    9.4038 C   0  0  0  0  0  0  0  0  0  0  0  0
    4.5759    4.3607   10.6196 C   0  0  0  0  0  0  0  0  0  0  0  0
    4.3330    3.0389   10.8628 C   0  0  0  0  0  0  0  0  0  0  0  0
    4.6715    6.3020    9.1375 C   0  0  0  0  0  0  0  0  0  0  0  0
    5.8616    6.6969    9.2578 O   0  0  0  0  0  0  0  0  0  0  0  0
    3.6553    7.2571    8.7072 C   0  0  0  0  0  0  0  0  0  0  0  0
    2.3318    6.8481    8.4813 C   0  0  0  0  0  0  0  0  0  0  0  0
    1.6012    7.8802    7.9119 N   0  0  0  0  0  0  0  0  0  0  0  0
    2.4395    8.8795    7.8206 C   0  0  0  0  0  0  0  0  0  0  0  0
    2.2417   10.2137    7.4776 C   0  0  0  0  0  0  0  0  0  0  0  0
    3.2886   11.1219    7.6007 C   0  0  0  0  0  0  0  0  0  0  0  0
    4.5283   10.7532    8.0685 C   0  0  0  0  0  0  0  0  0  0  0  0
    4.7572    9.4562    8.4321 C   0  0  0  0  0  0  0  0  0  0  0  0
    3.6863    8.5393    8.2912 C   0  0  0  0  0  0  0  0  0  0  0  0
    5.9333    9.0080    9.0101 C   0  0  0  0  0  0  0  0  0  0  0  0
    7.0281    8.5979    9.5571 C   0  0  0  0  0  0  0  0  0  0  0  0
    0.2139    7.7292    7.8169 C   0  0  0  0  0  0  0  0  0  0  0  0
   -0.4946    8.8421    8.0237 O   0  0  0  0  0  0  0  0  0  0  0  0
   -0.5710    6.6211    7.5576 N   0  0  0  0  0  0  0  0  0  0  0  0
   -1.9712    6.5950    7.3020 C   0  0  0  0  0  0  0  0  0  0  0  0
    0.0642    5.2552    7.5585 C   0  0  0  0  0  0  0  0  0  0  0  0
    2.8542    2.0302    7.7239 F   0  0  0  0  0  0  0  0  0  0  0  0
    1.3021    0.6535   11.9383 C   0  0  0  0  0  0  0  0  0  0  0  0
    0.4183    0.4996   13.0415 C   0  0  0  0  0  0  0  0  0  0  0  0
    0.8328   -0.0618   14.1408 N   0  0  0  0  0  0  0  0  0  0  0  0
    2.0949   -0.5523   14.3784 C   0  0  0  0  0  0  0  0  0  0  0  0
  1  2  1  0
  2  3  2  0
  3  4  1  0
  4  5  2  0
  5  6  1  0
  6  7  1  0
  7  8  1  0
  8  9  2  0
  9 10  1  0
 10 11  2  0
 11 12  1  0
 12 13  2  0
 11 14  1  0
 14 15  2  0
 14 16  1  0
 16 17  2  0
 17 18  1  0
 18 19  1  0
 19 20  2  0
 20 21  1  0
 21 22  2  0
 22 23  1  0
 23 24  2  0
 23 25  1  0
 25 26  3  0
 18 27  1  0
 27 28  2  0
 27 29  1  0
 29 30  1  0
 29 31  1  0
  9 32  1  0
  5 33  1  0
 33 34  2  0
 34 35  1  0
 35 36  2  0
  6  2  1  0
 36  4  1  0
 13  8  1  0
 24 16  1  0
 24 19  1  0
M  END
$$$$
