
     RDKit          3D

 36 40  0  0  0  0  0  0  0  0999 V2000
    1.0089    0.2250    8.5695 C   0  0  0  0  0  0  0  0  0  0  0  0
    0.8324    0.7765    9.9259 C   0  0  0  0  0  0  0  0  0  0  0  0
   -0.4235    0.6915   10.5859 N   0  0  0  0  0  0  0  0  0  0  0  0
   -0.2480    1.2883   11.8055 C   0  0  0  0  0  0  0  0  0  0  0  0
    0.9916    1.7170   11.9264 C   0  0  0  0  0  0  0  0  0  0  0  0
    1.6347    1.3884   10.7541 N   0  0  0  0  0  0  0  0  0  0  0  0
    3.0336    1.7095   10.6040 C   0  0  0  0  0  0  0  0  0  0  0  0
    3.4051    3.0134   10.0952 C   0  0  0  0  0  0  0  0  0  0  0  0
    4.7686    3.2816    9.9247 C   0  0  0  0  0  0  0  0  0  0  0  0
    5.2012    4.5179    9.5882 C   0  0  0  0  0  0  0  0  0  0  0  0
    4.2960    5.5679    9.3938 C   0  0  0  0  0  0  0  0  0  0  0  0
    2.9528    5.2846    9.5509 C   0  0  0  0  0  0  0  0  0  0  0  0
    2.5192    4.0350    9.8913 C   0  0  0  0  0  0  0  0  0  0  0  0
    4.7220    6.9284    9.1737 C   0  0  0  0  0  0  0  0  0  0  0  0
    5.7259    7.4283    9.7472 O   0  0  0  0  0  0  0  0  0  0  0  0
    3.9596    7.7568    8.2449 C   0  0  0  0  0  0  0  0  0  0  0  0
    3.1531    7.1740    7.2551 C   0  0  0  0  0  0  0  0  0  0  0  0
    2.6766    8.1474    6.3899 N   0  0  0  0  0  0  0  0  0  0  0  0
    3.1530    9.2743    6.8510 C   0  0  0  0  0  0  0  0  0  0  0  0
    2.8907   10.5942    6.4962 C   0  0  0  0  0  0  0  0  0  0  0  0
    3.4262   11.6329    7.2515 C   0  0  0  0  0  0  0  0  0  0  0  0
    4.2059   11.4062    8.3616 C   0  0  0  0  0  0  0  0  0  0  0  0
    4.4720   10.1244    8.7527 C   0  0  0  0  0  0  0  0  0  0  0  0
    3.9302    9.0762    7.9685 C   0  0  0  0  0  0  0  0  0  0  0  0
    5.1562    9.7921    9.9100 C   0  0  0  0  0  0  0  0  0  0  0  0
    5.7842    9.4789   10.9933 C   0  0  0  0  0  0  0  0  0  0  0  0
    1.6847    7.7838    5.4731 C   0  0  0  0  0  0  0  0  0  0  0  0
    1.7921    8.3458    4.2666 O   0  0  0  0  0  0  0  0  0  0  0  0
    0.5900    6.9480    5.5920 N   0  0  0  0  0  0  0  0  0  0  0  0
    0.3251    6.0144    6.6336 C   0  0  0  0  0  0  0  0  0  0  0  0
   -0.4636    6.9606    4.5155 C   0  0  0  0  0  0  0  0  0  0  0  0
    5.6574    2.2537   10.0796 F   0  0  0  0  0  0  0  0  0  0  0  0
    1.4686    2.3198   13.1084 C   0  0  0  0  0  0  0  0  0  0  0  0
    0.5158    2.4268   14.1584 C   0  0  0  0  0  0  0  0  0  0  0  0
   -0.6980    1.9866   13.9902 N   0  0  0  0  0  0  0  0  0  0  0  0
   -1.1995    1.3961   12.8544 C   0  0  0  0  0  0  0  0  0  0  0  0
  1  2  1  0
  2  3  2  0
  3  4  1  0
  4  5  2  0
  5  6  1  0
  6  7  1  0
  7  8  1  0
  8  9  2  0
  9 10  1  0
 10 11  2  0
 11 12  1  0
 12 13  2  0
 11 14  1  0
 14 15  2  0
 14 16  1  0
 16 17  2  0
 17 18  1  0
 18 19  1  0
 19 20  2  0
 20 21  1  0
 21 22  2  0
 22 23  1  0
 23 24  2  0
 23 25  1  0
 25 26  3  0
 18 27  1  0
 27 28  2  0
 27 29  1  0
 29 30  1  0
 29 31  1  0
  9 32  1  0
  5 33  1  0
 33 34  2  0
 34 35  1  0
 35 36  2  0
  6  2  1  0
 36  4  1  0
 13  8  1  0
 24 16  1  0
 24 19  1  0
M  END
$$$$
