
     RDKit          3D

 36 40  0  0  0  0  0  0  0  0999 V2000
    7.2616    1.6820   12.0442 C   0  0  0  0  0  0  0  0  0  0  0  0
    6.1744    0.6902   11.9485 C   0  0  0  0  0  0  0  0  0  0  0  0
    6.0748   -0.3703   12.8896 N   0  0  0  0  0  0  0  0  0  0  0  0
    4.9745   -1.0971   12.5214 C   0  0  0  0  0  0  0  0  0  0  0  0
    4.4169   -0.5659   11.4527 C   0  0  0  0  0  0  0  0  0  0  0  0
    5.1766    0.5336   11.1215 N   0  0  0  0  0  0  0  0  0  0  0  0
    4.7862    1.3459    9.9944 C   0  0  0  0  0  0  0  0  0  0  0  0
    3.6028    2.1737   10.1004 C   0  0  0  0  0  0  0  0  0  0  0  0
    3.1370    2.7962    8.9361 C   0  0  0  0  0  0  0  0  0  0  0  0
    2.1250    3.6922    8.9794 C   0  0  0  0  0  0  0  0  0  0  0  0
    1.5070    4.0205   10.1920 C   0  0  0  0  0  0  0  0  0  0  0  0
    1.9673    3.3870   11.3303 C   0  0  0  0  0  0  0  0  0  0  0  0
    2.9900    2.4829   11.2832 C   0  0  0  0  0  0  0  0  0  0  0  0
    0.5239    5.0704   10.3022 C   0  0  0  0  0  0  0  0  0  0  0  0
   -0.0055    5.3946   11.3983 O   0  0  0  0  0  0  0  0  0  0  0  0
    0.1308    5.7880    9.0936 C   0  0  0  0  0  0  0  0  0  0  0  0
    1.0966    6.3286    8.2305 C   0  0  0  0  0  0  0  0  0  0  0  0
    0.4887    7.1104    7.2598 N   0  0  0  0  0  0  0  0  0  0  0  0
   -0.7921    7.0260    7.5088 C   0  0  0  0  0  0  0  0  0  0  0  0
   -1.8975    7.4654    6.7863 C   0  0  0  0  0  0  0  0  0  0  0  0
   -3.1786    7.1165    7.2021 C   0  0  0  0  0  0  0  0  0  0  0  0
   -3.4021    6.3304    8.3084 C   0  0  0  0  0  0  0  0  0  0  0  0
   -2.3423    5.8648    9.0342 C   0  0  0  0  0  0  0  0  0  0  0  0
   -1.0437    6.2367    8.6067 C   0  0  0  0  0  0  0  0  0  0  0  0
   -2.4564    4.9854   10.0980 C   0  0  0  0  0  0  0  0  0  0  0  0
   -2.5701    4.1595   11.0834 C   0  0  0  0  0  0  0  0  0  0  0  0
    1.2700    7.5522    6.1870 C   0  0  0  0  0  0  0  0  0  0  0  0
    0.9991    6.9783    5.0121 O   0  0  0  0  0  0  0  0  0  0  0  0
    2.2950    8.4774    6.1206 N   0  0  0  0  0  0  0  0  0  0  0  0
    2.3454    9.6550    5.3222 C   0  0  0  0  0  0  0  0  0  0  0  0
    3.5379    8.2563    6.9424 C   0  0  0  0  0  0  0  0  0  0  0  0
    3.7123    2.4564    7.7428 F   0  0  0  0  0  0  0  0  0  0  0  0
    3.2294   -1.0765   10.8898 C   0  0  0  0  0  0  0  0  0  0  0  0
    2.6780   -2.2019   11.5615 C   0  0  0  0  0  0  0  0  0  0  0  0
    3.2665   -2.6899   12.6155 N   0  0  0  0  0  0  0  0  0  0  0  0
    4.4237   -2.2217   13.1916 C   0  0  0  0  0  0  0  0  0  0  0  0
  1  2  1  0
  2  3  2  0
  3  4  1  0
  4  5  2  0
  5  6  1  0
  6  7  1  0
  7  8  1  0
  8  9  2  0
  9 10  1  0
 10 11  2  0
 11 12  1  0
 12 13  2  0
 11 14  1  0
 14 15  2  0
 14 16  1  0
 16 17  2  0
 17 18  1  0
 18 19  1  0
 19 20  2  0
 20 21  1  0
 21 22  2  0
 22 23  1  0
 23 24  2  0
 23 25  1  0
 25 26  3  0
 18 27  1  0
 27 28  2  0
 27 29  1  0
 29 30  1  0
 29 31  1  0
  9 32  1  0
  5 33  1  0
 33 34  2  0
 34 35  1  0
 35 36  2  0
  6  2  1  0
 36  4  1  0
 13  8  1  0
 24 16  1  0
 24 19  1  0
M  END
$$$$
