
     RDKit          3D

 36 40  0  0  0  0  0  0  0  0999 V2000
    1.4390    0.2770    9.3207 C   0  0  0  0  0  0  0  0  0  0  0  0
    0.4733    0.6094   10.3846 C   0  0  0  0  0  0  0  0  0  0  0  0
    0.0972   -0.3614   11.3523 N   0  0  0  0  0  0  0  0  0  0  0  0
   -0.7980    0.2609   12.1804 C   0  0  0  0  0  0  0  0  0  0  0  0
   -0.9854    1.5056   11.7922 C   0  0  0  0  0  0  0  0  0  0  0  0
   -0.1900    1.6931   10.6841 N   0  0  0  0  0  0  0  0  0  0  0  0
   -0.1618    2.9882   10.0481 C   0  0  0  0  0  0  0  0  0  0  0  0
    1.0280    3.8049   10.1681 C   0  0  0  0  0  0  0  0  0  0  0  0
    1.2276    4.4920   11.3715 C   0  0  0  0  0  0  0  0  0  0  0  0
    2.2373    5.3809   11.5098 C   0  0  0  0  0  0  0  0  0  0  0  0
    3.1193    5.6368   10.4533 C   0  0  0  0  0  0  0  0  0  0  0  0
    2.9191    4.9403    9.2770 C   0  0  0  0  0  0  0  0  0  0  0  0
    1.8980    4.0435    9.1403 C   0  0  0  0  0  0  0  0  0  0  0  0
    4.1186    6.6757   10.5115 C   0  0  0  0  0  0  0  0  0  0  0  0
    4.8322    6.8771   11.5298 O   0  0  0  0  0  0  0  0  0  0  0  0
    4.3119    7.5244    9.3400 C   0  0  0  0  0  0  0  0  0  0  0  0
    3.2662    7.7461    8.4305 C   0  0  0  0  0  0  0  0  0  0  0  0
    3.7346    8.4284    7.3178 N   0  0  0  0  0  0  0  0  0  0  0  0
    5.0039    8.6339    7.5549 C   0  0  0  0  0  0  0  0  0  0  0  0
    5.9511    9.3972    6.8789 C   0  0  0  0  0  0  0  0  0  0  0  0
    7.2180    9.5716    7.4271 C   0  0  0  0  0  0  0  0  0  0  0  0
    7.5755    9.0236    8.6370 C   0  0  0  0  0  0  0  0  0  0  0  0
    6.6681    8.2822    9.3397 C   0  0  0  0  0  0  0  0  0  0  0  0
    5.3856    8.1028    8.7649 C   0  0  0  0  0  0  0  0  0  0  0  0
    6.8949    7.7773   10.6092 C   0  0  0  0  0  0  0  0  0  0  0  0
    7.1104    7.2972   11.7878 C   0  0  0  0  0  0  0  0  0  0  0  0
    2.7957    8.9265    6.4084 C   0  0  0  0  0  0  0  0  0  0  0  0
    3.1710    8.8914    5.1274 O   0  0  0  0  0  0  0  0  0  0  0  0
    1.5379    9.4685    6.5956 N   0  0  0  0  0  0  0  0  0  0  0  0
    0.6636    9.9870    5.5988 C   0  0  0  0  0  0  0  0  0  0  0  0
    0.9848    9.5751    7.9927 C   0  0  0  0  0  0  0  0  0  0  0  0
    0.3912    4.2233   12.4197 F   0  0  0  0  0  0  0  0  0  0  0  0
   -1.8141    2.3993   12.5010 C   0  0  0  0  0  0  0  0  0  0  0  0
   -2.4279    1.8598   13.6646 C   0  0  0  0  0  0  0  0  0  0  0  0
   -2.2101    0.6227   14.0074 N   0  0  0  0  0  0  0  0  0  0  0  0
   -1.4119   -0.2777   13.3424 C   0  0  0  0  0  0  0  0  0  0  0  0
  1  2  1  0
  2  3  2  0
  3  4  1  0
  4  5  2  0
  5  6  1  0
  6  7  1  0
  7  8  1  0
  8  9  2  0
  9 10  1  0
 10 11  2  0
 11 12  1  0
 12 13  2  0
 11 14  1  0
 14 15  2  0
 14 16  1  0
 16 17  2  0
 17 18  1  0
 18 19  1  0
 19 20  2  0
 20 21  1  0
 21 22  2  0
 22 23  1  0
 23 24  2  0
 23 25  1  0
 25 26  3  0
 18 27  1  0
 27 28  2  0
 27 29  1  0
 29 30  1  0
 29 31  1  0
  9 32  1  0
  5 33  1  0
 33 34  2  0
 34 35  1  0
 35 36  2  0
  6  2  1  0
 36  4  1  0
 13  8  1  0
 24 16  1  0
 24 19  1  0
M  END
$$$$
