
     RDKit          3D

 36 40  0  0  0  0  0  0  0  0999 V2000
   -2.5948    6.7222    7.4348 C   0  0  0  0  0  0  0  0  0  0  0  0
   -1.5448    7.5977    7.9879 C   0  0  0  0  0  0  0  0  0  0  0  0
   -1.2250    8.8324    7.3607 N   0  0  0  0  0  0  0  0  0  0  0  0
   -0.2262    9.3887    8.1140 C   0  0  0  0  0  0  0  0  0  0  0  0
    0.0730    8.5990    9.1248 C   0  0  0  0  0  0  0  0  0  0  0  0
   -0.7546    7.5032    9.0226 N   0  0  0  0  0  0  0  0  0  0  0  0
   -0.6769    6.4660   10.0229 C   0  0  0  0  0  0  0  0  0  0  0  0
    0.5564    5.7212   10.1694 C   0  0  0  0  0  0  0  0  0  0  0  0
    0.6237    4.4513    9.5838 C   0  0  0  0  0  0  0  0  0  0  0  0
    1.6851    3.6400    9.7938 C   0  0  0  0  0  0  0  0  0  0  0  0
    2.7540    4.0490   10.6000 C   0  0  0  0  0  0  0  0  0  0  0  0
    2.6804    5.3105   11.1588 C   0  0  0  0  0  0  0  0  0  0  0  0
    1.6068    6.1272   10.9452 C   0  0  0  0  0  0  0  0  0  0  0  0
    3.8346    3.1648   10.9626 C   0  0  0  0  0  0  0  0  0  0  0  0
    4.9577    3.5853   11.3480 O   0  0  0  0  0  0  0  0  0  0  0  0
    3.6142    1.7242   10.8829 C   0  0  0  0  0  0  0  0  0  0  0  0
    2.3922    1.1594   11.2796 C   0  0  0  0  0  0  0  0  0  0  0  0
    2.4823   -0.2244   11.2845 N   0  0  0  0  0  0  0  0  0  0  0  0
    3.6988   -0.4869   10.8832 C   0  0  0  0  0  0  0  0  0  0  0  0
    4.3129   -1.6887   10.5435 C   0  0  0  0  0  0  0  0  0  0  0  0
    5.5928   -1.6812    9.9977 C   0  0  0  0  0  0  0  0  0  0  0  0
    6.2830   -0.5150    9.7624 C   0  0  0  0  0  0  0  0  0  0  0  0
    5.7074    0.6863   10.0661 C   0  0  0  0  0  0  0  0  0  0  0  0
    4.4086    0.6641   10.6319 C   0  0  0  0  0  0  0  0  0  0  0  0
    6.2745    1.9152    9.7726 C   0  0  0  0  0  0  0  0  0  0  0  0
    6.7939    3.0633    9.4930 C   0  0  0  0  0  0  0  0  0  0  0  0
    1.3030   -0.9597   11.4426 C   0  0  0  0  0  0  0  0  0  0  0  0
    1.2275   -2.0766   10.7146 O   0  0  0  0  0  0  0  0  0  0  0  0
    0.1791   -0.7328   12.2148 N   0  0  0  0  0  0  0  0  0  0  0  0
   -0.2646    0.5093   12.7506 C   0  0  0  0  0  0  0  0  0  0  0  0
   -0.7021   -1.8961   12.5882 C   0  0  0  0  0  0  0  0  0  0  0  0
   -0.4005    4.0569    8.7677 F   0  0  0  0  0  0  0  0  0  0  0  0
    1.0286    8.9518   10.0996 C   0  0  0  0  0  0  0  0  0  0  0  0
    1.6409   10.2214    9.9129 C   0  0  0  0  0  0  0  0  0  0  0  0
    1.3100   10.9664    8.8976 N   0  0  0  0  0  0  0  0  0  0  0  0
    0.3863   10.6566    7.9276 C   0  0  0  0  0  0  0  0  0  0  0  0
  1  2  1  0
  2  3  2  0
  3  4  1  0
  4  5  2  0
  5  6  1  0
  6  7  1  0
  7  8  1  0
  8  9  2  0
  9 10  1  0
 10 11  2  0
 11 12  1  0
 12 13  2  0
 11 14  1  0
 14 15  2  0
 14 16  1  0
 16 17  2  0
 17 18  1  0
 18 19  1  0
 19 20  2  0
 20 21  1  0
 21 22  2  0
 22 23  1  0
 23 24  2  0
 23 25  1  0
 25 26  3  0
 18 27  1  0
 27 28  2  0
 27 29  1  0
 29 30  1  0
 29 31  1  0
  9 32  1  0
  5 33  1  0
 33 34  2  0
 34 35  1  0
 35 36  2  0
  6  2  1  0
 36  4  1  0
 13  8  1  0
 24 16  1  0
 24 19  1  0
M  END
$$$$
