
     RDKit          3D

 36 40  0  0  0  0  0  0  0  0999 V2000
    2.8122    9.6452    8.7204 C   0  0  0  0  0  0  0  0  0  0  0  0
    1.6286    8.8223    9.0314 C   0  0  0  0  0  0  0  0  0  0  0  0
    0.6139    9.3096    9.8994 N   0  0  0  0  0  0  0  0  0  0  0  0
   -0.3251    8.3162    9.9744 C   0  0  0  0  0  0  0  0  0  0  0  0
    0.0400    7.2900    9.2337 C   0  0  0  0  0  0  0  0  0  0  0  0
    1.2470    7.6291    8.6644 N   0  0  0  0  0  0  0  0  0  0  0  0
    1.8873    6.7001    7.7646 C   0  0  0  0  0  0  0  0  0  0  0  0
    2.1375    5.3461    8.2130 C   0  0  0  0  0  0  0  0  0  0  0  0
    3.2421    5.1294    9.0455 C   0  0  0  0  0  0  0  0  0  0  0  0
    3.6222    3.8785    9.3913 C   0  0  0  0  0  0  0  0  0  0  0  0
    2.9171    2.7600    8.9312 C   0  0  0  0  0  0  0  0  0  0  0  0
    1.8204    2.9901    8.1229 C   0  0  0  0  0  0  0  0  0  0  0  0
    1.4395    4.2547    7.7750 C   0  0  0  0  0  0  0  0  0  0  0  0
    3.3702    1.4096    9.1596 C   0  0  0  0  0  0  0  0  0  0  0  0
    3.7415    0.6494    8.2264 O   0  0  0  0  0  0  0  0  0  0  0  0
    3.4028    0.9068   10.5294 C   0  0  0  0  0  0  0  0  0  0  0  0
    2.4858    1.3662   11.4874 C   0  0  0  0  0  0  0  0  0  0  0  0
    2.8241    0.8869   12.7440 N   0  0  0  0  0  0  0  0  0  0  0  0
    3.8854    0.1479   12.5511 C   0  0  0  0  0  0  0  0  0  0  0  0
    4.5744   -0.7078   13.4054 C   0  0  0  0  0  0  0  0  0  0  0  0
    5.6014   -1.5033   12.9069 C   0  0  0  0  0  0  0  0  0  0  0  0
    5.9613   -1.4897   11.5795 C   0  0  0  0  0  0  0  0  0  0  0  0
    5.2974   -0.6760   10.7055 C   0  0  0  0  0  0  0  0  0  0  0  0
    4.2615    0.1372   11.2281 C   0  0  0  0  0  0  0  0  0  0  0  0
    5.5130   -0.6659    9.3376 C   0  0  0  0  0  0  0  0  0  0  0  0
    5.7249   -0.6587    8.0643 C   0  0  0  0  0  0  0  0  0  0  0  0
    1.9050    1.0615   13.7838 C   0  0  0  0  0  0  0  0  0  0  0  0
    2.4422    1.2698   14.9884 O   0  0  0  0  0  0  0  0  0  0  0  0
    0.5227    1.0446   13.7965 N   0  0  0  0  0  0  0  0  0  0  0  0
   -0.3334    1.2503   14.9152 C   0  0  0  0  0  0  0  0  0  0  0  0
   -0.2197    0.7544   12.5184 C   0  0  0  0  0  0  0  0  0  0  0  0
    3.9165    6.2175    9.5268 F   0  0  0  0  0  0  0  0  0  0  0  0
   -0.7704    6.1470    9.0777 C   0  0  0  0  0  0  0  0  0  0  0  0
   -2.0094    6.1857    9.7744 C   0  0  0  0  0  0  0  0  0  0  0  0
   -2.3255    7.2242   10.4934 N   0  0  0  0  0  0  0  0  0  0  0  0
   -1.5625    8.3541   10.6707 C   0  0  0  0  0  0  0  0  0  0  0  0
  1  2  1  0
  2  3  2  0
  3  4  1  0
  4  5  2  0
  5  6  1  0
  6  7  1  0
  7  8  1  0
  8  9  2  0
  9 10  1  0
 10 11  2  0
 11 12  1  0
 12 13  2  0
 11 14  1  0
 14 15  2  0
 14 16  1  0
 16 17  2  0
 17 18  1  0
 18 19  1  0
 19 20  2  0
 20 21  1  0
 21 22  2  0
 22 23  1  0
 23 24  2  0
 23 25  1  0
 25 26  3  0
 18 27  1  0
 27 28  2  0
 27 29  1  0
 29 30  1  0
 29 31  1  0
  9 32  1  0
  5 33  1  0
 33 34  2  0
 34 35  1  0
 35 36  2  0
  6  2  1  0
 36  4  1  0
 13  8  1  0
 24 16  1  0
 24 19  1  0
M  END
$$$$
