
     RDKit          3D

 36 40  0  0  0  0  0  0  0  0999 V2000
    2.5830   -1.3887    9.9859 C   0  0  0  0  0  0  0  0  0  0  0  0
    1.9186   -0.5604   11.0093 C   0  0  0  0  0  0  0  0  0  0  0  0
    0.5748   -0.8202   11.3927 N   0  0  0  0  0  0  0  0  0  0  0  0
    0.2688    0.1140   12.3457 C   0  0  0  0  0  0  0  0  0  0  0  0
    1.3042    0.8995   12.5597 C   0  0  0  0  0  0  0  0  0  0  0  0
    2.3064    0.4614   11.7232 N   0  0  0  0  0  0  0  0  0  0  0  0
    3.5901    1.1197   11.7568 C   0  0  0  0  0  0  0  0  0  0  0  0
    3.7583    2.3696   11.0450 C   0  0  0  0  0  0  0  0  0  0  0  0
    4.7465    2.4273   10.0549 C   0  0  0  0  0  0  0  0  0  0  0  0
    5.0581    3.5935    9.4453 C   0  0  0  0  0  0  0  0  0  0  0  0
    4.3959    4.7800    9.7823 C   0  0  0  0  0  0  0  0  0  0  0  0
    3.4128    4.7048   10.7502 C   0  0  0  0  0  0  0  0  0  0  0  0
    3.1009    3.5254   11.3644 C   0  0  0  0  0  0  0  0  0  0  0  0
    4.7927    6.0649    9.2602 C   0  0  0  0  0  0  0  0  0  0  0  0
    5.9987    6.3898    9.0962 O   0  0  0  0  0  0  0  0  0  0  0  0
    3.7527    7.0250    8.9042 C   0  0  0  0  0  0  0  0  0  0  0  0
    2.4235    6.6127    8.7222 C   0  0  0  0  0  0  0  0  0  0  0  0
    1.6623    7.6563    8.2175 N   0  0  0  0  0  0  0  0  0  0  0  0
    2.4892    8.6647    8.1224 C   0  0  0  0  0  0  0  0  0  0  0  0
    2.2680   10.0074    7.8306 C   0  0  0  0  0  0  0  0  0  0  0  0
    3.3132   10.9196    7.9377 C   0  0  0  0  0  0  0  0  0  0  0  0
    4.5743   10.5463    8.3403 C   0  0  0  0  0  0  0  0  0  0  0  0
    4.8272    9.2404    8.6524 C   0  0  0  0  0  0  0  0  0  0  0  0
    3.7574    8.3198    8.5282 C   0  0  0  0  0  0  0  0  0  0  0  0
    6.0299    8.7836    9.1651 C   0  0  0  0  0  0  0  0  0  0  0  0
    7.1455    8.3547    9.6524 C   0  0  0  0  0  0  0  0  0  0  0  0
    0.2732    7.4973    8.1771 C   0  0  0  0  0  0  0  0  0  0  0  0
   -0.4275    8.4672    8.7700 O   0  0  0  0  0  0  0  0  0  0  0  0
   -0.5190    6.4998    7.6401 N   0  0  0  0  0  0  0  0  0  0  0  0
   -0.1008    5.4073    6.8288 C   0  0  0  0  0  0  0  0  0  0  0  0
   -2.0053    6.5320    7.8830 C   0  0  0  0  0  0  0  0  0  0  0  0
    5.3750    1.2669    9.6956 F   0  0  0  0  0  0  0  0  0  0  0  0
    1.2897    1.9162   13.5365 C   0  0  0  0  0  0  0  0  0  0  0  0
    0.0790    2.0277   14.2738 C   0  0  0  0  0  0  0  0  0  0  0  0
   -0.9165    1.2261   14.0253 N   0  0  0  0  0  0  0  0  0  0  0  0
   -0.9406    0.2263   13.0819 C   0  0  0  0  0  0  0  0  0  0  0  0
  1  2  1  0
  2  3  2  0
  3  4  1  0
  4  5  2  0
  5  6  1  0
  6  7  1  0
  7  8  1  0
  8  9  2  0
  9 10  1  0
 10 11  2  0
 11 12  1  0
 12 13  2  0
 11 14  1  0
 14 15  2  0
 14 16  1  0
 16 17  2  0
 17 18  1  0
 18 19  1  0
 19 20  2  0
 20 21  1  0
 21 22  2  0
 22 23  1  0
 23 24  2  0
 23 25  1  0
 25 26  3  0
 18 27  1  0
 27 28  2  0
 27 29  1  0
 29 30  1  0
 29 31  1  0
  9 32  1  0
  5 33  1  0
 33 34  2  0
 34 35  1  0
 35 36  2  0
  6  2  1  0
 36  4  1  0
 13  8  1  0
 24 16  1  0
 24 19  1  0
M  END
$$$$
