
     RDKit          3D

 36 40  0  0  0  0  0  0  0  0999 V2000
    1.8351    8.0526    7.6737 C   0  0  0  0  0  0  0  0  0  0  0  0
    2.8736    8.3198    8.6861 C   0  0  0  0  0  0  0  0  0  0  0  0
    2.6958    9.3444    9.6550 N   0  0  0  0  0  0  0  0  0  0  0  0
    3.8248    9.3292   10.4293 C   0  0  0  0  0  0  0  0  0  0  0  0
    4.6508    8.3935   10.0084 C   0  0  0  0  0  0  0  0  0  0  0  0
    4.0395    7.7874    8.9338 N   0  0  0  0  0  0  0  0  0  0  0  0
    4.7022    6.6883    8.2741 C   0  0  0  0  0  0  0  0  0  0  0  0
    4.5351    5.3491    8.7992 C   0  0  0  0  0  0  0  0  0  0  0  0
    5.1059    4.2918    8.0805 C   0  0  0  0  0  0  0  0  0  0  0  0
    4.8762    3.0054    8.4287 C   0  0  0  0  0  0  0  0  0  0  0  0
    4.0638    2.6916    9.5248 C   0  0  0  0  0  0  0  0  0  0  0  0
    3.5198    3.7455   10.2334 C   0  0  0  0  0  0  0  0  0  0  0  0
    3.7532    5.0436    9.8788 C   0  0  0  0  0  0  0  0  0  0  0  0
    3.6805    1.3379    9.8437 C   0  0  0  0  0  0  0  0  0  0  0  0
    4.1778    0.3356    9.2650 O   0  0  0  0  0  0  0  0  0  0  0  0
    2.6782    1.1227   10.8825 C   0  0  0  0  0  0  0  0  0  0  0  0
    1.6114    2.0191   11.0509 C   0  0  0  0  0  0  0  0  0  0  0  0
    0.9013    1.7091   12.2011 N   0  0  0  0  0  0  0  0  0  0  0  0
    1.4970    0.6547   12.6941 C   0  0  0  0  0  0  0  0  0  0  0  0
    1.1446   -0.1917   13.7411 C   0  0  0  0  0  0  0  0  0  0  0  0
    1.8841   -1.3468   13.9754 C   0  0  0  0  0  0  0  0  0  0  0  0
    2.9588   -1.7009   13.1936 C   0  0  0  0  0  0  0  0  0  0  0  0
    3.3257   -0.9051   12.1452 C   0  0  0  0  0  0  0  0  0  0  0  0
    2.5715    0.2739   11.9246 C   0  0  0  0  0  0  0  0  0  0  0  0
    4.3231   -1.2253   11.2394 C   0  0  0  0  0  0  0  0  0  0  0  0
    5.2450   -1.5287   10.3884 C   0  0  0  0  0  0  0  0  0  0  0  0
   -0.3200    2.3567   12.4144 C   0  0  0  0  0  0  0  0  0  0  0  0
   -0.7504    2.3565   13.6785 O   0  0  0  0  0  0  0  0  0  0  0  0
   -1.1827    2.9946   11.5427 N   0  0  0  0  0  0  0  0  0  0  0  0
   -0.9473    3.3180   10.1765 C   0  0  0  0  0  0  0  0  0  0  0  0
   -2.5294    3.4477   12.0429 C   0  0  0  0  0  0  0  0  0  0  0  0
    5.9279    4.5899    7.0289 F   0  0  0  0  0  0  0  0  0  0  0  0
    5.8690    8.1144   10.6612 C   0  0  0  0  0  0  0  0  0  0  0  0
    6.1370    8.9134   11.8064 C   0  0  0  0  0  0  0  0  0  0  0  0
    5.2878    9.8256   12.1832 N   0  0  0  0  0  0  0  0  0  0  0  0
    4.0934   10.1275   11.5729 C   0  0  0  0  0  0  0  0  0  0  0  0
  1  2  1  0
  2  3  2  0
  3  4  1  0
  4  5  2  0
  5  6  1  0
  6  7  1  0
  7  8  1  0
  8  9  2  0
  9 10  1  0
 10 11  2  0
 11 12  1  0
 12 13  2  0
 11 14  1  0
 14 15  2  0
 14 16  1  0
 16 17  2  0
 17 18  1  0
 18 19  1  0
 19 20  2  0
 20 21  1  0
 21 22  2  0
 22 23  1  0
 23 24  2  0
 23 25  1  0
 25 26  3  0
 18 27  1  0
 27 28  2  0
 27 29  1  0
 29 30  1  0
 29 31  1  0
  9 32  1  0
  5 33  1  0
 33 34  2  0
 34 35  1  0
 35 36  2  0
  6  2  1  0
 36  4  1  0
 13  8  1  0
 24 16  1  0
 24 19  1  0
M  END
$$$$
