
     RDKit          3D

 36 40  0  0  0  0  0  0  0  0999 V2000
    2.9127   -2.2416   10.2062 C   0  0  0  0  0  0  0  0  0  0  0  0
    2.2518   -1.3327   11.1612 C   0  0  0  0  0  0  0  0  0  0  0  0
    1.0118   -1.6859   11.7596 N   0  0  0  0  0  0  0  0  0  0  0  0
    0.6798   -0.6414   12.5800 C   0  0  0  0  0  0  0  0  0  0  0  0
    1.6058    0.2934   12.5215 C   0  0  0  0  0  0  0  0  0  0  0  0
    2.5621   -0.1587   11.6401 N   0  0  0  0  0  0  0  0  0  0  0  0
    3.7309    0.6507   11.3925 C   0  0  0  0  0  0  0  0  0  0  0  0
    3.6669    1.6883   10.3843 C   0  0  0  0  0  0  0  0  0  0  0  0
    4.8550    2.3532   10.0577 C   0  0  0  0  0  0  0  0  0  0  0  0
    4.8526    3.4238    9.2315 C   0  0  0  0  0  0  0  0  0  0  0  0
    3.6599    3.8968    8.6715 C   0  0  0  0  0  0  0  0  0  0  0  0
    2.4976    3.2214    8.9909 C   0  0  0  0  0  0  0  0  0  0  0  0
    2.5034    2.1408    9.8262 C   0  0  0  0  0  0  0  0  0  0  0  0
    3.5941    5.1150    7.9017 C   0  0  0  0  0  0  0  0  0  0  0  0
    4.5788    5.5687    7.2604 O   0  0  0  0  0  0  0  0  0  0  0  0
    2.3329    5.8485    7.8623 C   0  0  0  0  0  0  0  0  0  0  0  0
    1.6257    6.1293    9.0417 C   0  0  0  0  0  0  0  0  0  0  0  0
    0.3845    6.6689    8.7398 N   0  0  0  0  0  0  0  0  0  0  0  0
    0.3516    6.7360    7.4345 C   0  0  0  0  0  0  0  0  0  0  0  0
   -0.5633    7.3291    6.5696 C   0  0  0  0  0  0  0  0  0  0  0  0
   -0.2888    7.3879    5.2068 C   0  0  0  0  0  0  0  0  0  0  0  0
    0.8753    6.8885    4.6708 C   0  0  0  0  0  0  0  0  0  0  0  0
    1.8065    6.3141    5.4892 C   0  0  0  0  0  0  0  0  0  0  0  0
    1.5096    6.2504    6.8731 C   0  0  0  0  0  0  0  0  0  0  0  0
    3.0500    5.8775    5.0638 C   0  0  0  0  0  0  0  0  0  0  0  0
    4.2139    5.4762    4.6759 C   0  0  0  0  0  0  0  0  0  0  0  0
   -0.3692    7.2105    9.7864 C   0  0  0  0  0  0  0  0  0  0  0  0
   -1.6929    7.1647    9.6166 O   0  0  0  0  0  0  0  0  0  0  0  0
    0.0098    7.8052   10.9754 N   0  0  0  0  0  0  0  0  0  0  0  0
    1.3348    8.0417   11.4391 C   0  0  0  0  0  0  0  0  0  0  0  0
   -1.0535    8.2507   11.9449 C   0  0  0  0  0  0  0  0  0  0  0  0
    6.0289    1.8773   10.5735 F   0  0  0  0  0  0  0  0  0  0  0  0
    1.5507    1.4592   13.3126 C   0  0  0  0  0  0  0  0  0  0  0  0
    0.4263    1.5487   14.1784 C   0  0  0  0  0  0  0  0  0  0  0  0
   -0.4619    0.5970   14.2005 N   0  0  0  0  0  0  0  0  0  0  0  0
   -0.4435   -0.5512   13.4446 C   0  0  0  0  0  0  0  0  0  0  0  0
  1  2  1  0
  2  3  2  0
  3  4  1  0
  4  5  2  0
  5  6  1  0
  6  7  1  0
  7  8  1  0
  8  9  2  0
  9 10  1  0
 10 11  2  0
 11 12  1  0
 12 13  2  0
 11 14  1  0
 14 15  2  0
 14 16  1  0
 16 17  2  0
 17 18  1  0
 18 19  1  0
 19 20  2  0
 20 21  1  0
 21 22  2  0
 22 23  1  0
 23 24  2  0
 23 25  1  0
 25 26  3  0
 18 27  1  0
 27 28  2  0
 27 29  1  0
 29 30  1  0
 29 31  1  0
  9 32  1  0
  5 33  1  0
 33 34  2  0
 34 35  1  0
 35 36  2  0
  6  2  1  0
 36  4  1  0
 13  8  1  0
 24 16  1  0
 24 19  1  0
M  END
$$$$
