
     RDKit          3D

 36 40  0  0  0  0  0  0  0  0999 V2000
    1.4484   10.5535    7.8909 C   0  0  0  0  0  0  0  0  0  0  0  0
    1.4027    9.4924    6.8677 C   0  0  0  0  0  0  0  0  0  0  0  0
    1.7202    9.7776    5.5119 N   0  0  0  0  0  0  0  0  0  0  0  0
    1.5820    8.5945    4.8370 C   0  0  0  0  0  0  0  0  0  0  0  0
    1.2130    7.6398    5.6660 C   0  0  0  0  0  0  0  0  0  0  0  0
    1.1102    8.2209    6.9101 N   0  0  0  0  0  0  0  0  0  0  0  0
    0.7471    7.4027    8.0420 C   0  0  0  0  0  0  0  0  0  0  0  0
    1.6730    6.3891    8.5028 C   0  0  0  0  0  0  0  0  0  0  0  0
    1.2068    5.0717    8.5883 C   0  0  0  0  0  0  0  0  0  0  0  0
    1.9643    4.0964    9.1395 C   0  0  0  0  0  0  0  0  0  0  0  0
    3.2431    4.3742    9.6368 C   0  0  0  0  0  0  0  0  0  0  0  0
    3.6956    5.6754    9.5319 C   0  0  0  0  0  0  0  0  0  0  0  0
    2.9279    6.6582    8.9751 C   0  0  0  0  0  0  0  0  0  0  0  0
    4.0242    3.3981   10.3567 C   0  0  0  0  0  0  0  0  0  0  0  0
    5.2835    3.3818   10.3317 O   0  0  0  0  0  0  0  0  0  0  0  0
    3.3250    2.3916   11.1492 C   0  0  0  0  0  0  0  0  0  0  0  0
    2.0256    2.6248   11.6256 C   0  0  0  0  0  0  0  0  0  0  0  0
    1.6441    1.6132   12.4940 N   0  0  0  0  0  0  0  0  0  0  0  0
    2.6590    0.7893   12.5222 C   0  0  0  0  0  0  0  0  0  0  0  0
    2.7985   -0.4745   13.0882 C   0  0  0  0  0  0  0  0  0  0  0  0
    3.9506   -1.2166   12.8476 C   0  0  0  0  0  0  0  0  0  0  0  0
    4.9691   -0.7517   12.0486 C   0  0  0  0  0  0  0  0  0  0  0  0
    4.8622    0.4770   11.4607 C   0  0  0  0  0  0  0  0  0  0  0  0
    3.6892    1.2271   11.7230 C   0  0  0  0  0  0  0  0  0  0  0  0
    5.7811    0.9891   10.5599 C   0  0  0  0  0  0  0  0  0  0  0  0
    6.6329    1.4601    9.7122 C   0  0  0  0  0  0  0  0  0  0  0  0
    0.3056    1.5622   12.8967 C   0  0  0  0  0  0  0  0  0  0  0  0
    0.0977    1.0613   14.1170 O   0  0  0  0  0  0  0  0  0  0  0  0
   -0.8599    1.9276   12.2493 N   0  0  0  0  0  0  0  0  0  0  0  0
   -2.1573    1.3685   12.4248 C   0  0  0  0  0  0  0  0  0  0  0  0
   -0.8117    3.0166   11.2097 C   0  0  0  0  0  0  0  0  0  0  0  0
   -0.0277    4.7846    8.0746 F   0  0  0  0  0  0  0  0  0  0  0  0
    1.0542    6.3015    5.2515 C   0  0  0  0  0  0  0  0  0  0  0  0
    1.3246    6.0592    3.8768 C   0  0  0  0  0  0  0  0  0  0  0  0
    1.6878    7.0370    3.0974 N   0  0  0  0  0  0  0  0  0  0  0  0
    1.8514    8.3520    3.4637 C   0  0  0  0  0  0  0  0  0  0  0  0
  1  2  1  0
  2  3  2  0
  3  4  1  0
  4  5  2  0
  5  6  1  0
  6  7  1  0
  7  8  1  0
  8  9  2  0
  9 10  1  0
 10 11  2  0
 11 12  1  0
 12 13  2  0
 11 14  1  0
 14 15  2  0
 14 16  1  0
 16 17  2  0
 17 18  1  0
 18 19  1  0
 19 20  2  0
 20 21  1  0
 21 22  2  0
 22 23  1  0
 23 24  2  0
 23 25  1  0
 25 26  3  0
 18 27  1  0
 27 28  2  0
 27 29  1  0
 29 30  1  0
 29 31  1  0
  9 32  1  0
  5 33  1  0
 33 34  2  0
 34 35  1  0
 35 36  2  0
  6  2  1  0
 36  4  1  0
 13  8  1  0
 24 16  1  0
 24 19  1  0
M  END
$$$$
