
     RDKit          3D

 36 40  0  0  0  0  0  0  0  0999 V2000
    2.1446    0.5320   11.7960 C   0  0  0  0  0  0  0  0  0  0  0  0
    3.3971    1.3053   11.7059 C   0  0  0  0  0  0  0  0  0  0  0  0
    4.1845    1.5485   12.8640 N   0  0  0  0  0  0  0  0  0  0  0  0
    5.2599    2.2819   12.4397 C   0  0  0  0  0  0  0  0  0  0  0  0
    5.1806    2.4942   11.1422 C   0  0  0  0  0  0  0  0  0  0  0  0
    4.0234    1.8815   10.7161 N   0  0  0  0  0  0  0  0  0  0  0  0
    3.6810    1.9195    9.3148 C   0  0  0  0  0  0  0  0  0  0  0  0
    2.9436    3.0553    8.8016 C   0  0  0  0  0  0  0  0  0  0  0  0
    1.6352    2.8343    8.3549 C   0  0  0  0  0  0  0  0  0  0  0  0
    0.9337    3.8106    7.7356 C   0  0  0  0  0  0  0  0  0  0  0  0
    1.4938    5.0766    7.5275 C   0  0  0  0  0  0  0  0  0  0  0  0
    2.7801    5.2844    7.9871 C   0  0  0  0  0  0  0  0  0  0  0  0
    3.4861    4.2961    8.6118 C   0  0  0  0  0  0  0  0  0  0  0  0
    0.8355    6.0977    6.7496 C   0  0  0  0  0  0  0  0  0  0  0  0
   -0.1276    5.8492    5.9766 O   0  0  0  0  0  0  0  0  0  0  0  0
    1.3032    7.4751    6.8675 C   0  0  0  0  0  0  0  0  0  0  0  0
    1.6303    8.0203    8.1188 C   0  0  0  0  0  0  0  0  0  0  0  0
    1.8722    9.3807    8.0011 N   0  0  0  0  0  0  0  0  0  0  0  0
    1.7234    9.6432    6.7288 C   0  0  0  0  0  0  0  0  0  0  0  0
    1.9888   10.7943    5.9930 C   0  0  0  0  0  0  0  0  0  0  0  0
    1.8805   10.7687    4.6061 C   0  0  0  0  0  0  0  0  0  0  0  0
    1.5298    9.6303    3.9186 C   0  0  0  0  0  0  0  0  0  0  0  0
    1.2782    8.4753    4.6037 C   0  0  0  0  0  0  0  0  0  0  0  0
    1.3808    8.5178    6.0162 C   0  0  0  0  0  0  0  0  0  0  0  0
    1.0207    7.2554    4.0007 C   0  0  0  0  0  0  0  0  0  0  0  0
    0.7696    6.1204    3.4396 C   0  0  0  0  0  0  0  0  0  0  0  0
    2.4221   10.0483    9.1003 C   0  0  0  0  0  0  0  0  0  0  0  0
    3.5723   10.6837    8.8625 O   0  0  0  0  0  0  0  0  0  0  0  0
    1.9948   10.1621   10.4101 N   0  0  0  0  0  0  0  0  0  0  0  0
    0.7897    9.6544   10.9728 C   0  0  0  0  0  0  0  0  0  0  0  0
    2.8439   10.9212   11.3960 C   0  0  0  0  0  0  0  0  0  0  0  0
    1.0682    1.6110    8.5840 F   0  0  0  0  0  0  0  0  0  0  0  0
    6.1879    3.1735   10.4268 C   0  0  0  0  0  0  0  0  0  0  0  0
    7.2942    3.6079   11.2072 C   0  0  0  0  0  0  0  0  0  0  0  0
    7.3265    3.3726   12.4875 N   0  0  0  0  0  0  0  0  0  0  0  0
    6.3649    2.7166   13.2189 C   0  0  0  0  0  0  0  0  0  0  0  0
  1  2  1  0
  2  3  2  0
  3  4  1  0
  4  5  2  0
  5  6  1  0
  6  7  1  0
  7  8  1  0
  8  9  2  0
  9 10  1  0
 10 11  2  0
 11 12  1  0
 12 13  2  0
 11 14  1  0
 14 15  2  0
 14 16  1  0
 16 17  2  0
 17 18  1  0
 18 19  1  0
 19 20  2  0
 20 21  1  0
 21 22  2  0
 22 23  1  0
 23 24  2  0
 23 25  1  0
 25 26  3  0
 18 27  1  0
 27 28  2  0
 27 29  1  0
 29 30  1  0
 29 31  1  0
  9 32  1  0
  5 33  1  0
 33 34  2  0
 34 35  1  0
 35 36  2  0
  6  2  1  0
 36  4  1  0
 13  8  1  0
 24 16  1  0
 24 19  1  0
M  END
$$$$
