
     RDKit          3D

 36 40  0  0  0  0  0  0  0  0999 V2000
    2.1643    0.0880   11.1380 C   0  0  0  0  0  0  0  0  0  0  0  0
    3.4427    0.7356   11.4861 C   0  0  0  0  0  0  0  0  0  0  0  0
    4.0923    0.4442   12.7163 N   0  0  0  0  0  0  0  0  0  0  0  0
    5.2340    1.1998   12.7263 C   0  0  0  0  0  0  0  0  0  0  0  0
    5.3184    1.9088   11.6195 C   0  0  0  0  0  0  0  0  0  0  0  0
    4.2019    1.6033   10.8738 N   0  0  0  0  0  0  0  0  0  0  0  0
    4.0321    2.2134    9.5771 C   0  0  0  0  0  0  0  0  0  0  0  0
    3.3881    3.5074    9.4877 C   0  0  0  0  0  0  0  0  0  0  0  0
    3.3480    4.1296    8.2342 C   0  0  0  0  0  0  0  0  0  0  0  0
    2.8905    5.3947    8.0960 C   0  0  0  0  0  0  0  0  0  0  0  0
    2.4363    6.1198    9.2041 C   0  0  0  0  0  0  0  0  0  0  0  0
    2.4678    5.4874   10.4321 C   0  0  0  0  0  0  0  0  0  0  0  0
    2.9310    4.2098   10.5684 C   0  0  0  0  0  0  0  0  0  0  0  0
    2.0741    7.5138    9.1232 C   0  0  0  0  0  0  0  0  0  0  0  0
    1.8903    8.2293   10.1435 O   0  0  0  0  0  0  0  0  0  0  0  0
    1.9187    8.1191    7.8043 C   0  0  0  0  0  0  0  0  0  0  0  0
    1.7062    7.3242    6.6674 C   0  0  0  0  0  0  0  0  0  0  0  0
    1.7698    8.1008    5.5202 N   0  0  0  0  0  0  0  0  0  0  0  0
    1.9858    9.3181    5.9458 C   0  0  0  0  0  0  0  0  0  0  0  0
    1.9870   10.5373    5.2747 C   0  0  0  0  0  0  0  0  0  0  0  0
    2.1014   11.7227    5.9943 C   0  0  0  0  0  0  0  0  0  0  0  0
    2.2010   11.7414    7.3659 C   0  0  0  0  0  0  0  0  0  0  0  0
    2.1861   10.5661    8.0626 C   0  0  0  0  0  0  0  0  0  0  0  0
    2.0805    9.3659    7.3171 C   0  0  0  0  0  0  0  0  0  0  0  0
    2.1759   10.4832    9.4450 C   0  0  0  0  0  0  0  0  0  0  0  0
    2.1733   10.4149   10.7340 C   0  0  0  0  0  0  0  0  0  0  0  0
    1.3683    7.5225    4.3115 C   0  0  0  0  0  0  0  0  0  0  0  0
    2.1541    7.7888    3.2652 O   0  0  0  0  0  0  0  0  0  0  0  0
    0.2847    6.7254    3.9932 N   0  0  0  0  0  0  0  0  0  0  0  0
   -0.7387    6.2681    4.8708 C   0  0  0  0  0  0  0  0  0  0  0  0
    0.1281    6.2297    2.5794 C   0  0  0  0  0  0  0  0  0  0  0  0
    3.7583    3.4168    7.1414 F   0  0  0  0  0  0  0  0  0  0  0  0
    6.4257    2.7341   11.3358 C   0  0  0  0  0  0  0  0  0  0  0  0
    7.4434    2.7413   12.3289 C   0  0  0  0  0  0  0  0  0  0  0  0
    7.3137    2.0217   13.4062 N   0  0  0  0  0  0  0  0  0  0  0  0
    6.2505    1.2079   13.7183 C   0  0  0  0  0  0  0  0  0  0  0  0
  1  2  1  0
  2  3  2  0
  3  4  1  0
  4  5  2  0
  5  6  1  0
  6  7  1  0
  7  8  1  0
  8  9  2  0
  9 10  1  0
 10 11  2  0
 11 12  1  0
 12 13  2  0
 11 14  1  0
 14 15  2  0
 14 16  1  0
 16 17  2  0
 17 18  1  0
 18 19  1  0
 19 20  2  0
 20 21  1  0
 21 22  2  0
 22 23  1  0
 23 24  2  0
 23 25  1  0
 25 26  3  0
 18 27  1  0
 27 28  2  0
 27 29  1  0
 29 30  1  0
 29 31  1  0
  9 32  1  0
  5 33  1  0
 33 34  2  0
 34 35  1  0
 35 36  2  0
  6  2  1  0
 36  4  1  0
 13  8  1  0
 24 16  1  0
 24 19  1  0
M  END
$$$$
