
     RDKit          3D

 36 40  0  0  0  0  0  0  0  0999 V2000
    5.7926    1.5795   11.4469 C   0  0  0  0  0  0  0  0  0  0  0  0
    4.3728    1.3478   11.7713 C   0  0  0  0  0  0  0  0  0  0  0  0
    3.9915    0.8542   13.0485 N   0  0  0  0  0  0  0  0  0  0  0  0
    2.6264    0.7546   13.0204 C   0  0  0  0  0  0  0  0  0  0  0  0
    2.1673    1.1421   11.8482 C   0  0  0  0  0  0  0  0  0  0  0  0
    3.2648    1.5021   11.0986 N   0  0  0  0  0  0  0  0  0  0  0  0
    3.0694    2.0041    9.7598 C   0  0  0  0  0  0  0  0  0  0  0  0
    2.7819    3.4108    9.5712 C   0  0  0  0  0  0  0  0  0  0  0  0
    3.4244    4.0712    8.5170 C   0  0  0  0  0  0  0  0  0  0  0  0
    3.3166    5.4102    8.3617 C   0  0  0  0  0  0  0  0  0  0  0  0
    2.5525    6.1775    9.2490 C   0  0  0  0  0  0  0  0  0  0  0  0
    1.9122    5.5101   10.2754 C   0  0  0  0  0  0  0  0  0  0  0  0
    2.0235    4.1576   10.4298 C   0  0  0  0  0  0  0  0  0  0  0  0
    2.5257    7.6191    9.2030 C   0  0  0  0  0  0  0  0  0  0  0  0
    2.6068    8.3345   10.2366 O   0  0  0  0  0  0  0  0  0  0  0  0
    2.4035    8.2737    7.9043 C   0  0  0  0  0  0  0  0  0  0  0  0
    1.9464    7.5667    6.7814 C   0  0  0  0  0  0  0  0  0  0  0  0
    2.0863    8.3393    5.6383 N   0  0  0  0  0  0  0  0  0  0  0  0
    2.5828    9.4750    6.0547 C   0  0  0  0  0  0  0  0  0  0  0  0
    2.7894   10.6824    5.3942 C   0  0  0  0  0  0  0  0  0  0  0  0
    3.2018   11.8012    6.1113 C   0  0  0  0  0  0  0  0  0  0  0  0
    3.4038   11.7672    7.4713 C   0  0  0  0  0  0  0  0  0  0  0  0
    3.1948   10.6050    8.1587 C   0  0  0  0  0  0  0  0  0  0  0  0
    2.7861    9.4704    7.4150 C   0  0  0  0  0  0  0  0  0  0  0  0
    3.2694   10.4942    9.5372 C   0  0  0  0  0  0  0  0  0  0  0  0
    3.3294   10.3846   10.8218 C   0  0  0  0  0  0  0  0  0  0  0  0
    1.4849    7.8851    4.4599 C   0  0  0  0  0  0  0  0  0  0  0  0
    2.1874    8.0981    3.3444 O   0  0  0  0  0  0  0  0  0  0  0  0
    0.2735    7.2591    4.2325 N   0  0  0  0  0  0  0  0  0  0  0  0
   -0.7219    6.9281    5.1950 C   0  0  0  0  0  0  0  0  0  0  0  0
   -0.0796    6.8297    2.8325 C   0  0  0  0  0  0  0  0  0  0  0  0
    4.1454    3.3251    7.6260 F   0  0  0  0  0  0  0  0  0  0  0  0
    0.7883    1.1997   11.5605 C   0  0  0  0  0  0  0  0  0  0  0  0
   -0.0677    0.8129   12.6280 C   0  0  0  0  0  0  0  0  0  0  0  0
    0.4350    0.4384   13.7692 N   0  0  0  0  0  0  0  0  0  0  0  0
    1.7709    0.3677   14.0862 C   0  0  0  0  0  0  0  0  0  0  0  0
  1  2  1  0
  2  3  2  0
  3  4  1  0
  4  5  2  0
  5  6  1  0
  6  7  1  0
  7  8  1  0
  8  9  2  0
  9 10  1  0
 10 11  2  0
 11 12  1  0
 12 13  2  0
 11 14  1  0
 14 15  2  0
 14 16  1  0
 16 17  2  0
 17 18  1  0
 18 19  1  0
 19 20  2  0
 20 21  1  0
 21 22  2  0
 22 23  1  0
 23 24  2  0
 23 25  1  0
 25 26  3  0
 18 27  1  0
 27 28  2  0
 27 29  1  0
 29 30  1  0
 29 31  1  0
  9 32  1  0
  5 33  1  0
 33 34  2  0
 34 35  1  0
 35 36  2  0
  6  2  1  0
 36  4  1  0
 13  8  1  0
 24 16  1  0
 24 19  1  0
M  END
$$$$
