
     RDKit          3D

 36 40  0  0  0  0  0  0  0  0999 V2000
    3.0167   -0.9457    9.5137 C   0  0  0  0  0  0  0  0  0  0  0  0
    2.5560    0.0015   10.5459 C   0  0  0  0  0  0  0  0  0  0  0  0
    1.4393   -0.3086   11.3687 N   0  0  0  0  0  0  0  0  0  0  0  0
    1.2800    0.7633   12.2053 C   0  0  0  0  0  0  0  0  0  0  0  0
    2.1962    1.6755   11.9532 C   0  0  0  0  0  0  0  0  0  0  0  0
    2.9686    1.1800   10.9267 N   0  0  0  0  0  0  0  0  0  0  0  0
    4.0869    1.9566   10.4484 C   0  0  0  0  0  0  0  0  0  0  0  0
    3.8946    3.3627   10.1603 C   0  0  0  0  0  0  0  0  0  0  0  0
    3.5821    3.7208    8.8434 C   0  0  0  0  0  0  0  0  0  0  0  0
    3.5253    5.0183    8.4665 C   0  0  0  0  0  0  0  0  0  0  0  0
    3.7717    6.0451    9.3855 C   0  0  0  0  0  0  0  0  0  0  0  0
    4.0639    5.6769   10.6847 C   0  0  0  0  0  0  0  0  0  0  0  0
    4.1211    4.3655   11.0620 C   0  0  0  0  0  0  0  0  0  0  0  0
    3.8597    7.4310    8.9948 C   0  0  0  0  0  0  0  0  0  0  0  0
    4.4654    8.2948    9.6831 O   0  0  0  0  0  0  0  0  0  0  0  0
    3.2237    7.8465    7.7487 C   0  0  0  0  0  0  0  0  0  0  0  0
    2.4185    6.9578    7.0196 C   0  0  0  0  0  0  0  0  0  0  0  0
    2.0769    7.5135    5.7958 N   0  0  0  0  0  0  0  0  0  0  0  0
    2.6300    8.6982    5.7946 C   0  0  0  0  0  0  0  0  0  0  0  0
    2.5072    9.7665    4.9111 C   0  0  0  0  0  0  0  0  0  0  0  0
    3.0963   10.9891    5.2182 C   0  0  0  0  0  0  0  0  0  0  0  0
    3.7951   11.1941    6.3850 C   0  0  0  0  0  0  0  0  0  0  0  0
    3.9233   10.1752    7.2862 C   0  0  0  0  0  0  0  0  0  0  0  0
    3.3285    8.9323    6.9561 C   0  0  0  0  0  0  0  0  0  0  0  0
    4.5152   10.3096    8.5310 C   0  0  0  0  0  0  0  0  0  0  0  0
    5.0571   10.4321    9.6961 C   0  0  0  0  0  0  0  0  0  0  0  0
    1.1035    6.8656    5.0282 C   0  0  0  0  0  0  0  0  0  0  0  0
    1.5447    6.3230    3.8907 O   0  0  0  0  0  0  0  0  0  0  0  0
   -0.2536    6.6927    5.2266 N   0  0  0  0  0  0  0  0  0  0  0  0
   -1.1837    6.0735    4.3443 C   0  0  0  0  0  0  0  0  0  0  0  0
   -0.8844    7.2216    6.4882 C   0  0  0  0  0  0  0  0  0  0  0  0
    3.3070    2.7251    7.9470 F   0  0  0  0  0  0  0  0  0  0  0  0
    2.3059    2.8617   12.7073 C   0  0  0  0  0  0  0  0  0  0  0  0
    1.3591    2.9981   13.7593 C   0  0  0  0  0  0  0  0  0  0  0  0
    0.4732    2.0674   13.9693 N   0  0  0  0  0  0  0  0  0  0  0  0
    0.3340    0.9004   13.2559 C   0  0  0  0  0  0  0  0  0  0  0  0
  1  2  1  0
  2  3  2  0
  3  4  1  0
  4  5  2  0
  5  6  1  0
  6  7  1  0
  7  8  1  0
  8  9  2  0
  9 10  1  0
 10 11  2  0
 11 12  1  0
 12 13  2  0
 11 14  1  0
 14 15  2  0
 14 16  1  0
 16 17  2  0
 17 18  1  0
 18 19  1  0
 19 20  2  0
 20 21  1  0
 21 22  2  0
 22 23  1  0
 23 24  2  0
 23 25  1  0
 25 26  3  0
 18 27  1  0
 27 28  2  0
 27 29  1  0
 29 30  1  0
 29 31  1  0
  9 32  1  0
  5 33  1  0
 33 34  2  0
 34 35  1  0
 35 36  2  0
  6  2  1  0
 36  4  1  0
 13  8  1  0
 24 16  1  0
 24 19  1  0
M  END
$$$$
