
     RDKit          3D

 36 40  0  0  0  0  0  0  0  0999 V2000
    5.3919    2.3089   11.5215 C   0  0  0  0  0  0  0  0  0  0  0  0
    3.9686    1.9604   11.6881 C   0  0  0  0  0  0  0  0  0  0  0  0
    3.3945    1.8541   12.9841 N   0  0  0  0  0  0  0  0  0  0  0  0
    2.0809    1.5226   12.7869 C   0  0  0  0  0  0  0  0  0  0  0  0
    1.8267    1.4231   11.4983 C   0  0  0  0  0  0  0  0  0  0  0  0
    3.0072    1.6979   10.8450 N   0  0  0  0  0  0  0  0  0  0  0  0
    3.0311    1.6948    9.4021 C   0  0  0  0  0  0  0  0  0  0  0  0
    2.4729    2.8237    8.6872 C   0  0  0  0  0  0  0  0  0  0  0  0
    3.3395    3.8663    8.3379 C   0  0  0  0  0  0  0  0  0  0  0  0
    2.8707    5.0129    7.7953 C   0  0  0  0  0  0  0  0  0  0  0  0
    1.5020    5.1898    7.5602 C   0  0  0  0  0  0  0  0  0  0  0  0
    0.6608    4.1465    7.8961 C   0  0  0  0  0  0  0  0  0  0  0  0
    1.1374    2.9899    8.4445 C   0  0  0  0  0  0  0  0  0  0  0  0
    0.9472    6.4452    7.1164 C   0  0  0  0  0  0  0  0  0  0  0  0
   -0.1563    6.5266    6.5145 O   0  0  0  0  0  0  0  0  0  0  0  0
    1.6948    7.6707    7.3800 C   0  0  0  0  0  0  0  0  0  0  0  0
    2.3680    7.8561    8.5975 C   0  0  0  0  0  0  0  0  0  0  0  0
    2.8484    9.1539    8.6874 N   0  0  0  0  0  0  0  0  0  0  0  0
    2.5033    9.7224    7.5616 C   0  0  0  0  0  0  0  0  0  0  0  0
    2.8406   10.9581    7.0174 C   0  0  0  0  0  0  0  0  0  0  0  0
    2.4539   11.2701    5.7178 C   0  0  0  0  0  0  0  0  0  0  0  0
    1.7523   10.3881    4.9295 C   0  0  0  0  0  0  0  0  0  0  0  0
    1.4173    9.1582    5.4213 C   0  0  0  0  0  0  0  0  0  0  0  0
    1.8071    8.8574    6.7499 C   0  0  0  0  0  0  0  0  0  0  0  0
    0.8059    8.1641    4.6757 C   0  0  0  0  0  0  0  0  0  0  0  0
    0.2300    7.2455    3.9753 C   0  0  0  0  0  0  0  0  0  0  0  0
    3.7294    9.4582    9.7303 C   0  0  0  0  0  0  0  0  0  0  0  0
    4.7495   10.2536    9.3990 O   0  0  0  0  0  0  0  0  0  0  0  0
    3.7462    9.0707   11.0572 N   0  0  0  0  0  0  0  0  0  0  0  0
    4.8228    9.1961   11.9802 C   0  0  0  0  0  0  0  0  0  0  0  0
    2.5264    8.4102   11.6446 C   0  0  0  0  0  0  0  0  0  0  0  0
    4.6815    3.6888    8.5328 F   0  0  0  0  0  0  0  0  0  0  0  0
    0.5347    1.1507   11.0039 C   0  0  0  0  0  0  0  0  0  0  0  0
   -0.4712    0.9954   11.9968 C   0  0  0  0  0  0  0  0  0  0  0  0
   -0.1697    1.1043   13.2588 N   0  0  0  0  0  0  0  0  0  0  0  0
    1.0758    1.3668   13.7783 C   0  0  0  0  0  0  0  0  0  0  0  0
  1  2  1  0
  2  3  2  0
  3  4  1  0
  4  5  2  0
  5  6  1  0
  6  7  1  0
  7  8  1  0
  8  9  2  0
  9 10  1  0
 10 11  2  0
 11 12  1  0
 12 13  2  0
 11 14  1  0
 14 15  2  0
 14 16  1  0
 16 17  2  0
 17 18  1  0
 18 19  1  0
 19 20  2  0
 20 21  1  0
 21 22  2  0
 22 23  1  0
 23 24  2  0
 23 25  1  0
 25 26  3  0
 18 27  1  0
 27 28  2  0
 27 29  1  0
 29 30  1  0
 29 31  1  0
  9 32  1  0
  5 33  1  0
 33 34  2  0
 34 35  1  0
 35 36  2  0
  6  2  1  0
 36  4  1  0
 13  8  1  0
 24 16  1  0
 24 19  1  0
M  END
$$$$
