
     RDKit          3D

 36 40  0  0  0  0  0  0  0  0999 V2000
   -2.6960    5.4692   12.8244 C   0  0  0  0  0  0  0  0  0  0  0  0
   -2.7469    4.2946   13.7146 C   0  0  0  0  0  0  0  0  0  0  0  0
   -3.9611    3.5805   13.9048 N   0  0  0  0  0  0  0  0  0  0  0  0
   -3.6672    2.5650   14.7747 C   0  0  0  0  0  0  0  0  0  0  0  0
   -2.3958    2.6132   15.1153 C   0  0  0  0  0  0  0  0  0  0  0  0
   -1.8531    3.6882   14.4477 N   0  0  0  0  0  0  0  0  0  0  0  0
   -0.4477    3.9772   14.6025 C   0  0  0  0  0  0  0  0  0  0  0  0
    0.5162    3.2069   13.8445 C   0  0  0  0  0  0  0  0  0  0  0  0
    1.5508    3.9033   13.2083 C   0  0  0  0  0  0  0  0  0  0  0  0
    2.4057    3.2737   12.3707 C   0  0  0  0  0  0  0  0  0  0  0  0
    2.2853    1.9019   12.1188 C   0  0  0  0  0  0  0  0  0  0  0  0
    1.2690    1.2250   12.7653 C   0  0  0  0  0  0  0  0  0  0  0  0
    0.4070    1.8641   13.6102 C   0  0  0  0  0  0  0  0  0  0  0  0
    3.0842    1.2222   11.1283 C   0  0  0  0  0  0  0  0  0  0  0  0
    3.2573   -0.0255   11.1331 O   0  0  0  0  0  0  0  0  0  0  0  0
    3.7134    2.0140   10.0761 C   0  0  0  0  0  0  0  0  0  0  0  0
    3.1364    3.2152    9.6357 C   0  0  0  0  0  0  0  0  0  0  0  0
    3.8085    3.6894    8.5193 N   0  0  0  0  0  0  0  0  0  0  0  0
    4.7675    2.8260    8.3081 C   0  0  0  0  0  0  0  0  0  0  0  0
    5.8499    2.8536    7.4337 C   0  0  0  0  0  0  0  0  0  0  0  0
    6.8241    1.8629    7.5077 C   0  0  0  0  0  0  0  0  0  0  0  0
    6.7688    0.8476    8.4339 C   0  0  0  0  0  0  0  0  0  0  0  0
    5.7312    0.7954    9.3213 C   0  0  0  0  0  0  0  0  0  0  0  0
    4.7401    1.8037    9.2278 C   0  0  0  0  0  0  0  0  0  0  0  0
    5.6388   -0.1218   10.3547 C   0  0  0  0  0  0  0  0  0  0  0  0
    5.5584   -0.9696   11.3247 C   0  0  0  0  0  0  0  0  0  0  0  0
    3.5133    4.9821    8.0738 C   0  0  0  0  0  0  0  0  0  0  0  0
    4.5729    5.7682    7.8676 O   0  0  0  0  0  0  0  0  0  0  0  0
    2.3084    5.6091    7.8167 N   0  0  0  0  0  0  0  0  0  0  0  0
    1.0042    5.0464    7.9116 C   0  0  0  0  0  0  0  0  0  0  0  0
    2.3109    7.0426    7.3540 C   0  0  0  0  0  0  0  0  0  0  0  0
    1.6964    5.2369   13.4748 F   0  0  0  0  0  0  0  0  0  0  0  0
   -1.8038    1.6487   15.9563 C   0  0  0  0  0  0  0  0  0  0  0  0
   -2.6780    0.6211   16.4052 C   0  0  0  0  0  0  0  0  0  0  0  0
   -3.9276    0.6167   16.0394 N   0  0  0  0  0  0  0  0  0  0  0  0
   -4.5402    1.5386   15.2240 C   0  0  0  0  0  0  0  0  0  0  0  0
  1  2  1  0
  2  3  2  0
  3  4  1  0
  4  5  2  0
  5  6  1  0
  6  7  1  0
  7  8  1  0
  8  9  2  0
  9 10  1  0
 10 11  2  0
 11 12  1  0
 12 13  2  0
 11 14  1  0
 14 15  2  0
 14 16  1  0
 16 17  2  0
 17 18  1  0
 18 19  1  0
 19 20  2  0
 20 21  1  0
 21 22  2  0
 22 23  1  0
 23 24  2  0
 23 25  1  0
 25 26  3  0
 18 27  1  0
 27 28  2  0
 27 29  1  0
 29 30  1  0
 29 31  1  0
  9 32  1  0
  5 33  1  0
 33 34  2  0
 34 35  1  0
 35 36  2  0
  6  2  1  0
 36  4  1  0
 13  8  1  0
 24 16  1  0
 24 19  1  0
M  END
$$$$
