
     RDKit          3D

 36 40  0  0  0  0  0  0  0  0999 V2000
   -2.4295    5.5645    7.0317 C   0  0  0  0  0  0  0  0  0  0  0  0
   -2.5026    5.7393    8.4942 C   0  0  0  0  0  0  0  0  0  0  0  0
   -3.5436    5.1306    9.2466 N   0  0  0  0  0  0  0  0  0  0  0  0
   -3.3221    5.4860   10.5501 C   0  0  0  0  0  0  0  0  0  0  0  0
   -2.2501    6.2464   10.6370 C   0  0  0  0  0  0  0  0  0  0  0  0
   -1.7654    6.3861    9.3558 N   0  0  0  0  0  0  0  0  0  0  0  0
   -0.5624    7.1527    9.1374 C   0  0  0  0  0  0  0  0  0  0  0  0
    0.7208    6.4866    9.2207 C   0  0  0  0  0  0  0  0  0  0  0  0
    1.3230    6.0812    8.0236 C   0  0  0  0  0  0  0  0  0  0  0  0
    2.4492    5.3326    8.0260 C   0  0  0  0  0  0  0  0  0  0  0  0
    3.0516    4.9445    9.2287 C   0  0  0  0  0  0  0  0  0  0  0  0
    2.4544    5.3646   10.4016 C   0  0  0  0  0  0  0  0  0  0  0  0
    1.3167    6.1202   10.3957 C   0  0  0  0  0  0  0  0  0  0  0  0
    4.1681    4.0323    9.2779 C   0  0  0  0  0  0  0  0  0  0  0  0
    5.2201    4.2077    8.6075 O   0  0  0  0  0  0  0  0  0  0  0  0
    4.0747    2.8610   10.1435 C   0  0  0  0  0  0  0  0  0  0  0  0
    2.8471    2.4756   10.7041 C   0  0  0  0  0  0  0  0  0  0  0  0
    3.0386    1.4550   11.6232 N   0  0  0  0  0  0  0  0  0  0  0  0
    4.3237    1.2151   11.6014 C   0  0  0  0  0  0  0  0  0  0  0  0
    5.0777    0.2036   12.1889 C   0  0  0  0  0  0  0  0  0  0  0  0
    6.4309    0.0855   11.8871 C   0  0  0  0  0  0  0  0  0  0  0  0
    7.0627    0.9324   11.0066 C   0  0  0  0  0  0  0  0  0  0  0  0
    6.3530    1.9274   10.3958 C   0  0  0  0  0  0  0  0  0  0  0  0
    4.9787    2.0438   10.7204 C   0  0  0  0  0  0  0  0  0  0  0  0
    6.8698    2.7628    9.4196 C   0  0  0  0  0  0  0  0  0  0  0  0
    7.3421    3.5477    8.5103 C   0  0  0  0  0  0  0  0  0  0  0  0
    1.9087    0.7972   12.1204 C   0  0  0  0  0  0  0  0  0  0  0  0
    1.9712   -0.5365   12.0971 O   0  0  0  0  0  0  0  0  0  0  0  0
    0.7165    1.2804   12.6264 N   0  0  0  0  0  0  0  0  0  0  0  0
   -0.4073    0.5228   13.0620 C   0  0  0  0  0  0  0  0  0  0  0  0
    0.5120    2.7693   12.7283 C   0  0  0  0  0  0  0  0  0  0  0  0
    0.7602    6.4841    6.8440 F   0  0  0  0  0  0  0  0  0  0  0  0
   -1.7527    6.7094   11.8724 C   0  0  0  0  0  0  0  0  0  0  0  0
   -2.4902    6.2927   13.0144 C   0  0  0  0  0  0  0  0  0  0  0  0
   -3.5434    5.5396   12.8763 N   0  0  0  0  0  0  0  0  0  0  0  0
   -4.0588    5.0706   11.6912 C   0  0  0  0  0  0  0  0  0  0  0  0
  1  2  1  0
  2  3  2  0
  3  4  1  0
  4  5  2  0
  5  6  1  0
  6  7  1  0
  7  8  1  0
  8  9  2  0
  9 10  1  0
 10 11  2  0
 11 12  1  0
 12 13  2  0
 11 14  1  0
 14 15  2  0
 14 16  1  0
 16 17  2  0
 17 18  1  0
 18 19  1  0
 19 20  2  0
 20 21  1  0
 21 22  2  0
 22 23  1  0
 23 24  2  0
 23 25  1  0
 25 26  3  0
 18 27  1  0
 27 28  2  0
 27 29  1  0
 29 30  1  0
 29 31  1  0
  9 32  1  0
  5 33  1  0
 33 34  2  0
 34 35  1  0
 35 36  2  0
  6  2  1  0
 36  4  1  0
 13  8  1  0
 24 16  1  0
 24 19  1  0
M  END
$$$$
