
     RDKit          3D

 36 40  0  0  0  0  0  0  0  0999 V2000
    3.0085   -1.9306    9.0317 C   0  0  0  0  0  0  0  0  0  0  0  0
    3.7497   -1.2902   10.1342 C   0  0  0  0  0  0  0  0  0  0  0  0
    4.8782   -1.9285   10.7168 N   0  0  0  0  0  0  0  0  0  0  0  0
    5.3253   -1.0814   11.6950 C   0  0  0  0  0  0  0  0  0  0  0  0
    4.5673   -0.0053   11.7444 C   0  0  0  0  0  0  0  0  0  0  0  0
    3.6048   -0.1605   10.7720 N   0  0  0  0  0  0  0  0  0  0  0  0
    2.6356    0.8887   10.5664 C   0  0  0  0  0  0  0  0  0  0  0  0
    3.0923    2.1929   10.1336 C   0  0  0  0  0  0  0  0  0  0  0  0
    2.2774    3.2955   10.4173 C   0  0  0  0  0  0  0  0  0  0  0  0
    2.5651    4.5222    9.9262 C   0  0  0  0  0  0  0  0  0  0  0  0
    3.6926    4.7283    9.1224 C   0  0  0  0  0  0  0  0  0  0  0  0
    4.4955    3.6341    8.8634 C   0  0  0  0  0  0  0  0  0  0  0  0
    4.2019    2.3964    9.3605 C   0  0  0  0  0  0  0  0  0  0  0  0
    3.9573    5.9849    8.4651 C   0  0  0  0  0  0  0  0  0  0  0  0
    4.8973    6.1367    7.6404 O   0  0  0  0  0  0  0  0  0  0  0  0
    3.0972    7.1249    8.7664 C   0  0  0  0  0  0  0  0  0  0  0  0
    1.7910    6.9355    9.2436 C   0  0  0  0  0  0  0  0  0  0  0  0
    1.1147    8.1455    9.2839 N   0  0  0  0  0  0  0  0  0  0  0  0
    1.9824    9.0333    8.8733 C   0  0  0  0  0  0  0  0  0  0  0  0
    1.9305   10.4238    8.8507 C   0  0  0  0  0  0  0  0  0  0  0  0
    3.0615   11.1523    8.4956 C   0  0  0  0  0  0  0  0  0  0  0  0
    4.2534   10.5461    8.1740 C   0  0  0  0  0  0  0  0  0  0  0  0
    4.3498    9.1834    8.2013 C   0  0  0  0  0  0  0  0  0  0  0  0
    3.1878    8.4532    8.5535 C   0  0  0  0  0  0  0  0  0  0  0  0
    5.5275    8.4841    7.9966 C   0  0  0  0  0  0  0  0  0  0  0  0
    6.6304    7.8393    7.8130 C   0  0  0  0  0  0  0  0  0  0  0  0
   -0.1226    8.1859    9.9350 C   0  0  0  0  0  0  0  0  0  0  0  0
   -0.3538    9.2907   10.6485 O   0  0  0  0  0  0  0  0  0  0  0  0
   -1.1599    7.2736    9.9874 N   0  0  0  0  0  0  0  0  0  0  0  0
   -1.3575    6.1410    9.1478 C   0  0  0  0  0  0  0  0  0  0  0  0
   -2.2504    7.4598   11.0098 C   0  0  0  0  0  0  0  0  0  0  0  0
    1.1927    3.1100   11.2293 F   0  0  0  0  0  0  0  0  0  0  0  0
    4.8348    1.0652   12.6221 C   0  0  0  0  0  0  0  0  0  0  0  0
    5.9824    0.8989   13.4450 C   0  0  0  0  0  0  0  0  0  0  0  0
    6.7006   -0.1837   13.3580 N   0  0  0  0  0  0  0  0  0  0  0  0
    6.4711   -1.2474   12.5178 C   0  0  0  0  0  0  0  0  0  0  0  0
  1  2  1  0
  2  3  2  0
  3  4  1  0
  4  5  2  0
  5  6  1  0
  6  7  1  0
  7  8  1  0
  8  9  2  0
  9 10  1  0
 10 11  2  0
 11 12  1  0
 12 13  2  0
 11 14  1  0
 14 15  2  0
 14 16  1  0
 16 17  2  0
 17 18  1  0
 18 19  1  0
 19 20  2  0
 20 21  1  0
 21 22  2  0
 22 23  1  0
 23 24  2  0
 23 25  1  0
 25 26  3  0
 18 27  1  0
 27 28  2  0
 27 29  1  0
 29 30  1  0
 29 31  1  0
  9 32  1  0
  5 33  1  0
 33 34  2  0
 34 35  1  0
 35 36  2  0
  6  2  1  0
 36  4  1  0
 13  8  1  0
 24 16  1  0
 24 19  1  0
M  END
$$$$
