
     RDKit          3D

 36 40  0  0  0  0  0  0  0  0999 V2000
    1.1504    5.7143    3.9386 C   0  0  0  0  0  0  0  0  0  0  0  0
    1.2538    6.9438    4.7464 C   0  0  0  0  0  0  0  0  0  0  0  0
    1.6362    8.1750    4.1480 N   0  0  0  0  0  0  0  0  0  0  0  0
    1.6343    9.0998    5.1575 C   0  0  0  0  0  0  0  0  0  0  0  0
    1.2876    8.5305    6.2935 C   0  0  0  0  0  0  0  0  0  0  0  0
    1.0589    7.2024    6.0110 N   0  0  0  0  0  0  0  0  0  0  0  0
    0.6286    6.3209    7.0694 C   0  0  0  0  0  0  0  0  0  0  0  0
    1.6245    5.5842    7.8195 C   0  0  0  0  0  0  0  0  0  0  0  0
    1.1734    4.6184    8.7272 C   0  0  0  0  0  0  0  0  0  0  0  0
    2.0310    3.9895    9.5625 C   0  0  0  0  0  0  0  0  0  0  0  0
    3.4000    4.2814    9.5403 C   0  0  0  0  0  0  0  0  0  0  0  0
    3.8325    5.2255    8.6290 C   0  0  0  0  0  0  0  0  0  0  0  0
    2.9637    5.8593    7.7871 C   0  0  0  0  0  0  0  0  0  0  0  0
    4.3244    3.7392   10.5060 C   0  0  0  0  0  0  0  0  0  0  0  0
    5.2543    4.4199   11.0145 O   0  0  0  0  0  0  0  0  0  0  0  0
    4.1717    2.3457   10.9123 C   0  0  0  0  0  0  0  0  0  0  0  0
    2.9218    1.7104   10.8513 C   0  0  0  0  0  0  0  0  0  0  0  0
    2.9882    0.4621   11.4517 N   0  0  0  0  0  0  0  0  0  0  0  0
    4.2313    0.3363   11.8370 C   0  0  0  0  0  0  0  0  0  0  0  0
    4.9257   -0.7542   12.3522 C   0  0  0  0  0  0  0  0  0  0  0  0
    6.3005   -0.6688   12.5481 C   0  0  0  0  0  0  0  0  0  0  0  0
    7.0171    0.4628   12.2355 C   0  0  0  0  0  0  0  0  0  0  0  0
    6.3745    1.5486   11.7113 C   0  0  0  0  0  0  0  0  0  0  0  0
    4.9729    1.4526   11.5275 C   0  0  0  0  0  0  0  0  0  0  0  0
    7.0177    2.6923   11.2684 C   0  0  0  0  0  0  0  0  0  0  0  0
    7.6178    3.7539   10.8452 C   0  0  0  0  0  0  0  0  0  0  0  0
    1.8997   -0.4021   11.2942 C   0  0  0  0  0  0  0  0  0  0  0  0
    2.2063   -1.6314   10.8721 O   0  0  0  0  0  0  0  0  0  0  0  0
    0.5439   -0.2113   11.4849 N   0  0  0  0  0  0  0  0  0  0  0  0
   -0.4940   -1.1734   11.3305 C   0  0  0  0  0  0  0  0  0  0  0  0
    0.0425    1.1545   11.8750 C   0  0  0  0  0  0  0  0  0  0  0  0
   -0.1573    4.3028    8.7324 F   0  0  0  0  0  0  0  0  0  0  0  0
    1.1445    9.2620    7.4903 C   0  0  0  0  0  0  0  0  0  0  0  0
    1.3980   10.6568    7.3792 C   0  0  0  0  0  0  0  0  0  0  0  0
    1.7370   11.1726    6.2327 N   0  0  0  0  0  0  0  0  0  0  0  0
    1.8881   10.4929    5.0473 C   0  0  0  0  0  0  0  0  0  0  0  0
  1  2  1  0
  2  3  2  0
  3  4  1  0
  4  5  2  0
  5  6  1  0
  6  7  1  0
  7  8  1  0
  8  9  2  0
  9 10  1  0
 10 11  2  0
 11 12  1  0
 12 13  2  0
 11 14  1  0
 14 15  2  0
 14 16  1  0
 16 17  2  0
 17 18  1  0
 18 19  1  0
 19 20  2  0
 20 21  1  0
 21 22  2  0
 22 23  1  0
 23 24  2  0
 23 25  1  0
 25 26  3  0
 18 27  1  0
 27 28  2  0
 27 29  1  0
 29 30  1  0
 29 31  1  0
  9 32  1  0
  5 33  1  0
 33 34  2  0
 34 35  1  0
 35 36  2  0
  6  2  1  0
 36  4  1  0
 13  8  1  0
 24 16  1  0
 24 19  1  0
M  END
$$$$
