
     RDKit          3D

 36 40  0  0  0  0  0  0  0  0999 V2000
    6.6493    1.9520   11.7315 C   0  0  0  0  0  0  0  0  0  0  0  0
    6.7017    3.4115   11.5258 C   0  0  0  0  0  0  0  0  0  0  0  0
    7.3800    4.2507   12.4510 N   0  0  0  0  0  0  0  0  0  0  0  0
    7.2406    5.5261   11.9733 C   0  0  0  0  0  0  0  0  0  0  0  0
    6.5443    5.5180   10.8552 C   0  0  0  0  0  0  0  0  0  0  0  0
    6.2254    4.2025   10.6031 N   0  0  0  0  0  0  0  0  0  0  0  0
    5.4804    3.8741    9.4116 C   0  0  0  0  0  0  0  0  0  0  0  0
    4.0555    4.1305    9.3802 C   0  0  0  0  0  0  0  0  0  0  0  0
    3.4664    4.3820    8.1353 C   0  0  0  0  0  0  0  0  0  0  0  0
    2.1734    4.7662    8.0386 C   0  0  0  0  0  0  0  0  0  0  0  0
    1.3813    4.9184    9.1829 C   0  0  0  0  0  0  0  0  0  0  0  0
    1.9721    4.6522   10.4031 C   0  0  0  0  0  0  0  0  0  0  0  0
    3.2784    4.2648   10.4974 C   0  0  0  0  0  0  0  0  0  0  0  0
    0.0452    5.4600    9.1348 C   0  0  0  0  0  0  0  0  0  0  0  0
   -0.7762    5.3300   10.0809 O   0  0  0  0  0  0  0  0  0  0  0  0
   -0.3687    6.1918    7.9418 C   0  0  0  0  0  0  0  0  0  0  0  0
    0.5742    6.8497    7.1369 C   0  0  0  0  0  0  0  0  0  0  0  0
   -0.0670    7.6168    6.1760 N   0  0  0  0  0  0  0  0  0  0  0  0
   -1.3431    7.4121    6.3741 C   0  0  0  0  0  0  0  0  0  0  0  0
   -2.4580    7.7850    5.6292 C   0  0  0  0  0  0  0  0  0  0  0  0
   -3.7169    7.3099    5.9835 C   0  0  0  0  0  0  0  0  0  0  0  0
   -3.9075    6.4612    7.0489 C   0  0  0  0  0  0  0  0  0  0  0  0
   -2.8358    6.0581    7.7944 C   0  0  0  0  0  0  0  0  0  0  0  0
   -1.5611    6.5581    7.4300 C   0  0  0  0  0  0  0  0  0  0  0  0
   -2.9078    5.1277    8.8177 C   0  0  0  0  0  0  0  0  0  0  0  0
   -2.9645    4.2635    9.7748 C   0  0  0  0  0  0  0  0  0  0  0  0
    0.7079    8.1693    5.1509 C   0  0  0  0  0  0  0  0  0  0  0  0
    0.4615    7.6886    3.9297 O   0  0  0  0  0  0  0  0  0  0  0  0
    1.7058    9.1258    5.1714 N   0  0  0  0  0  0  0  0  0  0  0  0
    2.4522    9.6193    4.0641 C   0  0  0  0  0  0  0  0  0  0  0  0
    2.1138    9.7330    6.4882 C   0  0  0  0  0  0  0  0  0  0  0  0
    4.2232    4.2032    7.0102 F   0  0  0  0  0  0  0  0  0  0  0  0
    6.2984    6.6908   10.1121 C   0  0  0  0  0  0  0  0  0  0  0  0
    6.8594    7.8788   10.6560 C   0  0  0  0  0  0  0  0  0  0  0  0
    7.5413    7.8345   11.7643 N   0  0  0  0  0  0  0  0  0  0  0  0
    7.8002    6.7132   12.5164 C   0  0  0  0  0  0  0  0  0  0  0  0
  1  2  1  0
  2  3  2  0
  3  4  1  0
  4  5  2  0
  5  6  1  0
  6  7  1  0
  7  8  1  0
  8  9  2  0
  9 10  1  0
 10 11  2  0
 11 12  1  0
 12 13  2  0
 11 14  1  0
 14 15  2  0
 14 16  1  0
 16 17  2  0
 17 18  1  0
 18 19  1  0
 19 20  2  0
 20 21  1  0
 21 22  2  0
 22 23  1  0
 23 24  2  0
 23 25  1  0
 25 26  3  0
 18 27  1  0
 27 28  2  0
 27 29  1  0
 29 30  1  0
 29 31  1  0
  9 32  1  0
  5 33  1  0
 33 34  2  0
 34 35  1  0
 35 36  2  0
  6  2  1  0
 36  4  1  0
 13  8  1  0
 24 16  1  0
 24 19  1  0
M  END
$$$$
