
     RDKit          3D

 36 40  0  0  0  0  0  0  0  0999 V2000
    4.0043    8.6765   12.4609 C   0  0  0  0  0  0  0  0  0  0  0  0
    4.9636    7.5898   12.1892 C   0  0  0  0  0  0  0  0  0  0  0  0
    6.3311    7.8774   11.9291 N   0  0  0  0  0  0  0  0  0  0  0  0
    6.9364    6.6671   11.7213 C   0  0  0  0  0  0  0  0  0  0  0  0
    6.0556    5.6942   11.8337 C   0  0  0  0  0  0  0  0  0  0  0  0
    4.8489    6.2912   12.1223 N   0  0  0  0  0  0  0  0  0  0  0  0
    3.6861    5.4632   12.3340 C   0  0  0  0  0  0  0  0  0  0  0  0
    3.5721    4.2130   11.6122 C   0  0  0  0  0  0  0  0  0  0  0  0
    2.9017    4.2293   10.3832 C   0  0  0  0  0  0  0  0  0  0  0  0
    2.6329    3.0829    9.7182 C   0  0  0  0  0  0  0  0  0  0  0  0
    3.0233    1.8426   10.2370 C   0  0  0  0  0  0  0  0  0  0  0  0
    3.6972    1.8434   11.4432 C   0  0  0  0  0  0  0  0  0  0  0  0
    3.9667    3.0030   12.1126 C   0  0  0  0  0  0  0  0  0  0  0  0
    2.6342    0.5919    9.6326 C   0  0  0  0  0  0  0  0  0  0  0  0
    2.7893   -0.5186   10.2067 O   0  0  0  0  0  0  0  0  0  0  0  0
    2.0327    0.6166    8.3031 C   0  0  0  0  0  0  0  0  0  0  0  0
    1.5271    1.8094    7.7632 C   0  0  0  0  0  0  0  0  0  0  0  0
    0.8507    1.5519    6.5804 N   0  0  0  0  0  0  0  0  0  0  0  0
    0.9638    0.2620    6.3984 C   0  0  0  0  0  0  0  0  0  0  0  0
    0.6275   -0.5440    5.3149 C   0  0  0  0  0  0  0  0  0  0  0  0
    0.9905   -1.8872    5.3132 C   0  0  0  0  0  0  0  0  0  0  0  0
    1.6922   -2.4587    6.3488 C   0  0  0  0  0  0  0  0  0  0  0  0
    2.0563   -1.6965    7.4228 C   0  0  0  0  0  0  0  0  0  0  0  0
    1.6705   -0.3331    7.4173 C   0  0  0  0  0  0  0  0  0  0  0  0
    2.8502   -2.1497    8.4630 C   0  0  0  0  0  0  0  0  0  0  0  0
    3.5989   -2.5735    9.4253 C   0  0  0  0  0  0  0  0  0  0  0  0
    0.4676    2.6414    5.7912 C   0  0  0  0  0  0  0  0  0  0  0  0
    0.8356    2.5723    4.5094 O   0  0  0  0  0  0  0  0  0  0  0  0
   -0.2202    3.7998    6.1014 N   0  0  0  0  0  0  0  0  0  0  0  0
   -0.4374    4.9271    5.2596 C   0  0  0  0  0  0  0  0  0  0  0  0
   -0.8067    3.9585    7.4797 C   0  0  0  0  0  0  0  0  0  0  0  0
    2.5465    5.4389    9.8528 F   0  0  0  0  0  0  0  0  0  0  0  0
    6.4161    4.3353   11.7272 C   0  0  0  0  0  0  0  0  0  0  0  0
    7.7977    4.0938   11.4937 C   0  0  0  0  0  0  0  0  0  0  0  0
    8.6297    5.0901   11.3912 N   0  0  0  0  0  0  0  0  0  0  0  0
    8.3163    6.4253   11.4873 C   0  0  0  0  0  0  0  0  0  0  0  0
  1  2  1  0
  2  3  2  0
  3  4  1  0
  4  5  2  0
  5  6  1  0
  6  7  1  0
  7  8  1  0
  8  9  2  0
  9 10  1  0
 10 11  2  0
 11 12  1  0
 12 13  2  0
 11 14  1  0
 14 15  2  0
 14 16  1  0
 16 17  2  0
 17 18  1  0
 18 19  1  0
 19 20  2  0
 20 21  1  0
 21 22  2  0
 22 23  1  0
 23 24  2  0
 23 25  1  0
 25 26  3  0
 18 27  1  0
 27 28  2  0
 27 29  1  0
 29 30  1  0
 29 31  1  0
  9 32  1  0
  5 33  1  0
 33 34  2  0
 34 35  1  0
 35 36  2  0
  6  2  1  0
 36  4  1  0
 13  8  1  0
 24 16  1  0
 24 19  1  0
M  END
$$$$
