
     RDKit          3D

 36 40  0  0  0  0  0  0  0  0999 V2000
   -1.1913    6.5565    8.8066 C   0  0  0  0  0  0  0  0  0  0  0  0
   -0.1937    7.6317    8.6532 C   0  0  0  0  0  0  0  0  0  0  0  0
   -0.2927    8.8274    9.4153 N   0  0  0  0  0  0  0  0  0  0  0  0
    0.7712    9.6022    9.0384 C   0  0  0  0  0  0  0  0  0  0  0  0
    1.4872    8.9769    8.1266 C   0  0  0  0  0  0  0  0  0  0  0  0
    0.8699    7.7656    7.9084 N   0  0  0  0  0  0  0  0  0  0  0  0
    1.4519    6.8374    6.9690 C   0  0  0  0  0  0  0  0  0  0  0  0
    2.3009    5.7743    7.4651 C   0  0  0  0  0  0  0  0  0  0  0  0
    2.3954    4.6056    6.7000 C   0  0  0  0  0  0  0  0  0  0  0  0
    3.0538    3.5187    7.1623 C   0  0  0  0  0  0  0  0  0  0  0  0
    3.6675    3.5314    8.4205 C   0  0  0  0  0  0  0  0  0  0  0  0
    3.5787    4.6965    9.1577 C   0  0  0  0  0  0  0  0  0  0  0  0
    2.9125    5.7924    8.6882 C   0  0  0  0  0  0  0  0  0  0  0  0
    4.2561    2.3528    9.0083 C   0  0  0  0  0  0  0  0  0  0  0  0
    5.2034    1.7231    8.4671 O   0  0  0  0  0  0  0  0  0  0  0  0
    3.7339    1.8742   10.2843 C   0  0  0  0  0  0  0  0  0  0  0  0
    2.6557    2.5198   10.9092 C   0  0  0  0  0  0  0  0  0  0  0  0
    2.4580    2.0023   12.1805 N   0  0  0  0  0  0  0  0  0  0  0  0
    3.3611    1.0657   12.3101 C   0  0  0  0  0  0  0  0  0  0  0  0
    3.5494    0.1040   13.2983 C   0  0  0  0  0  0  0  0  0  0  0  0
    4.5119   -0.8858   13.1255 C   0  0  0  0  0  0  0  0  0  0  0  0
    5.2890   -0.9636   11.9934 C   0  0  0  0  0  0  0  0  0  0  0  0
    5.1224   -0.0483   10.9928 C   0  0  0  0  0  0  0  0  0  0  0  0
    4.1471    0.9610   11.1862 C   0  0  0  0  0  0  0  0  0  0  0  0
    5.7792   -0.1016    9.7747 C   0  0  0  0  0  0  0  0  0  0  0  0
    6.3813   -0.1519    8.6340 C   0  0  0  0  0  0  0  0  0  0  0  0
    1.2962    2.3704   12.8670 C   0  0  0  0  0  0  0  0  0  0  0  0
    0.9832    1.5977   13.9100 O   0  0  0  0  0  0  0  0  0  0  0  0
    0.3919    3.3939   12.6533 N   0  0  0  0  0  0  0  0  0  0  0  0
    0.4196    4.3687   11.6161 C   0  0  0  0  0  0  0  0  0  0  0  0
   -0.7607    3.5663   13.6077 C   0  0  0  0  0  0  0  0  0  0  0  0
    1.8277    4.5959    5.4557 F   0  0  0  0  0  0  0  0  0  0  0  0
    2.6782    9.5188    7.6015 C   0  0  0  0  0  0  0  0  0  0  0  0
    3.0498   10.7852    8.1305 C   0  0  0  0  0  0  0  0  0  0  0  0
    2.3087   11.3626    9.0321 N   0  0  0  0  0  0  0  0  0  0  0  0
    1.1426   10.8675    9.5660 C   0  0  0  0  0  0  0  0  0  0  0  0
  1  2  1  0
  2  3  2  0
  3  4  1  0
  4  5  2  0
  5  6  1  0
  6  7  1  0
  7  8  1  0
  8  9  2  0
  9 10  1  0
 10 11  2  0
 11 12  1  0
 12 13  2  0
 11 14  1  0
 14 15  2  0
 14 16  1  0
 16 17  2  0
 17 18  1  0
 18 19  1  0
 19 20  2  0
 20 21  1  0
 21 22  2  0
 22 23  1  0
 23 24  2  0
 23 25  1  0
 25 26  3  0
 18 27  1  0
 27 28  2  0
 27 29  1  0
 29 30  1  0
 29 31  1  0
  9 32  1  0
  5 33  1  0
 33 34  2  0
 34 35  1  0
 35 36  2  0
  6  2  1  0
 36  4  1  0
 13  8  1  0
 24 16  1  0
 24 19  1  0
M  END
$$$$
