
     RDKit          3D

 35 38  0  0  0  0  0  0  0  0999 V2000
    1.9494    3.1600   10.9998 C   0  0  0  0  0  0  0  0  0  0  0  0
    2.5862    2.5567    9.7772 C   0  0  0  0  0  0  0  0  0  0  0  0
    1.6940    2.1384    8.7085 C   0  0  0  0  0  0  0  0  0  0  0  0
    0.8105    0.9817    8.7625 C   0  0  0  0  0  0  0  0  0  0  0  0
    1.3396   -0.3037    9.3467 C   0  0  0  0  0  0  0  0  0  0  0  0
    0.4418   -1.4702    9.2436 C   0  0  0  0  0  0  0  0  0  0  0  0
   -0.5782   -1.2285    8.1829 C   0  0  0  0  0  0  0  0  0  0  0  0
   -1.4259   -0.0095    8.3326 C   0  0  0  0  0  0  0  0  0  0  0  0
   -0.6658    1.1788    8.9135 C   0  0  0  0  0  0  0  0  0  0  0  0
   -1.1714    1.4719   10.2267 N   0  0  0  0  0  0  0  0  0  0  0  0
   -1.7491    0.5519   11.1511 C   0  0  0  0  0  0  0  0  0  0  0  0
   -2.1009    1.2719   12.4247 C   0  0  0  0  0  0  0  0  0  0  0  0
   -1.9549    2.7211   12.1367 C   0  0  0  0  0  0  0  0  0  0  0  0
   -1.2399    2.7704   10.8710 C   0  0  0  0  0  0  0  0  0  0  0  0
   -0.7176    3.7901   10.3411 O   0  0  0  0  0  0  0  0  0  0  0  0
   -1.3161    3.4718   13.2029 N   0  0  0  0  0  0  0  0  0  0  0  0
   -2.1381    4.2235   14.0803 C   0  0  0  0  0  0  0  0  0  0  0  0
   -3.4495    3.9396   14.2392 N   0  0  0  0  0  0  0  0  0  0  0  0
   -4.2609    4.6207   15.0538 C   0  0  0  0  0  0  0  0  0  0  0  0
   -3.7988    5.6538   15.7779 N   0  0  0  0  0  0  0  0  0  0  0  0
   -2.4874    5.9840   15.6576 C   0  0  0  0  0  0  0  0  0  0  0  0
   -1.6515    5.2809   14.8173 C   0  0  0  0  0  0  0  0  0  0  0  0
   -0.3334    5.6608   14.7356 C   0  0  0  0  0  0  0  0  0  0  0  0
    0.1203    6.7398   15.4996 C   0  0  0  0  0  0  0  0  0  0  0  0
   -0.7450    7.4209   16.3307 C   0  0  0  0  0  0  0  0  0  0  0  0
   -2.0712    7.0563   16.4275 C   0  0  0  0  0  0  0  0  0  0  0  0
    1.5455    7.1862   15.4398 C   0  0  0  0  0  0  0  0  0  0  0  0
    1.9411    7.2191   14.1331 F   0  0  0  0  0  0  0  0  0  0  0  0
    2.3686    6.3728   16.1815 F   0  0  0  0  0  0  0  0  0  0  0  0
    1.5843    8.4407   16.0339 F   0  0  0  0  0  0  0  0  0  0  0  0
    1.1688   -2.6652    8.8517 N   0  0  0  0  0  0  0  0  0  0  0  0
    1.7767   -3.3148    9.9969 C   0  0  0  0  0  0  0  0  0  0  0  0
    2.1171   -2.4234    7.7976 C   0  0  0  0  0  0  0  0  0  0  0  0
    2.8805   -3.6511    7.3941 C   0  0  0  0  0  0  0  0  0  0  0  0
    1.2909   -2.0065    6.5722 C   0  0  0  0  0  0  0  0  0  0  0  0
  1  2  1  0
  2  3  1  0
  3  4  1  0
  4  5  1  0
  5  6  1  0
  6  7  1  0
  7  8  1  0
  8  9  1  0
  9 10  1  0
 10 11  1  0
 11 12  1  0
 12 13  1  0
 13 14  1  0
 14 15  2  0
 13 16  1  0
 16 17  1  0
 17 18  2  0
 18 19  1  0
 19 20  2  0
 20 21  1  0
 21 22  2  0
 22 23  1  0
 23 24  2  0
 24 25  1  0
 25 26  2  0
 24 27  1  0
 27 28  1  0
 27 29  1  0
 27 30  1  0
  6 31  1  0
 31 32  1  0
 31 33  1  0
 33 34  1  0
 33 35  1  0
  9  4  1  0
 14 10  1  0
 22 17  1  0
 26 21  1  0
M  END
$$$$
