
     RDKit          3D

 35 38  0  0  0  0  0  0  0  0999 V2000
    2.5563    5.2266    9.6399 C   0  0  0  0  0  0  0  0  0  0  0  0
    2.6268    4.1020   10.6371 C   0  0  0  0  0  0  0  0  0  0  0  0
    3.0514    4.4427   11.9850 C   0  0  0  0  0  0  0  0  0  0  0  0
    2.1659    4.5594   13.1354 C   0  0  0  0  0  0  0  0  0  0  0  0
    1.6239    5.9200   13.4938 C   0  0  0  0  0  0  0  0  0  0  0  0
    0.8486    5.9897   14.7473 C   0  0  0  0  0  0  0  0  0  0  0  0
    1.1681    4.8110   15.6033 C   0  0  0  0  0  0  0  0  0  0  0  0
    0.9453    3.4641   15.0007 C   0  0  0  0  0  0  0  0  0  0  0  0
    1.2815    3.4122   13.5136 C   0  0  0  0  0  0  0  0  0  0  0  0
    0.0737    3.2204   12.7585 N   0  0  0  0  0  0  0  0  0  0  0  0
   -0.6392    4.2047   12.0116 C   0  0  0  0  0  0  0  0  0  0  0  0
   -1.8225    3.5652   11.3369 C   0  0  0  0  0  0  0  0  0  0  0  0
   -1.9481    2.2054   11.9193 C   0  0  0  0  0  0  0  0  0  0  0  0
   -0.6972    1.9974   12.6317 C   0  0  0  0  0  0  0  0  0  0  0  0
   -0.2748    0.9076   13.1083 O   0  0  0  0  0  0  0  0  0  0  0  0
   -2.2482    1.1725   10.9438 N   0  0  0  0  0  0  0  0  0  0  0  0
   -3.1118    0.1158   11.3290 C   0  0  0  0  0  0  0  0  0  0  0  0
   -3.9163    0.2172   12.4098 N   0  0  0  0  0  0  0  0  0  0  0  0
   -4.7448   -0.7522   12.8094 C   0  0  0  0  0  0  0  0  0  0  0  0
   -4.8215   -1.9120   12.1354 N   0  0  0  0  0  0  0  0  0  0  0  0
   -4.0349   -2.0690   11.0401 C   0  0  0  0  0  0  0  0  0  0  0  0
   -3.1809   -1.0687   10.6289 C   0  0  0  0  0  0  0  0  0  0  0  0
   -2.4080   -1.2841    9.5132 C   0  0  0  0  0  0  0  0  0  0  0  0
   -2.5074   -2.5003    8.8316 C   0  0  0  0  0  0  0  0  0  0  0  0
   -3.3737   -3.4797    9.2719 C   0  0  0  0  0  0  0  0  0  0  0  0
   -4.1581   -3.2842   10.3888 C   0  0  0  0  0  0  0  0  0  0  0  0
   -1.6844   -2.7759    7.6148 C   0  0  0  0  0  0  0  0  0  0  0  0
   -2.0370   -3.9961    7.1131 F   0  0  0  0  0  0  0  0  0  0  0  0
   -0.3377   -2.7269    7.8855 F   0  0  0  0  0  0  0  0  0  0  0  0
   -1.9499   -1.7434    6.7250 F   0  0  0  0  0  0  0  0  0  0  0  0
    1.1978    7.1682   15.5215 N   0  0  0  0  0  0  0  0  0  0  0  0
    1.5996    8.2658   14.6631 C   0  0  0  0  0  0  0  0  0  0  0  0
    2.1691    6.8969   16.5470 C   0  0  0  0  0  0  0  0  0  0  0  0
    3.5471    7.3808   16.2009 C   0  0  0  0  0  0  0  0  0  0  0  0
    1.7242    7.7035   17.7756 C   0  0  0  0  0  0  0  0  0  0  0  0
  1  2  1  0
  2  3  1  0
  3  4  1  0
  4  5  1  0
  5  6  1  0
  6  7  1  0
  7  8  1  0
  8  9  1  0
  9 10  1  0
 10 11  1  0
 11 12  1  0
 12 13  1  0
 13 14  1  0
 14 15  2  0
 13 16  1  0
 16 17  1  0
 17 18  2  0
 18 19  1  0
 19 20  2  0
 20 21  1  0
 21 22  2  0
 22 23  1  0
 23 24  2  0
 24 25  1  0
 25 26  2  0
 24 27  1  0
 27 28  1  0
 27 29  1  0
 27 30  1  0
  6 31  1  0
 31 32  1  0
 31 33  1  0
 33 34  1  0
 33 35  1  0
  9  4  1  0
 14 10  1  0
 22 17  1  0
 26 21  1  0
M  END
$$$$
