
     RDKit          3D

 35 38  0  0  0  0  0  0  0  0999 V2000
    3.6861    2.9614  -18.8664 C   0  0  0  0  0  0  0  0  0  0  0  0
    3.1348    2.9292  -17.4666 C   0  0  0  0  0  0  0  0  0  0  0  0
    1.7575    3.3597  -17.2913 C   0  0  0  0  0  0  0  0  0  0  0  0
    0.6496    2.4873  -16.9267 C   0  0  0  0  0  0  0  0  0  0  0  0
    0.1908    2.4655  -15.4905 C   0  0  0  0  0  0  0  0  0  0  0  0
   -0.8392    1.4608  -15.1634 C   0  0  0  0  0  0  0  0  0  0  0  0
   -0.8544    0.3967  -16.2081 C   0  0  0  0  0  0  0  0  0  0  0  0
   -1.0778    0.8408  -17.6151 C   0  0  0  0  0  0  0  0  0  0  0  0
   -0.4171    2.1790  -17.9309 C   0  0  0  0  0  0  0  0  0  0  0  0
   -1.4329    3.1709  -18.1548 N   0  0  0  0  0  0  0  0  0  0  0  0
   -2.7417    3.2047  -17.5885 C   0  0  0  0  0  0  0  0  0  0  0  0
   -3.4597    4.4426  -18.0538 C   0  0  0  0  0  0  0  0  0  0  0  0
   -2.6265    5.0242  -19.1362 C   0  0  0  0  0  0  0  0  0  0  0  0
   -1.3568    4.3218  -19.0355 C   0  0  0  0  0  0  0  0  0  0  0  0
   -0.2800    4.6263  -19.6196 O   0  0  0  0  0  0  0  0  0  0  0  0
   -2.5055    6.4698  -19.0739 N   0  0  0  0  0  0  0  0  0  0  0  0
   -2.1183    7.1624  -20.2492 C   0  0  0  0  0  0  0  0  0  0  0  0
   -2.0364    6.5378  -21.4445 N   0  0  0  0  0  0  0  0  0  0  0  0
   -1.6760    7.1499  -22.5765 C   0  0  0  0  0  0  0  0  0  0  0  0
   -1.3675    8.4575  -22.5825 N   0  0  0  0  0  0  0  0  0  0  0  0
   -1.4326    9.1360  -21.4084 C   0  0  0  0  0  0  0  0  0  0  0  0
   -1.8044    8.5038  -20.2416 C   0  0  0  0  0  0  0  0  0  0  0  0
   -1.8521    9.2411  -19.0830 C   0  0  0  0  0  0  0  0  0  0  0  0
   -1.5253   10.5996  -19.1180 C   0  0  0  0  0  0  0  0  0  0  0  0
   -1.1573   11.1999  -20.3045 C   0  0  0  0  0  0  0  0  0  0  0  0
   -1.1031   10.4785  -21.4783 C   0  0  0  0  0  0  0  0  0  0  0  0
   -1.5632   11.4376  -17.8808 C   0  0  0  0  0  0  0  0  0  0  0  0
   -2.7007   11.1426  -17.1852 F   0  0  0  0  0  0  0  0  0  0  0  0
   -1.4984   12.7799  -18.1693 F   0  0  0  0  0  0  0  0  0  0  0  0
   -0.4133   11.1274  -17.1669 F   0  0  0  0  0  0  0  0  0  0  0  0
   -0.5512    0.7977  -13.9035 N   0  0  0  0  0  0  0  0  0  0  0  0
   -1.3080    1.3811  -12.8128 C   0  0  0  0  0  0  0  0  0  0  0  0
    0.8562    0.7320  -13.6142 C   0  0  0  0  0  0  0  0  0  0  0  0
    1.3477    1.8906  -12.7963 C   0  0  0  0  0  0  0  0  0  0  0  0
    1.0526   -0.5214  -12.7491 C   0  0  0  0  0  0  0  0  0  0  0  0
  1  2  1  0
  2  3  1  0
  3  4  1  0
  4  5  1  0
  5  6  1  0
  6  7  1  0
  7  8  1  0
  8  9  1  0
  9 10  1  0
 10 11  1  0
 11 12  1  0
 12 13  1  0
 13 14  1  0
 14 15  2  0
 13 16  1  0
 16 17  1  0
 17 18  2  0
 18 19  1  0
 19 20  2  0
 20 21  1  0
 21 22  2  0
 22 23  1  0
 23 24  2  0
 24 25  1  0
 25 26  2  0
 24 27  1  0
 27 28  1  0
 27 29  1  0
 27 30  1  0
  6 31  1  0
 31 32  1  0
 31 33  1  0
 33 34  1  0
 33 35  1  0
  9  4  1  0
 14 10  1  0
 22 17  1  0
 26 21  1  0
M  END
$$$$
