
     RDKit          3D

 35 38  0  0  0  0  0  0  0  0999 V2000
    3.0867    3.4748   19.2932 C   0  0  0  0  0  0  0  0  0  0  0  0
    1.9771    3.1579   18.3275 C   0  0  0  0  0  0  0  0  0  0  0  0
    2.1356    3.6339   16.9631 C   0  0  0  0  0  0  0  0  0  0  0  0
    1.1156    4.3413   16.2013 C   0  0  0  0  0  0  0  0  0  0  0  0
    1.5264    5.5412   15.3858 C   0  0  0  0  0  0  0  0  0  0  0  0
    0.4250    6.2915   14.7525 C   0  0  0  0  0  0  0  0  0  0  0  0
   -0.8610    5.9716   15.4366 C   0  0  0  0  0  0  0  0  0  0  0  0
   -1.2550    4.5331   15.4856 C   0  0  0  0  0  0  0  0  0  0  0  0
   -0.0664    3.5941   15.6666 C   0  0  0  0  0  0  0  0  0  0  0  0
    0.1162    2.8203   14.4693 N   0  0  0  0  0  0  0  0  0  0  0  0
    1.1198    1.8362   14.2259 C   0  0  0  0  0  0  0  0  0  0  0  0
    0.9172    1.2377   12.8602 C   0  0  0  0  0  0  0  0  0  0  0  0
   -0.0929    2.0869   12.1800 C   0  0  0  0  0  0  0  0  0  0  0  0
   -0.6538    2.9071   13.2423 C   0  0  0  0  0  0  0  0  0  0  0  0
   -1.6851    3.6312   13.1691 O   0  0  0  0  0  0  0  0  0  0  0  0
   -1.0846    1.3363   11.4305 N   0  0  0  0  0  0  0  0  0  0  0  0
   -0.6705    0.1540   10.7662 C   0  0  0  0  0  0  0  0  0  0  0  0
    0.6367   -0.1351   10.5841 N   0  0  0  0  0  0  0  0  0  0  0  0
    1.0721   -1.2360    9.9642 C   0  0  0  0  0  0  0  0  0  0  0  0
    0.2046   -2.1385    9.4761 N   0  0  0  0  0  0  0  0  0  0  0  0
   -1.1228   -1.8992    9.6308 C   0  0  0  0  0  0  0  0  0  0  0  0
   -1.5707   -0.7634   10.2702 C   0  0  0  0  0  0  0  0  0  0  0  0
   -2.9258   -0.5737   10.3969 C   0  0  0  0  0  0  0  0  0  0  0  0
   -3.8056   -1.5284    9.8790 C   0  0  0  0  0  0  0  0  0  0  0  0
   -3.3217   -2.6540    9.2448 C   0  0  0  0  0  0  0  0  0  0  0  0
   -1.9660   -2.8638    9.1069 C   0  0  0  0  0  0  0  0  0  0  0  0
   -5.2864   -1.3604    9.9945 C   0  0  0  0  0  0  0  0  0  0  0  0
   -5.6733   -0.3178    9.2018 F   0  0  0  0  0  0  0  0  0  0  0  0
   -5.6790   -1.1594   11.2963 F   0  0  0  0  0  0  0  0  0  0  0  0
   -5.8461   -2.5654    9.5909 F   0  0  0  0  0  0  0  0  0  0  0  0
    0.6163    7.7255   14.8843 N   0  0  0  0  0  0  0  0  0  0  0  0
    1.8780    8.1467   14.3065 C   0  0  0  0  0  0  0  0  0  0  0  0
    0.4559    8.1900   16.2360 C   0  0  0  0  0  0  0  0  0  0  0  0
   -0.6274    9.2182   16.3846 C   0  0  0  0  0  0  0  0  0  0  0  0
    0.0076    6.9694   17.0528 C   0  0  0  0  0  0  0  0  0  0  0  0
  1  2  1  0
  2  3  1  0
  3  4  1  0
  4  5  1  0
  5  6  1  0
  6  7  1  0
  7  8  1  0
  8  9  1  0
  9 10  1  0
 10 11  1  0
 11 12  1  0
 12 13  1  0
 13 14  1  0
 14 15  2  0
 13 16  1  0
 16 17  1  0
 17 18  2  0
 18 19  1  0
 19 20  2  0
 20 21  1  0
 21 22  2  0
 22 23  1  0
 23 24  2  0
 24 25  1  0
 25 26  2  0
 24 27  1  0
 27 28  1  0
 27 29  1  0
 27 30  1  0
  6 31  1  0
 31 32  1  0
 31 33  1  0
 33 34  1  0
 33 35  1  0
  9  4  1  0
 14 10  1  0
 22 17  1  0
 26 21  1  0
M  END
$$$$
