
     RDKit          3D

 35 38  0  0  0  0  0  0  0  0999 V2000
    0.7485    1.3525  -14.9500 C   0  0  0  0  0  0  0  0  0  0  0  0
   -0.3490    2.3127  -15.3216 C   0  0  0  0  0  0  0  0  0  0  0  0
    0.0574    3.6207  -15.8085 C   0  0  0  0  0  0  0  0  0  0  0  0
   -0.8232    4.5798  -16.4612 C   0  0  0  0  0  0  0  0  0  0  0  0
   -0.3015    5.9674  -16.7363 C   0  0  0  0  0  0  0  0  0  0  0  0
   -1.2870    6.9269  -17.2707 C   0  0  0  0  0  0  0  0  0  0  0  0
   -2.6680    6.4440  -16.9814 C   0  0  0  0  0  0  0  0  0  0  0  0
   -3.0253    5.0879  -17.4915 C   0  0  0  0  0  0  0  0  0  0  0  0
   -1.8655    4.0993  -17.4224 C   0  0  0  0  0  0  0  0  0  0  0  0
   -1.4441    3.7651  -18.7553 N   0  0  0  0  0  0  0  0  0  0  0  0
   -2.2667    3.3136  -19.8297 C   0  0  0  0  0  0  0  0  0  0  0  0
   -1.4255    3.1255  -21.0631 C   0  0  0  0  0  0  0  0  0  0  0  0
   -0.0118    3.2287  -20.6216 C   0  0  0  0  0  0  0  0  0  0  0  0
   -0.0896    3.7756  -19.2761 C   0  0  0  0  0  0  0  0  0  0  0  0
    0.8702    4.2224  -18.5887 O   0  0  0  0  0  0  0  0  0  0  0  0
    0.8312    3.9965  -21.5207 N   0  0  0  0  0  0  0  0  0  0  0  0
    2.2163    4.0856  -21.2302 C   0  0  0  0  0  0  0  0  0  0  0  0
    2.6618    4.5376  -20.0374 N   0  0  0  0  0  0  0  0  0  0  0  0
    3.9562    4.6388  -19.7207 C   0  0  0  0  0  0  0  0  0  0  0  0
    4.9085    4.2850  -20.5999 N   0  0  0  0  0  0  0  0  0  0  0  0
    4.5180    3.8233  -21.8154 C   0  0  0  0  0  0  0  0  0  0  0  0
    3.1829    3.7195  -22.1410 C   0  0  0  0  0  0  0  0  0  0  0  0
    2.8467    3.2461  -23.3865 C   0  0  0  0  0  0  0  0  0  0  0  0
    3.8580    2.8860  -24.2817 C   0  0  0  0  0  0  0  0  0  0  0  0
    5.1847    3.0031  -23.9217 C   0  0  0  0  0  0  0  0  0  0  0  0
    5.5438    3.4757  -22.6772 C   0  0  0  0  0  0  0  0  0  0  0  0
    3.5362    2.3678  -25.6462 C   0  0  0  0  0  0  0  0  0  0  0  0
    3.2429    3.4248  -26.4596 F   0  0  0  0  0  0  0  0  0  0  0  0
    2.4993    1.4659  -25.6202 F   0  0  0  0  0  0  0  0  0  0  0  0
    4.6597    1.6713  -26.0716 F   0  0  0  0  0  0  0  0  0  0  0  0
   -1.1622    8.2256  -16.6321 N   0  0  0  0  0  0  0  0  0  0  0  0
   -1.6248    9.2900  -17.5017 C   0  0  0  0  0  0  0  0  0  0  0  0
    0.1601    8.4751  -16.1242 C   0  0  0  0  0  0  0  0  0  0  0  0
    0.2642    9.7541  -15.3456 C   0  0  0  0  0  0  0  0  0  0  0  0
    0.4536    7.3405  -15.1320 C   0  0  0  0  0  0  0  0  0  0  0  0
  1  2  1  0
  2  3  1  0
  3  4  1  0
  4  5  1  0
  5  6  1  0
  6  7  1  0
  7  8  1  0
  8  9  1  0
  9 10  1  0
 10 11  1  0
 11 12  1  0
 12 13  1  0
 13 14  1  0
 14 15  2  0
 13 16  1  0
 16 17  1  0
 17 18  2  0
 18 19  1  0
 19 20  2  0
 20 21  1  0
 21 22  2  0
 22 23  1  0
 23 24  2  0
 24 25  1  0
 25 26  2  0
 24 27  1  0
 27 28  1  0
 27 29  1  0
 27 30  1  0
  6 31  1  0
 31 32  1  0
 31 33  1  0
 33 34  1  0
 33 35  1  0
  9  4  1  0
 14 10  1  0
 22 17  1  0
 26 21  1  0
M  END
$$$$
