
     RDKit          3D

 35 38  0  0  0  0  0  0  0  0999 V2000
  -20.4691    9.3061   -2.6020 C   0  0  0  0  0  0  0  0  0  0  0  0
  -19.1512    9.8263   -2.0950 C   0  0  0  0  0  0  0  0  0  0  0  0
  -18.0246    8.9081   -2.1271 C   0  0  0  0  0  0  0  0  0  0  0  0
  -16.7079    9.1816   -1.5678 C   0  0  0  0  0  0  0  0  0  0  0  0
  -16.6179    9.9741   -0.2882 C   0  0  0  0  0  0  0  0  0  0  0  0
  -15.2544   10.3334    0.1469 C   0  0  0  0  0  0  0  0  0  0  0  0
  -14.3152   10.2353   -1.0073 C   0  0  0  0  0  0  0  0  0  0  0  0
  -14.2420    8.9169   -1.7026 C   0  0  0  0  0  0  0  0  0  0  0  0
  -15.5907    8.2086   -1.7832 C   0  0  0  0  0  0  0  0  0  0  0  0
  -15.5603    7.0309   -0.9599 N   0  0  0  0  0  0  0  0  0  0  0  0
  -16.6460    6.4649   -0.2280 C   0  0  0  0  0  0  0  0  0  0  0  0
  -16.1878    5.2077    0.4606 C   0  0  0  0  0  0  0  0  0  0  0  0
  -14.7092    5.1777    0.3300 C   0  0  0  0  0  0  0  0  0  0  0  0
  -14.4110    6.1951   -0.6658 C   0  0  0  0  0  0  0  0  0  0  0  0
  -13.3040    6.3813   -1.2432 O   0  0  0  0  0  0  0  0  0  0  0  0
  -14.1729    3.8667    0.0103 N   0  0  0  0  0  0  0  0  0  0  0  0
  -12.7800    3.7514   -0.2289 C   0  0  0  0  0  0  0  0  0  0  0  0
  -11.9619    4.8256   -0.1805 N   0  0  0  0  0  0  0  0  0  0  0  0
  -10.6450    4.7637   -0.3993 C   0  0  0  0  0  0  0  0  0  0  0  0
  -10.0504    3.5938   -0.6873 N   0  0  0  0  0  0  0  0  0  0  0  0
  -10.8247    2.4803   -0.7491 C   0  0  0  0  0  0  0  0  0  0  0  0
  -12.1827    2.5453   -0.5233 C   0  0  0  0  0  0  0  0  0  0  0  0
  -12.9162    1.3858   -0.6000 C   0  0  0  0  0  0  0  0  0  0  0  0
  -12.2719    0.1828   -0.9020 C   0  0  0  0  0  0  0  0  0  0  0  0
  -10.9102    0.1550   -1.1222 C   0  0  0  0  0  0  0  0  0  0  0  0
  -10.1556    1.3067   -1.0501 C   0  0  0  0  0  0  0  0  0  0  0  0
  -13.0321   -1.1007   -0.9961 C   0  0  0  0  0  0  0  0  0  0  0  0
  -14.1267   -0.9058   -1.7891 F   0  0  0  0  0  0  0  0  0  0  0  0
  -13.4003   -1.5698    0.2423 F   0  0  0  0  0  0  0  0  0  0  0  0
  -12.1535   -2.0337   -1.5306 F   0  0  0  0  0  0  0  0  0  0  0  0
  -15.1922   11.7076    0.6135 N   0  0  0  0  0  0  0  0  0  0  0  0
  -15.5194   12.6420   -0.4461 C   0  0  0  0  0  0  0  0  0  0  0  0
  -13.9434   12.0261    1.2522 C   0  0  0  0  0  0  0  0  0  0  0  0
  -13.8990   13.4213    1.8040 C   0  0  0  0  0  0  0  0  0  0  0  0
  -13.8312   11.0813    2.4575 C   0  0  0  0  0  0  0  0  0  0  0  0
  1  2  1  0
  2  3  1  0
  3  4  1  0
  4  5  1  0
  5  6  1  0
  6  7  1  0
  7  8  1  0
  8  9  1  0
  9 10  1  0
 10 11  1  0
 11 12  1  0
 12 13  1  0
 13 14  1  0
 14 15  2  0
 13 16  1  0
 16 17  1  0
 17 18  2  0
 18 19  1  0
 19 20  2  0
 20 21  1  0
 21 22  2  0
 22 23  1  0
 23 24  2  0
 24 25  1  0
 25 26  2  0
 24 27  1  0
 27 28  1  0
 27 29  1  0
 27 30  1  0
  6 31  1  0
 31 32  1  0
 31 33  1  0
 33 34  1  0
 33 35  1  0
  9  4  1  0
 14 10  1  0
 22 17  1  0
 26 21  1  0
M  END
$$$$
