
     RDKit          3D

 35 38  0  0  0  0  0  0  0  0999 V2000
    3.2300    6.9254   14.5741 C   0  0  0  0  0  0  0  0  0  0  0  0
    3.5894    5.5564   15.0852 C   0  0  0  0  0  0  0  0  0  0  0  0
    3.4470    5.3286   16.5138 C   0  0  0  0  0  0  0  0  0  0  0  0
    2.5826    4.3237   17.1174 C   0  0  0  0  0  0  0  0  0  0  0  0
    1.8620    4.6662   18.3968 C   0  0  0  0  0  0  0  0  0  0  0  0
    1.1159    3.5597   19.0265 C   0  0  0  0  0  0  0  0  0  0  0  0
    1.6207    2.2545   18.5112 C   0  0  0  0  0  0  0  0  0  0  0  0
    1.5766    2.0544   17.0330 C   0  0  0  0  0  0  0  0  0  0  0  0
    1.8798    3.3273   16.2488 C   0  0  0  0  0  0  0  0  0  0  0  0
    0.6932    3.7575   15.5613 N   0  0  0  0  0  0  0  0  0  0  0  0
    0.0141    5.0026   15.7144 C   0  0  0  0  0  0  0  0  0  0  0  0
   -1.1555    5.0576   14.7692 C   0  0  0  0  0  0  0  0  0  0  0  0
   -1.3138    3.6859   14.2237 C   0  0  0  0  0  0  0  0  0  0  0  0
   -0.0873    3.0006   14.6000 C   0  0  0  0  0  0  0  0  0  0  0  0
    0.3084    1.8792   14.1768 O   0  0  0  0  0  0  0  0  0  0  0  0
   -1.5960    3.6474   12.7998 N   0  0  0  0  0  0  0  0  0  0  0  0
   -1.1073    2.5489   12.0481 C   0  0  0  0  0  0  0  0  0  0  0  0
   -0.1337    1.7421   12.5244 N   0  0  0  0  0  0  0  0  0  0  0  0
    0.3570    0.6971   11.8513 C   0  0  0  0  0  0  0  0  0  0  0  0
   -0.1078    0.3869   10.6295 N   0  0  0  0  0  0  0  0  0  0  0  0
   -1.0874    1.1642   10.1009 C   0  0  0  0  0  0  0  0  0  0  0  0
   -1.5926    2.2417   10.7959 C   0  0  0  0  0  0  0  0  0  0  0  0
   -2.5831    2.9933   10.2105 C   0  0  0  0  0  0  0  0  0  0  0  0
   -3.0473    2.6484    8.9380 C   0  0  0  0  0  0  0  0  0  0  0  0
   -2.5183    1.5626    8.2713 C   0  0  0  0  0  0  0  0  0  0  0  0
   -1.5241    0.7953    8.8403 C   0  0  0  0  0  0  0  0  0  0  0  0
   -4.1223    3.4395    8.2650 C   0  0  0  0  0  0  0  0  0  0  0  0
   -5.2208    3.4667    9.0759 F   0  0  0  0  0  0  0  0  0  0  0  0
   -4.4372    2.9275    7.0289 F   0  0  0  0  0  0  0  0  0  0  0  0
   -3.5948    4.7057    8.0494 F   0  0  0  0  0  0  0  0  0  0  0  0
    1.3133    3.5390   20.4655 N   0  0  0  0  0  0  0  0  0  0  0  0
    0.0500    3.4518   21.1721 C   0  0  0  0  0  0  0  0  0  0  0  0
    2.1244    4.6300   20.9353 C   0  0  0  0  0  0  0  0  0  0  0  0
    3.5817    4.4653   20.6159 C   0  0  0  0  0  0  0  0  0  0  0  0
    1.6513    5.8715   20.1653 C   0  0  0  0  0  0  0  0  0  0  0  0
  1  2  1  0
  2  3  1  0
  3  4  1  0
  4  5  1  0
  5  6  1  0
  6  7  1  0
  7  8  1  0
  8  9  1  0
  9 10  1  0
 10 11  1  0
 11 12  1  0
 12 13  1  0
 13 14  1  0
 14 15  2  0
 13 16  1  0
 16 17  1  0
 17 18  2  0
 18 19  1  0
 19 20  2  0
 20 21  1  0
 21 22  2  0
 22 23  1  0
 23 24  2  0
 24 25  1  0
 25 26  2  0
 24 27  1  0
 27 28  1  0
 27 29  1  0
 27 30  1  0
  6 31  1  0
 31 32  1  0
 31 33  1  0
 33 34  1  0
 33 35  1  0
  9  4  1  0
 14 10  1  0
 22 17  1  0
 26 21  1  0
M  END
$$$$
