
     RDKit          3D

 35 38  0  0  0  0  0  0  0  0999 V2000
    3.1889    0.6178   14.2126 C   0  0  0  0  0  0  0  0  0  0  0  0
    2.9208    1.3729   12.9389 C   0  0  0  0  0  0  0  0  0  0  0  0
    3.2524    2.7882   12.9302 C   0  0  0  0  0  0  0  0  0  0  0  0
    3.8039    3.5239   14.0598 C   0  0  0  0  0  0  0  0  0  0  0  0
    4.1249    4.9863   13.8810 C   0  0  0  0  0  0  0  0  0  0  0  0
    4.8080    5.6346   15.0169 C   0  0  0  0  0  0  0  0  0  0  0  0
    5.4361    4.5975   15.8852 C   0  0  0  0  0  0  0  0  0  0  0  0
    4.5321    3.5448   16.4342 C   0  0  0  0  0  0  0  0  0  0  0  0
    3.4379    3.1281   15.4564 C   0  0  0  0  0  0  0  0  0  0  0  0
    2.1610    3.5541   15.9603 N   0  0  0  0  0  0  0  0  0  0  0  0
    1.8579    3.9760   17.2889 C   0  0  0  0  0  0  0  0  0  0  0  0
    0.4106    4.3796   17.3710 C   0  0  0  0  0  0  0  0  0  0  0  0
   -0.2176    3.9346   16.1016 C   0  0  0  0  0  0  0  0  0  0  0  0
    0.9041    3.6039   15.2366 C   0  0  0  0  0  0  0  0  0  0  0  0
    0.8561    3.3759   13.9961 O   0  0  0  0  0  0  0  0  0  0  0  0
   -1.1368    4.9017   15.5288 N   0  0  0  0  0  0  0  0  0  0  0  0
   -2.0891    4.4444   14.5829 C   0  0  0  0  0  0  0  0  0  0  0  0
   -2.0851    3.1701   14.1337 N   0  0  0  0  0  0  0  0  0  0  0  0
   -2.9620    2.6963   13.2434 C   0  0  0  0  0  0  0  0  0  0  0  0
   -3.9209    3.4881   12.7348 N   0  0  0  0  0  0  0  0  0  0  0  0
   -3.9722    4.7794   13.1509 C   0  0  0  0  0  0  0  0  0  0  0  0
   -3.0675    5.2669   14.0690 C   0  0  0  0  0  0  0  0  0  0  0  0
   -3.1675    6.5827   14.4528 C   0  0  0  0  0  0  0  0  0  0  0  0
   -4.1743    7.3840   13.9071 C   0  0  0  0  0  0  0  0  0  0  0  0
   -5.0632    6.8621   12.9900 C   0  0  0  0  0  0  0  0  0  0  0  0
   -4.9806    5.5448   12.5913 C   0  0  0  0  0  0  0  0  0  0  0  0
   -4.3178    8.8200   14.2964 C   0  0  0  0  0  0  0  0  0  0  0  0
   -4.5618    8.8891   15.6383 F   0  0  0  0  0  0  0  0  0  0  0  0
   -5.3119    9.4469   13.5837 F   0  0  0  0  0  0  0  0  0  0  0  0
   -3.1250    9.4381   13.9450 F   0  0  0  0  0  0  0  0  0  0  0  0
    5.8834    6.5000   14.5646 N   0  0  0  0  0  0  0  0  0  0  0  0
    7.1541    5.8014   14.5483 C   0  0  0  0  0  0  0  0  0  0  0  0
    5.9526    7.7365   15.2960 C   0  0  0  0  0  0  0  0  0  0  0  0
    6.8927    8.7345   14.6853 C   0  0  0  0  0  0  0  0  0  0  0  0
    4.5504    8.3569   15.2125 C   0  0  0  0  0  0  0  0  0  0  0  0
  1  2  1  0
  2  3  1  0
  3  4  1  0
  4  5  1  0
  5  6  1  0
  6  7  1  0
  7  8  1  0
  8  9  1  0
  9 10  1  0
 10 11  1  0
 11 12  1  0
 12 13  1  0
 13 14  1  0
 14 15  2  0
 13 16  1  0
 16 17  1  0
 17 18  2  0
 18 19  1  0
 19 20  2  0
 20 21  1  0
 21 22  2  0
 22 23  1  0
 23 24  2  0
 24 25  1  0
 25 26  2  0
 24 27  1  0
 27 28  1  0
 27 29  1  0
 27 30  1  0
  6 31  1  0
 31 32  1  0
 31 33  1  0
 33 34  1  0
 33 35  1  0
  9  4  1  0
 14 10  1  0
 22 17  1  0
 26 21  1  0
M  END
$$$$
