
     RDKit          3D

 35 38  0  0  0  0  0  0  0  0999 V2000
   -4.1948    7.3134   14.0778 C   0  0  0  0  0  0  0  0  0  0  0  0
   -3.3583    7.2781   15.3282 C   0  0  0  0  0  0  0  0  0  0  0  0
   -2.5584    6.0851   15.5519 C   0  0  0  0  0  0  0  0  0  0  0  0
   -1.1386    5.9628   15.2512 C   0  0  0  0  0  0  0  0  0  0  0  0
   -0.1712    5.7882   16.3945 C   0  0  0  0  0  0  0  0  0  0  0  0
    1.2588    5.8108   16.0315 C   0  0  0  0  0  0  0  0  0  0  0  0
    1.4301    6.4602   14.7000 C   0  0  0  0  0  0  0  0  0  0  0  0
    0.6770    5.8611   13.5594 C   0  0  0  0  0  0  0  0  0  0  0  0
   -0.7016    5.3448   13.9596 C   0  0  0  0  0  0  0  0  0  0  0  0
   -0.7197    3.9108   13.8634 N   0  0  0  0  0  0  0  0  0  0  0  0
   -0.7230    2.9764   14.9413 C   0  0  0  0  0  0  0  0  0  0  0  0
   -0.7918    1.5765   14.3938 C   0  0  0  0  0  0  0  0  0  0  0  0
   -0.5636    1.6907   12.9312 C   0  0  0  0  0  0  0  0  0  0  0  0
   -0.6953    3.1121   12.6520 C   0  0  0  0  0  0  0  0  0  0  0  0
   -0.7825    3.6505   11.5137 O   0  0  0  0  0  0  0  0  0  0  0  0
   -1.4375    0.8508   12.1316 N   0  0  0  0  0  0  0  0  0  0  0  0
   -0.9231    0.2971   10.9318 C   0  0  0  0  0  0  0  0  0  0  0  0
    0.2876    0.6537   10.4496 N   0  0  0  0  0  0  0  0  0  0  0  0
    0.8113    0.1587    9.3241 C   0  0  0  0  0  0  0  0  0  0  0  0
    0.1390   -0.7464    8.5933 N   0  0  0  0  0  0  0  0  0  0  0  0
   -1.0839   -1.1415    9.0308 C   0  0  0  0  0  0  0  0  0  0  0  0
   -1.6230   -0.6304   10.1916 C   0  0  0  0  0  0  0  0  0  0  0  0
   -2.8652   -1.0668   10.5852 C   0  0  0  0  0  0  0  0  0  0  0  0
   -3.5426   -2.0085    9.8054 C   0  0  0  0  0  0  0  0  0  0  0  0
   -2.9722   -2.4988    8.6488 C   0  0  0  0  0  0  0  0  0  0  0  0
   -1.7271   -2.0744    8.2359 C   0  0  0  0  0  0  0  0  0  0  0  0
   -4.8956   -2.5090   10.1967 C   0  0  0  0  0  0  0  0  0  0  0  0
   -5.0127   -2.4418   11.5557 F   0  0  0  0  0  0  0  0  0  0  0  0
   -5.1178   -3.7889    9.7475 F   0  0  0  0  0  0  0  0  0  0  0  0
   -5.8133   -1.6938    9.5476 F   0  0  0  0  0  0  0  0  0  0  0  0
    2.0329    6.5972   16.9763 N   0  0  0  0  0  0  0  0  0  0  0  0
    2.2126    7.9586   16.5102 C   0  0  0  0  0  0  0  0  0  0  0  0
    3.2802    5.9758   17.3326 C   0  0  0  0  0  0  0  0  0  0  0  0
    3.1104    4.6220   17.9580 C   0  0  0  0  0  0  0  0  0  0  0  0
    4.0331    5.7506   16.0133 C   0  0  0  0  0  0  0  0  0  0  0  0
  1  2  1  0
  2  3  1  0
  3  4  1  0
  4  5  1  0
  5  6  1  0
  6  7  1  0
  7  8  1  0
  8  9  1  0
  9 10  1  0
 10 11  1  0
 11 12  1  0
 12 13  1  0
 13 14  1  0
 14 15  2  0
 13 16  1  0
 16 17  1  0
 17 18  2  0
 18 19  1  0
 19 20  2  0
 20 21  1  0
 21 22  2  0
 22 23  1  0
 23 24  2  0
 24 25  1  0
 25 26  2  0
 24 27  1  0
 27 28  1  0
 27 29  1  0
 27 30  1  0
  6 31  1  0
 31 32  1  0
 31 33  1  0
 33 34  1  0
 33 35  1  0
  9  4  1  0
 14 10  1  0
 22 17  1  0
 26 21  1  0
M  END
$$$$
