
     RDKit          3D

 35 38  0  0  0  0  0  0  0  0999 V2000
    3.4666    5.5701   13.2540 C   0  0  0  0  0  0  0  0  0  0  0  0
    3.4374    4.0792   13.4559 C   0  0  0  0  0  0  0  0  0  0  0  0
    2.8366    3.5930   14.6870 C   0  0  0  0  0  0  0  0  0  0  0  0
    1.7281    4.2308   15.3842 C   0  0  0  0  0  0  0  0  0  0  0  0
    1.3259    5.6255   14.9764 C   0  0  0  0  0  0  0  0  0  0  0  0
    0.2913    6.2632   15.8133 C   0  0  0  0  0  0  0  0  0  0  0  0
    0.2156    5.5733   17.1332 C   0  0  0  0  0  0  0  0  0  0  0  0
   -0.0549    4.1059   17.1088 C   0  0  0  0  0  0  0  0  0  0  0  0
    0.6173    3.3943   15.9388 C   0  0  0  0  0  0  0  0  0  0  0  0
   -0.3882    2.9253   15.0251 N   0  0  0  0  0  0  0  0  0  0  0  0
   -1.7307    3.3935   14.9091 C   0  0  0  0  0  0  0  0  0  0  0  0
   -2.4251    2.6597   13.7939 C   0  0  0  0  0  0  0  0  0  0  0  0
   -1.5281    1.5403   13.4112 C   0  0  0  0  0  0  0  0  0  0  0  0
   -0.2632    1.8495   14.0591 C   0  0  0  0  0  0  0  0  0  0  0  0
    0.8468    1.2859   13.8504 O   0  0  0  0  0  0  0  0  0  0  0  0
   -1.4202    1.3360   11.9776 N   0  0  0  0  0  0  0  0  0  0  0  0
   -0.7118    0.1989   11.5130 C   0  0  0  0  0  0  0  0  0  0  0  0
    0.2319   -0.4047   12.2684 N   0  0  0  0  0  0  0  0  0  0  0  0
    0.9237   -1.4770   11.8714 C   0  0  0  0  0  0  0  0  0  0  0  0
    0.7087   -2.0252   10.6638 N   0  0  0  0  0  0  0  0  0  0  0  0
   -0.2292   -1.4593    9.8617 C   0  0  0  0  0  0  0  0  0  0  0  0
   -0.9421   -0.3535   10.2721 C   0  0  0  0  0  0  0  0  0  0  0  0
   -1.8784    0.1770    9.4176 C   0  0  0  0  0  0  0  0  0  0  0  0
   -2.0811   -0.4130    8.1668 C   0  0  0  0  0  0  0  0  0  0  0  0
   -1.3491   -1.5197    7.7890 C   0  0  0  0  0  0  0  0  0  0  0  0
   -0.4048   -2.0679    8.6310 C   0  0  0  0  0  0  0  0  0  0  0  0
   -3.0885    0.1328    7.2070 C   0  0  0  0  0  0  0  0  0  0  0  0
   -2.6146    1.3057    6.6925 F   0  0  0  0  0  0  0  0  0  0  0  0
   -4.3144    0.3170    7.8009 F   0  0  0  0  0  0  0  0  0  0  0  0
   -3.2607   -0.8396    6.2307 F   0  0  0  0  0  0  0  0  0  0  0  0
    0.6166    7.6513   16.0917 N   0  0  0  0  0  0  0  0  0  0  0  0
   -0.4971    8.3419   16.7129 C   0  0  0  0  0  0  0  0  0  0  0  0
    1.1153    8.3518   14.9387 C   0  0  0  0  0  0  0  0  0  0  0  0
    2.5485    8.0340   14.6263 C   0  0  0  0  0  0  0  0  0  0  0  0
    0.2909    7.8454   13.7463 C   0  0  0  0  0  0  0  0  0  0  0  0
  1  2  1  0
  2  3  1  0
  3  4  1  0
  4  5  1  0
  5  6  1  0
  6  7  1  0
  7  8  1  0
  8  9  1  0
  9 10  1  0
 10 11  1  0
 11 12  1  0
 12 13  1  0
 13 14  1  0
 14 15  2  0
 13 16  1  0
 16 17  1  0
 17 18  2  0
 18 19  1  0
 19 20  2  0
 20 21  1  0
 21 22  2  0
 22 23  1  0
 23 24  2  0
 24 25  1  0
 25 26  2  0
 24 27  1  0
 27 28  1  0
 27 29  1  0
 27 30  1  0
  6 31  1  0
 31 32  1  0
 31 33  1  0
 33 34  1  0
 33 35  1  0
  9  4  1  0
 14 10  1  0
 22 17  1  0
 26 21  1  0
M  END
$$$$
