
     RDKit          3D

 35 38  0  0  0  0  0  0  0  0999 V2000
   -0.4086   12.0012  -13.6396 C   0  0  0  0  0  0  0  0  0  0  0  0
    0.6899   11.1118  -14.1559 C   0  0  0  0  0  0  0  0  0  0  0  0
    0.2862    9.8684  -14.7918 C   0  0  0  0  0  0  0  0  0  0  0  0
    0.4504    8.5422  -14.2126 C   0  0  0  0  0  0  0  0  0  0  0  0
   -0.3901    8.1673  -13.0182 C   0  0  0  0  0  0  0  0  0  0  0  0
   -0.0753    6.8660  -12.3978 C   0  0  0  0  0  0  0  0  0  0  0  0
    1.2941    6.4342  -12.8005 C   0  0  0  0  0  0  0  0  0  0  0  0
    1.5580    6.3198  -14.2649 C   0  0  0  0  0  0  0  0  0  0  0  0
    0.8488    7.3927  -15.0851 C   0  0  0  0  0  0  0  0  0  0  0  0
   -0.1705    6.7796  -15.8919 N   0  0  0  0  0  0  0  0  0  0  0  0
   -1.4205    7.3487  -16.2773 C   0  0  0  0  0  0  0  0  0  0  0  0
   -2.1627    6.3823  -17.1603 C   0  0  0  0  0  0  0  0  0  0  0  0
   -1.4262    5.0957  -17.0793 C   0  0  0  0  0  0  0  0  0  0  0  0
   -0.1618    5.4391  -16.4477 C   0  0  0  0  0  0  0  0  0  0  0  0
    0.8599    4.7031  -16.3599 O   0  0  0  0  0  0  0  0  0  0  0  0
   -1.2814    4.4189  -18.3558 N   0  0  0  0  0  0  0  0  0  0  0  0
   -0.3895    3.3193  -18.4352 C   0  0  0  0  0  0  0  0  0  0  0  0
    0.0441    2.6780  -17.3278 N   0  0  0  0  0  0  0  0  0  0  0  0
    0.8839    1.6388  -17.3553 C   0  0  0  0  0  0  0  0  0  0  0  0
    1.3535    1.1652  -18.5216 N   0  0  0  0  0  0  0  0  0  0  0  0
    0.9507    1.7719  -19.6675 C   0  0  0  0  0  0  0  0  0  0  0  0
    0.0847    2.8435  -19.6380 C   0  0  0  0  0  0  0  0  0  0  0  0
   -0.2880    3.4181  -20.8294 C   0  0  0  0  0  0  0  0  0  0  0  0
    0.2164    2.9056  -22.0280 C   0  0  0  0  0  0  0  0  0  0  0  0
    1.0818    1.8311  -22.0197 C   0  0  0  0  0  0  0  0  0  0  0  0
    1.4684    1.2398  -20.8357 C   0  0  0  0  0  0  0  0  0  0  0  0
   -0.1624    3.5014  -23.3454 C   0  0  0  0  0  0  0  0  0  0  0  0
    0.7826    3.1595  -24.2701 F   0  0  0  0  0  0  0  0  0  0  0  0
   -0.3028    4.8666  -23.2687 F   0  0  0  0  0  0  0  0  0  0  0  0
   -1.4147    2.9889  -23.6572 F   0  0  0  0  0  0  0  0  0  0  0  0
   -0.0689    6.9580  -10.9481 N   0  0  0  0  0  0  0  0  0  0  0  0
   -0.6118    5.7591  -10.3390 C   0  0  0  0  0  0  0  0  0  0  0  0
   -0.7058    8.1516  -10.4598 C   0  0  0  0  0  0  0  0  0  0  0  0
   -1.2974    8.9961  -11.5505 C   0  0  0  0  0  0  0  0  0  0  0  0
   -1.8822    7.6796   -9.5931 C   0  0  0  0  0  0  0  0  0  0  0  0
  1  2  1  0
  2  3  1  0
  3  4  1  0
  4  5  1  0
  5  6  1  0
  6  7  1  0
  7  8  1  0
  8  9  1  0
  9 10  1  0
 10 11  1  0
 11 12  1  0
 12 13  1  0
 13 14  1  0
 14 15  2  0
 13 16  1  0
 16 17  1  0
 17 18  2  0
 18 19  1  0
 19 20  2  0
 20 21  1  0
 21 22  2  0
 22 23  1  0
 23 24  2  0
 24 25  1  0
 25 26  2  0
 24 27  1  0
 27 28  1  0
 27 29  1  0
 27 30  1  0
  6 31  1  0
 31 32  1  0
 31 33  1  0
 33 34  1  0
 33 35  1  0
  9  4  1  0
 14 10  1  0
 22 17  1  0
 26 21  1  0
M  END
$$$$
