
     RDKit          3D

 35 38  0  0  0  0  0  0  0  0999 V2000
    4.0721    1.0229   14.9379 C   0  0  0  0  0  0  0  0  0  0  0  0
    3.0882    0.6153   13.8748 C   0  0  0  0  0  0  0  0  0  0  0  0
    3.4310    0.9417   12.5004 C   0  0  0  0  0  0  0  0  0  0  0  0
    2.7557    1.9428   11.6861 C   0  0  0  0  0  0  0  0  0  0  0  0
    2.0625    1.4977   10.4232 C   0  0  0  0  0  0  0  0  0  0  0  0
    1.5202    2.5779    9.5767 C   0  0  0  0  0  0  0  0  0  0  0  0
    2.1811    3.8691    9.9230 C   0  0  0  0  0  0  0  0  0  0  0  0
    2.0874    4.3105   11.3455 C   0  0  0  0  0  0  0  0  0  0  0  0
    2.1597    3.1526   12.3360 C   0  0  0  0  0  0  0  0  0  0  0  0
    0.8880    3.0040   12.9890 N   0  0  0  0  0  0  0  0  0  0  0  0
    0.5036    1.9755   13.8997 C   0  0  0  0  0  0  0  0  0  0  0  0
   -0.8997    2.2277   14.3808 C   0  0  0  0  0  0  0  0  0  0  0  0
   -1.4460    3.3077   13.5209 C   0  0  0  0  0  0  0  0  0  0  0  0
   -0.2851    3.8429   12.8271 C   0  0  0  0  0  0  0  0  0  0  0  0
   -0.2384    4.9057   12.1476 O   0  0  0  0  0  0  0  0  0  0  0  0
   -2.2107    4.3070   14.2454 N   0  0  0  0  0  0  0  0  0  0  0  0
   -1.5098    5.3841   14.8451 C   0  0  0  0  0  0  0  0  0  0  0  0
   -0.1738    5.3374   15.0415 N   0  0  0  0  0  0  0  0  0  0  0  0
    0.5270    6.3275   15.6024 C   0  0  0  0  0  0  0  0  0  0  0  0
   -0.0809    7.4536   16.0116 N   0  0  0  0  0  0  0  0  0  0  0  0
   -1.4237    7.5552   15.8388 C   0  0  0  0  0  0  0  0  0  0  0  0
   -2.1454    6.5336   15.2604 C   0  0  0  0  0  0  0  0  0  0  0  0
   -3.5023    6.6920   15.1117 C   0  0  0  0  0  0  0  0  0  0  0  0
   -4.1088    7.8737   15.5470 C   0  0  0  0  0  0  0  0  0  0  0  0
   -3.3548    8.8759   16.1219 C   0  0  0  0  0  0  0  0  0  0  0  0
   -1.9922    8.7374   16.2804 C   0  0  0  0  0  0  0  0  0  0  0  0
   -5.5815    8.0863   15.4052 C   0  0  0  0  0  0  0  0  0  0  0  0
   -6.1412    8.1278   16.6502 F   0  0  0  0  0  0  0  0  0  0  0  0
   -6.1681    7.1100   14.6356 F   0  0  0  0  0  0  0  0  0  0  0  0
   -5.7363    9.2826   14.7175 F   0  0  0  0  0  0  0  0  0  0  0  0
    1.7954    2.3380    8.1707 N   0  0  0  0  0  0  0  0  0  0  0  0
    0.8720    1.3720    7.6076 C   0  0  0  0  0  0  0  0  0  0  0  0
    3.1677    1.9875    7.9206 C   0  0  0  0  0  0  0  0  0  0  0  0
    4.1233    3.1170    8.1732 C   0  0  0  0  0  0  0  0  0  0  0  0
    3.5168    0.8910    8.9373 C   0  0  0  0  0  0  0  0  0  0  0  0
  1  2  1  0
  2  3  1  0
  3  4  1  0
  4  5  1  0
  5  6  1  0
  6  7  1  0
  7  8  1  0
  8  9  1  0
  9 10  1  0
 10 11  1  0
 11 12  1  0
 12 13  1  0
 13 14  1  0
 14 15  2  0
 13 16  1  0
 16 17  1  0
 17 18  2  0
 18 19  1  0
 19 20  2  0
 20 21  1  0
 21 22  2  0
 22 23  1  0
 23 24  2  0
 24 25  1  0
 25 26  2  0
 24 27  1  0
 27 28  1  0
 27 29  1  0
 27 30  1  0
  6 31  1  0
 31 32  1  0
 31 33  1  0
 33 34  1  0
 33 35  1  0
  9  4  1  0
 14 10  1  0
 22 17  1  0
 26 21  1  0
M  END
$$$$
