
     RDKit          3D

 35 38  0  0  0  0  0  0  0  0999 V2000
    2.6034    9.6237   14.6129 C   0  0  0  0  0  0  0  0  0  0  0  0
    1.4942    8.6443   14.3394 C   0  0  0  0  0  0  0  0  0  0  0  0
    0.9079    7.9756   15.4893 C   0  0  0  0  0  0  0  0  0  0  0  0
    1.3224    6.6767   16.0014 C   0  0  0  0  0  0  0  0  0  0  0  0
    1.0258    6.3404   17.4410 C   0  0  0  0  0  0  0  0  0  0  0  0
    1.5943    5.0701   17.9312 C   0  0  0  0  0  0  0  0  0  0  0  0
    2.7095    4.6400   17.0394 C   0  0  0  0  0  0  0  0  0  0  0  0
    2.3840    4.4687   15.5931 C   0  0  0  0  0  0  0  0  0  0  0  0
    1.3809    5.4975   15.0808 C   0  0  0  0  0  0  0  0  0  0  0  0
    0.1453    4.8384   14.7577 N   0  0  0  0  0  0  0  0  0  0  0  0
   -1.1755    5.3218   14.9961 C   0  0  0  0  0  0  0  0  0  0  0  0
   -2.1771    4.3356   14.4590 C   0  0  0  0  0  0  0  0  0  0  0  0
   -1.4122    3.1090   14.1205 C   0  0  0  0  0  0  0  0  0  0  0  0
   -0.0193    3.5258   14.1608 C   0  0  0  0  0  0  0  0  0  0  0  0
    0.9749    2.8699   13.7429 O   0  0  0  0  0  0  0  0  0  0  0  0
   -1.8069    2.4969   12.8643 N   0  0  0  0  0  0  0  0  0  0  0  0
   -1.4923    1.1300   12.6555 C   0  0  0  0  0  0  0  0  0  0  0  0
   -1.2864    0.2850   13.6895 N   0  0  0  0  0  0  0  0  0  0  0  0
   -0.9877   -1.0090   13.5398 C   0  0  0  0  0  0  0  0  0  0  0  0
   -0.8738   -1.5509   12.3157 N   0  0  0  0  0  0  0  0  0  0  0  0
   -1.0704   -0.7474   11.2391 C   0  0  0  0  0  0  0  0  0  0  0  0
   -1.3784    0.5868   11.3946 C   0  0  0  0  0  0  0  0  0  0  0  0
   -1.5659    1.3519   10.2686 C   0  0  0  0  0  0  0  0  0  0  0  0
   -1.4405    0.7624    9.0075 C   0  0  0  0  0  0  0  0  0  0  0  0
   -1.1311   -0.5770    8.8894 C   0  0  0  0  0  0  0  0  0  0  0  0
   -0.9389   -1.3625   10.0061 C   0  0  0  0  0  0  0  0  0  0  0  0
   -1.6352    1.5584    7.7575 C   0  0  0  0  0  0  0  0  0  0  0  0
   -2.2431    0.7685    6.8239 F   0  0  0  0  0  0  0  0  0  0  0  0
   -0.4479    2.0590    7.2789 F   0  0  0  0  0  0  0  0  0  0  0  0
   -2.4149    2.6516    8.1113 F   0  0  0  0  0  0  0  0  0  0  0  0
    2.1635    5.2218   19.2591 N   0  0  0  0  0  0  0  0  0  0  0  0
    1.1441    5.1276   20.2862 C   0  0  0  0  0  0  0  0  0  0  0  0
    2.9620    6.4106   19.3936 C   0  0  0  0  0  0  0  0  0  0  0  0
    2.2665    7.5100   20.1422 C   0  0  0  0  0  0  0  0  0  0  0  0
    4.1767    6.0107   20.2436 C   0  0  0  0  0  0  0  0  0  0  0  0
  1  2  1  0
  2  3  1  0
  3  4  1  0
  4  5  1  0
  5  6  1  0
  6  7  1  0
  7  8  1  0
  8  9  1  0
  9 10  1  0
 10 11  1  0
 11 12  1  0
 12 13  1  0
 13 14  1  0
 14 15  2  0
 13 16  1  0
 16 17  1  0
 17 18  2  0
 18 19  1  0
 19 20  2  0
 20 21  1  0
 21 22  2  0
 22 23  1  0
 23 24  2  0
 24 25  1  0
 25 26  2  0
 24 27  1  0
 27 28  1  0
 27 29  1  0
 27 30  1  0
  6 31  1  0
 31 32  1  0
 31 33  1  0
 33 34  1  0
 33 35  1  0
  9  4  1  0
 14 10  1  0
 22 17  1  0
 26 21  1  0
M  END
$$$$
