
     RDKit          3D

 35 38  0  0  0  0  0  0  0  0999 V2000
   -1.0902    3.1238   18.7162 C   0  0  0  0  0  0  0  0  0  0  0  0
   -0.1741    2.8787   17.5479 C   0  0  0  0  0  0  0  0  0  0  0  0
    0.7077    3.9682   17.1626 C   0  0  0  0  0  0  0  0  0  0  0  0
    0.4172    4.9524   16.1291 C   0  0  0  0  0  0  0  0  0  0  0  0
    1.4167    5.1476   15.0171 C   0  0  0  0  0  0  0  0  0  0  0  0
    1.1275    6.2538   14.0843 C   0  0  0  0  0  0  0  0  0  0  0  0
    0.1737    7.2098   14.7169 C   0  0  0  0  0  0  0  0  0  0  0  0
   -1.1291    6.6494   15.1812 C   0  0  0  0  0  0  0  0  0  0  0  0
   -1.0031    5.2411   15.7539 C   0  0  0  0  0  0  0  0  0  0  0  0
   -1.6679    4.3112   14.8826 N   0  0  0  0  0  0  0  0  0  0  0  0
   -3.0299    4.3509   14.4606 C   0  0  0  0  0  0  0  0  0  0  0  0
   -3.2969    3.2121   13.5139 C   0  0  0  0  0  0  0  0  0  0  0  0
   -2.1087    2.3250   13.5853 C   0  0  0  0  0  0  0  0  0  0  0  0
   -1.1064    3.1144   14.2839 C   0  0  0  0  0  0  0  0  0  0  0  0
    0.1219    2.8449   14.3930 O   0  0  0  0  0  0  0  0  0  0  0  0
   -1.6689    1.8248   12.2950 N   0  0  0  0  0  0  0  0  0  0  0  0
   -1.2796    0.4646   12.1995 C   0  0  0  0  0  0  0  0  0  0  0  0
   -1.1408   -0.3109   13.2972 N   0  0  0  0  0  0  0  0  0  0  0  0
   -0.7761   -1.5958   13.2546 C   0  0  0  0  0  0  0  0  0  0  0  0
   -0.5213   -2.1993   12.0815 N   0  0  0  0  0  0  0  0  0  0  0  0
   -0.6450   -1.4673   10.9448 C   0  0  0  0  0  0  0  0  0  0  0  0
   -1.0212   -0.1423   10.9900 C   0  0  0  0  0  0  0  0  0  0  0  0
   -1.1295    0.5491    9.8074 C   0  0  0  0  0  0  0  0  0  0  0  0
   -0.8577   -0.1035    8.6015 C   0  0  0  0  0  0  0  0  0  0  0  0
   -0.4836   -1.4314    8.5940 C   0  0  0  0  0  0  0  0  0  0  0  0
   -0.3689   -2.1435    9.7691 C   0  0  0  0  0  0  0  0  0  0  0  0
   -0.9624    0.6116    7.2931 C   0  0  0  0  0  0  0  0  0  0  0  0
   -0.4502   -0.1893    6.3127 F   0  0  0  0  0  0  0  0  0  0  0  0
   -0.3197    1.8263    7.3205 F   0  0  0  0  0  0  0  0  0  0  0  0
   -2.3118    0.8788    7.1040 F   0  0  0  0  0  0  0  0  0  0  0  0
    2.3269    7.0124   13.7741 N   0  0  0  0  0  0  0  0  0  0  0  0
    3.4436    6.1378   13.4725 C   0  0  0  0  0  0  0  0  0  0  0  0
    2.6536    7.9816   14.7854 C   0  0  0  0  0  0  0  0  0  0  0  0
    4.1161    8.3155   14.8357 C   0  0  0  0  0  0  0  0  0  0  0  0
    1.9292    9.2743   14.3827 C   0  0  0  0  0  0  0  0  0  0  0  0
  1  2  1  0
  2  3  1  0
  3  4  1  0
  4  5  1  0
  5  6  1  0
  6  7  1  0
  7  8  1  0
  8  9  1  0
  9 10  1  0
 10 11  1  0
 11 12  1  0
 12 13  1  0
 13 14  1  0
 14 15  2  0
 13 16  1  0
 16 17  1  0
 17 18  2  0
 18 19  1  0
 19 20  2  0
 20 21  1  0
 21 22  2  0
 22 23  1  0
 23 24  2  0
 24 25  1  0
 25 26  2  0
 24 27  1  0
 27 28  1  0
 27 29  1  0
 27 30  1  0
  6 31  1  0
 31 32  1  0
 31 33  1  0
 33 34  1  0
 33 35  1  0
  9  4  1  0
 14 10  1  0
 22 17  1  0
 26 21  1  0
M  END
$$$$
