
     RDKit          3D

 35 38  0  0  0  0  0  0  0  0999 V2000
    6.8475    6.9393   19.5363 C   0  0  0  0  0  0  0  0  0  0  0  0
    7.1567    7.8221   18.3575 C   0  0  0  0  0  0  0  0  0  0  0  0
    6.0275    8.2857   17.5681 C   0  0  0  0  0  0  0  0  0  0  0  0
    5.5252    7.6347   16.3659 C   0  0  0  0  0  0  0  0  0  0  0  0
    5.7109    6.1455   16.2206 C   0  0  0  0  0  0  0  0  0  0  0  0
    5.3052    5.5741   14.9220 C   0  0  0  0  0  0  0  0  0  0  0  0
    5.2410    6.6535   13.8950 C   0  0  0  0  0  0  0  0  0  0  0  0
    4.3413    7.8071   14.1894 C   0  0  0  0  0  0  0  0  0  0  0  0
    4.3230    8.1884   15.6664 C   0  0  0  0  0  0  0  0  0  0  0  0
    3.0302    7.8907   16.2193 N   0  0  0  0  0  0  0  0  0  0  0  0
    2.4435    8.4586   17.3891 C   0  0  0  0  0  0  0  0  0  0  0  0
    1.0598    7.8992   17.5805 C   0  0  0  0  0  0  0  0  0  0  0  0
    0.9322    6.7698   16.6253 C   0  0  0  0  0  0  0  0  0  0  0  0
    2.0685    6.9204   15.7298 C   0  0  0  0  0  0  0  0  0  0  0  0
    2.2550    6.3089   14.6414 O   0  0  0  0  0  0  0  0  0  0  0  0
   -0.3496    6.7158   15.9451 N   0  0  0  0  0  0  0  0  0  0  0  0
   -0.6419    5.5764   15.1533 C   0  0  0  0  0  0  0  0  0  0  0  0
    0.1946    4.5166   15.1016 N   0  0  0  0  0  0  0  0  0  0  0  0
   -0.0400    3.4234   14.3696 C   0  0  0  0  0  0  0  0  0  0  0  0
   -1.1540    3.3204   13.6257 N   0  0  0  0  0  0  0  0  0  0  0  0
   -2.0311    4.3565   13.6397 C   0  0  0  0  0  0  0  0  0  0  0  0
   -1.7882    5.4835   14.3948 C   0  0  0  0  0  0  0  0  0  0  0  0
   -2.7113    6.5011   14.3695 C   0  0  0  0  0  0  0  0  0  0  0  0
   -3.8612    6.3676   13.5861 C   0  0  0  0  0  0  0  0  0  0  0  0
   -4.0718    5.2248   12.8425 C   0  0  0  0  0  0  0  0  0  0  0  0
   -3.1585    4.1920   12.8536 C   0  0  0  0  0  0  0  0  0  0  0  0
   -4.8898    7.4507   13.5293 C   0  0  0  0  0  0  0  0  0  0  0  0
   -4.9795    8.0362   14.7598 F   0  0  0  0  0  0  0  0  0  0  0  0
   -6.1131    6.9743   13.1220 F   0  0  0  0  0  0  0  0  0  0  0  0
   -4.4629    8.3401   12.5521 F   0  0  0  0  0  0  0  0  0  0  0  0
    6.2763    4.6061   14.4425 N   0  0  0  0  0  0  0  0  0  0  0  0
    7.4769    5.2572   13.9552 C   0  0  0  0  0  0  0  0  0  0  0  0
    5.7259    3.6905   13.4795 C   0  0  0  0  0  0  0  0  0  0  0  0
    6.0719    4.0425   12.0620 C   0  0  0  0  0  0  0  0  0  0  0  0
    6.3858    2.3328   13.7607 C   0  0  0  0  0  0  0  0  0  0  0  0
  1  2  1  0
  2  3  1  0
  3  4  1  0
  4  5  1  0
  5  6  1  0
  6  7  1  0
  7  8  1  0
  8  9  1  0
  9 10  1  0
 10 11  1  0
 11 12  1  0
 12 13  1  0
 13 14  1  0
 14 15  2  0
 13 16  1  0
 16 17  1  0
 17 18  2  0
 18 19  1  0
 19 20  2  0
 20 21  1  0
 21 22  2  0
 22 23  1  0
 23 24  2  0
 24 25  1  0
 25 26  2  0
 24 27  1  0
 27 28  1  0
 27 29  1  0
 27 30  1  0
  6 31  1  0
 31 32  1  0
 31 33  1  0
 33 34  1  0
 33 35  1  0
  9  4  1  0
 14 10  1  0
 22 17  1  0
 26 21  1  0
M  END
$$$$
