
     RDKit          3D

 35 38  0  0  0  0  0  0  0  0999 V2000
   -4.7563    4.1157   13.4954 C   0  0  0  0  0  0  0  0  0  0  0  0
   -4.1271    4.7760   14.6923 C   0  0  0  0  0  0  0  0  0  0  0  0
   -2.7495    4.4215   14.9916 C   0  0  0  0  0  0  0  0  0  0  0  0
   -1.6019    4.7515   14.1576 C   0  0  0  0  0  0  0  0  0  0  0  0
   -0.3490    5.2618   14.8235 C   0  0  0  0  0  0  0  0  0  0  0  0
    0.7230    5.7076   13.9127 C   0  0  0  0  0  0  0  0  0  0  0  0
    0.1536    5.9860   12.5628 C   0  0  0  0  0  0  0  0  0  0  0  0
   -0.5762    4.8666   11.8985 C   0  0  0  0  0  0  0  0  0  0  0  0
   -1.3746    4.0106   12.8768 C   0  0  0  0  0  0  0  0  0  0  0  0
   -0.7854    2.7020   12.9556 N   0  0  0  0  0  0  0  0  0  0  0  0
   -0.4215    1.9924   14.1383 C   0  0  0  0  0  0  0  0  0  0  0  0
    0.1184    0.6379   13.7667 C   0  0  0  0  0  0  0  0  0  0  0  0
    0.3129    0.6576   12.2950 C   0  0  0  0  0  0  0  0  0  0  0  0
   -0.3978    1.8460   11.8497 C   0  0  0  0  0  0  0  0  0  0  0  0
   -0.6756    2.1542   10.6576 O   0  0  0  0  0  0  0  0  0  0  0  0
   -0.1069   -0.5627   11.6292 N   0  0  0  0  0  0  0  0  0  0  0  0
   -1.1464   -0.4798   10.6684 C   0  0  0  0  0  0  0  0  0  0  0  0
   -1.7883    0.6826   10.4183 N   0  0  0  0  0  0  0  0  0  0  0  0
   -2.7727    0.8068    9.5231 C   0  0  0  0  0  0  0  0  0  0  0  0
   -3.1860   -0.2507    8.8048 N   0  0  0  0  0  0  0  0  0  0  0  0
   -2.5757   -1.4451    9.0148 C   0  0  0  0  0  0  0  0  0  0  0  0
   -1.5607   -1.5721    9.9383 C   0  0  0  0  0  0  0  0  0  0  0  0
   -0.9803   -2.8060   10.1089 C   0  0  0  0  0  0  0  0  0  0  0  0
   -1.4305   -3.8892    9.3487 C   0  0  0  0  0  0  0  0  0  0  0  0
   -2.4492   -3.7253    8.4330 C   0  0  0  0  0  0  0  0  0  0  0  0
   -3.0452   -2.4961    8.2461 C   0  0  0  0  0  0  0  0  0  0  0  0
   -0.8275   -5.2481    9.5037 C   0  0  0  0  0  0  0  0  0  0  0  0
   -0.5168   -5.4433   10.8191 F   0  0  0  0  0  0  0  0  0  0  0  0
    0.2815   -5.4100    8.7080 F   0  0  0  0  0  0  0  0  0  0  0  0
   -1.7803   -6.1494    9.0477 F   0  0  0  0  0  0  0  0  0  0  0  0
    1.3250    6.9480   14.3701 N   0  0  0  0  0  0  0  0  0  0  0  0
    2.6090    7.1786   13.7368 C   0  0  0  0  0  0  0  0  0  0  0  0
    1.4024    7.0377   15.8035 C   0  0  0  0  0  0  0  0  0  0  0  0
    1.8521    5.7618   16.4537 C   0  0  0  0  0  0  0  0  0  0  0  0
    2.4877    8.0815   16.1044 C   0  0  0  0  0  0  0  0  0  0  0  0
  1  2  1  0
  2  3  1  0
  3  4  1  0
  4  5  1  0
  5  6  1  0
  6  7  1  0
  7  8  1  0
  8  9  1  0
  9 10  1  0
 10 11  1  0
 11 12  1  0
 12 13  1  0
 13 14  1  0
 14 15  2  0
 13 16  1  0
 16 17  1  0
 17 18  2  0
 18 19  1  0
 19 20  2  0
 20 21  1  0
 21 22  2  0
 22 23  1  0
 23 24  2  0
 24 25  1  0
 25 26  2  0
 24 27  1  0
 27 28  1  0
 27 29  1  0
 27 30  1  0
  6 31  1  0
 31 32  1  0
 31 33  1  0
 33 34  1  0
 33 35  1  0
  9  4  1  0
 14 10  1  0
 22 17  1  0
 26 21  1  0
M  END
$$$$
