
     RDKit          3D

 35 38  0  0  0  0  0  0  0  0999 V2000
    1.3088    4.6843   15.9435 C   0  0  0  0  0  0  0  0  0  0  0  0
    1.6722    4.3956   14.5121 C   0  0  0  0  0  0  0  0  0  0  0  0
    0.7917    4.9332   13.4880 C   0  0  0  0  0  0  0  0  0  0  0  0
   -0.5977    5.3161   13.6978 C   0  0  0  0  0  0  0  0  0  0  0  0
   -1.3090    6.0773   12.6078 C   0  0  0  0  0  0  0  0  0  0  0  0
   -2.6653    6.5537   12.9408 C   0  0  0  0  0  0  0  0  0  0  0  0
   -2.8407    6.5789   14.4215 C   0  0  0  0  0  0  0  0  0  0  0  0
   -2.6156    5.2937   15.1458 C   0  0  0  0  0  0  0  0  0  0  0  0
   -1.4853    4.4615   14.5481 C   0  0  0  0  0  0  0  0  0  0  0  0
   -2.0313    3.2695   13.9592 N   0  0  0  0  0  0  0  0  0  0  0  0
   -3.4060    2.8942   13.8941 C   0  0  0  0  0  0  0  0  0  0  0  0
   -3.5378    1.5927   13.1504 C   0  0  0  0  0  0  0  0  0  0  0  0
   -2.1603    1.0607   12.9965 C   0  0  0  0  0  0  0  0  0  0  0  0
   -1.2973    2.1781   13.3459 C   0  0  0  0  0  0  0  0  0  0  0  0
   -0.0504    2.2516   13.1637 O   0  0  0  0  0  0  0  0  0  0  0  0
   -1.8901    0.4961   11.6863 N   0  0  0  0  0  0  0  0  0  0  0  0
   -0.9323   -0.5449   11.5884 C   0  0  0  0  0  0  0  0  0  0  0  0
   -0.1456   -0.8838   12.6334 N   0  0  0  0  0  0  0  0  0  0  0  0
    0.7695   -1.8565   12.5862 C   0  0  0  0  0  0  0  0  0  0  0  0
    0.9589   -2.5681   11.4624 N   0  0  0  0  0  0  0  0  0  0  0  0
    0.1953   -2.2704   10.3800 C   0  0  0  0  0  0  0  0  0  0  0  0
   -0.7481   -1.2671   10.4298 C   0  0  0  0  0  0  0  0  0  0  0  0
   -1.4914   -1.0097    9.3030 C   0  0  0  0  0  0  0  0  0  0  0  0
   -1.2730   -1.7650    8.1473 C   0  0  0  0  0  0  0  0  0  0  0  0
   -0.3197   -2.7622    8.1336 C   0  0  0  0  0  0  0  0  0  0  0  0
    0.4369   -3.0368    9.2530 C   0  0  0  0  0  0  0  0  0  0  0  0
   -2.0586   -1.5172    6.9001 C   0  0  0  0  0  0  0  0  0  0  0  0
   -1.3118   -1.9082    5.8256 F   0  0  0  0  0  0  0  0  0  0  0  0
   -2.4334   -0.1999    6.7841 F   0  0  0  0  0  0  0  0  0  0  0  0
   -3.2283   -2.2549    7.0255 F   0  0  0  0  0  0  0  0  0  0  0  0
   -2.8777    7.9139   12.4773 N   0  0  0  0  0  0  0  0  0  0  0  0
   -2.7153    8.0150   11.0398 C   0  0  0  0  0  0  0  0  0  0  0  0
   -2.0771    8.8777   13.1836 C   0  0  0  0  0  0  0  0  0  0  0  0
   -2.4948   10.2965   12.9278 C   0  0  0  0  0  0  0  0  0  0  0  0
   -2.3216    8.6182   14.6772 C   0  0  0  0  0  0  0  0  0  0  0  0
  1  2  1  0
  2  3  1  0
  3  4  1  0
  4  5  1  0
  5  6  1  0
  6  7  1  0
  7  8  1  0
  8  9  1  0
  9 10  1  0
 10 11  1  0
 11 12  1  0
 12 13  1  0
 13 14  1  0
 14 15  2  0
 13 16  1  0
 16 17  1  0
 17 18  2  0
 18 19  1  0
 19 20  2  0
 20 21  1  0
 21 22  2  0
 22 23  1  0
 23 24  2  0
 24 25  1  0
 25 26  2  0
 24 27  1  0
 27 28  1  0
 27 29  1  0
 27 30  1  0
  6 31  1  0
 31 32  1  0
 31 33  1  0
 33 34  1  0
 33 35  1  0
  9  4  1  0
 14 10  1  0
 22 17  1  0
 26 21  1  0
M  END
$$$$
