
     RDKit          3D

 35 38  0  0  0  0  0  0  0  0999 V2000
   -4.4707    7.0726   14.1938 C   0  0  0  0  0  0  0  0  0  0  0  0
   -4.1870    5.6315   14.5211 C   0  0  0  0  0  0  0  0  0  0  0  0
   -2.8425    5.3108   14.9711 C   0  0  0  0  0  0  0  0  0  0  0  0
   -1.6532    5.3304   14.1305 C   0  0  0  0  0  0  0  0  0  0  0  0
   -0.3108    5.5397   14.7843 C   0  0  0  0  0  0  0  0  0  0  0  0
    0.8328    5.6877   13.8636 C   0  0  0  0  0  0  0  0  0  0  0  0
    0.3412    6.0593   12.5056 C   0  0  0  0  0  0  0  0  0  0  0  0
   -0.6413    5.1326   11.8709 C   0  0  0  0  0  0  0  0  0  0  0  0
   -1.6185    4.5222   12.8708 C   0  0  0  0  0  0  0  0  0  0  0  0
   -1.3634    3.1125   12.9864 N   0  0  0  0  0  0  0  0  0  0  0  0
   -1.0921    2.3827   14.1817 C   0  0  0  0  0  0  0  0  0  0  0  0
   -0.9315    0.9227   13.8545 C   0  0  0  0  0  0  0  0  0  0  0  0
   -0.8551    0.8344   12.3745 C   0  0  0  0  0  0  0  0  0  0  0  0
   -1.2859    2.1433   11.9090 C   0  0  0  0  0  0  0  0  0  0  0  0
   -1.5732    2.4629   10.7221 O   0  0  0  0  0  0  0  0  0  0  0  0
   -1.6122   -0.2689   11.8106 N   0  0  0  0  0  0  0  0  0  0  0  0
   -1.2386   -0.7555   10.5322 C   0  0  0  0  0  0  0  0  0  0  0  0
   -0.2677   -0.1610    9.8044 N   0  0  0  0  0  0  0  0  0  0  0  0
    0.1163   -0.5844    8.5964 C   0  0  0  0  0  0  0  0  0  0  0  0
   -0.4619   -1.6556    8.0278 N   0  0  0  0  0  0  0  0  0  0  0  0
   -1.4445   -2.2928    8.7146 C   0  0  0  0  0  0  0  0  0  0  0  0
   -1.8397   -1.8552    9.9603 C   0  0  0  0  0  0  0  0  0  0  0  0
   -2.8399   -2.5392   10.6085 C   0  0  0  0  0  0  0  0  0  0  0  0
   -3.4245   -3.6498    9.9932 C   0  0  0  0  0  0  0  0  0  0  0  0
   -3.0035   -4.0598    8.7449 C   0  0  0  0  0  0  0  0  0  0  0  0
   -2.0016   -3.3879    8.0773 C   0  0  0  0  0  0  0  0  0  0  0  0
   -4.5157   -4.4212   10.6627 C   0  0  0  0  0  0  0  0  0  0  0  0
   -4.6410   -3.9790   11.9487 F   0  0  0  0  0  0  0  0  0  0  0  0
   -4.2804   -5.7751   10.6298 F   0  0  0  0  0  0  0  0  0  0  0  0
   -5.6639   -4.1980    9.9143 F   0  0  0  0  0  0  0  0  0  0  0  0
    1.7196    6.7572   14.2880 N   0  0  0  0  0  0  0  0  0  0  0  0
    3.1119    6.3713   14.1641 C   0  0  0  0  0  0  0  0  0  0  0  0
    1.4085    7.2547   15.6012 C   0  0  0  0  0  0  0  0  0  0  0  0
    2.2472    6.6380   16.6825 C   0  0  0  0  0  0  0  0  0  0  0  0
    1.7599    8.7494   15.5818 C   0  0  0  0  0  0  0  0  0  0  0  0
  1  2  1  0
  2  3  1  0
  3  4  1  0
  4  5  1  0
  5  6  1  0
  6  7  1  0
  7  8  1  0
  8  9  1  0
  9 10  1  0
 10 11  1  0
 11 12  1  0
 12 13  1  0
 13 14  1  0
 14 15  2  0
 13 16  1  0
 16 17  1  0
 17 18  2  0
 18 19  1  0
 19 20  2  0
 20 21  1  0
 21 22  2  0
 22 23  1  0
 23 24  2  0
 24 25  1  0
 25 26  2  0
 24 27  1  0
 27 28  1  0
 27 29  1  0
 27 30  1  0
  6 31  1  0
 31 32  1  0
 31 33  1  0
 33 34  1  0
 33 35  1  0
  9  4  1  0
 14 10  1  0
 22 17  1  0
 26 21  1  0
M  END
$$$$
