
     RDKit          3D

 35 38  0  0  0  0  0  0  0  0999 V2000
    6.5781    7.1216   13.6433 C   0  0  0  0  0  0  0  0  0  0  0  0
    5.4177    8.0735   13.5349 C   0  0  0  0  0  0  0  0  0  0  0  0
    4.4571    8.0676   14.6259 C   0  0  0  0  0  0  0  0  0  0  0  0
    3.9957    6.8769   15.3262 C   0  0  0  0  0  0  0  0  0  0  0  0
    3.1439    7.0490   16.5585 C   0  0  0  0  0  0  0  0  0  0  0  0
    2.8286    5.8105   17.2960 C   0  0  0  0  0  0  0  0  0  0  0  0
    3.7991    4.7414   16.9232 C   0  0  0  0  0  0  0  0  0  0  0  0
    3.8966    4.3995   15.4738 C   0  0  0  0  0  0  0  0  0  0  0  0
    3.7462    5.6136   14.5625 C   0  0  0  0  0  0  0  0  0  0  0  0
    2.5161    5.5077   13.8268 N   0  0  0  0  0  0  0  0  0  0  0  0
    1.9221    6.5038   12.9962 C   0  0  0  0  0  0  0  0  0  0  0  0
    0.6619    5.9593   12.3799 C   0  0  0  0  0  0  0  0  0  0  0  0
    0.3757    4.6814   13.0794 C   0  0  0  0  0  0  0  0  0  0  0  0
    1.5989    4.3832   13.8077 C   0  0  0  0  0  0  0  0  0  0  0  0
    1.8888    3.2951   14.3782 O   0  0  0  0  0  0  0  0  0  0  0  0
   -0.0597    3.6126   12.1983 N   0  0  0  0  0  0  0  0  0  0  0  0
   -1.3754    3.1074   12.3549 C   0  0  0  0  0  0  0  0  0  0  0  0
   -2.2319    3.6313   13.2590 N   0  0  0  0  0  0  0  0  0  0  0  0
   -3.4792    3.1872   13.4409 C   0  0  0  0  0  0  0  0  0  0  0  0
   -3.9585    2.1660   12.7111 N   0  0  0  0  0  0  0  0  0  0  0  0
   -3.1406    1.6007   11.7866 C   0  0  0  0  0  0  0  0  0  0  0  0
   -1.8545    2.0594   11.5999 C   0  0  0  0  0  0  0  0  0  0  0  0
   -1.0719    1.4480   10.6501 C   0  0  0  0  0  0  0  0  0  0  0  0
   -1.5958    0.3873    9.9057 C   0  0  0  0  0  0  0  0  0  0  0  0
   -2.8882   -0.0457   10.1195 C   0  0  0  0  0  0  0  0  0  0  0  0
   -3.6903    0.5537   11.0673 C   0  0  0  0  0  0  0  0  0  0  0  0
   -0.7785   -0.3059    8.8638 C   0  0  0  0  0  0  0  0  0  0  0  0
   -1.4192   -1.4542    8.4951 F   0  0  0  0  0  0  0  0  0  0  0  0
    0.4947   -0.5747    9.3067 F   0  0  0  0  0  0  0  0  0  0  0  0
   -0.6532    0.5895    7.8099 F   0  0  0  0  0  0  0  0  0  0  0  0
    2.9562    6.0011   18.7305 N   0  0  0  0  0  0  0  0  0  0  0  0
    2.4782    4.8444   19.4630 C   0  0  0  0  0  0  0  0  0  0  0  0
    2.3511    7.2227   19.1891 C   0  0  0  0  0  0  0  0  0  0  0  0
    3.3519    8.2874   19.5319 C   0  0  0  0  0  0  0  0  0  0  0  0
    1.5356    7.7619   18.0050 C   0  0  0  0  0  0  0  0  0  0  0  0
  1  2  1  0
  2  3  1  0
  3  4  1  0
  4  5  1  0
  5  6  1  0
  6  7  1  0
  7  8  1  0
  8  9  1  0
  9 10  1  0
 10 11  1  0
 11 12  1  0
 12 13  1  0
 13 14  1  0
 14 15  2  0
 13 16  1  0
 16 17  1  0
 17 18  2  0
 18 19  1  0
 19 20  2  0
 20 21  1  0
 21 22  2  0
 22 23  1  0
 23 24  2  0
 24 25  1  0
 25 26  2  0
 24 27  1  0
 27 28  1  0
 27 29  1  0
 27 30  1  0
  6 31  1  0
 31 32  1  0
 31 33  1  0
 33 34  1  0
 33 35  1  0
  9  4  1  0
 14 10  1  0
 22 17  1  0
 26 21  1  0
M  END
$$$$
