
     RDKit          3D

 35 38  0  0  0  0  0  0  0  0999 V2000
    0.2321    0.2851   16.7987 C   0  0  0  0  0  0  0  0  0  0  0  0
    0.8776    0.8661   15.5698 C   0  0  0  0  0  0  0  0  0  0  0  0
    1.4038    2.2169   15.6786 C   0  0  0  0  0  0  0  0  0  0  0  0
    0.6666    3.4294   15.3503 C   0  0  0  0  0  0  0  0  0  0  0  0
    1.4386    4.7057   15.1296 C   0  0  0  0  0  0  0  0  0  0  0  0
    0.6238    5.9210   14.9390 C   0  0  0  0  0  0  0  0  0  0  0  0
   -0.7522    5.6927   15.4666 C   0  0  0  0  0  0  0  0  0  0  0  0
   -1.5076    4.5400   14.8942 C   0  0  0  0  0  0  0  0  0  0  0  0
   -0.6210    3.3358   14.5924 C   0  0  0  0  0  0  0  0  0  0  0  0
   -0.5483    3.1422   13.1701 N   0  0  0  0  0  0  0  0  0  0  0  0
    0.5247    3.5111   12.3055 C   0  0  0  0  0  0  0  0  0  0  0  0
    0.2076    3.0822   10.8984 C   0  0  0  0  0  0  0  0  0  0  0  0
   -1.2196    2.6732   10.9003 C   0  0  0  0  0  0  0  0  0  0  0  0
   -1.5670    2.5706   12.3090 C   0  0  0  0  0  0  0  0  0  0  0  0
   -2.6149    2.0569   12.7901 O   0  0  0  0  0  0  0  0  0  0  0  0
   -1.4871    1.4660   10.1391 N   0  0  0  0  0  0  0  0  0  0  0  0
   -2.6258    0.6940   10.4829 C   0  0  0  0  0  0  0  0  0  0  0  0
   -3.5245    1.1254   11.3949 N   0  0  0  0  0  0  0  0  0  0  0  0
   -4.6104    0.4319   11.7496 C   0  0  0  0  0  0  0  0  0  0  0  0
   -4.8706   -0.7661   11.1999 N   0  0  0  0  0  0  0  0  0  0  0  0
   -4.0005   -1.2494   10.2766 C   0  0  0  0  0  0  0  0  0  0  0  0
   -2.8810   -0.5333    9.9116 C   0  0  0  0  0  0  0  0  0  0  0  0
   -2.0352   -1.0727    8.9723 C   0  0  0  0  0  0  0  0  0  0  0  0
   -2.3299   -2.3213    8.4174 C   0  0  0  0  0  0  0  0  0  0  0  0
   -3.4601   -3.0102    8.8066 C   0  0  0  0  0  0  0  0  0  0  0  0
   -4.3218   -2.4873    9.7472 C   0  0  0  0  0  0  0  0  0  0  0  0
   -1.4364   -2.9443    7.3938 C   0  0  0  0  0  0  0  0  0  0  0  0
   -0.2859   -2.2132    7.3117 F   0  0  0  0  0  0  0  0  0  0  0  0
   -2.0489   -3.0352    6.1666 F   0  0  0  0  0  0  0  0  0  0  0  0
   -1.2051   -4.2451    7.8211 F   0  0  0  0  0  0  0  0  0  0  0  0
    1.1682    7.0454   15.6802 N   0  0  0  0  0  0  0  0  0  0  0  0
    1.4718    6.6795   17.0502 C   0  0  0  0  0  0  0  0  0  0  0  0
    0.3423    8.2204   15.6020 C   0  0  0  0  0  0  0  0  0  0  0  0
    0.7360    9.2877   16.5812 C   0  0  0  0  0  0  0  0  0  0  0  0
    0.5761    8.8100   14.2036 C   0  0  0  0  0  0  0  0  0  0  0  0
  1  2  1  0
  2  3  1  0
  3  4  1  0
  4  5  1  0
  5  6  1  0
  6  7  1  0
  7  8  1  0
  8  9  1  0
  9 10  1  0
 10 11  1  0
 11 12  1  0
 12 13  1  0
 13 14  1  0
 14 15  2  0
 13 16  1  0
 16 17  1  0
 17 18  2  0
 18 19  1  0
 19 20  2  0
 20 21  1  0
 21 22  2  0
 22 23  1  0
 23 24  2  0
 24 25  1  0
 25 26  2  0
 24 27  1  0
 27 28  1  0
 27 29  1  0
 27 30  1  0
  6 31  1  0
 31 32  1  0
 31 33  1  0
 33 34  1  0
 33 35  1  0
  9  4  1  0
 14 10  1  0
 22 17  1  0
 26 21  1  0
M  END
$$$$
