
     RDKit          3D

 35 38  0  0  0  0  0  0  0  0999 V2000
   -4.5046    7.1390   13.1251 C   0  0  0  0  0  0  0  0  0  0  0  0
   -4.5904    5.7906   13.7874 C   0  0  0  0  0  0  0  0  0  0  0  0
   -3.5097    5.4306   14.6905 C   0  0  0  0  0  0  0  0  0  0  0  0
   -2.1056    5.3327   14.3159 C   0  0  0  0  0  0  0  0  0  0  0  0
   -1.0613    5.4316   15.3990 C   0  0  0  0  0  0  0  0  0  0  0  0
    0.3393    5.4646   14.9358 C   0  0  0  0  0  0  0  0  0  0  0  0
    0.3852    5.8588   13.4982 C   0  0  0  0  0  0  0  0  0  0  0  0
   -0.3930    5.0137   12.5457 C   0  0  0  0  0  0  0  0  0  0  0  0
   -1.7064    4.5067   13.1329 C   0  0  0  0  0  0  0  0  0  0  0  0
   -1.6326    3.0817   13.3054 N   0  0  0  0  0  0  0  0  0  0  0  0
   -1.8143    2.3514   14.5172 C   0  0  0  0  0  0  0  0  0  0  0  0
   -1.6974    0.8772   14.2389 C   0  0  0  0  0  0  0  0  0  0  0  0
   -1.1749    0.7558   12.8545 C   0  0  0  0  0  0  0  0  0  0  0  0
   -1.3161    2.0905   12.2938 C   0  0  0  0  0  0  0  0  0  0  0  0
   -1.1904    2.4140   11.0802 O   0  0  0  0  0  0  0  0  0  0  0  0
   -1.8197   -0.2827   12.0708 N   0  0  0  0  0  0  0  0  0  0  0  0
   -1.3725   -0.4963   10.7422 C   0  0  0  0  0  0  0  0  0  0  0  0
   -0.4731    0.3250   10.1572 N   0  0  0  0  0  0  0  0  0  0  0  0
   -0.0244    0.1623    8.9089 C   0  0  0  0  0  0  0  0  0  0  0  0
   -0.4588   -0.8577    8.1499 N   0  0  0  0  0  0  0  0  0  0  0  0
   -1.3640   -1.7151    8.6870 C   0  0  0  0  0  0  0  0  0  0  0  0
   -1.8261   -1.5464    9.9744 C   0  0  0  0  0  0  0  0  0  0  0  0
   -2.7426   -2.4452   10.4650 C   0  0  0  0  0  0  0  0  0  0  0  0
   -3.1778   -3.4965    9.6532 C   0  0  0  0  0  0  0  0  0  0  0  0
   -2.6935   -3.6347    8.3687 C   0  0  0  0  0  0  0  0  0  0  0  0
   -1.7736   -2.7442    7.8570 C   0  0  0  0  0  0  0  0  0  0  0  0
   -4.1741   -4.4953   10.1471 C   0  0  0  0  0  0  0  0  0  0  0  0
   -5.1311   -4.6718    9.1890 F   0  0  0  0  0  0  0  0  0  0  0  0
   -4.7385   -4.1090   11.3394 F   0  0  0  0  0  0  0  0  0  0  0  0
   -3.4622   -5.6599   10.4019 F   0  0  0  0  0  0  0  0  0  0  0  0
    1.1138    6.4573   15.6603 N   0  0  0  0  0  0  0  0  0  0  0  0
    1.2865    6.0827   17.0506 C   0  0  0  0  0  0  0  0  0  0  0  0
    0.5903    7.7893   15.5176 C   0  0  0  0  0  0  0  0  0  0  0  0
   -0.0927    8.2934   16.7555 C   0  0  0  0  0  0  0  0  0  0  0  0
    1.8060    8.7003   15.2940 C   0  0  0  0  0  0  0  0  0  0  0  0
  1  2  1  0
  2  3  1  0
  3  4  1  0
  4  5  1  0
  5  6  1  0
  6  7  1  0
  7  8  1  0
  8  9  1  0
  9 10  1  0
 10 11  1  0
 11 12  1  0
 12 13  1  0
 13 14  1  0
 14 15  2  0
 13 16  1  0
 16 17  1  0
 17 18  2  0
 18 19  1  0
 19 20  2  0
 20 21  1  0
 21 22  2  0
 22 23  1  0
 23 24  2  0
 24 25  1  0
 25 26  2  0
 24 27  1  0
 27 28  1  0
 27 29  1  0
 27 30  1  0
  6 31  1  0
 31 32  1  0
 31 33  1  0
 33 34  1  0
 33 35  1  0
  9  4  1  0
 14 10  1  0
 22 17  1  0
 26 21  1  0
M  END
$$$$
