
     RDKit          3D

 35 38  0  0  0  0  0  0  0  0999 V2000
    8.7947    7.7462   15.0376 C   0  0  0  0  0  0  0  0  0  0  0  0
    8.6730    6.3683   15.6300 C   0  0  0  0  0  0  0  0  0  0  0  0
    7.4161    5.6693   15.4186 C   0  0  0  0  0  0  0  0  0  0  0  0
    6.2689    5.7239   16.3143 C   0  0  0  0  0  0  0  0  0  0  0  0
    6.0452    6.9754   17.1249 C   0  0  0  0  0  0  0  0  0  0  0  0
    4.9497    6.9112   18.1114 C   0  0  0  0  0  0  0  0  0  0  0  0
    4.6201    5.4869   18.4059 C   0  0  0  0  0  0  0  0  0  0  0  0
    4.2409    4.6317   17.2433 C   0  0  0  0  0  0  0  0  0  0  0  0
    5.0240    4.9639   15.9770 C   0  0  0  0  0  0  0  0  0  0  0  0
    4.1346    5.5342   15.0025 N   0  0  0  0  0  0  0  0  0  0  0  0
    4.4963    6.2227   13.8067 C   0  0  0  0  0  0  0  0  0  0  0  0
    3.2527    6.6123   13.0544 C   0  0  0  0  0  0  0  0  0  0  0  0
    2.1149    6.3636   13.9752 C   0  0  0  0  0  0  0  0  0  0  0  0
    2.6846    5.5675   15.0510 C   0  0  0  0  0  0  0  0  0  0  0  0
    2.0476    4.9536   15.9514 O   0  0  0  0  0  0  0  0  0  0  0  0
    0.9636    5.7513   13.3364 N   0  0  0  0  0  0  0  0  0  0  0  0
   -0.1359    5.3777   14.1503 C   0  0  0  0  0  0  0  0  0  0  0  0
   -0.0210    5.2767   15.4927 N   0  0  0  0  0  0  0  0  0  0  0  0
   -1.0290    4.9280   16.2978 C   0  0  0  0  0  0  0  0  0  0  0  0
   -2.2447    4.6519   15.7969 N   0  0  0  0  0  0  0  0  0  0  0  0
   -2.4179    4.7375   14.4531 C   0  0  0  0  0  0  0  0  0  0  0  0
   -1.3776    5.0971   13.6237 C   0  0  0  0  0  0  0  0  0  0  0  0
   -1.6113    5.1666   12.2713 C   0  0  0  0  0  0  0  0  0  0  0  0
   -2.8856    4.8734   11.7774 C   0  0  0  0  0  0  0  0  0  0  0  0
   -3.9038    4.5167   12.6373 C   0  0  0  0  0  0  0  0  0  0  0  0
   -3.6908    4.4410   13.9974 C   0  0  0  0  0  0  0  0  0  0  0  0
   -3.1822    4.9358   10.3137 C   0  0  0  0  0  0  0  0  0  0  0  0
   -3.5863    6.2022   10.0010 F   0  0  0  0  0  0  0  0  0  0  0  0
   -4.1307    4.0123    9.9436 F   0  0  0  0  0  0  0  0  0  0  0  0
   -2.0069    4.5821    9.6644 F   0  0  0  0  0  0  0  0  0  0  0  0
    5.3381    7.5142   19.3745 N   0  0  0  0  0  0  0  0  0  0  0  0
    4.4024    7.1801   20.4308 C   0  0  0  0  0  0  0  0  0  0  0  0
    5.5600    8.9317   19.2736 C   0  0  0  0  0  0  0  0  0  0  0  0
    4.3131    9.7058   18.9593 C   0  0  0  0  0  0  0  0  0  0  0  0
    6.0127    9.3897   20.6677 C   0  0  0  0  0  0  0  0  0  0  0  0
  1  2  1  0
  2  3  1  0
  3  4  1  0
  4  5  1  0
  5  6  1  0
  6  7  1  0
  7  8  1  0
  8  9  1  0
  9 10  1  0
 10 11  1  0
 11 12  1  0
 12 13  1  0
 13 14  1  0
 14 15  2  0
 13 16  1  0
 16 17  1  0
 17 18  2  0
 18 19  1  0
 19 20  2  0
 20 21  1  0
 21 22  2  0
 22 23  1  0
 23 24  2  0
 24 25  1  0
 25 26  2  0
 24 27  1  0
 27 28  1  0
 27 29  1  0
 27 30  1  0
  6 31  1  0
 31 32  1  0
 31 33  1  0
 33 34  1  0
 33 35  1  0
  9  4  1  0
 14 10  1  0
 22 17  1  0
 26 21  1  0
M  END
$$$$
