
     RDKit          3D

 35 38  0  0  0  0  0  0  0  0999 V2000
    7.2096    7.1136   11.8175 C   0  0  0  0  0  0  0  0  0  0  0  0
    6.7293    5.6885   11.7669 C   0  0  0  0  0  0  0  0  0  0  0  0
    5.8856    5.2387   12.8619 C   0  0  0  0  0  0  0  0  0  0  0  0
    5.9295    5.7630   14.2200 C   0  0  0  0  0  0  0  0  0  0  0  0
    6.7926    6.9669   14.5012 C   0  0  0  0  0  0  0  0  0  0  0  0
    6.9001    7.3595   15.9195 C   0  0  0  0  0  0  0  0  0  0  0  0
    6.5133    6.2123   16.7903 C   0  0  0  0  0  0  0  0  0  0  0  0
    5.1536    5.6359   16.5760 C   0  0  0  0  0  0  0  0  0  0  0  0
    4.7331    5.6271   15.1096 C   0  0  0  0  0  0  0  0  0  0  0  0
    3.6487    6.5511   14.9194 N   0  0  0  0  0  0  0  0  0  0  0  0
    3.5998    7.6428   14.0025 C   0  0  0  0  0  0  0  0  0  0  0  0
    2.2603    8.3217   14.0992 C   0  0  0  0  0  0  0  0  0  0  0  0
    1.5950    7.7589   15.3012 C   0  0  0  0  0  0  0  0  0  0  0  0
    2.3946    6.5946   15.6483 C   0  0  0  0  0  0  0  0  0  0  0  0
    2.0902    5.6926   16.4772 O   0  0  0  0  0  0  0  0  0  0  0  0
    0.1848    7.4689   15.1121 N   0  0  0  0  0  0  0  0  0  0  0  0
   -0.1977    6.1249   14.8712 C   0  0  0  0  0  0  0  0  0  0  0  0
    0.6934    5.1116   14.9419 N   0  0  0  0  0  0  0  0  0  0  0  0
    0.3778    3.8317   14.7225 C   0  0  0  0  0  0  0  0  0  0  0  0
   -0.8803    3.4776   14.4111 N   0  0  0  0  0  0  0  0  0  0  0  0
   -1.8181    4.4556   14.3261 C   0  0  0  0  0  0  0  0  0  0  0  0
   -1.4916    5.7753   14.5525 C   0  0  0  0  0  0  0  0  0  0  0  0
   -2.4823    6.7223   14.4519 C   0  0  0  0  0  0  0  0  0  0  0  0
   -3.7824    6.3259   14.1256 C   0  0  0  0  0  0  0  0  0  0  0  0
   -4.0732    4.9954   13.9057 C   0  0  0  0  0  0  0  0  0  0  0  0
   -3.0943    4.0292   14.0015 C   0  0  0  0  0  0  0  0  0  0  0  0
   -4.8890    7.3235   14.0050 C   0  0  0  0  0  0  0  0  0  0  0  0
   -4.9112    7.8024   12.7263 F   0  0  0  0  0  0  0  0  0  0  0  0
   -4.7554    8.3486   14.9109 F   0  0  0  0  0  0  0  0  0  0  0  0
   -6.0568    6.6490   14.3357 F   0  0  0  0  0  0  0  0  0  0  0  0
    8.2669    7.7023   16.2723 N   0  0  0  0  0  0  0  0  0  0  0  0
    8.9340    8.4001   15.1902 C   0  0  0  0  0  0  0  0  0  0  0  0
    9.0249    6.5727   16.7392 C   0  0  0  0  0  0  0  0  0  0  0  0
    9.7459    5.8478   15.6402 C   0  0  0  0  0  0  0  0  0  0  0  0
   10.1097    7.1437   17.6639 C   0  0  0  0  0  0  0  0  0  0  0  0
  1  2  1  0
  2  3  1  0
  3  4  1  0
  4  5  1  0
  5  6  1  0
  6  7  1  0
  7  8  1  0
  8  9  1  0
  9 10  1  0
 10 11  1  0
 11 12  1  0
 12 13  1  0
 13 14  1  0
 14 15  2  0
 13 16  1  0
 16 17  1  0
 17 18  2  0
 18 19  1  0
 19 20  2  0
 20 21  1  0
 21 22  2  0
 22 23  1  0
 23 24  2  0
 24 25  1  0
 25 26  2  0
 24 27  1  0
 27 28  1  0
 27 29  1  0
 27 30  1  0
  6 31  1  0
 31 32  1  0
 31 33  1  0
 33 34  1  0
 33 35  1  0
  9  4  1  0
 14 10  1  0
 22 17  1  0
 26 21  1  0
M  END
$$$$
