
     RDKit          3D

 35 38  0  0  0  0  0  0  0  0999 V2000
    6.7478    6.3490   18.9252 C   0  0  0  0  0  0  0  0  0  0  0  0
    5.8681    5.6074   17.9554 C   0  0  0  0  0  0  0  0  0  0  0  0
    6.3826    5.4223   16.6085 C   0  0  0  0  0  0  0  0  0  0  0  0
    6.7840    6.4980   15.7124 C   0  0  0  0  0  0  0  0  0  0  0  0
    7.7156    6.1768   14.5712 C   0  0  0  0  0  0  0  0  0  0  0  0
    8.1911    7.3339   13.7886 C   0  0  0  0  0  0  0  0  0  0  0  0
    8.0162    8.5845   14.5820 C   0  0  0  0  0  0  0  0  0  0  0  0
    6.6351    8.8894   15.0581 C   0  0  0  0  0  0  0  0  0  0  0  0
    5.8529    7.6426   15.4591 C   0  0  0  0  0  0  0  0  0  0  0  0
    4.7757    7.4366   14.5301 N   0  0  0  0  0  0  0  0  0  0  0  0
    4.7968    6.6299   13.3538 C   0  0  0  0  0  0  0  0  0  0  0  0
    3.4422    6.6589   12.6992 C   0  0  0  0  0  0  0  0  0  0  0  0
    2.6729    7.7287   13.3832 C   0  0  0  0  0  0  0  0  0  0  0  0
    3.4558    8.0385   14.5693 C   0  0  0  0  0  0  0  0  0  0  0  0
    3.0882    8.7416   15.5511 O   0  0  0  0  0  0  0  0  0  0  0  0
    1.2935    7.3736   13.6651 N   0  0  0  0  0  0  0  0  0  0  0  0
    1.0457    6.2898   14.5453 C   0  0  0  0  0  0  0  0  0  0  0  0
    2.0551    5.5991   15.1195 N   0  0  0  0  0  0  0  0  0  0  0  0
    1.8685    4.5719   15.9537 C   0  0  0  0  0  0  0  0  0  0  0  0
    0.6294    4.1621   16.2730 N   0  0  0  0  0  0  0  0  0  0  0  0
   -0.4237    4.8204   15.7247 C   0  0  0  0  0  0  0  0  0  0  0  0
   -0.2301    5.8796   14.8644 C   0  0  0  0  0  0  0  0  0  0  0  0
   -1.3338    6.5077   14.3392 C   0  0  0  0  0  0  0  0  0  0  0  0
   -2.6112    6.0600   14.6879 C   0  0  0  0  0  0  0  0  0  0  0  0
   -2.7674    4.9963   15.5525 C   0  0  0  0  0  0  0  0  0  0  0  0
   -1.6737    4.3520   16.0907 C   0  0  0  0  0  0  0  0  0  0  0  0
   -3.8379    6.7141   14.1388 C   0  0  0  0  0  0  0  0  0  0  0  0
   -4.1804    6.0948   12.9708 F   0  0  0  0  0  0  0  0  0  0  0  0
   -3.6559    8.0626   13.9443 F   0  0  0  0  0  0  0  0  0  0  0  0
   -4.8180    6.5806   15.1133 F   0  0  0  0  0  0  0  0  0  0  0  0
    9.6095    7.2275   13.4942 N   0  0  0  0  0  0  0  0  0  0  0  0
   10.3967    7.1318   14.7083 C   0  0  0  0  0  0  0  0  0  0  0  0
   10.0803    8.2700   12.6223 C   0  0  0  0  0  0  0  0  0  0  0  0
   11.4890    8.0566   12.1502 C   0  0  0  0  0  0  0  0  0  0  0  0
    9.1918    8.2091   11.3713 C   0  0  0  0  0  0  0  0  0  0  0  0
  1  2  1  0
  2  3  1  0
  3  4  1  0
  4  5  1  0
  5  6  1  0
  6  7  1  0
  7  8  1  0
  8  9  1  0
  9 10  1  0
 10 11  1  0
 11 12  1  0
 12 13  1  0
 13 14  1  0
 14 15  2  0
 13 16  1  0
 16 17  1  0
 17 18  2  0
 18 19  1  0
 19 20  2  0
 20 21  1  0
 21 22  2  0
 22 23  1  0
 23 24  2  0
 24 25  1  0
 25 26  2  0
 24 27  1  0
 27 28  1  0
 27 29  1  0
 27 30  1  0
  6 31  1  0
 31 32  1  0
 31 33  1  0
 33 34  1  0
 33 35  1  0
  9  4  1  0
 14 10  1  0
 22 17  1  0
 26 21  1  0
M  END
$$$$
