
     RDKit          3D

 35 38  0  0  0  0  0  0  0  0999 V2000
    0.6520    7.4167   18.1252 C   0  0  0  0  0  0  0  0  0  0  0  0
    1.2738    6.1530   17.5954 C   0  0  0  0  0  0  0  0  0  0  0  0
    0.5122    5.4091   16.6056 C   0  0  0  0  0  0  0  0  0  0  0  0
    0.5587    5.6414   15.1685 C   0  0  0  0  0  0  0  0  0  0  0  0
    1.6212    4.9424   14.3585 C   0  0  0  0  0  0  0  0  0  0  0  0
    1.6990    5.3289   12.9366 C   0  0  0  0  0  0  0  0  0  0  0  0
    1.0275    6.6452   12.7350 C   0  0  0  0  0  0  0  0  0  0  0  0
   -0.4000    6.7421   13.1590 C   0  0  0  0  0  0  0  0  0  0  0  0
   -0.7036    5.9417   14.4216 C   0  0  0  0  0  0  0  0  0  0  0  0
   -1.5647    4.8393   14.0915 N   0  0  0  0  0  0  0  0  0  0  0  0
   -2.8625    4.9078   13.5034 C   0  0  0  0  0  0  0  0  0  0  0  0
   -3.3908    3.5157   13.2859 C   0  0  0  0  0  0  0  0  0  0  0  0
   -2.4694    2.6039   14.0097 C   0  0  0  0  0  0  0  0  0  0  0  0
   -1.3142    3.4292   14.3256 C   0  0  0  0  0  0  0  0  0  0  0  0
   -0.1976    3.0276   14.7560 O   0  0  0  0  0  0  0  0  0  0  0  0
   -2.1445    1.3926   13.2777 N   0  0  0  0  0  0  0  0  0  0  0  0
   -3.1598    0.7903   12.4921 C   0  0  0  0  0  0  0  0  0  0  0  0
   -4.4677    1.0599   12.6976 N   0  0  0  0  0  0  0  0  0  0  0  0
   -5.4570    0.5158   11.9826 C   0  0  0  0  0  0  0  0  0  0  0  0
   -5.1921   -0.3535   10.9930 N   0  0  0  0  0  0  0  0  0  0  0  0
   -3.8939   -0.6616   10.7421 C   0  0  0  0  0  0  0  0  0  0  0  0
   -2.8745   -0.0999   11.4801 C   0  0  0  0  0  0  0  0  0  0  0  0
   -1.5795   -0.4495   11.1816 C   0  0  0  0  0  0  0  0  0  0  0  0
   -1.3327   -1.3569   10.1474 C   0  0  0  0  0  0  0  0  0  0  0  0
   -2.3782   -1.8996    9.4292 C   0  0  0  0  0  0  0  0  0  0  0  0
   -3.6848   -1.5624    9.7122 C   0  0  0  0  0  0  0  0  0  0  0  0
    0.0603   -1.7649    9.7908 C   0  0  0  0  0  0  0  0  0  0  0  0
    0.9179   -0.7680   10.1593 F   0  0  0  0  0  0  0  0  0  0  0  0
    0.1838   -2.0486    8.4515 F   0  0  0  0  0  0  0  0  0  0  0  0
    0.3043   -2.9493   10.4733 F   0  0  0  0  0  0  0  0  0  0  0  0
    3.0766    5.4990   12.5084 N   0  0  0  0  0  0  0  0  0  0  0  0
    3.7725    6.4661   13.3350 C   0  0  0  0  0  0  0  0  0  0  0  0
    3.1945    5.7979   11.1065 C   0  0  0  0  0  0  0  0  0  0  0  0
    4.1175    6.9465   10.8210 C   0  0  0  0  0  0  0  0  0  0  0  0
    3.8340    4.5596   10.4618 C   0  0  0  0  0  0  0  0  0  0  0  0
  1  2  1  0
  2  3  1  0
  3  4  1  0
  4  5  1  0
  5  6  1  0
  6  7  1  0
  7  8  1  0
  8  9  1  0
  9 10  1  0
 10 11  1  0
 11 12  1  0
 12 13  1  0
 13 14  1  0
 14 15  2  0
 13 16  1  0
 16 17  1  0
 17 18  2  0
 18 19  1  0
 19 20  2  0
 20 21  1  0
 21 22  2  0
 22 23  1  0
 23 24  2  0
 24 25  1  0
 25 26  2  0
 24 27  1  0
 27 28  1  0
 27 29  1  0
 27 30  1  0
  6 31  1  0
 31 32  1  0
 31 33  1  0
 33 34  1  0
 33 35  1  0
  9  4  1  0
 14 10  1  0
 22 17  1  0
 26 21  1  0
M  END
$$$$
