
     RDKit          3D

 35 38  0  0  0  0  0  0  0  0999 V2000
   -1.7269    2.9140   16.7059 C   0  0  0  0  0  0  0  0  0  0  0  0
   -0.2634    2.9884   16.3635 C   0  0  0  0  0  0  0  0  0  0  0  0
    0.3403    4.3105   16.3374 C   0  0  0  0  0  0  0  0  0  0  0  0
    0.4949    5.1349   15.1467 C   0  0  0  0  0  0  0  0  0  0  0  0
    1.8879    5.4578   14.6684 C   0  0  0  0  0  0  0  0  0  0  0  0
    1.9733    6.4085   13.5431 C   0  0  0  0  0  0  0  0  0  0  0  0
    0.7033    7.1834   13.4410 C   0  0  0  0  0  0  0  0  0  0  0  0
   -0.5531    6.3943   13.2800 C   0  0  0  0  0  0  0  0  0  0  0  0
   -0.5436    5.0889   14.0693 C   0  0  0  0  0  0  0  0  0  0  0  0
   -0.5119    3.9798   13.1557 N   0  0  0  0  0  0  0  0  0  0  0  0
    0.6444    3.3178   12.6462 C   0  0  0  0  0  0  0  0  0  0  0  0
    0.2221    2.1802   11.7565 C   0  0  0  0  0  0  0  0  0  0  0  0
   -1.2371    2.3438   11.5371 C   0  0  0  0  0  0  0  0  0  0  0  0
   -1.6459    3.3284   12.5266 C   0  0  0  0  0  0  0  0  0  0  0  0
   -2.8299    3.6273   12.8462 O   0  0  0  0  0  0  0  0  0  0  0  0
   -1.9851    1.1007   11.6004 N   0  0  0  0  0  0  0  0  0  0  0  0
   -1.7321    0.1141   10.6138 C   0  0  0  0  0  0  0  0  0  0  0  0
   -0.6878    0.2156    9.7625 N   0  0  0  0  0  0  0  0  0  0  0  0
   -0.4119   -0.6890    8.8182 C   0  0  0  0  0  0  0  0  0  0  0  0
   -1.1832   -1.7781    8.6636 N   0  0  0  0  0  0  0  0  0  0  0  0
   -2.2475   -1.9318    9.4923 C   0  0  0  0  0  0  0  0  0  0  0  0
   -2.5311   -0.9983   10.4657 C   0  0  0  0  0  0  0  0  0  0  0  0
   -3.6220   -1.2061   11.2752 C   0  0  0  0  0  0  0  0  0  0  0  0
   -4.4075   -2.3476   11.0917 C   0  0  0  0  0  0  0  0  0  0  0  0
   -4.0937   -3.2613   10.1068 C   0  0  0  0  0  0  0  0  0  0  0  0
   -3.0038   -3.0721    9.2838 C   0  0  0  0  0  0  0  0  0  0  0  0
   -5.6029   -2.6113   11.9494 C   0  0  0  0  0  0  0  0  0  0  0  0
   -5.2950   -2.2943   13.2416 F   0  0  0  0  0  0  0  0  0  0  0  0
   -6.0259   -3.9154   11.8513 F   0  0  0  0  0  0  0  0  0  0  0  0
   -6.6260   -1.8212   11.4423 F   0  0  0  0  0  0  0  0  0  0  0  0
    3.0335    7.3799   13.7496 N   0  0  0  0  0  0  0  0  0  0  0  0
    3.0357    8.3905   12.7096 C   0  0  0  0  0  0  0  0  0  0  0  0
    4.3257    6.7712   13.9184 C   0  0  0  0  0  0  0  0  0  0  0  0
    4.9557    6.3492   12.6231 C   0  0  0  0  0  0  0  0  0  0  0  0
    5.2339    7.8615   14.5052 C   0  0  0  0  0  0  0  0  0  0  0  0
  1  2  1  0
  2  3  1  0
  3  4  1  0
  4  5  1  0
  5  6  1  0
  6  7  1  0
  7  8  1  0
  8  9  1  0
  9 10  1  0
 10 11  1  0
 11 12  1  0
 12 13  1  0
 13 14  1  0
 14 15  2  0
 13 16  1  0
 16 17  1  0
 17 18  2  0
 18 19  1  0
 19 20  2  0
 20 21  1  0
 21 22  2  0
 22 23  1  0
 23 24  2  0
 24 25  1  0
 25 26  2  0
 24 27  1  0
 27 28  1  0
 27 29  1  0
 27 30  1  0
  6 31  1  0
 31 32  1  0
 31 33  1  0
 33 34  1  0
 33 35  1  0
  9  4  1  0
 14 10  1  0
 22 17  1  0
 26 21  1  0
M  END
$$$$
