
     RDKit          3D

 35 38  0  0  0  0  0  0  0  0999 V2000
    3.2614    8.7838   12.9600 C   0  0  0  0  0  0  0  0  0  0  0  0
    4.0082    9.7131   13.8782 C   0  0  0  0  0  0  0  0  0  0  0  0
    4.7832    9.1020   14.9454 C   0  0  0  0  0  0  0  0  0  0  0  0
    5.5014    7.8394   14.8388 C   0  0  0  0  0  0  0  0  0  0  0  0
    6.2817    7.3500   16.0326 C   0  0  0  0  0  0  0  0  0  0  0  0
    7.0960    6.1394   15.8117 C   0  0  0  0  0  0  0  0  0  0  0  0
    7.3261    5.9469   14.3509 C   0  0  0  0  0  0  0  0  0  0  0  0
    6.1127    5.8468   13.4880 C   0  0  0  0  0  0  0  0  0  0  0  0
    4.9781    6.7584   13.9450 C   0  0  0  0  0  0  0  0  0  0  0  0
    3.8889    5.9564   14.4311 N   0  0  0  0  0  0  0  0  0  0  0  0
    3.3822    5.9108   15.7638 C   0  0  0  0  0  0  0  0  0  0  0  0
    2.2071    4.9728   15.8238 C   0  0  0  0  0  0  0  0  0  0  0  0
    2.1867    4.2489   14.5277 C   0  0  0  0  0  0  0  0  0  0  0  0
    3.1042    4.9941   13.6800 C   0  0  0  0  0  0  0  0  0  0  0  0
    3.2487    4.8660   12.4326 O   0  0  0  0  0  0  0  0  0  0  0  0
    0.8587    4.0921   13.9618 N   0  0  0  0  0  0  0  0  0  0  0  0
   -0.2534    4.5206   14.7302 C   0  0  0  0  0  0  0  0  0  0  0  0
   -0.1178    4.9061   16.0180 N   0  0  0  0  0  0  0  0  0  0  0  0
   -1.1367    5.3164   16.7792 C   0  0  0  0  0  0  0  0  0  0  0  0
   -2.3856    5.3675   16.2865 N   0  0  0  0  0  0  0  0  0  0  0  0
   -2.5808    4.9911   14.9967 C   0  0  0  0  0  0  0  0  0  0  0  0
   -1.5293    4.5682   14.2127 C   0  0  0  0  0  0  0  0  0  0  0  0
   -1.7868    4.1988   12.9144 C   0  0  0  0  0  0  0  0  0  0  0  0
   -3.0957    4.2611   12.4280 C   0  0  0  0  0  0  0  0  0  0  0  0
   -4.1242    4.6896   13.2415 C   0  0  0  0  0  0  0  0  0  0  0  0
   -3.8878    5.0648   14.5470 C   0  0  0  0  0  0  0  0  0  0  0  0
   -3.4194    3.8676   11.0228 C   0  0  0  0  0  0  0  0  0  0  0  0
   -2.7508    2.7148   10.7243 F   0  0  0  0  0  0  0  0  0  0  0  0
   -3.1066    4.8624   10.1274 F   0  0  0  0  0  0  0  0  0  0  0  0
   -4.7976    3.7055   10.9731 F   0  0  0  0  0  0  0  0  0  0  0  0
    8.4079    6.2647   16.4227 N   0  0  0  0  0  0  0  0  0  0  0  0
    8.4114    5.7527   17.7794 C   0  0  0  0  0  0  0  0  0  0  0  0
    8.9368    7.5999   16.3446 C   0  0  0  0  0  0  0  0  0  0  0  0
    9.2197    8.0441   14.9390 C   0  0  0  0  0  0  0  0  0  0  0  0
    7.8319    8.5248   16.8755 C   0  0  0  0  0  0  0  0  0  0  0  0
  1  2  1  0
  2  3  1  0
  3  4  1  0
  4  5  1  0
  5  6  1  0
  6  7  1  0
  7  8  1  0
  8  9  1  0
  9 10  1  0
 10 11  1  0
 11 12  1  0
 12 13  1  0
 13 14  1  0
 14 15  2  0
 13 16  1  0
 16 17  1  0
 17 18  2  0
 18 19  1  0
 19 20  2  0
 20 21  1  0
 21 22  2  0
 22 23  1  0
 23 24  2  0
 24 25  1  0
 25 26  2  0
 24 27  1  0
 27 28  1  0
 27 29  1  0
 27 30  1  0
  6 31  1  0
 31 32  1  0
 31 33  1  0
 33 34  1  0
 33 35  1  0
  9  4  1  0
 14 10  1  0
 22 17  1  0
 26 21  1  0
M  END
$$$$
