
     RDKit          3D

 35 38  0  0  0  0  0  0  0  0999 V2000
    8.5001    5.8318   15.1635 C   0  0  0  0  0  0  0  0  0  0  0  0
    7.3171    5.8706   14.2343 C   0  0  0  0  0  0  0  0  0  0  0  0
    6.1337    6.5721   14.7040 C   0  0  0  0  0  0  0  0  0  0  0  0
    5.7862    6.7802   16.1030 C   0  0  0  0  0  0  0  0  0  0  0  0
    5.2335    8.1204   16.5176 C   0  0  0  0  0  0  0  0  0  0  0  0
    5.0344    8.3093   17.9674 C   0  0  0  0  0  0  0  0  0  0  0  0
    5.8525    7.3164   18.7217 C   0  0  0  0  0  0  0  0  0  0  0  0
    5.6152    5.8764   18.4101 C   0  0  0  0  0  0  0  0  0  0  0  0
    5.3212    5.6253   16.9344 C   0  0  0  0  0  0  0  0  0  0  0  0
    3.9563    5.2001   16.7862 N   0  0  0  0  0  0  0  0  0  0  0  0
    2.8407    5.5959   17.5822 C   0  0  0  0  0  0  0  0  0  0  0  0
    1.5895    4.9492   17.0525 C   0  0  0  0  0  0  0  0  0  0  0  0
    2.0328    3.9354   16.0627 C   0  0  0  0  0  0  0  0  0  0  0  0
    3.4334    4.2473   15.8245 C   0  0  0  0  0  0  0  0  0  0  0  0
    4.1633    3.7785   14.9076 O   0  0  0  0  0  0  0  0  0  0  0  0
    1.2252    3.8978   14.8565 N   0  0  0  0  0  0  0  0  0  0  0  0
   -0.1756    4.0794   14.9806 C   0  0  0  0  0  0  0  0  0  0  0  0
   -0.7555    4.3167   16.1777 N   0  0  0  0  0  0  0  0  0  0  0  0
   -2.0699    4.4935   16.3415 C   0  0  0  0  0  0  0  0  0  0  0  0
   -2.9064    4.4424   15.2913 N   0  0  0  0  0  0  0  0  0  0  0  0
   -2.3781    4.2067   14.0630 C   0  0  0  0  0  0  0  0  0  0  0  0
   -1.0224    4.0245   13.8953 C   0  0  0  0  0  0  0  0  0  0  0  0
   -0.5445    3.7885   12.6287 C   0  0  0  0  0  0  0  0  0  0  0  0
   -1.4373    3.7399   11.5544 C   0  0  0  0  0  0  0  0  0  0  0  0
   -2.7887    3.9269   11.7594 C   0  0  0  0  0  0  0  0  0  0  0  0
   -3.2892    4.1649   13.0219 C   0  0  0  0  0  0  0  0  0  0  0  0
   -0.9596    3.4849   10.1612 C   0  0  0  0  0  0  0  0  0  0  0  0
    0.3345    3.0517   10.2129 F   0  0  0  0  0  0  0  0  0  0  0  0
   -1.0719    4.6023    9.3687 F   0  0  0  0  0  0  0  0  0  0  0  0
   -1.8143    2.5298    9.6268 F   0  0  0  0  0  0  0  0  0  0  0  0
    5.4814    9.6231   18.3969 N   0  0  0  0  0  0  0  0  0  0  0  0
    4.8653   10.0080   19.6519 C   0  0  0  0  0  0  0  0  0  0  0  0
    5.3203   10.6290   17.3815 C   0  0  0  0  0  0  0  0  0  0  0  0
    4.1549   11.5413   17.6308 C   0  0  0  0  0  0  0  0  0  0  0  0
    6.5784   11.5067   17.4517 C   0  0  0  0  0  0  0  0  0  0  0  0
  1  2  1  0
  2  3  1  0
  3  4  1  0
  4  5  1  0
  5  6  1  0
  6  7  1  0
  7  8  1  0
  8  9  1  0
  9 10  1  0
 10 11  1  0
 11 12  1  0
 12 13  1  0
 13 14  1  0
 14 15  2  0
 13 16  1  0
 16 17  1  0
 17 18  2  0
 18 19  1  0
 19 20  2  0
 20 21  1  0
 21 22  2  0
 22 23  1  0
 23 24  2  0
 24 25  1  0
 25 26  2  0
 24 27  1  0
 27 28  1  0
 27 29  1  0
 27 30  1  0
  6 31  1  0
 31 32  1  0
 31 33  1  0
 33 34  1  0
 33 35  1  0
  9  4  1  0
 14 10  1  0
 22 17  1  0
 26 21  1  0
M  END
$$$$
