
     RDKit          3D

 35 38  0  0  0  0  0  0  0  0999 V2000
   -3.7449    6.5853    9.1566 C   0  0  0  0  0  0  0  0  0  0  0  0
   -2.9592    5.3019    9.1556 C   0  0  0  0  0  0  0  0  0  0  0  0
   -2.4174    4.8605   10.4302 C   0  0  0  0  0  0  0  0  0  0  0  0
   -2.4203    3.4845   10.9077 C   0  0  0  0  0  0  0  0  0  0  0  0
   -1.8362    2.4124   10.0228 C   0  0  0  0  0  0  0  0  0  0  0  0
   -1.9968    1.0272   10.5053 C   0  0  0  0  0  0  0  0  0  0  0  0
   -3.0954    0.9689   11.5121 C   0  0  0  0  0  0  0  0  0  0  0  0
   -2.9609    1.8567   12.7041 C   0  0  0  0  0  0  0  0  0  0  0  0
   -2.3283    3.2055   12.3756 C   0  0  0  0  0  0  0  0  0  0  0  0
   -1.0329    3.2872   12.9929 N   0  0  0  0  0  0  0  0  0  0  0  0
    0.2183    3.4999   12.3417 C   0  0  0  0  0  0  0  0  0  0  0  0
    1.3160    3.5633   13.3690 C   0  0  0  0  0  0  0  0  0  0  0  0
    0.7129    3.1165   14.6499 C   0  0  0  0  0  0  0  0  0  0  0  0
   -0.7202    3.1282   14.4011 C   0  0  0  0  0  0  0  0  0  0  0  0
   -1.6347    3.0175   15.2640 O   0  0  0  0  0  0  0  0  0  0  0  0
    1.1169    3.9075   15.7985 N   0  0  0  0  0  0  0  0  0  0  0  0
    0.6379    5.2384   15.8991 C   0  0  0  0  0  0  0  0  0  0  0  0
   -0.4145    5.6691   15.1693 N   0  0  0  0  0  0  0  0  0  0  0  0
   -0.8990    6.9130   15.2316 C   0  0  0  0  0  0  0  0  0  0  0  0
   -0.3466    7.8257   16.0484 N   0  0  0  0  0  0  0  0  0  0  0  0
    0.7148    7.4477   16.8058 C   0  0  0  0  0  0  0  0  0  0  0  0
    1.2137    6.1647   16.7408 C   0  0  0  0  0  0  0  0  0  0  0  0
    2.2903    5.8391   17.5303 C   0  0  0  0  0  0  0  0  0  0  0  0
    2.8457    6.8085   18.3702 C   0  0  0  0  0  0  0  0  0  0  0  0
    2.3202    8.0835   18.4096 C   0  0  0  0  0  0  0  0  0  0  0  0
    1.2404    8.4311   17.6259 C   0  0  0  0  0  0  0  0  0  0  0  0
    4.0175    6.4967   19.2442 C   0  0  0  0  0  0  0  0  0  0  0  0
    3.7692    5.3322   19.9130 F   0  0  0  0  0  0  0  0  0  0  0  0
    4.2879    7.5191   20.1222 F   0  0  0  0  0  0  0  0  0  0  0  0
    5.1152    6.3958   18.3998 F   0  0  0  0  0  0  0  0  0  0  0  0
   -2.3779    0.1316    9.4270 N   0  0  0  0  0  0  0  0  0  0  0  0
   -3.0387   -1.0559    9.9334 C   0  0  0  0  0  0  0  0  0  0  0  0
   -1.2829   -0.1880    8.5509 C   0  0  0  0  0  0  0  0  0  0  0  0
   -0.9925    0.8901    7.5478 C   0  0  0  0  0  0  0  0  0  0  0  0
   -0.0399   -0.2904    9.4467 C   0  0  0  0  0  0  0  0  0  0  0  0
  1  2  1  0
  2  3  1  0
  3  4  1  0
  4  5  1  0
  5  6  1  0
  6  7  1  0
  7  8  1  0
  8  9  1  0
  9 10  1  0
 10 11  1  0
 11 12  1  0
 12 13  1  0
 13 14  1  0
 14 15  2  0
 13 16  1  0
 16 17  1  0
 17 18  2  0
 18 19  1  0
 19 20  2  0
 20 21  1  0
 21 22  2  0
 22 23  1  0
 23 24  2  0
 24 25  1  0
 25 26  2  0
 24 27  1  0
 27 28  1  0
 27 29  1  0
 27 30  1  0
  6 31  1  0
 31 32  1  0
 31 33  1  0
 33 34  1  0
 33 35  1  0
  9  4  1  0
 14 10  1  0
 22 17  1  0
 26 21  1  0
M  END
$$$$
