
     RDKit          3D

 35 38  0  0  0  0  0  0  0  0999 V2000
   -8.7649    5.4507   -0.2053 C   0  0  0  0  0  0  0  0  0  0  0  0
   -9.7264    4.8229   -1.1779 C   0  0  0  0  0  0  0  0  0  0  0  0
  -11.1413    4.9154   -0.8575 C   0  0  0  0  0  0  0  0  0  0  0  0
  -12.1760    5.3806   -1.7710 C   0  0  0  0  0  0  0  0  0  0  0  0
  -12.9107    4.3636   -2.6072 C   0  0  0  0  0  0  0  0  0  0  0  0
  -13.8448    4.9135   -3.6084 C   0  0  0  0  0  0  0  0  0  0  0  0
  -13.5072    6.3401   -3.8820 C   0  0  0  0  0  0  0  0  0  0  0  0
  -13.4957    7.2636   -2.7098 C   0  0  0  0  0  0  0  0  0  0  0  0
  -12.9659    6.6080   -1.4383 C   0  0  0  0  0  0  0  0  0  0  0  0
  -14.0360    6.4785   -0.4876 N   0  0  0  0  0  0  0  0  0  0  0  0
  -15.3374    7.0563   -0.5733 C   0  0  0  0  0  0  0  0  0  0  0  0
  -16.1577    6.6275    0.6130 C   0  0  0  0  0  0  0  0  0  0  0  0
  -15.2142    5.9786    1.5580 C   0  0  0  0  0  0  0  0  0  0  0  0
  -14.0043    5.7695    0.7783 C   0  0  0  0  0  0  0  0  0  0  0  0
  -13.0089    5.0666    1.1076 O   0  0  0  0  0  0  0  0  0  0  0  0
  -15.7342    4.7700    2.1723 N   0  0  0  0  0  0  0  0  0  0  0  0
  -15.3346    4.4656    3.4984 C   0  0  0  0  0  0  0  0  0  0  0  0
  -15.0587    5.4375    4.3954 N   0  0  0  0  0  0  0  0  0  0  0  0
  -14.6788    5.1972    5.6540 C   0  0  0  0  0  0  0  0  0  0  0  0
  -14.5483    3.9380    6.1039 N   0  0  0  0  0  0  0  0  0  0  0  0
  -14.8129    2.9206    5.2448 C   0  0  0  0  0  0  0  0  0  0  0  0
  -15.2046    3.1696    3.9472 C   0  0  0  0  0  0  0  0  0  0  0  0
  -15.4584    2.1002    3.1223 C   0  0  0  0  0  0  0  0  0  0  0  0
  -15.3139    0.8007    3.6165 C   0  0  0  0  0  0  0  0  0  0  0  0
  -14.9199    0.5887    4.9215 C   0  0  0  0  0  0  0  0  0  0  0  0
  -14.6603    1.6474    5.7658 C   0  0  0  0  0  0  0  0  0  0  0  0
  -15.5788   -0.3903    2.7530 C   0  0  0  0  0  0  0  0  0  0  0  0
  -16.8737   -0.3411    2.3220 F   0  0  0  0  0  0  0  0  0  0  0  0
  -15.3258   -1.5686    3.4140 F   0  0  0  0  0  0  0  0  0  0  0  0
  -14.6712   -0.3187    1.7044 F   0  0  0  0  0  0  0  0  0  0  0  0
  -13.7349    4.2133   -4.8763 N   0  0  0  0  0  0  0  0  0  0  0  0
  -14.5229    4.8594   -5.9081 C   0  0  0  0  0  0  0  0  0  0  0  0
  -14.0280    2.8094   -4.7681 C   0  0  0  0  0  0  0  0  0  0  0  0
  -14.0962    2.3260   -3.3487 C   0  0  0  0  0  0  0  0  0  0  0  0
  -15.4347    2.6240   -5.3553 C   0  0  0  0  0  0  0  0  0  0  0  0
  1  2  1  0
  2  3  1  0
  3  4  1  0
  4  5  1  0
  5  6  1  0
  6  7  1  0
  7  8  1  0
  8  9  1  0
  9 10  1  0
 10 11  1  0
 11 12  1  0
 12 13  1  0
 13 14  1  0
 14 15  2  0
 13 16  1  0
 16 17  1  0
 17 18  2  0
 18 19  1  0
 19 20  2  0
 20 21  1  0
 21 22  2  0
 22 23  1  0
 23 24  2  0
 24 25  1  0
 25 26  2  0
 24 27  1  0
 27 28  1  0
 27 29  1  0
 27 30  1  0
  6 31  1  0
 31 32  1  0
 31 33  1  0
 33 34  1  0
 33 35  1  0
  9  4  1  0
 14 10  1  0
 22 17  1  0
 26 21  1  0
M  END
$$$$
