
     RDKit          3D

 35 38  0  0  0  0  0  0  0  0999 V2000
    3.9919    1.3212   13.8638 C   0  0  0  0  0  0  0  0  0  0  0  0
    3.0749    2.0742   14.7892 C   0  0  0  0  0  0  0  0  0  0  0  0
    2.6743    3.4093   14.3765 C   0  0  0  0  0  0  0  0  0  0  0  0
    1.6542    4.2156   15.0326 C   0  0  0  0  0  0  0  0  0  0  0  0
    1.5778    5.6862   14.7085 C   0  0  0  0  0  0  0  0  0  0  0  0
    0.6166    6.4685   15.5093 C   0  0  0  0  0  0  0  0  0  0  0  0
    0.2807    5.7267   16.7587 C   0  0  0  0  0  0  0  0  0  0  0  0
   -0.2727    4.3507   16.5939 C   0  0  0  0  0  0  0  0  0  0  0  0
    0.3518    3.5916   15.4273 C   0  0  0  0  0  0  0  0  0  0  0  0
   -0.6360    3.3979   14.4014 N   0  0  0  0  0  0  0  0  0  0  0  0
   -1.4686    4.3938   13.8100 C   0  0  0  0  0  0  0  0  0  0  0  0
   -2.3251    3.7657   12.7440 C   0  0  0  0  0  0  0  0  0  0  0  0
   -2.1665    2.2973   12.8951 C   0  0  0  0  0  0  0  0  0  0  0  0
   -1.0243    2.1440   13.7825 C   0  0  0  0  0  0  0  0  0  0  0  0
   -0.4003    1.0745   14.0281 O   0  0  0  0  0  0  0  0  0  0  0  0
   -2.0324    1.5869   11.6358 N   0  0  0  0  0  0  0  0  0  0  0  0
   -1.9692    0.1707   11.6673 C   0  0  0  0  0  0  0  0  0  0  0  0
   -1.9772   -0.5126   12.8330 N   0  0  0  0  0  0  0  0  0  0  0  0
   -1.9189   -1.8454   12.9101 C   0  0  0  0  0  0  0  0  0  0  0  0
   -1.8470   -2.5958   11.7980 N   0  0  0  0  0  0  0  0  0  0  0  0
   -1.8355   -1.9616   10.5976 C   0  0  0  0  0  0  0  0  0  0  0  0
   -1.8957   -0.5871   10.5192 C   0  0  0  0  0  0  0  0  0  0  0  0
   -1.8799   -0.0000    9.2768 C   0  0  0  0  0  0  0  0  0  0  0  0
   -1.8039   -0.8048    8.1364 C   0  0  0  0  0  0  0  0  0  0  0  0
   -1.7451   -2.1783    8.2527 C   0  0  0  0  0  0  0  0  0  0  0  0
   -1.7597   -2.7875    9.4894 C   0  0  0  0  0  0  0  0  0  0  0  0
   -1.7831   -0.2071    6.7666 C   0  0  0  0  0  0  0  0  0  0  0  0
   -0.8964   -0.9042    5.9966 F   0  0  0  0  0  0  0  0  0  0  0  0
   -1.4633    1.1294    6.7957 F   0  0  0  0  0  0  0  0  0  0  0  0
   -3.0826   -0.2956    6.2851 F   0  0  0  0  0  0  0  0  0  0  0  0
    1.1837    7.7397   15.9244 N   0  0  0  0  0  0  0  0  0  0  0  0
    2.4070    7.5523   16.6803 C   0  0  0  0  0  0  0  0  0  0  0  0
    0.2395    8.5747   16.6173 C   0  0  0  0  0  0  0  0  0  0  0  0
   -0.9734    8.9045   15.7971 C   0  0  0  0  0  0  0  0  0  0  0  0
   -0.2588    7.7489   17.8122 C   0  0  0  0  0  0  0  0  0  0  0  0
  1  2  1  0
  2  3  1  0
  3  4  1  0
  4  5  1  0
  5  6  1  0
  6  7  1  0
  7  8  1  0
  8  9  1  0
  9 10  1  0
 10 11  1  0
 11 12  1  0
 12 13  1  0
 13 14  1  0
 14 15  2  0
 13 16  1  0
 16 17  1  0
 17 18  2  0
 18 19  1  0
 19 20  2  0
 20 21  1  0
 21 22  2  0
 22 23  1  0
 23 24  2  0
 24 25  1  0
 25 26  2  0
 24 27  1  0
 27 28  1  0
 27 29  1  0
 27 30  1  0
  6 31  1  0
 31 32  1  0
 31 33  1  0
 33 34  1  0
 33 35  1  0
  9  4  1  0
 14 10  1  0
 22 17  1  0
 26 21  1  0
M  END
$$$$
