
     RDKit          3D

 20 21  0  0  0  0  0  0  0  0999 V2000
    6.2400   -5.6957    6.3516 C   0  0  0  0  0  0  0  0  0  0  0  0
    5.1535   -4.7686    6.7561 C   0  0  0  0  0  0  0  0  0  0  0  0
    5.0614   -4.3141    8.0593 C   0  0  0  0  0  0  0  0  0  0  0  0
    5.9098   -4.5913    9.2729 C   0  0  0  0  0  0  0  0  0  0  0  0
    5.6966   -3.3425   10.0913 C   0  0  0  0  0  0  0  0  0  0  0  0
    4.1919   -3.1219    9.8797 C   0  0  0  0  0  0  0  0  0  0  0  0
    4.0596   -3.4633    8.4159 C   0  0  0  0  0  0  0  0  0  0  0  0
    3.0884   -3.0160    7.4887 C   0  0  0  0  0  0  0  0  0  0  0  0
    3.2438   -3.5126    6.2062 C   0  0  0  0  0  0  0  0  0  0  0  0
    4.2442   -4.3724    5.8127 C   0  0  0  0  0  0  0  0  0  0  0  0
    2.1468   -2.1895    7.9254 O   0  0  0  0  0  0  0  0  0  0  0  0
    0.8775   -1.8123    7.8836 C   0  0  0  0  0  0  0  0  0  0  0  0
    0.5895   -0.4841    8.5070 C   0  0  0  0  0  0  0  0  0  0  0  0
   -0.0703   -0.6499    9.8844 C   0  0  0  0  0  0  0  0  0  0  0  0
   -1.3031   -1.4706    9.7017 C   0  0  0  0  0  0  0  0  0  0  0  0
    0.9108   -1.2274   10.7501 N   0  0  0  0  0  0  0  0  0  0  0  0
    1.3632   -0.3702   11.7962 C   0  0  0  0  0  0  0  0  0  0  0  0
    2.3793    0.6290   11.2934 C   0  0  0  0  0  0  0  0  0  0  0  0
    2.0801   -1.2361   12.8288 C   0  0  0  0  0  0  0  0  0  0  0  0
   -0.1705    0.3155    7.7211 O   0  0  0  0  0  0  0  0  0  0  0  0
  1  2  1  0
  2  3  2  0
  3  4  1  0
  4  5  1  0
  5  6  1  0
  6  7  1  0
  7  8  2  0
  8  9  1  0
  9 10  2  0
  8 11  1  0
 11 12  1  0
 12 13  1  0
 13 14  1  0
 14 15  1  0
 14 16  1  0
 16 17  1  0
 17 18  1  0
 17 19  1  0
 13 20  1  0
 10  2  1  0
  7  3  1  0
M  END
$$$$
