
     RDKit          3D

 20 21  0  0  0  0  0  0  0  0999 V2000
    6.4146   -5.6045    6.5220 C   0  0  0  0  0  0  0  0  0  0  0  0
    5.4548   -4.6381    7.1123 C   0  0  0  0  0  0  0  0  0  0  0  0
    4.6530   -3.8543    6.3021 C   0  0  0  0  0  0  0  0  0  0  0  0
    4.5404   -3.7621    4.8027 C   0  0  0  0  0  0  0  0  0  0  0  0
    3.1202   -3.2856    4.6278 C   0  0  0  0  0  0  0  0  0  0  0  0
    3.0287   -2.2542    5.7616 C   0  0  0  0  0  0  0  0  0  0  0  0
    3.7766   -2.9724    6.8577 C   0  0  0  0  0  0  0  0  0  0  0  0
    3.6498   -2.8215    8.2592 C   0  0  0  0  0  0  0  0  0  0  0  0
    4.4834   -3.6368    9.0047 C   0  0  0  0  0  0  0  0  0  0  0  0
    5.3792   -4.5383    8.4754 C   0  0  0  0  0  0  0  0  0  0  0  0
    2.7715   -1.9360    8.7117 O   0  0  0  0  0  0  0  0  0  0  0  0
    2.1183   -1.4327    9.7487 C   0  0  0  0  0  0  0  0  0  0  0  0
    1.2602   -0.2469    9.4430 C   0  0  0  0  0  0  0  0  0  0  0  0
   -0.2041   -0.6618    9.2338 C   0  0  0  0  0  0  0  0  0  0  0  0
   -0.2699   -1.4847    7.9908 C   0  0  0  0  0  0  0  0  0  0  0  0
   -0.6199   -1.3388   10.4230 N   0  0  0  0  0  0  0  0  0  0  0  0
   -0.6258   -0.5318   11.5989 C   0  0  0  0  0  0  0  0  0  0  0  0
   -0.5059   -1.3729   12.8486 C   0  0  0  0  0  0  0  0  0  0  0  0
   -1.9801    0.1682   11.6749 C   0  0  0  0  0  0  0  0  0  0  0  0
    1.6990    0.4626    8.3760 O   0  0  0  0  0  0  0  0  0  0  0  0
  1  2  1  0
  2  3  2  0
  3  4  1  0
  4  5  1  0
  5  6  1  0
  6  7  1  0
  7  8  2  0
  8  9  1  0
  9 10  2  0
  8 11  1  0
 11 12  1  0
 12 13  1  0
 13 14  1  0
 14 15  1  0
 14 16  1  0
 16 17  1  0
 17 18  1  0
 17 19  1  0
 13 20  1  0
 10  2  1  0
  7  3  1  0
M  END
$$$$
