
     RDKit          3D

 20 21  0  0  0  0  0  0  0  0999 V2000
    5.6367   -4.8862    5.6849 C   0  0  0  0  0  0  0  0  0  0  0  0
    4.8020   -4.2312    6.7231 C   0  0  0  0  0  0  0  0  0  0  0  0
    3.7510   -3.4053    6.3671 C   0  0  0  0  0  0  0  0  0  0  0  0
    3.2267   -2.9860    5.0185 C   0  0  0  0  0  0  0  0  0  0  0  0
    1.7800   -2.6918    5.3268 C   0  0  0  0  0  0  0  0  0  0  0  0
    1.9211   -1.9749    6.6772 C   0  0  0  0  0  0  0  0  0  0  0  0
    2.9934   -2.8116    7.3305 C   0  0  0  0  0  0  0  0  0  0  0  0
    3.2424   -3.0089    8.7097 C   0  0  0  0  0  0  0  0  0  0  0  0
    4.3087   -3.8456    8.9892 C   0  0  0  0  0  0  0  0  0  0  0  0
    5.0936   -4.4614    8.0406 C   0  0  0  0  0  0  0  0  0  0  0  0
    2.4545   -2.3881    9.5781 O   0  0  0  0  0  0  0  0  0  0  0  0
    2.1110   -2.1958   10.8432 C   0  0  0  0  0  0  0  0  0  0  0  0
    0.9180   -1.3184   11.0503 C   0  0  0  0  0  0  0  0  0  0  0  0
    1.3330    0.0691   11.5626 C   0  0  0  0  0  0  0  0  0  0  0  0
    0.1472    0.9681   11.4502 C   0  0  0  0  0  0  0  0  0  0  0  0
    1.8263   -0.1079   12.8933 N   0  0  0  0  0  0  0  0  0  0  0  0
    2.4711    1.0366   13.4486 C   0  0  0  0  0  0  0  0  0  0  0  0
    3.8172    1.2800   12.8066 C   0  0  0  0  0  0  0  0  0  0  0  0
    2.7392    0.7486   14.9235 C   0  0  0  0  0  0  0  0  0  0  0  0
   -0.0022   -1.8643   11.8808 O   0  0  0  0  0  0  0  0  0  0  0  0
  1  2  1  0
  2  3  2  0
  3  4  1  0
  4  5  1  0
  5  6  1  0
  6  7  1  0
  7  8  2  0
  8  9  1  0
  9 10  2  0
  8 11  1  0
 11 12  1  0
 12 13  1  0
 13 14  1  0
 14 15  1  0
 14 16  1  0
 16 17  1  0
 17 18  1  0
 17 19  1  0
 13 20  1  0
 10  2  1  0
  7  3  1  0
M  END
$$$$
