
     RDKit          3D

 20 21  0  0  0  0  0  0  0  0999 V2000
    6.3368   -5.4245    6.1494 C   0  0  0  0  0  0  0  0  0  0  0  0
    5.4837   -4.5454    6.9878 C   0  0  0  0  0  0  0  0  0  0  0  0
    4.5328   -3.7239    6.4096 C   0  0  0  0  0  0  0  0  0  0  0  0
    4.1456   -3.5088    4.9697 C   0  0  0  0  0  0  0  0  0  0  0  0
    2.7089   -3.0685    5.0981 C   0  0  0  0  0  0  0  0  0  0  0  0
    2.8076   -2.1408    6.3175 C   0  0  0  0  0  0  0  0  0  0  0  0
    3.7568   -2.9231    7.1914 C   0  0  0  0  0  0  0  0  0  0  0  0
    3.8862   -2.8961    8.6005 C   0  0  0  0  0  0  0  0  0  0  0  0
    4.8572   -3.7424    9.1067 C   0  0  0  0  0  0  0  0  0  0  0  0
    5.6574   -4.5643    8.3455 C   0  0  0  0  0  0  0  0  0  0  0  0
    3.0895   -2.0830    9.2820 O   0  0  0  0  0  0  0  0  0  0  0  0
    2.7297   -1.5904   10.4581 C   0  0  0  0  0  0  0  0  0  0  0  0
    1.6764   -0.5303   10.4065 C   0  0  0  0  0  0  0  0  0  0  0  0
    0.2721   -1.1480   10.3264 C   0  0  0  0  0  0  0  0  0  0  0  0
    0.4312   -2.5993   10.0181 C   0  0  0  0  0  0  0  0  0  0  0  0
   -0.3785   -0.8674   11.5686 N   0  0  0  0  0  0  0  0  0  0  0  0
   -0.7783    0.4908   11.7404 C   0  0  0  0  0  0  0  0  0  0  0  0
   -0.8990    0.8521   13.2027 C   0  0  0  0  0  0  0  0  0  0  0  0
   -2.1727    0.6440   11.1386 C   0  0  0  0  0  0  0  0  0  0  0  0
    1.8573    0.3459    9.3896 O   0  0  0  0  0  0  0  0  0  0  0  0
  1  2  1  0
  2  3  2  0
  3  4  1  0
  4  5  1  0
  5  6  1  0
  6  7  1  0
  7  8  2  0
  8  9  1  0
  9 10  2  0
  8 11  1  0
 11 12  1  0
 12 13  1  0
 13 14  1  0
 14 15  1  0
 14 16  1  0
 16 17  1  0
 17 18  1  0
 17 19  1  0
 13 20  1  0
 10  2  1  0
  7  3  1  0
M  END
$$$$
