
     RDKit          3D

 20 21  0  0  0  0  0  0  0  0999 V2000
    6.0457   -5.0326    6.0438 C   0  0  0  0  0  0  0  0  0  0  0  0
    5.0887   -4.3092    6.9181 C   0  0  0  0  0  0  0  0  0  0  0  0
    4.1683   -3.4275    6.3806 C   0  0  0  0  0  0  0  0  0  0  0  0
    3.9098   -3.0019    4.9588 C   0  0  0  0  0  0  0  0  0  0  0  0
    2.4532   -2.6147    5.0117 C   0  0  0  0  0  0  0  0  0  0  0  0
    2.4062   -1.8831    6.3607 C   0  0  0  0  0  0  0  0  0  0  0  0
    3.2960   -2.7714    7.1949 C   0  0  0  0  0  0  0  0  0  0  0  0
    3.2926   -2.9581    8.5978 C   0  0  0  0  0  0  0  0  0  0  0  0
    4.2405   -3.8529    9.0627 C   0  0  0  0  0  0  0  0  0  0  0  0
    5.1357   -4.5325    8.2678 C   0  0  0  0  0  0  0  0  0  0  0  0
    2.4085   -2.2749    9.3132 O   0  0  0  0  0  0  0  0  0  0  0  0
    1.5729   -2.2536   10.3412 C   0  0  0  0  0  0  0  0  0  0  0  0
    0.8889   -0.9448   10.5757 C   0  0  0  0  0  0  0  0  0  0  0  0
    0.3763   -0.8385   12.0200 C   0  0  0  0  0  0  0  0  0  0  0  0
    1.1446   -1.8139   12.8476 C   0  0  0  0  0  0  0  0  0  0  0  0
    0.5227    0.5282   12.4151 N   0  0  0  0  0  0  0  0  0  0  0  0
   -0.4545    1.4146   11.8735 C   0  0  0  0  0  0  0  0  0  0  0  0
   -0.0112    2.8558   11.9735 C   0  0  0  0  0  0  0  0  0  0  0  0
   -1.7169    1.2887   12.7224 C   0  0  0  0  0  0  0  0  0  0  0  0
   -0.1229   -0.7135    9.7055 O   0  0  0  0  0  0  0  0  0  0  0  0
  1  2  1  0
  2  3  2  0
  3  4  1  0
  4  5  1  0
  5  6  1  0
  6  7  1  0
  7  8  2  0
  8  9  1  0
  9 10  2  0
  8 11  1  0
 11 12  1  0
 12 13  1  0
 13 14  1  0
 14 15  1  0
 14 16  1  0
 16 17  1  0
 17 18  1  0
 17 19  1  0
 13 20  1  0
 10  2  1  0
  7  3  1  0
M  END
$$$$
