
     RDKit          3D

 20 21  0  0  0  0  0  0  0  0999 V2000
    6.2641   -5.3439    6.1291 C   0  0  0  0  0  0  0  0  0  0  0  0
    5.3556   -4.5655    7.0078 C   0  0  0  0  0  0  0  0  0  0  0  0
    4.3402   -3.7956    6.4694 C   0  0  0  0  0  0  0  0  0  0  0  0
    3.9243   -3.5533    5.0420 C   0  0  0  0  0  0  0  0  0  0  0  0
    2.4599   -3.2278    5.1974 C   0  0  0  0  0  0  0  0  0  0  0  0
    2.5005   -2.3444    6.4525 C   0  0  0  0  0  0  0  0  0  0  0  0
    3.5140   -3.0871    7.2879 C   0  0  0  0  0  0  0  0  0  0  0  0
    3.6545   -3.1064    8.6961 C   0  0  0  0  0  0  0  0  0  0  0  0
    4.6910   -3.8966    9.1614 C   0  0  0  0  0  0  0  0  0  0  0  0
    5.5431   -4.6251    8.3624 C   0  0  0  0  0  0  0  0  0  0  0  0
    2.8056   -2.3833    9.4150 O   0  0  0  0  0  0  0  0  0  0  0  0
    2.4290   -1.9558   10.6112 C   0  0  0  0  0  0  0  0  0  0  0  0
    1.5493   -0.7467   10.6048 C   0  0  0  0  0  0  0  0  0  0  0  0
    0.1024   -1.1162   10.2440 C   0  0  0  0  0  0  0  0  0  0  0  0
    0.0068   -2.6051   10.2183 C   0  0  0  0  0  0  0  0  0  0  0  0
   -0.7431   -0.4783   11.2051 N   0  0  0  0  0  0  0  0  0  0  0  0
   -0.8090    0.9420   11.0935 C   0  0  0  0  0  0  0  0  0  0  0  0
   -0.6769    1.6104   12.4422 C   0  0  0  0  0  0  0  0  0  0  0  0
   -2.1946    1.3023   10.5641 C   0  0  0  0  0  0  0  0  0  0  0  0
    1.9986    0.2299    9.7809 O   0  0  0  0  0  0  0  0  0  0  0  0
  1  2  1  0
  2  3  2  0
  3  4  1  0
  4  5  1  0
  5  6  1  0
  6  7  1  0
  7  8  2  0
  8  9  1  0
  9 10  2  0
  8 11  1  0
 11 12  1  0
 12 13  1  0
 13 14  1  0
 14 15  1  0
 14 16  1  0
 16 17  1  0
 17 18  1  0
 17 19  1  0
 13 20  1  0
 10  2  1  0
  7  3  1  0
M  END
$$$$
