
     RDKit          3D

 20 21  0  0  0  0  0  0  0  0999 V2000
    5.5644   -5.0485    5.2721 C   0  0  0  0  0  0  0  0  0  0  0  0
    4.9409   -4.3813    6.4423 C   0  0  0  0  0  0  0  0  0  0  0  0
    3.8991   -3.4872    6.2735 C   0  0  0  0  0  0  0  0  0  0  0  0
    3.1989   -2.9967    5.0331 C   0  0  0  0  0  0  0  0  0  0  0  0
    1.8375   -2.6321    5.5699 C   0  0  0  0  0  0  0  0  0  0  0  0
    2.2282   -1.9674    6.8976 C   0  0  0  0  0  0  0  0  0  0  0  0
    3.3363   -2.8830    7.3565 C   0  0  0  0  0  0  0  0  0  0  0  0
    3.7830   -3.1375    8.6751 C   0  0  0  0  0  0  0  0  0  0  0  0
    4.8276   -4.0408    8.7658 C   0  0  0  0  0  0  0  0  0  0  0  0
    5.4182   -4.6691    7.6926 C   0  0  0  0  0  0  0  0  0  0  0  0
    3.1774   -2.5016    9.6697 O   0  0  0  0  0  0  0  0  0  0  0  0
    3.0627   -2.3132   10.9761 C   0  0  0  0  0  0  0  0  0  0  0  0
    2.2163   -1.1475   11.3769 C   0  0  0  0  0  0  0  0  0  0  0  0
    0.7215   -1.4802   11.2548 C   0  0  0  0  0  0  0  0  0  0  0  0
    0.5172   -2.8573   11.7919 C   0  0  0  0  0  0  0  0  0  0  0  0
    0.0076   -0.4543   11.9500 N   0  0  0  0  0  0  0  0  0  0  0  0
   -0.0849    0.7865   11.2530 C   0  0  0  0  0  0  0  0  0  0  0  0
   -0.7297    1.8544   12.1059 C   0  0  0  0  0  0  0  0  0  0  0  0
   -1.0031    0.5771   10.0518 C   0  0  0  0  0  0  0  0  0  0  0  0
    2.5004   -0.0225   10.6783 O   0  0  0  0  0  0  0  0  0  0  0  0
  1  2  1  0
  2  3  2  0
  3  4  1  0
  4  5  1  0
  5  6  1  0
  6  7  1  0
  7  8  2  0
  8  9  1  0
  9 10  2  0
  8 11  1  0
 11 12  1  0
 12 13  1  0
 13 14  1  0
 14 15  1  0
 14 16  1  0
 16 17  1  0
 17 18  1  0
 17 19  1  0
 13 20  1  0
 10  2  1  0
  7  3  1  0
M  END
$$$$
