
     RDKit          3D

 20 21  0  0  0  0  0  0  0  0999 V2000
    5.8752   -5.4187    5.5094 C   0  0  0  0  0  0  0  0  0  0  0  0
    5.2256   -4.6412    6.5942 C   0  0  0  0  0  0  0  0  0  0  0  0
    4.2023   -3.7541    6.3124 C   0  0  0  0  0  0  0  0  0  0  0  0
    3.5477   -3.3700    5.0111 C   0  0  0  0  0  0  0  0  0  0  0  0
    2.1757   -2.9428    5.4692 C   0  0  0  0  0  0  0  0  0  0  0  0
    2.5349   -2.1651    6.7434 C   0  0  0  0  0  0  0  0  0  0  0  0
    3.6153   -3.0479    7.3180 C   0  0  0  0  0  0  0  0  0  0  0  0
    4.0176   -3.1871    8.6677 C   0  0  0  0  0  0  0  0  0  0  0  0
    5.0459   -4.0904    8.8727 C   0  0  0  0  0  0  0  0  0  0  0  0
    5.6601   -4.8199    7.8800 C   0  0  0  0  0  0  0  0  0  0  0  0
    3.3909   -2.4569    9.5812 O   0  0  0  0  0  0  0  0  0  0  0  0
    3.4104   -1.9118   10.7886 C   0  0  0  0  0  0  0  0  0  0  0  0
    2.2577   -1.0105   11.0964 C   0  0  0  0  0  0  0  0  0  0  0  0
    0.9202   -1.6858   10.7573 C   0  0  0  0  0  0  0  0  0  0  0  0
    0.8988   -3.0160   11.4332 C   0  0  0  0  0  0  0  0  0  0  0  0
   -0.1157   -0.7891   11.1671 N   0  0  0  0  0  0  0  0  0  0  0  0
   -0.3328    0.3140   10.2896 C   0  0  0  0  0  0  0  0  0  0  0  0
   -1.2533    1.3407   10.9076 C   0  0  0  0  0  0  0  0  0  0  0  0
   -1.0438   -0.2144    9.0466 C   0  0  0  0  0  0  0  0  0  0  0  0
    2.3434    0.1892   10.4735 O   0  0  0  0  0  0  0  0  0  0  0  0
  1  2  1  0
  2  3  2  0
  3  4  1  0
  4  5  1  0
  5  6  1  0
  6  7  1  0
  7  8  2  0
  8  9  1  0
  9 10  2  0
  8 11  1  0
 11 12  1  0
 12 13  1  0
 13 14  1  0
 14 15  1  0
 14 16  1  0
 16 17  1  0
 17 18  1  0
 17 19  1  0
 13 20  1  0
 10  2  1  0
  7  3  1  0
M  END
$$$$
