
     RDKit          3D

 20 21  0  0  0  0  0  0  0  0999 V2000
    5.8247   -5.4610    5.6948 C   0  0  0  0  0  0  0  0  0  0  0  0
    5.2908   -4.5372    6.7268 C   0  0  0  0  0  0  0  0  0  0  0  0
    4.3237   -3.6019    6.4054 C   0  0  0  0  0  0  0  0  0  0  0  0
    3.6345   -3.2896    5.1028 C   0  0  0  0  0  0  0  0  0  0  0  0
    2.3233   -2.7145    5.5765 C   0  0  0  0  0  0  0  0  0  0  0  0
    2.8037   -1.8528    6.7530 C   0  0  0  0  0  0  0  0  0  0  0  0
    3.8427   -2.7613    7.3627 C   0  0  0  0  0  0  0  0  0  0  0  0
    4.3014   -2.8060    8.7009 C   0  0  0  0  0  0  0  0  0  0  0  0
    5.2684   -3.7649    8.9472 C   0  0  0  0  0  0  0  0  0  0  0  0
    5.7753   -4.6298    8.0037 C   0  0  0  0  0  0  0  0  0  0  0  0
    3.7781   -1.9469    9.5659 O   0  0  0  0  0  0  0  0  0  0  0  0
    3.8168   -1.4090   10.7761 C   0  0  0  0  0  0  0  0  0  0  0  0
    2.8608   -0.2813   11.0001 C   0  0  0  0  0  0  0  0  0  0  0  0
    1.5233   -0.7913   11.5578 C   0  0  0  0  0  0  0  0  0  0  0  0
    1.3157   -0.1558   12.8919 C   0  0  0  0  0  0  0  0  0  0  0  0
    0.5211   -0.4831   10.5852 N   0  0  0  0  0  0  0  0  0  0  0  0
    0.4332   -1.4090    9.5040 C   0  0  0  0  0  0  0  0  0  0  0  0
   -0.4562   -0.8877    8.3992 C   0  0  0  0  0  0  0  0  0  0  0  0
   -0.2296   -2.6784   10.0325 C   0  0  0  0  0  0  0  0  0  0  0  0
    2.6475    0.4602    9.8869 O   0  0  0  0  0  0  0  0  0  0  0  0
  1  2  1  0
  2  3  2  0
  3  4  1  0
  4  5  1  0
  5  6  1  0
  6  7  1  0
  7  8  2  0
  8  9  1  0
  9 10  2  0
  8 11  1  0
 11 12  1  0
 12 13  1  0
 13 14  1  0
 14 15  1  0
 14 16  1  0
 16 17  1  0
 17 18  1  0
 17 19  1  0
 13 20  1  0
 10  2  1  0
  7  3  1  0
M  END
$$$$
