
     RDKit          3D

 20 21  0  0  0  0  0  0  0  0999 V2000
    6.1704   -5.5271    6.0304 C   0  0  0  0  0  0  0  0  0  0  0  0
    5.1340   -4.5524    6.4540 C   0  0  0  0  0  0  0  0  0  0  0  0
    5.1032   -4.0729    7.7511 C   0  0  0  0  0  0  0  0  0  0  0  0
    5.9811   -4.3621    8.9407 C   0  0  0  0  0  0  0  0  0  0  0  0
    5.8431   -3.0926    9.7431 C   0  0  0  0  0  0  0  0  0  0  0  0
    4.3416   -2.8180    9.5775 C   0  0  0  0  0  0  0  0  0  0  0  0
    4.1469   -3.1785    8.1254 C   0  0  0  0  0  0  0  0  0  0  0  0
    3.1626   -2.7098    7.2229 C   0  0  0  0  0  0  0  0  0  0  0  0
    3.2556   -3.2334    5.9452 C   0  0  0  0  0  0  0  0  0  0  0  0
    4.2089   -4.1375    5.5343 C   0  0  0  0  0  0  0  0  0  0  0  0
    2.2682   -1.8406    7.6757 O   0  0  0  0  0  0  0  0  0  0  0  0
    1.1193   -1.2096    7.4829 C   0  0  0  0  0  0  0  0  0  0  0  0
    0.7758   -0.1868    8.5181 C   0  0  0  0  0  0  0  0  0  0  0  0
    0.5800   -0.8372    9.8960 C   0  0  0  0  0  0  0  0  0  0  0  0
    1.8962   -0.8178   10.5987 C   0  0  0  0  0  0  0  0  0  0  0  0
   -0.4617   -0.1122   10.5553 N   0  0  0  0  0  0  0  0  0  0  0  0
   -1.7156   -0.7891   10.6146 C   0  0  0  0  0  0  0  0  0  0  0  0
   -2.8162    0.1251   11.1008 C   0  0  0  0  0  0  0  0  0  0  0  0
   -1.5917   -1.9066   11.6470 C   0  0  0  0  0  0  0  0  0  0  0  0
   -0.3135    0.5496    8.1930 O   0  0  0  0  0  0  0  0  0  0  0  0
  1  2  1  0
  2  3  2  0
  3  4  1  0
  4  5  1  0
  5  6  1  0
  6  7  1  0
  7  8  2  0
  8  9  1  0
  9 10  2  0
  8 11  1  0
 11 12  1  0
 12 13  1  0
 13 14  1  0
 14 15  1  0
 14 16  1  0
 16 17  1  0
 17 18  1  0
 17 19  1  0
 13 20  1  0
 10  2  1  0
  7  3  1  0
M  END
$$$$
