
     RDKit          3D

 20 21  0  0  0  0  0  0  0  0999 V2000
    6.1306   -5.3225    6.1048 C   0  0  0  0  0  0  0  0  0  0  0  0
    5.0166   -4.4479    6.5492 C   0  0  0  0  0  0  0  0  0  0  0  0
    4.9087   -4.0587    7.8723 C   0  0  0  0  0  0  0  0  0  0  0  0
    5.7626   -4.3682    9.0741 C   0  0  0  0  0  0  0  0  0  0  0  0
    5.5113   -3.1666    9.9501 C   0  0  0  0  0  0  0  0  0  0  0  0
    4.0012   -2.9803    9.7442 C   0  0  0  0  0  0  0  0  0  0  0  0
    3.8817   -3.2555    8.2655 C   0  0  0  0  0  0  0  0  0  0  0  0
    2.8995   -2.7932    7.3574 C   0  0  0  0  0  0  0  0  0  0  0  0
    3.0718   -3.2235    6.0533 C   0  0  0  0  0  0  0  0  0  0  0  0
    4.0978   -4.0341    5.6227 C   0  0  0  0  0  0  0  0  0  0  0  0
    1.9333   -2.0163    7.8297 O   0  0  0  0  0  0  0  0  0  0  0  0
    0.8920   -1.2387    7.5723 C   0  0  0  0  0  0  0  0  0  0  0  0
   -0.0969   -1.1131    8.6868 C   0  0  0  0  0  0  0  0  0  0  0  0
    0.2244    0.0954    9.5791 C   0  0  0  0  0  0  0  0  0  0  0  0
   -0.7517    1.1751    9.2504 C   0  0  0  0  0  0  0  0  0  0  0  0
    0.1780   -0.3620   10.9334 N   0  0  0  0  0  0  0  0  0  0  0  0
    1.4135   -0.8667   11.4362 C   0  0  0  0  0  0  0  0  0  0  0  0
    1.2953   -2.3176   11.8416 C   0  0  0  0  0  0  0  0  0  0  0  0
    1.7515   -0.0876   12.7046 C   0  0  0  0  0  0  0  0  0  0  0  0
   -0.1903   -2.2350    9.4399 O   0  0  0  0  0  0  0  0  0  0  0  0
  1  2  1  0
  2  3  2  0
  3  4  1  0
  4  5  1  0
  5  6  1  0
  6  7  1  0
  7  8  2  0
  8  9  1  0
  9 10  2  0
  8 11  1  0
 11 12  1  0
 12 13  1  0
 13 14  1  0
 14 15  1  0
 14 16  1  0
 16 17  1  0
 17 18  1  0
 17 19  1  0
 13 20  1  0
 10  2  1  0
  7  3  1  0
M  END
$$$$
