
     RDKit          3D

 20 21  0  0  0  0  0  0  0  0999 V2000
    5.8579   -5.0011    5.2175 C   0  0  0  0  0  0  0  0  0  0  0  0
    5.2149   -4.3073    6.3614 C   0  0  0  0  0  0  0  0  0  0  0  0
    4.2060   -3.3845    6.1514 C   0  0  0  0  0  0  0  0  0  0  0  0
    3.5630   -2.8832    4.8848 C   0  0  0  0  0  0  0  0  0  0  0  0
    2.1954   -2.4752    5.3725 C   0  0  0  0  0  0  0  0  0  0  0  0
    2.5602   -1.8123    6.7084 C   0  0  0  0  0  0  0  0  0  0  0  0
    3.6248   -2.7562    7.2107 C   0  0  0  0  0  0  0  0  0  0  0  0
    4.0190   -3.0137    8.5454 C   0  0  0  0  0  0  0  0  0  0  0  0
    5.0329   -3.9464    8.6774 C   0  0  0  0  0  0  0  0  0  0  0  0
    5.6409   -4.5995    7.6291 C   0  0  0  0  0  0  0  0  0  0  0  0
    3.3989   -2.3531    9.5146 O   0  0  0  0  0  0  0  0  0  0  0  0
    3.3333   -2.0517   10.8031 C   0  0  0  0  0  0  0  0  0  0  0  0
    2.4066   -0.9293   11.1457 C   0  0  0  0  0  0  0  0  0  0  0  0
    0.9505   -1.2936   10.8186 C   0  0  0  0  0  0  0  0  0  0  0  0
    0.8221   -2.7775   10.9096 C   0  0  0  0  0  0  0  0  0  0  0  0
    0.1234   -0.5639   11.7290 N   0  0  0  0  0  0  0  0  0  0  0  0
   -0.0050    0.8261   11.4369 C   0  0  0  0  0  0  0  0  0  0  0  0
   -0.2479    1.6354   12.6897 C   0  0  0  0  0  0  0  0  0  0  0  0
   -1.2408    1.0038   10.5588 C   0  0  0  0  0  0  0  0  0  0  0  0
    2.7410    0.2358   10.5413 O   0  0  0  0  0  0  0  0  0  0  0  0
  1  2  1  0
  2  3  2  0
  3  4  1  0
  4  5  1  0
  5  6  1  0
  6  7  1  0
  7  8  2  0
  8  9  1  0
  9 10  2  0
  8 11  1  0
 11 12  1  0
 12 13  1  0
 13 14  1  0
 14 15  1  0
 14 16  1  0
 16 17  1  0
 17 18  1  0
 17 19  1  0
 13 20  1  0
 10  2  1  0
  7  3  1  0
M  END
$$$$
