
     RDKit          3D

 20 21  0  0  0  0  0  0  0  0999 V2000
    5.6367   -5.3168    5.4778 C   0  0  0  0  0  0  0  0  0  0  0  0
    5.1903   -4.4572    6.6027 C   0  0  0  0  0  0  0  0  0  0  0  0
    4.2173   -3.4926    6.4117 C   0  0  0  0  0  0  0  0  0  0  0  0
    3.4436   -3.0882    5.1840 C   0  0  0  0  0  0  0  0  0  0  0  0
    2.1776   -2.5316    5.7856 C   0  0  0  0  0  0  0  0  0  0  0  0
    2.7520   -1.7542    6.9785 C   0  0  0  0  0  0  0  0  0  0  0  0
    3.8172   -2.7117    7.4531 C   0  0  0  0  0  0  0  0  0  0  0  0
    4.3675   -2.8490    8.7497 C   0  0  0  0  0  0  0  0  0  0  0  0
    5.3347   -3.8322    8.8645 C   0  0  0  0  0  0  0  0  0  0  0  0
    5.7613   -4.6386    7.8334 C   0  0  0  0  0  0  0  0  0  0  0  0
    3.9190   -2.0431    9.7035 O   0  0  0  0  0  0  0  0  0  0  0  0
    4.0551   -1.5806   10.9376 C   0  0  0  0  0  0  0  0  0  0  0  0
    3.1361   -0.4579   11.2992 C   0  0  0  0  0  0  0  0  0  0  0  0
    1.8307   -0.9862   11.9130 C   0  0  0  0  0  0  0  0  0  0  0  0
    1.8002   -0.5681   13.3451 C   0  0  0  0  0  0  0  0  0  0  0  0
    0.7584   -0.4747   11.1167 N   0  0  0  0  0  0  0  0  0  0  0  0
    0.3539   -1.3225   10.0436 C   0  0  0  0  0  0  0  0  0  0  0  0
    0.8947   -0.8360    8.7191 C   0  0  0  0  0  0  0  0  0  0  0  0
   -1.1676   -1.2515    9.9439 C   0  0  0  0  0  0  0  0  0  0  0  0
    2.8610    0.3581   10.2537 O   0  0  0  0  0  0  0  0  0  0  0  0
  1  2  1  0
  2  3  2  0
  3  4  1  0
  4  5  1  0
  5  6  1  0
  6  7  1  0
  7  8  2  0
  8  9  1  0
  9 10  2  0
  8 11  1  0
 11 12  1  0
 12 13  1  0
 13 14  1  0
 14 15  1  0
 14 16  1  0
 16 17  1  0
 17 18  1  0
 17 19  1  0
 13 20  1  0
 10  2  1  0
  7  3  1  0
M  END
$$$$
