
     RDKit          3D

 20 21  0  0  0  0  0  0  0  0999 V2000
    5.7382   -5.8329    5.8943 C   0  0  0  0  0  0  0  0  0  0  0  0
    5.1359   -4.8048    6.7796 C   0  0  0  0  0  0  0  0  0  0  0  0
    4.8154   -5.1027    8.0919 C   0  0  0  0  0  0  0  0  0  0  0  0
    4.9580   -6.3737    8.8879 C   0  0  0  0  0  0  0  0  0  0  0  0
    5.0727   -5.8458   10.2959 C   0  0  0  0  0  0  0  0  0  0  0  0
    4.0188   -4.7296   10.2638 C   0  0  0  0  0  0  0  0  0  0  0  0
    4.2639   -4.1493    8.8927 C   0  0  0  0  0  0  0  0  0  0  0  0
    3.9995   -2.8389    8.4279 C   0  0  0  0  0  0  0  0  0  0  0  0
    4.3450   -2.6151    7.1066 C   0  0  0  0  0  0  0  0  0  0  0  0
    4.9041   -3.5554    6.2708 C   0  0  0  0  0  0  0  0  0  0  0  0
    3.4581   -1.9757    9.2776 O   0  0  0  0  0  0  0  0  0  0  0  0
    3.0232   -0.7445    9.5018 C   0  0  0  0  0  0  0  0  0  0  0  0
    2.6831   -0.4412   10.9259 C   0  0  0  0  0  0  0  0  0  0  0  0
    1.2052   -0.7411   11.2186 C   0  0  0  0  0  0  0  0  0  0  0  0
    0.9434   -0.3866   12.6443 C   0  0  0  0  0  0  0  0  0  0  0  0
    0.4334   -0.0037   10.2668 N   0  0  0  0  0  0  0  0  0  0  0  0
    0.4250   -0.5528    8.9506 C   0  0  0  0  0  0  0  0  0  0  0  0
   -0.2925    0.3532    7.9769 C   0  0  0  0  0  0  0  0  0  0  0  0
   -0.3683   -1.8561    8.9962 C   0  0  0  0  0  0  0  0  0  0  0  0
    2.9778    0.8324   11.2804 O   0  0  0  0  0  0  0  0  0  0  0  0
  1  2  1  0
  2  3  2  0
  3  4  1  0
  4  5  1  0
  5  6  1  0
  6  7  1  0
  7  8  2  0
  8  9  1  0
  9 10  2  0
  8 11  1  0
 11 12  1  0
 12 13  1  0
 13 14  1  0
 14 15  1  0
 14 16  1  0
 16 17  1  0
 17 18  1  0
 17 19  1  0
 13 20  1  0
 10  2  1  0
  7  3  1  0
M  END
$$$$
