
     RDKit          3D

 20 21  0  0  0  0  0  0  0  0999 V2000
    6.6430   -5.3539    6.5405 C   0  0  0  0  0  0  0  0  0  0  0  0
    5.6182   -4.5226    7.2204 C   0  0  0  0  0  0  0  0  0  0  0  0
    4.6445   -3.8647    6.4907 C   0  0  0  0  0  0  0  0  0  0  0  0
    4.3815   -3.8041    5.0087 C   0  0  0  0  0  0  0  0  0  0  0  0
    2.8992   -3.5290    4.9684 C   0  0  0  0  0  0  0  0  0  0  0  0
    2.7721   -2.5085    6.1085 C   0  0  0  0  0  0  0  0  0  0  0  0
    3.7103   -3.1060    7.1281 C   0  0  0  0  0  0  0  0  0  0  0  0
    3.6946   -2.9597    8.5357 C   0  0  0  0  0  0  0  0  0  0  0  0
    4.6982   -3.6451    9.1979 C   0  0  0  0  0  0  0  0  0  0  0  0
    5.6565   -4.4203    8.5849 C   0  0  0  0  0  0  0  0  0  0  0  0
    2.7486   -2.1987    9.0707 O   0  0  0  0  0  0  0  0  0  0  0  0
    2.1518   -1.7552   10.1672 C   0  0  0  0  0  0  0  0  0  0  0  0
    1.0644   -0.7550    9.9374 C   0  0  0  0  0  0  0  0  0  0  0  0
   -0.1531   -1.0456   10.8281 C   0  0  0  0  0  0  0  0  0  0  0  0
    0.3507   -1.5952   12.1207 C   0  0  0  0  0  0  0  0  0  0  0  0
   -0.8876    0.1762   10.9424 N   0  0  0  0  0  0  0  0  0  0  0  0
   -2.0048    0.2863   10.0629 C   0  0  0  0  0  0  0  0  0  0  0  0
   -2.2254    1.7152    9.6235 C   0  0  0  0  0  0  0  0  0  0  0  0
   -3.2512   -0.1259   10.8417 C   0  0  0  0  0  0  0  0  0  0  0  0
    0.6829   -0.6772    8.6401 O   0  0  0  0  0  0  0  0  0  0  0  0
  1  2  1  0
  2  3  2  0
  3  4  1  0
  4  5  1  0
  5  6  1  0
  6  7  1  0
  7  8  2  0
  8  9  1  0
  9 10  2  0
  8 11  1  0
 11 12  1  0
 12 13  1  0
 13 14  1  0
 14 15  1  0
 14 16  1  0
 16 17  1  0
 17 18  1  0
 17 19  1  0
 13 20  1  0
 10  2  1  0
  7  3  1  0
M  END
$$$$
