
     RDKit          3D

 20 21  0  0  0  0  0  0  0  0999 V2000
   -0.3051    0.9487   13.2570 C   0  0  0  0  0  0  0  0  0  0  0  0
    0.4920    0.3168   12.1759 C   0  0  0  0  0  0  0  0  0  0  0  0
   -0.0813    0.0319   10.9497 C   0  0  0  0  0  0  0  0  0  0  0  0
   -1.4797    0.2438   10.4311 C   0  0  0  0  0  0  0  0  0  0  0  0
   -1.2447    0.3589    8.9458 C   0  0  0  0  0  0  0  0  0  0  0  0
   -0.1957   -0.7434    8.7414 C   0  0  0  0  0  0  0  0  0  0  0  0
    0.6623   -0.5474    9.9670 C   0  0  0  0  0  0  0  0  0  0  0  0
    2.0261   -0.8771   10.1525 C   0  0  0  0  0  0  0  0  0  0  0  0
    2.5301   -0.5641   11.4029 C   0  0  0  0  0  0  0  0  0  0  0  0
    1.8067    0.0215   12.4173 C   0  0  0  0  0  0  0  0  0  0  0  0
    2.6721   -1.4416    9.1404 O   0  0  0  0  0  0  0  0  0  0  0  0
    3.7422   -2.0996    8.7194 C   0  0  0  0  0  0  0  0  0  0  0  0
    3.8404   -2.2688    7.2370 C   0  0  0  0  0  0  0  0  0  0  0  0
    3.5913   -3.7286    6.8283 C   0  0  0  0  0  0  0  0  0  0  0  0
    2.9294   -3.7191    5.4909 C   0  0  0  0  0  0  0  0  0  0  0  0
    4.8566   -4.3940    6.8656 N   0  0  0  0  0  0  0  0  0  0  0  0
    5.2689   -4.8214    8.1622 C   0  0  0  0  0  0  0  0  0  0  0  0
    6.7680   -4.9969    8.2371 C   0  0  0  0  0  0  0  0  0  0  0  0
    4.6576   -6.1972    8.4139 C   0  0  0  0  0  0  0  0  0  0  0  0
    5.0224   -1.8405    6.7330 O   0  0  0  0  0  0  0  0  0  0  0  0
  1  2  1  0
  2  3  2  0
  3  4  1  0
  4  5  1  0
  5  6  1  0
  6  7  1  0
  7  8  2  0
  8  9  1  0
  9 10  2  0
  8 11  1  0
 11 12  1  0
 12 13  1  0
 13 14  1  0
 14 15  1  0
 14 16  1  0
 16 17  1  0
 17 18  1  0
 17 19  1  0
 13 20  1  0
 10  2  1  0
  7  3  1  0
M  END
$$$$
