
     RDKit          3D

 20 21  0  0  0  0  0  0  0  0999 V2000
    6.4737   -4.9931    6.4795 C   0  0  0  0  0  0  0  0  0  0  0  0
    5.2741   -4.1989    6.8448 C   0  0  0  0  0  0  0  0  0  0  0  0
    5.0497   -3.8208    8.1564 C   0  0  0  0  0  0  0  0  0  0  0  0
    5.8393   -4.0727    9.4143 C   0  0  0  0  0  0  0  0  0  0  0  0
    5.4462   -2.8931   10.2679 C   0  0  0  0  0  0  0  0  0  0  0  0
    3.9443   -2.8117    9.9594 C   0  0  0  0  0  0  0  0  0  0  0  0
    3.9450   -3.0917    8.4767 C   0  0  0  0  0  0  0  0  0  0  0  0
    2.9971   -2.6969    7.5026 C   0  0  0  0  0  0  0  0  0  0  0  0
    3.2872   -3.1116    6.2145 C   0  0  0  0  0  0  0  0  0  0  0  0
    4.3939   -3.8481    5.8569 C   0  0  0  0  0  0  0  0  0  0  0  0
    1.9494   -1.9899    7.9061 O   0  0  0  0  0  0  0  0  0  0  0  0
    0.7478   -1.5062    7.6278 C   0  0  0  0  0  0  0  0  0  0  0  0
   -0.0526   -1.0741    8.8146 C   0  0  0  0  0  0  0  0  0  0  0  0
    0.5625    0.1692    9.4748 C   0  0  0  0  0  0  0  0  0  0  0  0
    0.3906    1.3149    8.5343 C   0  0  0  0  0  0  0  0  0  0  0  0
   -0.0826    0.3317   10.7408 N   0  0  0  0  0  0  0  0  0  0  0  0
    0.6364   -0.2023   11.8507 C   0  0  0  0  0  0  0  0  0  0  0  0
   -0.2831   -0.5128   13.0089 C   0  0  0  0  0  0  0  0  0  0  0  0
    1.6022    0.8740   12.3394 C   0  0  0  0  0  0  0  0  0  0  0  0
   -0.2104   -2.0575    9.7326 O   0  0  0  0  0  0  0  0  0  0  0  0
  1  2  1  0
  2  3  2  0
  3  4  1  0
  4  5  1  0
  5  6  1  0
  6  7  1  0
  7  8  2  0
  8  9  1  0
  9 10  2  0
  8 11  1  0
 11 12  1  0
 12 13  1  0
 13 14  1  0
 14 15  1  0
 14 16  1  0
 16 17  1  0
 17 18  1  0
 17 19  1  0
 13 20  1  0
 10  2  1  0
  7  3  1  0
M  END
$$$$
