
     RDKit          3D

 20 21  0  0  0  0  0  0  0  0999 V2000
    5.9084   -5.8300    6.0885 C   0  0  0  0  0  0  0  0  0  0  0  0
    4.9522   -4.8092    6.5856 C   0  0  0  0  0  0  0  0  0  0  0  0
    4.9632   -4.4176    7.9123 C   0  0  0  0  0  0  0  0  0  0  0  0
    5.8202   -4.8534    9.0720 C   0  0  0  0  0  0  0  0  0  0  0  0
    5.7837   -3.6342    9.9590 C   0  0  0  0  0  0  0  0  0  0  0  0
    4.3074   -3.2341    9.8254 C   0  0  0  0  0  0  0  0  0  0  0  0
    4.0804   -3.4796    8.3540 C   0  0  0  0  0  0  0  0  0  0  0  0
    3.1321   -2.8764    7.4937 C   0  0  0  0  0  0  0  0  0  0  0  0
    3.1798   -3.3180    6.1830 C   0  0  0  0  0  0  0  0  0  0  0  0
    4.0588   -4.2630    5.7040 C   0  0  0  0  0  0  0  0  0  0  0  0
    2.3094   -1.9735    8.0116 O   0  0  0  0  0  0  0  0  0  0  0  0
    1.1122   -1.4062    7.9952 C   0  0  0  0  0  0  0  0  0  0  0  0
    0.9397   -0.2613    8.9414 C   0  0  0  0  0  0  0  0  0  0  0  0
    0.9241   -0.7450   10.3994 C   0  0  0  0  0  0  0  0  0  0  0  0
    1.6732    0.2534   11.2172 C   0  0  0  0  0  0  0  0  0  0  0  0
   -0.4473   -0.9134   10.7684 N   0  0  0  0  0  0  0  0  0  0  0  0
   -0.7694   -2.1965   11.3011 C   0  0  0  0  0  0  0  0  0  0  0  0
   -0.9875   -3.2129   10.2044 C   0  0  0  0  0  0  0  0  0  0  0  0
   -2.0956   -2.0704   12.0462 C   0  0  0  0  0  0  0  0  0  0  0  0
   -0.1677    0.4751    8.6843 O   0  0  0  0  0  0  0  0  0  0  0  0
  1  2  1  0
  2  3  2  0
  3  4  1  0
  4  5  1  0
  5  6  1  0
  6  7  1  0
  7  8  2  0
  8  9  1  0
  9 10  2  0
  8 11  1  0
 11 12  1  0
 12 13  1  0
 13 14  1  0
 14 15  1  0
 14 16  1  0
 16 17  1  0
 17 18  1  0
 17 19  1  0
 13 20  1  0
 10  2  1  0
  7  3  1  0
M  END
$$$$
