
     RDKit          3D

 20 21  0  0  0  0  0  0  0  0999 V2000
   -0.2799    1.3687   13.3905 C   0  0  0  0  0  0  0  0  0  0  0  0
    0.4766    0.5815   12.3848 C   0  0  0  0  0  0  0  0  0  0  0  0
   -0.1380    0.1364   11.2282 C   0  0  0  0  0  0  0  0  0  0  0  0
   -1.5501    0.2930   10.7274 C   0  0  0  0  0  0  0  0  0  0  0  0
   -1.3613    0.1968    9.2342 C   0  0  0  0  0  0  0  0  0  0  0  0
   -0.3296   -0.9375    9.1544 C   0  0  0  0  0  0  0  0  0  0  0  0
    0.5687   -0.5843   10.3141 C   0  0  0  0  0  0  0  0  0  0  0  0
    1.9346   -0.9036   10.5027 C   0  0  0  0  0  0  0  0  0  0  0  0
    2.4808   -0.4263   11.6813 C   0  0  0  0  0  0  0  0  0  0  0  0
    1.7955    0.3048   12.6252 C   0  0  0  0  0  0  0  0  0  0  0  0
    2.5428   -1.6123    9.5603 O   0  0  0  0  0  0  0  0  0  0  0  0
    3.5357   -2.4264    9.2337 C   0  0  0  0  0  0  0  0  0  0  0  0
    3.7123   -2.6547    7.7665 C   0  0  0  0  0  0  0  0  0  0  0  0
    5.1171   -3.1925    7.4547 C   0  0  0  0  0  0  0  0  0  0  0  0
    6.0559   -2.6242    8.4658 C   0  0  0  0  0  0  0  0  0  0  0  0
    5.0274   -4.6198    7.4564 N   0  0  0  0  0  0  0  0  0  0  0  0
    5.2156   -5.2319    6.1821 C   0  0  0  0  0  0  0  0  0  0  0  0
    4.1008   -4.8755    5.2262 C   0  0  0  0  0  0  0  0  0  0  0  0
    5.1517   -6.7441    6.3793 C   0  0  0  0  0  0  0  0  0  0  0  0
    3.4631   -1.5488    7.0254 O   0  0  0  0  0  0  0  0  0  0  0  0
  1  2  1  0
  2  3  2  0
  3  4  1  0
  4  5  1  0
  5  6  1  0
  6  7  1  0
  7  8  2  0
  8  9  1  0
  9 10  2  0
  8 11  1  0
 11 12  1  0
 12 13  1  0
 13 14  1  0
 14 15  1  0
 14 16  1  0
 16 17  1  0
 17 18  1  0
 17 19  1  0
 13 20  1  0
 10  2  1  0
  7  3  1  0
M  END
$$$$
