
     RDKit          3D

 20 21  0  0  0  0  0  0  0  0999 V2000
    6.2392   -5.1783    6.4110 C   0  0  0  0  0  0  0  0  0  0  0  0
    5.0954   -4.3422    6.8538 C   0  0  0  0  0  0  0  0  0  0  0  0
    4.9385   -4.0089    8.1871 C   0  0  0  0  0  0  0  0  0  0  0  0
    5.7598   -4.3516    9.4026 C   0  0  0  0  0  0  0  0  0  0  0  0
    5.4582   -3.1910   10.3172 C   0  0  0  0  0  0  0  0  0  0  0  0
    3.9521   -3.0233   10.0704 C   0  0  0  0  0  0  0  0  0  0  0  0
    3.8845   -3.2406    8.5788 C   0  0  0  0  0  0  0  0  0  0  0  0
    2.9228   -2.7593    7.6586 C   0  0  0  0  0  0  0  0  0  0  0  0
    3.1443   -3.1335    6.3447 C   0  0  0  0  0  0  0  0  0  0  0  0
    4.1985   -3.9077    5.9154 C   0  0  0  0  0  0  0  0  0  0  0  0
    1.9276   -2.0195    8.1302 O   0  0  0  0  0  0  0  0  0  0  0  0
    0.8413   -1.3055    7.8742 C   0  0  0  0  0  0  0  0  0  0  0  0
    0.0348   -0.9250    9.0745 C   0  0  0  0  0  0  0  0  0  0  0  0
    0.8080    0.0504    9.9750 C   0  0  0  0  0  0  0  0  0  0  0  0
    1.4859    1.0439    9.0917 C   0  0  0  0  0  0  0  0  0  0  0  0
   -0.1365    0.6101   10.8914 N   0  0  0  0  0  0  0  0  0  0  0  0
   -0.1032    0.0478   12.2016 C   0  0  0  0  0  0  0  0  0  0  0  0
   -1.3563    0.3786   12.9786 C   0  0  0  0  0  0  0  0  0  0  0  0
    1.0575    0.6929   12.9544 C   0  0  0  0  0  0  0  0  0  0  0  0
   -0.3779   -1.9949    9.7953 O   0  0  0  0  0  0  0  0  0  0  0  0
  1  2  1  0
  2  3  2  0
  3  4  1  0
  4  5  1  0
  5  6  1  0
  6  7  1  0
  7  8  2  0
  8  9  1  0
  9 10  2  0
  8 11  1  0
 11 12  1  0
 12 13  1  0
 13 14  1  0
 14 15  1  0
 14 16  1  0
 16 17  1  0
 17 18  1  0
 17 19  1  0
 13 20  1  0
 10  2  1  0
  7  3  1  0
M  END
$$$$
