
     RDKit          3D

 20 21  0  0  0  0  0  0  0  0999 V2000
    5.7306   -5.3554    5.9561 C   0  0  0  0  0  0  0  0  0  0  0  0
    4.9854   -4.5348    6.9434 C   0  0  0  0  0  0  0  0  0  0  0  0
    4.0204   -3.6345    6.5290 C   0  0  0  0  0  0  0  0  0  0  0  0
    3.5208   -3.2727    5.1546 C   0  0  0  0  0  0  0  0  0  0  0  0
    2.1177   -2.8043    5.4488 C   0  0  0  0  0  0  0  0  0  0  0  0
    2.3545   -1.9995    6.7347 C   0  0  0  0  0  0  0  0  0  0  0  0
    3.3443   -2.8888    7.4462 C   0  0  0  0  0  0  0  0  0  0  0  0
    3.5937   -2.9991    8.8349 C   0  0  0  0  0  0  0  0  0  0  0  0
    4.5716   -3.9178    9.1739 C   0  0  0  0  0  0  0  0  0  0  0  0
    5.2728   -4.6872    8.2730 C   0  0  0  0  0  0  0  0  0  0  0  0
    2.8888   -2.2310    9.6556 O   0  0  0  0  0  0  0  0  0  0  0  0
    2.7755   -1.6770   10.8538 C   0  0  0  0  0  0  0  0  0  0  0  0
    1.8160   -0.5332   10.9356 C   0  0  0  0  0  0  0  0  0  0  0  0
    0.3693   -1.0078   10.7305 C   0  0  0  0  0  0  0  0  0  0  0  0
    0.4144   -2.2767    9.9467 C   0  0  0  0  0  0  0  0  0  0  0  0
   -0.2189   -1.1262   12.0287 N   0  0  0  0  0  0  0  0  0  0  0  0
   -0.6652    0.1034   12.5969 C   0  0  0  0  0  0  0  0  0  0  0  0
   -0.8711   -0.0182   14.0890 C   0  0  0  0  0  0  0  0  0  0  0  0
   -2.0307    0.4244   11.9949 C   0  0  0  0  0  0  0  0  0  0  0  0
    2.1057    0.4635   10.0654 O   0  0  0  0  0  0  0  0  0  0  0  0
  1  2  1  0
  2  3  2  0
  3  4  1  0
  4  5  1  0
  5  6  1  0
  6  7  1  0
  7  8  2  0
  8  9  1  0
  9 10  2  0
  8 11  1  0
 11 12  1  0
 12 13  1  0
 13 14  1  0
 14 15  1  0
 14 16  1  0
 16 17  1  0
 17 18  1  0
 17 19  1  0
 13 20  1  0
 10  2  1  0
  7  3  1  0
M  END
$$$$
