
     RDKit          3D

 20 21  0  0  0  0  0  0  0  0999 V2000
    6.5461   -5.4997    6.8971 C   0  0  0  0  0  0  0  0  0  0  0  0
    5.4560   -4.5938    7.3382 C   0  0  0  0  0  0  0  0  0  0  0  0
    4.6162   -3.9973    6.4150 C   0  0  0  0  0  0  0  0  0  0  0  0
    4.5726   -4.0768    4.9113 C   0  0  0  0  0  0  0  0  0  0  0  0
    3.1196   -3.7883    4.6281 C   0  0  0  0  0  0  0  0  0  0  0  0
    2.8557   -2.6610    5.6365 C   0  0  0  0  0  0  0  0  0  0  0  0
    3.6199   -3.1689    6.8343 C   0  0  0  0  0  0  0  0  0  0  0  0
    3.4041   -2.8871    8.2044 C   0  0  0  0  0  0  0  0  0  0  0  0
    4.2825   -3.5178    9.0681 C   0  0  0  0  0  0  0  0  0  0  0  0
    5.2987   -4.3606    8.6779 C   0  0  0  0  0  0  0  0  0  0  0  0
    2.4111   -2.0661    8.5208 O   0  0  0  0  0  0  0  0  0  0  0  0
    1.8189   -1.3257    9.4463 C   0  0  0  0  0  0  0  0  0  0  0  0
    0.9315   -0.2432    8.9207 C   0  0  0  0  0  0  0  0  0  0  0  0
   -0.0002    0.2916   10.0189 C   0  0  0  0  0  0  0  0  0  0  0  0
   -0.8743    1.3337    9.4052 C   0  0  0  0  0  0  0  0  0  0  0  0
   -0.6984   -0.8340   10.5583 N   0  0  0  0  0  0  0  0  0  0  0  0
   -0.1562   -1.3471   11.7735 C   0  0  0  0  0  0  0  0  0  0  0  0
   -0.8828   -2.5940   12.2214 C   0  0  0  0  0  0  0  0  0  0  0  0
   -0.3806   -0.2996   12.8608 C   0  0  0  0  0  0  0  0  0  0  0  0
    0.2064   -0.6298    7.8440 O   0  0  0  0  0  0  0  0  0  0  0  0
  1  2  1  0
  2  3  2  0
  3  4  1  0
  4  5  1  0
  5  6  1  0
  6  7  1  0
  7  8  2  0
  8  9  1  0
  9 10  2  0
  8 11  1  0
 11 12  1  0
 12 13  1  0
 13 14  1  0
 14 15  1  0
 14 16  1  0
 16 17  1  0
 17 18  1  0
 17 19  1  0
 13 20  1  0
 10  2  1  0
  7  3  1  0
M  END
$$$$
