
     RDKit          3D

 20 21  0  0  0  0  0  0  0  0999 V2000
    6.4445   -5.5171    6.8495 C   0  0  0  0  0  0  0  0  0  0  0  0
    5.3714   -4.6547    7.4048 C   0  0  0  0  0  0  0  0  0  0  0  0
    4.5023   -3.9802    6.5663 C   0  0  0  0  0  0  0  0  0  0  0  0
    4.4083   -3.9272    5.0637 C   0  0  0  0  0  0  0  0  0  0  0  0
    2.9472   -3.6166    4.8558 C   0  0  0  0  0  0  0  0  0  0  0  0
    2.7193   -2.5826    5.9677 C   0  0  0  0  0  0  0  0  0  0  0  0
    3.5222   -3.1930    7.0899 C   0  0  0  0  0  0  0  0  0  0  0  0
    3.3528   -3.0331    8.4859 C   0  0  0  0  0  0  0  0  0  0  0  0
    4.2584   -3.7365    9.2609 C   0  0  0  0  0  0  0  0  0  0  0  0
    5.2594   -4.5405    8.7643 C   0  0  0  0  0  0  0  0  0  0  0  0
    2.3724   -2.2443    8.9064 O   0  0  0  0  0  0  0  0  0  0  0  0
    1.5758   -1.8763    9.8991 C   0  0  0  0  0  0  0  0  0  0  0  0
    0.9632   -0.5203    9.7515 C   0  0  0  0  0  0  0  0  0  0  0  0
    0.4747    0.0173   11.1051 C   0  0  0  0  0  0  0  0  0  0  0  0
    1.1488    1.3270   11.3437 C   0  0  0  0  0  0  0  0  0  0  0  0
   -0.9524    0.0817   11.0380 N   0  0  0  0  0  0  0  0  0  0  0  0
   -1.6120   -1.1801   11.1199 C   0  0  0  0  0  0  0  0  0  0  0  0
   -3.1111   -1.0303   11.0031 C   0  0  0  0  0  0  0  0  0  0  0  0
   -1.3400   -1.7570   12.5067 C   0  0  0  0  0  0  0  0  0  0  0  0
   -0.0460   -0.4914    8.8485 O   0  0  0  0  0  0  0  0  0  0  0  0
  1  2  1  0
  2  3  2  0
  3  4  1  0
  4  5  1  0
  5  6  1  0
  6  7  1  0
  7  8  2  0
  8  9  1  0
  9 10  2  0
  8 11  1  0
 11 12  1  0
 12 13  1  0
 13 14  1  0
 14 15  1  0
 14 16  1  0
 16 17  1  0
 17 18  1  0
 17 19  1  0
 13 20  1  0
 10  2  1  0
  7  3  1  0
M  END
$$$$
