
     RDKit          3D

 20 21  0  0  0  0  0  0  0  0999 V2000
    6.2927   -5.0571    5.8548 C   0  0  0  0  0  0  0  0  0  0  0  0
    5.2156   -4.3043    6.5452 C   0  0  0  0  0  0  0  0  0  0  0  0
    5.2345   -4.1442    7.9191 C   0  0  0  0  0  0  0  0  0  0  0  0
    6.2087   -4.6222    8.9639 C   0  0  0  0  0  0  0  0  0  0  0  0
    6.0280   -3.5915   10.0500 C   0  0  0  0  0  0  0  0  0  0  0  0
    4.5023   -3.4214   10.0244 C   0  0  0  0  0  0  0  0  0  0  0  0
    4.2399   -3.4506    8.5388 C   0  0  0  0  0  0  0  0  0  0  0  0
    3.1650   -2.8750    7.8201 C   0  0  0  0  0  0  0  0  0  0  0  0
    3.2127   -3.0768    6.4517 C   0  0  0  0  0  0  0  0  0  0  0  0
    4.2027   -3.7716    5.7942 C   0  0  0  0  0  0  0  0  0  0  0  0
    2.2392   -2.2185    8.5071 O   0  0  0  0  0  0  0  0  0  0  0  0
    0.9949   -1.7673    8.5660 C   0  0  0  0  0  0  0  0  0  0  0  0
    0.4857   -1.4884    9.9439 C   0  0  0  0  0  0  0  0  0  0  0  0
    1.1136   -0.2094   10.5183 C   0  0  0  0  0  0  0  0  0  0  0  0
    0.7310    0.9244    9.6268 C   0  0  0  0  0  0  0  0  0  0  0  0
    0.6567   -0.0903   11.8683 N   0  0  0  0  0  0  0  0  0  0  0  0
   -0.7276    0.2247   12.0049 C   0  0  0  0  0  0  0  0  0  0  0  0
   -0.9453    1.7127   12.1524 C   0  0  0  0  0  0  0  0  0  0  0  0
   -1.2243   -0.4170   13.2978 C   0  0  0  0  0  0  0  0  0  0  0  0
    0.6755   -2.5229   10.7974 O   0  0  0  0  0  0  0  0  0  0  0  0
  1  2  1  0
  2  3  2  0
  3  4  1  0
  4  5  1  0
  5  6  1  0
  6  7  1  0
  7  8  2  0
  8  9  1  0
  9 10  2  0
  8 11  1  0
 11 12  1  0
 12 13  1  0
 13 14  1  0
 14 15  1  0
 14 16  1  0
 16 17  1  0
 17 18  1  0
 17 19  1  0
 13 20  1  0
 10  2  1  0
  7  3  1  0
M  END
$$$$
