
     RDKit          3D

 20 21  0  0  0  0  0  0  0  0999 V2000
    6.2821   -5.6626    7.0316 C   0  0  0  0  0  0  0  0  0  0  0  0
    5.2200   -4.7414    7.5080 C   0  0  0  0  0  0  0  0  0  0  0  0
    4.4033   -4.0797    6.6089 C   0  0  0  0  0  0  0  0  0  0  0  0
    4.3627   -4.0943    5.1031 C   0  0  0  0  0  0  0  0  0  0  0  0
    2.9208   -3.7474    4.8289 C   0  0  0  0  0  0  0  0  0  0  0  0
    2.6896   -2.6557    5.8834 C   0  0  0  0  0  0  0  0  0  0  0  0
    3.4326   -3.2380    7.0605 C   0  0  0  0  0  0  0  0  0  0  0  0
    3.2209   -3.0074    8.4407 C   0  0  0  0  0  0  0  0  0  0  0  0
    4.0753   -3.7021    9.2791 C   0  0  0  0  0  0  0  0  0  0  0  0
    5.0653   -4.5600    8.8560 C   0  0  0  0  0  0  0  0  0  0  0  0
    2.2536   -2.1689    8.7893 O   0  0  0  0  0  0  0  0  0  0  0  0
    1.5511   -1.6086    9.7629 C   0  0  0  0  0  0  0  0  0  0  0  0
    0.5691   -0.5713    9.3207 C   0  0  0  0  0  0  0  0  0  0  0  0
   -0.6041   -0.4631   10.3065 C   0  0  0  0  0  0  0  0  0  0  0  0
   -1.4691   -1.6642   10.1168 C   0  0  0  0  0  0  0  0  0  0  0  0
   -0.0397   -0.3320   11.6140 N   0  0  0  0  0  0  0  0  0  0  0  0
   -0.1261    0.9770   12.1735 C   0  0  0  0  0  0  0  0  0  0  0  0
    1.0793    1.8141   11.8134 C   0  0  0  0  0  0  0  0  0  0  0  0
   -0.1169    0.8339   13.6932 C   0  0  0  0  0  0  0  0  0  0  0  0
    0.1040   -0.7840    8.0665 O   0  0  0  0  0  0  0  0  0  0  0  0
  1  2  1  0
  2  3  2  0
  3  4  1  0
  4  5  1  0
  5  6  1  0
  6  7  1  0
  7  8  2  0
  8  9  1  0
  9 10  2  0
  8 11  1  0
 11 12  1  0
 12 13  1  0
 13 14  1  0
 14 15  1  0
 14 16  1  0
 16 17  1  0
 17 18  1  0
 17 19  1  0
 13 20  1  0
 10  2  1  0
  7  3  1  0
M  END
$$$$
