
     RDKit          3D

 20 21  0  0  0  0  0  0  0  0999 V2000
    5.9171   -5.3395    5.9177 C   0  0  0  0  0  0  0  0  0  0  0  0
    5.0027   -4.5295    6.7612 C   0  0  0  0  0  0  0  0  0  0  0  0
    4.0033   -3.7650    6.1867 C   0  0  0  0  0  0  0  0  0  0  0  0
    3.6117   -3.5570    4.7470 C   0  0  0  0  0  0  0  0  0  0  0  0
    2.1483   -3.2141    4.8708 C   0  0  0  0  0  0  0  0  0  0  0  0
    2.1780   -2.2979    6.1025 C   0  0  0  0  0  0  0  0  0  0  0  0
    3.1714   -3.0273    6.9731 C   0  0  0  0  0  0  0  0  0  0  0  0
    3.2900   -3.0103    8.3833 C   0  0  0  0  0  0  0  0  0  0  0  0
    4.3115   -3.7973    8.8856 C   0  0  0  0  0  0  0  0  0  0  0  0
    5.1688   -4.5547    8.1197 C   0  0  0  0  0  0  0  0  0  0  0  0
    2.4371   -2.2605    9.0694 O   0  0  0  0  0  0  0  0  0  0  0  0
    1.9508   -1.9090   10.2506 C   0  0  0  0  0  0  0  0  0  0  0  0
    0.8935   -0.8524   10.2125 C   0  0  0  0  0  0  0  0  0  0  0  0
    0.2348   -0.6778   11.5894 C   0  0  0  0  0  0  0  0  0  0  0  0
    1.2949   -0.8505   12.6252 C   0  0  0  0  0  0  0  0  0  0  0  0
   -0.3991    0.6042   11.5890 N   0  0  0  0  0  0  0  0  0  0  0  0
   -1.7077    0.6236   11.0223 C   0  0  0  0  0  0  0  0  0  0  0  0
   -2.1517    2.0319   10.7015 C   0  0  0  0  0  0  0  0  0  0  0  0
   -2.6772    0.0917   12.0745 C   0  0  0  0  0  0  0  0  0  0  0  0
   -0.0523   -1.0844    9.2711 O   0  0  0  0  0  0  0  0  0  0  0  0
  1  2  1  0
  2  3  2  0
  3  4  1  0
  4  5  1  0
  5  6  1  0
  6  7  1  0
  7  8  2  0
  8  9  1  0
  9 10  2  0
  8 11  1  0
 11 12  1  0
 12 13  1  0
 13 14  1  0
 14 15  1  0
 14 16  1  0
 16 17  1  0
 17 18  1  0
 17 19  1  0
 13 20  1  0
 10  2  1  0
  7  3  1  0
M  END
$$$$
