
     RDKit          3D

 20 21  0  0  0  0  0  0  0  0999 V2000
    5.9077   -5.4262    5.7890 C   0  0  0  0  0  0  0  0  0  0  0  0
    5.3515   -4.4668    6.7757 C   0  0  0  0  0  0  0  0  0  0  0  0
    4.4514   -3.4924    6.3836 C   0  0  0  0  0  0  0  0  0  0  0  0
    3.8629   -3.1647    5.0362 C   0  0  0  0  0  0  0  0  0  0  0  0
    2.5518   -2.5249    5.4184 C   0  0  0  0  0  0  0  0  0  0  0  0
    2.9944   -1.6719    6.6158 C   0  0  0  0  0  0  0  0  0  0  0  0
    3.9489   -2.6193    7.3000 C   0  0  0  0  0  0  0  0  0  0  0  0
    4.3176   -2.6688    8.6655 C   0  0  0  0  0  0  0  0  0  0  0  0
    5.2214   -3.6677    8.9829 C   0  0  0  0  0  0  0  0  0  0  0  0
    5.7477   -4.5660    8.0822 C   0  0  0  0  0  0  0  0  0  0  0  0
    3.7798   -1.7765    9.4869 O   0  0  0  0  0  0  0  0  0  0  0  0
    3.6931   -1.2931   10.7175 C   0  0  0  0  0  0  0  0  0  0  0  0
    2.8132   -0.0935   10.8674 C   0  0  0  0  0  0  0  0  0  0  0  0
    1.5939   -0.4072   11.7478 C   0  0  0  0  0  0  0  0  0  0  0  0
    1.3927    0.7464   12.6727 C   0  0  0  0  0  0  0  0  0  0  0  0
    0.4981   -0.6661   10.8660 N   0  0  0  0  0  0  0  0  0  0  0  0
    0.6066   -1.8749   10.1170 C   0  0  0  0  0  0  0  0  0  0  0  0
   -0.4045   -1.9241    8.9951 C   0  0  0  0  0  0  0  0  0  0  0  0
    0.2728   -3.0330   11.0536 C   0  0  0  0  0  0  0  0  0  0  0  0
    2.4094    0.4179    9.6799 O   0  0  0  0  0  0  0  0  0  0  0  0
  1  2  1  0
  2  3  2  0
  3  4  1  0
  4  5  1  0
  5  6  1  0
  6  7  1  0
  7  8  2  0
  8  9  1  0
  9 10  2  0
  8 11  1  0
 11 12  1  0
 12 13  1  0
 13 14  1  0
 14 15  1  0
 14 16  1  0
 16 17  1  0
 17 18  1  0
 17 19  1  0
 13 20  1  0
 10  2  1  0
  7  3  1  0
M  END
$$$$
