
     RDKit          3D

 20 21  0  0  0  0  0  0  0  0999 V2000
    6.1510   -5.0791    6.1220 C   0  0  0  0  0  0  0  0  0  0  0  0
    5.0582   -4.2300    6.6589 C   0  0  0  0  0  0  0  0  0  0  0  0
    4.9854   -3.9432    8.0102 C   0  0  0  0  0  0  0  0  0  0  0  0
    5.8628   -4.3536    9.1639 C   0  0  0  0  0  0  0  0  0  0  0  0
    5.6463   -3.2208   10.1357 C   0  0  0  0  0  0  0  0  0  0  0  0
    4.1343   -3.0035    9.9808 C   0  0  0  0  0  0  0  0  0  0  0  0
    3.9775   -3.1623    8.4885 C   0  0  0  0  0  0  0  0  0  0  0  0
    2.9805   -2.6209    7.6424 C   0  0  0  0  0  0  0  0  0  0  0  0
    3.1176   -2.9509    6.3053 C   0  0  0  0  0  0  0  0  0  0  0  0
    4.1235   -3.7363    5.7892 C   0  0  0  0  0  0  0  0  0  0  0  0
    2.0348   -1.8730    8.1961 O   0  0  0  0  0  0  0  0  0  0  0  0
    0.9118   -1.1875    8.0406 C   0  0  0  0  0  0  0  0  0  0  0  0
    0.1420   -0.9374    9.2979 C   0  0  0  0  0  0  0  0  0  0  0  0
    0.8779    0.0561   10.2098 C   0  0  0  0  0  0  0  0  0  0  0  0
    1.7174    0.9330    9.3422 C   0  0  0  0  0  0  0  0  0  0  0  0
   -0.1202    0.7436   10.9690 N   0  0  0  0  0  0  0  0  0  0  0  0
   -0.4888    0.1040   12.1892 C   0  0  0  0  0  0  0  0  0  0  0  0
   -1.7731    0.6724   12.7468 C   0  0  0  0  0  0  0  0  0  0  0  0
    0.5999    0.4017   13.2168 C   0  0  0  0  0  0  0  0  0  0  0  0
   -0.1401   -2.0730    9.9801 O   0  0  0  0  0  0  0  0  0  0  0  0
  1  2  1  0
  2  3  2  0
  3  4  1  0
  4  5  1  0
  5  6  1  0
  6  7  1  0
  7  8  2  0
  8  9  1  0
  9 10  2  0
  8 11  1  0
 11 12  1  0
 12 13  1  0
 13 14  1  0
 14 15  1  0
 14 16  1  0
 16 17  1  0
 17 18  1  0
 17 19  1  0
 13 20  1  0
 10  2  1  0
  7  3  1  0
M  END
$$$$
