
     RDKit          3D

 20 21  0  0  0  0  0  0  0  0999 V2000
    6.1494   -5.5090    6.1372 C   0  0  0  0  0  0  0  0  0  0  0  0
    5.3241   -4.5944    6.9654 C   0  0  0  0  0  0  0  0  0  0  0  0
    4.3782   -3.7718    6.3805 C   0  0  0  0  0  0  0  0  0  0  0  0
    3.9725   -3.5869    4.9415 C   0  0  0  0  0  0  0  0  0  0  0  0
    2.5455   -3.1190    5.0800 C   0  0  0  0  0  0  0  0  0  0  0  0
    2.6785   -2.1623    6.2735 C   0  0  0  0  0  0  0  0  0  0  0  0
    3.6278   -2.9382    7.1529 C   0  0  0  0  0  0  0  0  0  0  0  0
    3.7793   -2.8775    8.5588 C   0  0  0  0  0  0  0  0  0  0  0  0
    4.7437   -3.7270    9.0721 C   0  0  0  0  0  0  0  0  0  0  0  0
    5.5182   -4.5816    8.3203 C   0  0  0  0  0  0  0  0  0  0  0  0
    3.0068   -2.0338    9.2309 O   0  0  0  0  0  0  0  0  0  0  0  0
    2.5498   -1.6228   10.4046 C   0  0  0  0  0  0  0  0  0  0  0  0
    1.9309   -0.2616   10.4031 C   0  0  0  0  0  0  0  0  0  0  0  0
    1.0189   -0.0663   11.6238 C   0  0  0  0  0  0  0  0  0  0  0  0
    1.4535    1.1795   12.3208 C   0  0  0  0  0  0  0  0  0  0  0  0
   -0.3267   -0.0433   11.1398 N   0  0  0  0  0  0  0  0  0  0  0  0
   -0.8782   -1.3255   10.8469 C   0  0  0  0  0  0  0  0  0  0  0  0
   -2.2503   -1.2094   10.2244 C   0  0  0  0  0  0  0  0  0  0  0  0
   -1.0627   -2.0648   12.1695 C   0  0  0  0  0  0  0  0  0  0  0  0
    1.2478    0.0075    9.2649 O   0  0  0  0  0  0  0  0  0  0  0  0
  1  2  1  0
  2  3  2  0
  3  4  1  0
  4  5  1  0
  5  6  1  0
  6  7  1  0
  7  8  2  0
  8  9  1  0
  9 10  2  0
  8 11  1  0
 11 12  1  0
 12 13  1  0
 13 14  1  0
 14 15  1  0
 14 16  1  0
 16 17  1  0
 17 18  1  0
 17 19  1  0
 13 20  1  0
 10  2  1  0
  7  3  1  0
M  END
$$$$
