
     RDKit          3D

 22 23  0  0  0  0  0  0  0  0999 V2000
   -7.6052    2.1052    7.6149 C   0  0  0  0  0  0  0  0  0  0  0  0
   -7.1175    2.5958    6.2794 C   0  0  0  0  0  0  0  0  0  0  0  0
   -6.1876    2.0025    5.6164 C   0  0  0  0  0  0  0  0  0  0  0  0
   -5.7276    2.5488    4.2376 C   0  0  0  0  0  0  0  0  0  0  0  0
   -6.7943    3.4043    3.6651 C   0  0  0  0  0  0  0  0  0  0  0  0
   -7.1900    4.4878    4.6665 C   0  0  0  0  0  0  0  0  0  0  0  0
   -7.8443    3.8378    5.8057 C   0  0  0  0  0  0  0  0  0  0  0  0
   -4.4930    3.3713    4.4839 C   0  0  0  0  0  0  0  0  0  0  0  0
   -5.4746    1.3856    3.3223 C   0  0  0  0  0  0  0  0  0  0  0  0
   -5.4438    0.8318    6.0497 C   0  0  0  0  0  0  0  0  0  0  0  0
   -4.7264    0.4223    6.9535 C   0  0  0  0  0  0  0  0  0  0  0  0
   -3.9238   -0.0370    7.9655 C   0  0  0  0  0  0  0  0  0  0  0  0
   -3.2115   -0.4448    8.8640 C   0  0  0  0  0  0  0  0  0  0  0  0
   -2.1718    0.6175    9.3654 C   0  0  0  0  0  0  0  0  0  0  0  0
   -0.8431    0.1310    8.9027 C   0  0  0  0  0  0  0  0  0  0  0  0
   -0.6025   -1.2412    9.3722 C   0  0  0  0  0  0  0  0  0  0  0  0
    0.6405   -1.6887    9.4205 C   0  0  0  0  0  0  0  0  0  0  0  0
    1.3810   -1.7103   10.6607 C   0  0  0  0  0  0  0  0  0  0  0  0
    1.6531   -0.6074   11.2113 O   0  0  0  0  0  0  0  0  0  0  0  0
   -1.7309   -2.0888    9.7667 C   0  0  0  0  0  0  0  0  0  0  0  0
   -3.0039   -1.7285    9.5328 C   0  0  0  0  0  0  0  0  0  0  0  0
   -5.1188    0.5674    9.2431 C   0  0  0  0  0  0  0  0  0  0  0  0
  1  2  1  0
  2  3  2  0
  3  4  1  0
  4  5  1  0
  5  6  1  0
  6  7  1  0
  4  8  1  0
  4  9  1  0
  3 10  1  0
 10 11  2  3
 11 12  1  0
 12 13  2  3
 13 14  1  0
 14 15  1  0
 15 16  1  0
 16 17  2  3
 17 18  1  0
 18 19  2  0
 16 20  1  0
 20 21  2  0
 12 22  1  0
  7  2  1  0
 21 13  1  0
M  END
$$$$
