
     RDKit          3D

 22 23  0  0  0  0  0  0  0  0999 V2000
   -8.1920    1.0995    6.0372 C   0  0  0  0  0  0  0  0  0  0  0  0
   -7.3331    1.5154    7.1996 C   0  0  0  0  0  0  0  0  0  0  0  0
   -6.0896    1.1980    7.2958 C   0  0  0  0  0  0  0  0  0  0  0  0
   -5.2472    1.6609    8.5152 C   0  0  0  0  0  0  0  0  0  0  0  0
   -5.8972    2.8337    9.1473 C   0  0  0  0  0  0  0  0  0  0  0  0
   -7.3525    2.5094    9.4795 C   0  0  0  0  0  0  0  0  0  0  0  0
   -8.0825    2.3491    8.2186 C   0  0  0  0  0  0  0  0  0  0  0  0
   -5.2159    0.5122    9.4853 C   0  0  0  0  0  0  0  0  0  0  0  0
   -3.8789    2.0476    8.0325 C   0  0  0  0  0  0  0  0  0  0  0  0
   -5.3438    0.3737    6.3597 C   0  0  0  0  0  0  0  0  0  0  0  0
   -4.7561    0.4200    5.2866 C   0  0  0  0  0  0  0  0  0  0  0  0
   -4.0972    0.4722    4.0856 C   0  0  0  0  0  0  0  0  0  0  0  0
   -3.5122    0.5184    3.0194 C   0  0  0  0  0  0  0  0  0  0  0  0
   -3.9970    1.6880    2.0932 C   0  0  0  0  0  0  0  0  0  0  0  0
   -4.7356    1.0379    0.9759 C   0  0  0  0  0  0  0  0  0  0  0  0
   -3.8918    0.0323    0.3141 C   0  0  0  0  0  0  0  0  0  0  0  0
   -4.1998   -0.3485   -0.9138 C   0  0  0  0  0  0  0  0  0  0  0  0
   -3.2089   -0.9332   -1.7873 C   0  0  0  0  0  0  0  0  0  0  0  0
   -2.7408   -2.0656   -1.4836 O   0  0  0  0  0  0  0  0  0  0  0  0
   -2.7394   -0.5356    1.0190 C   0  0  0  0  0  0  0  0  0  0  0  0
   -2.5312   -0.3171    2.3282 C   0  0  0  0  0  0  0  0  0  0  0  0
   -3.1553   -1.0692    4.4884 C   0  0  0  0  0  0  0  0  0  0  0  0
  1  2  1  0
  2  3  2  0
  3  4  1  0
  4  5  1  0
  5  6  1  0
  6  7  1  0
  4  8  1  0
  4  9  1  0
  3 10  1  0
 10 11  2  3
 11 12  1  0
 12 13  2  3
 13 14  1  0
 14 15  1  0
 15 16  1  0
 16 17  2  3
 17 18  1  0
 18 19  2  0
 16 20  1  0
 20 21  2  0
 12 22  1  0
  7  2  1  0
 21 13  1  0
M  END
$$$$
