
     RDKit          3D

 22 23  0  0  0  0  0  0  0  0999 V2000
   -4.8377    1.9821    2.8987 C   0  0  0  0  0  0  0  0  0  0  0  0
   -5.7359    2.4058    4.0283 C   0  0  0  0  0  0  0  0  0  0  0  0
   -5.7282    1.8287    5.1786 C   0  0  0  0  0  0  0  0  0  0  0  0
   -6.6725    2.3122    6.3124 C   0  0  0  0  0  0  0  0  0  0  0  0
   -7.0944    3.7073    6.0416 C   0  0  0  0  0  0  0  0  0  0  0  0
   -7.6955    3.8097    4.6411 C   0  0  0  0  0  0  0  0  0  0  0  0
   -6.6240    3.5790    3.6678 C   0  0  0  0  0  0  0  0  0  0  0  0
   -7.8723    1.4058    6.2974 C   0  0  0  0  0  0  0  0  0  0  0  0
   -5.9242    2.2599    7.6132 C   0  0  0  0  0  0  0  0  0  0  0  0
   -4.9182    0.6818    5.5531 C   0  0  0  0  0  0  0  0  0  0  0  0
   -4.2023    0.2557    6.4505 C   0  0  0  0  0  0  0  0  0  0  0  0
   -3.4007   -0.2203    7.4555 C   0  0  0  0  0  0  0  0  0  0  0  0
   -2.6891   -0.6430    8.3477 C   0  0  0  0  0  0  0  0  0  0  0  0
   -1.9953    0.4906    9.1809 C   0  0  0  0  0  0  0  0  0  0  0  0
   -0.5524    0.4315    8.8192 C   0  0  0  0  0  0  0  0  0  0  0  0
   -0.0176   -0.9192    9.0447 C   0  0  0  0  0  0  0  0  0  0  0  0
    1.2889   -1.0729    9.1755 C   0  0  0  0  0  0  0  0  0  0  0  0
    1.9637   -0.7319   10.4064 C   0  0  0  0  0  0  0  0  0  0  0  0
    2.4022   -1.6722   11.1256 O   0  0  0  0  0  0  0  0  0  0  0  0
   -0.9277   -2.0658    9.1113 C   0  0  0  0  0  0  0  0  0  0  0  0
   -2.2253   -1.9609    8.7793 C   0  0  0  0  0  0  0  0  0  0  0  0
   -3.2051   -1.8429    6.5870 C   0  0  0  0  0  0  0  0  0  0  0  0
  1  2  1  0
  2  3  2  0
  3  4  1  0
  4  5  1  0
  5  6  1  0
  6  7  1  0
  4  8  1  0
  4  9  1  0
  3 10  1  0
 10 11  2  3
 11 12  1  0
 12 13  2  3
 13 14  1  0
 14 15  1  0
 15 16  1  0
 16 17  2  3
 17 18  1  0
 18 19  2  0
 16 20  1  0
 20 21  2  0
 12 22  1  0
  7  2  1  0
 21 13  1  0
M  END
$$$$
