
     RDKit          3D

 22 23  0  0  0  0  0  0  0  0999 V2000
   -4.1049    0.7367    9.2041 C   0  0  0  0  0  0  0  0  0  0  0  0
   -5.3543    1.4190    8.7189 C   0  0  0  0  0  0  0  0  0  0  0  0
   -5.4964    1.8345    7.5091 C   0  0  0  0  0  0  0  0  0  0  0  0
   -6.8118    2.5264    7.0598 C   0  0  0  0  0  0  0  0  0  0  0  0
   -7.9074    2.1517    7.9854 C   0  0  0  0  0  0  0  0  0  0  0  0
   -7.5018    2.4554    9.4264 C   0  0  0  0  0  0  0  0  0  0  0  0
   -6.4136    1.5451    9.7946 C   0  0  0  0  0  0  0  0  0  0  0  0
   -6.5710    4.0092    7.1301 C   0  0  0  0  0  0  0  0  0  0  0  0
   -7.1480    2.0602    5.6726 C   0  0  0  0  0  0  0  0  0  0  0  0
   -4.4947    1.7634    6.4587 C   0  0  0  0  0  0  0  0  0  0  0  0
   -4.3672    1.5728    5.2560 C   0  0  0  0  0  0  0  0  0  0  0  0
   -4.2255    1.3593    3.9093 C   0  0  0  0  0  0  0  0  0  0  0  0
   -4.0996    1.1698    2.7137 C   0  0  0  0  0  0  0  0  0  0  0  0
   -4.9798   -0.0112    2.1742 C   0  0  0  0  0  0  0  0  0  0  0  0
   -4.0264   -1.1040    1.8379 C   0  0  0  0  0  0  0  0  0  0  0  0
   -2.9962   -0.6228    0.9059 C   0  0  0  0  0  0  0  0  0  0  0  0
   -2.3255   -1.5066    0.1870 C   0  0  0  0  0  0  0  0  0  0  0  0
   -1.9005   -1.2078   -1.1609 C   0  0  0  0  0  0  0  0  0  0  0  0
   -2.7889   -1.0316   -2.0404 O   0  0  0  0  0  0  0  0  0  0  0  0
   -2.7223    0.8123    0.7941 C   0  0  0  0  0  0  0  0  0  0  0  0
   -3.2426    1.7025    1.6554 C   0  0  0  0  0  0  0  0  0  0  0  0
   -3.5171    3.0528    3.6735 C   0  0  0  0  0  0  0  0  0  0  0  0
  1  2  1  0
  2  3  2  0
  3  4  1  0
  4  5  1  0
  5  6  1  0
  6  7  1  0
  4  8  1  0
  4  9  1  0
  3 10  1  0
 10 11  2  3
 11 12  1  0
 12 13  2  3
 13 14  1  0
 14 15  1  0
 15 16  1  0
 16 17  2  3
 17 18  1  0
 18 19  2  0
 16 20  1  0
 20 21  2  0
 12 22  1  0
  7  2  1  0
 21 13  1  0
M  END
$$$$
