
     RDKit          3D

 22 23  0  0  0  0  0  0  0  0999 V2000
   -5.6351    2.4286    7.6068 C   0  0  0  0  0  0  0  0  0  0  0  0
   -6.6126    2.6945    6.4951 C   0  0  0  0  0  0  0  0  0  0  0  0
   -6.4469    2.2472    5.2998 C   0  0  0  0  0  0  0  0  0  0  0  0
   -7.4924    2.5459    4.1914 C   0  0  0  0  0  0  0  0  0  0  0  0
   -8.7899    2.8939    4.8180 C   0  0  0  0  0  0  0  0  0  0  0  0
   -8.5989    4.0308    5.8202 C   0  0  0  0  0  0  0  0  0  0  0  0
   -7.8014    3.5216    6.9397 C   0  0  0  0  0  0  0  0  0  0  0  0
   -6.9744    3.7205    3.4081 C   0  0  0  0  0  0  0  0  0  0  0  0
   -7.6591    1.3158    3.3467 C   0  0  0  0  0  0  0  0  0  0  0  0
   -5.3070    1.4808    4.8253 C   0  0  0  0  0  0  0  0  0  0  0  0
   -4.3084    0.8904    5.2172 C   0  0  0  0  0  0  0  0  0  0  0  0
   -3.1908    0.2285    5.6556 C   0  0  0  0  0  0  0  0  0  0  0  0
   -2.1987   -0.3590    6.0448 C   0  0  0  0  0  0  0  0  0  0  0  0
   -2.5131   -1.7562    6.6848 C   0  0  0  0  0  0  0  0  0  0  0  0
   -2.2569   -1.5988    8.1428 C   0  0  0  0  0  0  0  0  0  0  0  0
   -0.8933   -1.1023    8.3776 C   0  0  0  0  0  0  0  0  0  0  0  0
   -0.3465   -1.2823    9.5678 C   0  0  0  0  0  0  0  0  0  0  0  0
    0.8534   -0.5773    9.9550 C   0  0  0  0  0  0  0  0  0  0  0  0
    1.8938   -1.2541   10.1859 O   0  0  0  0  0  0  0  0  0  0  0  0
   -0.1696   -0.4138    7.3055 C   0  0  0  0  0  0  0  0  0  0  0  0
   -0.7763   -0.0420    6.1659 C   0  0  0  0  0  0  0  0  0  0  0  0
   -2.1040    1.6325    5.1331 C   0  0  0  0  0  0  0  0  0  0  0  0
  1  2  1  0
  2  3  2  0
  3  4  1  0
  4  5  1  0
  5  6  1  0
  6  7  1  0
  4  8  1  0
  4  9  1  0
  3 10  1  0
 10 11  2  3
 11 12  1  0
 12 13  2  3
 13 14  1  0
 14 15  1  0
 15 16  1  0
 16 17  2  3
 17 18  1  0
 18 19  2  0
 16 20  1  0
 20 21  2  0
 12 22  1  0
  7  2  1  0
 21 13  1  0
M  END
$$$$
