
     RDKit          3D

 22 23  0  0  0  0  0  0  0  0999 V2000
   -6.3869    1.2729    9.0999 C   0  0  0  0  0  0  0  0  0  0  0  0
   -7.2007    1.9721    8.0458 C   0  0  0  0  0  0  0  0  0  0  0  0
   -6.7690    2.1702    6.8497 C   0  0  0  0  0  0  0  0  0  0  0  0
   -7.6550    2.8917    5.7984 C   0  0  0  0  0  0  0  0  0  0  0  0
   -9.0773    2.8009    6.2061 C   0  0  0  0  0  0  0  0  0  0  0  0
   -9.2474    3.3233    7.6314 C   0  0  0  0  0  0  0  0  0  0  0  0
   -8.5687    2.3952    8.5406 C   0  0  0  0  0  0  0  0  0  0  0  0
   -7.2225    4.3318    5.7777 C   0  0  0  0  0  0  0  0  0  0  0  0
   -7.4712    2.2135    4.4714 C   0  0  0  0  0  0  0  0  0  0  0  0
   -5.4539    1.8112    6.3462 C   0  0  0  0  0  0  0  0  0  0  0  0
   -4.5137    1.0542    6.5518 C   0  0  0  0  0  0  0  0  0  0  0  0
   -3.4615    0.2064    6.7828 C   0  0  0  0  0  0  0  0  0  0  0  0
   -2.5274   -0.5462    6.9878 C   0  0  0  0  0  0  0  0  0  0  0  0
   -2.6615   -1.3554    8.3250 C   0  0  0  0  0  0  0  0  0  0  0  0
   -1.6302   -0.7948    9.2408 C   0  0  0  0  0  0  0  0  0  0  0  0
   -0.3006   -0.8464    8.6158 C   0  0  0  0  0  0  0  0  0  0  0  0
    0.7693   -0.7842    9.3897 C   0  0  0  0  0  0  0  0  0  0  0  0
    1.9750   -1.5088    9.0605 C   0  0  0  0  0  0  0  0  0  0  0  0
    1.9258   -2.7701    9.0427 O   0  0  0  0  0  0  0  0  0  0  0  0
   -0.1794   -0.9550    7.1595 C   0  0  0  0  0  0  0  0  0  0  0  0
   -1.2404   -0.8136    6.3474 C   0  0  0  0  0  0  0  0  0  0  0  0
   -2.6358    0.7370    5.2137 C   0  0  0  0  0  0  0  0  0  0  0  0
  1  2  1  0
  2  3  2  0
  3  4  1  0
  4  5  1  0
  5  6  1  0
  6  7  1  0
  4  8  1  0
  4  9  1  0
  3 10  1  0
 10 11  2  3
 11 12  1  0
 12 13  2  3
 13 14  1  0
 14 15  1  0
 15 16  1  0
 16 17  2  3
 17 18  1  0
 18 19  2  0
 16 20  1  0
 20 21  2  0
 12 22  1  0
  7  2  1  0
 21 13  1  0
M  END
$$$$
