
     RDKit          3D

 22 23  0  0  0  0  0  0  0  0999 V2000
   -3.3672    0.4392    3.9953 C   0  0  0  0  0  0  0  0  0  0  0  0
   -4.0364    1.0252    2.7825 C   0  0  0  0  0  0  0  0  0  0  0  0
   -5.0675    1.7916    2.8577 C   0  0  0  0  0  0  0  0  0  0  0  0
   -5.7145    2.3754    1.5726 C   0  0  0  0  0  0  0  0  0  0  0  0
   -4.7255    2.3532    0.4685 C   0  0  0  0  0  0  0  0  0  0  0  0
   -4.1613    0.9437    0.2997 C   0  0  0  0  0  0  0  0  0  0  0  0
   -3.3601    0.6289    1.4861 C   0  0  0  0  0  0  0  0  0  0  0  0
   -6.8801    1.4892    1.2295 C   0  0  0  0  0  0  0  0  0  0  0  0
   -6.1267    3.7931    1.8459 C   0  0  0  0  0  0  0  0  0  0  0  0
   -5.7651    2.1675    4.0758 C   0  0  0  0  0  0  0  0  0  0  0  0
   -5.7060    2.0646    5.2945 C   0  0  0  0  0  0  0  0  0  0  0  0
   -5.6391    1.9500    6.6590 C   0  0  0  0  0  0  0  0  0  0  0  0
   -5.5797    1.8485    7.8702 C   0  0  0  0  0  0  0  0  0  0  0  0
   -4.1154    1.6935    8.4112 C   0  0  0  0  0  0  0  0  0  0  0  0
   -4.0090    0.2879    8.8901 C   0  0  0  0  0  0  0  0  0  0  0  0
   -5.0657   -0.0063    9.8689 C   0  0  0  0  0  0  0  0  0  0  0  0
   -4.9038   -1.0273   10.6929 C   0  0  0  0  0  0  0  0  0  0  0  0
   -5.5000   -1.0298   12.0086 C   0  0  0  0  0  0  0  0  0  0  0  0
   -4.8347   -0.5435   12.9650 O   0  0  0  0  0  0  0  0  0  0  0  0
   -6.2751    0.8200    9.9119 C   0  0  0  0  0  0  0  0  0  0  0  0
   -6.5494    1.7253    8.9577 C   0  0  0  0  0  0  0  0  0  0  0  0
   -5.4067    3.7770    6.8422 C   0  0  0  0  0  0  0  0  0  0  0  0
  1  2  1  0
  2  3  2  0
  3  4  1  0
  4  5  1  0
  5  6  1  0
  6  7  1  0
  4  8  1  0
  4  9  1  0
  3 10  1  0
 10 11  2  3
 11 12  1  0
 12 13  2  3
 13 14  1  0
 14 15  1  0
 15 16  1  0
 16 17  2  3
 17 18  1  0
 18 19  2  0
 16 20  1  0
 20 21  2  0
 12 22  1  0
  7  2  1  0
 21 13  1  0
M  END
$$$$
