
     RDKit          3D

 22 23  0  0  0  0  0  0  0  0999 V2000
   -8.6391    1.1315    3.5182 C   0  0  0  0  0  0  0  0  0  0  0  0
   -7.2410    1.6040    3.2277 C   0  0  0  0  0  0  0  0  0  0  0  0
   -6.3547    1.7646    4.1469 C   0  0  0  0  0  0  0  0  0  0  0  0
   -4.9231    2.2481    3.7895 C   0  0  0  0  0  0  0  0  0  0  0  0
   -4.6524    1.9727    2.3583 C   0  0  0  0  0  0  0  0  0  0  0  0
   -5.7527    2.5813    1.4910 C   0  0  0  0  0  0  0  0  0  0  0  0
   -6.9958    1.8502    1.7531 C   0  0  0  0  0  0  0  0  0  0  0  0
   -4.8887    3.7309    4.0377 C   0  0  0  0  0  0  0  0  0  0  0  0
   -3.9384    1.4966    4.6381 C   0  0  0  0  0  0  0  0  0  0  0  0
   -6.5589    1.5725    5.5728 C   0  0  0  0  0  0  0  0  0  0  0  0
   -5.9683    1.2692    6.6016 C   0  0  0  0  0  0  0  0  0  0  0  0
   -5.3078    0.9300    7.7540 C   0  0  0  0  0  0  0  0  0  0  0  0
   -4.7217    0.6289    8.7771 C   0  0  0  0  0  0  0  0  0  0  0  0
   -4.6682   -0.9180    9.0320 C   0  0  0  0  0  0  0  0  0  0  0  0
   -5.5715   -1.1677   10.1887 C   0  0  0  0  0  0  0  0  0  0  0  0
   -5.1827   -0.3365   11.3373 C   0  0  0  0  0  0  0  0  0  0  0  0
   -5.5805   -0.6949   12.5460 C   0  0  0  0  0  0  0  0  0  0  0  0
   -4.8133   -1.6247   13.3420 C   0  0  0  0  0  0  0  0  0  0  0  0
   -4.0628   -1.1589   14.2439 O   0  0  0  0  0  0  0  0  0  0  0  0
   -4.3770    0.8697   11.1294 C   0  0  0  0  0  0  0  0  0  0  0  0
   -4.1382    1.3596    9.9013 C   0  0  0  0  0  0  0  0  0  0  0  0
   -6.8593    1.1143    8.7462 C   0  0  0  0  0  0  0  0  0  0  0  0
  1  2  1  0
  2  3  2  0
  3  4  1  0
  4  5  1  0
  5  6  1  0
  6  7  1  0
  4  8  1  0
  4  9  1  0
  3 10  1  0
 10 11  2  3
 11 12  1  0
 12 13  2  3
 13 14  1  0
 14 15  1  0
 15 16  1  0
 16 17  2  3
 17 18  1  0
 18 19  2  0
 16 20  1  0
 20 21  2  0
 12 22  1  0
  7  2  1  0
 21 13  1  0
M  END
$$$$
