
     RDKit          3D

 22 23  0  0  0  0  0  0  0  0999 V2000
   -8.3214    3.2707    3.5688 C   0  0  0  0  0  0  0  0  0  0  0  0
   -7.0649    2.5305    3.2011 C   0  0  0  0  0  0  0  0  0  0  0  0
   -6.4189    1.7960    4.0375 C   0  0  0  0  0  0  0  0  0  0  0  0
   -5.1301    1.0475    3.6019 C   0  0  0  0  0  0  0  0  0  0  0  0
   -5.1188    0.9022    2.1267 C   0  0  0  0  0  0  0  0  0  0  0  0
   -5.3035    2.2665    1.4650 C   0  0  0  0  0  0  0  0  0  0  0  0
   -6.6626    2.7328    1.7546 C   0  0  0  0  0  0  0  0  0  0  0  0
   -3.9657    1.8929    4.0388 C   0  0  0  0  0  0  0  0  0  0  0  0
   -5.1284   -0.3125    4.2382 C   0  0  0  0  0  0  0  0  0  0  0  0
   -6.7515    1.6032    5.4389 C   0  0  0  0  0  0  0  0  0  0  0  0
   -6.2511    1.3285    6.5222 C   0  0  0  0  0  0  0  0  0  0  0  0
   -5.6918    1.0203    7.7352 C   0  0  0  0  0  0  0  0  0  0  0  0
   -5.1954    0.7469    8.8122 C   0  0  0  0  0  0  0  0  0  0  0  0
   -4.0992    1.7709    9.2707 C   0  0  0  0  0  0  0  0  0  0  0  0
   -2.8023    1.0473    9.1662 C   0  0  0  0  0  0  0  0  0  0  0  0
   -2.8441   -0.2030    9.9383 C   0  0  0  0  0  0  0  0  0  0  0  0
   -1.7041   -0.7649   10.3021 C   0  0  0  0  0  0  0  0  0  0  0  0
   -0.7149   -0.0311   11.0571 C   0  0  0  0  0  0  0  0  0  0  0  0
   -0.8413    0.0207   12.3121 O   0  0  0  0  0  0  0  0  0  0  0  0
   -4.1333   -0.8087   10.2825 C   0  0  0  0  0  0  0  0  0  0  0  0
   -5.2870   -0.3695    9.7522 C   0  0  0  0  0  0  0  0  0  0  0  0
   -6.5116    2.4771    8.5297 C   0  0  0  0  0  0  0  0  0  0  0  0
  1  2  1  0
  2  3  2  0
  3  4  1  0
  4  5  1  0
  5  6  1  0
  6  7  1  0
  4  8  1  0
  4  9  1  0
  3 10  1  0
 10 11  2  3
 11 12  1  0
 12 13  2  3
 13 14  1  0
 14 15  1  0
 15 16  1  0
 16 17  2  3
 17 18  1  0
 18 19  2  0
 16 20  1  0
 20 21  2  0
 12 22  1  0
  7  2  1  0
 21 13  1  0
M  END
$$$$
