
     RDKit          3D

 22 23  0  0  0  0  0  0  0  0999 V2000
   -3.8146    0.5058    3.9773 C   0  0  0  0  0  0  0  0  0  0  0  0
   -4.5685    1.6129    3.2932 C   0  0  0  0  0  0  0  0  0  0  0  0
   -5.6027    2.1760    3.8125 C   0  0  0  0  0  0  0  0  0  0  0  0
   -6.3392    3.3205    3.0650 C   0  0  0  0  0  0  0  0  0  0  0  0
   -5.4234    3.9301    2.0713 C   0  0  0  0  0  0  0  0  0  0  0  0
   -4.8525    2.8501    1.1542 C   0  0  0  0  0  0  0  0  0  0  0  0
   -3.9722    1.9928    1.9534 C   0  0  0  0  0  0  0  0  0  0  0  0
   -7.5125    2.6973    2.3604 C   0  0  0  0  0  0  0  0  0  0  0  0
   -6.7517    4.3592    4.0677 C   0  0  0  0  0  0  0  0  0  0  0  0
   -6.2250    1.8192    5.0763 C   0  0  0  0  0  0  0  0  0  0  0  0
   -5.9998    1.2550    6.1394 C   0  0  0  0  0  0  0  0  0  0  0  0
   -5.7472    0.6225    7.3291 C   0  0  0  0  0  0  0  0  0  0  0  0
   -5.5230    0.0611    8.3853 C   0  0  0  0  0  0  0  0  0  0  0  0
   -6.7843   -0.0506    9.3113 C   0  0  0  0  0  0  0  0  0  0  0  0
   -6.5363    0.8821   10.4448 C   0  0  0  0  0  0  0  0  0  0  0  0
   -5.2572    0.5717   11.0997 C   0  0  0  0  0  0  0  0  0  0  0  0
   -5.0549    0.9969   12.3349 C   0  0  0  0  0  0  0  0  0  0  0  0
   -4.4224    0.1540   13.3230 C   0  0  0  0  0  0  0  0  0  0  0  0
   -3.1629    0.0681   13.3145 O   0  0  0  0  0  0  0  0  0  0  0  0
   -4.2311   -0.1876   10.3800 C   0  0  0  0  0  0  0  0  0  0  0  0
   -4.3337   -0.4491    9.0662 C   0  0  0  0  0  0  0  0  0  0  0  0
   -4.2179    1.6320    7.5886 C   0  0  0  0  0  0  0  0  0  0  0  0
  1  2  1  0
  2  3  2  0
  3  4  1  0
  4  5  1  0
  5  6  1  0
  6  7  1  0
  4  8  1  0
  4  9  1  0
  3 10  1  0
 10 11  2  3
 11 12  1  0
 12 13  2  3
 13 14  1  0
 14 15  1  0
 15 16  1  0
 16 17  2  3
 17 18  1  0
 18 19  2  0
 16 20  1  0
 20 21  2  0
 12 22  1  0
  7  2  1  0
 21 13  1  0
M  END
$$$$
