
     RDKit          3D

 22 23  0  0  0  0  0  0  0  0999 V2000
   -4.0897    3.7360    6.6013 C   0  0  0  0  0  0  0  0  0  0  0  0
   -5.5325    3.7408    6.1764 C   0  0  0  0  0  0  0  0  0  0  0  0
   -6.1588    2.6728    5.8250 C   0  0  0  0  0  0  0  0  0  0  0  0
   -7.6516    2.7343    5.4021 C   0  0  0  0  0  0  0  0  0  0  0  0
   -8.2697    3.9647    5.9514 C   0  0  0  0  0  0  0  0  0  0  0  0
   -7.4527    5.1886    5.5416 C   0  0  0  0  0  0  0  0  0  0  0  0
   -6.1570    5.1202    6.2234 C   0  0  0  0  0  0  0  0  0  0  0  0
   -7.6779    2.7791    3.8992 C   0  0  0  0  0  0  0  0  0  0  0  0
   -8.3562    1.5302    5.9573 C   0  0  0  0  0  0  0  0  0  0  0  0
   -5.5886    1.3393    5.7340 C   0  0  0  0  0  0  0  0  0  0  0  0
   -4.8253    0.5732    6.3082 C   0  0  0  0  0  0  0  0  0  0  0  0
   -3.9702   -0.2837    6.9515 C   0  0  0  0  0  0  0  0  0  0  0  0
   -3.2110   -1.0443    7.5226 C   0  0  0  0  0  0  0  0  0  0  0  0
   -3.9414   -2.0571    8.4720 C   0  0  0  0  0  0  0  0  0  0  0  0
   -3.5968   -1.6323    9.8566 C   0  0  0  0  0  0  0  0  0  0  0  0
   -2.1384   -1.5631   10.0285 C   0  0  0  0  0  0  0  0  0  0  0  0
   -1.6388   -1.6073   11.2516 C   0  0  0  0  0  0  0  0  0  0  0  0
   -0.3746   -2.2521   11.5214 C   0  0  0  0  0  0  0  0  0  0  0  0
    0.6412   -1.5229   11.6943 O   0  0  0  0  0  0  0  0  0  0  0  0
   -1.2678   -1.4376    8.8564 C   0  0  0  0  0  0  0  0  0  0  0  0
   -1.7597   -1.1864    7.6317 C   0  0  0  0  0  0  0  0  0  0  0  0
   -2.7288   -0.1352    5.5868 C   0  0  0  0  0  0  0  0  0  0  0  0
  1  2  1  0
  2  3  2  0
  3  4  1  0
  4  5  1  0
  5  6  1  0
  6  7  1  0
  4  8  1  0
  4  9  1  0
  3 10  1  0
 10 11  2  3
 11 12  1  0
 12 13  2  3
 13 14  1  0
 14 15  1  0
 15 16  1  0
 16 17  2  3
 17 18  1  0
 18 19  2  0
 16 20  1  0
 20 21  2  0
 12 22  1  0
  7  2  1  0
 21 13  1  0
M  END
$$$$
