
     RDKit          3D

 22 23  0  0  0  0  0  0  0  0999 V2000
   -8.7136    2.5070    4.7437 C   0  0  0  0  0  0  0  0  0  0  0  0
   -7.4328    2.4702    3.9562 C   0  0  0  0  0  0  0  0  0  0  0  0
   -6.3015    2.1513    4.4803 C   0  0  0  0  0  0  0  0  0  0  0  0
   -5.0104    2.1225    3.6182 C   0  0  0  0  0  0  0  0  0  0  0  0
   -5.3753    1.9882    2.1877 C   0  0  0  0  0  0  0  0  0  0  0  0
   -6.3651    3.0835    1.7951 C   0  0  0  0  0  0  0  0  0  0  0  0
   -7.6265    2.8304    2.4975 C   0  0  0  0  0  0  0  0  0  0  0  0
   -4.3063    3.4321    3.8430 C   0  0  0  0  0  0  0  0  0  0  0  0
   -4.1824    0.9416    4.0358 C   0  0  0  0  0  0  0  0  0  0  0  0
   -6.0678    1.8330    5.8788 C   0  0  0  0  0  0  0  0  0  0  0  0
   -5.3705    1.1403    6.6091 C   0  0  0  0  0  0  0  0  0  0  0  0
   -4.5895    0.3643    7.4258 C   0  0  0  0  0  0  0  0  0  0  0  0
   -3.8962   -0.3247    8.1508 C   0  0  0  0  0  0  0  0  0  0  0  0
   -3.9359    0.1182    9.6551 C   0  0  0  0  0  0  0  0  0  0  0  0
   -2.5972    0.7049    9.9383 C   0  0  0  0  0  0  0  0  0  0  0  0
   -1.5321   -0.2507    9.6015 C   0  0  0  0  0  0  0  0  0  0  0  0
   -0.3377   -0.0901   10.1449 C   0  0  0  0  0  0  0  0  0  0  0  0
    0.3636   -1.1971   10.7528 C   0  0  0  0  0  0  0  0  0  0  0  0
    1.5481   -1.4276   10.3820 O   0  0  0  0  0  0  0  0  0  0  0  0
   -1.8017   -1.3504    8.6712 C   0  0  0  0  0  0  0  0  0  0  0  0
   -2.9373   -1.4114    7.9559 C   0  0  0  0  0  0  0  0  0  0  0  0
   -6.0846   -0.3137    8.2804 C   0  0  0  0  0  0  0  0  0  0  0  0
  1  2  1  0
  2  3  2  0
  3  4  1  0
  4  5  1  0
  5  6  1  0
  6  7  1  0
  4  8  1  0
  4  9  1  0
  3 10  1  0
 10 11  2  3
 11 12  1  0
 12 13  2  3
 13 14  1  0
 14 15  1  0
 15 16  1  0
 16 17  2  3
 17 18  1  0
 18 19  2  0
 16 20  1  0
 20 21  2  0
 12 22  1  0
  7  2  1  0
 21 13  1  0
M  END
$$$$
