
     RDKit          3D

 22 23  0  0  0  0  0  0  0  0999 V2000
   -2.2126   -0.2597    6.6463 C   0  0  0  0  0  0  0  0  0  0  0  0
   -2.5355   -0.3865    8.1098 C   0  0  0  0  0  0  0  0  0  0  0  0
   -3.7221   -0.2181    8.5786 C   0  0  0  0  0  0  0  0  0  0  0  0
   -4.0007   -0.3684   10.0987 C   0  0  0  0  0  0  0  0  0  0  0  0
   -2.9273   -1.1812   10.7190 C   0  0  0  0  0  0  0  0  0  0  0  0
   -1.5611   -0.5826   10.3898 C   0  0  0  0  0  0  0  0  0  0  0  0
   -1.3278   -0.7439    8.9517 C   0  0  0  0  0  0  0  0  0  0  0  0
   -3.9918    1.0173   10.6831 C   0  0  0  0  0  0  0  0  0  0  0  0
   -5.3200   -1.0628   10.2771 C   0  0  0  0  0  0  0  0  0  0  0  0
   -4.8979    0.1577    7.8117 C   0  0  0  0  0  0  0  0  0  0  0  0
   -5.2533    0.8411    6.8599 C   0  0  0  0  0  0  0  0  0  0  0  0
   -5.6505    1.6057    5.7937 C   0  0  0  0  0  0  0  0  0  0  0  0
   -6.0032    2.2846    4.8472 C   0  0  0  0  0  0  0  0  0  0  0  0
   -7.5135    2.7042    4.9101 C   0  0  0  0  0  0  0  0  0  0  0  0
   -8.1927    1.9283    3.8363 C   0  0  0  0  0  0  0  0  0  0  0  0
   -7.5390    2.1583    2.5398 C   0  0  0  0  0  0  0  0  0  0  0  0
   -8.2136    1.9010    1.4323 C   0  0  0  0  0  0  0  0  0  0  0  0
   -9.5732    2.3579    1.2604 C   0  0  0  0  0  0  0  0  0  0  0  0
  -10.4411    1.9718    2.0919 O   0  0  0  0  0  0  0  0  0  0  0  0
   -6.1611    2.6546    2.4918 C   0  0  0  0  0  0  0  0  0  0  0  0
   -5.3948    2.7262    3.5930 C   0  0  0  0  0  0  0  0  0  0  0  0
   -7.1744    2.1448    6.6951 C   0  0  0  0  0  0  0  0  0  0  0  0
  1  2  1  0
  2  3  2  0
  3  4  1  0
  4  5  1  0
  5  6  1  0
  6  7  1  0
  4  8  1  0
  4  9  1  0
  3 10  1  0
 10 11  2  3
 11 12  1  0
 12 13  2  3
 13 14  1  0
 14 15  1  0
 15 16  1  0
 16 17  2  3
 17 18  1  0
 18 19  2  0
 16 20  1  0
 20 21  2  0
 12 22  1  0
  7  2  1  0
 21 13  1  0
M  END
$$$$
