
     RDKit          3D

 22 23  0  0  0  0  0  0  0  0999 V2000
   -7.6279    0.6078    8.4154 C   0  0  0  0  0  0  0  0  0  0  0  0
   -7.0318    1.9876    8.4696 C   0  0  0  0  0  0  0  0  0  0  0  0
   -5.8894    2.2739    7.9508 C   0  0  0  0  0  0  0  0  0  0  0  0
   -5.3245    3.7181    8.0297 C   0  0  0  0  0  0  0  0  0  0  0  0
   -6.4357    4.6702    8.2666 C   0  0  0  0  0  0  0  0  0  0  0  0
   -7.2368    4.2442    9.4954 C   0  0  0  0  0  0  0  0  0  0  0  0
   -7.9217    2.9874    9.1792 C   0  0  0  0  0  0  0  0  0  0  0  0
   -4.3702    3.7506    9.1914 C   0  0  0  0  0  0  0  0  0  0  0  0
   -4.6576    4.0430    6.7242 C   0  0  0  0  0  0  0  0  0  0  0  0
   -4.9919    1.3392    7.2931 C   0  0  0  0  0  0  0  0  0  0  0  0
   -4.6929    0.8996    6.1901 C   0  0  0  0  0  0  0  0  0  0  0  0
   -4.3591    0.4068    4.9552 C   0  0  0  0  0  0  0  0  0  0  0  0
   -4.0630   -0.0307    3.8589 C   0  0  0  0  0  0  0  0  0  0  0  0
   -3.9448   -1.5945    3.8235 C   0  0  0  0  0  0  0  0  0  0  0  0
   -2.4933   -1.8858    3.6667 C   0  0  0  0  0  0  0  0  0  0  0  0
   -1.9519   -1.1965    2.4865 C   0  0  0  0  0  0  0  0  0  0  0  0
   -0.8255   -1.6372    1.9529 C   0  0  0  0  0  0  0  0  0  0  0  0
   -0.4480   -1.2854    0.6037 C   0  0  0  0  0  0  0  0  0  0  0  0
   -0.9678   -1.9318   -0.3481 O   0  0  0  0  0  0  0  0  0  0  0  0
   -2.6541   -0.0375    1.9289 C   0  0  0  0  0  0  0  0  0  0  0  0
   -3.6789    0.5471    2.5717 C   0  0  0  0  0  0  0  0  0  0  0  0
   -6.1438    0.2169    4.5030 C   0  0  0  0  0  0  0  0  0  0  0  0
  1  2  1  0
  2  3  2  0
  3  4  1  0
  4  5  1  0
  5  6  1  0
  6  7  1  0
  4  8  1  0
  4  9  1  0
  3 10  1  0
 10 11  2  3
 11 12  1  0
 12 13  2  3
 13 14  1  0
 14 15  1  0
 15 16  1  0
 16 17  2  3
 17 18  1  0
 18 19  2  0
 16 20  1  0
 20 21  2  0
 12 22  1  0
  7  2  1  0
 21 13  1  0
M  END
$$$$
