
     RDKit          3D

 22 23  0  0  0  0  0  0  0  0999 V2000
   -6.4647    4.0880    5.2478 C   0  0  0  0  0  0  0  0  0  0  0  0
   -6.7216    3.5090    6.6120 C   0  0  0  0  0  0  0  0  0  0  0  0
   -6.5348    2.2659    6.8878 C   0  0  0  0  0  0  0  0  0  0  0  0
   -6.8093    1.7227    8.3162 C   0  0  0  0  0  0  0  0  0  0  0  0
   -6.7744    2.8438    9.2855 C   0  0  0  0  0  0  0  0  0  0  0  0
   -7.7313    3.9488    8.8421 C   0  0  0  0  0  0  0  0  0  0  0  0
   -7.2025    4.5419    7.6104 C   0  0  0  0  0  0  0  0  0  0  0  0
   -8.1832    1.1117    8.2942 C   0  0  0  0  0  0  0  0  0  0  0  0
   -5.7395    0.7280    8.6637 C   0  0  0  0  0  0  0  0  0  0  0  0
   -6.1080    1.2386    5.9527 C   0  0  0  0  0  0  0  0  0  0  0  0
   -5.2109    0.9581    5.1680 C   0  0  0  0  0  0  0  0  0  0  0  0
   -4.2067    0.6451    4.2889 C   0  0  0  0  0  0  0  0  0  0  0  0
   -3.3152    0.3671    3.5085 C   0  0  0  0  0  0  0  0  0  0  0  0
   -3.5171    0.9921    2.0840 C   0  0  0  0  0  0  0  0  0  0  0  0
   -3.8418   -0.1494    1.1851 C   0  0  0  0  0  0  0  0  0  0  0  0
   -2.8005   -1.1839    1.2661 C   0  0  0  0  0  0  0  0  0  0  0  0
   -2.6905   -2.0551    0.2779 C   0  0  0  0  0  0  0  0  0  0  0  0
   -2.9279   -1.6664   -1.0930 C   0  0  0  0  0  0  0  0  0  0  0  0
   -2.2230   -0.7391   -1.5799 O   0  0  0  0  0  0  0  0  0  0  0  0
   -1.9145   -1.2418    2.4319 C   0  0  0  0  0  0  0  0  0  0  0  0
   -2.1398   -0.5025    3.5309 C   0  0  0  0  0  0  0  0  0  0  0  0
   -2.9926    0.4685    5.6746 C   0  0  0  0  0  0  0  0  0  0  0  0
  1  2  1  0
  2  3  2  0
  3  4  1  0
  4  5  1  0
  5  6  1  0
  6  7  1  0
  4  8  1  0
  4  9  1  0
  3 10  1  0
 10 11  2  3
 11 12  1  0
 12 13  2  3
 13 14  1  0
 14 15  1  0
 15 16  1  0
 16 17  2  3
 17 18  1  0
 18 19  2  0
 16 20  1  0
 20 21  2  0
 12 22  1  0
  7  2  1  0
 21 13  1  0
M  END
$$$$
