
     RDKit          3D

 22 23  0  0  0  0  0  0  0  0999 V2000
   -6.2187    0.7146    8.2549 C   0  0  0  0  0  0  0  0  0  0  0  0
   -6.8517    1.6479    7.2598 C   0  0  0  0  0  0  0  0  0  0  0  0
   -6.3588    1.8573    6.0896 C   0  0  0  0  0  0  0  0  0  0  0  0
   -7.0582    2.8266    5.0986 C   0  0  0  0  0  0  0  0  0  0  0  0
   -8.4807    2.9852    5.4847 C   0  0  0  0  0  0  0  0  0  0  0  0
   -8.5814    3.4081    6.9490 C   0  0  0  0  0  0  0  0  0  0  0  0
   -8.1220    2.2902    7.7784 C   0  0  0  0  0  0  0  0  0  0  0  0
   -6.3506    4.1490    5.2087 C   0  0  0  0  0  0  0  0  0  0  0  0
   -6.9773    2.2405    3.7185 C   0  0  0  0  0  0  0  0  0  0  0  0
   -5.1275    1.2889    5.5675 C   0  0  0  0  0  0  0  0  0  0  0  0
   -4.0400    0.8500    5.9196 C   0  0  0  0  0  0  0  0  0  0  0  0
   -2.8220    0.3594    6.3132 C   0  0  0  0  0  0  0  0  0  0  0  0
   -1.7406   -0.0761    6.6626 C   0  0  0  0  0  0  0  0  0  0  0  0
   -1.6688   -1.6431    6.6565 C   0  0  0  0  0  0  0  0  0  0  0  0
   -1.6208   -2.0502    8.0878 C   0  0  0  0  0  0  0  0  0  0  0  0
   -0.5087   -1.3814    8.7786 C   0  0  0  0  0  0  0  0  0  0  0  0
   -0.0547   -1.9018    9.9059 C   0  0  0  0  0  0  0  0  0  0  0  0
    0.8042   -3.0633    9.9021 C   0  0  0  0  0  0  0  0  0  0  0  0
    1.4815   -3.3067   10.9393 O   0  0  0  0  0  0  0  0  0  0  0  0
    0.0692   -0.1558    8.2208 C   0  0  0  0  0  0  0  0  0  0  0  0
   -0.5060    0.4970    7.1970 C   0  0  0  0  0  0  0  0  0  0  0  0
   -2.4314   -0.1731    4.5843 C   0  0  0  0  0  0  0  0  0  0  0  0
  1  2  1  0
  2  3  2  0
  3  4  1  0
  4  5  1  0
  5  6  1  0
  6  7  1  0
  4  8  1  0
  4  9  1  0
  3 10  1  0
 10 11  2  3
 11 12  1  0
 12 13  2  3
 13 14  1  0
 14 15  1  0
 15 16  1  0
 16 17  2  3
 17 18  1  0
 18 19  2  0
 16 20  1  0
 20 21  2  0
 12 22  1  0
  7  2  1  0
 21 13  1  0
M  END
$$$$
