
     RDKit          3D

 22 23  0  0  0  0  0  0  0  0999 V2000
   -2.2238    2.4128    8.0594 C   0  0  0  0  0  0  0  0  0  0  0  0
   -1.8544    1.0696    8.6262 C   0  0  0  0  0  0  0  0  0  0  0  0
   -2.3847   -0.0292    8.2167 C   0  0  0  0  0  0  0  0  0  0  0  0
   -1.9604   -1.3899    8.8326 C   0  0  0  0  0  0  0  0  0  0  0  0
   -0.6277   -1.2503    9.4666 C   0  0  0  0  0  0  0  0  0  0  0  0
   -0.6401   -0.0906   10.4608 C   0  0  0  0  0  0  0  0  0  0  0  0
   -0.7940    1.1556    9.7048 C   0  0  0  0  0  0  0  0  0  0  0  0
   -2.9866   -1.7356    9.8761 C   0  0  0  0  0  0  0  0  0  0  0  0
   -1.8866   -2.4104    7.7337 C   0  0  0  0  0  0  0  0  0  0  0  0
   -3.4265   -0.1517    7.2111 C   0  0  0  0  0  0  0  0  0  0  0  0
   -4.3151    0.4833    6.6574 C   0  0  0  0  0  0  0  0  0  0  0  0
   -5.3106    1.1935    6.0378 C   0  0  0  0  0  0  0  0  0  0  0  0
   -6.1943    1.8240    5.4878 C   0  0  0  0  0  0  0  0  0  0  0  0
   -7.4490    0.9539    5.1281 C   0  0  0  0  0  0  0  0  0  0  0  0
   -7.4407    0.8280    3.6447 C   0  0  0  0  0  0  0  0  0  0  0  0
   -7.4052    2.1551    3.0133 C   0  0  0  0  0  0  0  0  0  0  0  0
   -7.7965    2.2725    1.7560 C   0  0  0  0  0  0  0  0  0  0  0  0
   -7.8823    3.5646    1.1159 C   0  0  0  0  0  0  0  0  0  0  0  0
   -6.8079    4.1327    0.7743 O   0  0  0  0  0  0  0  0  0  0  0  0
   -6.9328    3.3156    3.7733 C   0  0  0  0  0  0  0  0  0  0  0  0
   -6.3428    3.1846    4.9732 C   0  0  0  0  0  0  0  0  0  0  0  0
   -5.3676    2.4093    7.4320 C   0  0  0  0  0  0  0  0  0  0  0  0
  1  2  1  0
  2  3  2  0
  3  4  1  0
  4  5  1  0
  5  6  1  0
  6  7  1  0
  4  8  1  0
  4  9  1  0
  3 10  1  0
 10 11  2  3
 11 12  1  0
 12 13  2  3
 13 14  1  0
 14 15  1  0
 15 16  1  0
 16 17  2  3
 17 18  1  0
 18 19  2  0
 16 20  1  0
 20 21  2  0
 12 22  1  0
  7  2  1  0
 21 13  1  0
M  END
$$$$
