
     RDKit          3D

 22 23  0  0  0  0  0  0  0  0999 V2000
   -6.7878    1.2503    4.3036 C   0  0  0  0  0  0  0  0  0  0  0  0
   -6.7292    2.4990    5.1399 C   0  0  0  0  0  0  0  0  0  0  0  0
   -6.3691    2.4938    6.3754 C   0  0  0  0  0  0  0  0  0  0  0  0
   -6.3194    3.8145    7.1904 C   0  0  0  0  0  0  0  0  0  0  0  0
   -6.2213    4.9647    6.2603 C   0  0  0  0  0  0  0  0  0  0  0  0
   -7.3509    4.9054    5.2339 C   0  0  0  0  0  0  0  0  0  0  0  0
   -7.1209    3.7437    4.3702 C   0  0  0  0  0  0  0  0  0  0  0  0
   -7.6044    3.8965    7.9673 C   0  0  0  0  0  0  0  0  0  0  0  0
   -5.1082    3.7842    8.0774 C   0  0  0  0  0  0  0  0  0  0  0  0
   -6.0191    1.3203    7.1579 C   0  0  0  0  0  0  0  0  0  0  0  0
   -5.1030    0.5349    7.3655 C   0  0  0  0  0  0  0  0  0  0  0  0
   -4.0766   -0.3436    7.5979 C   0  0  0  0  0  0  0  0  0  0  0  0
   -3.1654   -1.1234    7.8041 C   0  0  0  0  0  0  0  0  0  0  0  0
   -3.1354   -1.6719    9.2735 C   0  0  0  0  0  0  0  0  0  0  0  0
   -1.9451   -1.0470    9.9131 C   0  0  0  0  0  0  0  0  0  0  0  0
   -0.7334   -1.3174    9.1258 C   0  0  0  0  0  0  0  0  0  0  0  0
    0.4454   -1.2095    9.7145 C   0  0  0  0  0  0  0  0  0  0  0  0
    1.3546   -2.3301    9.7811 C   0  0  0  0  0  0  0  0  0  0  0  0
    2.5064   -2.1931    9.2827 O   0  0  0  0  0  0  0  0  0  0  0  0
   -0.8456   -1.6890    7.7128 C   0  0  0  0  0  0  0  0  0  0  0  0
   -2.0100   -1.6047    7.0480 C   0  0  0  0  0  0  0  0  0  0  0  0
   -4.3664   -1.1767    5.9709 C   0  0  0  0  0  0  0  0  0  0  0  0
  1  2  1  0
  2  3  2  0
  3  4  1  0
  4  5  1  0
  5  6  1  0
  6  7  1  0
  4  8  1  0
  4  9  1  0
  3 10  1  0
 10 11  2  3
 11 12  1  0
 12 13  2  3
 13 14  1  0
 14 15  1  0
 15 16  1  0
 16 17  2  3
 17 18  1  0
 18 19  2  0
 16 20  1  0
 20 21  2  0
 12 22  1  0
  7  2  1  0
 21 13  1  0
M  END
$$$$
