
     RDKit          3D

 22 23  0  0  0  0  0  0  0  0999 V2000
   -7.5211    1.7586    8.9219 C   0  0  0  0  0  0  0  0  0  0  0  0
   -7.8219    2.0091    7.4697 C   0  0  0  0  0  0  0  0  0  0  0  0
   -6.9028    2.2248    6.5950 C   0  0  0  0  0  0  0  0  0  0  0  0
   -7.2697    2.4705    5.1064 C   0  0  0  0  0  0  0  0  0  0  0  0
   -8.6187    1.9198    4.8334 C   0  0  0  0  0  0  0  0  0  0  0  0
   -9.6278    2.4899    5.8284 C   0  0  0  0  0  0  0  0  0  0  0  0
   -9.3036    1.9638    7.1576 C   0  0  0  0  0  0  0  0  0  0  0  0
   -7.2765    3.9599    4.8987 C   0  0  0  0  0  0  0  0  0  0  0  0
   -6.2601    1.7707    4.2429 C   0  0  0  0  0  0  0  0  0  0  0  0
   -5.4762    2.3097    6.8585 C   0  0  0  0  0  0  0  0  0  0  0  0
   -4.5768    1.7731    7.4928 C   0  0  0  0  0  0  0  0  0  0  0  0
   -3.5696    1.1732    8.2035 C   0  0  0  0  0  0  0  0  0  0  0  0
   -2.6755    0.6409    8.8344 C   0  0  0  0  0  0  0  0  0  0  0  0
   -1.2429    1.1139    8.4045 C   0  0  0  0  0  0  0  0  0  0  0  0
   -0.6269   -0.0481    7.7069 C   0  0  0  0  0  0  0  0  0  0  0  0
   -0.6540   -1.2408    8.5659 C   0  0  0  0  0  0  0  0  0  0  0  0
    0.1823   -2.2312    8.3064 C   0  0  0  0  0  0  0  0  0  0  0  0
    0.7457   -3.0331    9.3677 C   0  0  0  0  0  0  0  0  0  0  0  0
    1.8264   -2.6488    9.8952 O   0  0  0  0  0  0  0  0  0  0  0  0
   -1.6030   -1.3201    9.6796 C   0  0  0  0  0  0  0  0  0  0  0  0
   -2.5914   -0.4232    9.8338 C   0  0  0  0  0  0  0  0  0  0  0  0
   -2.5938    2.7457    8.2269 C   0  0  0  0  0  0  0  0  0  0  0  0
  1  2  1  0
  2  3  2  0
  3  4  1  0
  4  5  1  0
  5  6  1  0
  6  7  1  0
  4  8  1  0
  4  9  1  0
  3 10  1  0
 10 11  2  3
 11 12  1  0
 12 13  2  3
 13 14  1  0
 14 15  1  0
 15 16  1  0
 16 17  2  3
 17 18  1  0
 18 19  2  0
 16 20  1  0
 20 21  2  0
 12 22  1  0
  7  2  1  0
 21 13  1  0
M  END
$$$$
