
     RDKit          3D

 22 23  0  0  0  0  0  0  0  0999 V2000
   -4.6419    0.3389    3.0484 C   0  0  0  0  0  0  0  0  0  0  0  0
   -5.6219    1.4796    3.0727 C   0  0  0  0  0  0  0  0  0  0  0  0
   -6.1254    1.9424    4.1629 C   0  0  0  0  0  0  0  0  0  0  0  0
   -7.1281    3.1276    4.1304 C   0  0  0  0  0  0  0  0  0  0  0  0
   -6.9676    3.8748    2.8601 C   0  0  0  0  0  0  0  0  0  0  0  0
   -7.0882    2.9209    1.6732 C   0  0  0  0  0  0  0  0  0  0  0  0
   -5.9309    2.0217    1.6922 C   0  0  0  0  0  0  0  0  0  0  0  0
   -8.5080    2.5339    4.2007 C   0  0  0  0  0  0  0  0  0  0  0  0
   -6.8306    4.0380    5.2868 C   0  0  0  0  0  0  0  0  0  0  0  0
   -5.8819    1.4302    5.5009 C   0  0  0  0  0  0  0  0  0  0  0  0
   -5.0558    0.8184    6.1662 C   0  0  0  0  0  0  0  0  0  0  0  0
   -4.1317    0.1334    6.9118 C   0  0  0  0  0  0  0  0  0  0  0  0
   -3.3113   -0.4746    7.5738 C   0  0  0  0  0  0  0  0  0  0  0  0
   -3.9501   -1.3409    8.7149 C   0  0  0  0  0  0  0  0  0  0  0  0
   -3.5859   -0.6618    9.9887 C   0  0  0  0  0  0  0  0  0  0  0  0
   -2.1291   -0.4883   10.0840 C   0  0  0  0  0  0  0  0  0  0  0  0
   -1.5882   -0.2906   11.2740 C   0  0  0  0  0  0  0  0  0  0  0  0
   -0.1660   -0.4340   11.4833 C   0  0  0  0  0  0  0  0  0  0  0  0
    0.2745   -1.5665   11.8255 O   0  0  0  0  0  0  0  0  0  0  0  0
   -1.3060   -0.5263    8.8723 C   0  0  0  0  0  0  0  0  0  0  0  0
   -1.8514   -0.5202    7.6444 C   0  0  0  0  0  0  0  0  0  0  0  0
   -2.7381    0.9098    5.9735 C   0  0  0  0  0  0  0  0  0  0  0  0
  1  2  1  0
  2  3  2  0
  3  4  1  0
  4  5  1  0
  5  6  1  0
  6  7  1  0
  4  8  1  0
  4  9  1  0
  3 10  1  0
 10 11  2  3
 11 12  1  0
 12 13  2  3
 13 14  1  0
 14 15  1  0
 15 16  1  0
 16 17  2  3
 17 18  1  0
 18 19  2  0
 16 20  1  0
 20 21  2  0
 12 22  1  0
  7  2  1  0
 21 13  1  0
M  END
$$$$
