
     RDKit          3D

 22 23  0  0  0  0  0  0  0  0999 V2000
   -7.5629    0.8474    6.7691 C   0  0  0  0  0  0  0  0  0  0  0  0
   -7.0221    1.7565    7.8383 C   0  0  0  0  0  0  0  0  0  0  0  0
   -5.7619    1.9192    8.0427 C   0  0  0  0  0  0  0  0  0  0  0  0
   -5.2584    2.8766    9.1566 C   0  0  0  0  0  0  0  0  0  0  0  0
   -6.3269    3.8478    9.4924 C   0  0  0  0  0  0  0  0  0  0  0  0
   -7.6167    3.1072    9.8404 C   0  0  0  0  0  0  0  0  0  0  0  0
   -8.1117    2.4580    8.6230 C   0  0  0  0  0  0  0  0  0  0  0  0
   -4.9491    2.0252   10.3569 C   0  0  0  0  0  0  0  0  0  0  0  0
   -4.0549    3.6146    8.6453 C   0  0  0  0  0  0  0  0  0  0  0  0
   -4.6878    1.2412    7.3367 C   0  0  0  0  0  0  0  0  0  0  0  0
   -4.1926    1.1123    6.2243 C   0  0  0  0  0  0  0  0  0  0  0  0
   -3.6384    0.9669    4.9789 C   0  0  0  0  0  0  0  0  0  0  0  0
   -3.1466    0.8378    3.8732 C   0  0  0  0  0  0  0  0  0  0  0  0
   -4.0774    0.0817    2.8620 C   0  0  0  0  0  0  0  0  0  0  0  0
   -3.4395   -1.2452    2.6412 C   0  0  0  0  0  0  0  0  0  0  0  0
   -2.0469   -1.0823    2.1990 C   0  0  0  0  0  0  0  0  0  0  0  0
   -1.4560   -2.0862    1.5739 C   0  0  0  0  0  0  0  0  0  0  0  0
   -0.1614   -1.9242    0.9538 C   0  0  0  0  0  0  0  0  0  0  0  0
   -0.1150   -1.4362   -0.2096 O   0  0  0  0  0  0  0  0  0  0  0  0
   -1.3367    0.1721    2.4623 C   0  0  0  0  0  0  0  0  0  0  0  0
   -1.8451    1.1188    3.2688 C   0  0  0  0  0  0  0  0  0  0  0  0
   -5.1705    0.1419    4.3483 C   0  0  0  0  0  0  0  0  0  0  0  0
  1  2  1  0
  2  3  2  0
  3  4  1  0
  4  5  1  0
  5  6  1  0
  6  7  1  0
  4  8  1  0
  4  9  1  0
  3 10  1  0
 10 11  2  3
 11 12  1  0
 12 13  2  3
 13 14  1  0
 14 15  1  0
 15 16  1  0
 16 17  2  3
 17 18  1  0
 18 19  2  0
 16 20  1  0
 20 21  2  0
 12 22  1  0
  7  2  1  0
 21 13  1  0
M  END
$$$$
