
     RDKit          3D

 22 23  0  0  0  0  0  0  0  0999 V2000
   -4.0830    2.8854    5.3706 C   0  0  0  0  0  0  0  0  0  0  0  0
   -5.5793    3.0341    5.4012 C   0  0  0  0  0  0  0  0  0  0  0  0
   -6.3075    2.5583    6.3497 C   0  0  0  0  0  0  0  0  0  0  0  0
   -7.8486    2.7474    6.3346 C   0  0  0  0  0  0  0  0  0  0  0  0
   -8.1964    3.8946    5.4625 C   0  0  0  0  0  0  0  0  0  0  0  0
   -7.5758    3.7073    4.0793 C   0  0  0  0  0  0  0  0  0  0  0  0
   -6.1198    3.8077    4.2161 C   0  0  0  0  0  0  0  0  0  0  0  0
   -8.4379    1.4835    5.7719 C   0  0  0  0  0  0  0  0  0  0  0  0
   -8.3102    3.0269    7.7358 C   0  0  0  0  0  0  0  0  0  0  0  0
   -5.8332    1.7832    7.4837 C   0  0  0  0  0  0  0  0  0  0  0  0
   -5.0101    0.9323    7.7965 C   0  0  0  0  0  0  0  0  0  0  0  0
   -4.0888   -0.0201    8.1478 C   0  0  0  0  0  0  0  0  0  0  0  0
   -3.2710   -0.8656    8.4596 C   0  0  0  0  0  0  0  0  0  0  0  0
   -2.8628   -0.8090    9.9732 C   0  0  0  0  0  0  0  0  0  0  0  0
   -1.4611   -0.3079    9.9943 C   0  0  0  0  0  0  0  0  0  0  0  0
   -0.5987   -1.1481    9.1508 C   0  0  0  0  0  0  0  0  0  0  0  0
    0.7075   -1.1244    9.3534 C   0  0  0  0  0  0  0  0  0  0  0  0
    1.5060   -2.3221    9.2319 C   0  0  0  0  0  0  0  0  0  0  0  0
    1.4924   -3.1467   10.1877 O   0  0  0  0  0  0  0  0  0  0  0  0
   -1.1897   -1.9838    8.1022 C   0  0  0  0  0  0  0  0  0  0  0  0
   -2.4803   -1.8682    7.7470 C   0  0  0  0  0  0  0  0  0  0  0  0
   -5.4165   -1.1089    8.8384 C   0  0  0  0  0  0  0  0  0  0  0  0
  1  2  1  0
  2  3  2  0
  3  4  1  0
  4  5  1  0
  5  6  1  0
  6  7  1  0
  4  8  1  0
  4  9  1  0
  3 10  1  0
 10 11  2  3
 11 12  1  0
 12 13  2  3
 13 14  1  0
 14 15  1  0
 15 16  1  0
 16 17  2  3
 17 18  1  0
 18 19  2  0
 16 20  1  0
 20 21  2  0
 12 22  1  0
  7  2  1  0
 21 13  1  0
M  END
$$$$
