
     RDKit          3D

 22 23  0  0  0  0  0  0  0  0999 V2000
   -8.1682    2.1468    3.9731 C   0  0  0  0  0  0  0  0  0  0  0  0
   -6.9090    2.0630    3.1549 C   0  0  0  0  0  0  0  0  0  0  0  0
   -5.7340    2.1317    3.6754 C   0  0  0  0  0  0  0  0  0  0  0  0
   -4.4668    2.0320    2.7836 C   0  0  0  0  0  0  0  0  0  0  0  0
   -4.8146    1.3676    1.5048 C   0  0  0  0  0  0  0  0  0  0  0  0
   -5.9892    2.0866    0.8441 C   0  0  0  0  0  0  0  0  0  0  0  0
   -7.1778    1.8763    1.6757 C   0  0  0  0  0  0  0  0  0  0  0  0
   -4.0086    3.4394    2.5176 C   0  0  0  0  0  0  0  0  0  0  0  0
   -3.4355    1.2150    3.5071 C   0  0  0  0  0  0  0  0  0  0  0  0
   -5.4339    2.3438    5.0813 C   0  0  0  0  0  0  0  0  0  0  0  0
   -5.7005    1.9248    6.2005 C   0  0  0  0  0  0  0  0  0  0  0  0
   -5.9998    1.4550    7.4531 C   0  0  0  0  0  0  0  0  0  0  0  0
   -6.2656    1.0381    8.5651 C   0  0  0  0  0  0  0  0  0  0  0  0
   -5.4242    1.7162    9.7021 C   0  0  0  0  0  0  0  0  0  0  0  0
   -4.4858    0.6681   10.1892 C   0  0  0  0  0  0  0  0  0  0  0  0
   -5.2229   -0.5364   10.5980 C   0  0  0  0  0  0  0  0  0  0  0  0
   -4.6371   -1.3941   11.4159 C   0  0  0  0  0  0  0  0  0  0  0  0
   -4.3928   -1.0615   12.8003 C   0  0  0  0  0  0  0  0  0  0  0  0
   -3.6049   -0.1084   13.0538 O   0  0  0  0  0  0  0  0  0  0  0  0
   -6.5776   -0.7732   10.0921 C   0  0  0  0  0  0  0  0  0  0  0  0
   -7.1075   -0.0268    9.1086 C   0  0  0  0  0  0  0  0  0  0  0  0
   -7.1782    2.8529    7.7407 C   0  0  0  0  0  0  0  0  0  0  0  0
  1  2  1  0
  2  3  2  0
  3  4  1  0
  4  5  1  0
  5  6  1  0
  6  7  1  0
  4  8  1  0
  4  9  1  0
  3 10  1  0
 10 11  2  3
 11 12  1  0
 12 13  2  3
 13 14  1  0
 14 15  1  0
 15 16  1  0
 16 17  2  3
 17 18  1  0
 18 19  2  0
 16 20  1  0
 20 21  2  0
 12 22  1  0
  7  2  1  0
 21 13  1  0
M  END
$$$$
