
     RDKit          3D

 22 23  0  0  0  0  0  0  0  0999 V2000
   -8.1241    1.0658    6.5302 C   0  0  0  0  0  0  0  0  0  0  0  0
   -7.1573    1.7122    7.4838 C   0  0  0  0  0  0  0  0  0  0  0  0
   -5.8869    1.7352    7.2791 C   0  0  0  0  0  0  0  0  0  0  0  0
   -4.9346    2.4235    8.2942 C   0  0  0  0  0  0  0  0  0  0  0  0
   -5.7020    3.3938    9.1110 C   0  0  0  0  0  0  0  0  0  0  0  0
   -6.9047    2.7030    9.7512 C   0  0  0  0  0  0  0  0  0  0  0  0
   -7.8399    2.3355    8.6841 C   0  0  0  0  0  0  0  0  0  0  0  0
   -4.3815    1.3396    9.1778 C   0  0  0  0  0  0  0  0  0  0  0  0
   -3.8647    3.1491    7.5303 C   0  0  0  0  0  0  0  0  0  0  0  0
   -5.1909    1.1214    6.1608 C   0  0  0  0  0  0  0  0  0  0  0  0
   -5.1144    1.1458    4.9390 C   0  0  0  0  0  0  0  0  0  0  0  0
   -5.0295    1.1737    3.5711 C   0  0  0  0  0  0  0  0  0  0  0  0
   -4.9542    1.1984    2.3567 C   0  0  0  0  0  0  0  0  0  0  0  0
   -5.1051   -0.2156    1.6945 C   0  0  0  0  0  0  0  0  0  0  0  0
   -3.7552   -0.5617    1.1707 C   0  0  0  0  0  0  0  0  0  0  0  0
   -3.2624    0.4935    0.2734 C   0  0  0  0  0  0  0  0  0  0  0  0
   -2.3038    0.1999   -0.5883 C   0  0  0  0  0  0  0  0  0  0  0  0
   -2.4755   -0.8429   -1.5730 C   0  0  0  0  0  0  0  0  0  0  0  0
   -2.8887   -0.5166   -2.7204 O   0  0  0  0  0  0  0  0  0  0  0  0
   -3.8265    1.8437    0.3513 C   0  0  0  0  0  0  0  0  0  0  0  0
   -4.6477    2.2124    1.3487 C   0  0  0  0  0  0  0  0  0  0  0  0
   -5.1027   -0.6737    3.4876 C   0  0  0  0  0  0  0  0  0  0  0  0
  1  2  1  0
  2  3  2  0
  3  4  1  0
  4  5  1  0
  5  6  1  0
  6  7  1  0
  4  8  1  0
  4  9  1  0
  3 10  1  0
 10 11  2  3
 11 12  1  0
 12 13  2  3
 13 14  1  0
 14 15  1  0
 15 16  1  0
 16 17  2  3
 17 18  1  0
 18 19  2  0
 16 20  1  0
 20 21  2  0
 12 22  1  0
  7  2  1  0
 21 13  1  0
M  END
$$$$
