
     RDKit          3D

 22 23  0  0  0  0  0  0  0  0999 V2000
   -6.8200    0.4435    8.0803 C   0  0  0  0  0  0  0  0  0  0  0  0
   -6.9253    1.5836    7.1049 C   0  0  0  0  0  0  0  0  0  0  0  0
   -6.0710    1.7745    6.1615 C   0  0  0  0  0  0  0  0  0  0  0  0
   -6.2324    2.9645    5.1772 C   0  0  0  0  0  0  0  0  0  0  0  0
   -7.6441    3.4169    5.1775 C   0  0  0  0  0  0  0  0  0  0  0  0
   -8.0961    3.7202    6.6047 C   0  0  0  0  0  0  0  0  0  0  0  0
   -8.1393    2.4569    7.3468 C   0  0  0  0  0  0  0  0  0  0  0  0
   -5.3439    4.0693    5.6788 C   0  0  0  0  0  0  0  0  0  0  0  0
   -5.8565    2.5004    3.7996 C   0  0  0  0  0  0  0  0  0  0  0  0
   -4.8778    0.9820    5.9168 C   0  0  0  0  0  0  0  0  0  0  0  0
   -4.0682    0.2550    6.4784 C   0  0  0  0  0  0  0  0  0  0  0  0
   -3.1611   -0.5584    7.1067 C   0  0  0  0  0  0  0  0  0  0  0  0
   -2.3558   -1.2806    7.6644 C   0  0  0  0  0  0  0  0  0  0  0  0
   -2.5236   -1.3131    9.2237 C   0  0  0  0  0  0  0  0  0  0  0  0
   -1.3455   -0.5862    9.7714 C   0  0  0  0  0  0  0  0  0  0  0  0
   -0.0954   -1.1754    9.2701 C   0  0  0  0  0  0  0  0  0  0  0  0
    1.0252   -0.9516    9.9348 C   0  0  0  0  0  0  0  0  0  0  0  0
    1.9624   -2.0175   10.2035 C   0  0  0  0  0  0  0  0  0  0  0  0
    3.1414   -1.8979    9.7685 O   0  0  0  0  0  0  0  0  0  0  0  0
   -0.1054   -1.9858    8.0492 C   0  0  0  0  0  0  0  0  0  0  0  0
   -1.1854   -2.0547    7.2531 C   0  0  0  0  0  0  0  0  0  0  0  0
   -4.0135   -2.0718    6.4677 C   0  0  0  0  0  0  0  0  0  0  0  0
  1  2  1  0
  2  3  2  0
  3  4  1  0
  4  5  1  0
  5  6  1  0
  6  7  1  0
  4  8  1  0
  4  9  1  0
  3 10  1  0
 10 11  2  3
 11 12  1  0
 12 13  2  3
 13 14  1  0
 14 15  1  0
 15 16  1  0
 16 17  2  3
 17 18  1  0
 18 19  2  0
 16 20  1  0
 20 21  2  0
 12 22  1  0
  7  2  1  0
 21 13  1  0
M  END
$$$$
