
     RDKit          3D

 22 23  0  0  0  0  0  0  0  0999 V2000
   -7.6593    0.4543    7.5508 C   0  0  0  0  0  0  0  0  0  0  0  0
   -6.9875    1.6827    8.1003 C   0  0  0  0  0  0  0  0  0  0  0  0
   -5.7332    1.9217    7.9396 C   0  0  0  0  0  0  0  0  0  0  0  0
   -5.0926    3.2104    8.5224 C   0  0  0  0  0  0  0  0  0  0  0  0
   -6.1486    4.2242    8.7557 C   0  0  0  0  0  0  0  0  0  0  0  0
   -7.2603    3.6325    9.6202 C   0  0  0  0  0  0  0  0  0  0  0  0
   -7.9431    2.5977    8.8383 C   0  0  0  0  0  0  0  0  0  0  0  0
   -4.4562    2.8283    9.8303 C   0  0  0  0  0  0  0  0  0  0  0  0
   -4.0996    3.7424    7.5297 C   0  0  0  0  0  0  0  0  0  0  0  0
   -4.7779    1.0557    7.2692 C   0  0  0  0  0  0  0  0  0  0  0  0
   -4.4814    0.6147    6.1661 C   0  0  0  0  0  0  0  0  0  0  0  0
   -4.1488    0.1201    4.9316 C   0  0  0  0  0  0  0  0  0  0  0  0
   -3.8536   -0.3189    3.8356 C   0  0  0  0  0  0  0  0  0  0  0  0
   -3.5889   -1.8650    3.8347 C   0  0  0  0  0  0  0  0  0  0  0  0
   -2.1231   -2.0231    3.6275 C   0  0  0  0  0  0  0  0  0  0  0  0
   -1.6942   -1.3201    2.4097 C   0  0  0  0  0  0  0  0  0  0  0  0
   -0.5517   -1.6682    1.8428 C   0  0  0  0  0  0  0  0  0  0  0  0
   -0.3960   -1.6625    0.4066 C   0  0  0  0  0  0  0  0  0  0  0  0
   -1.2917   -2.2134   -0.2918 O   0  0  0  0  0  0  0  0  0  0  0  0
   -2.5235   -0.2486    1.8517 C   0  0  0  0  0  0  0  0  0  0  0  0
   -3.5745    0.2553    2.5201 C   0  0  0  0  0  0  0  0  0  0  0  0
   -4.8233    1.6295    4.0995 C   0  0  0  0  0  0  0  0  0  0  0  0
  1  2  1  0
  2  3  2  0
  3  4  1  0
  4  5  1  0
  5  6  1  0
  6  7  1  0
  4  8  1  0
  4  9  1  0
  3 10  1  0
 10 11  2  3
 11 12  1  0
 12 13  2  3
 13 14  1  0
 14 15  1  0
 15 16  1  0
 16 17  2  3
 17 18  1  0
 18 19  2  0
 16 20  1  0
 20 21  2  0
 12 22  1  0
  7  2  1  0
 21 13  1  0
M  END
$$$$
