
     RDKit          3D

 22 23  0  0  0  0  0  0  0  0999 V2000
   -8.5250    2.1694    4.1306 C   0  0  0  0  0  0  0  0  0  0  0  0
   -7.2881    2.0777    3.2799 C   0  0  0  0  0  0  0  0  0  0  0  0
   -6.1018    2.2235    3.7571 C   0  0  0  0  0  0  0  0  0  0  0  0
   -4.8585    2.1115    2.8338 C   0  0  0  0  0  0  0  0  0  0  0  0
   -5.2178    1.3518    1.6126 C   0  0  0  0  0  0  0  0  0  0  0  0
   -6.4381    1.9821    0.9443 C   0  0  0  0  0  0  0  0  0  0  0  0
   -7.5928    1.7840    1.8253 C   0  0  0  0  0  0  0  0  0  0  0  0
   -4.4628    3.5140    2.4625 C   0  0  0  0  0  0  0  0  0  0  0  0
   -3.7757    1.3823    3.5757 C   0  0  0  0  0  0  0  0  0  0  0  0
   -5.7690    2.5389    5.1361 C   0  0  0  0  0  0  0  0  0  0  0  0
   -5.6455    2.0277    6.2419 C   0  0  0  0  0  0  0  0  0  0  0  0
   -5.5074    1.4544    7.4794 C   0  0  0  0  0  0  0  0  0  0  0  0
   -5.3849    0.9455    8.5780 C   0  0  0  0  0  0  0  0  0  0  0  0
   -3.9568    1.1382    9.1979 C   0  0  0  0  0  0  0  0  0  0  0  0
   -3.3191   -0.2067    9.1675 C   0  0  0  0  0  0  0  0  0  0  0  0
   -4.1641   -1.1952    9.8531 C   0  0  0  0  0  0  0  0  0  0  0  0
   -3.6108   -2.3159   10.2839 C   0  0  0  0  0  0  0  0  0  0  0  0
   -2.3991   -2.2990   11.0702 C   0  0  0  0  0  0  0  0  0  0  0  0
   -2.4494   -1.8068   12.2316 O   0  0  0  0  0  0  0  0  0  0  0  0
   -5.5937   -0.9334   10.0395 C   0  0  0  0  0  0  0  0  0  0  0  0
   -6.2107    0.0953    9.4343 C   0  0  0  0  0  0  0  0  0  0  0  0
   -6.0830    3.0061    8.3080 C   0  0  0  0  0  0  0  0  0  0  0  0
  1  2  1  0
  2  3  2  0
  3  4  1  0
  4  5  1  0
  5  6  1  0
  6  7  1  0
  4  8  1  0
  4  9  1  0
  3 10  1  0
 10 11  2  3
 11 12  1  0
 12 13  2  3
 13 14  1  0
 14 15  1  0
 15 16  1  0
 16 17  2  3
 17 18  1  0
 18 19  2  0
 16 20  1  0
 20 21  2  0
 12 22  1  0
  7  2  1  0
 21 13  1  0
M  END
$$$$
