
     RDKit          3D

 22 23  0  0  0  0  0  0  0  0999 V2000
   -7.5532    2.1323    5.5808 C   0  0  0  0  0  0  0  0  0  0  0  0
   -6.7724    2.4211    4.3282 C   0  0  0  0  0  0  0  0  0  0  0  0
   -5.6717    1.8202    4.0392 C   0  0  0  0  0  0  0  0  0  0  0  0
   -4.9098    2.1524    2.7277 C   0  0  0  0  0  0  0  0  0  0  0  0
   -5.8447    2.7703    1.7571 C   0  0  0  0  0  0  0  0  0  0  0  0
   -6.5441    3.9692    2.3948 C   0  0  0  0  0  0  0  0  0  0  0  0
   -7.4268    3.4711    3.4538 C   0  0  0  0  0  0  0  0  0  0  0  0
   -3.8284    3.1334    3.0877 C   0  0  0  0  0  0  0  0  0  0  0  0
   -4.3653    0.8761    2.1541 C   0  0  0  0  0  0  0  0  0  0  0  0
   -4.9948    0.8342    4.8648 C   0  0  0  0  0  0  0  0  0  0  0  0
   -4.9731    0.3747    5.9995 C   0  0  0  0  0  0  0  0  0  0  0  0
   -4.9492   -0.1408    7.2696 C   0  0  0  0  0  0  0  0  0  0  0  0
   -4.9282   -0.5983    8.3971 C   0  0  0  0  0  0  0  0  0  0  0  0
   -6.2564   -0.3510    9.1943 C   0  0  0  0  0  0  0  0  0  0  0  0
   -5.9175    0.6514   10.2415 C   0  0  0  0  0  0  0  0  0  0  0  0
   -4.7839    0.1872   11.0544 C   0  0  0  0  0  0  0  0  0  0  0  0
   -4.6000    0.7169   12.2516 C   0  0  0  0  0  0  0  0  0  0  0  0
   -5.2070    0.1383   13.4278 C   0  0  0  0  0  0  0  0  0  0  0  0
   -4.4489   -0.3625   14.3043 O   0  0  0  0  0  0  0  0  0  0  0  0
   -3.8773   -0.8375   10.5297 C   0  0  0  0  0  0  0  0  0  0  0  0
   -3.9246   -1.2366    9.2477 C   0  0  0  0  0  0  0  0  0  0  0  0
   -6.1969    1.1010    7.8412 C   0  0  0  0  0  0  0  0  0  0  0  0
  1  2  1  0
  2  3  2  0
  3  4  1  0
  4  5  1  0
  5  6  1  0
  6  7  1  0
  4  8  1  0
  4  9  1  0
  3 10  1  0
 10 11  2  3
 11 12  1  0
 12 13  2  3
 13 14  1  0
 14 15  1  0
 15 16  1  0
 16 17  2  3
 17 18  1  0
 18 19  2  0
 16 20  1  0
 20 21  2  0
 12 22  1  0
  7  2  1  0
 21 13  1  0
M  END
$$$$
