
     RDKit          3D

 22 23  0  0  0  0  0  0  0  0999 V2000
   -7.7431    1.7224    5.4998 C   0  0  0  0  0  0  0  0  0  0  0  0
   -7.2988    2.1594    6.8686 C   0  0  0  0  0  0  0  0  0  0  0  0
   -6.1465    1.8582    7.3563 C   0  0  0  0  0  0  0  0  0  0  0  0
   -5.7363    2.3424    8.7734 C   0  0  0  0  0  0  0  0  0  0  0  0
   -6.5630    3.5128    9.1533 C   0  0  0  0  0  0  0  0  0  0  0  0
   -8.0458    3.1737    9.0133 C   0  0  0  0  0  0  0  0  0  0  0  0
   -8.3390    2.9930    7.5885 C   0  0  0  0  0  0  0  0  0  0  0  0
   -6.0029    1.2030    9.7180 C   0  0  0  0  0  0  0  0  0  0  0  0
   -4.2892    2.7415    8.7425 C   0  0  0  0  0  0  0  0  0  0  0  0
   -5.1362    1.0347    6.7138 C   0  0  0  0  0  0  0  0  0  0  0  0
   -4.5302    0.8954    5.6590 C   0  0  0  0  0  0  0  0  0  0  0  0
   -3.8508    0.7392    4.4786 C   0  0  0  0  0  0  0  0  0  0  0  0
   -3.2475    0.6006    3.4308 C   0  0  0  0  0  0  0  0  0  0  0  0
   -3.8142    1.4833    2.2644 C   0  0  0  0  0  0  0  0  0  0  0  0
   -4.4646    0.5342    1.3197 C   0  0  0  0  0  0  0  0  0  0  0  0
   -3.5181   -0.5105    0.9027 C   0  0  0  0  0  0  0  0  0  0  0  0
   -3.7615   -1.1830   -0.2091 C   0  0  0  0  0  0  0  0  0  0  0  0
   -3.4964   -0.6060   -1.5066 C   0  0  0  0  0  0  0  0  0  0  0  0
   -4.4119    0.0660   -2.0580 O   0  0  0  0  0  0  0  0  0  0  0  0
   -2.3360   -0.7966    1.7201 C   0  0  0  0  0  0  0  0  0  0  0  0
   -2.1791   -0.2729    2.9474 C   0  0  0  0  0  0  0  0  0  0  0  0
   -2.5579    1.9502    5.0148 C   0  0  0  0  0  0  0  0  0  0  0  0
  1  2  1  0
  2  3  2  0
  3  4  1  0
  4  5  1  0
  5  6  1  0
  6  7  1  0
  4  8  1  0
  4  9  1  0
  3 10  1  0
 10 11  2  3
 11 12  1  0
 12 13  2  3
 13 14  1  0
 14 15  1  0
 15 16  1  0
 16 17  2  3
 17 18  1  0
 18 19  2  0
 16 20  1  0
 20 21  2  0
 12 22  1  0
  7  2  1  0
 21 13  1  0
M  END
$$$$
