
     RDKit          3D

 22 23  0  0  0  0  0  0  0  0999 V2000
   -6.9184    0.2696    3.4860 C   0  0  0  0  0  0  0  0  0  0  0  0
   -6.2679    1.5580    3.0627 C   0  0  0  0  0  0  0  0  0  0  0  0
   -5.3996    2.1713    3.7881 C   0  0  0  0  0  0  0  0  0  0  0  0
   -4.7537    3.4956    3.2984 C   0  0  0  0  0  0  0  0  0  0  0  0
   -4.8781    3.5897    1.8243 C   0  0  0  0  0  0  0  0  0  0  0  0
   -6.3381    3.4156    1.4102 C   0  0  0  0  0  0  0  0  0  0  0  0
   -6.7325    2.0343    1.7017 C   0  0  0  0  0  0  0  0  0  0  0  0
   -5.5159    4.6186    3.9461 C   0  0  0  0  0  0  0  0  0  0  0  0
   -3.3009    3.4884    3.6779 C   0  0  0  0  0  0  0  0  0  0  0  0
   -4.9532    1.7669    5.1105 C   0  0  0  0  0  0  0  0  0  0  0  0
   -5.3158    1.7136    6.2789 C   0  0  0  0  0  0  0  0  0  0  0  0
   -5.7228    1.6537    7.5866 C   0  0  0  0  0  0  0  0  0  0  0  0
   -6.0840    1.6005    8.7475 C   0  0  0  0  0  0  0  0  0  0  0  0
   -4.9297    1.8799    9.7723 C   0  0  0  0  0  0  0  0  0  0  0  0
   -4.6478    0.5736   10.4283 C   0  0  0  0  0  0  0  0  0  0  0  0
   -5.8744    0.0137   11.0140 C   0  0  0  0  0  0  0  0  0  0  0  0
   -5.7669   -0.9005   11.9629 C   0  0  0  0  0  0  0  0  0  0  0  0
   -5.4618   -0.5325   13.3261 C   0  0  0  0  0  0  0  0  0  0  0  0
   -4.2581   -0.2956   13.6240 O   0  0  0  0  0  0  0  0  0  0  0  0
   -7.1852    0.4633   10.5374 C   0  0  0  0  0  0  0  0  0  0  0  0
   -7.3162    1.2317    9.4431 C   0  0  0  0  0  0  0  0  0  0  0  0
   -4.0353    2.1328    8.1768 C   0  0  0  0  0  0  0  0  0  0  0  0
  1  2  1  0
  2  3  2  0
  3  4  1  0
  4  5  1  0
  5  6  1  0
  6  7  1  0
  4  8  1  0
  4  9  1  0
  3 10  1  0
 10 11  2  3
 11 12  1  0
 12 13  2  3
 13 14  1  0
 14 15  1  0
 15 16  1  0
 16 17  2  3
 17 18  1  0
 18 19  2  0
 16 20  1  0
 20 21  2  0
 12 22  1  0
  7  2  1  0
 21 13  1  0
M  END
$$$$
