
     RDKit          3D

 22 23  0  0  0  0  0  0  0  0999 V2000
   -7.0630    1.6242    6.7577 C   0  0  0  0  0  0  0  0  0  0  0  0
   -6.9862    1.9565    5.2929 C   0  0  0  0  0  0  0  0  0  0  0  0
   -5.8779    1.9702    4.6387 C   0  0  0  0  0  0  0  0  0  0  0  0
   -5.8574    2.3134    3.1246 C   0  0  0  0  0  0  0  0  0  0  0  0
   -7.2047    2.0871    2.5491 C   0  0  0  0  0  0  0  0  0  0  0  0
   -8.2522    2.8574    3.3507 C   0  0  0  0  0  0  0  0  0  0  0  0
   -8.3410    2.2530    4.6832 C   0  0  0  0  0  0  0  0  0  0  0  0
   -5.4938    3.7683    3.0117 C   0  0  0  0  0  0  0  0  0  0  0  0
   -4.8656    1.4149    2.4436 C   0  0  0  0  0  0  0  0  0  0  0  0
   -4.5567    1.7255    5.1921 C   0  0  0  0  0  0  0  0  0  0  0  0
   -3.9907    1.2680    6.1768 C   0  0  0  0  0  0  0  0  0  0  0  0
   -3.3576    0.7549    7.2791 C   0  0  0  0  0  0  0  0  0  0  0  0
   -2.7954    0.2994    8.2576 C   0  0  0  0  0  0  0  0  0  0  0  0
   -1.8336    1.3230    8.9561 C   0  0  0  0  0  0  0  0  0  0  0  0
   -0.4549    0.8332    8.6812 C   0  0  0  0  0  0  0  0  0  0  0  0
   -0.3035   -0.5606    9.1234 C   0  0  0  0  0  0  0  0  0  0  0  0
    0.9128   -1.0306    9.3417 C   0  0  0  0  0  0  0  0  0  0  0  0
    1.2626   -2.3901    9.0011 C   0  0  0  0  0  0  0  0  0  0  0  0
    1.6428   -2.6296    7.8213 O   0  0  0  0  0  0  0  0  0  0  0  0
   -1.4877   -1.4043    9.3051 C   0  0  0  0  0  0  0  0  0  0  0  0
   -2.7061   -1.0134    8.8953 C   0  0  0  0  0  0  0  0  0  0  0  0
   -1.8279    0.4159    6.2938 C   0  0  0  0  0  0  0  0  0  0  0  0
  1  2  1  0
  2  3  2  0
  3  4  1  0
  4  5  1  0
  5  6  1  0
  6  7  1  0
  4  8  1  0
  4  9  1  0
  3 10  1  0
 10 11  2  3
 11 12  1  0
 12 13  2  3
 13 14  1  0
 14 15  1  0
 15 16  1  0
 16 17  2  3
 17 18  1  0
 18 19  2  0
 16 20  1  0
 20 21  2  0
 12 22  1  0
  7  2  1  0
 21 13  1  0
M  END
$$$$
