
     RDKit          3D

 22 23  0  0  0  0  0  0  0  0999 V2000
   -6.9537    0.7065    8.4779 C   0  0  0  0  0  0  0  0  0  0  0  0
   -7.0955    1.6941    7.3525 C   0  0  0  0  0  0  0  0  0  0  0  0
   -6.4939    1.5549    6.2234 C   0  0  0  0  0  0  0  0  0  0  0  0
   -6.6820    2.6021    5.0925 C   0  0  0  0  0  0  0  0  0  0  0  0
   -7.9374    3.3562    5.3223 C   0  0  0  0  0  0  0  0  0  0  0  0
   -7.9416    3.9487    6.7302 C   0  0  0  0  0  0  0  0  0  0  0  0
   -8.0236    2.8432    7.6892 C   0  0  0  0  0  0  0  0  0  0  0  0
   -5.5064    3.5372    5.1637 C   0  0  0  0  0  0  0  0  0  0  0  0
   -6.7667    1.8785    3.7795 C   0  0  0  0  0  0  0  0  0  0  0  0
   -5.5713    0.4881    5.8733 C   0  0  0  0  0  0  0  0  0  0  0  0
   -4.5154   -0.0282    6.2165 C   0  0  0  0  0  0  0  0  0  0  0  0
   -3.3327   -0.6052    6.6006 C   0  0  0  0  0  0  0  0  0  0  0  0
   -2.2827   -1.1175    6.9414 C   0  0  0  0  0  0  0  0  0  0  0  0
   -2.4722   -2.3698    7.8669 C   0  0  0  0  0  0  0  0  0  0  0  0
   -2.0098   -1.9469    9.2173 C   0  0  0  0  0  0  0  0  0  0  0  0
   -0.6368   -1.4252    9.1540 C   0  0  0  0  0  0  0  0  0  0  0  0
    0.0809   -1.3855   10.2635 C   0  0  0  0  0  0  0  0  0  0  0  0
    1.4794   -1.7473   10.2641 C   0  0  0  0  0  0  0  0  0  0  0  0
    2.1809   -1.4158    9.2683 O   0  0  0  0  0  0  0  0  0  0  0  0
   -0.0910   -0.9522    7.8789 C   0  0  0  0  0  0  0  0  0  0  0  0
   -0.8646   -0.7936    6.7920 C   0  0  0  0  0  0  0  0  0  0  0  0
   -2.9011   -0.9886    4.8421 C   0  0  0  0  0  0  0  0  0  0  0  0
  1  2  1  0
  2  3  2  0
  3  4  1  0
  4  5  1  0
  5  6  1  0
  6  7  1  0
  4  8  1  0
  4  9  1  0
  3 10  1  0
 10 11  2  3
 11 12  1  0
 12 13  2  3
 13 14  1  0
 14 15  1  0
 15 16  1  0
 16 17  2  3
 17 18  1  0
 18 19  2  0
 16 20  1  0
 20 21  2  0
 12 22  1  0
  7  2  1  0
 21 13  1  0
M  END
$$$$
