
     RDKit          3D

 22 23  0  0  0  0  0  0  0  0999 V2000
   -4.4899    3.6923    6.4329 C   0  0  0  0  0  0  0  0  0  0  0  0
   -5.5436    3.2506    7.4110 C   0  0  0  0  0  0  0  0  0  0  0  0
   -5.7218    2.0175    7.7336 C   0  0  0  0  0  0  0  0  0  0  0  0
   -6.8207    1.6181    8.7553 C   0  0  0  0  0  0  0  0  0  0  0  0
   -7.1733    2.7944    9.5857 C   0  0  0  0  0  0  0  0  0  0  0  0
   -7.5508    3.9729    8.6901 C   0  0  0  0  0  0  0  0  0  0  0  0
   -6.3467    4.4050    7.9745 C   0  0  0  0  0  0  0  0  0  0  0  0
   -8.0187    1.1800    7.9588 C   0  0  0  0  0  0  0  0  0  0  0  0
   -6.2816    0.5280    9.6361 C   0  0  0  0  0  0  0  0  0  0  0  0
   -4.9976    0.8800    7.1921 C   0  0  0  0  0  0  0  0  0  0  0  0
   -4.5763    0.4136    6.1412 C   0  0  0  0  0  0  0  0  0  0  0  0
   -4.1057   -0.1085    4.9642 C   0  0  0  0  0  0  0  0  0  0  0  0
   -3.6880   -0.5721    3.9195 C   0  0  0  0  0  0  0  0  0  0  0  0
   -3.2543   -2.0753    4.0344 C   0  0  0  0  0  0  0  0  0  0  0  0
   -1.7692   -2.0756    3.9305 C   0  0  0  0  0  0  0  0  0  0  0  0
   -1.3367   -1.3982    2.6995 C   0  0  0  0  0  0  0  0  0  0  0  0
   -0.1260   -1.6445    2.2292 C   0  0  0  0  0  0  0  0  0  0  0  0
    0.1107   -1.7946    0.8120 C   0  0  0  0  0  0  0  0  0  0  0  0
   -0.8519   -2.1631    0.0831 O   0  0  0  0  0  0  0  0  0  0  0  0
   -2.2386   -0.4623    2.0228 C   0  0  0  0  0  0  0  0  0  0  0  0
   -3.3830   -0.0452    2.5900 C   0  0  0  0  0  0  0  0  0  0  0  0
   -3.6384   -1.6899    5.8047 C   0  0  0  0  0  0  0  0  0  0  0  0
  1  2  1  0
  2  3  2  0
  3  4  1  0
  4  5  1  0
  5  6  1  0
  6  7  1  0
  4  8  1  0
  4  9  1  0
  3 10  1  0
 10 11  2  3
 11 12  1  0
 12 13  2  3
 13 14  1  0
 14 15  1  0
 15 16  1  0
 16 17  2  3
 17 18  1  0
 18 19  2  0
 16 20  1  0
 20 21  2  0
 12 22  1  0
  7  2  1  0
 21 13  1  0
M  END
$$$$
