
     RDKit          3D

 22 24  0  0  0  0  0  0  0  0999 V2000
   -0.1102    2.6710    9.1408 C   0  0  0  0  0  0  0  0  0  0  0  0
    0.8601    1.6089    9.0072 N   0  0  0  0  0  0  0  0  0  0  0  0
    2.1762    1.9963    9.4431 C   0  0  0  0  0  0  0  0  0  0  0  0
    0.8506    1.0189    7.6836 C   0  0  0  0  0  0  0  0  0  0  0  0
    0.2035   -0.3568    7.8365 C   0  0  0  0  0  0  0  0  0  0  0  0
    1.0208   -1.3638    7.2483 O   0  0  0  0  0  0  0  0  0  0  0  0
    1.1331   -2.5446    7.9982 C   0  0  0  0  0  0  0  0  0  0  0  0
    1.5200   -2.4411    9.2568 C   0  0  0  0  0  0  0  0  0  0  0  0
    1.7443   -3.4119   10.3143 C   0  0  0  0  0  0  0  0  0  0  0  0
    1.5655   -2.8745   11.5840 C   0  0  0  0  0  0  0  0  0  0  0  0
    1.7354   -3.6442   12.7118 C   0  0  0  0  0  0  0  0  0  0  0  0
    2.0882   -4.9642   12.5381 C   0  0  0  0  0  0  0  0  0  0  0  0
    2.2674   -5.5035   11.2707 C   0  0  0  0  0  0  0  0  0  0  0  0
    2.0976   -4.7334   10.1361 C   0  0  0  0  0  0  0  0  0  0  0  0
    2.3822   -5.6487    8.6265 S   0  0  0  0  0  0  0  0  0  0  0  0
    1.2178   -5.0567    7.3982 C   0  0  0  0  0  0  0  0  0  0  0  0
    0.7949   -3.7578    7.2548 C   0  0  0  0  0  0  0  0  0  0  0  0
   -0.1149   -3.4851    6.2418 C   0  0  0  0  0  0  0  0  0  0  0  0
   -0.5602   -4.5096    5.4225 C   0  0  0  0  0  0  0  0  0  0  0  0
   -0.1310   -5.8109    5.5728 C   0  0  0  0  0  0  0  0  0  0  0  0
    0.7724   -6.0909    6.5762 C   0  0  0  0  0  0  0  0  0  0  0  0
   -1.7157   -4.1264    4.1462 Cl  0  0  0  0  0  0  0  0  0  0  0  0
  1  2  1  0
  2  3  1  0
  2  4  1  0
  4  5  1  0
  5  6  1  0
  6  7  1  0
  7  8  2  0
  8  9  1  0
  9 10  2  0
 10 11  1  0
 11 12  2  0
 12 13  1  0
 13 14  2  0
 14 15  1  0
 15 16  1  0
 16 17  2  0
 17 18  1  0
 18 19  2  0
 19 20  1  0
 20 21  2  0
 19 22  1  0
 17  7  1  0
 14  9  1  0
 21 16  1  0
M  END
$$$$
