
     RDKit          3D

 22 24  0  0  0  0  0  0  0  0999 V2000
   -1.2753   -5.7958   12.3291 C   0  0  0  0  0  0  0  0  0  0  0  0
   -0.5982   -6.3871   11.1980 N   0  0  0  0  0  0  0  0  0  0  0  0
   -0.4161   -7.8084   11.3363 C   0  0  0  0  0  0  0  0  0  0  0  0
    0.6256   -5.6874   10.8627 C   0  0  0  0  0  0  0  0  0  0  0  0
    0.5234   -5.3406    9.3781 C   0  0  0  0  0  0  0  0  0  0  0  0
   -0.4586   -4.3314    9.1652 O   0  0  0  0  0  0  0  0  0  0  0  0
    0.0526   -3.0843    8.7746 C   0  0  0  0  0  0  0  0  0  0  0  0
    0.4826   -2.2703    9.7217 C   0  0  0  0  0  0  0  0  0  0  0  0
    1.0611   -0.9375    9.7044 C   0  0  0  0  0  0  0  0  0  0  0  0
    1.8895   -0.6971   10.7947 C   0  0  0  0  0  0  0  0  0  0  0  0
    2.5270    0.5124   10.9498 C   0  0  0  0  0  0  0  0  0  0  0  0
    2.3151    1.4749    9.9877 C   0  0  0  0  0  0  0  0  0  0  0  0
    1.4879    1.2372    8.8975 C   0  0  0  0  0  0  0  0  0  0  0  0
    0.8463    0.0238    8.7387 C   0  0  0  0  0  0  0  0  0  0  0  0
   -0.1600   -0.0416    7.2620 S   0  0  0  0  0  0  0  0  0  0  0  0
   -0.0460   -1.7016    6.5937 C   0  0  0  0  0  0  0  0  0  0  0  0
    0.0351   -2.8584    7.3298 C   0  0  0  0  0  0  0  0  0  0  0  0
    0.1170   -4.0585    6.6359 C   0  0  0  0  0  0  0  0  0  0  0  0
    0.1147   -4.0541    5.2506 C   0  0  0  0  0  0  0  0  0  0  0  0
    0.0331   -2.8887    4.5189 C   0  0  0  0  0  0  0  0  0  0  0  0
   -0.0486   -1.6923    5.1996 C   0  0  0  0  0  0  0  0  0  0  0  0
    0.2201   -5.5972    4.4027 Cl  0  0  0  0  0  0  0  0  0  0  0  0
  1  2  1  0
  2  3  1  0
  2  4  1  0
  4  5  1  0
  5  6  1  0
  6  7  1  0
  7  8  2  0
  8  9  1  0
  9 10  2  0
 10 11  1  0
 11 12  2  0
 12 13  1  0
 13 14  2  0
 14 15  1  0
 15 16  1  0
 16 17  2  0
 17 18  1  0
 18 19  2  0
 19 20  1  0
 20 21  2  0
 19 22  1  0
 17  7  1  0
 14  9  1  0
 21 16  1  0
M  END
$$$$
