
     RDKit          3D

 22 24  0  0  0  0  0  0  0  0999 V2000
    5.5306   -1.7488   13.1227 C   0  0  0  0  0  0  0  0  0  0  0  0
    4.6016   -1.0140   12.2953 N   0  0  0  0  0  0  0  0  0  0  0  0
    4.7920    0.4109   12.3713 C   0  0  0  0  0  0  0  0  0  0  0  0
    3.2279   -1.4165   12.5201 C   0  0  0  0  0  0  0  0  0  0  0  0
    2.8077   -2.2041   11.2801 C   0  0  0  0  0  0  0  0  0  0  0  0
    2.1373   -1.3576   10.3515 O   0  0  0  0  0  0  0  0  0  0  0  0
    1.5584   -2.0220    9.2594 C   0  0  0  0  0  0  0  0  0  0  0  0
    1.4078   -3.3315    9.3439 C   0  0  0  0  0  0  0  0  0  0  0  0
    0.8646   -4.3331    8.4422 C   0  0  0  0  0  0  0  0  0  0  0  0
    0.3598   -5.4419    9.1120 C   0  0  0  0  0  0  0  0  0  0  0  0
   -0.1960   -6.4957    8.4236 C   0  0  0  0  0  0  0  0  0  0  0  0
   -0.2343   -6.4128    7.0494 C   0  0  0  0  0  0  0  0  0  0  0  0
    0.2693   -5.3061    6.3779 C   0  0  0  0  0  0  0  0  0  0  0  0
    0.8281   -4.2462    7.0660 C   0  0  0  0  0  0  0  0  0  0  0  0
    1.4038   -2.9429    5.9855 S   0  0  0  0  0  0  0  0  0  0  0  0
    1.0924   -1.3767    6.8010 C   0  0  0  0  0  0  0  0  0  0  0  0
    1.1938   -1.1412    8.1503 C   0  0  0  0  0  0  0  0  0  0  0  0
    0.9130    0.1412    8.6029 C   0  0  0  0  0  0  0  0  0  0  0  0
    0.5465    1.1251    7.6993 C   0  0  0  0  0  0  0  0  0  0  0  0
    0.4469    0.8809    6.3462 C   0  0  0  0  0  0  0  0  0  0  0  0
    0.7239   -0.3897    5.8878 C   0  0  0  0  0  0  0  0  0  0  0  0
    0.1971    2.7426    8.3100 Cl  0  0  0  0  0  0  0  0  0  0  0  0
  1  2  1  0
  2  3  1  0
  2  4  1  0
  4  5  1  0
  5  6  1  0
  6  7  1  0
  7  8  2  0
  8  9  1  0
  9 10  2  0
 10 11  1  0
 11 12  2  0
 12 13  1  0
 13 14  2  0
 14 15  1  0
 15 16  1  0
 16 17  2  0
 17 18  1  0
 18 19  2  0
 19 20  1  0
 20 21  2  0
 19 22  1  0
 17  7  1  0
 14  9  1  0
 21 16  1  0
M  END
$$$$
