
     RDKit          3D

 22 24  0  0  0  0  0  0  0  0999 V2000
    2.0236    0.9280    5.4554 C   0  0  0  0  0  0  0  0  0  0  0  0
    0.6678    0.9212    5.9546 N   0  0  0  0  0  0  0  0  0  0  0  0
   -0.0945    2.0612    5.5168 C   0  0  0  0  0  0  0  0  0  0  0  0
    0.6107    0.7160    7.3879 C   0  0  0  0  0  0  0  0  0  0  0  0
   -0.0570   -0.6425    7.5962 C   0  0  0  0  0  0  0  0  0  0  0  0
    0.8266   -1.6973    7.2291 O   0  0  0  0  0  0  0  0  0  0  0  0
    1.2475   -2.5108    8.2922 C   0  0  0  0  0  0  0  0  0  0  0  0
    1.7244   -1.9171    9.3714 C   0  0  0  0  0  0  0  0  0  0  0  0
    2.2415   -2.4121   10.6358 C   0  0  0  0  0  0  0  0  0  0  0  0
    2.0803   -1.5029   11.6752 C   0  0  0  0  0  0  0  0  0  0  0  0
    2.5102   -1.7961   12.9489 C   0  0  0  0  0  0  0  0  0  0  0  0
    3.1051   -3.0208   13.1570 C   0  0  0  0  0  0  0  0  0  0  0  0
    3.2673   -3.9308   12.1203 C   0  0  0  0  0  0  0  0  0  0  0  0
    2.8367   -3.6396   10.8401 C   0  0  0  0  0  0  0  0  0  0  0  0
    3.1547   -4.9646    9.6822 S   0  0  0  0  0  0  0  0  0  0  0  0
    1.7819   -5.0278    8.5304 C   0  0  0  0  0  0  0  0  0  0  0  0
    1.0926   -3.9438    8.0444 C   0  0  0  0  0  0  0  0  0  0  0  0
    0.0534   -4.1873    7.1561 C   0  0  0  0  0  0  0  0  0  0  0  0
   -0.2514   -5.4891    6.7936 C   0  0  0  0  0  0  0  0  0  0  0  0
    0.4452   -6.5720    7.2859 C   0  0  0  0  0  0  0  0  0  0  0  0
    1.4788   -6.3396    8.1686 C   0  0  0  0  0  0  0  0  0  0  0  0
   -1.5778   -5.7606    5.6631 Cl  0  0  0  0  0  0  0  0  0  0  0  0
  1  2  1  0
  2  3  1  0
  2  4  1  0
  4  5  1  0
  5  6  1  0
  6  7  1  0
  7  8  2  0
  8  9  1  0
  9 10  2  0
 10 11  1  0
 11 12  2  0
 12 13  1  0
 13 14  2  0
 14 15  1  0
 15 16  1  0
 16 17  2  0
 17 18  1  0
 18 19  2  0
 19 20  1  0
 20 21  2  0
 19 22  1  0
 17  7  1  0
 14  9  1  0
 21 16  1  0
M  END
$$$$
