
     RDKit          3D

 22 24  0  0  0  0  0  0  0  0999 V2000
    2.2174   -2.3036   12.8551 C   0  0  0  0  0  0  0  0  0  0  0  0
    2.3214   -0.9705   12.3077 N   0  0  0  0  0  0  0  0  0  0  0  0
    1.0384   -0.3650   12.0637 C   0  0  0  0  0  0  0  0  0  0  0  0
    3.2035   -0.9151   11.1593 C   0  0  0  0  0  0  0  0  0  0  0  0
    2.2998   -0.7631    9.9366 C   0  0  0  0  0  0  0  0  0  0  0  0
    2.8082   -1.5163    8.8402 O   0  0  0  0  0  0  0  0  0  0  0  0
    1.9251   -2.4777    8.3252 C   0  0  0  0  0  0  0  0  0  0  0  0
    1.8519   -3.6420    8.9445 C   0  0  0  0  0  0  0  0  0  0  0  0
    1.0755   -4.8480    8.7123 C   0  0  0  0  0  0  0  0  0  0  0  0
    0.8530   -5.5762    9.8755 C   0  0  0  0  0  0  0  0  0  0  0  0
    0.1362   -6.7504    9.8527 C   0  0  0  0  0  0  0  0  0  0  0  0
   -0.3524   -7.1779    8.6379 C   0  0  0  0  0  0  0  0  0  0  0  0
   -0.1315   -6.4522    7.4744 C   0  0  0  0  0  0  0  0  0  0  0  0
    0.5879   -5.2727    7.4938 C   0  0  0  0  0  0  0  0  0  0  0  0
    0.7368   -4.5234    5.8770 S   0  0  0  0  0  0  0  0  0  0  0  0
    0.6600   -2.7444    6.0878 C   0  0  0  0  0  0  0  0  0  0  0  0
    1.1900   -2.0381    7.1398 C   0  0  0  0  0  0  0  0  0  0  0  0
    1.0324   -0.6585    7.1334 C   0  0  0  0  0  0  0  0  0  0  0  0
    0.3594   -0.0475    6.0880 C   0  0  0  0  0  0  0  0  0  0  0  0
   -0.1698   -0.7634    5.0355 C   0  0  0  0  0  0  0  0  0  0  0  0
   -0.0180   -2.1340    5.0336 C   0  0  0  0  0  0  0  0  0  0  0  0
    0.1782    1.7069    6.1131 Cl  0  0  0  0  0  0  0  0  0  0  0  0
  1  2  1  0
  2  3  1  0
  2  4  1  0
  4  5  1  0
  5  6  1  0
  6  7  1  0
  7  8  2  0
  8  9  1  0
  9 10  2  0
 10 11  1  0
 11 12  2  0
 12 13  1  0
 13 14  2  0
 14 15  1  0
 15 16  1  0
 16 17  2  0
 17 18  1  0
 18 19  2  0
 19 20  1  0
 20 21  2  0
 19 22  1  0
 17  7  1  0
 14  9  1  0
 21 16  1  0
M  END
$$$$
