
     RDKit          3D

 22 24  0  0  0  0  0  0  0  0999 V2000
    3.8272   -4.0834   14.1552 C   0  0  0  0  0  0  0  0  0  0  0  0
    2.6385   -3.8474   13.3684 N   0  0  0  0  0  0  0  0  0  0  0  0
    1.4961   -4.5798   13.8488 C   0  0  0  0  0  0  0  0  0  0  0  0
    2.8736   -4.0275   11.9499 C   0  0  0  0  0  0  0  0  0  0  0  0
    2.4302   -2.7290   11.2778 C   0  0  0  0  0  0  0  0  0  0  0  0
    1.1669   -2.8987   10.6426 O   0  0  0  0  0  0  0  0  0  0  0  0
    1.0461   -2.2716    9.3931 C   0  0  0  0  0  0  0  0  0  0  0  0
    1.2726   -0.9718    9.3313 C   0  0  0  0  0  0  0  0  0  0  0  0
    1.2452   -0.0052    8.2468 C   0  0  0  0  0  0  0  0  0  0  0  0
    2.0877    1.0777    8.4707 C   0  0  0  0  0  0  0  0  0  0  0  0
    2.1947    2.0967    7.5524 C   0  0  0  0  0  0  0  0  0  0  0  0
    1.4382    2.0056    6.4050 C   0  0  0  0  0  0  0  0  0  0  0  0
    0.5957    0.9247    6.1789 C   0  0  0  0  0  0  0  0  0  0  0  0
    0.4860   -0.1003    7.0990 C   0  0  0  0  0  0  0  0  0  0  0  0
   -0.6573   -1.3755    6.5849 S   0  0  0  0  0  0  0  0  0  0  0  0
   -0.0019   -2.9525    7.1313 C   0  0  0  0  0  0  0  0  0  0  0  0
    0.6753   -3.1759    8.3052 C   0  0  0  0  0  0  0  0  0  0  0  0
    1.1102   -4.4696    8.5613 C   0  0  0  0  0  0  0  0  0  0  0  0
    0.8539   -5.4760    7.6445 C   0  0  0  0  0  0  0  0  0  0  0  0
    0.1735   -5.2438    6.4683 C   0  0  0  0  0  0  0  0  0  0  0  0
   -0.2622   -3.9621    6.2058 C   0  0  0  0  0  0  0  0  0  0  0  0
    1.4214   -7.1072    8.0030 Cl  0  0  0  0  0  0  0  0  0  0  0  0
  1  2  1  0
  2  3  1  0
  2  4  1  0
  4  5  1  0
  5  6  1  0
  6  7  1  0
  7  8  2  0
  8  9  1  0
  9 10  2  0
 10 11  1  0
 11 12  2  0
 12 13  1  0
 13 14  2  0
 14 15  1  0
 15 16  1  0
 16 17  2  0
 17 18  1  0
 18 19  2  0
 19 20  1  0
 20 21  2  0
 19 22  1  0
 17  7  1  0
 14  9  1  0
 21 16  1  0
M  END
$$$$
