
     RDKit          3D

 22 24  0  0  0  0  0  0  0  0999 V2000
   -2.1385   -6.9930    9.5510 C   0  0  0  0  0  0  0  0  0  0  0  0
   -1.2608   -6.4136   10.5418 N   0  0  0  0  0  0  0  0  0  0  0  0
   -1.2400   -7.1583   11.7736 C   0  0  0  0  0  0  0  0  0  0  0  0
   -1.5096   -4.9994   10.7369 C   0  0  0  0  0  0  0  0  0  0  0  0
   -0.1524   -4.3085   10.6135 C   0  0  0  0  0  0  0  0  0  0  0  0
    0.3242   -4.3745    9.2731 O   0  0  0  0  0  0  0  0  0  0  0  0
    0.5232   -3.1300    8.6561 C   0  0  0  0  0  0  0  0  0  0  0  0
    0.8027   -2.0963    9.4293 C   0  0  0  0  0  0  0  0  0  0  0  0
    1.0654   -0.6926    9.1614 C   0  0  0  0  0  0  0  0  0  0  0  0
    1.8683   -0.1016   10.1303 C   0  0  0  0  0  0  0  0  0  0  0  0
    2.2241    1.2249   10.0461 C   0  0  0  0  0  0  0  0  0  0  0  0
    1.7569    1.9452    8.9691 C   0  0  0  0  0  0  0  0  0  0  0  0
    0.9545    1.3571    7.9997 C   0  0  0  0  0  0  0  0  0  0  0  0
    0.5955    0.0253    8.0813 C   0  0  0  0  0  0  0  0  0  0  0  0
   -0.4378   -0.5000    6.7196 S   0  0  0  0  0  0  0  0  0  0  0  0
    0.0152   -2.1847    6.3054 C   0  0  0  0  0  0  0  0  0  0  0  0
    0.3883   -3.1577    7.2001 C   0  0  0  0  0  0  0  0  0  0  0  0
    0.7056   -4.4109    6.6932 C   0  0  0  0  0  0  0  0  0  0  0  0
    0.6380   -4.6386    5.3284 C   0  0  0  0  0  0  0  0  0  0  0  0
    0.2626   -3.6567    4.4366 C   0  0  0  0  0  0  0  0  0  0  0  0
   -0.0542   -2.4091    4.9311 C   0  0  0  0  0  0  0  0  0  0  0  0
    1.0481   -6.2426    4.7201 Cl  0  0  0  0  0  0  0  0  0  0  0  0
  1  2  1  0
  2  3  1  0
  2  4  1  0
  4  5  1  0
  5  6  1  0
  6  7  1  0
  7  8  2  0
  8  9  1  0
  9 10  2  0
 10 11  1  0
 11 12  2  0
 12 13  1  0
 13 14  2  0
 14 15  1  0
 15 16  1  0
 16 17  2  0
 17 18  1  0
 18 19  2  0
 19 20  1  0
 20 21  2  0
 19 22  1  0
 17  7  1  0
 14  9  1  0
 21 16  1  0
M  END
$$$$
