
     RDKit          3D

 22 24  0  0  0  0  0  0  0  0999 V2000
    0.7789    0.9020   12.0536 C   0  0  0  0  0  0  0  0  0  0  0  0
    2.0008    0.2033   12.3797 N   0  0  0  0  0  0  0  0  0  0  0  0
    2.8298    0.9298   13.3055 C   0  0  0  0  0  0  0  0  0  0  0  0
    2.7166   -0.2333   11.1978 C   0  0  0  0  0  0  0  0  0  0  0  0
    2.0683   -1.5493   10.7706 C   0  0  0  0  0  0  0  0  0  0  0  0
    2.5781   -1.9739    9.5105 O   0  0  0  0  0  0  0  0  0  0  0  0
    1.6522   -2.6421    8.6946 C   0  0  0  0  0  0  0  0  0  0  0  0
    1.3642   -3.8970    8.9890 C   0  0  0  0  0  0  0  0  0  0  0  0
    0.4799   -4.8837    8.3925 C   0  0  0  0  0  0  0  0  0  0  0  0
    0.0331   -5.8287    9.3090 C   0  0  0  0  0  0  0  0  0  0  0  0
   -0.8137   -6.8439    8.9273 C   0  0  0  0  0  0  0  0  0  0  0  0
   -1.2022   -6.8902    7.6068 C   0  0  0  0  0  0  0  0  0  0  0  0
   -0.7571   -5.9472    6.6892 C   0  0  0  0  0  0  0  0  0  0  0  0
    0.0932   -4.9265    7.0691 C   0  0  0  0  0  0  0  0  0  0  0  0
    0.5243   -3.8414    5.7147 S   0  0  0  0  0  0  0  0  0  0  0  0
    0.6403   -2.1738    6.3635 C   0  0  0  0  0  0  0  0  0  0  0  0
    1.1229   -1.8271    7.6017 C   0  0  0  0  0  0  0  0  0  0  0  0
    1.1366   -0.4786    7.9328 C   0  0  0  0  0  0  0  0  0  0  0  0
    0.6727    0.4581    7.0237 C   0  0  0  0  0  0  0  0  0  0  0  0
    0.1898    0.1021    5.7826 C   0  0  0  0  0  0  0  0  0  0  0  0
    0.1725   -1.2348    5.4453 C   0  0  0  0  0  0  0  0  0  0  0  0
    0.7050    2.1620    7.4783 Cl  0  0  0  0  0  0  0  0  0  0  0  0
  1  2  1  0
  2  3  1  0
  2  4  1  0
  4  5  1  0
  5  6  1  0
  6  7  1  0
  7  8  2  0
  8  9  1  0
  9 10  2  0
 10 11  1  0
 11 12  2  0
 12 13  1  0
 13 14  2  0
 14 15  1  0
 15 16  1  0
 16 17  2  0
 17 18  1  0
 18 19  2  0
 19 20  1  0
 20 21  2  0
 19 22  1  0
 17  7  1  0
 14  9  1  0
 21 16  1  0
M  END
$$$$
