
     RDKit          3D

 22 24  0  0  0  0  0  0  0  0999 V2000
    0.6439   -7.1056    8.1436 C   0  0  0  0  0  0  0  0  0  0  0  0
   -0.2162   -6.5457    9.1605 N   0  0  0  0  0  0  0  0  0  0  0  0
   -1.4284   -5.9868    8.6214 C   0  0  0  0  0  0  0  0  0  0  0  0
    0.4902   -5.6324   10.0361 C   0  0  0  0  0  0  0  0  0  0  0  0
   -0.0483   -4.2381    9.7191 C   0  0  0  0  0  0  0  0  0  0  0  0
    0.6874   -3.6466    8.6527 O   0  0  0  0  0  0  0  0  0  0  0  0
    1.0978   -2.3244    8.8817 C   0  0  0  0  0  0  0  0  0  0  0  0
    1.6906   -2.0531   10.0304 C   0  0  0  0  0  0  0  0  0  0  0  0
    2.2375   -0.8371   10.6078 C   0  0  0  0  0  0  0  0  0  0  0  0
    3.2564   -1.0863   11.5202 C   0  0  0  0  0  0  0  0  0  0  0  0
    3.8957   -0.0560   12.1705 C   0  0  0  0  0  0  0  0  0  0  0  0
    3.4907    1.2292   11.8855 C   0  0  0  0  0  0  0  0  0  0  0  0
    2.4731    1.4809   10.9743 C   0  0  0  0  0  0  0  0  0  0  0  0
    1.8290    0.4486   10.3196 C   0  0  0  0  0  0  0  0  0  0  0  0
    0.5592    1.0223    9.1988 S   0  0  0  0  0  0  0  0  0  0  0  0
    0.5648   -0.0555    7.7657 C   0  0  0  0  0  0  0  0  0  0  0  0
    0.8006   -1.4085    7.7810 C   0  0  0  0  0  0  0  0  0  0  0  0
    0.7638   -2.0821    6.5673 C   0  0  0  0  0  0  0  0  0  0  0  0
    0.4959   -1.3845    5.4008 C   0  0  0  0  0  0  0  0  0  0  0  0
    0.2602   -0.0263    5.3937 C   0  0  0  0  0  0  0  0  0  0  0  0
    0.2948    0.6508    6.5944 C   0  0  0  0  0  0  0  0  0  0  0  0
    0.4571   -2.2728    3.8775 Cl  0  0  0  0  0  0  0  0  0  0  0  0
  1  2  1  0
  2  3  1  0
  2  4  1  0
  4  5  1  0
  5  6  1  0
  6  7  1  0
  7  8  2  0
  8  9  1  0
  9 10  2  0
 10 11  1  0
 11 12  2  0
 12 13  1  0
 13 14  2  0
 14 15  1  0
 15 16  1  0
 16 17  2  0
 17 18  1  0
 18 19  2  0
 19 20  1  0
 20 21  2  0
 19 22  1  0
 17  7  1  0
 14  9  1  0
 21 16  1  0
M  END
$$$$
