
     RDKit          3D

 22 24  0  0  0  0  0  0  0  0999 V2000
   -1.2157   -6.8476    8.4503 C   0  0  0  0  0  0  0  0  0  0  0  0
   -0.3996   -5.7754    7.9291 N   0  0  0  0  0  0  0  0  0  0  0  0
   -0.2193   -5.8531    6.5030 C   0  0  0  0  0  0  0  0  0  0  0  0
    0.8478   -5.6323    8.6526 C   0  0  0  0  0  0  0  0  0  0  0  0
    0.7493   -4.3098    9.4114 C   0  0  0  0  0  0  0  0  0  0  0  0
    1.0732   -3.2165    8.5582 O   0  0  0  0  0  0  0  0  0  0  0  0
    1.3540   -2.0129    9.2228 C   0  0  0  0  0  0  0  0  0  0  0  0
    2.0182   -2.0785   10.3626 C   0  0  0  0  0  0  0  0  0  0  0  0
    2.4784   -1.0756   11.3078 C   0  0  0  0  0  0  0  0  0  0  0  0
    3.5998   -1.4838   12.0211 C   0  0  0  0  0  0  0  0  0  0  0  0
    4.1790   -0.6658   12.9638 C   0  0  0  0  0  0  0  0  0  0  0  0
    3.6089    0.5700   13.1752 C   0  0  0  0  0  0  0  0  0  0  0  0
    2.4885    0.9802   12.4639 C   0  0  0  0  0  0  0  0  0  0  0  0
    1.9045    0.1613   11.5166 C   0  0  0  0  0  0  0  0  0  0  0  0
    0.4793    0.9084   10.7366 S   0  0  0  0  0  0  0  0  0  0  0  0
    0.4700    0.4064    9.0153 C   0  0  0  0  0  0  0  0  0  0  0  0
    0.8550   -0.8219    8.5363 C   0  0  0  0  0  0  0  0  0  0  0  0
    0.7794   -1.0309    7.1655 C   0  0  0  0  0  0  0  0  0  0  0  0
    0.3274   -0.0157    6.3384 C   0  0  0  0  0  0  0  0  0  0  0  0
   -0.0572    1.2147    6.8269 C   0  0  0  0  0  0  0  0  0  0  0  0
    0.0145    1.4311    8.1868 C   0  0  0  0  0  0  0  0  0  0  0  0
    0.2447   -0.3167    4.6024 Cl  0  0  0  0  0  0  0  0  0  0  0  0
  1  2  1  0
  2  3  1  0
  2  4  1  0
  4  5  1  0
  5  6  1  0
  6  7  1  0
  7  8  2  0
  8  9  1  0
  9 10  2  0
 10 11  1  0
 11 12  2  0
 12 13  1  0
 13 14  2  0
 14 15  1  0
 15 16  1  0
 16 17  2  0
 17 18  1  0
 18 19  2  0
 19 20  1  0
 20 21  2  0
 19 22  1  0
 17  7  1  0
 14  9  1  0
 21 16  1  0
M  END
$$$$
