
     RDKit          3D

 22 24  0  0  0  0  0  0  0  0999 V2000
    2.6682   -5.7027   11.6767 C   0  0  0  0  0  0  0  0  0  0  0  0
    2.7547   -4.3160   12.0730 N   0  0  0  0  0  0  0  0  0  0  0  0
    3.8031   -4.0725   13.0289 C   0  0  0  0  0  0  0  0  0  0  0  0
    1.4730   -3.7815   12.4870 C   0  0  0  0  0  0  0  0  0  0  0  0
    1.1359   -2.6698   11.4944 C   0  0  0  0  0  0  0  0  0  0  0  0
    0.5161   -3.2075   10.3304 O   0  0  0  0  0  0  0  0  0  0  0  0
    0.6227   -2.4073    9.1826 C   0  0  0  0  0  0  0  0  0  0  0  0
    0.9356   -1.1344    9.3454 C   0  0  0  0  0  0  0  0  0  0  0  0
    1.1306   -0.0294    8.4224 C   0  0  0  0  0  0  0  0  0  0  0  0
    1.9953    0.9394    8.9189 C   0  0  0  0  0  0  0  0  0  0  0  0
    2.3012    2.0623    8.1850 C   0  0  0  0  0  0  0  0  0  0  0  0
    1.7210    2.1920    6.9426 C   0  0  0  0  0  0  0  0  0  0  0  0
    0.8567    1.2256    6.4443 C   0  0  0  0  0  0  0  0  0  0  0  0
    0.5474    0.0968    7.1786 C   0  0  0  0  0  0  0  0  0  0  0  0
   -0.5825   -0.9973    6.3277 S   0  0  0  0  0  0  0  0  0  0  0  0
   -0.1148   -2.6829    6.7214 C   0  0  0  0  0  0  0  0  0  0  0  0
    0.3639   -3.1202    7.9322 C   0  0  0  0  0  0  0  0  0  0  0  0
    0.6750   -4.4682    8.0526 C   0  0  0  0  0  0  0  0  0  0  0  0
    0.4973   -5.3149    6.9707 C   0  0  0  0  0  0  0  0  0  0  0  0
    0.0163   -4.8683    5.7584 C   0  0  0  0  0  0  0  0  0  0  0  0
   -0.2953   -3.5312    5.6298 C   0  0  0  0  0  0  0  0  0  0  0  0
    0.9029   -7.0210    7.1600 Cl  0  0  0  0  0  0  0  0  0  0  0  0
  1  2  1  0
  2  3  1  0
  2  4  1  0
  4  5  1  0
  5  6  1  0
  6  7  1  0
  7  8  2  0
  8  9  1  0
  9 10  2  0
 10 11  1  0
 11 12  2  0
 12 13  1  0
 13 14  2  0
 14 15  1  0
 15 16  1  0
 16 17  2  0
 17 18  1  0
 18 19  2  0
 19 20  1  0
 20 21  2  0
 19 22  1  0
 17  7  1  0
 14  9  1  0
 21 16  1  0
M  END
$$$$
