
     RDKit          3D

 22 24  0  0  0  0  0  0  0  0999 V2000
   -0.6687    3.3188    8.9856 C   0  0  0  0  0  0  0  0  0  0  0  0
   -0.1089    2.1780    8.2980 N   0  0  0  0  0  0  0  0  0  0  0  0
    0.6235    2.5435    7.1139 C   0  0  0  0  0  0  0  0  0  0  0  0
   -1.0938    1.1421    8.0599 C   0  0  0  0  0  0  0  0  0  0  0  0
   -0.7177   -0.0204    8.9774 C   0  0  0  0  0  0  0  0  0  0  0  0
   -0.3870   -1.1759    8.2134 O   0  0  0  0  0  0  0  0  0  0  0  0
    0.6647   -1.9456    8.7336 C   0  0  0  0  0  0  0  0  0  0  0  0
    1.3706   -1.4343    9.7259 C   0  0  0  0  0  0  0  0  0  0  0  0
    2.5010   -1.9194   10.4992 C   0  0  0  0  0  0  0  0  0  0  0  0
    2.5541   -1.3709   11.7756 C   0  0  0  0  0  0  0  0  0  0  0  0
    3.5565   -1.7116   12.6544 C   0  0  0  0  0  0  0  0  0  0  0  0
    4.5041   -2.6141   12.2249 C   0  0  0  0  0  0  0  0  0  0  0  0
    4.4533   -3.1636   10.9502 C   0  0  0  0  0  0  0  0  0  0  0  0
    3.4481   -2.8237   10.0652 C   0  0  0  0  0  0  0  0  0  0  0  0
    3.5962   -3.6597    8.4915 S   0  0  0  0  0  0  0  0  0  0  0  0
    1.9415   -4.0370    7.9129 C   0  0  0  0  0  0  0  0  0  0  0  0
    0.8330   -3.2438    8.0815 C   0  0  0  0  0  0  0  0  0  0  0  0
   -0.3710   -3.7016    7.5628 C   0  0  0  0  0  0  0  0  0  0  0  0
   -0.4181   -4.9193    6.9041 C   0  0  0  0  0  0  0  0  0  0  0  0
    0.6992   -5.7098    6.7389 C   0  0  0  0  0  0  0  0  0  0  0  0
    1.8991   -5.2631    7.2508 C   0  0  0  0  0  0  0  0  0  0  0  0
   -1.9645   -5.4691    6.2582 Cl  0  0  0  0  0  0  0  0  0  0  0  0
  1  2  1  0
  2  3  1  0
  2  4  1  0
  4  5  1  0
  5  6  1  0
  6  7  1  0
  7  8  2  0
  8  9  1  0
  9 10  2  0
 10 11  1  0
 11 12  2  0
 12 13  1  0
 13 14  2  0
 14 15  1  0
 15 16  1  0
 16 17  2  0
 17 18  1  0
 18 19  2  0
 19 20  1  0
 20 21  2  0
 19 22  1  0
 17  7  1  0
 14  9  1  0
 21 16  1  0
M  END
$$$$
