
     RDKit          3D

 22 24  0  0  0  0  0  0  0  0999 V2000
    2.7127   -1.0633   13.1007 C   0  0  0  0  0  0  0  0  0  0  0  0
    2.7555   -2.4738   12.7910 N   0  0  0  0  0  0  0  0  0  0  0  0
    3.5001   -3.2360   13.7589 C   0  0  0  0  0  0  0  0  0  0  0  0
    3.1740   -2.7246   11.4265 C   0  0  0  0  0  0  0  0  0  0  0  0
    2.1515   -3.6970   10.8405 C   0  0  0  0  0  0  0  0  0  0  0  0
    0.9289   -3.0260   10.5522 O   0  0  0  0  0  0  0  0  0  0  0  0
    0.8349   -2.5042    9.2529 C   0  0  0  0  0  0  0  0  0  0  0  0
    0.9944   -1.2022    9.0985 C   0  0  0  0  0  0  0  0  0  0  0  0
    0.9675   -0.3244    7.9409 C   0  0  0  0  0  0  0  0  0  0  0  0
    1.7393    0.8187    8.1151 C   0  0  0  0  0  0  0  0  0  0  0  0
    1.8356    1.7689    7.1246 C   0  0  0  0  0  0  0  0  0  0  0  0
    1.1410    1.5473    5.9561 C   0  0  0  0  0  0  0  0  0  0  0  0
    0.3692    0.4061    5.7796 C   0  0  0  0  0  0  0  0  0  0  0  0
    0.2703   -0.5501    6.7721 C   0  0  0  0  0  0  0  0  0  0  0  0
   -0.7773   -1.9239    6.3110 S   0  0  0  0  0  0  0  0  0  0  0  0
   -0.0656   -3.4146    7.0084 C   0  0  0  0  0  0  0  0  0  0  0  0
    0.5654   -3.5087    8.2247 C   0  0  0  0  0  0  0  0  0  0  0  0
    1.0560   -4.7521    8.6009 C   0  0  0  0  0  0  0  0  0  0  0  0
    0.8981   -5.8387    7.7563 C   0  0  0  0  0  0  0  0  0  0  0  0
    0.2634   -5.7362    6.5368 C   0  0  0  0  0  0  0  0  0  0  0  0
   -0.2270   -4.5052    6.1551 C   0  0  0  0  0  0  0  0  0  0  0  0
    1.5339   -7.4026    8.2669 Cl  0  0  0  0  0  0  0  0  0  0  0  0
  1  2  1  0
  2  3  1  0
  2  4  1  0
  4  5  1  0
  5  6  1  0
  6  7  1  0
  7  8  2  0
  8  9  1  0
  9 10  2  0
 10 11  1  0
 11 12  2  0
 12 13  1  0
 13 14  2  0
 14 15  1  0
 15 16  1  0
 16 17  2  0
 17 18  1  0
 18 19  2  0
 19 20  1  0
 20 21  2  0
 19 22  1  0
 17  7  1  0
 14  9  1  0
 21 16  1  0
M  END
$$$$
