
     RDKit          3D

 22 24  0  0  0  0  0  0  0  0999 V2000
   -0.9186   -6.2526    7.9475 C   0  0  0  0  0  0  0  0  0  0  0  0
    0.4833   -6.5831    8.0611 N   0  0  0  0  0  0  0  0  0  0  0  0
    0.8308   -7.1067    9.3562 C   0  0  0  0  0  0  0  0  0  0  0  0
    1.3408   -5.4935    7.6399 C   0  0  0  0  0  0  0  0  0  0  0  0
    1.6126   -4.6591    8.8908 C   0  0  0  0  0  0  0  0  0  0  0  0
    0.6045   -3.6677    9.0613 O   0  0  0  0  0  0  0  0  0  0  0  0
    1.0854   -2.3807    9.3465 C   0  0  0  0  0  0  0  0  0  0  0  0
    1.6946   -2.1926   10.5032 C   0  0  0  0  0  0  0  0  0  0  0  0
    2.3069   -1.0341   11.1311 C   0  0  0  0  0  0  0  0  0  0  0  0
    3.3132   -1.3775   12.0269 C   0  0  0  0  0  0  0  0  0  0  0  0
    4.0082   -0.4125   12.7190 C   0  0  0  0  0  0  0  0  0  0  0  0
    3.6718    0.9038   12.4930 C   0  0  0  0  0  0  0  0  0  0  0  0
    2.6668    1.2495   11.5985 C   0  0  0  0  0  0  0  0  0  0  0  0
    1.9670    0.2830   10.9019 C   0  0  0  0  0  0  0  0  0  0  0  0
    0.7271    0.9726    9.8134 S   0  0  0  0  0  0  0  0  0  0  0  0
    0.6718   -0.0393    8.3342 C   0  0  0  0  0  0  0  0  0  0  0  0
    0.8351   -1.4023    8.2887 C   0  0  0  0  0  0  0  0  0  0  0  0
    0.7595   -2.0186    7.0466 C   0  0  0  0  0  0  0  0  0  0  0  0
    0.5265   -1.2567    5.9133 C   0  0  0  0  0  0  0  0  0  0  0  0
    0.3637    0.1111    5.9672 C   0  0  0  0  0  0  0  0  0  0  0  0
    0.4372    0.7315    7.1965 C   0  0  0  0  0  0  0  0  0  0  0  0
    0.4368   -2.0733    4.3525 Cl  0  0  0  0  0  0  0  0  0  0  0  0
  1  2  1  0
  2  3  1  0
  2  4  1  0
  4  5  1  0
  5  6  1  0
  6  7  1  0
  7  8  2  0
  8  9  1  0
  9 10  2  0
 10 11  1  0
 11 12  2  0
 12 13  1  0
 13 14  2  0
 14 15  1  0
 15 16  1  0
 16 17  2  0
 17 18  1  0
 18 19  2  0
 19 20  1  0
 20 21  2  0
 19 22  1  0
 17  7  1  0
 14  9  1  0
 21 16  1  0
M  END
$$$$
