
     RDKit          3D

 22 24  0  0  0  0  0  0  0  0999 V2000
   -0.5391   -2.0765    4.1606 C   0  0  0  0  0  0  0  0  0  0  0  0
   -0.2687   -0.7990    4.7791 N   0  0  0  0  0  0  0  0  0  0  0  0
    0.7680   -0.0608    4.1063 C   0  0  0  0  0  0  0  0  0  0  0  0
   -0.0489   -0.9149    6.2067 C   0  0  0  0  0  0  0  0  0  0  0  0
    1.4527   -0.7314    6.4214 C   0  0  0  0  0  0  0  0  0  0  0  0
    2.0654   -1.9700    6.7658 O   0  0  0  0  0  0  0  0  0  0  0  0
    1.9989   -2.3023    8.1275 C   0  0  0  0  0  0  0  0  0  0  0  0
    2.2033   -1.3390    9.0077 C   0  0  0  0  0  0  0  0  0  0  0  0
    2.2146   -1.3011   10.4602 C   0  0  0  0  0  0  0  0  0  0  0  0
    1.8837   -0.0499   10.9678 C   0  0  0  0  0  0  0  0  0  0  0  0
    1.8426    0.1786   12.3240 C   0  0  0  0  0  0  0  0  0  0  0  0
    2.1405   -0.8751   13.1594 C   0  0  0  0  0  0  0  0  0  0  0  0
    2.4714   -2.1261   12.6548 C   0  0  0  0  0  0  0  0  0  0  0  0
    2.5136   -2.3590   11.2935 C   0  0  0  0  0  0  0  0  0  0  0  0
    2.9623   -4.0424   10.8905 S   0  0  0  0  0  0  0  0  0  0  0  0
    2.0256   -4.5277    9.4407 C   0  0  0  0  0  0  0  0  0  0  0  0
    1.7036   -3.7115    8.3840 C   0  0  0  0  0  0  0  0  0  0  0  0
    0.9686   -4.2648    7.3438 C   0  0  0  0  0  0  0  0  0  0  0  0
    0.5895   -5.5959    7.4010 C   0  0  0  0  0  0  0  0  0  0  0  0
    0.9165   -6.4088    8.4652 C   0  0  0  0  0  0  0  0  0  0  0  0
    1.6463   -5.8678    9.5026 C   0  0  0  0  0  0  0  0  0  0  0  0
   -0.3435   -6.2648    6.0618 Cl  0  0  0  0  0  0  0  0  0  0  0  0
  1  2  1  0
  2  3  1  0
  2  4  1  0
  4  5  1  0
  5  6  1  0
  6  7  1  0
  7  8  2  0
  8  9  1  0
  9 10  2  0
 10 11  1  0
 11 12  2  0
 12 13  1  0
 13 14  2  0
 14 15  1  0
 15 16  1  0
 16 17  2  0
 17 18  1  0
 18 19  2  0
 19 20  1  0
 20 21  2  0
 19 22  1  0
 17  7  1  0
 14  9  1  0
 21 16  1  0
M  END
$$$$
