
     RDKit          3D

 22 24  0  0  0  0  0  0  0  0999 V2000
    1.5828    2.7765    6.8102 C   0  0  0  0  0  0  0  0  0  0  0  0
    1.3850    1.3798    6.4977 N   0  0  0  0  0  0  0  0  0  0  0  0
    1.6421    1.0749    5.1145 C   0  0  0  0  0  0  0  0  0  0  0  0
    0.1014    0.8899    6.9584 C   0  0  0  0  0  0  0  0  0  0  0  0
    0.4059   -0.1565    8.0294 C   0  0  0  0  0  0  0  0  0  0  0  0
    0.3783   -1.4670    7.4726 O   0  0  0  0  0  0  0  0  0  0  0  0
    0.8378   -2.4806    8.3274 C   0  0  0  0  0  0  0  0  0  0  0  0
    1.2674   -2.1287    9.5258 C   0  0  0  0  0  0  0  0  0  0  0  0
    1.8015   -2.8746   10.6525 C   0  0  0  0  0  0  0  0  0  0  0  0
    1.5753   -2.2435   11.8705 C   0  0  0  0  0  0  0  0  0  0  0  0
    2.0101   -2.8007   13.0510 C   0  0  0  0  0  0  0  0  0  0  0  0
    2.6764   -4.0042   12.9830 C   0  0  0  0  0  0  0  0  0  0  0  0
    2.9036   -4.6367   11.7675 C   0  0  0  0  0  0  0  0  0  0  0  0
    2.4684   -4.0800   10.5801 C   0  0  0  0  0  0  0  0  0  0  0  0
    2.8774   -5.0782    9.1540 S   0  0  0  0  0  0  0  0  0  0  0  0
    1.5221   -4.9492    7.9872 C   0  0  0  0  0  0  0  0  0  0  0  0
    0.7728   -3.8227    7.7501 C   0  0  0  0  0  0  0  0  0  0  0  0
   -0.2411   -3.9112    6.8054 C   0  0  0  0  0  0  0  0  0  0  0  0
   -0.4628   -5.1077    6.1435 C   0  0  0  0  0  0  0  0  0  0  0  0
    0.2937   -6.2341    6.3871 C   0  0  0  0  0  0  0  0  0  0  0  0
    1.3028   -6.1555    7.3236 C   0  0  0  0  0  0  0  0  0  0  0  0
   -1.7593   -5.1832    4.9500 Cl  0  0  0  0  0  0  0  0  0  0  0  0
  1  2  1  0
  2  3  1  0
  2  4  1  0
  4  5  1  0
  5  6  1  0
  6  7  1  0
  7  8  2  0
  8  9  1  0
  9 10  2  0
 10 11  1  0
 11 12  2  0
 12 13  1  0
 13 14  2  0
 14 15  1  0
 15 16  1  0
 16 17  2  0
 17 18  1  0
 18 19  2  0
 19 20  1  0
 20 21  2  0
 19 22  1  0
 17  7  1  0
 14  9  1  0
 21 16  1  0
M  END
$$$$
