
     RDKit          3D

 22 24  0  0  0  0  0  0  0  0999 V2000
   -2.5083   -7.0298   10.8267 C   0  0  0  0  0  0  0  0  0  0  0  0
   -1.3663   -6.5724   10.0690 N   0  0  0  0  0  0  0  0  0  0  0  0
   -0.8396   -7.5818    9.1881 C   0  0  0  0  0  0  0  0  0  0  0  0
   -0.3535   -5.9689   10.9116 C   0  0  0  0  0  0  0  0  0  0  0  0
   -0.2375   -4.5138   10.4602 C   0  0  0  0  0  0  0  0  0  0  0  0
    0.7426   -4.3831    9.4352 O   0  0  0  0  0  0  0  0  0  0  0  0
    0.9043   -3.0814    8.9365 C   0  0  0  0  0  0  0  0  0  0  0  0
    1.2361   -2.1306    9.7911 C   0  0  0  0  0  0  0  0  0  0  0  0
    1.4844   -0.7058    9.6510 C   0  0  0  0  0  0  0  0  0  0  0  0
    2.3501   -0.2132   10.6208 C   0  0  0  0  0  0  0  0  0  0  0  0
    2.7030    1.1164   10.6491 C   0  0  0  0  0  0  0  0  0  0  0  0
    2.1685    1.9406    9.6837 C   0  0  0  0  0  0  0  0  0  0  0  0
    1.3033    1.4509    8.7137 C   0  0  0  0  0  0  0  0  0  0  0  0
    0.9470    0.1163    8.6824 C   0  0  0  0  0  0  0  0  0  0  0  0
   -0.1740   -0.2720    7.3443 S   0  0  0  0  0  0  0  0  0  0  0  0
    0.2469   -1.9039    6.7322 C   0  0  0  0  0  0  0  0  0  0  0  0
    0.6749   -2.9613    7.4971 C   0  0  0  0  0  0  0  0  0  0  0  0
    0.9553   -4.1552    6.8457 C   0  0  0  0  0  0  0  0  0  0  0  0
    0.7985   -4.2431    5.4721 C   0  0  0  0  0  0  0  0  0  0  0  0
    0.3684   -3.1771    4.7112 C   0  0  0  0  0  0  0  0  0  0  0  0
    0.0876   -1.9876    5.3497 C   0  0  0  0  0  0  0  0  0  0  0  0
    1.1641   -5.7752    4.6783 Cl  0  0  0  0  0  0  0  0  0  0  0  0
  1  2  1  0
  2  3  1  0
  2  4  1  0
  4  5  1  0
  5  6  1  0
  6  7  1  0
  7  8  2  0
  8  9  1  0
  9 10  2  0
 10 11  1  0
 11 12  2  0
 12 13  1  0
 13 14  2  0
 14 15  1  0
 15 16  1  0
 16 17  2  0
 17 18  1  0
 18 19  2  0
 19 20  1  0
 20 21  2  0
 19 22  1  0
 17  7  1  0
 14  9  1  0
 21 16  1  0
M  END
$$$$
