
     RDKit          3D

 22 24  0  0  0  0  0  0  0  0999 V2000
   -0.5098   -5.7596    6.9714 C   0  0  0  0  0  0  0  0  0  0  0  0
    0.4041   -6.1634    8.0150 N   0  0  0  0  0  0  0  0  0  0  0  0
   -0.2482   -6.8698    9.0864 C   0  0  0  0  0  0  0  0  0  0  0  0
    1.2297   -5.0661    8.4777 C   0  0  0  0  0  0  0  0  0  0  0  0
    0.7593   -4.7496    9.8965 C   0  0  0  0  0  0  0  0  0  0  0  0
   -0.1351   -3.6413    9.8930 O   0  0  0  0  0  0  0  0  0  0  0  0
    0.4853   -2.3829    9.9171 C   0  0  0  0  0  0  0  0  0  0  0  0
    1.1974   -2.0669   10.9836 C   0  0  0  0  0  0  0  0  0  0  0  0
    1.9628   -0.8903   11.3591 C   0  0  0  0  0  0  0  0  0  0  0  0
    2.9988   -1.1814   12.2392 C   0  0  0  0  0  0  0  0  0  0  0  0
    3.8330   -0.1922   12.7070 C   0  0  0  0  0  0  0  0  0  0  0  0
    3.6051    1.0948   12.2727 C   0  0  0  0  0  0  0  0  0  0  0  0
    2.5707    1.3883   11.3934 C   0  0  0  0  0  0  0  0  0  0  0  0
    1.7312    0.3974   10.9218 C   0  0  0  0  0  0  0  0  0  0  0  0
    0.4808    1.0198    9.8053 S   0  0  0  0  0  0  0  0  0  0  0  0
    0.2160   -0.2167    8.5340 C   0  0  0  0  0  0  0  0  0  0  0  0
    0.2465   -1.5772    8.7201 C   0  0  0  0  0  0  0  0  0  0  0  0
    0.0172   -2.3836    7.6132 C   0  0  0  0  0  0  0  0  0  0  0  0
   -0.2305   -1.8047    6.3793 C   0  0  0  0  0  0  0  0  0  0  0  0
   -0.2595   -0.4381    6.2005 C   0  0  0  0  0  0  0  0  0  0  0  0
   -0.0328    0.3705    7.2943 C   0  0  0  0  0  0  0  0  0  0  0  0
   -0.5175   -2.8600    4.9954 Cl  0  0  0  0  0  0  0  0  0  0  0  0
  1  2  1  0
  2  3  1  0
  2  4  1  0
  4  5  1  0
  5  6  1  0
  6  7  1  0
  7  8  2  0
  8  9  1  0
  9 10  2  0
 10 11  1  0
 11 12  2  0
 12 13  1  0
 13 14  2  0
 14 15  1  0
 15 16  1  0
 16 17  2  0
 17 18  1  0
 18 19  2  0
 19 20  1  0
 20 21  2  0
 19 22  1  0
 17  7  1  0
 14  9  1  0
 21 16  1  0
M  END
$$$$
