
     RDKit          3D

 22 24  0  0  0  0  0  0  0  0999 V2000
    0.9890    0.1602   12.1626 C   0  0  0  0  0  0  0  0  0  0  0  0
    1.1312    1.1402   11.1105 N   0  0  0  0  0  0  0  0  0  0  0  0
   -0.0943    1.8417   10.8310 C   0  0  0  0  0  0  0  0  0  0  0  0
    1.7523    0.5867    9.9240 C   0  0  0  0  0  0  0  0  0  0  0  0
    1.1333   -0.7962    9.7264 C   0  0  0  0  0  0  0  0  0  0  0  0
    1.8319   -1.5191    8.7177 O   0  0  0  0  0  0  0  0  0  0  0  0
    1.2187   -2.7166    8.3187 C   0  0  0  0  0  0  0  0  0  0  0  0
    1.1582   -3.7007    9.1976 C   0  0  0  0  0  0  0  0  0  0  0  0
    0.6159   -5.0479    9.1505 C   0  0  0  0  0  0  0  0  0  0  0  0
    0.2325   -5.5169   10.4019 C   0  0  0  0  0  0  0  0  0  0  0  0
   -0.3037   -6.7747   10.5557 C   0  0  0  0  0  0  0  0  0  0  0  0
   -0.4467   -7.5513    9.4272 C   0  0  0  0  0  0  0  0  0  0  0  0
   -0.0644   -7.0851    8.1759 C   0  0  0  0  0  0  0  0  0  0  0  0
    0.4743   -5.8226    8.0179 C   0  0  0  0  0  0  0  0  0  0  0  0
    0.8862   -5.4510    6.3179 S   0  0  0  0  0  0  0  0  0  0  0  0
    0.5357   -3.7154    6.0354 C   0  0  0  0  0  0  0  0  0  0  0  0
    0.7195   -2.7021    6.9442 C   0  0  0  0  0  0  0  0  0  0  0  0
    0.3913   -1.4129    6.5460 C   0  0  0  0  0  0  0  0  0  0  0  0
   -0.1016   -1.1910    5.2705 C   0  0  0  0  0  0  0  0  0  0  0  0
   -0.2833   -2.2135    4.3639 C   0  0  0  0  0  0  0  0  0  0  0  0
    0.0400   -3.4970    4.7508 C   0  0  0  0  0  0  0  0  0  0  0  0
   -0.5078    0.4594    4.7992 Cl  0  0  0  0  0  0  0  0  0  0  0  0
  1  2  1  0
  2  3  1  0
  2  4  1  0
  4  5  1  0
  5  6  1  0
  6  7  1  0
  7  8  2  0
  8  9  1  0
  9 10  2  0
 10 11  1  0
 11 12  2  0
 12 13  1  0
 13 14  2  0
 14 15  1  0
 15 16  1  0
 16 17  2  0
 17 18  1  0
 18 19  2  0
 19 20  1  0
 20 21  2  0
 19 22  1  0
 17  7  1  0
 14  9  1  0
 21 16  1  0
M  END
$$$$
