
     RDKit          3D

 22 24  0  0  0  0  0  0  0  0999 V2000
   -1.0377   -7.3833    9.3665 C   0  0  0  0  0  0  0  0  0  0  0  0
   -0.8350   -5.9625    9.5328 N   0  0  0  0  0  0  0  0  0  0  0  0
   -1.7676   -5.1723    8.7724 C   0  0  0  0  0  0  0  0  0  0  0  0
    0.5448   -5.5753    9.3188 C   0  0  0  0  0  0  0  0  0  0  0  0
    0.6657   -4.1380    9.8229 C   0  0  0  0  0  0  0  0  0  0  0  0
    1.7054   -3.4505    9.1342 O   0  0  0  0  0  0  0  0  0  0  0  0
    1.7370   -2.0637    9.3468 C   0  0  0  0  0  0  0  0  0  0  0  0
    2.2743   -1.6245   10.4706 C   0  0  0  0  0  0  0  0  0  0  0  0
    2.4801   -0.2976   11.0258 C   0  0  0  0  0  0  0  0  0  0  0  0
    3.5628   -0.2412   11.8961 C   0  0  0  0  0  0  0  0  0  0  0  0
    3.9123    0.9341   12.5203 C   0  0  0  0  0  0  0  0  0  0  0  0
    3.1523    2.0511   12.2524 C   0  0  0  0  0  0  0  0  0  0  0  0
    2.0701    1.9973   11.3833 C   0  0  0  0  0  0  0  0  0  0  0  0
    1.7164    0.8187   10.7548 C   0  0  0  0  0  0  0  0  0  0  0  0
    0.2940    1.0010    9.6866 S   0  0  0  0  0  0  0  0  0  0  0  0
    0.5458   -0.0476    8.2541 C   0  0  0  0  0  0  0  0  0  0  0  0
    1.1522   -1.2800    8.2594 C   0  0  0  0  0  0  0  0  0  0  0  0
    1.2585   -1.9503    7.0479 C   0  0  0  0  0  0  0  0  0  0  0  0
    0.7604   -1.3687    5.8935 C   0  0  0  0  0  0  0  0  0  0  0  0
    0.1530   -0.1312    5.8964 C   0  0  0  0  0  0  0  0  0  0  0  0
    0.0431    0.5417    7.0950 C   0  0  0  0  0  0  0  0  0  0  0  0
    0.9130   -2.2490    4.3727 Cl  0  0  0  0  0  0  0  0  0  0  0  0
  1  2  1  0
  2  3  1  0
  2  4  1  0
  4  5  1  0
  5  6  1  0
  6  7  1  0
  7  8  2  0
  8  9  1  0
  9 10  2  0
 10 11  1  0
 11 12  2  0
 12 13  1  0
 13 14  2  0
 14 15  1  0
 15 16  1  0
 16 17  2  0
 17 18  1  0
 18 19  2  0
 19 20  1  0
 20 21  2  0
 19 22  1  0
 17  7  1  0
 14  9  1  0
 21 16  1  0
M  END
$$$$
