
     RDKit          3D

 22 24  0  0  0  0  0  0  0  0999 V2000
    1.6154    2.4621    8.0946 C   0  0  0  0  0  0  0  0  0  0  0  0
    0.6708    1.3985    8.3472 N   0  0  0  0  0  0  0  0  0  0  0  0
   -0.6062    1.8819    8.8031 C   0  0  0  0  0  0  0  0  0  0  0  0
    1.2230    0.3632    9.1976 C   0  0  0  0  0  0  0  0  0  0  0  0
    1.5378   -0.8171    8.2798 C   0  0  0  0  0  0  0  0  0  0  0  0
    0.3463   -1.5176    7.9367 O   0  0  0  0  0  0  0  0  0  0  0  0
    0.4415   -2.9156    8.0123 C   0  0  0  0  0  0  0  0  0  0  0  0
    0.5128   -3.4646    9.2115 C   0  0  0  0  0  0  0  0  0  0  0  0
    0.6175   -4.8376    9.6752 C   0  0  0  0  0  0  0  0  0  0  0  0
    0.0826   -5.0181   10.9456 C   0  0  0  0  0  0  0  0  0  0  0  0
    0.0917   -6.2534   11.5516 C   0  0  0  0  0  0  0  0  0  0  0  0
    0.6489   -7.3031   10.8555 C   0  0  0  0  0  0  0  0  0  0  0  0
    1.1840   -7.1254    9.5860 C   0  0  0  0  0  0  0  0  0  0  0  0
    1.1764   -5.8863    8.9747 C   0  0  0  0  0  0  0  0  0  0  0  0
    1.9190   -5.9100    7.3481 S   0  0  0  0  0  0  0  0  0  0  0  0
    0.9977   -4.7766    6.3080 C   0  0  0  0  0  0  0  0  0  0  0  0
    0.4484   -3.5842    6.7117 C   0  0  0  0  0  0  0  0  0  0  0  0
   -0.2337   -2.8354    5.7619 C   0  0  0  0  0  0  0  0  0  0  0  0
   -0.3381   -3.3029    4.4620 C   0  0  0  0  0  0  0  0  0  0  0  0
    0.2161   -4.5009    4.0645 C   0  0  0  0  0  0  0  0  0  0  0  0
    0.8953   -5.2512    5.0011 C   0  0  0  0  0  0  0  0  0  0  0  0
   -1.2118   -2.3252    3.2823 Cl  0  0  0  0  0  0  0  0  0  0  0  0
  1  2  1  0
  2  3  1  0
  2  4  1  0
  4  5  1  0
  5  6  1  0
  6  7  1  0
  7  8  2  0
  8  9  1  0
  9 10  2  0
 10 11  1  0
 11 12  2  0
 12 13  1  0
 13 14  2  0
 14 15  1  0
 15 16  1  0
 16 17  2  0
 17 18  1  0
 18 19  2  0
 19 20  1  0
 20 21  2  0
 19 22  1  0
 17  7  1  0
 14  9  1  0
 21 16  1  0
M  END
$$$$
