
     RDKit          3D

 22 24  0  0  0  0  0  0  0  0999 V2000
    2.7634   -2.5094   13.8169 C   0  0  0  0  0  0  0  0  0  0  0  0
    3.5342   -2.6132   12.5993 N   0  0  0  0  0  0  0  0  0  0  0  0
    4.2841   -1.4191   12.3093 C   0  0  0  0  0  0  0  0  0  0  0  0
    2.7346   -3.0680   11.4796 C   0  0  0  0  0  0  0  0  0  0  0  0
    1.3325   -2.5029   11.7017 C   0  0  0  0  0  0  0  0  0  0  0  0
    0.4377   -2.9721   10.6980 O   0  0  0  0  0  0  0  0  0  0  0  0
    0.5657   -2.3399    9.4517 C   0  0  0  0  0  0  0  0  0  0  0  0
    0.7476   -1.0317    9.4400 C   0  0  0  0  0  0  0  0  0  0  0  0
    0.9173   -0.0580    8.3750 C   0  0  0  0  0  0  0  0  0  0  0  0
    1.6469    1.0554    8.7760 C   0  0  0  0  0  0  0  0  0  0  0  0
    1.9094    2.0855    7.9023 C   0  0  0  0  0  0  0  0  0  0  0  0
    1.4241    1.9741    6.6181 C   0  0  0  0  0  0  0  0  0  0  0  0
    0.6949    0.8628    6.2150 C   0  0  0  0  0  0  0  0  0  0  0  0
    0.4296   -0.1733    7.0898 C   0  0  0  0  0  0  0  0  0  0  0  0
   -0.5227   -1.4883    6.3403 S   0  0  0  0  0  0  0  0  0  0  0  0
    0.0616   -3.0427    7.0167 C   0  0  0  0  0  0  0  0  0  0  0  0
    0.4764   -3.2490    8.3097 C   0  0  0  0  0  0  0  0  0  0  0  0
    0.8972   -4.5266    8.6547 C   0  0  0  0  0  0  0  0  0  0  0  0
    0.8866   -5.5347    7.7046 C   0  0  0  0  0  0  0  0  0  0  0  0
    0.4688   -5.3197    6.4087 C   0  0  0  0  0  0  0  0  0  0  0  0
    0.0491   -4.0541    6.0572 C   0  0  0  0  0  0  0  0  0  0  0  0
    1.4280   -7.1452    8.1784 Cl  0  0  0  0  0  0  0  0  0  0  0  0
  1  2  1  0
  2  3  1  0
  2  4  1  0
  4  5  1  0
  5  6  1  0
  6  7  1  0
  7  8  2  0
  8  9  1  0
  9 10  2  0
 10 11  1  0
 11 12  2  0
 12 13  1  0
 13 14  2  0
 14 15  1  0
 15 16  1  0
 16 17  2  0
 17 18  1  0
 18 19  2  0
 19 20  1  0
 20 21  2  0
 19 22  1  0
 17  7  1  0
 14  9  1  0
 21 16  1  0
M  END
$$$$
