
     RDKit          3D

 22 24  0  0  0  0  0  0  0  0999 V2000
    2.2510   -3.6743   12.6252 C   0  0  0  0  0  0  0  0  0  0  0  0
    2.4189   -2.2517   12.8137 N   0  0  0  0  0  0  0  0  0  0  0  0
    1.1813   -1.5767   13.1050 C   0  0  0  0  0  0  0  0  0  0  0  0
    3.1599   -1.6373   11.7305 C   0  0  0  0  0  0  0  0  0  0  0  0
    2.8712   -2.4784   10.4879 C   0  0  0  0  0  0  0  0  0  0  0  0
    1.4740   -2.5046   10.2134 O   0  0  0  0  0  0  0  0  0  0  0  0
    1.1223   -2.1270    8.9084 C   0  0  0  0  0  0  0  0  0  0  0  0
    1.2893   -0.8622    8.5665 C   0  0  0  0  0  0  0  0  0  0  0  0
    1.0455   -0.1197    7.3416 C   0  0  0  0  0  0  0  0  0  0  0  0
    1.8752    0.9881    7.2105 C   0  0  0  0  0  0  0  0  0  0  0  0
    1.7899    1.8139    6.1133 C   0  0  0  0  0  0  0  0  0  0  0  0
    0.8544    1.5043    5.1510 C   0  0  0  0  0  0  0  0  0  0  0  0
    0.0243    0.3981    5.2796 C   0  0  0  0  0  0  0  0  0  0  0  0
    0.1074   -0.4333    6.3801 C   0  0  0  0  0  0  0  0  0  0  0  0
   -1.0608   -1.7858    6.3184 S   0  0  0  0  0  0  0  0  0  0  0  0
   -0.2676   -3.2284    7.0289 C   0  0  0  0  0  0  0  0  0  0  0  0
    0.6052   -3.2227    8.0894 C   0  0  0  0  0  0  0  0  0  0  0  0
    1.1223   -4.4430    8.5040 C   0  0  0  0  0  0  0  0  0  0  0  0
    0.7506   -5.6061    7.8498 C   0  0  0  0  0  0  0  0  0  0  0  0
   -0.1262   -5.6035    6.7861 C   0  0  0  0  0  0  0  0  0  0  0  0
   -0.6447   -4.3963    6.3675 C   0  0  0  0  0  0  0  0  0  0  0  0
    1.4272   -7.1378    8.4038 Cl  0  0  0  0  0  0  0  0  0  0  0  0
  1  2  1  0
  2  3  1  0
  2  4  1  0
  4  5  1  0
  5  6  1  0
  6  7  1  0
  7  8  2  0
  8  9  1  0
  9 10  2  0
 10 11  1  0
 11 12  2  0
 12 13  1  0
 13 14  2  0
 14 15  1  0
 15 16  1  0
 16 17  2  0
 17 18  1  0
 18 19  2  0
 19 20  1  0
 20 21  2  0
 19 22  1  0
 17  7  1  0
 14  9  1  0
 21 16  1  0
M  END
$$$$
