
     RDKit          3D

 22 24  0  0  0  0  0  0  0  0999 V2000
   -2.0555   -7.0636    9.7255 C   0  0  0  0  0  0  0  0  0  0  0  0
   -0.6188   -7.0478    9.8769 N   0  0  0  0  0  0  0  0  0  0  0  0
   -0.0890   -8.3131   10.3134 C   0  0  0  0  0  0  0  0  0  0  0  0
   -0.1631   -5.9327   10.6824 C   0  0  0  0  0  0  0  0  0  0  0  0
    0.8791   -5.1984    9.8403 C   0  0  0  0  0  0  0  0  0  0  0  0
    0.2658   -4.5700    8.7190 O   0  0  0  0  0  0  0  0  0  0  0  0
    0.5423   -3.2006    8.5863 C   0  0  0  0  0  0  0  0  0  0  0  0
    0.9782   -2.5536    9.6521 C   0  0  0  0  0  0  0  0  0  0  0  0
    1.3588   -1.1724    9.8939 C   0  0  0  0  0  0  0  0  0  0  0  0
    2.2843   -1.0423   10.9231 C   0  0  0  0  0  0  0  0  0  0  0  0
    2.7628    0.1925   11.2966 C   0  0  0  0  0  0  0  0  0  0  0  0
    2.2928    1.2934   10.6152 C   0  0  0  0  0  0  0  0  0  0  0  0
    1.3682    1.1660    9.5866 C   0  0  0  0  0  0  0  0  0  0  0  0
    0.8856   -0.0724    9.2091 C   0  0  0  0  0  0  0  0  0  0  0  0
   -0.2904    0.0207    7.8652 S   0  0  0  0  0  0  0  0  0  0  0  0
   -0.0378   -1.4106    6.8152 C   0  0  0  0  0  0  0  0  0  0  0  0
    0.3005   -2.6705    7.2449 C   0  0  0  0  0  0  0  0  0  0  0  0
    0.4544   -3.6593    6.2822 C   0  0  0  0  0  0  0  0  0  0  0  0
    0.2661   -3.3528    4.9445 C   0  0  0  0  0  0  0  0  0  0  0  0
   -0.0734   -2.0856    4.5210 C   0  0  0  0  0  0  0  0  0  0  0  0
   -0.2283   -1.0974    5.4701 C   0  0  0  0  0  0  0  0  0  0  0  0
    0.4700   -4.6339    3.7494 Cl  0  0  0  0  0  0  0  0  0  0  0  0
  1  2  1  0
  2  3  1  0
  2  4  1  0
  4  5  1  0
  5  6  1  0
  6  7  1  0
  7  8  2  0
  8  9  1  0
  9 10  2  0
 10 11  1  0
 11 12  2  0
 12 13  1  0
 13 14  2  0
 14 15  1  0
 15 16  1  0
 16 17  2  0
 17 18  1  0
 18 19  2  0
 19 20  1  0
 20 21  2  0
 19 22  1  0
 17  7  1  0
 14  9  1  0
 21 16  1  0
M  END
$$$$
