
     RDKit          3D

 22 24  0  0  0  0  0  0  0  0999 V2000
    2.2682    1.3342   12.0997 C   0  0  0  0  0  0  0  0  0  0  0  0
    1.8861    0.7941   10.8152 N   0  0  0  0  0  0  0  0  0  0  0  0
    1.2945    1.7795    9.9484 C   0  0  0  0  0  0  0  0  0  0  0  0
    1.0851   -0.4070   10.9401 C   0  0  0  0  0  0  0  0  0  0  0  0
    2.0168   -1.5742   10.6172 C   0  0  0  0  0  0  0  0  0  0  0  0
    2.2725   -1.6397    9.2178 O   0  0  0  0  0  0  0  0  0  0  0  0
    1.5493   -2.6274    8.5318 C   0  0  0  0  0  0  0  0  0  0  0  0
    1.3218   -3.7695    9.1551 C   0  0  0  0  0  0  0  0  0  0  0  0
    0.6302   -4.9906    8.7786 C   0  0  0  0  0  0  0  0  0  0  0  0
    0.1202   -5.6789    9.8736 C   0  0  0  0  0  0  0  0  0  0  0  0
   -0.5669   -6.8601    9.7134 C   0  0  0  0  0  0  0  0  0  0  0  0
   -0.7311   -7.3356    8.4312 C   0  0  0  0  0  0  0  0  0  0  0  0
   -0.2226   -6.6499    7.3355 C   0  0  0  0  0  0  0  0  0  0  0  0
    0.4679   -5.4634    7.4929 C   0  0  0  0  0  0  0  0  0  0  0  0
    1.0218   -4.7710    5.9400 S   0  0  0  0  0  0  0  0  0  0  0  0
    0.8933   -2.9865    6.0583 C   0  0  0  0  0  0  0  0  0  0  0  0
    1.1387   -2.2378    7.1833 C   0  0  0  0  0  0  0  0  0  0  0  0
    0.9874   -0.8609    7.0859 C   0  0  0  0  0  0  0  0  0  0  0  0
    0.6014   -0.2943    5.8822 C   0  0  0  0  0  0  0  0  0  0  0  0
    0.3568   -1.0527    4.7572 C   0  0  0  0  0  0  0  0  0  0  0  0
    0.5047   -2.4209    4.8447 C   0  0  0  0  0  0  0  0  0  0  0  0
    0.4190    1.4579    5.7953 Cl  0  0  0  0  0  0  0  0  0  0  0  0
  1  2  1  0
  2  3  1  0
  2  4  1  0
  4  5  1  0
  5  6  1  0
  6  7  1  0
  7  8  2  0
  8  9  1  0
  9 10  2  0
 10 11  1  0
 11 12  2  0
 12 13  1  0
 13 14  2  0
 14 15  1  0
 15 16  1  0
 16 17  2  0
 17 18  1  0
 18 19  2  0
 19 20  1  0
 20 21  2  0
 19 22  1  0
 17  7  1  0
 14  9  1  0
 21 16  1  0
M  END
$$$$
