
     RDKit          3D

 22 24  0  0  0  0  0  0  0  0999 V2000
    0.0561   -7.5961   10.6981 C   0  0  0  0  0  0  0  0  0  0  0  0
   -0.4819   -6.5275    9.8881 N   0  0  0  0  0  0  0  0  0  0  0  0
   -1.3906   -6.9973    8.8752 C   0  0  0  0  0  0  0  0  0  0  0  0
    0.5539   -5.6600    9.3641 C   0  0  0  0  0  0  0  0  0  0  0  0
    0.3374   -4.2966   10.0190 C   0  0  0  0  0  0  0  0  0  0  0  0
   -0.4564   -3.4594    9.1840 O   0  0  0  0  0  0  0  0  0  0  0  0
    0.1706   -2.2738    8.7712 C   0  0  0  0  0  0  0  0  0  0  0  0
    0.4893   -1.3896    9.6992 C   0  0  0  0  0  0  0  0  0  0  0  0
    1.1292   -0.0858    9.6566 C   0  0  0  0  0  0  0  0  0  0  0  0
    1.7905    0.2272   10.8388 C   0  0  0  0  0  0  0  0  0  0  0  0
    2.4558    1.4225   10.9859 C   0  0  0  0  0  0  0  0  0  0  0  0
    2.4433    2.2966    9.9216 C   0  0  0  0  0  0  0  0  0  0  0  0
    1.7835    1.9863    8.7394 C   0  0  0  0  0  0  0  0  0  0  0  0
    1.1144    0.7869    8.5883 C   0  0  0  0  0  0  0  0  0  0  0  0
    0.3461    0.6177    6.9825 S   0  0  0  0  0  0  0  0  0  0  0  0
    0.4789   -1.1011    6.4892 C   0  0  0  0  0  0  0  0  0  0  0  0
    0.3876   -2.1852    7.3276 C   0  0  0  0  0  0  0  0  0  0  0  0
    0.5156   -3.4476    6.7637 C   0  0  0  0  0  0  0  0  0  0  0  0
    0.7274   -3.5743    5.4006 C   0  0  0  0  0  0  0  0  0  0  0  0
    0.8180   -2.4812    4.5655 C   0  0  0  0  0  0  0  0  0  0  0  0
    0.6920   -1.2236    5.1169 C   0  0  0  0  0  0  0  0  0  0  0  0
    0.8853   -5.1935    4.7190 Cl  0  0  0  0  0  0  0  0  0  0  0  0
  1  2  1  0
  2  3  1  0
  2  4  1  0
  4  5  1  0
  5  6  1  0
  6  7  1  0
  7  8  2  0
  8  9  1  0
  9 10  2  0
 10 11  1  0
 11 12  2  0
 12 13  1  0
 13 14  2  0
 14 15  1  0
 15 16  1  0
 16 17  2  0
 17 18  1  0
 18 19  2  0
 19 20  1  0
 20 21  2  0
 19 22  1  0
 17  7  1  0
 14  9  1  0
 21 16  1  0
M  END
$$$$
