
     RDKit          3D

 22 24  0  0  0  0  0  0  0  0999 V2000
    1.3082    2.3969    9.7718 C   0  0  0  0  0  0  0  0  0  0  0  0
    0.3966    1.2761    9.7878 N   0  0  0  0  0  0  0  0  0  0  0  0
   -0.4419    1.2544   10.9578 C   0  0  0  0  0  0  0  0  0  0  0  0
    1.0707    0.0158    9.5484 C   0  0  0  0  0  0  0  0  0  0  0  0
    0.5661   -0.4854    8.1961 C   0  0  0  0  0  0  0  0  0  0  0  0
    1.3872   -1.5453    7.7157 O   0  0  0  0  0  0  0  0  0  0  0  0
    0.8412   -2.8291    7.8671 C   0  0  0  0  0  0  0  0  0  0  0  0
    0.5666   -3.2417    9.0914 C   0  0  0  0  0  0  0  0  0  0  0  0
    0.0103   -4.4722    9.6279 C   0  0  0  0  0  0  0  0  0  0  0  0
   -0.6453   -4.2823   10.8390 C   0  0  0  0  0  0  0  0  0  0  0  0
   -1.2363   -5.3346   11.4998 C   0  0  0  0  0  0  0  0  0  0  0  0
   -1.1551   -6.5809   10.9193 C   0  0  0  0  0  0  0  0  0  0  0  0
   -0.5007   -6.7732    9.7093 C   0  0  0  0  0  0  0  0  0  0  0  0
    0.0937   -5.7187    9.0431 C   0  0  0  0  0  0  0  0  0  0  0  0
    0.8707   -6.2148    7.5108 S   0  0  0  0  0  0  0  0  0  0  0  0
    0.6367   -4.8915    6.3237 C   0  0  0  0  0  0  0  0  0  0  0  0
    0.6490   -3.5479    6.6081 C   0  0  0  0  0  0  0  0  0  0  0  0
    0.4494   -2.6651    5.5549 C   0  0  0  0  0  0  0  0  0  0  0  0
    0.2478   -3.1551    4.2749 C   0  0  0  0  0  0  0  0  0  0  0  0
    0.2368   -4.5054    3.9975 C   0  0  0  0  0  0  0  0  0  0  0  0
    0.4343   -5.3893    5.0372 C   0  0  0  0  0  0  0  0  0  0  0  0
   -0.0025   -2.0045    2.9616 Cl  0  0  0  0  0  0  0  0  0  0  0  0
  1  2  1  0
  2  3  1  0
  2  4  1  0
  4  5  1  0
  5  6  1  0
  6  7  1  0
  7  8  2  0
  8  9  1  0
  9 10  2  0
 10 11  1  0
 11 12  2  0
 12 13  1  0
 13 14  2  0
 14 15  1  0
 15 16  1  0
 16 17  2  0
 17 18  1  0
 18 19  2  0
 19 20  1  0
 20 21  2  0
 19 22  1  0
 17  7  1  0
 14  9  1  0
 21 16  1  0
M  END
$$$$
