
     RDKit          3D

 22 24  0  0  0  0  0  0  0  0999 V2000
    3.6017   -0.1956   13.5205 C   0  0  0  0  0  0  0  0  0  0  0  0
    3.1712   -0.0056   12.1544 N   0  0  0  0  0  0  0  0  0  0  0  0
    3.5649    1.2705   11.6169 C   0  0  0  0  0  0  0  0  0  0  0  0
    1.7603   -0.2853   11.9787 C   0  0  0  0  0  0  0  0  0  0  0  0
    1.6798   -1.6476   11.2915 C   0  0  0  0  0  0  0  0  0  0  0  0
    2.1098   -1.5525    9.9372 O   0  0  0  0  0  0  0  0  0  0  0  0
    1.3552   -2.3057    9.0247 C   0  0  0  0  0  0  0  0  0  0  0  0
    1.1892   -3.5918    9.2756 C   0  0  0  0  0  0  0  0  0  0  0  0
    0.4914   -4.6612    8.5823 C   0  0  0  0  0  0  0  0  0  0  0  0
    0.0697   -5.6717    9.4389 C   0  0  0  0  0  0  0  0  0  0  0  0
   -0.6091   -6.7697    8.9629 C   0  0  0  0  0  0  0  0  0  0  0  0
   -0.8556   -6.8318    7.6092 C   0  0  0  0  0  0  0  0  0  0  0  0
   -0.4354   -5.8236    6.7512 C   0  0  0  0  0  0  0  0  0  0  0  0
    0.2465   -4.7196    7.2260 C   0  0  0  0  0  0  0  0  0  0  0  0
    0.6798   -3.5622    5.9335 S   0  0  0  0  0  0  0  0  0  0  0  0
    0.5331   -1.9072    6.6075 C   0  0  0  0  0  0  0  0  0  0  0  0
    0.8455   -1.5339    7.8919 C   0  0  0  0  0  0  0  0  0  0  0  0
    0.6669   -0.2006    8.2362 C   0  0  0  0  0  0  0  0  0  0  0  0
    0.1891    0.6956    7.2941 C   0  0  0  0  0  0  0  0  0  0  0  0
   -0.1222    0.3132    6.0068 C   0  0  0  0  0  0  0  0  0  0  0  0
    0.0520   -1.0090    5.6560 C   0  0  0  0  0  0  0  0  0  0  0  0
   -0.0252    2.3813    7.7669 Cl  0  0  0  0  0  0  0  0  0  0  0  0
  1  2  1  0
  2  3  1  0
  2  4  1  0
  4  5  1  0
  5  6  1  0
  6  7  1  0
  7  8  2  0
  8  9  1  0
  9 10  2  0
 10 11  1  0
 11 12  2  0
 12 13  1  0
 13 14  2  0
 14 15  1  0
 15 16  1  0
 16 17  2  0
 17 18  1  0
 18 19  2  0
 19 20  1  0
 20 21  2  0
 19 22  1  0
 17  7  1  0
 14  9  1  0
 21 16  1  0
M  END
$$$$
