
     RDKit          3D

 22 24  0  0  0  0  0  0  0  0999 V2000
    1.3342   -6.6827   10.2017 C   0  0  0  0  0  0  0  0  0  0  0  0
    2.4865   -5.9157   10.6159 N   0  0  0  0  0  0  0  0  0  0  0  0
    3.0847   -6.4154   11.8261 C   0  0  0  0  0  0  0  0  0  0  0  0
    2.2123   -4.4935   10.6628 C   0  0  0  0  0  0  0  0  0  0  0  0
    0.7998   -4.3518   11.2281 C   0  0  0  0  0  0  0  0  0  0  0  0
   -0.1166   -3.9837   10.2019 O   0  0  0  0  0  0  0  0  0  0  0  0
    0.2734   -2.8769    9.4323 C   0  0  0  0  0  0  0  0  0  0  0  0
    0.7418   -1.8183   10.0682 C   0  0  0  0  0  0  0  0  0  0  0  0
    1.2299   -0.5236    9.6246 C   0  0  0  0  0  0  0  0  0  0  0  0
    2.1447    0.0375   10.5084 C   0  0  0  0  0  0  0  0  0  0  0  0
    2.7160    1.2636   10.2565 C   0  0  0  0  0  0  0  0  0  0  0  0
    2.3498    1.9141    9.0991 C   0  0  0  0  0  0  0  0  0  0  0  0
    1.4361    1.3557    8.2144 C   0  0  0  0  0  0  0  0  0  0  0  0
    0.8605    0.1247    8.4644 C   0  0  0  0  0  0  0  0  0  0  0  0
   -0.2800   -0.3815    7.1835 S   0  0  0  0  0  0  0  0  0  0  0  0
   -0.1270   -2.1568    6.9831 C   0  0  0  0  0  0  0  0  0  0  0  0
    0.0994   -3.0609    7.9920 C   0  0  0  0  0  0  0  0  0  0  0  0
    0.1888   -4.4027    7.6458 C   0  0  0  0  0  0  0  0  0  0  0  0
    0.0499   -4.7824    6.3208 C   0  0  0  0  0  0  0  0  0  0  0  0
   -0.1772   -3.8688    5.3138 C   0  0  0  0  0  0  0  0  0  0  0  0
   -0.2675   -2.5341    5.6484 C   0  0  0  0  0  0  0  0  0  0  0  0
    0.1693   -6.4955    5.9180 Cl  0  0  0  0  0  0  0  0  0  0  0  0
  1  2  1  0
  2  3  1  0
  2  4  1  0
  4  5  1  0
  5  6  1  0
  6  7  1  0
  7  8  2  0
  8  9  1  0
  9 10  2  0
 10 11  1  0
 11 12  2  0
 12 13  1  0
 13 14  2  0
 14 15  1  0
 15 16  1  0
 16 17  2  0
 17 18  1  0
 18 19  2  0
 19 20  1  0
 20 21  2  0
 19 22  1  0
 17  7  1  0
 14  9  1  0
 21 16  1  0
M  END
$$$$
