
     RDKit          3D

 22 24  0  0  0  0  0  0  0  0999 V2000
    1.5038    3.0041    6.8313 C   0  0  0  0  0  0  0  0  0  0  0  0
    0.4833    2.2334    7.5038 N   0  0  0  0  0  0  0  0  0  0  0  0
    0.7152    2.1142    8.9195 C   0  0  0  0  0  0  0  0  0  0  0  0
    0.2421    0.9587    6.8581 C   0  0  0  0  0  0  0  0  0  0  0  0
    1.2216   -0.0293    7.4899 C   0  0  0  0  0  0  0  0  0  0  0  0
    0.9707   -1.3516    7.0242 O   0  0  0  0  0  0  0  0  0  0  0  0
    1.1974   -2.3629    7.9702 C   0  0  0  0  0  0  0  0  0  0  0  0
    1.6394   -2.0042    9.1621 C   0  0  0  0  0  0  0  0  0  0  0  0
    1.9795   -2.7458   10.3644 C   0  0  0  0  0  0  0  0  0  0  0  0
    1.8299   -1.9906   11.5220 C   0  0  0  0  0  0  0  0  0  0  0  0
    2.1061   -2.5248   12.7596 C   0  0  0  0  0  0  0  0  0  0  0  0
    2.5354   -3.8325   12.8104 C   0  0  0  0  0  0  0  0  0  0  0  0
    2.6856   -4.5891   11.6553 C   0  0  0  0  0  0  0  0  0  0  0  0
    2.4091   -4.0558   10.4110 C   0  0  0  0  0  0  0  0  0  0  0  0
    2.6769   -5.2209    9.0811 S   0  0  0  0  0  0  0  0  0  0  0  0
    1.4161   -4.9344    7.8388 C   0  0  0  0  0  0  0  0  0  0  0  0
    0.9025   -3.7106    7.4850 C   0  0  0  0  0  0  0  0  0  0  0  0
   -0.0729   -3.6831    6.4970 C   0  0  0  0  0  0  0  0  0  0  0  0
   -0.4907   -4.8658    5.9092 C   0  0  0  0  0  0  0  0  0  0  0  0
    0.0296   -6.0904    6.2698 C   0  0  0  0  0  0  0  0  0  0  0  0
    0.9987   -6.1273    7.2501 C   0  0  0  0  0  0  0  0  0  0  0  0
   -1.7314   -4.7927    4.6576 Cl  0  0  0  0  0  0  0  0  0  0  0  0
  1  2  1  0
  2  3  1  0
  2  4  1  0
  4  5  1  0
  5  6  1  0
  6  7  1  0
  7  8  2  0
  8  9  1  0
  9 10  2  0
 10 11  1  0
 11 12  2  0
 12 13  1  0
 13 14  2  0
 14 15  1  0
 15 16  1  0
 16 17  2  0
 17 18  1  0
 18 19  2  0
 19 20  1  0
 20 21  2  0
 19 22  1  0
 17  7  1  0
 14  9  1  0
 21 16  1  0
M  END
$$$$
