
     RDKit          3D

 22 24  0  0  0  0  0  0  0  0999 V2000
   -1.2250   -4.4885    5.0557 C   0  0  0  0  0  0  0  0  0  0  0  0
   -0.3763   -4.4053    6.2220 N   0  0  0  0  0  0  0  0  0  0  0  0
   -0.4893   -5.5568    7.0785 C   0  0  0  0  0  0  0  0  0  0  0  0
   -0.5376   -3.1518    6.9310 C   0  0  0  0  0  0  0  0  0  0  0  0
   -0.1635   -3.4351    8.3850 C   0  0  0  0  0  0  0  0  0  0  0  0
    1.1764   -3.0294    8.6465 O   0  0  0  0  0  0  0  0  0  0  0  0
    1.3014   -1.7952    9.3026 C   0  0  0  0  0  0  0  0  0  0  0  0
    0.7517   -0.7369    8.7349 C   0  0  0  0  0  0  0  0  0  0  0  0
    0.6750    0.6662    9.1045 C   0  0  0  0  0  0  0  0  0  0  0  0
   -0.4457    1.2998    8.5797 C   0  0  0  0  0  0  0  0  0  0  0  0
   -0.6876    2.6324    8.8224 C   0  0  0  0  0  0  0  0  0  0  0  0
    0.2190    3.3151    9.6028 C   0  0  0  0  0  0  0  0  0  0  0  0
    1.3394    2.6844   10.1284 C   0  0  0  0  0  0  0  0  0  0  0  0
    1.5853    1.3464    9.8866 C   0  0  0  0  0  0  0  0  0  0  0  0
    3.0842    0.7635   10.6683 S   0  0  0  0  0  0  0  0  0  0  0  0
    2.7973   -0.9187   11.2187 C   0  0  0  0  0  0  0  0  0  0  0  0
    2.0456   -1.8607   10.5598 C   0  0  0  0  0  0  0  0  0  0  0  0
    1.9352   -3.1173   11.1404 C   0  0  0  0  0  0  0  0  0  0  0  0
    2.5730   -3.3788   12.3420 C   0  0  0  0  0  0  0  0  0  0  0  0
    3.3258   -2.4279   12.9973 C   0  0  0  0  0  0  0  0  0  0  0  0
    3.4410   -1.1772   12.4280 C   0  0  0  0  0  0  0  0  0  0  0  0
    2.4106   -4.9860   13.0501 Cl  0  0  0  0  0  0  0  0  0  0  0  0
  1  2  1  0
  2  3  1  0
  2  4  1  0
  4  5  1  0
  5  6  1  0
  6  7  1  0
  7  8  2  0
  8  9  1  0
  9 10  2  0
 10 11  1  0
 11 12  2  0
 12 13  1  0
 13 14  2  0
 14 15  1  0
 15 16  1  0
 16 17  2  0
 17 18  1  0
 18 19  2  0
 19 20  1  0
 20 21  2  0
 19 22  1  0
 17  7  1  0
 14  9  1  0
 21 16  1  0
M  END
$$$$
