
     RDKit          3D

 25 28  0  0  0  0  0  0  0  0999 V2000
    0.8889    0.3758    6.8562 C   0  0  0  0  0  0  0  0  0  0  0  0
    2.0388   -0.1655    7.3799 C   0  0  0  0  0  0  0  0  0  0  0  0
    2.4631    0.6489    8.3016 O   0  0  0  0  0  0  0  0  0  0  0  0
    1.6727    1.6918    8.4236 C   0  0  0  0  0  0  0  0  0  0  0  0
    0.6410    1.5675    7.5156 C   0  0  0  0  0  0  0  0  0  0  0  0
    1.8589    2.7925    9.3620 C   0  0  0  0  0  0  0  0  0  0  0  0
    2.6332    2.8834   10.4463 N   0  0  0  0  0  0  0  0  0  0  0  0
    2.4744    4.0973   10.9981 N   0  0  0  0  0  0  0  0  0  0  0  0
    3.0018    4.6987   12.0754 C   0  0  0  0  0  0  0  0  0  0  0  0
    2.6413    5.9549   12.3863 N   0  0  0  0  0  0  0  0  0  0  0  0
    1.7589    6.6619   11.6597 C   0  0  0  0  0  0  0  0  0  0  0  0
    1.2411    6.0388   10.5814 N   0  0  0  0  0  0  0  0  0  0  0  0
    1.5938    4.7791   10.2581 C   0  0  0  0  0  0  0  0  0  0  0  0
    1.2254    3.9701    9.2612 N   0  0  0  0  0  0  0  0  0  0  0  0
    1.3987    7.9898   12.0159 N   0  0  0  0  0  0  0  0  0  0  0  0
    1.7044    8.5023   13.3264 C   0  0  0  0  0  0  0  0  0  0  0  0
    0.4972    8.3970   14.1937 C   0  0  0  0  0  0  0  0  0  0  0  0
    0.7464    8.8369   15.5900 C   0  0  0  0  0  0  0  0  0  0  0  0
   -0.2461    8.8808   16.5467 C   0  0  0  0  0  0  0  0  0  0  0  0
   -0.0085    9.2905   17.8428 C   0  0  0  0  0  0  0  0  0  0  0  0
    1.2544    9.6796   18.2401 C   0  0  0  0  0  0  0  0  0  0  0  0
    2.2542    9.6394   17.2908 C   0  0  0  0  0  0  0  0  0  0  0  0
    2.0128    9.2272   15.9887 C   0  0  0  0  0  0  0  0  0  0  0  0
    1.5096   10.0964   19.5478 O   0  0  0  0  0  0  0  0  0  0  0  0
    3.9304    4.0366   12.8914 N   0  0  0  0  0  0  0  0  0  0  0  0
  1  2  2  0
  2  3  1  0
  3  4  1  0
  4  5  2  0
  4  6  1  0
  6  7  2  0
  7  8  1  0
  8  9  1  0
  9 10  2  0
 10 11  1  0
 11 12  2  0
 12 13  1  0
 13 14  2  0
 11 15  1  0
 15 16  1  0
 16 17  1  0
 17 18  1  0
 18 19  2  0
 19 20  1  0
 20 21  2  0
 21 22  1  0
 22 23  2  0
 21 24  1  0
  9 25  1  0
  5  1  1  0
 14  6  1  0
 13  8  1  0
 23 18  1  0
M  END
$$$$
