
     RDKit          3D

 25 28  0  0  0  0  0  0  0  0999 V2000
    2.0394    0.4517    6.3222 C   0  0  0  0  0  0  0  0  0  0  0  0
    3.2998    0.2066    6.8128 C   0  0  0  0  0  0  0  0  0  0  0  0
    3.4547    0.9525    7.8676 O   0  0  0  0  0  0  0  0  0  0  0  0
    2.3830    1.6743    8.1084 C   0  0  0  0  0  0  0  0  0  0  0  0
    1.4388    1.3912    7.1427 C   0  0  0  0  0  0  0  0  0  0  0  0
    2.2236    2.6146    9.2116 C   0  0  0  0  0  0  0  0  0  0  0  0
    2.9480    2.7766   10.3218 N   0  0  0  0  0  0  0  0  0  0  0  0
    2.4182    3.7732   11.0495 N   0  0  0  0  0  0  0  0  0  0  0  0
    2.7447    4.3344   12.2238 C   0  0  0  0  0  0  0  0  0  0  0  0
    2.0059    5.3438   12.7135 N   0  0  0  0  0  0  0  0  0  0  0  0
    0.9297    5.8363   12.0766 C   0  0  0  0  0  0  0  0  0  0  0  0
    0.6192    5.2581   10.8983 N   0  0  0  0  0  0  0  0  0  0  0  0
    1.3515    4.2449   10.3955 C   0  0  0  0  0  0  0  0  0  0  0  0
    1.2437    3.5279    9.2737 N   0  0  0  0  0  0  0  0  0  0  0  0
    0.1690    6.9057   12.6221 N   0  0  0  0  0  0  0  0  0  0  0  0
    0.6311    7.6078   13.7914 C   0  0  0  0  0  0  0  0  0  0  0  0
    2.0575    7.9964   13.6046 C   0  0  0  0  0  0  0  0  0  0  0  0
    2.7178    8.4039   14.8708 C   0  0  0  0  0  0  0  0  0  0  0  0
    3.8971    7.8408   15.3119 C   0  0  0  0  0  0  0  0  0  0  0  0
    4.5061    8.2236   16.4896 C   0  0  0  0  0  0  0  0  0  0  0  0
    3.9493    9.2026   17.2868 C   0  0  0  0  0  0  0  0  0  0  0  0
    2.7697    9.7721   16.8546 C   0  0  0  0  0  0  0  0  0  0  0  0
    2.1596    9.3856   15.6706 C   0  0  0  0  0  0  0  0  0  0  0  0
    4.5541    9.6000   18.4806 O   0  0  0  0  0  0  0  0  0  0  0  0
    3.8519    3.8845   12.9575 N   0  0  0  0  0  0  0  0  0  0  0  0
  1  2  2  0
  2  3  1  0
  3  4  1  0
  4  5  2  0
  4  6  1  0
  6  7  2  0
  7  8  1  0
  8  9  1  0
  9 10  2  0
 10 11  1  0
 11 12  2  0
 12 13  1  0
 13 14  2  0
 11 15  1  0
 15 16  1  0
 16 17  1  0
 17 18  1  0
 18 19  2  0
 19 20  1  0
 20 21  2  0
 21 22  1  0
 22 23  2  0
 21 24  1  0
  9 25  1  0
  5  1  1  0
 14  6  1  0
 13  8  1  0
 23 18  1  0
M  END
$$$$
