
     RDKit          3D

 25 28  0  0  0  0  0  0  0  0999 V2000
    1.7372    0.4706    6.2844 C   0  0  0  0  0  0  0  0  0  0  0  0
    2.9898    0.1002    6.7124 C   0  0  0  0  0  0  0  0  0  0  0  0
    3.2776    0.8367    7.7456 O   0  0  0  0  0  0  0  0  0  0  0  0
    2.3012    1.6691    8.0305 C   0  0  0  0  0  0  0  0  0  0  0  0
    1.2823    1.4762    7.1200 C   0  0  0  0  0  0  0  0  0  0  0  0
    2.2996    2.6323    9.1254 C   0  0  0  0  0  0  0  0  0  0  0  0
    3.0731    2.7089   10.2114 N   0  0  0  0  0  0  0  0  0  0  0  0
    2.7001    3.7727   10.9412 N   0  0  0  0  0  0  0  0  0  0  0  0
    3.1331    4.2974   12.0978 C   0  0  0  0  0  0  0  0  0  0  0  0
    2.5473    5.3990   12.5958 N   0  0  0  0  0  0  0  0  0  0  0  0
    1.5249    6.0215   11.9845 C   0  0  0  0  0  0  0  0  0  0  0  0
    1.1055    5.4777   10.8237 N   0  0  0  0  0  0  0  0  0  0  0  0
    1.6840    4.3732   10.3129 C   0  0  0  0  0  0  0  0  0  0  0  0
    1.4491    3.6660    9.2044 N   0  0  0  0  0  0  0  0  0  0  0  0
    0.9269    7.1859   12.5382 N   0  0  0  0  0  0  0  0  0  0  0  0
    1.2351    7.5950   13.8840 C   0  0  0  0  0  0  0  0  0  0  0  0
    2.5382    8.3177   13.8961 C   0  0  0  0  0  0  0  0  0  0  0  0
    2.8722    8.8886   15.2257 C   0  0  0  0  0  0  0  0  0  0  0  0
    3.0119    8.1122   16.3571 C   0  0  0  0  0  0  0  0  0  0  0  0
    3.3223    8.6483   17.5902 C   0  0  0  0  0  0  0  0  0  0  0  0
    3.5086   10.0070   17.7428 C   0  0  0  0  0  0  0  0  0  0  0  0
    3.3711   10.7924   16.6173 C   0  0  0  0  0  0  0  0  0  0  0  0
    3.0590   10.2511   15.3791 C   0  0  0  0  0  0  0  0  0  0  0  0
    3.8230   10.5635   18.9839 O   0  0  0  0  0  0  0  0  0  0  0  0
    4.1949    3.7140   12.8043 N   0  0  0  0  0  0  0  0  0  0  0  0
  1  2  2  0
  2  3  1  0
  3  4  1  0
  4  5  2  0
  4  6  1  0
  6  7  2  0
  7  8  1  0
  8  9  1  0
  9 10  2  0
 10 11  1  0
 11 12  2  0
 12 13  1  0
 13 14  2  0
 11 15  1  0
 15 16  1  0
 16 17  1  0
 17 18  1  0
 18 19  2  0
 19 20  1  0
 20 21  2  0
 21 22  1  0
 22 23  2  0
 21 24  1  0
  9 25  1  0
  5  1  1  0
 14  6  1  0
 13  8  1  0
 23 18  1  0
M  END
$$$$
