
     RDKit          3D

 25 28  0  0  0  0  0  0  0  0999 V2000
    1.5650    0.4673    6.3841 C   0  0  0  0  0  0  0  0  0  0  0  0
    2.7997    0.0491    6.8199 C   0  0  0  0  0  0  0  0  0  0  0  0
    3.1069    0.7707    7.8580 O   0  0  0  0  0  0  0  0  0  0  0  0
    2.1600    1.6378    8.1389 C   0  0  0  0  0  0  0  0  0  0  0  0
    1.1414    1.4861    7.2202 C   0  0  0  0  0  0  0  0  0  0  0  0
    2.1859    2.5965    9.2374 C   0  0  0  0  0  0  0  0  0  0  0  0
    2.8811    2.5871   10.3777 N   0  0  0  0  0  0  0  0  0  0  0  0
    2.5772    3.6871   11.0856 N   0  0  0  0  0  0  0  0  0  0  0  0
    2.9800    4.1613   12.2744 C   0  0  0  0  0  0  0  0  0  0  0  0
    2.4865    5.3224   12.7358 N   0  0  0  0  0  0  0  0  0  0  0  0
    1.5882    6.0551   12.0556 C   0  0  0  0  0  0  0  0  0  0  0  0
    1.1969    5.5604   10.8635 N   0  0  0  0  0  0  0  0  0  0  0  0
    1.6838    4.3972   10.3887 C   0  0  0  0  0  0  0  0  0  0  0  0
    1.4533    3.7194    9.2611 N   0  0  0  0  0  0  0  0  0  0  0  0
    1.0855    7.2801   12.5721 N   0  0  0  0  0  0  0  0  0  0  0  0
    0.7524    7.4017   13.9678 C   0  0  0  0  0  0  0  0  0  0  0  0
    1.8600    6.8411   14.7923 C   0  0  0  0  0  0  0  0  0  0  0  0
    2.7378    7.8887   15.3730 C   0  0  0  0  0  0  0  0  0  0  0  0
    2.6582    8.2813   16.6928 C   0  0  0  0  0  0  0  0  0  0  0  0
    3.4766    9.2554   17.2269 C   0  0  0  0  0  0  0  0  0  0  0  0
    4.4243    9.8868   16.4476 C   0  0  0  0  0  0  0  0  0  0  0  0
    4.5121    9.5015   15.1261 C   0  0  0  0  0  0  0  0  0  0  0  0
    3.6883    8.5221   14.5917 C   0  0  0  0  0  0  0  0  0  0  0  0
    5.2591   10.8740   16.9742 O   0  0  0  0  0  0  0  0  0  0  0  0
    3.9147    3.4631   13.0527 N   0  0  0  0  0  0  0  0  0  0  0  0
  1  2  2  0
  2  3  1  0
  3  4  1  0
  4  5  2  0
  4  6  1  0
  6  7  2  0
  7  8  1  0
  8  9  1  0
  9 10  2  0
 10 11  1  0
 11 12  2  0
 12 13  1  0
 13 14  2  0
 11 15  1  0
 15 16  1  0
 16 17  1  0
 17 18  1  0
 18 19  2  0
 19 20  1  0
 20 21  2  0
 21 22  1  0
 22 23  2  0
 21 24  1  0
  9 25  1  0
  5  1  1  0
 14  6  1  0
 13  8  1  0
 23 18  1  0
M  END
$$$$
