
     RDKit          3D

 25 28  0  0  0  0  0  0  0  0999 V2000
    1.8185    0.2286    6.6980 C   0  0  0  0  0  0  0  0  0  0  0  0
    3.0985    0.0379    7.1615 C   0  0  0  0  0  0  0  0  0  0  0  0
    3.2479    0.7999    8.2055 O   0  0  0  0  0  0  0  0  0  0  0  0
    2.1545    1.4816    8.4644 C   0  0  0  0  0  0  0  0  0  0  0  0
    1.2003    1.1521    7.5235 C   0  0  0  0  0  0  0  0  0  0  0  0
    1.9834    2.4261    9.5623 C   0  0  0  0  0  0  0  0  0  0  0  0
    2.7760    2.6962   10.6026 N   0  0  0  0  0  0  0  0  0  0  0  0
    2.2002    3.6457   11.3578 N   0  0  0  0  0  0  0  0  0  0  0  0
    2.5591    4.2695   12.4902 C   0  0  0  0  0  0  0  0  0  0  0  0
    1.7548    5.2024   13.0263 N   0  0  0  0  0  0  0  0  0  0  0  0
    0.5797    5.5554   12.4776 C   0  0  0  0  0  0  0  0  0  0  0  0
    0.2382    4.9163   11.3401 N   0  0  0  0  0  0  0  0  0  0  0  0
    1.0355    3.9786   10.7916 C   0  0  0  0  0  0  0  0  0  0  0  0
    0.9151    3.2258    9.6949 N   0  0  0  0  0  0  0  0  0  0  0  0
   -0.2484    6.5468   13.0703 N   0  0  0  0  0  0  0  0  0  0  0  0
    0.1541    7.9294   13.0700 C   0  0  0  0  0  0  0  0  0  0  0  0
    0.6255    8.3086   14.4319 C   0  0  0  0  0  0  0  0  0  0  0  0
    1.6762    9.3577   14.4104 C   0  0  0  0  0  0  0  0  0  0  0  0
    2.8900    9.2111   15.0488 C   0  0  0  0  0  0  0  0  0  0  0  0
    3.8627   10.1897   15.0253 C   0  0  0  0  0  0  0  0  0  0  0  0
    3.6557   11.3750   14.3500 C   0  0  0  0  0  0  0  0  0  0  0  0
    2.4449   11.5317   13.7082 C   0  0  0  0  0  0  0  0  0  0  0  0
    1.4689   10.5466   13.7333 C   0  0  0  0  0  0  0  0  0  0  0  0
    4.6305   12.3738   14.3177 O   0  0  0  0  0  0  0  0  0  0  0  0
    3.7683    3.9647   13.1320 N   0  0  0  0  0  0  0  0  0  0  0  0
  1  2  2  0
  2  3  1  0
  3  4  1  0
  4  5  2  0
  4  6  1  0
  6  7  2  0
  7  8  1  0
  8  9  1  0
  9 10  2  0
 10 11  1  0
 11 12  2  0
 12 13  1  0
 13 14  2  0
 11 15  1  0
 15 16  1  0
 16 17  1  0
 17 18  1  0
 18 19  2  0
 19 20  1  0
 20 21  2  0
 21 22  1  0
 22 23  2  0
 21 24  1  0
  9 25  1  0
  5  1  1  0
 14  6  1  0
 13  8  1  0
 23 18  1  0
M  END
$$$$
