
     RDKit          3D

 25 28  0  0  0  0  0  0  0  0999 V2000
    2.1853    0.3015    6.4911 C   0  0  0  0  0  0  0  0  0  0  0  0
    3.3484   -0.0403    7.1390 C   0  0  0  0  0  0  0  0  0  0  0  0
    3.4432    0.7223    8.1889 O   0  0  0  0  0  0  0  0  0  0  0  0
    2.4225    1.5452    8.2800 C   0  0  0  0  0  0  0  0  0  0  0  0
    1.5800    1.3173    7.2111 C   0  0  0  0  0  0  0  0  0  0  0  0
    2.2189    2.5312    9.3350 C   0  0  0  0  0  0  0  0  0  0  0  0
    2.8499    2.6936   10.5008 N   0  0  0  0  0  0  0  0  0  0  0  0
    2.3146    3.7423   11.1468 N   0  0  0  0  0  0  0  0  0  0  0  0
    2.5667    4.3264   12.3281 C   0  0  0  0  0  0  0  0  0  0  0  0
    1.8454    5.3907   12.7178 N   0  0  0  0  0  0  0  0  0  0  0  0
    0.8595    5.9170   11.9712 C   0  0  0  0  0  0  0  0  0  0  0  0
    0.6228    5.3147   10.7879 N   0  0  0  0  0  0  0  0  0  0  0  0
    1.3386    4.2467   10.3847 C   0  0  0  0  0  0  0  0  0  0  0  0
    1.2905    3.4972    9.2802 N   0  0  0  0  0  0  0  0  0  0  0  0
    0.1148    7.0441   12.4128 N   0  0  0  0  0  0  0  0  0  0  0  0
    0.3962    7.6507   13.6881 C   0  0  0  0  0  0  0  0  0  0  0  0
    1.5964    8.5257   13.5668 C   0  0  0  0  0  0  0  0  0  0  0  0
    2.4924    8.4478   14.7483 C   0  0  0  0  0  0  0  0  0  0  0  0
    3.8607    8.5962   14.6580 C   0  0  0  0  0  0  0  0  0  0  0  0
    4.6884    8.5228   15.7597 C   0  0  0  0  0  0  0  0  0  0  0  0
    4.1706    8.2939   17.0181 C   0  0  0  0  0  0  0  0  0  0  0  0
    2.8032    8.1441   17.1193 C   0  0  0  0  0  0  0  0  0  0  0  0
    1.9734    8.2183   16.0105 C   0  0  0  0  0  0  0  0  0  0  0  0
    4.9957    8.2171   18.1415 O   0  0  0  0  0  0  0  0  0  0  0  0
    3.5773    3.8444   13.1725 N   0  0  0  0  0  0  0  0  0  0  0  0
  1  2  2  0
  2  3  1  0
  3  4  1  0
  4  5  2  0
  4  6  1  0
  6  7  2  0
  7  8  1  0
  8  9  1  0
  9 10  2  0
 10 11  1  0
 11 12  2  0
 12 13  1  0
 13 14  2  0
 11 15  1  0
 15 16  1  0
 16 17  1  0
 17 18  1  0
 18 19  2  0
 19 20  1  0
 20 21  2  0
 21 22  1  0
 22 23  2  0
 21 24  1  0
  9 25  1  0
  5  1  1  0
 14  6  1  0
 13  8  1  0
 23 18  1  0
M  END
$$$$
