
     RDKit          3D

 25 28  0  0  0  0  0  0  0  0999 V2000
    2.0480    0.2422    6.4025 C   0  0  0  0  0  0  0  0  0  0  0  0
    1.0190    1.0462    5.9735 C   0  0  0  0  0  0  0  0  0  0  0  0
    0.8434    1.9637    6.8792 O   0  0  0  0  0  0  0  0  0  0  0  0
    1.6858    1.8216    7.8780 C   0  0  0  0  0  0  0  0  0  0  0  0
    2.4863    0.7269    7.6229 C   0  0  0  0  0  0  0  0  0  0  0  0
    1.7584    2.6792    9.0554 C   0  0  0  0  0  0  0  0  0  0  0  0
    0.9791    3.6950    9.4351 N   0  0  0  0  0  0  0  0  0  0  0  0
    1.4360    4.1873   10.5980 N   0  0  0  0  0  0  0  0  0  0  0  0
    1.0352    5.1858   11.3998 C   0  0  0  0  0  0  0  0  0  0  0  0
    1.7109    5.4510   12.5302 N   0  0  0  0  0  0  0  0  0  0  0  0
    2.7944    4.7540   12.9132 C   0  0  0  0  0  0  0  0  0  0  0  0
    3.1800    3.7551   12.0932 N   0  0  0  0  0  0  0  0  0  0  0  0
    2.5115    3.4783   10.9564 C   0  0  0  0  0  0  0  0  0  0  0  0
    2.6977    2.5597   10.0049 N   0  0  0  0  0  0  0  0  0  0  0  0
    3.4871    5.0602   14.1158 N   0  0  0  0  0  0  0  0  0  0  0  0
    3.0017    6.0920   14.9952 C   0  0  0  0  0  0  0  0  0  0  0  0
    3.5067    7.4155   14.5327 C   0  0  0  0  0  0  0  0  0  0  0  0
    2.9633    8.5509   15.3206 C   0  0  0  0  0  0  0  0  0  0  0  0
    3.6536    9.1338   16.3627 C   0  0  0  0  0  0  0  0  0  0  0  0
    3.1435   10.1888   17.0914 C   0  0  0  0  0  0  0  0  0  0  0  0
    1.9000   10.7118   16.8011 C   0  0  0  0  0  0  0  0  0  0  0  0
    1.2013   10.1359   15.7605 C   0  0  0  0  0  0  0  0  0  0  0  0
    1.7163    9.0756   15.0296 C   0  0  0  0  0  0  0  0  0  0  0  0
    1.3712   11.7787   17.5296 O   0  0  0  0  0  0  0  0  0  0  0  0
   -0.0853    5.9658   11.0790 N   0  0  0  0  0  0  0  0  0  0  0  0
  1  2  2  0
  2  3  1  0
  3  4  1  0
  4  5  2  0
  4  6  1  0
  6  7  2  0
  7  8  1  0
  8  9  1  0
  9 10  2  0
 10 11  1  0
 11 12  2  0
 12 13  1  0
 13 14  2  0
 11 15  1  0
 15 16  1  0
 16 17  1  0
 17 18  1  0
 18 19  2  0
 19 20  1  0
 20 21  2  0
 21 22  1  0
 22 23  2  0
 21 24  1  0
  9 25  1  0
  5  1  1  0
 14  6  1  0
 13  8  1  0
 23 18  1  0
M  END
$$$$
