
     RDKit          3D

 25 28  0  0  0  0  0  0  0  0999 V2000
    1.9839    0.7020    6.1428 C   0  0  0  0  0  0  0  0  0  0  0  0
    3.2344    0.3846    6.6171 C   0  0  0  0  0  0  0  0  0  0  0  0
    3.4411    1.1118    7.6760 O   0  0  0  0  0  0  0  0  0  0  0  0
    2.4130    1.8885    7.9348 C   0  0  0  0  0  0  0  0  0  0  0  0
    1.4442    1.6655    6.9776 C   0  0  0  0  0  0  0  0  0  0  0  0
    2.3169    2.8265    9.0473 C   0  0  0  0  0  0  0  0  0  0  0  0
    3.0733    2.9522   10.1407 N   0  0  0  0  0  0  0  0  0  0  0  0
    2.6006    3.9636   10.8871 N   0  0  0  0  0  0  0  0  0  0  0  0
    2.9767    4.5031   12.0566 C   0  0  0  0  0  0  0  0  0  0  0  0
    2.2901    5.5373   12.5701 N   0  0  0  0  0  0  0  0  0  0  0  0
    1.2193    6.0761   11.9623 C   0  0  0  0  0  0  0  0  0  0  0  0
    0.8584    5.5189   10.7883 N   0  0  0  0  0  0  0  0  0  0  0  0
    1.5381    4.4813   10.2618 C   0  0  0  0  0  0  0  0  0  0  0  0
    1.3755    3.7772    9.1385 N   0  0  0  0  0  0  0  0  0  0  0  0
    0.5144    7.1706   12.5325 N   0  0  0  0  0  0  0  0  0  0  0  0
    0.9381    7.7378   13.7865 C   0  0  0  0  0  0  0  0  0  0  0  0
    2.1227    8.6130   13.5595 C   0  0  0  0  0  0  0  0  0  0  0  0
    2.8475    8.9440   14.8125 C   0  0  0  0  0  0  0  0  0  0  0  0
    2.4913    8.4249   16.0397 C   0  0  0  0  0  0  0  0  0  0  0  0
    3.1687    8.7363   17.2010 C   0  0  0  0  0  0  0  0  0  0  0  0
    4.2487    9.5948   17.1800 C   0  0  0  0  0  0  0  0  0  0  0  0
    4.6132   10.1195   15.9575 C   0  0  0  0  0  0  0  0  0  0  0  0
    3.9307    9.8050   14.7918 C   0  0  0  0  0  0  0  0  0  0  0  0
    4.9435    9.9188   18.3467 O   0  0  0  0  0  0  0  0  0  0  0  0
    4.0825    4.0050   12.7608 N   0  0  0  0  0  0  0  0  0  0  0  0
  1  2  2  0
  2  3  1  0
  3  4  1  0
  4  5  2  0
  4  6  1  0
  6  7  2  0
  7  8  1  0
  8  9  1  0
  9 10  2  0
 10 11  1  0
 11 12  2  0
 12 13  1  0
 13 14  2  0
 11 15  1  0
 15 16  1  0
 16 17  1  0
 17 18  1  0
 18 19  2  0
 19 20  1  0
 20 21  2  0
 21 22  1  0
 22 23  2  0
 21 24  1  0
  9 25  1  0
  5  1  1  0
 14  6  1  0
 13  8  1  0
 23 18  1  0
M  END
$$$$
