
     RDKit          3D

 25 28  0  0  0  0  0  0  0  0999 V2000
    1.7447    0.2091    6.7089 C   0  0  0  0  0  0  0  0  0  0  0  0
    3.0010   -0.1422    7.1421 C   0  0  0  0  0  0  0  0  0  0  0  0
    3.3004    0.6440    8.1347 O   0  0  0  0  0  0  0  0  0  0  0  0
    2.3281    1.4913    8.3878 C   0  0  0  0  0  0  0  0  0  0  0  0
    1.2997    1.2557    7.4983 C   0  0  0  0  0  0  0  0  0  0  0  0
    2.3390    2.5075    9.4337 C   0  0  0  0  0  0  0  0  0  0  0  0
    3.1746    2.6832   10.4605 N   0  0  0  0  0  0  0  0  0  0  0  0
    2.7861    3.7600   11.1628 N   0  0  0  0  0  0  0  0  0  0  0  0
    3.2601    4.3667   12.2616 C   0  0  0  0  0  0  0  0  0  0  0  0
    2.6424    5.4572   12.7453 N   0  0  0  0  0  0  0  0  0  0  0  0
    1.5472    5.9886   12.1754 C   0  0  0  0  0  0  0  0  0  0  0  0
    1.0875    5.3633   11.0724 N   0  0  0  0  0  0  0  0  0  0  0  0
    1.6974    4.2688   10.5765 C   0  0  0  0  0  0  0  0  0  0  0  0
    1.4347    3.4938    9.5208 N   0  0  0  0  0  0  0  0  0  0  0  0
    0.9172    7.1437   12.7125 N   0  0  0  0  0  0  0  0  0  0  0  0
    1.6220    7.9984   13.6324 C   0  0  0  0  0  0  0  0  0  0  0  0
    1.1948    7.6864   15.0255 C   0  0  0  0  0  0  0  0  0  0  0  0
    2.0872    8.2813   16.0526 C   0  0  0  0  0  0  0  0  0  0  0  0
    1.6638    9.2505   16.9378 C   0  0  0  0  0  0  0  0  0  0  0  0
    2.4978    9.7997   17.8902 C   0  0  0  0  0  0  0  0  0  0  0  0
    3.8122    9.3936   17.9965 C   0  0  0  0  0  0  0  0  0  0  0  0
    4.2458    8.4246   17.1158 C   0  0  0  0  0  0  0  0  0  0  0  0
    3.4055    7.8742   16.1595 C   0  0  0  0  0  0  0  0  0  0  0  0
    4.6674    9.9402   18.9549 O   0  0  0  0  0  0  0  0  0  0  0  0
    4.3982    3.8814   12.9220 N   0  0  0  0  0  0  0  0  0  0  0  0
  1  2  2  0
  2  3  1  0
  3  4  1  0
  4  5  2  0
  4  6  1  0
  6  7  2  0
  7  8  1  0
  8  9  1  0
  9 10  2  0
 10 11  1  0
 11 12  2  0
 12 13  1  0
 13 14  2  0
 11 15  1  0
 15 16  1  0
 16 17  1  0
 17 18  1  0
 18 19  2  0
 19 20  1  0
 20 21  2  0
 21 22  1  0
 22 23  2  0
 21 24  1  0
  9 25  1  0
  5  1  1  0
 14  6  1  0
 13  8  1  0
 23 18  1  0
M  END
$$$$
