
     RDKit          3D

 25 28  0  0  0  0  0  0  0  0999 V2000
    1.6980    0.1315    6.7047 C   0  0  0  0  0  0  0  0  0  0  0  0
    2.9563   -0.1435    7.1845 C   0  0  0  0  0  0  0  0  0  0  0  0
    3.1767    0.6692    8.1764 O   0  0  0  0  0  0  0  0  0  0  0  0
    2.1503    1.4630    8.3856 C   0  0  0  0  0  0  0  0  0  0  0  0
    1.1680    1.1598    7.4650 C   0  0  0  0  0  0  0  0  0  0  0  0
    2.0681    2.4896    9.4180 C   0  0  0  0  0  0  0  0  0  0  0  0
    2.8516    2.7182   10.4752 N   0  0  0  0  0  0  0  0  0  0  0  0
    2.3818    3.7815   11.1475 N   0  0  0  0  0  0  0  0  0  0  0  0
    2.7800    4.4231   12.2566 C   0  0  0  0  0  0  0  0  0  0  0  0
    2.0897    5.4863   12.7012 N   0  0  0  0  0  0  0  0  0  0  0  0
    0.9936    5.9559   12.0811 C   0  0  0  0  0  0  0  0  0  0  0  0
    0.6108    5.2966   10.9686 N   0  0  0  0  0  0  0  0  0  0  0  0
    1.2939    4.2288   10.5116 C   0  0  0  0  0  0  0  0  0  0  0  0
    1.1132    3.4303    9.4562 N   0  0  0  0  0  0  0  0  0  0  0  0
    0.2856    7.0837   12.5777 N   0  0  0  0  0  0  0  0  0  0  0  0
    0.7802    7.8123   13.7170 C   0  0  0  0  0  0  0  0  0  0  0  0
    2.2198    7.4885   13.9255 C   0  0  0  0  0  0  0  0  0  0  0  0
    2.8015    8.1695   15.1100 C   0  0  0  0  0  0  0  0  0  0  0  0
    2.3487    9.3898   15.5660 C   0  0  0  0  0  0  0  0  0  0  0  0
    2.8932   10.0179   16.6675 C   0  0  0  0  0  0  0  0  0  0  0  0
    3.9311    9.4393   17.3690 C   0  0  0  0  0  0  0  0  0  0  0  0
    4.3914    8.2187   16.9210 C   0  0  0  0  0  0  0  0  0  0  0  0
    3.8424    7.5895   15.8137 C   0  0  0  0  0  0  0  0  0  0  0  0
    4.4918   10.0630   18.4850 O   0  0  0  0  0  0  0  0  0  0  0  0
    3.9130    4.0026   12.9682 N   0  0  0  0  0  0  0  0  0  0  0  0
  1  2  2  0
  2  3  1  0
  3  4  1  0
  4  5  2  0
  4  6  1  0
  6  7  2  0
  7  8  1  0
  8  9  1  0
  9 10  2  0
 10 11  1  0
 11 12  2  0
 12 13  1  0
 13 14  2  0
 11 15  1  0
 15 16  1  0
 16 17  1  0
 17 18  1  0
 18 19  2  0
 19 20  1  0
 20 21  2  0
 21 22  1  0
 22 23  2  0
 21 24  1  0
  9 25  1  0
  5  1  1  0
 14  6  1  0
 13  8  1  0
 23 18  1  0
M  END
$$$$
