
     RDKit          3D

 25 28  0  0  0  0  0  0  0  0999 V2000
    2.2039    0.5319    6.2129 C   0  0  0  0  0  0  0  0  0  0  0  0
    0.8381    0.6812    6.2557 C   0  0  0  0  0  0  0  0  0  0  0  0
    0.5698    1.4954    7.2346 O   0  0  0  0  0  0  0  0  0  0  0  0
    1.6646    1.8948    7.8423 C   0  0  0  0  0  0  0  0  0  0  0  0
    2.7482    1.3044    7.2246 C   0  0  0  0  0  0  0  0  0  0  0  0
    1.7197    2.8084    8.9777 C   0  0  0  0  0  0  0  0  0  0  0  0
    0.7368    3.4117    9.6511 N   0  0  0  0  0  0  0  0  0  0  0  0
    1.2714    4.1659   10.6252 N   0  0  0  0  0  0  0  0  0  0  0  0
    0.7478    4.9611   11.5707 C   0  0  0  0  0  0  0  0  0  0  0  0
    1.5561    5.6052   12.4289 N   0  0  0  0  0  0  0  0  0  0  0  0
    2.8951    5.4949   12.3927 C   0  0  0  0  0  0  0  0  0  0  0  0
    3.4004    4.6909   11.4349 N   0  0  0  0  0  0  0  0  0  0  0  0
    2.6013    4.0390   10.5677 C   0  0  0  0  0  0  0  0  0  0  0  0
    2.8620    3.2065    9.5563 N   0  0  0  0  0  0  0  0  0  0  0  0
    3.7225    6.1902   13.3157 N   0  0  0  0  0  0  0  0  0  0  0  0
    3.1443    6.8688   14.4465 C   0  0  0  0  0  0  0  0  0  0  0  0
    2.6935    8.2274   14.0319 C   0  0  0  0  0  0  0  0  0  0  0  0
    2.7791    9.2260   15.1276 C   0  0  0  0  0  0  0  0  0  0  0  0
    3.2059    8.9039   16.3989 C   0  0  0  0  0  0  0  0  0  0  0  0
    3.2833    9.8363   17.4133 C   0  0  0  0  0  0  0  0  0  0  0  0
    2.9305   11.1517   17.1916 C   0  0  0  0  0  0  0  0  0  0  0  0
    2.5022   11.4844   15.9234 C   0  0  0  0  0  0  0  0  0  0  0  0
    2.4253   10.5454   14.9057 C   0  0  0  0  0  0  0  0  0  0  0  0
    3.0037   12.1059   18.2080 O   0  0  0  0  0  0  0  0  0  0  0  0
   -0.6393    5.1354   11.6826 N   0  0  0  0  0  0  0  0  0  0  0  0
  1  2  2  0
  2  3  1  0
  3  4  1  0
  4  5  2  0
  4  6  1  0
  6  7  2  0
  7  8  1  0
  8  9  1  0
  9 10  2  0
 10 11  1  0
 11 12  2  0
 12 13  1  0
 13 14  2  0
 11 15  1  0
 15 16  1  0
 16 17  1  0
 17 18  1  0
 18 19  2  0
 19 20  1  0
 20 21  2  0
 21 22  1  0
 22 23  2  0
 21 24  1  0
  9 25  1  0
  5  1  1  0
 14  6  1  0
 13  8  1  0
 23 18  1  0
M  END
$$$$
