
     RDKit          3D

 25 28  0  0  0  0  0  0  0  0999 V2000
    1.6531   -0.0599    6.7721 C   0  0  0  0  0  0  0  0  0  0  0  0
    0.4753    0.5719    6.4513 C   0  0  0  0  0  0  0  0  0  0  0  0
    0.3619    1.5999    7.2407 O   0  0  0  0  0  0  0  0  0  0  0  0
    1.3840    1.6915    8.0618 C   0  0  0  0  0  0  0  0  0  0  0  0
    2.2476    0.6465    7.8036 C   0  0  0  0  0  0  0  0  0  0  0  0
    1.5697    2.7251    9.0736 C   0  0  0  0  0  0  0  0  0  0  0  0
    0.8086    3.7773    9.3854 N   0  0  0  0  0  0  0  0  0  0  0  0
    1.3860    4.4534   10.3918 N   0  0  0  0  0  0  0  0  0  0  0  0
    1.0520    5.5603   11.0726 C   0  0  0  0  0  0  0  0  0  0  0  0
    1.8502    6.0102   12.0551 N   0  0  0  0  0  0  0  0  0  0  0  0
    2.9946    5.3976   12.4037 C   0  0  0  0  0  0  0  0  0  0  0  0
    3.3114    4.2871   11.7068 N   0  0  0  0  0  0  0  0  0  0  0  0
    2.5200    3.8249   10.7190 C   0  0  0  0  0  0  0  0  0  0  0  0
    2.6203    2.7702    9.9057 N   0  0  0  0  0  0  0  0  0  0  0  0
    3.8170    5.8996   13.4484 N   0  0  0  0  0  0  0  0  0  0  0  0
    3.5237    7.1688   14.0622 C   0  0  0  0  0  0  0  0  0  0  0  0
    2.3439    7.0239   14.9609 C   0  0  0  0  0  0  0  0  0  0  0  0
    2.1438    8.1974   15.8486 C   0  0  0  0  0  0  0  0  0  0  0  0
    0.9774    8.9333   15.8609 C   0  0  0  0  0  0  0  0  0  0  0  0
    0.7972   10.0230   16.6881 C   0  0  0  0  0  0  0  0  0  0  0  0
    1.7950   10.4268   17.5515 C   0  0  0  0  0  0  0  0  0  0  0  0
    2.9657    9.6974   17.5471 C   0  0  0  0  0  0  0  0  0  0  0  0
    3.1443    8.6026   16.7146 C   0  0  0  0  0  0  0  0  0  0  0  0
    1.6269   11.5271   18.3940 O   0  0  0  0  0  0  0  0  0  0  0  0
   -0.1244    6.2642   10.7769 N   0  0  0  0  0  0  0  0  0  0  0  0
  1  2  2  0
  2  3  1  0
  3  4  1  0
  4  5  2  0
  4  6  1  0
  6  7  2  0
  7  8  1  0
  8  9  1  0
  9 10  2  0
 10 11  1  0
 11 12  2  0
 12 13  1  0
 13 14  2  0
 11 15  1  0
 15 16  1  0
 16 17  1  0
 17 18  1  0
 18 19  2  0
 19 20  1  0
 20 21  2  0
 21 22  1  0
 22 23  2  0
 21 24  1  0
  9 25  1  0
  5  1  1  0
 14  6  1  0
 13  8  1  0
 23 18  1  0
M  END
$$$$
