
     RDKit          3D

 25 28  0  0  0  0  0  0  0  0999 V2000
    1.5162    1.5473    5.9113 C   0  0  0  0  0  0  0  0  0  0  0  0
    0.9024    2.7472    5.6414 C   0  0  0  0  0  0  0  0  0  0  0  0
    0.9906    3.4755    6.7160 O   0  0  0  0  0  0  0  0  0  0  0  0
    1.6207    2.8396    7.6782 C   0  0  0  0  0  0  0  0  0  0  0  0
    1.9821    1.5913    7.2141 C   0  0  0  0  0  0  0  0  0  0  0  0
    1.8901    3.3684    9.0103 C   0  0  0  0  0  0  0  0  0  0  0  0
    2.7579    2.9653    9.9420 N   0  0  0  0  0  0  0  0  0  0  0  0
    2.6493    3.7630   11.0168 N   0  0  0  0  0  0  0  0  0  0  0  0
    3.2707    3.8014   12.2054 C   0  0  0  0  0  0  0  0  0  0  0  0
    2.9398    4.7423   13.1054 N   0  0  0  0  0  0  0  0  0  0  0  0
    1.9965    5.6718   12.8761 C   0  0  0  0  0  0  0  0  0  0  0  0
    1.3845    5.6151   11.6756 N   0  0  0  0  0  0  0  0  0  0  0  0
    1.7066    4.6768   10.7637 C   0  0  0  0  0  0  0  0  0  0  0  0
    1.2506    4.4244    9.5339 N   0  0  0  0  0  0  0  0  0  0  0  0
    1.6699    6.6541   13.8500 N   0  0  0  0  0  0  0  0  0  0  0  0
    1.1384    7.9309   13.4490 C   0  0  0  0  0  0  0  0  0  0  0  0
    2.1816    8.9801   13.6272 C   0  0  0  0  0  0  0  0  0  0  0  0
    1.7183   10.3324   13.2249 C   0  0  0  0  0  0  0  0  0  0  0  0
    2.5049   11.4583   13.3502 C   0  0  0  0  0  0  0  0  0  0  0  0
    2.0690   12.7126   12.9746 C   0  0  0  0  0  0  0  0  0  0  0  0
    0.8058   12.8931   12.4493 C   0  0  0  0  0  0  0  0  0  0  0  0
    0.0110   11.7733   12.3198 C   0  0  0  0  0  0  0  0  0  0  0  0
    0.4516   10.5138   12.6980 C   0  0  0  0  0  0  0  0  0  0  0  0
    0.3513   14.1559   12.0650 O   0  0  0  0  0  0  0  0  0  0  0  0
    4.2681    2.8707   12.5308 N   0  0  0  0  0  0  0  0  0  0  0  0
  1  2  2  0
  2  3  1  0
  3  4  1  0
  4  5  2  0
  4  6  1  0
  6  7  2  0
  7  8  1  0
  8  9  1  0
  9 10  2  0
 10 11  1  0
 11 12  2  0
 12 13  1  0
 13 14  2  0
 11 15  1  0
 15 16  1  0
 16 17  1  0
 17 18  1  0
 18 19  2  0
 19 20  1  0
 20 21  2  0
 21 22  1  0
 22 23  2  0
 21 24  1  0
  9 25  1  0
  5  1  1  0
 14  6  1  0
 13  8  1  0
 23 18  1  0
M  END
$$$$
