
     RDKit          3D

 25 28  0  0  0  0  0  0  0  0999 V2000
    2.0541    0.0808    6.7347 C   0  0  0  0  0  0  0  0  0  0  0  0
    0.7743    0.5434    6.5411 C   0  0  0  0  0  0  0  0  0  0  0  0
    0.5768    1.5013    7.3993 O   0  0  0  0  0  0  0  0  0  0  0  0
    1.6383    1.7040    8.1473 C   0  0  0  0  0  0  0  0  0  0  0  0
    2.6213    0.8155    7.7618 C   0  0  0  0  0  0  0  0  0  0  0  0
    1.7530    2.7012    9.2051 C   0  0  0  0  0  0  0  0  0  0  0  0
    0.8841    3.6268    9.6195 N   0  0  0  0  0  0  0  0  0  0  0  0
    1.4322    4.3220   10.6293 N   0  0  0  0  0  0  0  0  0  0  0  0
    1.0022    5.3397   11.3907 C   0  0  0  0  0  0  0  0  0  0  0  0
    1.7964    5.8411   12.3513 N   0  0  0  0  0  0  0  0  0  0  0  0
    3.0298    5.3682   12.5990 C   0  0  0  0  0  0  0  0  0  0  0  0
    3.4421    4.3455   11.8224 N   0  0  0  0  0  0  0  0  0  0  0  0
    2.6559    3.8330   10.8555 C   0  0  0  0  0  0  0  0  0  0  0  0
    2.8396    2.8427    9.9781 N   0  0  0  0  0  0  0  0  0  0  0  0
    3.8451    5.9213   13.6233 N   0  0  0  0  0  0  0  0  0  0  0  0
    3.2787    6.8035   14.6104 C   0  0  0  0  0  0  0  0  0  0  0  0
    3.1537    8.1735   14.0374 C   0  0  0  0  0  0  0  0  0  0  0  0
    2.7112    9.1808   15.0347 C   0  0  0  0  0  0  0  0  0  0  0  0
    3.1517    9.1800   16.3417 C   0  0  0  0  0  0  0  0  0  0  0  0
    2.7370   10.1188   17.2641 C   0  0  0  0  0  0  0  0  0  0  0  0
    1.8491   11.1136   16.9089 C   0  0  0  0  0  0  0  0  0  0  0  0
    1.4025   11.1234   15.6039 C   0  0  0  0  0  0  0  0  0  0  0  0
    1.8208   10.1786   14.6787 C   0  0  0  0  0  0  0  0  0  0  0  0
    1.4208   12.0700   17.8312 O   0  0  0  0  0  0  0  0  0  0  0  0
   -0.2712    5.8962   11.2027 N   0  0  0  0  0  0  0  0  0  0  0  0
  1  2  2  0
  2  3  1  0
  3  4  1  0
  4  5  2  0
  4  6  1  0
  6  7  2  0
  7  8  1  0
  8  9  1  0
  9 10  2  0
 10 11  1  0
 11 12  2  0
 12 13  1  0
 13 14  2  0
 11 15  1  0
 15 16  1  0
 16 17  1  0
 17 18  1  0
 18 19  2  0
 19 20  1  0
 20 21  2  0
 21 22  1  0
 22 23  2  0
 21 24  1  0
  9 25  1  0
  5  1  1  0
 14  6  1  0
 13  8  1  0
 23 18  1  0
M  END
$$$$
