
     RDKit          3D

 25 28  0  0  0  0  0  0  0  0999 V2000
    2.0995    0.1347    6.4598 C   0  0  0  0  0  0  0  0  0  0  0  0
    3.3302   -0.1883    6.9796 C   0  0  0  0  0  0  0  0  0  0  0  0
    3.5425    0.6048    7.9890 O   0  0  0  0  0  0  0  0  0  0  0  0
    2.5364    1.4303    8.1725 C   0  0  0  0  0  0  0  0  0  0  0  0
    1.5777    1.1714    7.2144 C   0  0  0  0  0  0  0  0  0  0  0  0
    2.4522    2.4470    9.2147 C   0  0  0  0  0  0  0  0  0  0  0  0
    3.1534    2.5903   10.3422 N   0  0  0  0  0  0  0  0  0  0  0  0
    2.7207    3.6831   10.9918 N   0  0  0  0  0  0  0  0  0  0  0  0
    3.0719    4.2719   12.1452 C   0  0  0  0  0  0  0  0  0  0  0  0
    2.4411    5.3874   12.5483 N   0  0  0  0  0  0  0  0  0  0  0  0
    1.4520    5.9620   11.8426 C   0  0  0  0  0  0  0  0  0  0  0  0
    1.1149    5.3541   10.6868 N   0  0  0  0  0  0  0  0  0  0  0  0
    1.7393    4.2349   10.2706 C   0  0  0  0  0  0  0  0  0  0  0  0
    1.5851    3.4695    9.1868 N   0  0  0  0  0  0  0  0  0  0  0  0
    0.8048    7.1427   12.2972 N   0  0  0  0  0  0  0  0  0  0  0  0
    0.9849    7.5985   13.6513 C   0  0  0  0  0  0  0  0  0  0  0  0
    2.1998    8.4582   13.7273 C   0  0  0  0  0  0  0  0  0  0  0  0
    2.7938    8.5032   15.0875 C   0  0  0  0  0  0  0  0  0  0  0  0
    2.0678    8.8506   16.2076 C   0  0  0  0  0  0  0  0  0  0  0  0
    2.6253    8.8907   17.4692 C   0  0  0  0  0  0  0  0  0  0  0  0
    3.9554    8.5790   17.6637 C   0  0  0  0  0  0  0  0  0  0  0  0
    4.6905    8.2302   16.5499 C   0  0  0  0  0  0  0  0  0  0  0  0
    4.1277    8.1907   15.2829 C   0  0  0  0  0  0  0  0  0  0  0  0
    4.5330    8.6152   18.9341 O   0  0  0  0  0  0  0  0  0  0  0  0
    4.0936    3.7417   12.9463 N   0  0  0  0  0  0  0  0  0  0  0  0
  1  2  2  0
  2  3  1  0
  3  4  1  0
  4  5  2  0
  4  6  1  0
  6  7  2  0
  7  8  1  0
  8  9  1  0
  9 10  2  0
 10 11  1  0
 11 12  2  0
 12 13  1  0
 13 14  2  0
 11 15  1  0
 15 16  1  0
 16 17  1  0
 17 18  1  0
 18 19  2  0
 19 20  1  0
 20 21  2  0
 21 22  1  0
 22 23  2  0
 21 24  1  0
  9 25  1  0
  5  1  1  0
 14  6  1  0
 13  8  1  0
 23 18  1  0
M  END
$$$$
