
     RDKit          3D

 25 28  0  0  0  0  0  0  0  0999 V2000
    0.9968    1.5082    6.9847 C   0  0  0  0  0  0  0  0  0  0  0  0
    2.1787    0.8761    7.2892 C   0  0  0  0  0  0  0  0  0  0  0  0
    2.6439    1.4288    8.3714 O   0  0  0  0  0  0  0  0  0  0  0  0
    1.8505    2.3833    8.8036 C   0  0  0  0  0  0  0  0  0  0  0  0
    0.7726    2.4778    7.9471 C   0  0  0  0  0  0  0  0  0  0  0  0
    2.0758    3.2020    9.9893 C   0  0  0  0  0  0  0  0  0  0  0  0
    3.0318    3.1333   10.9192 N   0  0  0  0  0  0  0  0  0  0  0  0
    2.8304    4.1016   11.8276 N   0  0  0  0  0  0  0  0  0  0  0  0
    3.4792    4.4725   12.9419 C   0  0  0  0  0  0  0  0  0  0  0  0
    3.0286    5.5098   13.6670 N   0  0  0  0  0  0  0  0  0  0  0  0
    1.9355    6.2156   13.3299 C   0  0  0  0  0  0  0  0  0  0  0  0
    1.2987    5.8261   12.2067 N   0  0  0  0  0  0  0  0  0  0  0  0
    1.7397    4.7876   11.4701 C   0  0  0  0  0  0  0  0  0  0  0  0
    1.2882    4.2274   10.3448 N   0  0  0  0  0  0  0  0  0  0  0  0
    1.4849    7.3083   14.1191 N   0  0  0  0  0  0  0  0  0  0  0  0
    0.5151    8.2354   13.5961 C   0  0  0  0  0  0  0  0  0  0  0  0
    1.2086    9.4722   13.1380 C   0  0  0  0  0  0  0  0  0  0  0  0
    0.4974   10.1591   12.0301 C   0  0  0  0  0  0  0  0  0  0  0  0
    1.0257   11.2455   11.3646 C   0  0  0  0  0  0  0  0  0  0  0  0
    0.3600   11.8798   10.3356 C   0  0  0  0  0  0  0  0  0  0  0  0
   -0.8831   11.4444    9.9244 C   0  0  0  0  0  0  0  0  0  0  0  0
   -1.4204   10.3584   10.5835 C   0  0  0  0  0  0  0  0  0  0  0  0
   -0.7493    9.7226   11.6174 C   0  0  0  0  0  0  0  0  0  0  0  0
   -1.5682   12.0761    8.8850 O   0  0  0  0  0  0  0  0  0  0  0  0
    4.6292    3.7932   13.3696 N   0  0  0  0  0  0  0  0  0  0  0  0
  1  2  2  0
  2  3  1  0
  3  4  1  0
  4  5  2  0
  4  6  1  0
  6  7  2  0
  7  8  1  0
  8  9  1  0
  9 10  2  0
 10 11  1  0
 11 12  2  0
 12 13  1  0
 13 14  2  0
 11 15  1  0
 15 16  1  0
 16 17  1  0
 17 18  1  0
 18 19  2  0
 19 20  1  0
 20 21  2  0
 21 22  1  0
 22 23  2  0
 21 24  1  0
  9 25  1  0
  5  1  1  0
 14  6  1  0
 13  8  1  0
 23 18  1  0
M  END
$$$$
