
     RDKit          3D

 25 28  0  0  0  0  0  0  0  0999 V2000
    1.5517   -0.0840    7.0256 C   0  0  0  0  0  0  0  0  0  0  0  0
    2.7827   -0.4413    7.5221 C   0  0  0  0  0  0  0  0  0  0  0  0
    3.0891    0.4192    8.4487 O   0  0  0  0  0  0  0  0  0  0  0  0
    2.1452    1.3212    8.5992 C   0  0  0  0  0  0  0  0  0  0  0  0
    1.1296    1.0449    7.7067 C   0  0  0  0  0  0  0  0  0  0  0  0
    2.1713    2.4261    9.5507 C   0  0  0  0  0  0  0  0  0  0  0  0
    2.9915    2.6645   10.5774 N   0  0  0  0  0  0  0  0  0  0  0  0
    2.6277    3.8125   11.1718 N   0  0  0  0  0  0  0  0  0  0  0  0
    3.1008    4.4987   12.2233 C   0  0  0  0  0  0  0  0  0  0  0  0
    2.5130    5.6486   12.5934 N   0  0  0  0  0  0  0  0  0  0  0  0
    1.4498    6.1639   11.9527 C   0  0  0  0  0  0  0  0  0  0  0  0
    0.9906    5.4584   10.8989 N   0  0  0  0  0  0  0  0  0  0  0  0
    1.5705    4.3037   10.5169 C   0  0  0  0  0  0  0  0  0  0  0  0
    1.3018    3.4466    9.5283 N   0  0  0  0  0  0  0  0  0  0  0  0
    0.8510    7.3835   12.3699 N   0  0  0  0  0  0  0  0  0  0  0  0
    1.5023    8.2205   13.3440 C   0  0  0  0  0  0  0  0  0  0  0  0
    1.1004    7.7921   14.7135 C   0  0  0  0  0  0  0  0  0  0  0  0
    1.9508    8.3821   15.7783 C   0  0  0  0  0  0  0  0  0  0  0  0
    3.0296    7.7188   16.3247 C   0  0  0  0  0  0  0  0  0  0  0  0
    3.8164    8.2722   17.3142 C   0  0  0  0  0  0  0  0  0  0  0  0
    3.5500    9.5340   17.8050 C   0  0  0  0  0  0  0  0  0  0  0  0
    2.4732   10.2060   17.2652 C   0  0  0  0  0  0  0  0  0  0  0  0
    1.6840    9.6475   16.2708 C   0  0  0  0  0  0  0  0  0  0  0  0
    4.3372   10.1065   18.8057 O   0  0  0  0  0  0  0  0  0  0  0  0
    4.2067    4.0359   12.9510 N   0  0  0  0  0  0  0  0  0  0  0  0
  1  2  2  0
  2  3  1  0
  3  4  1  0
  4  5  2  0
  4  6  1  0
  6  7  2  0
  7  8  1  0
  8  9  1  0
  9 10  2  0
 10 11  1  0
 11 12  2  0
 12 13  1  0
 13 14  2  0
 11 15  1  0
 15 16  1  0
 16 17  1  0
 17 18  1  0
 18 19  2  0
 19 20  1  0
 20 21  2  0
 21 22  1  0
 22 23  2  0
 21 24  1  0
  9 25  1  0
  5  1  1  0
 14  6  1  0
 13  8  1  0
 23 18  1  0
M  END
$$$$
