
     RDKit          3D

 25 28  0  0  0  0  0  0  0  0999 V2000
    2.2772   -0.1710    6.7368 C   0  0  0  0  0  0  0  0  0  0  0  0
    1.2306    0.5656    6.2353 C   0  0  0  0  0  0  0  0  0  0  0  0
    1.0666    1.5882    7.0229 O   0  0  0  0  0  0  0  0  0  0  0  0
    1.9330    1.5784    8.0112 C   0  0  0  0  0  0  0  0  0  0  0  0
    2.7383    0.4660    7.8761 C   0  0  0  0  0  0  0  0  0  0  0  0
    2.0238    2.5773    9.0698 C   0  0  0  0  0  0  0  0  0  0  0  0
    2.8703    2.6734   10.0983 N   0  0  0  0  0  0  0  0  0  0  0  0
    2.5680    3.7686   10.8142 N   0  0  0  0  0  0  0  0  0  0  0  0
    3.0881    4.3220   11.9203 C   0  0  0  0  0  0  0  0  0  0  0  0
    2.5585    5.4518   12.4181 N   0  0  0  0  0  0  0  0  0  0  0  0
    1.5091    6.0754   11.8555 C   0  0  0  0  0  0  0  0  0  0  0  0
    1.0018    5.5025   10.7449 N   0  0  0  0  0  0  0  0  0  0  0  0
    1.5233    4.3695   10.2350 C   0  0  0  0  0  0  0  0  0  0  0  0
    1.2005    3.6311    9.1698 N   0  0  0  0  0  0  0  0  0  0  0  0
    0.9723    7.2700   12.4074 N   0  0  0  0  0  0  0  0  0  0  0  0
    1.7096    8.0127   13.3964 C   0  0  0  0  0  0  0  0  0  0  0  0
    1.4313    7.4502   14.7480 C   0  0  0  0  0  0  0  0  0  0  0  0
    2.3618    7.9555   15.7891 C   0  0  0  0  0  0  0  0  0  0  0  0
    1.9271    8.5927   16.9324 C   0  0  0  0  0  0  0  0  0  0  0  0
    2.7967    9.0602   17.8966 C   0  0  0  0  0  0  0  0  0  0  0  0
    4.1603    8.9058   17.7522 C   0  0  0  0  0  0  0  0  0  0  0  0
    4.6055    8.2697   16.6122 C   0  0  0  0  0  0  0  0  0  0  0  0
    3.7294    7.8008   15.6447 C   0  0  0  0  0  0  0  0  0  0  0  0
    5.0519    9.3736   18.7192 O   0  0  0  0  0  0  0  0  0  0  0  0
    4.1839    3.7398   12.5739 N   0  0  0  0  0  0  0  0  0  0  0  0
  1  2  2  0
  2  3  1  0
  3  4  1  0
  4  5  2  0
  4  6  1  0
  6  7  2  0
  7  8  1  0
  8  9  1  0
  9 10  2  0
 10 11  1  0
 11 12  2  0
 12 13  1  0
 13 14  2  0
 11 15  1  0
 15 16  1  0
 16 17  1  0
 17 18  1  0
 18 19  2  0
 19 20  1  0
 20 21  2  0
 21 22  1  0
 22 23  2  0
 21 24  1  0
  9 25  1  0
  5  1  1  0
 14  6  1  0
 13  8  1  0
 23 18  1  0
M  END
$$$$
