
     RDKit          3D

 25 28  0  0  0  0  0  0  0  0999 V2000
    1.4664    0.3384    6.5362 C   0  0  0  0  0  0  0  0  0  0  0  0
    2.7526   -0.0001    6.8832 C   0  0  0  0  0  0  0  0  0  0  0  0
    3.1096    0.7875    7.8553 O   0  0  0  0  0  0  0  0  0  0  0  0
    2.1477    1.6240    8.1752 C   0  0  0  0  0  0  0  0  0  0  0  0
    1.0644    1.3789    7.3562 C   0  0  0  0  0  0  0  0  0  0  0  0
    2.2181    2.6385    9.2204 C   0  0  0  0  0  0  0  0  0  0  0  0
    3.0944    2.7957   10.2159 N   0  0  0  0  0  0  0  0  0  0  0  0
    2.7544    3.8794   10.9324 N   0  0  0  0  0  0  0  0  0  0  0  0
    3.2810    4.4749   12.0133 C   0  0  0  0  0  0  0  0  0  0  0  0
    2.7042    5.5773   12.5199 N   0  0  0  0  0  0  0  0  0  0  0  0
    1.6001    6.1319   11.9909 C   0  0  0  0  0  0  0  0  0  0  0  0
    1.0873    5.5177   10.9052 N   0  0  0  0  0  0  0  0  0  0  0  0
    1.6556    4.4114   10.3868 C   0  0  0  0  0  0  0  0  0  0  0  0
    1.3383    3.6432    9.3412 N   0  0  0  0  0  0  0  0  0  0  0  0
    1.0143    7.2993   12.5513 N   0  0  0  0  0  0  0  0  0  0  0  0
    1.7458    8.1004   13.4982 C   0  0  0  0  0  0  0  0  0  0  0  0
    2.2083    7.2393   14.6231 C   0  0  0  0  0  0  0  0  0  0  0  0
    2.7032    8.0201   15.7852 C   0  0  0  0  0  0  0  0  0  0  0  0
    2.6701    7.5375   17.0768 C   0  0  0  0  0  0  0  0  0  0  0  0
    3.1315    8.2678   18.1529 C   0  0  0  0  0  0  0  0  0  0  0  0
    3.6538    9.5327   17.9761 C   0  0  0  0  0  0  0  0  0  0  0  0
    3.6914   10.0247   16.6881 C   0  0  0  0  0  0  0  0  0  0  0  0
    3.2271    9.2887   15.6082 C   0  0  0  0  0  0  0  0  0  0  0  0
    4.1242   10.2830   19.0552 O   0  0  0  0  0  0  0  0  0  0  0  0
    4.4323    3.9653   12.6311 N   0  0  0  0  0  0  0  0  0  0  0  0
  1  2  2  0
  2  3  1  0
  3  4  1  0
  4  5  2  0
  4  6  1  0
  6  7  2  0
  7  8  1  0
  8  9  1  0
  9 10  2  0
 10 11  1  0
 11 12  2  0
 12 13  1  0
 13 14  2  0
 11 15  1  0
 15 16  1  0
 16 17  1  0
 17 18  1  0
 18 19  2  0
 19 20  1  0
 20 21  2  0
 21 22  1  0
 22 23  2  0
 21 24  1  0
  9 25  1  0
  5  1  1  0
 14  6  1  0
 13  8  1  0
 23 18  1  0
M  END
$$$$
