
     RDKit          3D

 25 28  0  0  0  0  0  0  0  0999 V2000
    1.2877   -0.1597    7.3914 C   0  0  0  0  0  0  0  0  0  0  0  0
    2.6622   -0.1720    7.3819 C   0  0  0  0  0  0  0  0  0  0  0  0
    3.0617    0.8312    8.1077 O   0  0  0  0  0  0  0  0  0  0  0  0
    2.0456    1.5063    8.5968 C   0  0  0  0  0  0  0  0  0  0  0  0
    0.8772    0.9112    8.1667 C   0  0  0  0  0  0  0  0  0  0  0  0
    2.1419    2.6852    9.4499 C   0  0  0  0  0  0  0  0  0  0  0  0
    3.2138    3.3128    9.9405 N   0  0  0  0  0  0  0  0  0  0  0  0
    2.8094    4.3585   10.6798 N   0  0  0  0  0  0  0  0  0  0  0  0
    3.4587    5.3000   11.3815 C   0  0  0  0  0  0  0  0  0  0  0  0
    2.7654    6.2451   12.0379 N   0  0  0  0  0  0  0  0  0  0  0  0
    1.4226    6.3021   12.0310 C   0  0  0  0  0  0  0  0  0  0  0  0
    0.7900    5.3466   11.3197 N   0  0  0  0  0  0  0  0  0  0  0  0
    1.4730    4.3928   10.6567 C   0  0  0  0  0  0  0  0  0  0  0  0
    1.0776    3.3645    9.9015 N   0  0  0  0  0  0  0  0  0  0  0  0
    0.7189    7.3156   12.7363 N   0  0  0  0  0  0  0  0  0  0  0  0
    1.3750    8.0768   13.7677 C   0  0  0  0  0  0  0  0  0  0  0  0
    1.1787    7.4027   15.0821 C   0  0  0  0  0  0  0  0  0  0  0  0
    2.0490    7.9534   16.1518 C   0  0  0  0  0  0  0  0  0  0  0  0
    2.9160    9.0052   15.9405 C   0  0  0  0  0  0  0  0  0  0  0  0
    3.7225    9.5128   16.9386 C   0  0  0  0  0  0  0  0  0  0  0  0
    3.6929    8.9786   18.2105 C   0  0  0  0  0  0  0  0  0  0  0  0
    2.8292    7.9264   18.4323 C   0  0  0  0  0  0  0  0  0  0  0  0
    2.0197    7.4180   17.4275 C   0  0  0  0  0  0  0  0  0  0  0  0
    4.5030    9.4819   19.2300 O   0  0  0  0  0  0  0  0  0  0  0  0
    4.8596    5.3180   11.4445 N   0  0  0  0  0  0  0  0  0  0  0  0
  1  2  2  0
  2  3  1  0
  3  4  1  0
  4  5  2  0
  4  6  1  0
  6  7  2  0
  7  8  1  0
  8  9  1  0
  9 10  2  0
 10 11  1  0
 11 12  2  0
 12 13  1  0
 13 14  2  0
 11 15  1  0
 15 16  1  0
 16 17  1  0
 17 18  1  0
 18 19  2  0
 19 20  1  0
 20 21  2  0
 21 22  1  0
 22 23  2  0
 21 24  1  0
  9 25  1  0
  5  1  1  0
 14  6  1  0
 13  8  1  0
 23 18  1  0
M  END
$$$$
