
     RDKit          3D

 25 28  0  0  0  0  0  0  0  0999 V2000
    1.7420    0.4004    6.4100 C   0  0  0  0  0  0  0  0  0  0  0  0
    2.9993    0.0875    6.8691 C   0  0  0  0  0  0  0  0  0  0  0  0
    3.2474    0.8710    7.8778 O   0  0  0  0  0  0  0  0  0  0  0  0
    2.2404    1.6809    8.1174 C   0  0  0  0  0  0  0  0  0  0  0  0
    1.2422    1.4210    7.2007 C   0  0  0  0  0  0  0  0  0  0  0  0
    2.1911    2.6836    9.1751 C   0  0  0  0  0  0  0  0  0  0  0  0
    2.9308    2.8133   10.2794 N   0  0  0  0  0  0  0  0  0  0  0  0
    2.5196    3.8968   10.9580 N   0  0  0  0  0  0  0  0  0  0  0  0
    2.9097    4.4710   12.1062 C   0  0  0  0  0  0  0  0  0  0  0  0
    2.2920    5.5801   12.5455 N   0  0  0  0  0  0  0  0  0  0  0  0
    1.2784    6.1623   11.8820 C   0  0  0  0  0  0  0  0  0  0  0  0
    0.9023    5.5691   10.7307 N   0  0  0  0  0  0  0  0  0  0  0  0
    1.5131    4.4564   10.2784 C   0  0  0  0  0  0  0  0  0  0  0  0
    1.3224    3.7050    9.1907 N   0  0  0  0  0  0  0  0  0  0  0  0
    0.6459    7.3359   12.3743 N   0  0  0  0  0  0  0  0  0  0  0  0
    0.8386    7.7509   13.7397 C   0  0  0  0  0  0  0  0  0  0  0  0
    2.1470    7.2365   14.2340 C   0  0  0  0  0  0  0  0  0  0  0  0
    2.8168    8.1674   15.1774 C   0  0  0  0  0  0  0  0  0  0  0  0
    2.1937    9.2859   15.6903 C   0  0  0  0  0  0  0  0  0  0  0  0
    2.8213   10.1475   16.5667 C   0  0  0  0  0  0  0  0  0  0  0  0
    4.1205    9.9200   16.9719 C   0  0  0  0  0  0  0  0  0  0  0  0
    4.7527    8.8039   16.4647 C   0  0  0  0  0  0  0  0  0  0  0  0
    4.1198    7.9395   15.5839 C   0  0  0  0  0  0  0  0  0  0  0  0
    4.7681   10.7828   17.8579 O   0  0  0  0  0  0  0  0  0  0  0  0
    3.9592    3.9320   12.8645 N   0  0  0  0  0  0  0  0  0  0  0  0
  1  2  2  0
  2  3  1  0
  3  4  1  0
  4  5  2  0
  4  6  1  0
  6  7  2  0
  7  8  1  0
  8  9  1  0
  9 10  2  0
 10 11  1  0
 11 12  2  0
 12 13  1  0
 13 14  2  0
 11 15  1  0
 15 16  1  0
 16 17  1  0
 17 18  1  0
 18 19  2  0
 19 20  1  0
 20 21  2  0
 21 22  1  0
 22 23  2  0
 21 24  1  0
  9 25  1  0
  5  1  1  0
 14  6  1  0
 13  8  1  0
 23 18  1  0
M  END
$$$$
