
     RDKit          3D

 25 28  0  0  0  0  0  0  0  0999 V2000
    1.6542    0.0974    6.7276 C   0  0  0  0  0  0  0  0  0  0  0  0
    2.9227   -0.2138    7.1559 C   0  0  0  0  0  0  0  0  0  0  0  0
    3.2274    0.6266    8.1013 O   0  0  0  0  0  0  0  0  0  0  0  0
    2.2473    1.4725    8.3278 C   0  0  0  0  0  0  0  0  0  0  0  0
    1.2075    1.1771    7.4700 C   0  0  0  0  0  0  0  0  0  0  0  0
    2.2611    2.5414    9.3197 C   0  0  0  0  0  0  0  0  0  0  0  0
    3.0972    2.7675   10.3363 N   0  0  0  0  0  0  0  0  0  0  0  0
    2.7118    3.8803   10.9817 N   0  0  0  0  0  0  0  0  0  0  0  0
    3.1876    4.5417   12.0478 C   0  0  0  0  0  0  0  0  0  0  0  0
    2.5731    5.6576   12.4742 N   0  0  0  0  0  0  0  0  0  0  0  0
    1.4797    6.1621   11.8773 C   0  0  0  0  0  0  0  0  0  0  0  0
    1.0182    5.4820   10.8079 N   0  0  0  0  0  0  0  0  0  0  0  0
    1.6248    4.3615   10.3696 C   0  0  0  0  0  0  0  0  0  0  0  0
    1.3599    3.5337    9.3553 N   0  0  0  0  0  0  0  0  0  0  0  0
    0.8530    7.3455   12.3537 N   0  0  0  0  0  0  0  0  0  0  0  0
    1.4882    8.1518   13.3636 C   0  0  0  0  0  0  0  0  0  0  0  0
    1.1612    7.6063   14.7113 C   0  0  0  0  0  0  0  0  0  0  0  0
    2.1895    7.9297   15.7327 C   0  0  0  0  0  0  0  0  0  0  0  0
    1.9179    7.9486   17.0848 C   0  0  0  0  0  0  0  0  0  0  0  0
    2.8777    8.2500   18.0294 C   0  0  0  0  0  0  0  0  0  0  0  0
    4.1706    8.5497   17.6517 C   0  0  0  0  0  0  0  0  0  0  0  0
    4.4527    8.5336   16.3016 C   0  0  0  0  0  0  0  0  0  0  0  0
    3.4862    8.2304   15.3542 C   0  0  0  0  0  0  0  0  0  0  0  0
    5.1519    8.8564   18.5960 O   0  0  0  0  0  0  0  0  0  0  0  0
    4.3241    4.0878   12.7327 N   0  0  0  0  0  0  0  0  0  0  0  0
  1  2  2  0
  2  3  1  0
  3  4  1  0
  4  5  2  0
  4  6  1  0
  6  7  2  0
  7  8  1  0
  8  9  1  0
  9 10  2  0
 10 11  1  0
 11 12  2  0
 12 13  1  0
 13 14  2  0
 11 15  1  0
 15 16  1  0
 16 17  1  0
 17 18  1  0
 18 19  2  0
 19 20  1  0
 20 21  2  0
 21 22  1  0
 22 23  2  0
 21 24  1  0
  9 25  1  0
  5  1  1  0
 14  6  1  0
 13  8  1  0
 23 18  1  0
M  END
$$$$
