
     RDKit          3D

 25 28  0  0  0  0  0  0  0  0999 V2000
    2.8226   10.0777   16.2039 C   0  0  0  0  0  0  0  0  0  0  0  0
    3.7899    9.2288   16.6867 C   0  0  0  0  0  0  0  0  0  0  0  0
    3.8270    8.1968   15.8952 O   0  0  0  0  0  0  0  0  0  0  0  0
    2.9505    8.3049   14.9218 C   0  0  0  0  0  0  0  0  0  0  0  0
    2.2750    9.4988   15.0718 C   0  0  0  0  0  0  0  0  0  0  0  0
    2.7324    7.3253   13.8637 C   0  0  0  0  0  0  0  0  0  0  0  0
    3.2859    6.1257   13.6677 N   0  0  0  0  0  0  0  0  0  0  0  0
    2.7711    5.5821   12.5529 N   0  0  0  0  0  0  0  0  0  0  0  0
    2.9723    4.4195   11.9139 C   0  0  0  0  0  0  0  0  0  0  0  0
    2.2919    4.1460   10.7883 N   0  0  0  0  0  0  0  0  0  0  0  0
    1.3973    4.9938   10.2521 C   0  0  0  0  0  0  0  0  0  0  0  0
    1.2104    6.1561   10.9102 N   0  0  0  0  0  0  0  0  0  0  0  0
    1.8861    6.4433   12.0401 C   0  0  0  0  0  0  0  0  0  0  0  0
    1.8721    7.5046   12.8509 N   0  0  0  0  0  0  0  0  0  0  0  0
    0.6938    4.6740    9.0594 N   0  0  0  0  0  0  0  0  0  0  0  0
    0.2896    3.3180    8.7918 C   0  0  0  0  0  0  0  0  0  0  0  0
    1.4468    2.4042    9.0074 C   0  0  0  0  0  0  0  0  0  0  0  0
    1.7309    1.5416    7.8325 C   0  0  0  0  0  0  0  0  0  0  0  0
    0.8138    1.3277    6.8248 C   0  0  0  0  0  0  0  0  0  0  0  0
    1.0835    0.5249    5.7353 C   0  0  0  0  0  0  0  0  0  0  0  0
    2.3036   -0.1070    5.6086 C   0  0  0  0  0  0  0  0  0  0  0  0
    3.2280    0.1004    6.6111 C   0  0  0  0  0  0  0  0  0  0  0  0
    2.9544    0.9077    7.7051 C   0  0  0  0  0  0  0  0  0  0  0  0
    2.5905   -0.9219    4.5120 O   0  0  0  0  0  0  0  0  0  0  0  0
    3.8871    3.4750   12.4015 N   0  0  0  0  0  0  0  0  0  0  0  0
  1  2  2  0
  2  3  1  0
  3  4  1  0
  4  5  2  0
  4  6  1  0
  6  7  2  0
  7  8  1  0
  8  9  1  0
  9 10  2  0
 10 11  1  0
 11 12  2  0
 12 13  1  0
 13 14  2  0
 11 15  1  0
 15 16  1  0
 16 17  1  0
 17 18  1  0
 18 19  2  0
 19 20  1  0
 20 21  2  0
 21 22  1  0
 22 23  2  0
 21 24  1  0
  9 25  1  0
  5  1  1  0
 14  6  1  0
 13  8  1  0
 23 18  1  0
M  END
$$$$
