
     RDKit          3D

 25 28  0  0  0  0  0  0  0  0999 V2000
    2.3336   -0.3303    7.1569 C   0  0  0  0  0  0  0  0  0  0  0  0
    1.1768    0.2359    6.6766 C   0  0  0  0  0  0  0  0  0  0  0  0
    0.9223    1.2773    7.4139 O   0  0  0  0  0  0  0  0  0  0  0  0
    1.8316    1.4388    8.3491 C   0  0  0  0  0  0  0  0  0  0  0  0
    2.7658    0.4301    8.2299 C   0  0  0  0  0  0  0  0  0  0  0  0
    1.8463    2.5059    9.3431 C   0  0  0  0  0  0  0  0  0  0  0  0
    2.6609    2.7097   10.3815 N   0  0  0  0  0  0  0  0  0  0  0  0
    2.2869    3.8311   11.0188 N   0  0  0  0  0  0  0  0  0  0  0  0
    2.7511    4.4790   12.0982 C   0  0  0  0  0  0  0  0  0  0  0  0
    2.1539    5.6095   12.5104 N   0  0  0  0  0  0  0  0  0  0  0  0
    1.0895    6.1421   11.8860 C   0  0  0  0  0  0  0  0  0  0  0  0
    0.6392    5.4751   10.8037 N   0  0  0  0  0  0  0  0  0  0  0  0
    1.2287    4.3401   10.3793 C   0  0  0  0  0  0  0  0  0  0  0  0
    0.9697    3.5205    9.3570 N   0  0  0  0  0  0  0  0  0  0  0  0
    0.4805    7.3402   12.3481 N   0  0  0  0  0  0  0  0  0  0  0  0
    1.1620    8.1886   13.2911 C   0  0  0  0  0  0  0  0  0  0  0  0
    0.8499    7.7396   14.6774 C   0  0  0  0  0  0  0  0  0  0  0  0
    1.7399    8.3487   15.6982 C   0  0  0  0  0  0  0  0  0  0  0  0
    1.4888    9.5794   16.2680 C   0  0  0  0  0  0  0  0  0  0  0  0
    2.3196   10.1405   17.2163 C   0  0  0  0  0  0  0  0  0  0  0  0
    3.4551    9.4805   17.6396 C   0  0  0  0  0  0  0  0  0  0  0  0
    3.7153    8.2488   17.0758 C   0  0  0  0  0  0  0  0  0  0  0  0
    2.8787    7.6871   16.1229 C   0  0  0  0  0  0  0  0  0  0  0  0
    4.3047   10.0357   18.5980 O   0  0  0  0  0  0  0  0  0  0  0  0
    3.8575    3.9958   12.8117 N   0  0  0  0  0  0  0  0  0  0  0  0
  1  2  2  0
  2  3  1  0
  3  4  1  0
  4  5  2  0
  4  6  1  0
  6  7  2  0
  7  8  1  0
  8  9  1  0
  9 10  2  0
 10 11  1  0
 11 12  2  0
 12 13  1  0
 13 14  2  0
 11 15  1  0
 15 16  1  0
 16 17  1  0
 17 18  1  0
 18 19  2  0
 19 20  1  0
 20 21  2  0
 21 22  1  0
 22 23  2  0
 21 24  1  0
  9 25  1  0
  5  1  1  0
 14  6  1  0
 13  8  1  0
 23 18  1  0
M  END
$$$$
