
     RDKit          3D

 25 28  0  0  0  0  0  0  0  0999 V2000
    2.7893    0.5698    6.5013 C   0  0  0  0  0  0  0  0  0  0  0  0
    1.4158    0.5918    6.4535 C   0  0  0  0  0  0  0  0  0  0  0  0
    1.0086    1.3599    7.4215 O   0  0  0  0  0  0  0  0  0  0  0  0
    2.0187    1.8476    8.1064 C   0  0  0  0  0  0  0  0  0  0  0  0
    3.1911    1.3707    7.5565 C   0  0  0  0  0  0  0  0  0  0  0  0
    1.9131    2.7418    9.2536 C   0  0  0  0  0  0  0  0  0  0  0  0
    2.6703    2.8360   10.3497 N   0  0  0  0  0  0  0  0  0  0  0  0
    2.1864    3.8124   11.1344 N   0  0  0  0  0  0  0  0  0  0  0  0
    2.5583    4.3124   12.3227 C   0  0  0  0  0  0  0  0  0  0  0  0
    1.8595    5.3175   12.8760 N   0  0  0  0  0  0  0  0  0  0  0  0
    0.7805    5.8649   12.2908 C   0  0  0  0  0  0  0  0  0  0  0  0
    0.4241    5.3476   11.0973 N   0  0  0  0  0  0  0  0  0  0  0  0
    1.1159    4.3395   10.5309 C   0  0  0  0  0  0  0  0  0  0  0  0
    0.9599    3.6760    9.3823 N   0  0  0  0  0  0  0  0  0  0  0  0
    0.0630    6.9280   12.9031 N   0  0  0  0  0  0  0  0  0  0  0  0
    0.6383    7.6588   14.0025 C   0  0  0  0  0  0  0  0  0  0  0  0
    2.0143    8.0999   13.6383 C   0  0  0  0  0  0  0  0  0  0  0  0
    2.7908    8.5971   14.8023 C   0  0  0  0  0  0  0  0  0  0  0  0
    4.0072    8.0616   15.1713 C   0  0  0  0  0  0  0  0  0  0  0  0
    4.7243    8.5278   16.2542 C   0  0  0  0  0  0  0  0  0  0  0  0
    4.2441    9.5669   17.0247 C   0  0  0  0  0  0  0  0  0  0  0  0
    3.0283   10.1095   16.6641 C   0  0  0  0  0  0  0  0  0  0  0  0
    2.3095    9.6392   15.5753 C   0  0  0  0  0  0  0  0  0  0  0  0
    4.9585   10.0489   18.1230 O   0  0  0  0  0  0  0  0  0  0  0  0
    3.6720    3.8024   13.0056 N   0  0  0  0  0  0  0  0  0  0  0  0
  1  2  2  0
  2  3  1  0
  3  4  1  0
  4  5  2  0
  4  6  1  0
  6  7  2  0
  7  8  1  0
  8  9  1  0
  9 10  2  0
 10 11  1  0
 11 12  2  0
 12 13  1  0
 13 14  2  0
 11 15  1  0
 15 16  1  0
 16 17  1  0
 17 18  1  0
 18 19  2  0
 19 20  1  0
 20 21  2  0
 21 22  1  0
 22 23  2  0
 21 24  1  0
  9 25  1  0
  5  1  1  0
 14  6  1  0
 13  8  1  0
 23 18  1  0
M  END
$$$$
