
     RDKit          3D

 25 28  0  0  0  0  0  0  0  0999 V2000
    1.4821    0.3071    6.5715 C   0  0  0  0  0  0  0  0  0  0  0  0
    2.6954   -0.1450    7.0330 C   0  0  0  0  0  0  0  0  0  0  0  0
    3.0592    0.6460    7.9999 O   0  0  0  0  0  0  0  0  0  0  0  0
    2.1696    1.5905    8.2097 C   0  0  0  0  0  0  0  0  0  0  0  0
    1.1315    1.4200    7.3165 C   0  0  0  0  0  0  0  0  0  0  0  0
    2.2676    2.6396    9.2178 C   0  0  0  0  0  0  0  0  0  0  0  0
    3.1124    2.7784   10.2428 N   0  0  0  0  0  0  0  0  0  0  0  0
    2.8190    3.9105   10.9028 N   0  0  0  0  0  0  0  0  0  0  0  0
    3.3418    4.5130   11.9817 C   0  0  0  0  0  0  0  0  0  0  0  0
    2.8220    5.6711   12.4213 N   0  0  0  0  0  0  0  0  0  0  0  0
    1.7802    6.2761   11.8255 C   0  0  0  0  0  0  0  0  0  0  0  0
    1.2701    5.6538   10.7431 N   0  0  0  0  0  0  0  0  0  0  0  0
    1.7817    4.4920   10.2914 C   0  0  0  0  0  0  0  0  0  0  0  0
    1.4544    3.7049    9.2631 N   0  0  0  0  0  0  0  0  0  0  0  0
    1.2537    7.5017   12.3160 N   0  0  0  0  0  0  0  0  0  0  0  0
    1.8838    8.1764   13.4211 C   0  0  0  0  0  0  0  0  0  0  0  0
    1.1525    7.8560   14.6794 C   0  0  0  0  0  0  0  0  0  0  0  0
    1.9081    8.2330   15.9010 C   0  0  0  0  0  0  0  0  0  0  0  0
    2.3960    7.3016   16.7935 C   0  0  0  0  0  0  0  0  0  0  0  0
    3.0976    7.6579   17.9272 C   0  0  0  0  0  0  0  0  0  0  0  0
    3.3431    8.9843   18.2179 C   0  0  0  0  0  0  0  0  0  0  0  0
    2.8593    9.9239   17.3315 C   0  0  0  0  0  0  0  0  0  0  0  0
    2.1545    9.5631   16.1928 C   0  0  0  0  0  0  0  0  0  0  0  0
    4.0512    9.3596   19.3609 O   0  0  0  0  0  0  0  0  0  0  0  0
    4.4302    3.9533   12.6665 N   0  0  0  0  0  0  0  0  0  0  0  0
  1  2  2  0
  2  3  1  0
  3  4  1  0
  4  5  2  0
  4  6  1  0
  6  7  2  0
  7  8  1  0
  8  9  1  0
  9 10  2  0
 10 11  1  0
 11 12  2  0
 12 13  1  0
 13 14  2  0
 11 15  1  0
 15 16  1  0
 16 17  1  0
 17 18  1  0
 18 19  2  0
 19 20  1  0
 20 21  2  0
 21 22  1  0
 22 23  2  0
 21 24  1  0
  9 25  1  0
  5  1  1  0
 14  6  1  0
 13  8  1  0
 23 18  1  0
M  END
$$$$
