
     RDKit          3D

 30 33  0  0  0  0  0  0  0  0999 V2000
    3.2780    0.4080   16.5059 C   0  0  0  0  0  0  0  0  0  0  0  0
    2.3996    0.2456   15.4089 O   0  0  0  0  0  0  0  0  0  0  0  0
    1.4024    1.2082   15.2308 C   0  0  0  0  0  0  0  0  0  0  0  0
    1.2772    2.2775   16.0884 C   0  0  0  0  0  0  0  0  0  0  0  0
    0.2919    3.2245   15.9088 C   0  0  0  0  0  0  0  0  0  0  0  0
   -0.5868    3.1227   14.8707 C   0  0  0  0  0  0  0  0  0  0  0  0
   -0.4536    2.0512   14.0195 C   0  0  0  0  0  0  0  0  0  0  0  0
    0.5190    1.0845   14.1672 C   0  0  0  0  0  0  0  0  0  0  0  0
    0.6321    0.0149   13.2966 O   0  0  0  0  0  0  0  0  0  0  0  0
   -0.2479    0.0010   12.1673 C   0  0  0  0  0  0  0  0  0  0  0  0
   -0.0457   -1.2440   11.3431 C   0  0  0  0  0  0  0  0  0  0  0  0
    1.0711   -1.0622   10.4677 N   0  0  0  0  0  0  0  0  0  0  0  0
    0.7568   -0.6071    9.1470 C   0  0  0  0  0  0  0  0  0  0  0  0
    0.3065   -1.8387    8.3560 C   0  0  0  0  0  0  0  0  0  0  0  0
    1.3829   -2.1973    7.3756 C   0  0  0  0  0  0  0  0  0  0  0  0
    2.4802   -2.8289    7.9728 O   0  0  0  0  0  0  0  0  0  0  0  0
    3.3986   -3.4734    7.1652 C   0  0  0  0  0  0  0  0  0  0  0  0
    3.2117   -3.6105    5.8104 C   0  0  0  0  0  0  0  0  0  0  0  0
    4.1659   -4.2648    5.0592 C   0  0  0  0  0  0  0  0  0  0  0  0
    5.2948   -4.7757    5.6612 C   0  0  0  0  0  0  0  0  0  0  0  0
    5.5060   -4.6512    7.0198 C   0  0  0  0  0  0  0  0  0  0  0  0
    4.5327   -3.9884    7.7589 C   0  0  0  0  0  0  0  0  0  0  0  0
    4.9363   -3.9736    9.0854 C   0  0  0  0  0  0  0  0  0  0  0  0
    4.3528   -3.4484   10.2457 C   0  0  0  0  0  0  0  0  0  0  0  0
    5.0203   -3.6001   11.4444 C   0  0  0  0  0  0  0  0  0  0  0  0
    6.2331   -4.2514   11.5073 C   0  0  0  0  0  0  0  0  0  0  0  0
    6.7826   -4.7587   10.3427 C   0  0  0  0  0  0  0  0  0  0  0  0
    6.1470   -4.6319    9.1037 C   0  0  0  0  0  0  0  0  0  0  0  0
    6.4797   -5.0335    7.8647 N   0  0  0  0  0  0  0  0  0  0  0  0
   -0.9126   -1.6434    7.7623 O   0  0  0  0  0  0  0  0  0  0  0  0
  1  2  1  0
  2  3  1  0
  3  4  2  0
  4  5  1  0
  5  6  2  0
  6  7  1  0
  7  8  2  0
  8  9  1  0
  9 10  1  0
 10 11  1  0
 11 12  1  0
 12 13  1  0
 13 14  1  0
 14 15  1  0
 15 16  1  0
 16 17  1  0
 17 18  2  0
 18 19  1  0
 19 20  2  0
 20 21  1  0
 21 22  2  0
 22 23  1  0
 23 24  2  0
 24 25  1  0
 25 26  2  0
 26 27  1  0
 27 28  2  0
 28 29  1  0
 14 30  1  0
  8  3  1  0
 22 17  1  0
 29 21  1  0
 28 23  1  0
M  END
$$$$
