
     RDKit          3D

 30 33  0  0  0  0  0  0  0  0999 V2000
   -4.1654    2.8343   10.1839 C   0  0  0  0  0  0  0  0  0  0  0  0
   -3.0623    2.2100   10.8122 O   0  0  0  0  0  0  0  0  0  0  0  0
   -3.0766    2.1227   12.2067 C   0  0  0  0  0  0  0  0  0  0  0  0
   -4.0999    2.6677   12.9485 C   0  0  0  0  0  0  0  0  0  0  0  0
   -4.1097    2.5792   14.3239 C   0  0  0  0  0  0  0  0  0  0  0  0
   -3.0992    1.9455   14.9852 C   0  0  0  0  0  0  0  0  0  0  0  0
   -2.0816    1.4042   14.2356 C   0  0  0  0  0  0  0  0  0  0  0  0
   -2.0376    1.4729   12.8588 C   0  0  0  0  0  0  0  0  0  0  0  0
   -1.0017    0.9200   12.1269 O   0  0  0  0  0  0  0  0  0  0  0  0
   -0.1762   -0.0414   12.7936 C   0  0  0  0  0  0  0  0  0  0  0  0
    1.0258   -0.3918   11.9554 C   0  0  0  0  0  0  0  0  0  0  0  0
    0.6401   -0.4845   10.5809 N   0  0  0  0  0  0  0  0  0  0  0  0
    1.1618   -1.6090    9.8643 C   0  0  0  0  0  0  0  0  0  0  0  0
    0.4456   -1.6354    8.5110 C   0  0  0  0  0  0  0  0  0  0  0  0
    1.3649   -2.2448    7.4952 C   0  0  0  0  0  0  0  0  0  0  0  0
    2.5622   -2.7123    8.0499 O   0  0  0  0  0  0  0  0  0  0  0  0
    3.4124   -3.4651    7.2616 C   0  0  0  0  0  0  0  0  0  0  0  0
    3.1521   -3.7126    5.9349 C   0  0  0  0  0  0  0  0  0  0  0  0
    4.0404   -4.4717    5.2018 C   0  0  0  0  0  0  0  0  0  0  0  0
    5.1771   -4.9769    5.7940 C   0  0  0  0  0  0  0  0  0  0  0  0
    5.4614   -4.7428    7.1245 C   0  0  0  0  0  0  0  0  0  0  0  0
    4.5537   -3.9753    7.8456 C   0  0  0  0  0  0  0  0  0  0  0  0
    5.0240   -3.8616    9.1451 C   0  0  0  0  0  0  0  0  0  0  0  0
    4.5211   -3.2113   10.2793 C   0  0  0  0  0  0  0  0  0  0  0  0
    5.2417   -3.2861   11.4544 C   0  0  0  0  0  0  0  0  0  0  0  0
    6.4293   -3.9821   11.5189 C   0  0  0  0  0  0  0  0  0  0  0  0
    6.8987   -4.6136   10.3803 C   0  0  0  0  0  0  0  0  0  0  0  0
    6.2070   -4.5685    9.1659 C   0  0  0  0  0  0  0  0  0  0  0  0
    6.4605   -5.0917    7.9540 N   0  0  0  0  0  0  0  0  0  0  0  0
   -0.0015   -0.3922    8.1483 O   0  0  0  0  0  0  0  0  0  0  0  0
  1  2  1  0
  2  3  1  0
  3  4  2  0
  4  5  1  0
  5  6  2  0
  6  7  1  0
  7  8  2  0
  8  9  1  0
  9 10  1  0
 10 11  1  0
 11 12  1  0
 12 13  1  0
 13 14  1  0
 14 15  1  0
 15 16  1  0
 16 17  1  0
 17 18  2  0
 18 19  1  0
 19 20  2  0
 20 21  1  0
 21 22  2  0
 22 23  1  0
 23 24  2  0
 24 25  1  0
 25 26  2  0
 26 27  1  0
 27 28  2  0
 28 29  1  0
 14 30  1  0
  8  3  1  0
 22 17  1  0
 29 21  1  0
 28 23  1  0
M  END
$$$$
