
     RDKit          3D

 30 33  0  0  0  0  0  0  0  0999 V2000
   -4.1369    3.1002   12.3214 C   0  0  0  0  0  0  0  0  0  0  0  0
   -3.0240    2.2967   12.6634 O   0  0  0  0  0  0  0  0  0  0  0  0
   -2.2032    2.7381   13.7047 C   0  0  0  0  0  0  0  0  0  0  0  0
   -2.3690    3.9821   14.2699 C   0  0  0  0  0  0  0  0  0  0  0  0
   -1.5570    4.4132   15.2967 C   0  0  0  0  0  0  0  0  0  0  0  0
   -0.5644    3.6118   15.7790 C   0  0  0  0  0  0  0  0  0  0  0  0
   -0.4067    2.3710   15.2081 C   0  0  0  0  0  0  0  0  0  0  0  0
   -1.1992    1.9054   14.1798 C   0  0  0  0  0  0  0  0  0  0  0  0
   -1.0200    0.6521   13.6217 O   0  0  0  0  0  0  0  0  0  0  0  0
    0.0538   -0.1415   14.1386 C   0  0  0  0  0  0  0  0  0  0  0  0
    0.1121   -1.4810   13.4512 C   0  0  0  0  0  0  0  0  0  0  0  0
    0.3000   -1.2899   12.0460 N   0  0  0  0  0  0  0  0  0  0  0  0
   -0.6088   -1.9986   11.1962 C   0  0  0  0  0  0  0  0  0  0  0  0
    0.2033   -3.1017   10.5113 C   0  0  0  0  0  0  0  0  0  0  0  0
    0.9420   -2.5022    9.3524 C   0  0  0  0  0  0  0  0  0  0  0  0
    1.7781   -3.4177    8.7024 O   0  0  0  0  0  0  0  0  0  0  0  0
    2.4013   -3.0345    7.5295 C   0  0  0  0  0  0  0  0  0  0  0  0
    1.8522   -2.1038    6.6800 C   0  0  0  0  0  0  0  0  0  0  0  0
    2.5240   -1.7641    5.5241 C   0  0  0  0  0  0  0  0  0  0  0  0
    3.7332   -2.3521    5.2243 C   0  0  0  0  0  0  0  0  0  0  0  0
    4.3058   -3.2894    6.0607 C   0  0  0  0  0  0  0  0  0  0  0  0
    3.6130   -3.6177    7.2205 C   0  0  0  0  0  0  0  0  0  0  0  0
    4.3543   -4.5650    7.9102 C   0  0  0  0  0  0  0  0  0  0  0  0
    4.1384   -5.2374    9.1201 C   0  0  0  0  0  0  0  0  0  0  0  0
    5.0878   -6.1437    9.5477 C   0  0  0  0  0  0  0  0  0  0  0  0
    6.2246   -6.3873    8.8079 C   0  0  0  0  0  0  0  0  0  0  0  0
    6.4078   -5.7064    7.6170 C   0  0  0  0  0  0  0  0  0  0  0  0
    5.4767   -4.7789    7.1396 C   0  0  0  0  0  0  0  0  0  0  0  0
    5.4393   -4.0123    6.0360 N   0  0  0  0  0  0  0  0  0  0  0  0
   -0.5844   -4.1631   10.1507 O   0  0  0  0  0  0  0  0  0  0  0  0
  1  2  1  0
  2  3  1  0
  3  4  2  0
  4  5  1  0
  5  6  2  0
  6  7  1  0
  7  8  2  0
  8  9  1  0
  9 10  1  0
 10 11  1  0
 11 12  1  0
 12 13  1  0
 13 14  1  0
 14 15  1  0
 15 16  1  0
 16 17  1  0
 17 18  2  0
 18 19  1  0
 19 20  2  0
 20 21  1  0
 21 22  2  0
 22 23  1  0
 23 24  2  0
 24 25  1  0
 25 26  2  0
 26 27  1  0
 27 28  2  0
 28 29  1  0
 14 30  1  0
  8  3  1  0
 22 17  1  0
 29 21  1  0
 28 23  1  0
M  END
$$$$
