
     RDKit          3D

 30 33  0  0  0  0  0  0  0  0999 V2000
   -5.2878    4.2305   13.0751 C   0  0  0  0  0  0  0  0  0  0  0  0
   -4.3186    3.2277   12.8375 O   0  0  0  0  0  0  0  0  0  0  0  0
   -3.7071    2.6428   13.9496 C   0  0  0  0  0  0  0  0  0  0  0  0
   -4.0591    2.9998   15.2314 C   0  0  0  0  0  0  0  0  0  0  0  0
   -3.4530    2.4203   16.3253 C   0  0  0  0  0  0  0  0  0  0  0  0
   -2.4847    1.4740   16.1612 C   0  0  0  0  0  0  0  0  0  0  0  0
   -2.1401    1.1240   14.8770 C   0  0  0  0  0  0  0  0  0  0  0  0
   -2.7239    1.6816   13.7588 C   0  0  0  0  0  0  0  0  0  0  0  0
   -2.3591    1.3123   12.4762 O   0  0  0  0  0  0  0  0  0  0  0  0
   -2.9040    0.0875   11.9732 C   0  0  0  0  0  0  0  0  0  0  0  0
   -2.3831   -0.2051   10.5900 C   0  0  0  0  0  0  0  0  0  0  0  0
   -0.9634   -0.0307   10.5666 N   0  0  0  0  0  0  0  0  0  0  0  0
   -0.3274   -0.2856    9.3093 C   0  0  0  0  0  0  0  0  0  0  0  0
   -0.0861   -1.7962    9.2398 C   0  0  0  0  0  0  0  0  0  0  0  0
    1.1608   -2.1171   10.0082 C   0  0  0  0  0  0  0  0  0  0  0  0
    2.2264   -2.5045    9.1871 O   0  0  0  0  0  0  0  0  0  0  0  0
    3.4065   -2.9169    9.7773 C   0  0  0  0  0  0  0  0  0  0  0  0
    3.6913   -2.6632   11.0978 C   0  0  0  0  0  0  0  0  0  0  0  0
    4.8872   -3.1013   11.6277 C   0  0  0  0  0  0  0  0  0  0  0  0
    5.7870   -3.7861   10.8408 C   0  0  0  0  0  0  0  0  0  0  0  0
    5.5248   -4.0535    9.5120 C   0  0  0  0  0  0  0  0  0  0  0  0
    4.3142   -3.6037    8.9973 C   0  0  0  0  0  0  0  0  0  0  0  0
    4.2509   -3.9734    7.6624 C   0  0  0  0  0  0  0  0  0  0  0  0
    3.2764   -3.7845    6.6739 C   0  0  0  0  0  0  0  0  0  0  0  0
    3.5160   -4.2844    5.4097 C   0  0  0  0  0  0  0  0  0  0  0  0
    4.6839   -4.9552    5.1182 C   0  0  0  0  0  0  0  0  0  0  0  0
    5.6265   -5.1250    6.1173 C   0  0  0  0  0  0  0  0  0  0  0  0
    5.4324   -4.6379    7.4135 C   0  0  0  0  0  0  0  0  0  0  0  0
    6.1877   -4.6810    8.5246 N   0  0  0  0  0  0  0  0  0  0  0  0
   -0.0464   -2.2455    7.9462 O   0  0  0  0  0  0  0  0  0  0  0  0
  1  2  1  0
  2  3  1  0
  3  4  2  0
  4  5  1  0
  5  6  2  0
  6  7  1  0
  7  8  2  0
  8  9  1  0
  9 10  1  0
 10 11  1  0
 11 12  1  0
 12 13  1  0
 13 14  1  0
 14 15  1  0
 15 16  1  0
 16 17  1  0
 17 18  2  0
 18 19  1  0
 19 20  2  0
 20 21  1  0
 21 22  2  0
 22 23  1  0
 23 24  2  0
 24 25  1  0
 25 26  2  0
 26 27  1  0
 27 28  2  0
 28 29  1  0
 14 30  1  0
  8  3  1  0
 22 17  1  0
 29 21  1  0
 28 23  1  0
M  END
$$$$
