
     RDKit          3D

 30 33  0  0  0  0  0  0  0  0999 V2000
    1.9759   -5.3188   13.0153 C   0  0  0  0  0  0  0  0  0  0  0  0
    1.7761   -3.9378   12.7824 O   0  0  0  0  0  0  0  0  0  0  0  0
    2.6405   -3.0429   13.4184 C   0  0  0  0  0  0  0  0  0  0  0  0
    3.6107   -3.4811   14.2908 C   0  0  0  0  0  0  0  0  0  0  0  0
    4.4611   -2.5947   14.9160 C   0  0  0  0  0  0  0  0  0  0  0  0
    4.3598   -1.2548   14.6828 C   0  0  0  0  0  0  0  0  0  0  0  0
    3.3877   -0.8268   13.8097 C   0  0  0  0  0  0  0  0  0  0  0  0
    2.5192   -1.6833   13.1659 C   0  0  0  0  0  0  0  0  0  0  0  0
    1.5487   -1.2274   12.2914 O   0  0  0  0  0  0  0  0  0  0  0  0
    1.7486    0.0691   11.7179 C   0  0  0  0  0  0  0  0  0  0  0  0
    0.5859    0.4543   10.8405 C   0  0  0  0  0  0  0  0  0  0  0  0
    0.3616   -0.5693    9.8667 N   0  0  0  0  0  0  0  0  0  0  0  0
    1.1094   -0.4449    8.6519 C   0  0  0  0  0  0  0  0  0  0  0  0
    0.5049   -1.4451    7.6622 C   0  0  0  0  0  0  0  0  0  0  0  0
    1.5888   -1.9225    6.7427 C   0  0  0  0  0  0  0  0  0  0  0  0
    2.7104   -2.4101    7.4238 O   0  0  0  0  0  0  0  0  0  0  0  0
    3.5897   -3.2385    6.7519 C   0  0  0  0  0  0  0  0  0  0  0  0
    3.4110   -3.5780    5.4320 C   0  0  0  0  0  0  0  0  0  0  0  0
    4.3245   -4.4095    4.8182 C   0  0  0  0  0  0  0  0  0  0  0  0
    5.4051   -4.8950    5.5214 C   0  0  0  0  0  0  0  0  0  0  0  0
    5.6071   -4.5691    6.8476 C   0  0  0  0  0  0  0  0  0  0  0  0
    4.6753   -3.7297    7.4477 C   0  0  0  0  0  0  0  0  0  0  0  0
    5.0616   -3.5304    8.7644 C   0  0  0  0  0  0  0  0  0  0  0  0
    4.5030   -2.7863    9.8116 C   0  0  0  0  0  0  0  0  0  0  0  0
    5.1420   -2.7899   11.0353 C   0  0  0  0  0  0  0  0  0  0  0  0
    6.3030   -3.5060   11.2308 C   0  0  0  0  0  0  0  0  0  0  0  0
    6.8290   -4.2309   10.1756 C   0  0  0  0  0  0  0  0  0  0  0  0
    6.2206   -4.2605    8.9170 C   0  0  0  0  0  0  0  0  0  0  0  0
    6.5392   -4.8780    7.7663 N   0  0  0  0  0  0  0  0  0  0  0  0
   -0.5666   -0.9140    6.9937 O   0  0  0  0  0  0  0  0  0  0  0  0
  1  2  1  0
  2  3  1  0
  3  4  2  0
  4  5  1  0
  5  6  2  0
  6  7  1  0
  7  8  2  0
  8  9  1  0
  9 10  1  0
 10 11  1  0
 11 12  1  0
 12 13  1  0
 13 14  1  0
 14 15  1  0
 15 16  1  0
 16 17  1  0
 17 18  2  0
 18 19  1  0
 19 20  2  0
 20 21  1  0
 21 22  2  0
 22 23  1  0
 23 24  2  0
 24 25  1  0
 25 26  2  0
 26 27  1  0
 27 28  2  0
 28 29  1  0
 14 30  1  0
  8  3  1  0
 22 17  1  0
 29 21  1  0
 28 23  1  0
M  END
$$$$
