
     RDKit          3D

 30 33  0  0  0  0  0  0  0  0999 V2000
   -4.3701    3.6163   11.1367 C   0  0  0  0  0  0  0  0  0  0  0  0
   -3.4734    2.6787   11.7007 O   0  0  0  0  0  0  0  0  0  0  0  0
   -3.4550    2.5579   13.0928 C   0  0  0  0  0  0  0  0  0  0  0  0
   -4.1059    3.4636   13.8994 C   0  0  0  0  0  0  0  0  0  0  0  0
   -4.0849    3.3405   15.2720 C   0  0  0  0  0  0  0  0  0  0  0  0
   -3.4146    2.3119   15.8658 C   0  0  0  0  0  0  0  0  0  0  0  0
   -2.7676    1.4124   15.0518 C   0  0  0  0  0  0  0  0  0  0  0  0
   -2.7663    1.5029   13.6755 C   0  0  0  0  0  0  0  0  0  0  0  0
   -2.1070    0.5844   12.8779 O   0  0  0  0  0  0  0  0  0  0  0  0
   -1.3258   -0.4127   13.5454 C   0  0  0  0  0  0  0  0  0  0  0  0
   -0.9502   -1.5240   12.5997 C   0  0  0  0  0  0  0  0  0  0  0  0
   -1.1035   -1.0757   11.2498 N   0  0  0  0  0  0  0  0  0  0  0  0
    0.0906   -0.6110   10.6108 C   0  0  0  0  0  0  0  0  0  0  0  0
    0.2202   -1.3964    9.3025 C   0  0  0  0  0  0  0  0  0  0  0  0
    0.8875   -2.7067    9.5955 C   0  0  0  0  0  0  0  0  0  0  0  0
    1.9009   -3.0222    8.6828 O   0  0  0  0  0  0  0  0  0  0  0  0
    2.5202   -4.2546    8.7745 C   0  0  0  0  0  0  0  0  0  0  0  0
    1.8980   -5.3460    9.3323 C   0  0  0  0  0  0  0  0  0  0  0  0
    2.5702   -6.5489    9.3945 C   0  0  0  0  0  0  0  0  0  0  0  0
    3.8526   -6.6550    8.9026 C   0  0  0  0  0  0  0  0  0  0  0  0
    4.4995   -5.5741    8.3377 C   0  0  0  0  0  0  0  0  0  0  0  0
    3.8048   -4.3710    8.2844 C   0  0  0  0  0  0  0  0  0  0  0  0
    4.6255   -3.4271    7.6859 C   0  0  0  0  0  0  0  0  0  0  0  0
    4.4425   -2.0721    7.3810 C   0  0  0  0  0  0  0  0  0  0  0  0
    5.4750   -1.3901    6.7692 C   0  0  0  0  0  0  0  0  0  0  0  0
    6.6616   -2.0199    6.4617 C   0  0  0  0  0  0  0  0  0  0  0  0
    6.8104   -3.3595    6.7763 C   0  0  0  0  0  0  0  0  0  0  0  0
    5.7956   -4.0951    7.3961 C   0  0  0  0  0  0  0  0  0  0  0  0
    5.7115   -5.3778    7.7892 N   0  0  0  0  0  0  0  0  0  0  0  0
    0.8679   -0.6718    8.3369 O   0  0  0  0  0  0  0  0  0  0  0  0
  1  2  1  0
  2  3  1  0
  3  4  2  0
  4  5  1  0
  5  6  2  0
  6  7  1  0
  7  8  2  0
  8  9  1  0
  9 10  1  0
 10 11  1  0
 11 12  1  0
 12 13  1  0
 13 14  1  0
 14 15  1  0
 15 16  1  0
 16 17  1  0
 17 18  2  0
 18 19  1  0
 19 20  2  0
 20 21  1  0
 21 22  2  0
 22 23  1  0
 23 24  2  0
 24 25  1  0
 25 26  2  0
 26 27  1  0
 27 28  2  0
 28 29  1  0
 14 30  1  0
  8  3  1  0
 22 17  1  0
 29 21  1  0
 28 23  1  0
M  END
$$$$
