
     RDKit          3D

 30 33  0  0  0  0  0  0  0  0999 V2000
    3.7294   -1.4079   14.0899 C   0  0  0  0  0  0  0  0  0  0  0  0
    2.4198   -1.2255   13.5870 O   0  0  0  0  0  0  0  0  0  0  0  0
    1.7018   -0.1156   14.0401 C   0  0  0  0  0  0  0  0  0  0  0  0
    2.2109    0.7214   15.0069 C   0  0  0  0  0  0  0  0  0  0  0  0
    1.4989    1.8149   15.4509 C   0  0  0  0  0  0  0  0  0  0  0  0
    0.2660    2.0941   14.9390 C   0  0  0  0  0  0  0  0  0  0  0  0
   -0.2340    1.2522   13.9737 C   0  0  0  0  0  0  0  0  0  0  0  0
    0.4486    0.1493   13.5049 C   0  0  0  0  0  0  0  0  0  0  0  0
   -0.0767   -0.6830   12.5324 O   0  0  0  0  0  0  0  0  0  0  0  0
   -1.3826   -0.3633   12.0401 C   0  0  0  0  0  0  0  0  0  0  0  0
   -1.8028   -1.3292   10.9628 C   0  0  0  0  0  0  0  0  0  0  0  0
   -0.7199   -1.5278   10.0494 N   0  0  0  0  0  0  0  0  0  0  0  0
   -0.6267   -0.5787    8.9814 C   0  0  0  0  0  0  0  0  0  0  0  0
    0.5053   -1.0581    8.0681 C   0  0  0  0  0  0  0  0  0  0  0  0
    1.7723   -1.1171    8.8677 C   0  0  0  0  0  0  0  0  0  0  0  0
    2.6563   -2.1070    8.4222 O   0  0  0  0  0  0  0  0  0  0  0  0
    3.7327   -2.4471    9.2201 C   0  0  0  0  0  0  0  0  0  0  0  0
    3.9207   -1.8996   10.4668 C   0  0  0  0  0  0  0  0  0  0  0  0
    5.0157   -2.2803   11.2143 C   0  0  0  0  0  0  0  0  0  0  0  0
    5.9119   -3.2003   10.7159 C   0  0  0  0  0  0  0  0  0  0  0  0
    5.7457   -3.7647    9.4670 C   0  0  0  0  0  0  0  0  0  0  0  0
    4.6358   -3.3678    8.7298 C   0  0  0  0  0  0  0  0  0  0  0  0
    4.6575   -4.0472    7.5212 C   0  0  0  0  0  0  0  0  0  0  0  0
    3.7989   -4.0355    6.4142 C   0  0  0  0  0  0  0  0  0  0  0  0
    4.1017   -4.8455    5.3382 C   0  0  0  0  0  0  0  0  0  0  0  0
    5.2203   -5.6502    5.3445 C   0  0  0  0  0  0  0  0  0  0  0  0
    6.0481   -5.6384    6.4536 C   0  0  0  0  0  0  0  0  0  0  0  0
    5.7864   -4.8363    7.5686 C   0  0  0  0  0  0  0  0  0  0  0  0
    6.4307   -4.6611    8.7352 N   0  0  0  0  0  0  0  0  0  0  0  0
    0.6178   -0.2793    6.9466 O   0  0  0  0  0  0  0  0  0  0  0  0
  1  2  1  0
  2  3  1  0
  3  4  2  0
  4  5  1  0
  5  6  2  0
  6  7  1  0
  7  8  2  0
  8  9  1  0
  9 10  1  0
 10 11  1  0
 11 12  1  0
 12 13  1  0
 13 14  1  0
 14 15  1  0
 15 16  1  0
 16 17  1  0
 17 18  2  0
 18 19  1  0
 19 20  2  0
 20 21  1  0
 21 22  2  0
 22 23  1  0
 23 24  2  0
 24 25  1  0
 25 26  2  0
 26 27  1  0
 27 28  2  0
 28 29  1  0
 14 30  1  0
  8  3  1  0
 22 17  1  0
 29 21  1  0
 28 23  1  0
M  END
$$$$
