
     RDKit          3D

 30 33  0  0  0  0  0  0  0  0999 V2000
   -2.8540   -1.0916   13.9813 C   0  0  0  0  0  0  0  0  0  0  0  0
   -1.5673   -0.7131   13.5316 O   0  0  0  0  0  0  0  0  0  0  0  0
   -0.9936    0.4278   14.0988 C   0  0  0  0  0  0  0  0  0  0  0  0
   -1.6208    1.1176   15.1113 C   0  0  0  0  0  0  0  0  0  0  0  0
   -1.0512    2.2426   15.6677 C   0  0  0  0  0  0  0  0  0  0  0  0
    0.1546    2.7007   15.2247 C   0  0  0  0  0  0  0  0  0  0  0  0
    0.7734    2.0049   14.2131 C   0  0  0  0  0  0  0  0  0  0  0  0
    0.2346    0.8760   13.6321 C   0  0  0  0  0  0  0  0  0  0  0  0
    0.8774    0.1934   12.6147 O   0  0  0  0  0  0  0  0  0  0  0  0
    1.7626    0.9509   11.7825 C   0  0  0  0  0  0  0  0  0  0  0  0
    2.4365    0.0649   10.7671 C   0  0  0  0  0  0  0  0  0  0  0  0
    1.4697   -0.8105   10.1793 N   0  0  0  0  0  0  0  0  0  0  0  0
    0.6454   -0.2312    9.1618 C   0  0  0  0  0  0  0  0  0  0  0  0
    0.3672   -1.3388    8.1415 C   0  0  0  0  0  0  0  0  0  0  0  0
    1.6116   -1.5728    7.3385 C   0  0  0  0  0  0  0  0  0  0  0  0
    2.3396   -2.6887    7.7679 O   0  0  0  0  0  0  0  0  0  0  0  0
    3.2931   -3.2272    6.9242 C   0  0  0  0  0  0  0  0  0  0  0  0
    3.1774   -3.1653    5.5560 C   0  0  0  0  0  0  0  0  0  0  0  0
    4.1634   -3.7222    4.7683 C   0  0  0  0  0  0  0  0  0  0  0  0
    5.2531   -4.3345    5.3476 C   0  0  0  0  0  0  0  0  0  0  0  0
    5.3927   -4.4100    6.7190 C   0  0  0  0  0  0  0  0  0  0  0  0
    4.3883   -3.8425    7.4949 C   0  0  0  0  0  0  0  0  0  0  0  0
    4.7206   -4.0253    8.8287 C   0  0  0  0  0  0  0  0  0  0  0  0
    4.0815   -3.6615   10.0210 C   0  0  0  0  0  0  0  0  0  0  0  0
    4.6824   -3.9956   11.2181 C   0  0  0  0  0  0  0  0  0  0  0  0
    5.8831   -4.6710   11.2486 C   0  0  0  0  0  0  0  0  0  0  0  0
    6.4886   -5.0159   10.0528 C   0  0  0  0  0  0  0  0  0  0  0  0
    5.9216   -4.7013    8.8141 C   0  0  0  0  0  0  0  0  0  0  0  0
    6.3158   -4.9270    7.5489 N   0  0  0  0  0  0  0  0  0  0  0  0
   -0.7235   -1.0511    7.3640 O   0  0  0  0  0  0  0  0  0  0  0  0
  1  2  1  0
  2  3  1  0
  3  4  2  0
  4  5  1  0
  5  6  2  0
  6  7  1  0
  7  8  2  0
  8  9  1  0
  9 10  1  0
 10 11  1  0
 11 12  1  0
 12 13  1  0
 13 14  1  0
 14 15  1  0
 15 16  1  0
 16 17  1  0
 17 18  2  0
 18 19  1  0
 19 20  2  0
 20 21  1  0
 21 22  2  0
 22 23  1  0
 23 24  2  0
 24 25  1  0
 25 26  2  0
 26 27  1  0
 27 28  2  0
 28 29  1  0
 14 30  1  0
  8  3  1  0
 22 17  1  0
 29 21  1  0
 28 23  1  0
M  END
$$$$
