
     RDKit          3D

 30 33  0  0  0  0  0  0  0  0999 V2000
   -1.7109    1.0516   15.6033 C   0  0  0  0  0  0  0  0  0  0  0  0
   -0.8129    1.0365   14.5103 O   0  0  0  0  0  0  0  0  0  0  0  0
    0.5526    0.9578   14.7961 C   0  0  0  0  0  0  0  0  0  0  0  0
    1.0127    0.9251   16.0929 C   0  0  0  0  0  0  0  0  0  0  0  0
    2.3606    0.8476   16.3701 C   0  0  0  0  0  0  0  0  0  0  0  0
    3.2749    0.8012   15.3591 C   0  0  0  0  0  0  0  0  0  0  0  0
    2.8056    0.8344   14.0672 C   0  0  0  0  0  0  0  0  0  0  0  0
    1.4653    0.9117   13.7512 C   0  0  0  0  0  0  0  0  0  0  0  0
    1.0183    0.9440   12.4421 O   0  0  0  0  0  0  0  0  0  0  0  0
    1.9823    1.2683   11.4344 C   0  0  0  0  0  0  0  0  0  0  0  0
    1.3522    1.2634   10.0657 C   0  0  0  0  0  0  0  0  0  0  0  0
    1.2243   -0.0841    9.6028 N   0  0  0  0  0  0  0  0  0  0  0  0
    0.1502   -0.3266    8.6874 C   0  0  0  0  0  0  0  0  0  0  0  0
    0.2315   -1.8060    8.3002 C   0  0  0  0  0  0  0  0  0  0  0  0
    1.3954   -1.9946    7.3740 C   0  0  0  0  0  0  0  0  0  0  0  0
    2.4852   -2.6266    7.9845 O   0  0  0  0  0  0  0  0  0  0  0  0
    3.4013   -3.2902    7.1900 C   0  0  0  0  0  0  0  0  0  0  0  0
    3.2089   -3.4628    5.8400 C   0  0  0  0  0  0  0  0  0  0  0  0
    4.1610   -4.1347    5.1019 C   0  0  0  0  0  0  0  0  0  0  0  0
    5.2934   -4.6278    5.7121 C   0  0  0  0  0  0  0  0  0  0  0  0
    5.5103   -4.4676    7.0660 C   0  0  0  0  0  0  0  0  0  0  0  0
    4.5389   -3.7876    7.7919 C   0  0  0  0  0  0  0  0  0  0  0  0
    4.9483   -3.7376    9.1158 C   0  0  0  0  0  0  0  0  0  0  0  0
    4.3688   -3.1835   10.2646 C   0  0  0  0  0  0  0  0  0  0  0  0
    5.0418   -3.3028   11.4639 C   0  0  0  0  0  0  0  0  0  0  0  0
    6.2560   -3.9501   11.5384 C   0  0  0  0  0  0  0  0  0  0  0  0
    6.8014   -4.4865   10.3850 C   0  0  0  0  0  0  0  0  0  0  0  0
    6.1603   -4.3931    9.1459 C   0  0  0  0  0  0  0  0  0  0  0  0
    6.4884   -4.8261    7.9164 N   0  0  0  0  0  0  0  0  0  0  0  0
   -0.9491   -2.2587    7.7727 O   0  0  0  0  0  0  0  0  0  0  0  0
  1  2  1  0
  2  3  1  0
  3  4  2  0
  4  5  1  0
  5  6  2  0
  6  7  1  0
  7  8  2  0
  8  9  1  0
  9 10  1  0
 10 11  1  0
 11 12  1  0
 12 13  1  0
 13 14  1  0
 14 15  1  0
 15 16  1  0
 16 17  1  0
 17 18  2  0
 18 19  1  0
 19 20  2  0
 20 21  1  0
 21 22  2  0
 22 23  1  0
 23 24  2  0
 24 25  1  0
 25 26  2  0
 26 27  1  0
 27 28  2  0
 28 29  1  0
 14 30  1  0
  8  3  1  0
 22 17  1  0
 29 21  1  0
 28 23  1  0
M  END
$$$$
