
     RDKit          3D

 30 33  0  0  0  0  0  0  0  0999 V2000
   -4.7808   -0.6524   14.6561 C   0  0  0  0  0  0  0  0  0  0  0  0
   -3.8219   -0.0893   13.7816 O   0  0  0  0  0  0  0  0  0  0  0  0
   -4.0636    1.2003   13.3008 C   0  0  0  0  0  0  0  0  0  0  0  0
   -5.2023    1.8922   13.6462 C   0  0  0  0  0  0  0  0  0  0  0  0
   -5.4365    3.1640   13.1693 C   0  0  0  0  0  0  0  0  0  0  0  0
   -4.5397    3.7695   12.3392 C   0  0  0  0  0  0  0  0  0  0  0  0
   -3.4054    3.0704   12.0000 C   0  0  0  0  0  0  0  0  0  0  0  0
   -3.1369    1.7971   12.4570 C   0  0  0  0  0  0  0  0  0  0  0  0
   -1.9875    1.1141   12.1007 O   0  0  0  0  0  0  0  0  0  0  0  0
   -0.7394    1.7738   12.3403 C   0  0  0  0  0  0  0  0  0  0  0  0
    0.4095    0.9653   11.7959 C   0  0  0  0  0  0  0  0  0  0  0  0
   -0.0933   -0.2155   11.1639 N   0  0  0  0  0  0  0  0  0  0  0  0
    0.7226   -1.3849   11.2946 C   0  0  0  0  0  0  0  0  0  0  0  0
    0.0271   -2.4941   10.5001 C   0  0  0  0  0  0  0  0  0  0  0  0
    0.6045   -2.5255    9.1167 C   0  0  0  0  0  0  0  0  0  0  0  0
    1.9446   -2.9293    9.0909 O   0  0  0  0  0  0  0  0  0  0  0  0
    2.5163   -3.2641    7.8776 C   0  0  0  0  0  0  0  0  0  0  0  0
    1.8804   -3.0333    6.6812 C   0  0  0  0  0  0  0  0  0  0  0  0
    2.5043   -3.3908    5.5040 C   0  0  0  0  0  0  0  0  0  0  0  0
    3.7523   -3.9736    5.5277 C   0  0  0  0  0  0  0  0  0  0  0  0
    4.4120   -4.2161    6.7159 C   0  0  0  0  0  0  0  0  0  0  0  0
    3.7663   -3.8482    7.8909 C   0  0  0  0  0  0  0  0  0  0  0  0
    4.5927   -4.1744    8.9556 C   0  0  0  0  0  0  0  0  0  0  0  0
    4.4509   -4.0297   10.3417 C   0  0  0  0  0  0  0  0  0  0  0  0
    5.4772   -4.4630   11.1569 C   0  0  0  0  0  0  0  0  0  0  0  0
    6.6183   -5.0259   10.6277 C   0  0  0  0  0  0  0  0  0  0  0  0
    6.7272   -5.1546    9.2540 C   0  0  0  0  0  0  0  0  0  0  0  0
    5.7166   -4.7319    8.3850 C   0  0  0  0  0  0  0  0  0  0  0  0
    5.5999   -4.7528    7.0460 N   0  0  0  0  0  0  0  0  0  0  0  0
   -1.3349   -2.3464   10.5067 O   0  0  0  0  0  0  0  0  0  0  0  0
  1  2  1  0
  2  3  1  0
  3  4  2  0
  4  5  1  0
  5  6  2  0
  6  7  1  0
  7  8  2  0
  8  9  1  0
  9 10  1  0
 10 11  1  0
 11 12  1  0
 12 13  1  0
 13 14  1  0
 14 15  1  0
 15 16  1  0
 16 17  1  0
 17 18  2  0
 18 19  1  0
 19 20  2  0
 20 21  1  0
 21 22  2  0
 22 23  1  0
 23 24  2  0
 24 25  1  0
 25 26  2  0
 26 27  1  0
 27 28  2  0
 28 29  1  0
 14 30  1  0
  8  3  1  0
 22 17  1  0
 29 21  1  0
 28 23  1  0
M  END
$$$$
