
     RDKit          3D

 30 33  0  0  0  0  0  0  0  0999 V2000
   -0.1641    1.5060   16.3504 C   0  0  0  0  0  0  0  0  0  0  0  0
   -0.3647    1.2910   14.9667 O   0  0  0  0  0  0  0  0  0  0  0  0
   -1.5787    1.7105   14.4163 C   0  0  0  0  0  0  0  0  0  0  0  0
   -2.5299    2.3476   15.1804 C   0  0  0  0  0  0  0  0  0  0  0  0
   -3.7260    2.7595   14.6332 C   0  0  0  0  0  0  0  0  0  0  0  0
   -3.9958    2.5438   13.3139 C   0  0  0  0  0  0  0  0  0  0  0  0
   -3.0394    1.9068   12.5588 C   0  0  0  0  0  0  0  0  0  0  0  0
   -1.8319    1.4805   13.0709 C   0  0  0  0  0  0  0  0  0  0  0  0
   -0.8855    0.8412   12.2898 O   0  0  0  0  0  0  0  0  0  0  0  0
   -0.7242    1.3138   10.9479 C   0  0  0  0  0  0  0  0  0  0  0  0
    0.5413    0.7723   10.3353 C   0  0  0  0  0  0  0  0  0  0  0  0
    0.2165   -0.0276    9.1946 N   0  0  0  0  0  0  0  0  0  0  0  0
   -0.0177   -1.4157    9.4563 C   0  0  0  0  0  0  0  0  0  0  0  0
   -0.1635   -2.0988    8.0935 C   0  0  0  0  0  0  0  0  0  0  0  0
    1.1555   -2.0357    7.3834 C   0  0  0  0  0  0  0  0  0  0  0  0
    2.1713   -2.7306    8.0506 O   0  0  0  0  0  0  0  0  0  0  0  0
    3.2122   -3.2608    7.3115 C   0  0  0  0  0  0  0  0  0  0  0  0
    3.1833   -3.3097    5.9382 C   0  0  0  0  0  0  0  0  0  0  0  0
    4.2542   -3.8518    5.2583 C   0  0  0  0  0  0  0  0  0  0  0  0
    5.3416   -4.3395    5.9493 C   0  0  0  0  0  0  0  0  0  0  0  0
    5.3950   -4.3022    7.3283 C   0  0  0  0  0  0  0  0  0  0  0  0
    4.3060   -3.7518    7.9946 C   0  0  0  0  0  0  0  0  0  0  0  0
    4.5609   -3.8103    9.3563 C   0  0  0  0  0  0  0  0  0  0  0  0
    3.8215   -3.4052   10.4751 C   0  0  0  0  0  0  0  0  0  0  0  0
    4.3629   -3.6051   11.7291 C   0  0  0  0  0  0  0  0  0  0  0  0
    5.6015   -4.1886   11.8858 C   0  0  0  0  0  0  0  0  0  0  0  0
    6.3063   -4.5776   10.7600 C   0  0  0  0  0  0  0  0  0  0  0  0
    5.8026   -4.3977    9.4681 C   0  0  0  0  0  0  0  0  0  0  0  0
    6.2937   -4.6884    8.2510 N   0  0  0  0  0  0  0  0  0  0  0  0
   -1.1895   -1.5605    7.3624 O   0  0  0  0  0  0  0  0  0  0  0  0
  1  2  1  0
  2  3  1  0
  3  4  2  0
  4  5  1  0
  5  6  2  0
  6  7  1  0
  7  8  2  0
  8  9  1  0
  9 10  1  0
 10 11  1  0
 11 12  1  0
 12 13  1  0
 13 14  1  0
 14 15  1  0
 15 16  1  0
 16 17  1  0
 17 18  2  0
 18 19  1  0
 19 20  2  0
 20 21  1  0
 21 22  2  0
 22 23  1  0
 23 24  2  0
 24 25  1  0
 25 26  2  0
 26 27  1  0
 27 28  2  0
 28 29  1  0
 14 30  1  0
  8  3  1  0
 22 17  1  0
 29 21  1  0
 28 23  1  0
M  END
$$$$
