
     RDKit          3D

 30 33  0  0  0  0  0  0  0  0999 V2000
    0.0455    1.4210   14.4241 C   0  0  0  0  0  0  0  0  0  0  0  0
   -0.3757    0.3799   13.5639 O   0  0  0  0  0  0  0  0  0  0  0  0
   -1.5713   -0.2729   13.8757 C   0  0  0  0  0  0  0  0  0  0  0  0
   -2.2646    0.0140   15.0296 C   0  0  0  0  0  0  0  0  0  0  0  0
   -3.4435   -0.6326   15.3330 C   0  0  0  0  0  0  0  0  0  0  0  0
   -3.9528   -1.5771   14.4914 C   0  0  0  0  0  0  0  0  0  0  0  0
   -3.2531   -1.8566   13.3413 C   0  0  0  0  0  0  0  0  0  0  0  0
   -2.0712   -1.2309   13.0043 C   0  0  0  0  0  0  0  0  0  0  0  0
   -1.3855   -1.5303   11.8404 O   0  0  0  0  0  0  0  0  0  0  0  0
   -1.8397   -2.6634   11.0922 C   0  0  0  0  0  0  0  0  0  0  0  0
   -1.0684   -2.8028    9.8054 C   0  0  0  0  0  0  0  0  0  0  0  0
    0.1342   -2.0318    9.8826 N   0  0  0  0  0  0  0  0  0  0  0  0
    0.0225   -0.6648    9.4713 C   0  0  0  0  0  0  0  0  0  0  0  0
    1.1315   -0.4259    8.4426 C   0  0  0  0  0  0  0  0  0  0  0  0
    2.4496   -0.7614    9.0738 C   0  0  0  0  0  0  0  0  0  0  0  0
    2.9621   -1.9936    8.6512 O   0  0  0  0  0  0  0  0  0  0  0  0
    4.1293   -2.4618    9.2250 C   0  0  0  0  0  0  0  0  0  0  0  0
    4.7229   -1.8321   10.2929 C   0  0  0  0  0  0  0  0  0  0  0  0
    5.8878   -2.3493   10.8205 C   0  0  0  0  0  0  0  0  0  0  0  0
    6.4504   -3.4858   10.2822 C   0  0  0  0  0  0  0  0  0  0  0  0
    5.8739   -4.1368    9.2099 C   0  0  0  0  0  0  0  0  0  0  0  0
    4.7004   -3.5996    8.6930 C   0  0  0  0  0  0  0  0  0  0  0  0
    4.2925   -4.3972    7.6346 C   0  0  0  0  0  0  0  0  0  0  0  0
    3.1957   -4.3277    6.7659 C   0  0  0  0  0  0  0  0  0  0  0  0
    3.0659   -5.2965    5.7912 C   0  0  0  0  0  0  0  0  0  0  0  0
    3.9892   -6.3121    5.6685 C   0  0  0  0  0  0  0  0  0  0  0  0
    5.0615   -6.3522    6.5425 C   0  0  0  0  0  0  0  0  0  0  0  0
    5.2388   -5.3953    7.5466 C   0  0  0  0  0  0  0  0  0  0  0  0
    6.1803   -5.2317    8.4920 N   0  0  0  0  0  0  0  0  0  0  0  0
    1.0903    0.8469    7.9374 O   0  0  0  0  0  0  0  0  0  0  0  0
  1  2  1  0
  2  3  1  0
  3  4  2  0
  4  5  1  0
  5  6  2  0
  6  7  1  0
  7  8  2  0
  8  9  1  0
  9 10  1  0
 10 11  1  0
 11 12  1  0
 12 13  1  0
 13 14  1  0
 14 15  1  0
 15 16  1  0
 16 17  1  0
 17 18  2  0
 18 19  1  0
 19 20  2  0
 20 21  1  0
 21 22  2  0
 22 23  1  0
 23 24  2  0
 24 25  1  0
 25 26  2  0
 26 27  1  0
 27 28  2  0
 28 29  1  0
 14 30  1  0
  8  3  1  0
 22 17  1  0
 29 21  1  0
 28 23  1  0
M  END
$$$$
