
     RDKit          3D

 30 33  0  0  0  0  0  0  0  0999 V2000
   -1.3643    3.0940   15.8602 C   0  0  0  0  0  0  0  0  0  0  0  0
   -1.7957    2.3835   14.7155 O   0  0  0  0  0  0  0  0  0  0  0  0
   -3.1710    2.3138   14.4778 C   0  0  0  0  0  0  0  0  0  0  0  0
   -4.0763    2.9058   15.3289 C   0  0  0  0  0  0  0  0  0  0  0  0
   -5.4320    2.8342   15.0904 C   0  0  0  0  0  0  0  0  0  0  0  0
   -5.9100    2.1711   13.9988 C   0  0  0  0  0  0  0  0  0  0  0  0
   -4.9978    1.5831   13.1545 C   0  0  0  0  0  0  0  0  0  0  0  0
   -3.6350    1.6335   13.3603 C   0  0  0  0  0  0  0  0  0  0  0  0
   -2.7372    1.0331   12.4954 O   0  0  0  0  0  0  0  0  0  0  0  0
   -3.0044    1.1553   11.0941 C   0  0  0  0  0  0  0  0  0  0  0  0
   -1.7408    0.9944   10.2894 C   0  0  0  0  0  0  0  0  0  0  0  0
   -1.5919   -0.3743    9.9010 N   0  0  0  0  0  0  0  0  0  0  0  0
   -0.5925   -1.1154   10.6096 C   0  0  0  0  0  0  0  0  0  0  0  0
    0.3461   -1.7046    9.5527 C   0  0  0  0  0  0  0  0  0  0  0  0
    1.6432   -2.0651   10.2127 C   0  0  0  0  0  0  0  0  0  0  0  0
    2.5354   -2.7137    9.3507 O   0  0  0  0  0  0  0  0  0  0  0  0
    3.7273   -3.1921    9.8622 C   0  0  0  0  0  0  0  0  0  0  0  0
    4.1253   -2.9341   11.1523 C   0  0  0  0  0  0  0  0  0  0  0  0
    5.3267   -3.4402   11.6031 C   0  0  0  0  0  0  0  0  0  0  0  0
    6.1197   -4.1965   10.7683 C   0  0  0  0  0  0  0  0  0  0  0  0
    5.7427   -4.4698    9.4686 C   0  0  0  0  0  0  0  0  0  0  0  0
    4.5284   -3.9508    9.0337 C   0  0  0  0  0  0  0  0  0  0  0  0
    4.3424   -4.3394    7.7157 C   0  0  0  0  0  0  0  0  0  0  0  0
    3.3111   -4.1046    6.7971 C   0  0  0  0  0  0  0  0  0  0  0  0
    3.4234   -4.6417    5.5305 C   0  0  0  0  0  0  0  0  0  0  0  0
    4.5209   -5.3929    5.1696 C   0  0  0  0  0  0  0  0  0  0  0  0
    5.5224   -5.6063    6.1007 C   0  0  0  0  0  0  0  0  0  0  0  0
    5.4570   -5.0844    7.3963 C   0  0  0  0  0  0  0  0  0  0  0  0
    6.2886   -5.1571    8.4499 N   0  0  0  0  0  0  0  0  0  0  0  0
    0.5065   -0.8585    8.4872 O   0  0  0  0  0  0  0  0  0  0  0  0
  1  2  1  0
  2  3  1  0
  3  4  2  0
  4  5  1  0
  5  6  2  0
  6  7  1  0
  7  8  2  0
  8  9  1  0
  9 10  1  0
 10 11  1  0
 11 12  1  0
 12 13  1  0
 13 14  1  0
 14 15  1  0
 15 16  1  0
 16 17  1  0
 17 18  2  0
 18 19  1  0
 19 20  2  0
 20 21  1  0
 21 22  2  0
 22 23  1  0
 23 24  2  0
 24 25  1  0
 25 26  2  0
 26 27  1  0
 27 28  2  0
 28 29  1  0
 14 30  1  0
  8  3  1  0
 22 17  1  0
 29 21  1  0
 28 23  1  0
M  END
$$$$
