
     RDKit          3D

 30 33  0  0  0  0  0  0  0  0999 V2000
    5.1269   -4.5076   11.3465 C   0  0  0  0  0  0  0  0  0  0  0  0
    4.6153   -3.1932   11.4560 O   0  0  0  0  0  0  0  0  0  0  0  0
    4.9926   -2.4433   12.5731 C   0  0  0  0  0  0  0  0  0  0  0  0
    5.9908   -2.8703   13.4191 C   0  0  0  0  0  0  0  0  0  0  0  0
    6.3595   -2.1272   14.5199 C   0  0  0  0  0  0  0  0  0  0  0  0
    5.7397   -0.9445   14.7974 C   0  0  0  0  0  0  0  0  0  0  0  0
    4.7439   -0.5264   13.9464 C   0  0  0  0  0  0  0  0  0  0  0  0
    4.3479   -1.2423   12.8361 C   0  0  0  0  0  0  0  0  0  0  0  0
    3.3424   -0.7998   11.9949 O   0  0  0  0  0  0  0  0  0  0  0  0
    2.2079   -0.1791   12.6094 C   0  0  0  0  0  0  0  0  0  0  0  0
    1.3146    0.4538   11.5741 C   0  0  0  0  0  0  0  0  0  0  0  0
    1.4288   -0.2628   10.3412 N   0  0  0  0  0  0  0  0  0  0  0  0
    0.2460   -0.3033    9.5351 C   0  0  0  0  0  0  0  0  0  0  0  0
    0.1804   -1.7066    8.9257 C   0  0  0  0  0  0  0  0  0  0  0  0
    1.1518   -1.7789    7.7858 C   0  0  0  0  0  0  0  0  0  0  0  0
    2.2824   -2.5513    8.0769 O   0  0  0  0  0  0  0  0  0  0  0  0
    2.9581   -3.1617    7.0368 C   0  0  0  0  0  0  0  0  0  0  0  0
    2.4661   -3.1757    5.7535 C   0  0  0  0  0  0  0  0  0  0  0  0
    3.1885   -3.8021    4.7593 C   0  0  0  0  0  0  0  0  0  0  0  0
    4.3912   -4.4078    5.0501 C   0  0  0  0  0  0  0  0  0  0  0  0
    4.9070   -4.4077    6.3307 C   0  0  0  0  0  0  0  0  0  0  0  0
    4.1638   -3.7710    7.3181 C   0  0  0  0  0  0  0  0  0  0  0  0
    4.8532   -3.8852    8.5157 C   0  0  0  0  0  0  0  0  0  0  0  0
    4.5750   -3.4372    9.8135 C   0  0  0  0  0  0  0  0  0  0  0  0
    5.4830   -3.7171   10.8150 C   0  0  0  0  0  0  0  0  0  0  0  0
    6.6388   -4.4202   10.5529 C   0  0  0  0  0  0  0  0  0  0  0  0
    6.8839   -4.8487    9.2599 C   0  0  0  0  0  0  0  0  0  0  0  0
    5.9966   -4.5915    8.2103 C   0  0  0  0  0  0  0  0  0  0  0  0
    6.0204   -4.8996    6.9021 N   0  0  0  0  0  0  0  0  0  0  0  0
   -1.0966   -2.0430    8.5608 O   0  0  0  0  0  0  0  0  0  0  0  0
  1  2  1  0
  2  3  1  0
  3  4  2  0
  4  5  1  0
  5  6  2  0
  6  7  1  0
  7  8  2  0
  8  9  1  0
  9 10  1  0
 10 11  1  0
 11 12  1  0
 12 13  1  0
 13 14  1  0
 14 15  1  0
 15 16  1  0
 16 17  1  0
 17 18  2  0
 18 19  1  0
 19 20  2  0
 20 21  1  0
 21 22  2  0
 22 23  1  0
 23 24  2  0
 24 25  1  0
 25 26  2  0
 26 27  1  0
 27 28  2  0
 28 29  1  0
 14 30  1  0
  8  3  1  0
 22 17  1  0
 29 21  1  0
 28 23  1  0
M  END
$$$$
