
     RDKit          3D

 30 33  0  0  0  0  0  0  0  0999 V2000
    4.1218    1.2570   14.0072 C   0  0  0  0  0  0  0  0  0  0  0  0
    2.9557    0.6275   13.5122 O   0  0  0  0  0  0  0  0  0  0  0  0
    1.7720    0.7984   14.2349 C   0  0  0  0  0  0  0  0  0  0  0  0
    1.7798    1.3122   15.5118 C   0  0  0  0  0  0  0  0  0  0  0  0
    0.6097    1.4790   16.2208 C   0  0  0  0  0  0  0  0  0  0  0  0
   -0.5899    1.1365   15.6698 C   0  0  0  0  0  0  0  0  0  0  0  0
   -0.5874    0.6242   14.3939 C   0  0  0  0  0  0  0  0  0  0  0  0
    0.5624    0.4430   13.6540 C   0  0  0  0  0  0  0  0  0  0  0  0
    0.5384   -0.0750   12.3712 O   0  0  0  0  0  0  0  0  0  0  0  0
   -0.2650    0.6146   11.4072 C   0  0  0  0  0  0  0  0  0  0  0  0
   -0.5482   -0.2634   10.2160 C   0  0  0  0  0  0  0  0  0  0  0  0
    0.6847   -0.7405    9.6694 N   0  0  0  0  0  0  0  0  0  0  0  0
    0.9300   -0.3991    8.3006 C   0  0  0  0  0  0  0  0  0  0  0  0
    0.4536   -1.5881    7.4613 C   0  0  0  0  0  0  0  0  0  0  0  0
    1.6171   -2.1170    6.6775 C   0  0  0  0  0  0  0  0  0  0  0  0
    2.6654   -2.5674    7.4886 O   0  0  0  0  0  0  0  0  0  0  0  0
    3.6481   -3.3614    6.9275 C   0  0  0  0  0  0  0  0  0  0  0  0
    3.6236   -3.7292    5.6034 C   0  0  0  0  0  0  0  0  0  0  0  0
    4.6343   -4.5237    5.1036 C   0  0  0  0  0  0  0  0  0  0  0  0
    5.6580   -4.9445    5.9238 C   0  0  0  0  0  0  0  0  0  0  0  0
    5.7057   -4.5891    7.2570 C   0  0  0  0  0  0  0  0  0  0  0  0
    4.6778   -3.7879    7.7410 C   0  0  0  0  0  0  0  0  0  0  0  0
    4.9156   -3.5499    9.0862 C   0  0  0  0  0  0  0  0  0  0  0  0
    4.2166   -2.8186   10.0553 C   0  0  0  0  0  0  0  0  0  0  0  0
    4.7247   -2.7723   11.3379 C   0  0  0  0  0  0  0  0  0  0  0  0
    5.8919   -3.4271   11.6662 C   0  0  0  0  0  0  0  0  0  0  0  0
    6.5584   -4.1409   10.6855 C   0  0  0  0  0  0  0  0  0  0  0  0
    6.0859   -4.2194    9.3718 C   0  0  0  0  0  0  0  0  0  0  0  0
    6.5511   -4.8378    8.2726 N   0  0  0  0  0  0  0  0  0  0  0  0
   -0.6156   -1.2565    6.6714 O   0  0  0  0  0  0  0  0  0  0  0  0
  1  2  1  0
  2  3  1  0
  3  4  2  0
  4  5  1  0
  5  6  2  0
  6  7  1  0
  7  8  2  0
  8  9  1  0
  9 10  1  0
 10 11  1  0
 11 12  1  0
 12 13  1  0
 13 14  1  0
 14 15  1  0
 15 16  1  0
 16 17  1  0
 17 18  2  0
 18 19  1  0
 19 20  2  0
 20 21  1  0
 21 22  2  0
 22 23  1  0
 23 24  2  0
 24 25  1  0
 25 26  2  0
 26 27  1  0
 27 28  2  0
 28 29  1  0
 14 30  1  0
  8  3  1  0
 22 17  1  0
 29 21  1  0
 28 23  1  0
M  END
$$$$
