
     RDKit          3D

 30 33  0  0  0  0  0  0  0  0999 V2000
   -4.6337    2.3160    9.7477 C   0  0  0  0  0  0  0  0  0  0  0  0
   -3.4230    2.4944   10.4573 O   0  0  0  0  0  0  0  0  0  0  0  0
   -3.5098    2.7970   11.8188 C   0  0  0  0  0  0  0  0  0  0  0  0
   -4.5793    3.4959   12.3308 C   0  0  0  0  0  0  0  0  0  0  0  0
   -4.6606    3.7923   13.6744 C   0  0  0  0  0  0  0  0  0  0  0  0
   -3.6769    3.3971   14.5324 C   0  0  0  0  0  0  0  0  0  0  0  0
   -2.6127    2.6994   14.0115 C   0  0  0  0  0  0  0  0  0  0  0  0
   -2.4969    2.3847   12.6738 C   0  0  0  0  0  0  0  0  0  0  0  0
   -1.4152    1.6813   12.1740 O   0  0  0  0  0  0  0  0  0  0  0  0
   -0.8620    0.6597   13.0108 C   0  0  0  0  0  0  0  0  0  0  0  0
    0.5223    0.2801   12.5528 C   0  0  0  0  0  0  0  0  0  0  0  0
    0.4465   -0.3465   11.2690 N   0  0  0  0  0  0  0  0  0  0  0  0
    0.7226   -1.7513   11.2467 C   0  0  0  0  0  0  0  0  0  0  0  0
    0.2305   -2.2720    9.8933 C   0  0  0  0  0  0  0  0  0  0  0  0
    1.1807   -1.8107    8.8292 C   0  0  0  0  0  0  0  0  0  0  0  0
    2.4560   -2.3753    8.9505 O   0  0  0  0  0  0  0  0  0  0  0  0
    3.0324   -2.9637    7.8404 C   0  0  0  0  0  0  0  0  0  0  0  0
    2.4765   -2.8623    6.5874 C   0  0  0  0  0  0  0  0  0  0  0  0
    3.1007   -3.4729    5.5195 C   0  0  0  0  0  0  0  0  0  0  0  0
    4.2695   -4.1774    5.7073 C   0  0  0  0  0  0  0  0  0  0  0  0
    4.8479   -4.2942    6.9554 C   0  0  0  0  0  0  0  0  0  0  0  0
    4.2035   -3.6715    8.0183 C   0  0  0  0  0  0  0  0  0  0  0  0
    4.9424   -3.9088    9.1674 C   0  0  0  0  0  0  0  0  0  0  0  0
    4.7632   -3.5257   10.5029 C   0  0  0  0  0  0  0  0  0  0  0  0
    5.6978   -3.9306   11.4346 C   0  0  0  0  0  0  0  0  0  0  0  0
    6.7850   -4.6939   11.0681 C   0  0  0  0  0  0  0  0  0  0  0  0
    6.9329   -5.0555    9.7404 C   0  0  0  0  0  0  0  0  0  0  0  0
    6.0148   -4.6716    8.7582 C   0  0  0  0  0  0  0  0  0  0  0  0
    5.9502   -4.8971    7.4346 N   0  0  0  0  0  0  0  0  0  0  0  0
   -1.0658   -1.9030    9.6477 O   0  0  0  0  0  0  0  0  0  0  0  0
  1  2  1  0
  2  3  1  0
  3  4  2  0
  4  5  1  0
  5  6  2  0
  6  7  1  0
  7  8  2  0
  8  9  1  0
  9 10  1  0
 10 11  1  0
 11 12  1  0
 12 13  1  0
 13 14  1  0
 14 15  1  0
 15 16  1  0
 16 17  1  0
 17 18  2  0
 18 19  1  0
 19 20  2  0
 20 21  1  0
 21 22  2  0
 22 23  1  0
 23 24  2  0
 24 25  1  0
 25 26  2  0
 26 27  1  0
 27 28  2  0
 28 29  1  0
 14 30  1  0
  8  3  1  0
 22 17  1  0
 29 21  1  0
 28 23  1  0
M  END
$$$$
