
     RDKit          3D

 30 33  0  0  0  0  0  0  0  0999 V2000
   -3.2146    4.3302   13.2530 C   0  0  0  0  0  0  0  0  0  0  0  0
   -2.7682    2.9878   13.2499 O   0  0  0  0  0  0  0  0  0  0  0  0
   -3.5995    2.0284   13.8339 C   0  0  0  0  0  0  0  0  0  0  0  0
   -4.6607    2.3901   14.6323 C   0  0  0  0  0  0  0  0  0  0  0  0
   -5.4780    1.4402   15.2063 C   0  0  0  0  0  0  0  0  0  0  0  0
   -5.2521    0.1119   14.9949 C   0  0  0  0  0  0  0  0  0  0  0  0
   -4.1897   -0.2394   14.1960 C   0  0  0  0  0  0  0  0  0  0  0  0
   -3.3508    0.6820   13.6049 C   0  0  0  0  0  0  0  0  0  0  0  0
   -2.2876    0.3027   12.8048 O   0  0  0  0  0  0  0  0  0  0  0  0
   -2.0746   -1.1024   12.6308 C   0  0  0  0  0  0  0  0  0  0  0  0
   -0.8662   -1.3607   11.7686 C   0  0  0  0  0  0  0  0  0  0  0  0
   -1.2870   -1.6907   10.4417 N   0  0  0  0  0  0  0  0  0  0  0  0
   -1.0812   -0.6742    9.4545 C   0  0  0  0  0  0  0  0  0  0  0  0
    0.0338   -1.1785    8.5338 C   0  0  0  0  0  0  0  0  0  0  0  0
    1.3097   -1.2425    9.3187 C   0  0  0  0  0  0  0  0  0  0  0  0
    2.2889   -2.0363    8.7098 O   0  0  0  0  0  0  0  0  0  0  0  0
    3.4121   -2.3836    9.4369 C   0  0  0  0  0  0  0  0  0  0  0  0
    3.6278   -1.9229   10.7138 C   0  0  0  0  0  0  0  0  0  0  0  0
    4.7692   -2.3061   11.3870 C   0  0  0  0  0  0  0  0  0  0  0  0
    5.6839   -3.1422   10.7850 C   0  0  0  0  0  0  0  0  0  0  0  0
    5.4906   -3.6184    9.5037 C   0  0  0  0  0  0  0  0  0  0  0  0
    4.3340   -3.2207    8.8426 C   0  0  0  0  0  0  0  0  0  0  0  0
    4.3350   -3.8055    7.5853 C   0  0  0  0  0  0  0  0  0  0  0  0
    3.4310   -3.7516    6.5166 C   0  0  0  0  0  0  0  0  0  0  0  0
    3.7240   -4.4630    5.3704 C   0  0  0  0  0  0  0  0  0  0  0  0
    4.8767   -5.2116    5.2715 C   0  0  0  0  0  0  0  0  0  0  0  0
    5.7491   -5.2438    6.3455 C   0  0  0  0  0  0  0  0  0  0  0  0
    5.4990   -4.5412    7.5282 C   0  0  0  0  0  0  0  0  0  0  0  0
    6.1835   -4.4235    8.6791 N   0  0  0  0  0  0  0  0  0  0  0  0
    0.1417   -0.4152    7.4012 O   0  0  0  0  0  0  0  0  0  0  0  0
  1  2  1  0
  2  3  1  0
  3  4  2  0
  4  5  1  0
  5  6  2  0
  6  7  1  0
  7  8  2  0
  8  9  1  0
  9 10  1  0
 10 11  1  0
 11 12  1  0
 12 13  1  0
 13 14  1  0
 14 15  1  0
 15 16  1  0
 16 17  1  0
 17 18  2  0
 18 19  1  0
 19 20  2  0
 20 21  1  0
 21 22  2  0
 22 23  1  0
 23 24  2  0
 24 25  1  0
 25 26  2  0
 26 27  1  0
 27 28  2  0
 28 29  1  0
 14 30  1  0
  8  3  1  0
 22 17  1  0
 29 21  1  0
 28 23  1  0
M  END
$$$$
