
     RDKit          3D

 30 33  0  0  0  0  0  0  0  0999 V2000
   -4.9644    3.8929   10.7793 C   0  0  0  0  0  0  0  0  0  0  0  0
   -4.3135    2.6483   10.9488 O   0  0  0  0  0  0  0  0  0  0  0  0
   -3.9831    2.2632   12.2508 C   0  0  0  0  0  0  0  0  0  0  0  0
   -4.4097    2.9858   13.3419 C   0  0  0  0  0  0  0  0  0  0  0  0
   -4.0813    2.6021   14.6244 C   0  0  0  0  0  0  0  0  0  0  0  0
   -3.3214    1.4909   14.8426 C   0  0  0  0  0  0  0  0  0  0  0  0
   -2.9002    0.7757   13.7464 C   0  0  0  0  0  0  0  0  0  0  0  0
   -3.2086    1.1285   12.4493 C   0  0  0  0  0  0  0  0  0  0  0  0
   -2.7721    0.3918   11.3624 O   0  0  0  0  0  0  0  0  0  0  0  0
   -1.9704   -0.7618   11.6394 C   0  0  0  0  0  0  0  0  0  0  0  0
   -1.7592   -1.5819   10.3933 C   0  0  0  0  0  0  0  0  0  0  0  0
   -0.7622   -0.9620    9.5758 N   0  0  0  0  0  0  0  0  0  0  0  0
    0.3155   -0.3348   10.2796 C   0  0  0  0  0  0  0  0  0  0  0  0
    1.4706   -0.2033    9.2828 C   0  0  0  0  0  0  0  0  0  0  0  0
    1.5886   -1.4861    8.5156 C   0  0  0  0  0  0  0  0  0  0  0  0
    2.8249   -2.1186    8.6917 O   0  0  0  0  0  0  0  0  0  0  0  0
    3.2879   -2.9641    7.7008 C   0  0  0  0  0  0  0  0  0  0  0  0
    2.6419   -3.1005    6.4953 C   0  0  0  0  0  0  0  0  0  0  0  0
    3.1547   -3.9612    5.5471 C   0  0  0  0  0  0  0  0  0  0  0  0
    4.3028   -4.6771    5.8064 C   0  0  0  0  0  0  0  0  0  0  0  0
    4.9702   -4.5580    7.0090 C   0  0  0  0  0  0  0  0  0  0  0  0
    4.4373   -3.6853    7.9509 C   0  0  0  0  0  0  0  0  0  0  0  0
    5.2517   -3.7144    9.0728 C   0  0  0  0  0  0  0  0  0  0  0  0
    5.1929   -3.0445   10.3018 C   0  0  0  0  0  0  0  0  0  0  0  0
    6.1782   -3.2951   11.2356 C   0  0  0  0  0  0  0  0  0  0  0  0
    7.1997   -4.1820   10.9731 C   0  0  0  0  0  0  0  0  0  0  0  0
    7.2289   -4.8276    9.7492 C   0  0  0  0  0  0  0  0  0  0  0  0
    6.2552   -4.6091    8.7697 C   0  0  0  0  0  0  0  0  0  0  0  0
    6.0789   -5.1085    7.5342 N   0  0  0  0  0  0  0  0  0  0  0  0
    2.6380    0.1572    9.9026 O   0  0  0  0  0  0  0  0  0  0  0  0
  1  2  1  0
  2  3  1  0
  3  4  2  0
  4  5  1  0
  5  6  2  0
  6  7  1  0
  7  8  2  0
  8  9  1  0
  9 10  1  0
 10 11  1  0
 11 12  1  0
 12 13  1  0
 13 14  1  0
 14 15  1  0
 15 16  1  0
 16 17  1  0
 17 18  2  0
 18 19  1  0
 19 20  2  0
 20 21  1  0
 21 22  2  0
 22 23  1  0
 23 24  2  0
 24 25  1  0
 25 26  2  0
 26 27  1  0
 27 28  2  0
 28 29  1  0
 14 30  1  0
  8  3  1  0
 22 17  1  0
 29 21  1  0
 28 23  1  0
M  END
$$$$
