
     RDKit          3D

 30 33  0  0  0  0  0  0  0  0999 V2000
   -4.8205    3.2024   12.6009 C   0  0  0  0  0  0  0  0  0  0  0  0
   -3.9208    2.1206   12.4549 O   0  0  0  0  0  0  0  0  0  0  0  0
   -2.8909    2.0048   13.3923 C   0  0  0  0  0  0  0  0  0  0  0  0
   -2.8212    2.8366   14.4867 C   0  0  0  0  0  0  0  0  0  0  0  0
   -1.8034    2.7189   15.4087 C   0  0  0  0  0  0  0  0  0  0  0  0
   -0.8363    1.7694   15.2564 C   0  0  0  0  0  0  0  0  0  0  0  0
   -0.9146    0.9433   14.1601 C   0  0  0  0  0  0  0  0  0  0  0  0
   -1.9172    1.0311   13.2171 C   0  0  0  0  0  0  0  0  0  0  0  0
   -1.9737    0.1875   12.1218 O   0  0  0  0  0  0  0  0  0  0  0  0
   -0.9396   -0.7961   12.0057 C   0  0  0  0  0  0  0  0  0  0  0  0
   -1.1859   -1.6987   10.8246 C   0  0  0  0  0  0  0  0  0  0  0  0
   -0.8573   -1.0064    9.6166 N   0  0  0  0  0  0  0  0  0  0  0  0
    0.3394   -1.4383    8.9596 C   0  0  0  0  0  0  0  0  0  0  0  0
   -0.1013   -2.2305    7.7253 C   0  0  0  0  0  0  0  0  0  0  0  0
    1.1143   -2.5696    6.9157 C   0  0  0  0  0  0  0  0  0  0  0  0
    2.0855   -3.2622    7.6483 O   0  0  0  0  0  0  0  0  0  0  0  0
    3.1505   -3.8291    6.9736 C   0  0  0  0  0  0  0  0  0  0  0  0
    3.1792   -3.9268    5.6028 C   0  0  0  0  0  0  0  0  0  0  0  0
    4.2715   -4.5037    4.9889 C   0  0  0  0  0  0  0  0  0  0  0  0
    5.3230   -4.9773    5.7425 C   0  0  0  0  0  0  0  0  0  0  0  0
    5.3185   -4.8911    7.1204 C   0  0  0  0  0  0  0  0  0  0  0  0
    4.2087   -4.3062    7.7196 C   0  0  0  0  0  0  0  0  0  0  0  0
    4.4051   -4.3184    9.0922 C   0  0  0  0  0  0  0  0  0  0  0  0
    3.6238   -3.8660   10.1634 C   0  0  0  0  0  0  0  0  0  0  0  0
    4.1093   -4.0263   11.4456 C   0  0  0  0  0  0  0  0  0  0  0  0
    5.3333   -4.6162   11.6756 C   0  0  0  0  0  0  0  0  0  0  0  0
    6.0806   -5.0524   10.5954 C   0  0  0  0  0  0  0  0  0  0  0  0
    5.6341   -4.9139    9.2776 C   0  0  0  0  0  0  0  0  0  0  0  0
    6.1728   -5.2530    8.0937 N   0  0  0  0  0  0  0  0  0  0  0  0
   -1.0530   -1.5592    7.0038 O   0  0  0  0  0  0  0  0  0  0  0  0
  1  2  1  0
  2  3  1  0
  3  4  2  0
  4  5  1  0
  5  6  2  0
  6  7  1  0
  7  8  2  0
  8  9  1  0
  9 10  1  0
 10 11  1  0
 11 12  1  0
 12 13  1  0
 13 14  1  0
 14 15  1  0
 15 16  1  0
 16 17  1  0
 17 18  2  0
 18 19  1  0
 19 20  2  0
 20 21  1  0
 21 22  2  0
 22 23  1  0
 23 24  2  0
 24 25  1  0
 25 26  2  0
 26 27  1  0
 27 28  2  0
 28 29  1  0
 14 30  1  0
  8  3  1  0
 22 17  1  0
 29 21  1  0
 28 23  1  0
M  END
$$$$
