
     RDKit          3D

 30 33  0  0  0  0  0  0  0  0999 V2000
    5.4963   -1.7504   13.5039 C   0  0  0  0  0  0  0  0  0  0  0  0
    4.3470   -1.1187   12.9737 O   0  0  0  0  0  0  0  0  0  0  0  0
    3.5587   -0.3687   13.8505 C   0  0  0  0  0  0  0  0  0  0  0  0
    3.7469   -0.4281   15.2127 C   0  0  0  0  0  0  0  0  0  0  0  0
    2.9669    0.3135   16.0738 C   0  0  0  0  0  0  0  0  0  0  0  0
    1.9848    1.1282   15.5924 C   0  0  0  0  0  0  0  0  0  0  0  0
    1.8045    1.1809   14.2303 C   0  0  0  0  0  0  0  0  0  0  0  0
    2.5648    0.4540   13.3383 C   0  0  0  0  0  0  0  0  0  0  0  0
    2.3634    0.5243   11.9711 O   0  0  0  0  0  0  0  0  0  0  0  0
    1.2758    1.3366   11.5158 C   0  0  0  0  0  0  0  0  0  0  0  0
    1.1750    1.3073   10.0128 C   0  0  0  0  0  0  0  0  0  0  0  0
    1.0618   -0.0474    9.5672 N   0  0  0  0  0  0  0  0  0  0  0  0
   -0.2546   -0.4703    9.1949 C   0  0  0  0  0  0  0  0  0  0  0  0
   -0.0818   -1.7055    8.3062 C   0  0  0  0  0  0  0  0  0  0  0  0
    1.2030   -1.5711    7.5451 C   0  0  0  0  0  0  0  0  0  0  0  0
    2.2566   -2.2951    8.1156 O   0  0  0  0  0  0  0  0  0  0  0  0
    3.1672   -2.9157    7.2810 C   0  0  0  0  0  0  0  0  0  0  0  0
    2.9831   -2.9854    5.9207 C   0  0  0  0  0  0  0  0  0  0  0  0
    3.9291   -3.6190    5.1420 C   0  0  0  0  0  0  0  0  0  0  0  0
    5.0473   -4.1765    5.7223 C   0  0  0  0  0  0  0  0  0  0  0  0
    5.2555   -4.1200    7.0859 C   0  0  0  0  0  0  0  0  0  0  0  0
    4.2906   -3.4770    7.8529 C   0  0  0  0  0  0  0  0  0  0  0  0
    4.6895   -3.5317    9.1797 C   0  0  0  0  0  0  0  0  0  0  0  0
    4.1105   -3.0526   10.3619 C   0  0  0  0  0  0  0  0  0  0  0  0
    4.7711   -3.2720   11.5540 C   0  0  0  0  0  0  0  0  0  0  0  0
    5.9728   -3.9455   11.5894 C   0  0  0  0  0  0  0  0  0  0  0  0
    6.5180   -4.4061   10.4036 C   0  0  0  0  0  0  0  0  0  0  0  0
    5.8892   -4.2102    9.1702 C   0  0  0  0  0  0  0  0  0  0  0  0
    6.2197   -4.5580    7.9145 N   0  0  0  0  0  0  0  0  0  0  0  0
   -1.1663   -1.9015    7.4922 O   0  0  0  0  0  0  0  0  0  0  0  0
  1  2  1  0
  2  3  1  0
  3  4  2  0
  4  5  1  0
  5  6  2  0
  6  7  1  0
  7  8  2  0
  8  9  1  0
  9 10  1  0
 10 11  1  0
 11 12  1  0
 12 13  1  0
 13 14  1  0
 14 15  1  0
 15 16  1  0
 16 17  1  0
 17 18  2  0
 18 19  1  0
 19 20  2  0
 20 21  1  0
 21 22  2  0
 22 23  1  0
 23 24  2  0
 24 25  1  0
 25 26  2  0
 26 27  1  0
 27 28  2  0
 28 29  1  0
 14 30  1  0
  8  3  1  0
 22 17  1  0
 29 21  1  0
 28 23  1  0
M  END
$$$$
