
     RDKit          3D

 30 33  0  0  0  0  0  0  0  0999 V2000
   -5.3389    3.8318   13.6310 C   0  0  0  0  0  0  0  0  0  0  0  0
   -4.0636    3.2652   13.3989 O   0  0  0  0  0  0  0  0  0  0  0  0
   -3.3437    2.8162   14.5093 C   0  0  0  0  0  0  0  0  0  0  0  0
   -3.5677    3.3325   15.7653 C   0  0  0  0  0  0  0  0  0  0  0  0
   -2.8551    2.8867   16.8576 C   0  0  0  0  0  0  0  0  0  0  0  0
   -1.9057    1.9176   16.7176 C   0  0  0  0  0  0  0  0  0  0  0  0
   -1.6891    1.4080   15.4590 C   0  0  0  0  0  0  0  0  0  0  0  0
   -2.3821    1.8289   14.3433 C   0  0  0  0  0  0  0  0  0  0  0  0
   -2.1453    1.3001   13.0867 O   0  0  0  0  0  0  0  0  0  0  0  0
   -1.3894    0.0856   13.0251 C   0  0  0  0  0  0  0  0  0  0  0  0
   -1.3220   -0.4349   11.6128 C   0  0  0  0  0  0  0  0  0  0  0  0
   -0.1762    0.1136   10.9549 N   0  0  0  0  0  0  0  0  0  0  0  0
   -0.1311   -0.0650    9.5349 C   0  0  0  0  0  0  0  0  0  0  0  0
    0.2449   -1.5293    9.2904 C   0  0  0  0  0  0  0  0  0  0  0  0
    1.5600   -1.8030    9.9566 C   0  0  0  0  0  0  0  0  0  0  0  0
    2.4815   -2.4337    9.1124 O   0  0  0  0  0  0  0  0  0  0  0  0
    3.6997   -2.8290    9.6327 C   0  0  0  0  0  0  0  0  0  0  0  0
    4.0731   -2.5371   10.9229 C   0  0  0  0  0  0  0  0  0  0  0  0
    5.3030   -2.9598   11.3828 C   0  0  0  0  0  0  0  0  0  0  0  0
    6.1485   -3.6675   10.5567 C   0  0  0  0  0  0  0  0  0  0  0  0
    5.7970   -3.9734    9.2572 C   0  0  0  0  0  0  0  0  0  0  0  0
    4.5534   -3.5385    8.8131 C   0  0  0  0  0  0  0  0  0  0  0  0
    4.4003   -3.9468    7.4969 C   0  0  0  0  0  0  0  0  0  0  0  0
    3.3605   -3.7866    6.5719 C   0  0  0  0  0  0  0  0  0  0  0  0
    3.5145   -4.3231    5.3094 C   0  0  0  0  0  0  0  0  0  0  0  0
    4.6610   -5.0024    4.9588 C   0  0  0  0  0  0  0  0  0  0  0  0
    5.6696   -5.1433    5.8960 C   0  0  0  0  0  0  0  0  0  0  0  0
    5.5633   -4.6186    7.1877 C   0  0  0  0  0  0  0  0  0  0  0  0
    6.3924   -4.6295    8.2457 N   0  0  0  0  0  0  0  0  0  0  0  0
    0.2487   -1.8368    7.9554 O   0  0  0  0  0  0  0  0  0  0  0  0
  1  2  1  0
  2  3  1  0
  3  4  2  0
  4  5  1  0
  5  6  2  0
  6  7  1  0
  7  8  2  0
  8  9  1  0
  9 10  1  0
 10 11  1  0
 11 12  1  0
 12 13  1  0
 13 14  1  0
 14 15  1  0
 15 16  1  0
 16 17  1  0
 17 18  2  0
 18 19  1  0
 19 20  2  0
 20 21  1  0
 21 22  2  0
 22 23  1  0
 23 24  2  0
 24 25  1  0
 25 26  2  0
 26 27  1  0
 27 28  2  0
 28 29  1  0
 14 30  1  0
  8  3  1  0
 22 17  1  0
 29 21  1  0
 28 23  1  0
M  END
$$$$
