
     RDKit          3D

 30 33  0  0  0  0  0  0  0  0999 V2000
    0.2006   -4.5703   14.3412 C   0  0  0  0  0  0  0  0  0  0  0  0
    0.1742   -3.3734   13.5876 O   0  0  0  0  0  0  0  0  0  0  0  0
   -0.8596   -2.4693   13.8455 C   0  0  0  0  0  0  0  0  0  0  0  0
   -1.7647   -2.6859   14.8597 C   0  0  0  0  0  0  0  0  0  0  0  0
   -2.7829   -1.7914   15.1104 C   0  0  0  0  0  0  0  0  0  0  0  0
   -2.9175   -0.6643   14.3543 C   0  0  0  0  0  0  0  0  0  0  0  0
   -2.0087   -0.4568   13.3437 C   0  0  0  0  0  0  0  0  0  0  0  0
   -0.9775   -1.3287   13.0633 C   0  0  0  0  0  0  0  0  0  0  0  0
   -0.0754   -1.0972   12.0399 O   0  0  0  0  0  0  0  0  0  0  0  0
   -0.3792   -0.0295   11.1355 C   0  0  0  0  0  0  0  0  0  0  0  0
    0.8442    0.3816   10.3581 C   0  0  0  0  0  0  0  0  0  0  0  0
    1.1479   -0.6177    9.3804 N   0  0  0  0  0  0  0  0  0  0  0  0
    0.1284   -0.8617    8.4051 C   0  0  0  0  0  0  0  0  0  0  0  0
    0.8472   -1.1408    7.0820 C   0  0  0  0  0  0  0  0  0  0  0  0
    1.3481   -2.5540    7.0987 C   0  0  0  0  0  0  0  0  0  0  0  0
    2.7093   -2.6496    7.4111 O   0  0  0  0  0  0  0  0  0  0  0  0
    3.4504   -3.6746    6.8535 C   0  0  0  0  0  0  0  0  0  0  0  0
    3.0921   -4.2765    5.6709 C   0  0  0  0  0  0  0  0  0  0  0  0
    3.8740   -5.2949    5.1665 C   0  0  0  0  0  0  0  0  0  0  0  0
    5.0028   -5.7044    5.8417 C   0  0  0  0  0  0  0  0  0  0  0  0
    5.3842   -5.1163    7.0310 C   0  0  0  0  0  0  0  0  0  0  0  0
    4.5829   -4.0919    7.5223 C   0  0  0  0  0  0  0  0  0  0  0  0
    5.1385   -3.6443    8.7113 C   0  0  0  0  0  0  0  0  0  0  0  0
    4.7562   -2.6465    9.6172 C   0  0  0  0  0  0  0  0  0  0  0  0
    5.5390   -2.4377   10.7349 C   0  0  0  0  0  0  0  0  0  0  0  0
    6.6719   -3.1885   10.9619 C   0  0  0  0  0  0  0  0  0  0  0  0
    7.0220   -4.1666   10.0474 C   0  0  0  0  0  0  0  0  0  0  0  0
    6.2634   -4.4179    8.9001 C   0  0  0  0  0  0  0  0  0  0  0  0
    6.4024   -5.2951    7.8910 N   0  0  0  0  0  0  0  0  0  0  0  0
    1.8380   -0.2263    6.8392 O   0  0  0  0  0  0  0  0  0  0  0  0
  1  2  1  0
  2  3  1  0
  3  4  2  0
  4  5  1  0
  5  6  2  0
  6  7  1  0
  7  8  2  0
  8  9  1  0
  9 10  1  0
 10 11  1  0
 11 12  1  0
 12 13  1  0
 13 14  1  0
 14 15  1  0
 15 16  1  0
 16 17  1  0
 17 18  2  0
 18 19  1  0
 19 20  2  0
 20 21  1  0
 21 22  2  0
 22 23  1  0
 23 24  2  0
 24 25  1  0
 25 26  2  0
 26 27  1  0
 27 28  2  0
 28 29  1  0
 14 30  1  0
  8  3  1  0
 22 17  1  0
 29 21  1  0
 28 23  1  0
M  END
$$$$
