
     RDKit          3D

 30 33  0  0  0  0  0  0  0  0999 V2000
    4.1295    0.8430   15.4564 C   0  0  0  0  0  0  0  0  0  0  0  0
    2.8817    0.6647   14.8143 O   0  0  0  0  0  0  0  0  0  0  0  0
    1.8966    1.6308   15.0353 C   0  0  0  0  0  0  0  0  0  0  0  0
    2.1088    2.6879   15.8908 C   0  0  0  0  0  0  0  0  0  0  0  0
    1.1341    3.6385   16.1059 C   0  0  0  0  0  0  0  0  0  0  0  0
   -0.0703    3.5525   15.4718 C   0  0  0  0  0  0  0  0  0  0  0  0
   -0.2727    2.4930   14.6191 C   0  0  0  0  0  0  0  0  0  0  0  0
    0.6781    1.5232   14.3790 C   0  0  0  0  0  0  0  0  0  0  0  0
    0.4498    0.4660   13.5160 O   0  0  0  0  0  0  0  0  0  0  0  0
   -0.8205    0.4287   12.8565 C   0  0  0  0  0  0  0  0  0  0  0  0
   -0.9918   -0.8579   12.0913 C   0  0  0  0  0  0  0  0  0  0  0  0
   -0.0484   -0.9048   11.0169 N   0  0  0  0  0  0  0  0  0  0  0  0
   -0.6019   -0.8035    9.7002 C   0  0  0  0  0  0  0  0  0  0  0  0
    0.3528   -1.5526    8.7660 C   0  0  0  0  0  0  0  0  0  0  0  0
    1.5867   -1.9176    9.5357 C   0  0  0  0  0  0  0  0  0  0  0  0
    2.5057   -2.6556    8.7805 O   0  0  0  0  0  0  0  0  0  0  0  0
    3.7086   -3.0141    9.3598 C   0  0  0  0  0  0  0  0  0  0  0  0
    4.0205   -2.6891   10.6584 C   0  0  0  0  0  0  0  0  0  0  0  0
    5.2382   -3.0758   11.1783 C   0  0  0  0  0  0  0  0  0  0  0  0
    6.1328   -3.7808   10.4033 C   0  0  0  0  0  0  0  0  0  0  0  0
    5.8437   -4.1194    9.0966 C   0  0  0  0  0  0  0  0  0  0  0  0
    4.6113   -3.7205    8.5916 C   0  0  0  0  0  0  0  0  0  0  0  0
    4.5230   -4.1576    7.2787 C   0  0  0  0  0  0  0  0  0  0  0  0
    3.5205   -4.0381    6.3075 C   0  0  0  0  0  0  0  0  0  0  0  0
    3.7394   -4.5956    5.0638 C   0  0  0  0  0  0  0  0  0  0  0  0
    4.9139   -5.2564    4.7758 C   0  0  0  0  0  0  0  0  0  0  0  0
    5.8844   -5.3569    5.7574 C   0  0  0  0  0  0  0  0  0  0  0  0
    5.7120   -4.8097    7.0326 C   0  0  0  0  0  0  0  0  0  0  0  0
    6.4953   -4.7820    8.1246 N   0  0  0  0  0  0  0  0  0  0  0  0
    0.6243   -0.8322    7.6328 O   0  0  0  0  0  0  0  0  0  0  0  0
  1  2  1  0
  2  3  1  0
  3  4  2  0
  4  5  1  0
  5  6  2  0
  6  7  1  0
  7  8  2  0
  8  9  1  0
  9 10  1  0
 10 11  1  0
 11 12  1  0
 12 13  1  0
 13 14  1  0
 14 15  1  0
 15 16  1  0
 16 17  1  0
 17 18  2  0
 18 19  1  0
 19 20  2  0
 20 21  1  0
 21 22  2  0
 22 23  1  0
 23 24  2  0
 24 25  1  0
 25 26  2  0
 26 27  1  0
 27 28  2  0
 28 29  1  0
 14 30  1  0
  8  3  1  0
 22 17  1  0
 29 21  1  0
 28 23  1  0
M  END
$$$$
