
     RDKit          3D

 30 33  0  0  0  0  0  0  0  0999 V2000
    2.1411   -2.3839   14.4724 C   0  0  0  0  0  0  0  0  0  0  0  0
    1.5791   -1.4772   13.5432 O   0  0  0  0  0  0  0  0  0  0  0  0
    1.3884   -0.1576   13.9616 C   0  0  0  0  0  0  0  0  0  0  0  0
    1.6578    0.2304   15.2544 C   0  0  0  0  0  0  0  0  0  0  0  0
    1.4681    1.5331   15.6626 C   0  0  0  0  0  0  0  0  0  0  0  0
    1.0062    2.4732   14.7891 C   0  0  0  0  0  0  0  0  0  0  0  0
    0.7400    2.0760   13.5000 C   0  0  0  0  0  0  0  0  0  0  0  0
    0.9174    0.7825   13.0553 C   0  0  0  0  0  0  0  0  0  0  0  0
    0.6418    0.4077   11.7522 O   0  0  0  0  0  0  0  0  0  0  0  0
    0.6339    1.4455   10.7658 C   0  0  0  0  0  0  0  0  0  0  0  0
    0.1981    0.9110    9.4262 C   0  0  0  0  0  0  0  0  0  0  0  0
    1.0640   -0.1576    9.0327 N   0  0  0  0  0  0  0  0  0  0  0  0
    0.4208   -1.4046    8.7472 C   0  0  0  0  0  0  0  0  0  0  0  0
    0.3567   -1.5241    7.2218 C   0  0  0  0  0  0  0  0  0  0  0  0
    1.7478   -1.7226    6.6988 C   0  0  0  0  0  0  0  0  0  0  0  0
    2.5611   -2.4578    7.5692 O   0  0  0  0  0  0  0  0  0  0  0  0
    3.6057   -3.1943    7.0425 C   0  0  0  0  0  0  0  0  0  0  0  0
    3.6693   -3.5234    5.7095 C   0  0  0  0  0  0  0  0  0  0  0  0
    4.7386   -4.2610    5.2456 C   0  0  0  0  0  0  0  0  0  0  0  0
    5.7327   -4.6640    6.1101 C   0  0  0  0  0  0  0  0  0  0  0  0
    5.6922   -4.3465    7.4530 C   0  0  0  0  0  0  0  0  0  0  0  0
    4.6064   -3.6024    7.9005 C   0  0  0  0  0  0  0  0  0  0  0  0
    4.7598   -3.3949    9.2629 C   0  0  0  0  0  0  0  0  0  0  0  0
    3.9785   -2.7216   10.2108 C   0  0  0  0  0  0  0  0  0  0  0  0
    4.4131   -2.6926   11.5207 C   0  0  0  0  0  0  0  0  0  0  0  0
    5.5872   -3.3089   11.8958 C   0  0  0  0  0  0  0  0  0  0  0  0
    6.3360   -3.9657   10.9349 C   0  0  0  0  0  0  0  0  0  0  0  0
    5.9399   -4.0245    9.5952 C   0  0  0  0  0  0  0  0  0  0  0  0
    6.4904   -4.5906    8.5073 N   0  0  0  0  0  0  0  0  0  0  0  0
   -0.2788   -0.4511    6.6543 O   0  0  0  0  0  0  0  0  0  0  0  0
  1  2  1  0
  2  3  1  0
  3  4  2  0
  4  5  1  0
  5  6  2  0
  6  7  1  0
  7  8  2  0
  8  9  1  0
  9 10  1  0
 10 11  1  0
 11 12  1  0
 12 13  1  0
 13 14  1  0
 14 15  1  0
 15 16  1  0
 16 17  1  0
 17 18  2  0
 18 19  1  0
 19 20  2  0
 20 21  1  0
 21 22  2  0
 22 23  1  0
 23 24  2  0
 24 25  1  0
 25 26  2  0
 26 27  1  0
 27 28  2  0
 28 29  1  0
 14 30  1  0
  8  3  1  0
 22 17  1  0
 29 21  1  0
 28 23  1  0
M  END
$$$$
