
     RDKit          3D

 30 33  0  0  0  0  0  0  0  0999 V2000
    0.1259    2.3544   14.5660 C   0  0  0  0  0  0  0  0  0  0  0  0
   -0.6537    1.5124   13.7387 O   0  0  0  0  0  0  0  0  0  0  0  0
   -2.0108    1.8161   13.6026 C   0  0  0  0  0  0  0  0  0  0  0  0
   -2.5844    2.8597   14.2927 C   0  0  0  0  0  0  0  0  0  0  0  0
   -3.9236    3.1555   14.1554 C   0  0  0  0  0  0  0  0  0  0  0  0
   -4.7157    2.4160   13.3274 C   0  0  0  0  0  0  0  0  0  0  0  0
   -4.1337    1.3757   12.6423 C   0  0  0  0  0  0  0  0  0  0  0  0
   -2.7982    1.0499   12.7540 C   0  0  0  0  0  0  0  0  0  0  0  0
   -2.2361   -0.0027   12.0535 O   0  0  0  0  0  0  0  0  0  0  0  0
   -3.0816   -0.6898   11.1246 C   0  0  0  0  0  0  0  0  0  0  0  0
   -2.3411   -1.8192   10.4567 C   0  0  0  0  0  0  0  0  0  0  0  0
   -1.0415   -1.3711   10.0605 N   0  0  0  0  0  0  0  0  0  0  0  0
   -0.9687   -0.7320    8.7813 C   0  0  0  0  0  0  0  0  0  0  0  0
    0.5073   -0.7376    8.3732 C   0  0  0  0  0  0  0  0  0  0  0  0
    1.0343   -2.1352    8.5043 C   0  0  0  0  0  0  0  0  0  0  0  0
    2.4326   -2.1984    8.4799 O   0  0  0  0  0  0  0  0  0  0  0  0
    3.0449   -3.0652    7.5941 C   0  0  0  0  0  0  0  0  0  0  0  0
    2.5180   -3.3362    6.3539 C   0  0  0  0  0  0  0  0  0  0  0  0
    3.1774   -4.2110    5.5157 C   0  0  0  0  0  0  0  0  0  0  0  0
    4.3523   -4.8073    5.9180 C   0  0  0  0  0  0  0  0  0  0  0  0
    4.9021   -4.5519    7.1583 C   0  0  0  0  0  0  0  0  0  0  0  0
    4.2224   -3.6673    7.9879 C   0  0  0  0  0  0  0  0  0  0  0  0
    4.9369   -3.5520    9.1706 C   0  0  0  0  0  0  0  0  0  0  0  0
    4.7194   -2.8094   10.3384 C   0  0  0  0  0  0  0  0  0  0  0  0
    5.6376   -2.9122   11.3641 C   0  0  0  0  0  0  0  0  0  0  0  0
    6.7453   -3.7240   11.2502 C   0  0  0  0  0  0  0  0  0  0  0  0
    6.9309   -4.4446   10.0833 C   0  0  0  0  0  0  0  0  0  0  0  0
    6.0308   -4.3758    9.0154 C   0  0  0  0  0  0  0  0  0  0  0  0
    6.0019   -4.9695    7.8097 N   0  0  0  0  0  0  0  0  0  0  0  0
    1.2355    0.1766    9.0879 O   0  0  0  0  0  0  0  0  0  0  0  0
  1  2  1  0
  2  3  1  0
  3  4  2  0
  4  5  1  0
  5  6  2  0
  6  7  1  0
  7  8  2  0
  8  9  1  0
  9 10  1  0
 10 11  1  0
 11 12  1  0
 12 13  1  0
 13 14  1  0
 14 15  1  0
 15 16  1  0
 16 17  1  0
 17 18  2  0
 18 19  1  0
 19 20  2  0
 20 21  1  0
 21 22  2  0
 22 23  1  0
 23 24  2  0
 24 25  1  0
 25 26  2  0
 26 27  1  0
 27 28  2  0
 28 29  1  0
 14 30  1  0
  8  3  1  0
 22 17  1  0
 29 21  1  0
 28 23  1  0
M  END
$$$$
