
     RDKit          3D

 30 33  0  0  0  0  0  0  0  0999 V2000
    4.0416   -0.7234   13.7197 C   0  0  0  0  0  0  0  0  0  0  0  0
    3.1942    0.2377   13.1201 O   0  0  0  0  0  0  0  0  0  0  0  0
    2.2174    0.8304   13.9245 C   0  0  0  0  0  0  0  0  0  0  0  0
    2.5002    1.2478   15.2053 C   0  0  0  0  0  0  0  0  0  0  0  0
    1.5335    1.8318   15.9952 C   0  0  0  0  0  0  0  0  0  0  0  0
    0.2667    2.0106   15.5226 C   0  0  0  0  0  0  0  0  0  0  0  0
   -0.0060    1.5906   14.2421 C   0  0  0  0  0  0  0  0  0  0  0  0
    0.9346    1.0025   13.4227 C   0  0  0  0  0  0  0  0  0  0  0  0
    0.6349    0.5880   12.1371 O   0  0  0  0  0  0  0  0  0  0  0  0
   -0.7228    0.7355   11.7070 C   0  0  0  0  0  0  0  0  0  0  0  0
   -0.9143    0.1663   10.3252 C   0  0  0  0  0  0  0  0  0  0  0  0
    0.3382   -0.3138    9.8277 N   0  0  0  0  0  0  0  0  0  0  0  0
    0.4262   -1.7293    9.6306 C   0  0  0  0  0  0  0  0  0  0  0  0
    0.1098   -1.9855    8.1543 C   0  0  0  0  0  0  0  0  0  0  0  0
    1.4010   -2.1504    7.4102 C   0  0  0  0  0  0  0  0  0  0  0  0
    2.1579   -3.2388    7.8598 O   0  0  0  0  0  0  0  0  0  0  0  0
    3.2647   -3.6280    7.1287 C   0  0  0  0  0  0  0  0  0  0  0  0
    3.2407   -3.7174    5.7574 C   0  0  0  0  0  0  0  0  0  0  0  0
    4.3790   -4.1123    5.0856 C   0  0  0  0  0  0  0  0  0  0  0  0
    5.5282   -4.4143    5.7827 C   0  0  0  0  0  0  0  0  0  0  0  0
    5.5782   -4.3325    7.1599 C   0  0  0  0  0  0  0  0  0  0  0  0
    4.4207   -3.9325    7.8179 C   0  0  0  0  0  0  0  0  0  0  0  0
    4.6841   -3.9160    9.1792 C   0  0  0  0  0  0  0  0  0  0  0  0
    3.8950   -3.5955   10.2914 C   0  0  0  0  0  0  0  0  0  0  0  0
    4.4625   -3.6790   11.5469 C   0  0  0  0  0  0  0  0  0  0  0  0
    5.7744   -4.0676   11.7115 C   0  0  0  0  0  0  0  0  0  0  0  0
    6.5270   -4.3774   10.5922 C   0  0  0  0  0  0  0  0  0  0  0  0
    5.9996   -4.3091    9.2990 C   0  0  0  0  0  0  0  0  0  0  0  0
    6.5261   -4.5561    8.0871 N   0  0  0  0  0  0  0  0  0  0  0  0
   -0.6880   -1.0041    7.6278 O   0  0  0  0  0  0  0  0  0  0  0  0
  1  2  1  0
  2  3  1  0
  3  4  2  0
  4  5  1  0
  5  6  2  0
  6  7  1  0
  7  8  2  0
  8  9  1  0
  9 10  1  0
 10 11  1  0
 11 12  1  0
 12 13  1  0
 13 14  1  0
 14 15  1  0
 15 16  1  0
 16 17  1  0
 17 18  2  0
 18 19  1  0
 19 20  2  0
 20 21  1  0
 21 22  2  0
 22 23  1  0
 23 24  2  0
 24 25  1  0
 25 26  2  0
 26 27  1  0
 27 28  2  0
 28 29  1  0
 14 30  1  0
  8  3  1  0
 22 17  1  0
 29 21  1  0
 28 23  1  0
M  END
$$$$
