
     RDKit          3D

 30 33  0  0  0  0  0  0  0  0999 V2000
   -3.5089   -2.4192   15.6828 C   0  0  0  0  0  0  0  0  0  0  0  0
   -3.0166   -1.3452   14.9049 O   0  0  0  0  0  0  0  0  0  0  0  0
   -3.9164   -0.3354   14.5535 C   0  0  0  0  0  0  0  0  0  0  0  0
   -5.1876   -0.2934   15.0796 C   0  0  0  0  0  0  0  0  0  0  0  0
   -6.0718    0.7045   14.7300 C   0  0  0  0  0  0  0  0  0  0  0  0
   -5.7048    1.6789   13.8492 C   0  0  0  0  0  0  0  0  0  0  0  0
   -4.4330    1.6284   13.3291 C   0  0  0  0  0  0  0  0  0  0  0  0
   -3.5213    0.6462   13.6550 C   0  0  0  0  0  0  0  0  0  0  0  0
   -2.2466    0.6173   13.1174 O   0  0  0  0  0  0  0  0  0  0  0  0
   -1.8789    1.7029   12.2593 C   0  0  0  0  0  0  0  0  0  0  0  0
   -0.3829    1.8791   12.2256 C   0  0  0  0  0  0  0  0  0  0  0  0
    0.2161    0.7580   11.5692 N   0  0  0  0  0  0  0  0  0  0  0  0
    1.0115   -0.0952   12.3997 C   0  0  0  0  0  0  0  0  0  0  0  0
    2.2028   -0.5458   11.5494 C   0  0  0  0  0  0  0  0  0  0  0  0
    1.6820   -1.2317   10.3220 C   0  0  0  0  0  0  0  0  0  0  0  0
    2.5935   -2.1421    9.7742 O   0  0  0  0  0  0  0  0  0  0  0  0
    2.4957   -2.4566    8.4316 C   0  0  0  0  0  0  0  0  0  0  0  0
    1.5748   -1.8576    7.6055 C   0  0  0  0  0  0  0  0  0  0  0  0
    1.5273   -2.2155    6.2742 C   0  0  0  0  0  0  0  0  0  0  0  0
    2.3944   -3.1640    5.7778 C   0  0  0  0  0  0  0  0  0  0  0  0
    3.3283   -3.7801    6.5865 C   0  0  0  0  0  0  0  0  0  0  0  0
    3.3600   -3.4054    7.9250 C   0  0  0  0  0  0  0  0  0  0  0  0
    4.3588   -4.1348    8.5519 C   0  0  0  0  0  0  0  0  0  0  0  0
    4.8225   -4.1617    9.8736 C   0  0  0  0  0  0  0  0  0  0  0  0
    5.8578   -5.0180   10.1903 C   0  0  0  0  0  0  0  0  0  0  0  0
    6.4281   -5.8307    9.2347 C   0  0  0  0  0  0  0  0  0  0  0  0
    5.9468   -5.7801    7.9380 C   0  0  0  0  0  0  0  0  0  0  0  0
    4.9003   -4.9307    7.5657 C   0  0  0  0  0  0  0  0  0  0  0  0
    4.2783   -4.7122    6.3943 N   0  0  0  0  0  0  0  0  0  0  0  0
    3.0737   -1.3233   12.2664 O   0  0  0  0  0  0  0  0  0  0  0  0
  1  2  1  0
  2  3  1  0
  3  4  2  0
  4  5  1  0
  5  6  2  0
  6  7  1  0
  7  8  2  0
  8  9  1  0
  9 10  1  0
 10 11  1  0
 11 12  1  0
 12 13  1  0
 13 14  1  0
 14 15  1  0
 15 16  1  0
 16 17  1  0
 17 18  2  0
 18 19  1  0
 19 20  2  0
 20 21  1  0
 21 22  2  0
 22 23  1  0
 23 24  2  0
 24 25  1  0
 25 26  2  0
 26 27  1  0
 27 28  2  0
 28 29  1  0
 14 30  1  0
  8  3  1  0
 22 17  1  0
 29 21  1  0
 28 23  1  0
M  END
$$$$
