
     RDKit          3D

 30 33  0  0  0  0  0  0  0  0999 V2000
   -5.4055   -1.0779   11.9290 C   0  0  0  0  0  0  0  0  0  0  0  0
   -4.2343   -0.5890   12.5539 O   0  0  0  0  0  0  0  0  0  0  0  0
   -4.3768    0.4644   13.4609 C   0  0  0  0  0  0  0  0  0  0  0  0
   -5.6098    1.0100   13.7377 C   0  0  0  0  0  0  0  0  0  0  0  0
   -5.7455    2.0490   14.6331 C   0  0  0  0  0  0  0  0  0  0  0  0
   -4.6542    2.5633   15.2692 C   0  0  0  0  0  0  0  0  0  0  0  0
   -3.4270    2.0116   14.9862 C   0  0  0  0  0  0  0  0  0  0  0  0
   -3.2521    0.9721   14.0968 C   0  0  0  0  0  0  0  0  0  0  0  0
   -2.0057    0.4342   13.8289 O   0  0  0  0  0  0  0  0  0  0  0  0
   -0.9005    0.9516   14.5778 C   0  0  0  0  0  0  0  0  0  0  0  0
    0.3779    0.2454   14.2074 C   0  0  0  0  0  0  0  0  0  0  0  0
    0.3159   -0.1707   12.8401 N   0  0  0  0  0  0  0  0  0  0  0  0
    1.0074    0.6648   11.9051 C   0  0  0  0  0  0  0  0  0  0  0  0
    2.1814   -0.1589   11.3681 C   0  0  0  0  0  0  0  0  0  0  0  0
    1.8097   -0.6987   10.0196 C   0  0  0  0  0  0  0  0  0  0  0  0
    2.6826   -1.6957    9.5684 O   0  0  0  0  0  0  0  0  0  0  0  0
    2.4801   -2.2409    8.3143 C   0  0  0  0  0  0  0  0  0  0  0  0
    1.5095   -1.7723    7.4612 C   0  0  0  0  0  0  0  0  0  0  0  0
    1.3574   -2.3595    6.2224 C   0  0  0  0  0  0  0  0  0  0  0  0
    2.1703   -3.4055    5.8442 C   0  0  0  0  0  0  0  0  0  0  0  0
    3.1523   -3.8945    6.6823 C   0  0  0  0  0  0  0  0  0  0  0  0
    3.2894   -3.2889    7.9262 C   0  0  0  0  0  0  0  0  0  0  0  0
    4.3208   -3.9234    8.6017 C   0  0  0  0  0  0  0  0  0  0  0  0
    4.8813   -3.7283    9.8707 C   0  0  0  0  0  0  0  0  0  0  0  0
    5.9240   -4.5438   10.2619 C   0  0  0  0  0  0  0  0  0  0  0  0
    6.4088   -5.5294    9.4297 C   0  0  0  0  0  0  0  0  0  0  0  0
    5.8331   -5.6963    8.1823 C   0  0  0  0  0  0  0  0  0  0  0  0
    4.7750   -4.8971    7.7385 C   0  0  0  0  0  0  0  0  0  0  0  0
    4.0708   -4.8726    6.5937 N   0  0  0  0  0  0  0  0  0  0  0  0
    2.5604   -1.1376   12.2488 O   0  0  0  0  0  0  0  0  0  0  0  0
  1  2  1  0
  2  3  1  0
  3  4  2  0
  4  5  1  0
  5  6  2  0
  6  7  1  0
  7  8  2  0
  8  9  1  0
  9 10  1  0
 10 11  1  0
 11 12  1  0
 12 13  1  0
 13 14  1  0
 14 15  1  0
 15 16  1  0
 16 17  1  0
 17 18  2  0
 18 19  1  0
 19 20  2  0
 20 21  1  0
 21 22  2  0
 22 23  1  0
 23 24  2  0
 24 25  1  0
 25 26  2  0
 26 27  1  0
 27 28  2  0
 28 29  1  0
 14 30  1  0
  8  3  1  0
 22 17  1  0
 29 21  1  0
 28 23  1  0
M  END
$$$$
