
     RDKit          3D

 30 33  0  0  0  0  0  0  0  0999 V2000
   -3.5727    3.4504   12.2052 C   0  0  0  0  0  0  0  0  0  0  0  0
   -2.9420    2.1997   12.0076 O   0  0  0  0  0  0  0  0  0  0  0  0
   -2.7684    1.3791   13.1252 C   0  0  0  0  0  0  0  0  0  0  0  0
   -3.1646    1.7835   14.3797 C   0  0  0  0  0  0  0  0  0  0  0  0
   -2.9913    0.9707   15.4793 C   0  0  0  0  0  0  0  0  0  0  0  0
   -2.4196   -0.2606   15.3482 C   0  0  0  0  0  0  0  0  0  0  0  0
   -2.0272   -0.6557   14.0910 C   0  0  0  0  0  0  0  0  0  0  0  0
   -2.1843    0.1296   12.9682 C   0  0  0  0  0  0  0  0  0  0  0  0
   -1.7806   -0.2910   11.7133 O   0  0  0  0  0  0  0  0  0  0  0  0
   -1.0477   -1.5191   11.6446 C   0  0  0  0  0  0  0  0  0  0  0  0
   -0.8504   -1.9484   10.2139 C   0  0  0  0  0  0  0  0  0  0  0  0
    0.4806   -1.6293    9.7978 N   0  0  0  0  0  0  0  0  0  0  0  0
    0.5853   -0.7894    8.6429 C   0  0  0  0  0  0  0  0  0  0  0  0
    0.2674   -1.6706    7.4314 C   0  0  0  0  0  0  0  0  0  0  0  0
    1.5556   -2.0480    6.7634 C   0  0  0  0  0  0  0  0  0  0  0  0
    2.4912   -2.5981    7.6475 O   0  0  0  0  0  0  0  0  0  0  0  0
    3.5256   -3.3583    7.1348 C   0  0  0  0  0  0  0  0  0  0  0  0
    3.5633   -3.7480    5.8172 C   0  0  0  0  0  0  0  0  0  0  0  0
    4.6236   -4.5066    5.3667 C   0  0  0  0  0  0  0  0  0  0  0  0
    5.6346   -4.8701    6.2291 C   0  0  0  0  0  0  0  0  0  0  0  0
    5.6202   -4.4916    7.5566 C   0  0  0  0  0  0  0  0  0  0  0  0
    4.5430   -3.7272    7.9907 C   0  0  0  0  0  0  0  0  0  0  0  0
    4.7229   -3.4578    9.3390 C   0  0  0  0  0  0  0  0  0  0  0  0
    3.9600   -2.7415   10.2703 C   0  0  0  0  0  0  0  0  0  0  0  0
    4.4201   -2.6529   11.5687 C   0  0  0  0  0  0  0  0  0  0  0  0
    5.6016   -3.2519   11.9486 C   0  0  0  0  0  0  0  0  0  0  0  0
    6.3317   -3.9523   11.0042 C   0  0  0  0  0  0  0  0  0  0  0  0
    5.9096   -4.0721    9.6766 C   0  0  0  0  0  0  0  0  0  0  0  0
    6.4389   -4.6875    8.6051 N   0  0  0  0  0  0  0  0  0  0  0  0
   -0.6176   -1.0635    6.5798 O   0  0  0  0  0  0  0  0  0  0  0  0
  1  2  1  0
  2  3  1  0
  3  4  2  0
  4  5  1  0
  5  6  2  0
  6  7  1  0
  7  8  2  0
  8  9  1  0
  9 10  1  0
 10 11  1  0
 11 12  1  0
 12 13  1  0
 13 14  1  0
 14 15  1  0
 15 16  1  0
 16 17  1  0
 17 18  2  0
 18 19  1  0
 19 20  2  0
 20 21  1  0
 21 22  2  0
 22 23  1  0
 23 24  2  0
 24 25  1  0
 25 26  2  0
 26 27  1  0
 27 28  2  0
 28 29  1  0
 14 30  1  0
  8  3  1  0
 22 17  1  0
 29 21  1  0
 28 23  1  0
M  END
$$$$
