
     RDKit          3D

 30 33  0  0  0  0  0  0  0  0999 V2000
   -3.8781    2.4698   11.9261 C   0  0  0  0  0  0  0  0  0  0  0  0
   -2.6111    1.8423   11.9730 O   0  0  0  0  0  0  0  0  0  0  0  0
   -1.9792    1.7530   13.2162 C   0  0  0  0  0  0  0  0  0  0  0  0
   -2.5813    2.2222   14.3615 C   0  0  0  0  0  0  0  0  0  0  0  0
   -1.9542    2.1321   15.5856 C   0  0  0  0  0  0  0  0  0  0  0  0
   -0.7149    1.5724   15.6902 C   0  0  0  0  0  0  0  0  0  0  0  0
   -0.1217    1.1066   14.5406 C   0  0  0  0  0  0  0  0  0  0  0  0
   -0.7179    1.1794   13.2990 C   0  0  0  0  0  0  0  0  0  0  0  0
   -0.0996    0.7033   12.1564 O   0  0  0  0  0  0  0  0  0  0  0  0
    0.7846   -0.4120   12.3131 C   0  0  0  0  0  0  0  0  0  0  0  0
    1.6105   -0.6224   11.0706 C   0  0  0  0  0  0  0  0  0  0  0  0
    0.7451   -0.8160    9.9480 N   0  0  0  0  0  0  0  0  0  0  0  0
    0.6289   -2.1639    9.4791 C   0  0  0  0  0  0  0  0  0  0  0  0
    0.1399   -2.0820    8.0302 C   0  0  0  0  0  0  0  0  0  0  0  0
    1.2527   -2.5176    7.1246 C   0  0  0  0  0  0  0  0  0  0  0  0
    2.3407   -3.0632    7.8161 O   0  0  0  0  0  0  0  0  0  0  0  0
    3.3411   -3.6896    7.0965 C   0  0  0  0  0  0  0  0  0  0  0  0
    3.2386   -3.9137    5.7443 C   0  0  0  0  0  0  0  0  0  0  0  0
    4.2720   -4.5445    5.0833 C   0  0  0  0  0  0  0  0  0  0  0  0
    5.3956   -4.9459    5.7720 C   0  0  0  0  0  0  0  0  0  0  0  0
    5.5230   -4.7325    7.1300 C   0  0  0  0  0  0  0  0  0  0  0  0
    4.4706   -4.0952    7.7774 C   0  0  0  0  0  0  0  0  0  0  0  0
    4.7984   -3.9803    9.1198 C   0  0  0  0  0  0  0  0  0  0  0  0
    4.1197   -3.4311   10.2154 C   0  0  0  0  0  0  0  0  0  0  0  0
    4.7279   -3.4718   11.4539 C   0  0  0  0  0  0  0  0  0  0  0  0
    5.9738   -4.0374   11.6177 C   0  0  0  0  0  0  0  0  0  0  0  0
    6.6177   -4.5714   10.5151 C   0  0  0  0  0  0  0  0  0  0  0  0
    6.0451   -4.5556    9.2395 C   0  0  0  0  0  0  0  0  0  0  0  0
    6.4704   -5.0025    8.0452 N   0  0  0  0  0  0  0  0  0  0  0  0
   -0.3393   -0.8353    7.7253 O   0  0  0  0  0  0  0  0  0  0  0  0
  1  2  1  0
  2  3  1  0
  3  4  2  0
  4  5  1  0
  5  6  2  0
  6  7  1  0
  7  8  2  0
  8  9  1  0
  9 10  1  0
 10 11  1  0
 11 12  1  0
 12 13  1  0
 13 14  1  0
 14 15  1  0
 15 16  1  0
 16 17  1  0
 17 18  2  0
 18 19  1  0
 19 20  2  0
 20 21  1  0
 21 22  2  0
 22 23  1  0
 23 24  2  0
 24 25  1  0
 25 26  2  0
 26 27  1  0
 27 28  2  0
 28 29  1  0
 14 30  1  0
  8  3  1  0
 22 17  1  0
 29 21  1  0
 28 23  1  0
M  END
$$$$
