
     RDKit          3D

 30 33  0  0  0  0  0  0  0  0999 V2000
   -4.0490   -2.0806   15.3205 C   0  0  0  0  0  0  0  0  0  0  0  0
   -3.3976   -1.3422   14.3048 O   0  0  0  0  0  0  0  0  0  0  0  0
   -2.9268   -0.0680   14.6323 C   0  0  0  0  0  0  0  0  0  0  0  0
   -3.1095    0.4624   15.8892 C   0  0  0  0  0  0  0  0  0  0  0  0
   -2.6434    1.7198   16.2078 C   0  0  0  0  0  0  0  0  0  0  0  0
   -1.9863    2.4717   15.2788 C   0  0  0  0  0  0  0  0  0  0  0  0
   -1.8086    1.9333   14.0262 C   0  0  0  0  0  0  0  0  0  0  0  0
   -2.2606    0.6796   13.6709 C   0  0  0  0  0  0  0  0  0  0  0  0
   -2.0693    0.1601   12.4028 O   0  0  0  0  0  0  0  0  0  0  0  0
   -1.4853    1.0292   11.4262 C   0  0  0  0  0  0  0  0  0  0  0  0
   -2.0193    0.7279   10.0499 C   0  0  0  0  0  0  0  0  0  0  0  0
   -1.3642   -0.4307    9.5255 N   0  0  0  0  0  0  0  0  0  0  0  0
   -0.4128   -0.1873    8.4834 C   0  0  0  0  0  0  0  0  0  0  0  0
    0.2686   -1.5275    8.1921 C   0  0  0  0  0  0  0  0  0  0  0  0
    1.3951   -1.7124    9.1642 C   0  0  0  0  0  0  0  0  0  0  0  0
    2.4948   -2.3775    8.6092 O   0  0  0  0  0  0  0  0  0  0  0  0
    3.5621   -2.6978    9.4273 C   0  0  0  0  0  0  0  0  0  0  0  0
    3.6518   -2.2466   10.7225 C   0  0  0  0  0  0  0  0  0  0  0  0
    4.7431   -2.6016   11.4879 C   0  0  0  0  0  0  0  0  0  0  0  0
    5.7332   -3.4003   10.9591 C   0  0  0  0  0  0  0  0  0  0  0  0
    5.6666   -3.8664    9.6613 C   0  0  0  0  0  0  0  0  0  0  0  0
    4.5588   -3.4975    8.9067 C   0  0  0  0  0  0  0  0  0  0  0  0
    4.6872   -4.0661    7.6485 C   0  0  0  0  0  0  0  0  0  0  0  0
    3.8772   -4.0277    6.5062 C   0  0  0  0  0  0  0  0  0  0  0  0
    4.2910   -4.7150    5.3828 C   0  0  0  0  0  0  0  0  0  0  0  0
    5.4720   -5.4250    5.3765 C   0  0  0  0  0  0  0  0  0  0  0  0
    6.2494   -5.4427    6.5215 C   0  0  0  0  0  0  0  0  0  0  0  0
    5.8754   -4.7634    7.6850 C   0  0  0  0  0  0  0  0  0  0  0  0
    6.4541   -4.6384    8.8919 N   0  0  0  0  0  0  0  0  0  0  0  0
    0.6706   -1.6197    6.8856 O   0  0  0  0  0  0  0  0  0  0  0  0
  1  2  1  0
  2  3  1  0
  3  4  2  0
  4  5  1  0
  5  6  2  0
  6  7  1  0
  7  8  2  0
  8  9  1  0
  9 10  1  0
 10 11  1  0
 11 12  1  0
 12 13  1  0
 13 14  1  0
 14 15  1  0
 15 16  1  0
 16 17  1  0
 17 18  2  0
 18 19  1  0
 19 20  2  0
 20 21  1  0
 21 22  2  0
 22 23  1  0
 23 24  2  0
 24 25  1  0
 25 26  2  0
 26 27  1  0
 27 28  2  0
 28 29  1  0
 14 30  1  0
  8  3  1  0
 22 17  1  0
 29 21  1  0
 28 23  1  0
M  END
$$$$
