
     RDKit          3D

 30 33  0  0  0  0  0  0  0  0999 V2000
   -4.5417    3.4666   11.5972 C   0  0  0  0  0  0  0  0  0  0  0  0
   -3.4870    2.5824   11.9242 O   0  0  0  0  0  0  0  0  0  0  0  0
   -2.7856    2.8223   13.1088 C   0  0  0  0  0  0  0  0  0  0  0  0
   -3.1310    3.8561   13.9493 C   0  0  0  0  0  0  0  0  0  0  0  0
   -2.4362    4.0891   15.1167 C   0  0  0  0  0  0  0  0  0  0  0  0
   -1.3841    3.2954   15.4676 C   0  0  0  0  0  0  0  0  0  0  0  0
   -1.0468    2.2654   14.6216 C   0  0  0  0  0  0  0  0  0  0  0  0
   -1.7180    2.0016   13.4460 C   0  0  0  0  0  0  0  0  0  0  0  0
   -1.3587    0.9584   12.6111 O   0  0  0  0  0  0  0  0  0  0  0  0
   -2.0675   -0.2753   12.7713 C   0  0  0  0  0  0  0  0  0  0  0  0
   -1.1705   -1.4520   12.4866 C   0  0  0  0  0  0  0  0  0  0  0  0
   -0.5536   -1.2847   11.2068 N   0  0  0  0  0  0  0  0  0  0  0  0
    0.0664   -2.4535   10.6591 C   0  0  0  0  0  0  0  0  0  0  0  0
   -0.3525   -2.5216    9.1877 C   0  0  0  0  0  0  0  0  0  0  0  0
    0.8496   -2.2459    8.3350 C   0  0  0  0  0  0  0  0  0  0  0  0
    1.9503   -3.0460    8.6638 O   0  0  0  0  0  0  0  0  0  0  0  0
    2.8207   -3.4269    7.6597 C   0  0  0  0  0  0  0  0  0  0  0  0
    2.4866   -3.3374    6.3295 C   0  0  0  0  0  0  0  0  0  0  0  0
    3.4000   -3.7341    5.3749 C   0  0  0  0  0  0  0  0  0  0  0  0
    4.6347   -4.2153    5.7515 C   0  0  0  0  0  0  0  0  0  0  0  0
    4.9944   -4.3151    7.0806 C   0  0  0  0  0  0  0  0  0  0  0  0
    4.0600   -3.9100    8.0269 C   0  0  0  0  0  0  0  0  0  0  0  0
    4.6161   -4.0896    9.2843 C   0  0  0  0  0  0  0  0  0  0  0  0
    4.1299   -3.8513   10.5763 C   0  0  0  0  0  0  0  0  0  0  0  0
    4.9469   -4.1410   11.6506 C   0  0  0  0  0  0  0  0  0  0  0  0
    6.2130   -4.6526   11.4655 C   0  0  0  0  0  0  0  0  0  0  0  0
    6.6634   -4.8765   10.1761 C   0  0  0  0  0  0  0  0  0  0  0  0
    5.8754   -4.6004    9.0545 C   0  0  0  0  0  0  0  0  0  0  0  0
    6.0930   -4.7319    7.7345 N   0  0  0  0  0  0  0  0  0  0  0  0
   -1.4015   -1.6825    8.9186 O   0  0  0  0  0  0  0  0  0  0  0  0
  1  2  1  0
  2  3  1  0
  3  4  2  0
  4  5  1  0
  5  6  2  0
  6  7  1  0
  7  8  2  0
  8  9  1  0
  9 10  1  0
 10 11  1  0
 11 12  1  0
 12 13  1  0
 13 14  1  0
 14 15  1  0
 15 16  1  0
 16 17  1  0
 17 18  2  0
 18 19  1  0
 19 20  2  0
 20 21  1  0
 21 22  2  0
 22 23  1  0
 23 24  2  0
 24 25  1  0
 25 26  2  0
 26 27  1  0
 27 28  2  0
 28 29  1  0
 14 30  1  0
  8  3  1  0
 22 17  1  0
 29 21  1  0
 28 23  1  0
M  END
$$$$
