
     RDKit          3D

 30 33  0  0  0  0  0  0  0  0999 V2000
   -2.1669    2.8365   15.4105 C   0  0  0  0  0  0  0  0  0  0  0  0
   -2.1929    1.8598   14.3875 O   0  0  0  0  0  0  0  0  0  0  0  0
   -3.1258    2.0240   13.3601 C   0  0  0  0  0  0  0  0  0  0  0  0
   -4.0169    3.0731   13.3621 C   0  0  0  0  0  0  0  0  0  0  0  0
   -4.9354    3.2309   12.3467 C   0  0  0  0  0  0  0  0  0  0  0  0
   -4.9823    2.3456   11.3103 C   0  0  0  0  0  0  0  0  0  0  0  0
   -4.0882    1.3012   11.3171 C   0  0  0  0  0  0  0  0  0  0  0  0
   -3.1555    1.1107   12.3151 C   0  0  0  0  0  0  0  0  0  0  0  0
   -2.2662    0.0508   12.2992 O   0  0  0  0  0  0  0  0  0  0  0  0
   -2.1495   -0.6807   11.0739 C   0  0  0  0  0  0  0  0  0  0  0  0
   -1.1233   -1.7769   11.1974 C   0  0  0  0  0  0  0  0  0  0  0  0
    0.1540   -1.2053   11.4947 N   0  0  0  0  0  0  0  0  0  0  0  0
    1.0421   -1.0573   10.3812 C   0  0  0  0  0  0  0  0  0  0  0  0
    2.3399   -0.4607   10.9336 C   0  0  0  0  0  0  0  0  0  0  0  0
    3.3121   -1.5754   11.1790 C   0  0  0  0  0  0  0  0  0  0  0  0
    3.7241   -2.2126   10.0025 O   0  0  0  0  0  0  0  0  0  0  0  0
    4.7717   -3.1124   10.0640 C   0  0  0  0  0  0  0  0  0  0  0  0
    5.5305   -3.2749   11.1985 C   0  0  0  0  0  0  0  0  0  0  0  0
    6.5629   -4.1897   11.1960 C   0  0  0  0  0  0  0  0  0  0  0  0
    6.8308   -4.9328   10.0673 C   0  0  0  0  0  0  0  0  0  0  0  0
    6.0837   -4.7884    8.9154 C   0  0  0  0  0  0  0  0  0  0  0  0
    5.0477   -3.8615    8.9386 C   0  0  0  0  0  0  0  0  0  0  0  0
    4.4314   -3.8748    7.6965 C   0  0  0  0  0  0  0  0  0  0  0  0
    3.3505   -3.1562    7.1694 C   0  0  0  0  0  0  0  0  0  0  0  0
    2.9683   -3.4043    5.8663 C   0  0  0  0  0  0  0  0  0  0  0  0
    3.6290   -4.3357    5.0949 C   0  0  0  0  0  0  0  0  0  0  0  0
    4.6930   -5.0286    5.6456 C   0  0  0  0  0  0  0  0  0  0  0  0
    5.1197   -4.8145    6.9599 C   0  0  0  0  0  0  0  0  0  0  0  0
    6.1056   -5.3555    7.6963 N   0  0  0  0  0  0  0  0  0  0  0  0
    2.1137    0.3049   12.0470 O   0  0  0  0  0  0  0  0  0  0  0  0
  1  2  1  0
  2  3  1  0
  3  4  2  0
  4  5  1  0
  5  6  2  0
  6  7  1  0
  7  8  2  0
  8  9  1  0
  9 10  1  0
 10 11  1  0
 11 12  1  0
 12 13  1  0
 13 14  1  0
 14 15  1  0
 15 16  1  0
 16 17  1  0
 17 18  2  0
 18 19  1  0
 19 20  2  0
 20 21  1  0
 21 22  2  0
 22 23  1  0
 23 24  2  0
 24 25  1  0
 25 26  2  0
 26 27  1  0
 27 28  2  0
 28 29  1  0
 14 30  1  0
  8  3  1  0
 22 17  1  0
 29 21  1  0
 28 23  1  0
M  END
$$$$
