
     RDKit          3D

 30 33  0  0  0  0  0  0  0  0999 V2000
   -1.1355    4.3095   15.2661 C   0  0  0  0  0  0  0  0  0  0  0  0
   -1.0206    3.0373   14.6584 O   0  0  0  0  0  0  0  0  0  0  0  0
   -2.1520    2.2172   14.6559 C   0  0  0  0  0  0  0  0  0  0  0  0
   -3.2746    2.5426   15.3828 C   0  0  0  0  0  0  0  0  0  0  0  0
   -4.3883    1.7305   15.3774 C   0  0  0  0  0  0  0  0  0  0  0  0
   -4.4032    0.5789   14.6470 C   0  0  0  0  0  0  0  0  0  0  0  0
   -3.2772    0.2624   13.9242 C   0  0  0  0  0  0  0  0  0  0  0  0
   -2.1449    1.0496   13.9051 C   0  0  0  0  0  0  0  0  0  0  0  0
   -1.0237    0.7089   13.1692 O   0  0  0  0  0  0  0  0  0  0  0  0
   -0.5547   -0.6388   13.2868 C   0  0  0  0  0  0  0  0  0  0  0  0
    0.6677   -0.8593   12.4338 C   0  0  0  0  0  0  0  0  0  0  0  0
    0.3089   -0.7713   11.0518 N   0  0  0  0  0  0  0  0  0  0  0  0
    0.9090   -1.7461   10.1915 C   0  0  0  0  0  0  0  0  0  0  0  0
    0.1663   -1.6654    8.8547 C   0  0  0  0  0  0  0  0  0  0  0  0
    1.1710   -1.7405    7.7442 C   0  0  0  0  0  0  0  0  0  0  0  0
    2.3883   -2.3050    8.1434 O   0  0  0  0  0  0  0  0  0  0  0  0
    3.1402   -2.9951    7.2110 C   0  0  0  0  0  0  0  0  0  0  0  0
    2.8175   -3.0064    5.8749 C   0  0  0  0  0  0  0  0  0  0  0  0
    3.6084   -3.7149    4.9944 C   0  0  0  0  0  0  0  0  0  0  0  0
    4.7105   -4.4045    5.4500 C   0  0  0  0  0  0  0  0  0  0  0  0
    5.0559   -4.4091    6.7866 C   0  0  0  0  0  0  0  0  0  0  0  0
    4.2462   -3.6889    7.6575 C   0  0  0  0  0  0  0  0  0  0  0  0
    4.7645   -3.8233    8.9366 C   0  0  0  0  0  0  0  0  0  0  0  0
    4.3593   -3.3188   10.1791 C   0  0  0  0  0  0  0  0  0  0  0  0
    5.1053   -3.6409   11.2950 C   0  0  0  0  0  0  0  0  0  0  0  0
    6.2243   -4.4394   11.1980 C   0  0  0  0  0  0  0  0  0  0  0  0
    6.5977   -4.9217    9.9557 C   0  0  0  0  0  0  0  0  0  0  0  0
    5.8765   -4.6252    8.7951 C   0  0  0  0  0  0  0  0  0  0  0  0
    6.0430   -4.9706    7.5067 N   0  0  0  0  0  0  0  0  0  0  0  0
   -0.6281   -0.5517    8.7811 O   0  0  0  0  0  0  0  0  0  0  0  0
  1  2  1  0
  2  3  1  0
  3  4  2  0
  4  5  1  0
  5  6  2  0
  6  7  1  0
  7  8  2  0
  8  9  1  0
  9 10  1  0
 10 11  1  0
 11 12  1  0
 12 13  1  0
 13 14  1  0
 14 15  1  0
 15 16  1  0
 16 17  1  0
 17 18  2  0
 18 19  1  0
 19 20  2  0
 20 21  1  0
 21 22  2  0
 22 23  1  0
 23 24  2  0
 24 25  1  0
 25 26  2  0
 26 27  1  0
 27 28  2  0
 28 29  1  0
 14 30  1  0
  8  3  1  0
 22 17  1  0
 29 21  1  0
 28 23  1  0
M  END
$$$$
