
     RDKit          3D

 30 33  0  0  0  0  0  0  0  0999 V2000
   -4.7756    4.0943   10.6233 C   0  0  0  0  0  0  0  0  0  0  0  0
   -3.8814    3.1253   11.1357 O   0  0  0  0  0  0  0  0  0  0  0  0
   -3.9733    2.8152   12.4952 C   0  0  0  0  0  0  0  0  0  0  0  0
   -4.9297    3.3929   13.2990 C   0  0  0  0  0  0  0  0  0  0  0  0
   -5.0164    3.0840   14.6395 C   0  0  0  0  0  0  0  0  0  0  0  0
   -4.1511    2.1933   15.2032 C   0  0  0  0  0  0  0  0  0  0  0  0
   -3.1994    1.6215   14.3922 C   0  0  0  0  0  0  0  0  0  0  0  0
   -3.0820    1.9057   13.0477 C   0  0  0  0  0  0  0  0  0  0  0  0
   -2.1149    1.3167   12.2525 O   0  0  0  0  0  0  0  0  0  0  0  0
   -1.3114    0.2963   12.8554 C   0  0  0  0  0  0  0  0  0  0  0  0
   -0.2912   -0.2313   11.8802 C   0  0  0  0  0  0  0  0  0  0  0  0
   -0.6483    0.1650   10.5528 N   0  0  0  0  0  0  0  0  0  0  0  0
   -0.9306   -0.9025    9.6412 C   0  0  0  0  0  0  0  0  0  0  0  0
    0.0876   -2.0082    9.9342 C   0  0  0  0  0  0  0  0  0  0  0  0
    0.7870   -2.3649    8.6568 C   0  0  0  0  0  0  0  0  0  0  0  0
    2.1107   -2.7761    8.8527 O   0  0  0  0  0  0  0  0  0  0  0  0
    2.8329   -3.2365    7.7677 C   0  0  0  0  0  0  0  0  0  0  0  0
    2.3252   -3.2184    6.4905 C   0  0  0  0  0  0  0  0  0  0  0  0
    3.0963   -3.6926    5.4497 C   0  0  0  0  0  0  0  0  0  0  0  0
    4.3627   -4.1797    5.6883 C   0  0  0  0  0  0  0  0  0  0  0  0
    4.8955   -4.2088    6.9616 C   0  0  0  0  0  0  0  0  0  0  0  0
    4.1025   -3.7262    7.9965 C   0  0  0  0  0  0  0  0  0  0  0  0
    4.8191   -3.8438    9.1777 C   0  0  0  0  0  0  0  0  0  0  0  0
    4.5139   -3.5177   10.5055 C   0  0  0  0  0  0  0  0  0  0  0  0
    5.4628   -3.7623   11.4778 C   0  0  0  0  0  0  0  0  0  0  0  0
    6.6845   -4.3139   11.1585 C   0  0  0  0  0  0  0  0  0  0  0  0
    6.9548   -4.6246    9.8372 C   0  0  0  0  0  0  0  0  0  0  0  0
    6.0282   -4.3970    8.8151 C   0  0  0  0  0  0  0  0  0  0  0  0
    6.0651   -4.6119    7.4886 N   0  0  0  0  0  0  0  0  0  0  0  0
   -0.4959   -3.0881   10.5427 O   0  0  0  0  0  0  0  0  0  0  0  0
  1  2  1  0
  2  3  1  0
  3  4  2  0
  4  5  1  0
  5  6  2  0
  6  7  1  0
  7  8  2  0
  8  9  1  0
  9 10  1  0
 10 11  1  0
 11 12  1  0
 12 13  1  0
 13 14  1  0
 14 15  1  0
 15 16  1  0
 16 17  1  0
 17 18  2  0
 18 19  1  0
 19 20  2  0
 20 21  1  0
 21 22  2  0
 22 23  1  0
 23 24  2  0
 24 25  1  0
 25 26  2  0
 26 27  1  0
 27 28  2  0
 28 29  1  0
 14 30  1  0
  8  3  1  0
 22 17  1  0
 29 21  1  0
 28 23  1  0
M  END
$$$$
