
     RDKit          3D

 30 33  0  0  0  0  0  0  0  0999 V2000
   -3.2805    1.3084   11.1083 C   0  0  0  0  0  0  0  0  0  0  0  0
   -2.0836    0.9574   11.7757 O   0  0  0  0  0  0  0  0  0  0  0  0
   -1.7299    1.7021   12.9040 C   0  0  0  0  0  0  0  0  0  0  0  0
   -2.5966    2.6147   13.4610 C   0  0  0  0  0  0  0  0  0  0  0  0
   -2.2433    3.3471   14.5739 C   0  0  0  0  0  0  0  0  0  0  0  0
   -1.0191    3.1830   15.1520 C   0  0  0  0  0  0  0  0  0  0  0  0
   -0.1603    2.2690   14.5884 C   0  0  0  0  0  0  0  0  0  0  0  0
   -0.4784    1.5185   13.4759 C   0  0  0  0  0  0  0  0  0  0  0  0
    0.4041    0.6048   12.9273 O   0  0  0  0  0  0  0  0  0  0  0  0
    1.3798    0.0356   13.8070 C   0  0  0  0  0  0  0  0  0  0  0  0
    2.2979   -0.8974   13.0606 C   0  0  0  0  0  0  0  0  0  0  0  0
    1.6167   -2.1267   12.7935 N   0  0  0  0  0  0  0  0  0  0  0  0
    2.0337   -2.8238   11.6144 C   0  0  0  0  0  0  0  0  0  0  0  0
    2.8678   -4.0188   12.0851 C   0  0  0  0  0  0  0  0  0  0  0  0
    3.9258   -4.2970   11.0598 C   0  0  0  0  0  0  0  0  0  0  0  0
    3.5039   -4.0340    9.7512 O   0  0  0  0  0  0  0  0  0  0  0  0
    4.3616   -4.3178    8.7049 C   0  0  0  0  0  0  0  0  0  0  0  0
    5.4385   -5.1595    8.8499 C   0  0  0  0  0  0  0  0  0  0  0  0
    6.2575   -5.4022    7.7668 C   0  0  0  0  0  0  0  0  0  0  0  0
    5.9984   -4.8066    6.5518 C   0  0  0  0  0  0  0  0  0  0  0  0
    4.9234   -3.9575    6.3802 C   0  0  0  0  0  0  0  0  0  0  0  0
    4.1103   -3.7262    7.4839 C   0  0  0  0  0  0  0  0  0  0  0  0
    3.1013   -2.8561    7.0995 C   0  0  0  0  0  0  0  0  0  0  0  0
    2.0223   -2.2936    7.7935 C   0  0  0  0  0  0  0  0  0  0  0  0
    1.1737   -1.4435    7.1131 C   0  0  0  0  0  0  0  0  0  0  0  0
    1.3759   -1.1498    5.7820 C   0  0  0  0  0  0  0  0  0  0  0  0
    2.4514   -1.7221    5.1253 C   0  0  0  0  0  0  0  0  0  0  0  0
    3.3400   -2.5891    5.7686 C   0  0  0  0  0  0  0  0  0  0  0  0
    4.4311   -3.2515    5.3471 N   0  0  0  0  0  0  0  0  0  0  0  0
    2.0850   -5.1105   12.3541 O   0  0  0  0  0  0  0  0  0  0  0  0
  1  2  1  0
  2  3  1  0
  3  4  2  0
  4  5  1  0
  5  6  2  0
  6  7  1  0
  7  8  2  0
  8  9  1  0
  9 10  1  0
 10 11  1  0
 11 12  1  0
 12 13  1  0
 13 14  1  0
 14 15  1  0
 15 16  1  0
 16 17  1  0
 17 18  2  0
 18 19  1  0
 19 20  2  0
 20 21  1  0
 21 22  2  0
 22 23  1  0
 23 24  2  0
 24 25  1  0
 25 26  2  0
 26 27  1  0
 27 28  2  0
 28 29  1  0
 14 30  1  0
  8  3  1  0
 22 17  1  0
 29 21  1  0
 28 23  1  0
M  END
$$$$
