
     RDKit          3D

 30 33  0  0  0  0  0  0  0  0999 V2000
   -3.4504    4.2311   14.4113 C   0  0  0  0  0  0  0  0  0  0  0  0
   -2.9346    2.9448   14.1273 O   0  0  0  0  0  0  0  0  0  0  0  0
   -3.8520    1.9107   13.9230 C   0  0  0  0  0  0  0  0  0  0  0  0
   -5.0968    1.9306   14.5100 C   0  0  0  0  0  0  0  0  0  0  0  0
   -5.9985    0.9083   14.3056 C   0  0  0  0  0  0  0  0  0  0  0  0
   -5.6756   -0.1527   13.5120 C   0  0  0  0  0  0  0  0  0  0  0  0
   -4.4299   -0.1635   12.9300 C   0  0  0  0  0  0  0  0  0  0  0  0
   -3.5019    0.8405   13.1111 C   0  0  0  0  0  0  0  0  0  0  0  0
   -2.2541    0.8062   12.5141 O   0  0  0  0  0  0  0  0  0  0  0  0
   -1.7592   -0.4774   12.1172 C   0  0  0  0  0  0  0  0  0  0  0  0
   -0.8695   -0.3601   10.9069 C   0  0  0  0  0  0  0  0  0  0  0  0
    0.4534   -0.0031   11.3182 N   0  0  0  0  0  0  0  0  0  0  0  0
    1.5001   -0.8657   10.8594 C   0  0  0  0  0  0  0  0  0  0  0  0
    2.8000   -0.3423   11.4770 C   0  0  0  0  0  0  0  0  0  0  0  0
    3.7905   -1.4666   11.5308 C   0  0  0  0  0  0  0  0  0  0  0  0
    3.8102   -2.2366   10.3619 O   0  0  0  0  0  0  0  0  0  0  0  0
    4.8236   -3.1608   10.1898 C   0  0  0  0  0  0  0  0  0  0  0  0
    5.7512   -3.4200   11.1705 C   0  0  0  0  0  0  0  0  0  0  0  0
    6.7388   -4.3542   10.9370 C   0  0  0  0  0  0  0  0  0  0  0  0
    6.7947   -5.0207    9.7325 C   0  0  0  0  0  0  0  0  0  0  0  0
    5.8753   -4.7786    8.7316 C   0  0  0  0  0  0  0  0  0  0  0  0
    4.8880   -3.8336    8.9868 C   0  0  0  0  0  0  0  0  0  0  0  0
    4.0777   -3.7451    7.8651 C   0  0  0  0  0  0  0  0  0  0  0  0
    2.9496   -2.9677    7.5723 C   0  0  0  0  0  0  0  0  0  0  0  0
    2.3525   -3.1141    6.3363 C   0  0  0  0  0  0  0  0  0  0  0  0
    2.8478   -4.0021    5.4063 C   0  0  0  0  0  0  0  0  0  0  0  0
    3.9638   -4.7553    5.7268 C   0  0  0  0  0  0  0  0  0  0  0  0
    4.6056   -4.6446    6.9642 C   0  0  0  0  0  0  0  0  0  0  0  0
    5.6798   -5.2577    7.4905 N   0  0  0  0  0  0  0  0  0  0  0  0
    2.5844    0.2380   12.6992 O   0  0  0  0  0  0  0  0  0  0  0  0
  1  2  1  0
  2  3  1  0
  3  4  2  0
  4  5  1  0
  5  6  2  0
  6  7  1  0
  7  8  2  0
  8  9  1  0
  9 10  1  0
 10 11  1  0
 11 12  1  0
 12 13  1  0
 13 14  1  0
 14 15  1  0
 15 16  1  0
 16 17  1  0
 17 18  2  0
 18 19  1  0
 19 20  2  0
 20 21  1  0
 21 22  2  0
 22 23  1  0
 23 24  2  0
 24 25  1  0
 25 26  2  0
 26 27  1  0
 27 28  2  0
 28 29  1  0
 14 30  1  0
  8  3  1  0
 22 17  1  0
 29 21  1  0
 28 23  1  0
M  END
$$$$
