
     RDKit          3D

 30 33  0  0  0  0  0  0  0  0999 V2000
   -5.3611   -1.2855   12.9759 C   0  0  0  0  0  0  0  0  0  0  0  0
   -4.1366   -0.6139   12.7508 O   0  0  0  0  0  0  0  0  0  0  0  0
   -4.1543    0.7833   12.7587 C   0  0  0  0  0  0  0  0  0  0  0  0
   -5.3069    1.4839   13.0333 C   0  0  0  0  0  0  0  0  0  0  0  0
   -5.3196    2.8621   13.0397 C   0  0  0  0  0  0  0  0  0  0  0  0
   -4.1833    3.5674   12.7726 C   0  0  0  0  0  0  0  0  0  0  0  0
   -3.0371    2.8587   12.4996 C   0  0  0  0  0  0  0  0  0  0  0  0
   -2.9858    1.4805   12.4839 C   0  0  0  0  0  0  0  0  0  0  0  0
   -1.8193    0.7903   12.2059 O   0  0  0  0  0  0  0  0  0  0  0  0
   -0.5855    1.4666   12.4716 C   0  0  0  0  0  0  0  0  0  0  0  0
    0.5259    0.4802   12.7205 C   0  0  0  0  0  0  0  0  0  0  0  0
    0.6508   -0.3939   11.5949 N   0  0  0  0  0  0  0  0  0  0  0  0
    1.3480   -1.6211   11.8365 C   0  0  0  0  0  0  0  0  0  0  0  0
    2.8312   -1.2628   11.9661 C   0  0  0  0  0  0  0  0  0  0  0  0
    3.6470   -2.4067   11.4426 C   0  0  0  0  0  0  0  0  0  0  0  0
    3.5960   -2.5239   10.0485 O   0  0  0  0  0  0  0  0  0  0  0  0
    4.4417   -3.4215    9.4240 C   0  0  0  0  0  0  0  0  0  0  0  0
    5.5230   -3.9758   10.0664 C   0  0  0  0  0  0  0  0  0  0  0  0
    6.3294   -4.8657    9.3877 C   0  0  0  0  0  0  0  0  0  0  0  0
    6.0536   -5.1952    8.0788 C   0  0  0  0  0  0  0  0  0  0  0  0
    4.9739   -4.6524    7.4113 C   0  0  0  0  0  0  0  0  0  0  0  0
    4.1736   -3.7580    8.1130 C   0  0  0  0  0  0  0  0  0  0  0  0
    3.1573   -3.3371    7.2688 C   0  0  0  0  0  0  0  0  0  0  0  0
    2.0850   -2.4534    7.4469 C   0  0  0  0  0  0  0  0  0  0  0  0
    1.2254   -2.2400    6.3880 C   0  0  0  0  0  0  0  0  0  0  0  0
    1.4103   -2.8775    5.1804 C   0  0  0  0  0  0  0  0  0  0  0  0
    2.4795   -3.7445    5.0371 C   0  0  0  0  0  0  0  0  0  0  0  0
    3.3788   -3.9950    6.0781 C   0  0  0  0  0  0  0  0  0  0  0  0
    4.4667   -4.7789    6.1724 N   0  0  0  0  0  0  0  0  0  0  0  0
    3.1600   -0.9164   13.2502 O   0  0  0  0  0  0  0  0  0  0  0  0
  1  2  1  0
  2  3  1  0
  3  4  2  0
  4  5  1  0
  5  6  2  0
  6  7  1  0
  7  8  2  0
  8  9  1  0
  9 10  1  0
 10 11  1  0
 11 12  1  0
 12 13  1  0
 13 14  1  0
 14 15  1  0
 15 16  1  0
 16 17  1  0
 17 18  2  0
 18 19  1  0
 19 20  2  0
 20 21  1  0
 21 22  2  0
 22 23  1  0
 23 24  2  0
 24 25  1  0
 25 26  2  0
 26 27  1  0
 27 28  2  0
 28 29  1  0
 14 30  1  0
  8  3  1  0
 22 17  1  0
 29 21  1  0
 28 23  1  0
M  END
$$$$
