
     RDKit          3D

 30 33  0  0  0  0  0  0  0  0999 V2000
    2.6928    1.4710   16.2395 C   0  0  0  0  0  0  0  0  0  0  0  0
    1.8102    1.4865   15.1341 O   0  0  0  0  0  0  0  0  0  0  0  0
    0.7173    2.3554   15.1912 C   0  0  0  0  0  0  0  0  0  0  0  0
    0.4981    3.1604   16.2859 C   0  0  0  0  0  0  0  0  0  0  0  0
   -0.5813    4.0158   16.3379 C   0  0  0  0  0  0  0  0  0  0  0  0
   -1.4624    4.0844   15.2991 C   0  0  0  0  0  0  0  0  0  0  0  0
   -1.2350    3.2764   14.2100 C   0  0  0  0  0  0  0  0  0  0  0  0
   -0.1667    2.4086   14.1222 C   0  0  0  0  0  0  0  0  0  0  0  0
    0.0401    1.6054   13.0147 O   0  0  0  0  0  0  0  0  0  0  0  0
   -0.7500    1.8841   11.8536 C   0  0  0  0  0  0  0  0  0  0  0  0
   -0.4548    0.8985   10.7528 C   0  0  0  0  0  0  0  0  0  0  0  0
    0.0270   -0.3229   11.3206 N   0  0  0  0  0  0  0  0  0  0  0  0
   -0.7644   -1.4860   11.0541 C   0  0  0  0  0  0  0  0  0  0  0  0
    0.2170   -2.6333   10.7980 C   0  0  0  0  0  0  0  0  0  0  0  0
    0.8632   -2.4206    9.4618 C   0  0  0  0  0  0  0  0  0  0  0  0
    2.1111   -3.0450    9.3506 O   0  0  0  0  0  0  0  0  0  0  0  0
    2.7070   -3.1260    8.1059 C   0  0  0  0  0  0  0  0  0  0  0  0
    2.1265   -2.5903    6.9810 C   0  0  0  0  0  0  0  0  0  0  0  0
    2.7720   -2.7047    5.7673 C   0  0  0  0  0  0  0  0  0  0  0  0
    3.9865   -3.3497    5.6838 C   0  0  0  0  0  0  0  0  0  0  0  0
    4.5904   -3.8962    6.7985 C   0  0  0  0  0  0  0  0  0  0  0  0
    3.9237   -3.7700    8.0120 C   0  0  0  0  0  0  0  0  0  0  0  0
    4.6940   -4.3793    8.9908 C   0  0  0  0  0  0  0  0  0  0  0  0
    4.5112   -4.5478   10.3694 C   0  0  0  0  0  0  0  0  0  0  0  0
    5.4842   -5.2159   11.0854 C   0  0  0  0  0  0  0  0  0  0  0  0
    6.6124   -5.7086   10.4663 C   0  0  0  0  0  0  0  0  0  0  0  0
    6.7627   -5.5254    9.1027 C   0  0  0  0  0  0  0  0  0  0  0  0
    5.8067   -4.8563    8.3322 C   0  0  0  0  0  0  0  0  0  0  0  0
    5.7364   -4.5631    7.0223 N   0  0  0  0  0  0  0  0  0  0  0  0
   -0.3908   -3.8561   10.9083 O   0  0  0  0  0  0  0  0  0  0  0  0
  1  2  1  0
  2  3  1  0
  3  4  2  0
  4  5  1  0
  5  6  2  0
  6  7  1  0
  7  8  2  0
  8  9  1  0
  9 10  1  0
 10 11  1  0
 11 12  1  0
 12 13  1  0
 13 14  1  0
 14 15  1  0
 15 16  1  0
 16 17  1  0
 17 18  2  0
 18 19  1  0
 19 20  2  0
 20 21  1  0
 21 22  2  0
 22 23  1  0
 23 24  2  0
 24 25  1  0
 25 26  2  0
 26 27  1  0
 27 28  2  0
 28 29  1  0
 14 30  1  0
  8  3  1  0
 22 17  1  0
 29 21  1  0
 28 23  1  0
M  END
$$$$
