
     RDKit          3D

 30 33  0  0  0  0  0  0  0  0999 V2000
    4.6521    1.9408   13.3109 C   0  0  0  0  0  0  0  0  0  0  0  0
    3.4639    1.3378   12.8355 O   0  0  0  0  0  0  0  0  0  0  0  0
    2.4753    1.0290   13.7735 C   0  0  0  0  0  0  0  0  0  0  0  0
    2.7377    1.0496   15.1245 C   0  0  0  0  0  0  0  0  0  0  0  0
    1.7593    0.7441   16.0461 C   0  0  0  0  0  0  0  0  0  0  0  0
    0.5012    0.4124   15.6376 C   0  0  0  0  0  0  0  0  0  0  0  0
    0.2488    0.3946   14.2861 C   0  0  0  0  0  0  0  0  0  0  0  0
    1.2015    0.6941   13.3349 C   0  0  0  0  0  0  0  0  0  0  0  0
    0.9224    0.6688   11.9799 O   0  0  0  0  0  0  0  0  0  0  0  0
   -0.3063    0.0512   11.5814 C   0  0  0  0  0  0  0  0  0  0  0  0
   -0.6246    0.3656   10.1426 C   0  0  0  0  0  0  0  0  0  0  0  0
    0.3380   -0.2630    9.2913 N   0  0  0  0  0  0  0  0  0  0  0  0
    0.0244   -1.5981    8.8796 C   0  0  0  0  0  0  0  0  0  0  0  0
    0.2626   -1.6566    7.3679 C   0  0  0  0  0  0  0  0  0  0  0  0
    1.7407   -1.6778    7.1171 C   0  0  0  0  0  0  0  0  0  0  0  0
    2.4006   -2.6966    7.8143 O   0  0  0  0  0  0  0  0  0  0  0  0
    3.4010   -3.4029    7.1729 C   0  0  0  0  0  0  0  0  0  0  0  0
    3.4387   -3.5392    5.8057 C   0  0  0  0  0  0  0  0  0  0  0  0
    4.4640   -4.2570    5.2259 C   0  0  0  0  0  0  0  0  0  0  0  0
    5.4403   -4.8318    6.0097 C   0  0  0  0  0  0  0  0  0  0  0  0
    5.4251   -4.7096    7.3847 C   0  0  0  0  0  0  0  0  0  0  0  0
    4.3835   -3.9822    7.9494 C   0  0  0  0  0  0  0  0  0  0  0  0
    4.5562   -3.9817    9.3252 C   0  0  0  0  0  0  0  0  0  0  0  0
    3.8180   -3.4123   10.3708 C   0  0  0  0  0  0  0  0  0  0  0  0
    4.2615   -3.5953   11.6652 C   0  0  0  0  0  0  0  0  0  0  0  0
    5.4031   -4.3196   11.9316 C   0  0  0  0  0  0  0  0  0  0  0  0
    6.1097   -4.8691   10.8760 C   0  0  0  0  0  0  0  0  0  0  0  0
    5.7029   -4.7133    9.5473 C   0  0  0  0  0  0  0  0  0  0  0  0
    6.2155   -5.1445    8.3819 N   0  0  0  0  0  0  0  0  0  0  0  0
   -0.3753   -0.6360    6.7132 O   0  0  0  0  0  0  0  0  0  0  0  0
  1  2  1  0
  2  3  1  0
  3  4  2  0
  4  5  1  0
  5  6  2  0
  6  7  1  0
  7  8  2  0
  8  9  1  0
  9 10  1  0
 10 11  1  0
 11 12  1  0
 12 13  1  0
 13 14  1  0
 14 15  1  0
 15 16  1  0
 16 17  1  0
 17 18  2  0
 18 19  1  0
 19 20  2  0
 20 21  1  0
 21 22  2  0
 22 23  1  0
 23 24  2  0
 24 25  1  0
 25 26  2  0
 26 27  1  0
 27 28  2  0
 28 29  1  0
 14 30  1  0
  8  3  1  0
 22 17  1  0
 29 21  1  0
 28 23  1  0
M  END
$$$$
