
     RDKit          3D

 30 33  0  0  0  0  0  0  0  0999 V2000
    3.7455    2.1723   14.7361 C   0  0  0  0  0  0  0  0  0  0  0  0
    2.6534    1.7363   13.9497 O   0  0  0  0  0  0  0  0  0  0  0  0
    1.4547    1.4512   14.6090 C   0  0  0  0  0  0  0  0  0  0  0  0
    1.3628    1.4987   15.9815 C   0  0  0  0  0  0  0  0  0  0  0  0
    0.1783    1.2167   16.6274 C   0  0  0  0  0  0  0  0  0  0  0  0
   -0.9365    0.8820   15.9166 C   0  0  0  0  0  0  0  0  0  0  0  0
   -0.8348    0.8373   14.5462 C   0  0  0  0  0  0  0  0  0  0  0  0
    0.3325    1.1129   13.8652 C   0  0  0  0  0  0  0  0  0  0  0  0
    0.4092    1.0608   12.4846 O   0  0  0  0  0  0  0  0  0  0  0  0
   -0.6103    0.3201   11.8050 C   0  0  0  0  0  0  0  0  0  0  0  0
   -0.4672    0.4538   10.3111 C   0  0  0  0  0  0  0  0  0  0  0  0
    0.7100   -0.2351    9.8797 N   0  0  0  0  0  0  0  0  0  0  0  0
    0.8584   -0.3832    8.4632 C   0  0  0  0  0  0  0  0  0  0  0  0
    0.4699   -1.8269    8.1316 C   0  0  0  0  0  0  0  0  0  0  0  0
    1.4975   -2.3967    7.2002 C   0  0  0  0  0  0  0  0  0  0  0  0
    2.3844   -3.2753    7.8335 O   0  0  0  0  0  0  0  0  0  0  0  0
    3.3738   -3.8804    7.0811 C   0  0  0  0  0  0  0  0  0  0  0  0
    3.2397   -4.0893    5.7292 C   0  0  0  0  0  0  0  0  0  0  0  0
    4.2636   -4.6990    5.0346 C   0  0  0  0  0  0  0  0  0  0  0  0
    5.4091   -5.0947    5.6896 C   0  0  0  0  0  0  0  0  0  0  0  0
    5.5683   -4.8963    7.0465 C   0  0  0  0  0  0  0  0  0  0  0  0
    4.5250   -4.2801    7.7282 C   0  0  0  0  0  0  0  0  0  0  0  0
    4.8854   -4.1775    9.0633 C   0  0  0  0  0  0  0  0  0  0  0  0
    4.2281   -3.6502   10.1824 C   0  0  0  0  0  0  0  0  0  0  0  0
    4.8680   -3.6984   11.4046 C   0  0  0  0  0  0  0  0  0  0  0  0
    6.1244   -4.2504   11.5298 C   0  0  0  0  0  0  0  0  0  0  0  0
    6.7465   -4.7628   10.4046 C   0  0  0  0  0  0  0  0  0  0  0  0
    6.1416   -4.7386    9.1442 C   0  0  0  0  0  0  0  0  0  0  0  0
    6.5419   -5.1656    7.9341 N   0  0  0  0  0  0  0  0  0  0  0  0
   -0.8044   -1.9089    7.6351 O   0  0  0  0  0  0  0  0  0  0  0  0
  1  2  1  0
  2  3  1  0
  3  4  2  0
  4  5  1  0
  5  6  2  0
  6  7  1  0
  7  8  2  0
  8  9  1  0
  9 10  1  0
 10 11  1  0
 11 12  1  0
 12 13  1  0
 13 14  1  0
 14 15  1  0
 15 16  1  0
 16 17  1  0
 17 18  2  0
 18 19  1  0
 19 20  2  0
 20 21  1  0
 21 22  2  0
 22 23  1  0
 23 24  2  0
 24 25  1  0
 25 26  2  0
 26 27  1  0
 27 28  2  0
 28 29  1  0
 14 30  1  0
  8  3  1  0
 22 17  1  0
 29 21  1  0
 28 23  1  0
M  END
$$$$
