
     RDKit          3D

 30 33  0  0  0  0  0  0  0  0999 V2000
   -1.2672    3.8236   15.0831 C   0  0  0  0  0  0  0  0  0  0  0  0
   -1.5091    3.1740   13.8499 O   0  0  0  0  0  0  0  0  0  0  0  0
   -2.8084    3.2215   13.3379 C   0  0  0  0  0  0  0  0  0  0  0  0
   -3.8056    3.9222   13.9775 C   0  0  0  0  0  0  0  0  0  0  0  0
   -5.0858    3.9661   13.4687 C   0  0  0  0  0  0  0  0  0  0  0  0
   -5.3954    3.3121   12.3127 C   0  0  0  0  0  0  0  0  0  0  0  0
   -4.3926    2.6150   11.6811 C   0  0  0  0  0  0  0  0  0  0  0  0
   -3.1008    2.5483   12.1596 C   0  0  0  0  0  0  0  0  0  0  0  0
   -2.1090    1.8394   11.5051 O   0  0  0  0  0  0  0  0  0  0  0  0
   -2.4909    1.1306   10.3211 C   0  0  0  0  0  0  0  0  0  0  0  0
   -1.3002    0.4566    9.6901 C   0  0  0  0  0  0  0  0  0  0  0  0
   -0.5768   -0.2694   10.6881 N   0  0  0  0  0  0  0  0  0  0  0  0
   -0.7454   -1.6911   10.6658 C   0  0  0  0  0  0  0  0  0  0  0  0
    0.6601   -2.2984   10.6954 C   0  0  0  0  0  0  0  0  0  0  0  0
    1.1897   -2.3469    9.2935 C   0  0  0  0  0  0  0  0  0  0  0  0
    2.4839   -2.8745    9.2141 O   0  0  0  0  0  0  0  0  0  0  0  0
    3.0465   -3.0748    7.9674 C   0  0  0  0  0  0  0  0  0  0  0  0
    2.4133   -2.6911    6.8093 C   0  0  0  0  0  0  0  0  0  0  0  0
    3.0277   -2.9192    5.5955 C   0  0  0  0  0  0  0  0  0  0  0  0
    4.2636   -3.5257    5.5448 C   0  0  0  0  0  0  0  0  0  0  0  0
    4.9202   -3.9204    6.6932 C   0  0  0  0  0  0  0  0  0  0  0  0
    4.2843   -3.6814    7.9062 C   0  0  0  0  0  0  0  0  0  0  0  0
    5.1057   -4.1479    8.9213 C   0  0  0  0  0  0  0  0  0  0  0  0
    4.9694   -4.1655   10.3154 C   0  0  0  0  0  0  0  0  0  0  0  0
    5.9880   -4.7129   11.0693 C   0  0  0  0  0  0  0  0  0  0  0  0
    7.1164   -5.2320   10.4725 C   0  0  0  0  0  0  0  0  0  0  0  0
    7.2201   -5.1993    9.0928 C   0  0  0  0  0  0  0  0  0  0  0  0
    6.2169   -4.6564    8.2841 C   0  0  0  0  0  0  0  0  0  0  0  0
    6.0975   -4.5162    6.9525 N   0  0  0  0  0  0  0  0  0  0  0  0
    0.6724   -3.5212   11.3130 O   0  0  0  0  0  0  0  0  0  0  0  0
  1  2  1  0
  2  3  1  0
  3  4  2  0
  4  5  1  0
  5  6  2  0
  6  7  1  0
  7  8  2  0
  8  9  1  0
  9 10  1  0
 10 11  1  0
 11 12  1  0
 12 13  1  0
 13 14  1  0
 14 15  1  0
 15 16  1  0
 16 17  1  0
 17 18  2  0
 18 19  1  0
 19 20  2  0
 20 21  1  0
 21 22  2  0
 22 23  1  0
 23 24  2  0
 24 25  1  0
 25 26  2  0
 26 27  1  0
 27 28  2  0
 28 29  1  0
 14 30  1  0
  8  3  1  0
 22 17  1  0
 29 21  1  0
 28 23  1  0
M  END
$$$$
