
     RDKit          3D

 25 28  0  0  0  0  0  0  0  0999 V2000
    2.2745    0.4414    6.0406 C   0  0  0  0  0  0  0  0  0  0  0  0
    3.4623    0.1552    6.6752 C   0  0  0  0  0  0  0  0  0  0  0  0
    3.5733    0.9461    7.7296 O   0  0  0  0  0  0  0  0  0  0  0  0
    2.5528    1.7351    7.8455 C   0  0  0  0  0  0  0  0  0  0  0  0
    1.6962    1.4480    6.7871 C   0  0  0  0  0  0  0  0  0  0  0  0
    2.3430    2.7326    8.8858 C   0  0  0  0  0  0  0  0  0  0  0  0
    3.0464    2.8806   10.0198 N   0  0  0  0  0  0  0  0  0  0  0  0
    2.5678    3.8938   10.7233 N   0  0  0  0  0  0  0  0  0  0  0  0
    2.9261    4.4373   11.9181 C   0  0  0  0  0  0  0  0  0  0  0  0
    2.2468    5.4788   12.3888 N   0  0  0  0  0  0  0  0  0  0  0  0
    1.2156    6.0369   11.7534 C   0  0  0  0  0  0  0  0  0  0  0  0
    0.8649    5.4977   10.5746 N   0  0  0  0  0  0  0  0  0  0  0  0
    1.5381    4.4286   10.0581 C   0  0  0  0  0  0  0  0  0  0  0  0
    1.3996    3.7141    8.9272 N   0  0  0  0  0  0  0  0  0  0  0  0
    0.5545    7.1480   12.3370 N   0  0  0  0  0  0  0  0  0  0  0  0
    0.9540    7.7694   13.5558 C   0  0  0  0  0  0  0  0  0  0  0  0
    2.2312    8.5362   13.5271 C   0  0  0  0  0  0  0  0  0  0  0  0
    2.8806    8.7013   14.8267 C   0  0  0  0  0  0  0  0  0  0  0  0
    4.1118    8.2026   15.1484 C   0  0  0  0  0  0  0  0  0  0  0  0
    4.6829    8.4001   16.4000 C   0  0  0  0  0  0  0  0  0  0  0  0
    4.0150    9.1150   17.3689 C   0  0  0  0  0  0  0  0  0  0  0  0
    2.7742    9.6295   17.0766 C   0  0  0  0  0  0  0  0  0  0  0  0
    2.2377    9.4213   15.8417 C   0  0  0  0  0  0  0  0  0  0  0  0
    4.6163    9.2964   18.6178 O   0  0  0  0  0  0  0  0  0  0  0  0
    4.0152    3.8388   12.5866 N   0  0  0  0  0  0  0  0  0  0  0  0
  1  2  2  0
  2  3  1  0
  3  4  1  0
  4  5  2  0
  4  6  1  0
  6  7  2  0
  7  8  1  0
  8  9  1  0
  9 10  2  0
 10 11  1  0
 11 12  2  0
 12 13  1  0
 13 14  2  0
 11 15  1  0
 15 16  1  0
 16 17  1  0
 17 18  1  0
 18 19  2  0
 19 20  1  0
 20 21  2  0
 21 22  1  0
 22 23  2  0
 21 24  1  0
  9 25  1  0
  5  1  1  0
 14  6  1  0
 13  8  1  0
 23 18  1  0
M  END
$$$$
