
     RDKit          3D

 25 28  0  0  0  0  0  0  0  0999 V2000
    0.7178    1.4637    6.5706 C   0  0  0  0  0  0  0  0  0  0  0  0
    1.8711    0.7589    6.8322 C   0  0  0  0  0  0  0  0  0  0  0  0
    2.4586    1.2968    7.8882 O   0  0  0  0  0  0  0  0  0  0  0  0
    1.7864    2.3035    8.3488 C   0  0  0  0  0  0  0  0  0  0  0  0
    0.6651    2.4473    7.5373 C   0  0  0  0  0  0  0  0  0  0  0  0
    2.1381    3.1273    9.4970 C   0  0  0  0  0  0  0  0  0  0  0  0
    3.0238    2.8348   10.4629 N   0  0  0  0  0  0  0  0  0  0  0  0
    3.0800    3.8214   11.3427 N   0  0  0  0  0  0  0  0  0  0  0  0
    3.8076    4.0039   12.4780 C   0  0  0  0  0  0  0  0  0  0  0  0
    3.6524    5.1242   13.1769 N   0  0  0  0  0  0  0  0  0  0  0  0
    2.8127    6.1008   12.8312 C   0  0  0  0  0  0  0  0  0  0  0  0
    2.0964    5.9171   11.7102 N   0  0  0  0  0  0  0  0  0  0  0  0
    2.2280    4.7809   10.9655 C   0  0  0  0  0  0  0  0  0  0  0  0
    1.6483    4.3539    9.8296 N   0  0  0  0  0  0  0  0  0  0  0  0
    2.7187    7.2606   13.6424 N   0  0  0  0  0  0  0  0  0  0  0  0
    1.7642    8.3008   13.4471 C   0  0  0  0  0  0  0  0  0  0  0  0
    0.6071    8.3300   14.3852 C   0  0  0  0  0  0  0  0  0  0  0  0
    0.0788    9.6631   14.6715 C   0  0  0  0  0  0  0  0  0  0  0  0
   -0.9419    9.9232   15.5423 C   0  0  0  0  0  0  0  0  0  0  0  0
   -1.3960   11.2150   15.7809 C   0  0  0  0  0  0  0  0  0  0  0  0
   -0.8223   12.2883   15.1368 C   0  0  0  0  0  0  0  0  0  0  0  0
    0.2065   12.0598   14.2543 C   0  0  0  0  0  0  0  0  0  0  0  0
    0.6323   10.7837   14.0391 C   0  0  0  0  0  0  0  0  0  0  0  0
   -1.3014   13.5753   15.3984 O   0  0  0  0  0  0  0  0  0  0  0  0
    4.6908    2.9645   12.8398 N   0  0  0  0  0  0  0  0  0  0  0  0
  1  2  2  0
  2  3  1  0
  3  4  1  0
  4  5  2  0
  4  6  1  0
  6  7  2  0
  7  8  1  0
  8  9  1  0
  9 10  2  0
 10 11  1  0
 11 12  2  0
 12 13  1  0
 13 14  2  0
 11 15  1  0
 15 16  1  0
 16 17  1  0
 17 18  1  0
 18 19  2  0
 19 20  1  0
 20 21  2  0
 21 22  1  0
 22 23  2  0
 21 24  1  0
  9 25  1  0
  5  1  1  0
 14  6  1  0
 13  8  1  0
 23 18  1  0
M  END
$$$$
