
     RDKit          3D

 25 28  0  0  0  0  0  0  0  0999 V2000
    1.9874    0.1293    6.3602 C   0  0  0  0  0  0  0  0  0  0  0  0
    3.1028   -0.2417    7.0769 C   0  0  0  0  0  0  0  0  0  0  0  0
    3.1903    0.5345    8.1444 O   0  0  0  0  0  0  0  0  0  0  0  0
    2.2208    1.3920    8.1934 C   0  0  0  0  0  0  0  0  0  0  0  0
    1.4266    1.1701    7.0725 C   0  0  0  0  0  0  0  0  0  0  0  0
    2.0044    2.3966    9.2253 C   0  0  0  0  0  0  0  0  0  0  0  0
    2.6954    2.5475   10.3665 N   0  0  0  0  0  0  0  0  0  0  0  0
    2.2142    3.5673   11.0585 N   0  0  0  0  0  0  0  0  0  0  0  0
    2.5616    4.1159   12.2543 C   0  0  0  0  0  0  0  0  0  0  0  0
    1.8825    5.1638   12.7110 N   0  0  0  0  0  0  0  0  0  0  0  0
    0.8619    5.7237   12.0604 C   0  0  0  0  0  0  0  0  0  0  0  0
    0.5219    5.1795   10.8808 N   0  0  0  0  0  0  0  0  0  0  0  0
    1.1952    4.1038   10.3784 C   0  0  0  0  0  0  0  0  0  0  0  0
    1.0660    3.3834    9.2500 N   0  0  0  0  0  0  0  0  0  0  0  0
    0.2001    6.8417   12.6298 N   0  0  0  0  0  0  0  0  0  0  0  0
    0.6372    7.5195   13.8049 C   0  0  0  0  0  0  0  0  0  0  0  0
    1.8522    8.3714   13.6715 C   0  0  0  0  0  0  0  0  0  0  0  0
    2.6147    8.5556   14.9054 C   0  0  0  0  0  0  0  0  0  0  0  0
    3.7059    7.8138   15.2620 C   0  0  0  0  0  0  0  0  0  0  0  0
    4.3971    8.0418   16.4460 C   0  0  0  0  0  0  0  0  0  0  0  0
    3.9969    9.0371   17.3092 C   0  0  0  0  0  0  0  0  0  0  0  0
    2.9025    9.8007   16.9795 C   0  0  0  0  0  0  0  0  0  0  0  0
    2.2434    9.5562   15.8126 C   0  0  0  0  0  0  0  0  0  0  0  0
    4.7132    9.2416   18.4922 O   0  0  0  0  0  0  0  0  0  0  0  0
    3.6397    3.5155   12.9388 N   0  0  0  0  0  0  0  0  0  0  0  0
  1  2  2  0
  2  3  1  0
  3  4  1  0
  4  5  2  0
  4  6  1  0
  6  7  2  0
  7  8  1  0
  8  9  1  0
  9 10  2  0
 10 11  1  0
 11 12  2  0
 12 13  1  0
 13 14  2  0
 11 15  1  0
 15 16  1  0
 16 17  1  0
 17 18  1  0
 18 19  2  0
 19 20  1  0
 20 21  2  0
 21 22  1  0
 22 23  2  0
 21 24  1  0
  9 25  1  0
  5  1  1  0
 14  6  1  0
 13  8  1  0
 23 18  1  0
M  END
$$$$
