
     RDKit          3D

 25 28  0  0  0  0  0  0  0  0999 V2000
    3.3281   -0.2189    7.5925 C   0  0  0  0  0  0  0  0  0  0  0  0
    2.1579   -0.1223    6.8735 C   0  0  0  0  0  0  0  0  0  0  0  0
    1.5119    0.9613    7.2713 O   0  0  0  0  0  0  0  0  0  0  0  0
    2.1606    1.5921    8.1978 C   0  0  0  0  0  0  0  0  0  0  0  0
    3.3285    0.8738    8.4357 C   0  0  0  0  0  0  0  0  0  0  0  0
    1.7458    2.8194    8.8633 C   0  0  0  0  0  0  0  0  0  0  0  0
    0.5736    3.4593    8.7252 N   0  0  0  0  0  0  0  0  0  0  0  0
    0.5532    4.5412    9.4865 N   0  0  0  0  0  0  0  0  0  0  0  0
   -0.3864    5.5025    9.6974 C   0  0  0  0  0  0  0  0  0  0  0  0
   -0.1228    6.4957   10.5412 N   0  0  0  0  0  0  0  0  0  0  0  0
    1.0261    6.6138   11.2078 C   0  0  0  0  0  0  0  0  0  0  0  0
    1.9509    5.6632   10.9971 N   0  0  0  0  0  0  0  0  0  0  0  0
    1.7175    4.6278   10.1390 C   0  0  0  0  0  0  0  0  0  0  0  0
    2.4516    3.5682    9.7556 N   0  0  0  0  0  0  0  0  0  0  0  0
    1.2128    7.7101   12.0884 N   0  0  0  0  0  0  0  0  0  0  0  0
    2.3041    7.8323   12.9970 C   0  0  0  0  0  0  0  0  0  0  0  0
    2.0402    7.4502   14.4127 C   0  0  0  0  0  0  0  0  0  0  0  0
    3.1766    7.6152   15.3179 C   0  0  0  0  0  0  0  0  0  0  0  0
    3.7236    8.8184   15.6661 C   0  0  0  0  0  0  0  0  0  0  0  0
    4.7999    8.9133   16.5403 C   0  0  0  0  0  0  0  0  0  0  0  0
    5.3565    7.7803   17.0903 C   0  0  0  0  0  0  0  0  0  0  0  0
    4.8292    6.5546   16.7597 C   0  0  0  0  0  0  0  0  0  0  0  0
    3.7740    6.4902   15.9006 C   0  0  0  0  0  0  0  0  0  0  0  0
    6.4382    7.9092   17.9665 O   0  0  0  0  0  0  0  0  0  0  0  0
   -1.5977    5.3731    8.9853 N   0  0  0  0  0  0  0  0  0  0  0  0
  1  2  2  0
  2  3  1  0
  3  4  1  0
  4  5  2  0
  4  6  1  0
  6  7  2  0
  7  8  1  0
  8  9  1  0
  9 10  2  0
 10 11  1  0
 11 12  2  0
 12 13  1  0
 13 14  2  0
 11 15  1  0
 15 16  1  0
 16 17  1  0
 17 18  1  0
 18 19  2  0
 19 20  1  0
 20 21  2  0
 21 22  1  0
 22 23  2  0
 21 24  1  0
  9 25  1  0
  5  1  1  0
 14  6  1  0
 13  8  1  0
 23 18  1  0
M  END
$$$$
