
     RDKit          3D

 25 28  0  0  0  0  0  0  0  0999 V2000
    1.7560   -0.1895    6.7174 C   0  0  0  0  0  0  0  0  0  0  0  0
    2.9758   -0.4916    7.2798 C   0  0  0  0  0  0  0  0  0  0  0  0
    3.2206    0.3837    8.2408 O   0  0  0  0  0  0  0  0  0  0  0  0
    2.2596    1.2435    8.3612 C   0  0  0  0  0  0  0  0  0  0  0  0
    1.3009    0.9160    7.4071 C   0  0  0  0  0  0  0  0  0  0  0  0
    2.1956    2.3433    9.3137 C   0  0  0  0  0  0  0  0  0  0  0  0
    3.0145    2.5615   10.3552 N   0  0  0  0  0  0  0  0  0  0  0  0
    2.6502    3.6588   10.9984 N   0  0  0  0  0  0  0  0  0  0  0  0
    3.1482    4.2933   12.0943 C   0  0  0  0  0  0  0  0  0  0  0  0
    2.5623    5.4070   12.5233 N   0  0  0  0  0  0  0  0  0  0  0  0
    1.4962    5.9540   11.9379 C   0  0  0  0  0  0  0  0  0  0  0  0
    1.0076    5.3250   10.8567 N   0  0  0  0  0  0  0  0  0  0  0  0
    1.5817    4.1798   10.3856 C   0  0  0  0  0  0  0  0  0  0  0  0
    1.3018    3.3704    9.3488 N   0  0  0  0  0  0  0  0  0  0  0  0
    0.9425    7.1466   12.4702 N   0  0  0  0  0  0  0  0  0  0  0  0
    1.5411    7.9135   13.5118 C   0  0  0  0  0  0  0  0  0  0  0  0
    1.4236    7.3693   14.8937 C   0  0  0  0  0  0  0  0  0  0  0  0
    2.2900    8.0078   15.8836 C   0  0  0  0  0  0  0  0  0  0  0  0
    3.6479    7.8620   15.9361 C   0  0  0  0  0  0  0  0  0  0  0  0
    4.4213    8.5027   16.8968 C   0  0  0  0  0  0  0  0  0  0  0  0
    3.8336    9.3161   17.8396 C   0  0  0  0  0  0  0  0  0  0  0  0
    2.4694    9.4831   17.8139 C   0  0  0  0  0  0  0  0  0  0  0  0
    1.7351    8.8436   16.8612 C   0  0  0  0  0  0  0  0  0  0  0  0
    4.6389    9.9467   18.7926 O   0  0  0  0  0  0  0  0  0  0  0  0
    4.2736    3.7064   12.7108 N   0  0  0  0  0  0  0  0  0  0  0  0
  1  2  2  0
  2  3  1  0
  3  4  1  0
  4  5  2  0
  4  6  1  0
  6  7  2  0
  7  8  1  0
  8  9  1  0
  9 10  2  0
 10 11  1  0
 11 12  2  0
 12 13  1  0
 13 14  2  0
 11 15  1  0
 15 16  1  0
 16 17  1  0
 17 18  1  0
 18 19  2  0
 19 20  1  0
 20 21  2  0
 21 22  1  0
 22 23  2  0
 21 24  1  0
  9 25  1  0
  5  1  1  0
 14  6  1  0
 13  8  1  0
 23 18  1  0
M  END
$$$$
