
     RDKit          3D

 25 28  0  0  0  0  0  0  0  0999 V2000
    1.2791    0.1475    6.8189 C   0  0  0  0  0  0  0  0  0  0  0  0
    2.4204   -0.3311    7.4222 C   0  0  0  0  0  0  0  0  0  0  0  0
    2.7614    0.5024    8.3910 O   0  0  0  0  0  0  0  0  0  0  0  0
    1.9366    1.4971    8.4789 C   0  0  0  0  0  0  0  0  0  0  0  0
    0.9721    1.3121    7.4930 C   0  0  0  0  0  0  0  0  0  0  0  0
    2.0063    2.5987    9.4288 C   0  0  0  0  0  0  0  0  0  0  0  0
    2.7932    2.6845   10.5134 N   0  0  0  0  0  0  0  0  0  0  0  0
    2.5835    3.8318   11.1382 N   0  0  0  0  0  0  0  0  0  0  0  0
    3.1211    4.3819   12.2606 C   0  0  0  0  0  0  0  0  0  0  0  0
    2.7073    5.5808   12.6597 N   0  0  0  0  0  0  0  0  0  0  0  0
    1.7804    6.2939   12.0187 C   0  0  0  0  0  0  0  0  0  0  0  0
    1.2523    5.7477   10.9115 N   0  0  0  0  0  0  0  0  0  0  0  0
    1.6513    4.5195   10.4698 C   0  0  0  0  0  0  0  0  0  0  0  0
    1.2961    3.7608    9.4177 N   0  0  0  0  0  0  0  0  0  0  0  0
    1.4061    7.5659   12.5228 N   0  0  0  0  0  0  0  0  0  0  0  0
    1.9029    8.1259   13.7356 C   0  0  0  0  0  0  0  0  0  0  0  0
    0.9748    8.1245   14.9011 C   0  0  0  0  0  0  0  0  0  0  0  0
    0.9295    9.3766   15.6548 C   0  0  0  0  0  0  0  0  0  0  0  0
    0.1695   10.4605   15.3149 C   0  0  0  0  0  0  0  0  0  0  0  0
    0.1606   11.6227   16.0771 C   0  0  0  0  0  0  0  0  0  0  0  0
    0.9296   11.7188   17.2152 C   0  0  0  0  0  0  0  0  0  0  0  0
    1.7056   10.6458   17.5840 C   0  0  0  0  0  0  0  0  0  0  0  0
    1.6954    9.5186   16.8190 C   0  0  0  0  0  0  0  0  0  0  0  0
    0.8987   12.9012   17.9605 O   0  0  0  0  0  0  0  0  0  0  0  0
    4.0980    3.6197   12.9358 N   0  0  0  0  0  0  0  0  0  0  0  0
  1  2  2  0
  2  3  1  0
  3  4  1  0
  4  5  2  0
  4  6  1  0
  6  7  2  0
  7  8  1  0
  8  9  1  0
  9 10  2  0
 10 11  1  0
 11 12  2  0
 12 13  1  0
 13 14  2  0
 11 15  1  0
 15 16  1  0
 16 17  1  0
 17 18  1  0
 18 19  2  0
 19 20  1  0
 20 21  2  0
 21 22  1  0
 22 23  2  0
 21 24  1  0
  9 25  1  0
  5  1  1  0
 14  6  1  0
 13  8  1  0
 23 18  1  0
M  END
$$$$
