
     RDKit          3D

 25 28  0  0  0  0  0  0  0  0999 V2000
    1.5499   -0.2600    6.9655 C   0  0  0  0  0  0  0  0  0  0  0  0
    2.7679   -0.5517    7.5373 C   0  0  0  0  0  0  0  0  0  0  0  0
    3.0152    0.3482    8.4747 O   0  0  0  0  0  0  0  0  0  0  0  0
    2.0575    1.2148    8.5707 C   0  0  0  0  0  0  0  0  0  0  0  0
    1.0986    0.8655    7.6247 C   0  0  0  0  0  0  0  0  0  0  0  0
    1.9969    2.3400    9.4932 C   0  0  0  0  0  0  0  0  0  0  0  0
    2.8152    2.5826   10.5298 N   0  0  0  0  0  0  0  0  0  0  0  0
    2.4548    3.6984   11.1426 N   0  0  0  0  0  0  0  0  0  0  0  0
    2.9539    4.3600   12.2219 C   0  0  0  0  0  0  0  0  0  0  0  0
    2.3722    5.4874   12.6198 N   0  0  0  0  0  0  0  0  0  0  0  0
    1.3094    6.0231   12.0181 C   0  0  0  0  0  0  0  0  0  0  0  0
    0.8197    5.3673   10.9535 N   0  0  0  0  0  0  0  0  0  0  0  0
    1.3895    4.2074   10.5143 C   0  0  0  0  0  0  0  0  0  0  0  0
    1.1076    3.3716    9.4991 N   0  0  0  0  0  0  0  0  0  0  0  0
    0.7602    7.2319   12.5172 N   0  0  0  0  0  0  0  0  0  0  0  0
    1.3447    8.0081   13.5599 C   0  0  0  0  0  0  0  0  0  0  0  0
    1.0665    7.5684   14.9560 C   0  0  0  0  0  0  0  0  0  0  0  0
    1.9197    8.1767   15.9758 C   0  0  0  0  0  0  0  0  0  0  0  0
    3.0525    7.6042   16.4828 C   0  0  0  0  0  0  0  0  0  0  0  0
    3.8297    8.2360   17.4464 C   0  0  0  0  0  0  0  0  0  0  0  0
    3.4762    9.4770   17.9269 C   0  0  0  0  0  0  0  0  0  0  0  0
    2.3419   10.0796   17.4372 C   0  0  0  0  0  0  0  0  0  0  0  0
    1.5984    9.4382   16.4929 C   0  0  0  0  0  0  0  0  0  0  0  0
    4.2790   10.0864   18.8958 O   0  0  0  0  0  0  0  0  0  0  0  0
    4.0757    3.7849   12.8559 N   0  0  0  0  0  0  0  0  0  0  0  0
  1  2  2  0
  2  3  1  0
  3  4  1  0
  4  5  2  0
  4  6  1  0
  6  7  2  0
  7  8  1  0
  8  9  1  0
  9 10  2  0
 10 11  1  0
 11 12  2  0
 12 13  1  0
 13 14  2  0
 11 15  1  0
 15 16  1  0
 16 17  1  0
 17 18  1  0
 18 19  2  0
 19 20  1  0
 20 21  2  0
 21 22  1  0
 22 23  2  0
 21 24  1  0
  9 25  1  0
  5  1  1  0
 14  6  1  0
 13  8  1  0
 23 18  1  0
M  END
$$$$
