
     RDKit          3D

 25 28  0  0  0  0  0  0  0  0999 V2000
    3.1070   -0.0634    6.9940 C   0  0  0  0  0  0  0  0  0  0  0  0
    2.0101    0.4759    6.3603 C   0  0  0  0  0  0  0  0  0  0  0  0
    1.6163    1.5397    7.0406 O   0  0  0  0  0  0  0  0  0  0  0  0
    2.3650    1.7496    8.0763 C   0  0  0  0  0  0  0  0  0  0  0  0
    3.3319    0.7489    8.0869 C   0  0  0  0  0  0  0  0  0  0  0  0
    2.2214    2.8279    9.0447 C   0  0  0  0  0  0  0  0  0  0  0  0
    2.9460    3.0176   10.1590 N   0  0  0  0  0  0  0  0  0  0  0  0
    2.5306    4.1022   10.7928 N   0  0  0  0  0  0  0  0  0  0  0  0
    2.9323    4.7088   11.9427 C   0  0  0  0  0  0  0  0  0  0  0  0
    2.3150    5.8159   12.3440 N   0  0  0  0  0  0  0  0  0  0  0  0
    1.3068    6.3822   11.6797 C   0  0  0  0  0  0  0  0  0  0  0  0
    0.9132    5.7808   10.5454 N   0  0  0  0  0  0  0  0  0  0  0  0
    1.5222    4.6432   10.1004 C   0  0  0  0  0  0  0  0  0  0  0  0
    1.3319    3.8591    9.0245 N   0  0  0  0  0  0  0  0  0  0  0  0
    0.7129    7.5657   12.1884 N   0  0  0  0  0  0  0  0  0  0  0  0
    1.2543    8.3399   13.2556 C   0  0  0  0  0  0  0  0  0  0  0  0
    0.8826    7.9245   14.6373 C   0  0  0  0  0  0  0  0  0  0  0  0
    1.9446    8.0707   15.6318 C   0  0  0  0  0  0  0  0  0  0  0  0
    3.2497    8.3515   15.3385 C   0  0  0  0  0  0  0  0  0  0  0  0
    4.2147    8.4881   16.3293 C   0  0  0  0  0  0  0  0  0  0  0  0
    3.8800    8.3420   17.6569 C   0  0  0  0  0  0  0  0  0  0  0  0
    2.5754    8.0589   17.9848 C   0  0  0  0  0  0  0  0  0  0  0  0
    1.6494    7.9305   16.9938 C   0  0  0  0  0  0  0  0  0  0  0  0
    4.8736    8.4856   18.6298 O   0  0  0  0  0  0  0  0  0  0  0  0
    3.9966    4.1015   12.6423 N   0  0  0  0  0  0  0  0  0  0  0  0
  1  2  2  0
  2  3  1  0
  3  4  1  0
  4  5  2  0
  4  6  1  0
  6  7  2  0
  7  8  1  0
  8  9  1  0
  9 10  2  0
 10 11  1  0
 11 12  2  0
 12 13  1  0
 13 14  2  0
 11 15  1  0
 15 16  1  0
 16 17  1  0
 17 18  1  0
 18 19  2  0
 19 20  1  0
 20 21  2  0
 21 22  1  0
 22 23  2  0
 21 24  1  0
  9 25  1  0
  5  1  1  0
 14  6  1  0
 13  8  1  0
 23 18  1  0
M  END
$$$$
