
     RDKit          3D

 25 28  0  0  0  0  0  0  0  0999 V2000
    2.5707    0.0470    6.6177 C   0  0  0  0  0  0  0  0  0  0  0  0
    3.7170    0.0641    7.3800 C   0  0  0  0  0  0  0  0  0  0  0  0
    3.5789    0.9836    8.3209 O   0  0  0  0  0  0  0  0  0  0  0  0
    2.4312    1.5787    8.2436 C   0  0  0  0  0  0  0  0  0  0  0  0
    1.7526    1.0123    7.1688 C   0  0  0  0  0  0  0  0  0  0  0  0
    1.9447    2.6386    9.1158 C   0  0  0  0  0  0  0  0  0  0  0  0
    2.5395    3.1148   10.2214 N   0  0  0  0  0  0  0  0  0  0  0  0
    1.8042    4.0764   10.7555 N   0  0  0  0  0  0  0  0  0  0  0  0
    1.9684    4.8588   11.8565 C   0  0  0  0  0  0  0  0  0  0  0  0
    1.0427    5.7656   12.1540 N   0  0  0  0  0  0  0  0  0  0  0  0
   -0.0592    5.9622   11.4290 C   0  0  0  0  0  0  0  0  0  0  0  0
   -0.2178    5.1882   10.3432 N   0  0  0  0  0  0  0  0  0  0  0  0
    0.7106    4.2467   10.0047 C   0  0  0  0  0  0  0  0  0  0  0  0
    0.7969    3.3620    8.9954 N   0  0  0  0  0  0  0  0  0  0  0  0
   -0.9889    6.9567   11.8275 N   0  0  0  0  0  0  0  0  0  0  0  0
   -0.7465    7.9163   12.8531 C   0  0  0  0  0  0  0  0  0  0  0  0
    0.0720    9.1032   12.4770 C   0  0  0  0  0  0  0  0  0  0  0  0
    0.9721    9.5878   13.5225 C   0  0  0  0  0  0  0  0  0  0  0  0
    0.5759    9.9634   14.7755 C   0  0  0  0  0  0  0  0  0  0  0  0
    1.4807   10.4082   15.7322 C   0  0  0  0  0  0  0  0  0  0  0  0
    2.8244   10.4853   15.4418 C   0  0  0  0  0  0  0  0  0  0  0  0
    3.2549   10.1150   14.1900 C   0  0  0  0  0  0  0  0  0  0  0  0
    2.3469    9.6824   13.2712 C   0  0  0  0  0  0  0  0  0  0  0  0
    3.7092   10.9365   16.4257 O   0  0  0  0  0  0  0  0  0  0  0  0
    3.1345    4.6421   12.6210 N   0  0  0  0  0  0  0  0  0  0  0  0
  1  2  2  0
  2  3  1  0
  3  4  1  0
  4  5  2  0
  4  6  1  0
  6  7  2  0
  7  8  1  0
  8  9  1  0
  9 10  2  0
 10 11  1  0
 11 12  2  0
 12 13  1  0
 13 14  2  0
 11 15  1  0
 15 16  1  0
 16 17  1  0
 17 18  1  0
 18 19  2  0
 19 20  1  0
 20 21  2  0
 21 22  1  0
 22 23  2  0
 21 24  1  0
  9 25  1  0
  5  1  1  0
 14  6  1  0
 13  8  1  0
 23 18  1  0
M  END
$$$$
