
     RDKit          3D

 25 28  0  0  0  0  0  0  0  0999 V2000
    1.1523    1.2670    6.6725 C   0  0  0  0  0  0  0  0  0  0  0  0
    2.1936    0.5292    7.1889 C   0  0  0  0  0  0  0  0  0  0  0  0
    2.6155    1.1197    8.2948 O   0  0  0  0  0  0  0  0  0  0  0  0
    1.9365    2.1917    8.5538 C   0  0  0  0  0  0  0  0  0  0  0  0
    0.9896    2.3257    7.5429 C   0  0  0  0  0  0  0  0  0  0  0  0
    2.1283    3.0858    9.6873 C   0  0  0  0  0  0  0  0  0  0  0  0
    2.8951    2.8703   10.7682 N   0  0  0  0  0  0  0  0  0  0  0  0
    2.8233    3.9042   11.5906 N   0  0  0  0  0  0  0  0  0  0  0  0
    3.4028    4.1676   12.7932 C   0  0  0  0  0  0  0  0  0  0  0  0
    3.1405    5.3195   13.4032 N   0  0  0  0  0  0  0  0  0  0  0  0
    2.3296    6.2528   12.9033 C   0  0  0  0  0  0  0  0  0  0  0  0
    1.7596    5.9892   11.7163 N   0  0  0  0  0  0  0  0  0  0  0  0
    2.0044    4.8183   11.0591 C   0  0  0  0  0  0  0  0  0  0  0  0
    1.5766    4.3148    9.8876 N   0  0  0  0  0  0  0  0  0  0  0  0
    2.1136    7.4518   13.6297 N   0  0  0  0  0  0  0  0  0  0  0  0
    1.3402    8.5500   13.1530 C   0  0  0  0  0  0  0  0  0  0  0  0
   -0.1230    8.3177   12.9955 C   0  0  0  0  0  0  0  0  0  0  0  0
   -0.7975    9.2338   12.0769 C   0  0  0  0  0  0  0  0  0  0  0  0
   -2.1230    9.1695   11.7501 C   0  0  0  0  0  0  0  0  0  0  0  0
   -2.7114   10.0759   10.8760 C   0  0  0  0  0  0  0  0  0  0  0  0
   -1.9649   11.0814   10.3037 C   0  0  0  0  0  0  0  0  0  0  0  0
   -0.6284   11.1729   10.6119 C   0  0  0  0  0  0  0  0  0  0  0  0
   -0.0770   10.2716   11.4719 C   0  0  0  0  0  0  0  0  0  0  0  0
   -2.5860   11.9774    9.4287 O   0  0  0  0  0  0  0  0  0  0  0  0
    4.2561    3.1738   13.3179 N   0  0  0  0  0  0  0  0  0  0  0  0
  1  2  2  0
  2  3  1  0
  3  4  1  0
  4  5  2  0
  4  6  1  0
  6  7  2  0
  7  8  1  0
  8  9  1  0
  9 10  2  0
 10 11  1  0
 11 12  2  0
 12 13  1  0
 13 14  2  0
 11 15  1  0
 15 16  1  0
 16 17  1  0
 17 18  1  0
 18 19  2  0
 19 20  1  0
 20 21  2  0
 21 22  1  0
 22 23  2  0
 21 24  1  0
  9 25  1  0
  5  1  1  0
 14  6  1  0
 13  8  1  0
 23 18  1  0
M  END
$$$$
