
     RDKit          3D

 25 28  0  0  0  0  0  0  0  0999 V2000
    2.1780   -0.0887    6.6360 C   0  0  0  0  0  0  0  0  0  0  0  0
    3.3097   -0.4059    7.3531 C   0  0  0  0  0  0  0  0  0  0  0  0
    3.3982    0.4220    8.3810 O   0  0  0  0  0  0  0  0  0  0  0  0
    2.4146    1.2642    8.4032 C   0  0  0  0  0  0  0  0  0  0  0  0
    1.6088    0.9753    7.3060 C   0  0  0  0  0  0  0  0  0  0  0  0
    2.1947    2.3133    9.3891 C   0  0  0  0  0  0  0  0  0  0  0  0
    2.8618    2.4961   10.5399 N   0  0  0  0  0  0  0  0  0  0  0  0
    2.3856    3.5520   11.1792 N   0  0  0  0  0  0  0  0  0  0  0  0
    2.7162    4.1410   12.3604 C   0  0  0  0  0  0  0  0  0  0  0  0
    2.0483    5.2194   12.7588 N   0  0  0  0  0  0  0  0  0  0  0  0
    1.0548    5.7728   12.0622 C   0  0  0  0  0  0  0  0  0  0  0  0
    0.7315    5.1887   10.8971 N   0  0  0  0  0  0  0  0  0  0  0  0
    1.3940    4.0807   10.4540 C   0  0  0  0  0  0  0  0  0  0  0  0
    1.2764    3.3185    9.3522 N   0  0  0  0  0  0  0  0  0  0  0  0
    0.4031    6.9254   12.5708 N   0  0  0  0  0  0  0  0  0  0  0  0
    0.7400    7.5597   13.8019 C   0  0  0  0  0  0  0  0  0  0  0  0
    1.9234    8.4648   13.7846 C   0  0  0  0  0  0  0  0  0  0  0  0
    2.6625    8.5376   15.0443 C   0  0  0  0  0  0  0  0  0  0  0  0
    2.1325    8.9566   16.2323 C   0  0  0  0  0  0  0  0  0  0  0  0
    2.8832    8.9957   17.4013 C   0  0  0  0  0  0  0  0  0  0  0  0
    4.2044    8.6077   17.3976 C   0  0  0  0  0  0  0  0  0  0  0  0
    4.7672    8.1814   16.2182 C   0  0  0  0  0  0  0  0  0  0  0  0
    4.0086    8.1526   15.0870 C   0  0  0  0  0  0  0  0  0  0  0  0
    4.9326    8.6584   18.5899 O   0  0  0  0  0  0  0  0  0  0  0  0
    3.7654    3.5475   13.0940 N   0  0  0  0  0  0  0  0  0  0  0  0
  1  2  2  0
  2  3  1  0
  3  4  1  0
  4  5  2  0
  4  6  1  0
  6  7  2  0
  7  8  1  0
  8  9  1  0
  9 10  2  0
 10 11  1  0
 11 12  2  0
 12 13  1  0
 13 14  2  0
 11 15  1  0
 15 16  1  0
 16 17  1  0
 17 18  1  0
 18 19  2  0
 19 20  1  0
 20 21  2  0
 21 22  1  0
 22 23  2  0
 21 24  1  0
  9 25  1  0
  5  1  1  0
 14  6  1  0
 13  8  1  0
 23 18  1  0
M  END
$$$$
