
     RDKit          3D

 25 28  0  0  0  0  0  0  0  0999 V2000
    1.5538    1.2481    6.4387 C   0  0  0  0  0  0  0  0  0  0  0  0
    2.7711    0.7415    6.8350 C   0  0  0  0  0  0  0  0  0  0  0  0
    3.1405    1.3619    7.9433 O   0  0  0  0  0  0  0  0  0  0  0  0
    2.2646    2.2407    8.3145 C   0  0  0  0  0  0  0  0  0  0  0  0
    1.2324    2.2030    7.3820 C   0  0  0  0  0  0  0  0  0  0  0  0
    2.3456    3.1035    9.4849 C   0  0  0  0  0  0  0  0  0  0  0  0
    3.2829    3.0791   10.4459 N   0  0  0  0  0  0  0  0  0  0  0  0
    3.0310    4.0106   11.3512 N   0  0  0  0  0  0  0  0  0  0  0  0
    3.6701    4.3829   12.4933 C   0  0  0  0  0  0  0  0  0  0  0  0
    3.1746    5.3796   13.2205 N   0  0  0  0  0  0  0  0  0  0  0  0
    2.0692    6.0519   12.8973 C   0  0  0  0  0  0  0  0  0  0  0  0
    1.4413    5.6815   11.7695 N   0  0  0  0  0  0  0  0  0  0  0  0
    1.9192    4.6635   10.9961 C   0  0  0  0  0  0  0  0  0  0  0  0
    1.4972    4.1055    9.8475 N   0  0  0  0  0  0  0  0  0  0  0  0
    1.6200    7.1024   13.7380 N   0  0  0  0  0  0  0  0  0  0  0  0
    0.7158    8.1256   13.3294 C   0  0  0  0  0  0  0  0  0  0  0  0
    1.3013    9.4722   13.0770 C   0  0  0  0  0  0  0  0  0  0  0  0
    0.4977   10.3433   12.2206 C   0  0  0  0  0  0  0  0  0  0  0  0
   -0.6993    9.9929   11.6617 C   0  0  0  0  0  0  0  0  0  0  0  0
   -1.4238   10.8688   10.8619 C   0  0  0  0  0  0  0  0  0  0  0  0
   -0.9498   12.1356   10.6041 C   0  0  0  0  0  0  0  0  0  0  0  0
    0.2517   12.5184   11.1514 C   0  0  0  0  0  0  0  0  0  0  0  0
    0.9412   11.6402   11.9319 C   0  0  0  0  0  0  0  0  0  0  0  0
   -1.7021   12.9931    9.7959 O   0  0  0  0  0  0  0  0  0  0  0  0
    4.8366    3.6643   12.8311 N   0  0  0  0  0  0  0  0  0  0  0  0
  1  2  2  0
  2  3  1  0
  3  4  1  0
  4  5  2  0
  4  6  1  0
  6  7  2  0
  7  8  1  0
  8  9  1  0
  9 10  2  0
 10 11  1  0
 11 12  2  0
 12 13  1  0
 13 14  2  0
 11 15  1  0
 15 16  1  0
 16 17  1  0
 17 18  1  0
 18 19  2  0
 19 20  1  0
 20 21  2  0
 21 22  1  0
 22 23  2  0
 21 24  1  0
  9 25  1  0
  5  1  1  0
 14  6  1  0
 13  8  1  0
 23 18  1  0
M  END
$$$$
