
     RDKit          3D

 25 28  0  0  0  0  0  0  0  0999 V2000
    2.5986   -0.2946    7.0771 C   0  0  0  0  0  0  0  0  0  0  0  0
    1.6654    0.4233    6.3634 C   0  0  0  0  0  0  0  0  0  0  0  0
    1.3655    1.5146    7.0481 O   0  0  0  0  0  0  0  0  0  0  0  0
    2.0258    1.5782    8.1605 C   0  0  0  0  0  0  0  0  0  0  0  0
    2.8272    0.4422    8.2215 C   0  0  0  0  0  0  0  0  0  0  0  0
    1.9443    2.6373    9.1567 C   0  0  0  0  0  0  0  0  0  0  0  0
    2.6481    2.7335   10.2961 N   0  0  0  0  0  0  0  0  0  0  0  0
    2.3066    3.8315   10.9507 N   0  0  0  0  0  0  0  0  0  0  0  0
    2.7229    4.3693   12.1292 C   0  0  0  0  0  0  0  0  0  0  0  0
    2.1893    5.5134   12.5465 N   0  0  0  0  0  0  0  0  0  0  0  0
    1.2532    6.1818   11.8718 C   0  0  0  0  0  0  0  0  0  0  0  0
    0.8449    5.6479   10.7093 N   0  0  0  0  0  0  0  0  0  0  0  0
    1.3690    4.4755   10.2472 C   0  0  0  0  0  0  0  0  0  0  0  0
    1.1460    3.7408    9.1430 N   0  0  0  0  0  0  0  0  0  0  0  0
    0.7460    7.3969   12.3995 N   0  0  0  0  0  0  0  0  0  0  0  0
    0.9628    7.8435   13.7356 C   0  0  0  0  0  0  0  0  0  0  0  0
    2.1664    8.6899   13.9696 C   0  0  0  0  0  0  0  0  0  0  0  0
    2.7954    8.5189   15.2784 C   0  0  0  0  0  0  0  0  0  0  0  0
    2.1199    8.2466   16.4350 C   0  0  0  0  0  0  0  0  0  0  0  0
    2.7746    8.0852   17.6503 C   0  0  0  0  0  0  0  0  0  0  0  0
    4.1448    8.1969   17.7271 C   0  0  0  0  0  0  0  0  0  0  0  0
    4.8533    8.4707   16.5814 C   0  0  0  0  0  0  0  0  0  0  0  0
    4.1867    8.6239   15.4032 C   0  0  0  0  0  0  0  0  0  0  0  0
    4.7738    8.0290   18.9643 O   0  0  0  0  0  0  0  0  0  0  0  0
    3.7105    3.6542   12.8395 N   0  0  0  0  0  0  0  0  0  0  0  0
  1  2  2  0
  2  3  1  0
  3  4  1  0
  4  5  2  0
  4  6  1  0
  6  7  2  0
  7  8  1  0
  8  9  1  0
  9 10  2  0
 10 11  1  0
 11 12  2  0
 12 13  1  0
 13 14  2  0
 11 15  1  0
 15 16  1  0
 16 17  1  0
 17 18  1  0
 18 19  2  0
 19 20  1  0
 20 21  2  0
 21 22  1  0
 22 23  2  0
 21 24  1  0
  9 25  1  0
  5  1  1  0
 14  6  1  0
 13  8  1  0
 23 18  1  0
M  END
$$$$
