
     RDKit          3D

 25 28  0  0  0  0  0  0  0  0999 V2000
    2.5033   -0.1762    7.2818 C   0  0  0  0  0  0  0  0  0  0  0  0
    3.8278    0.0222    7.6009 C   0  0  0  0  0  0  0  0  0  0  0  0
    3.8989    0.9784    8.5122 O   0  0  0  0  0  0  0  0  0  0  0  0
    2.7260    1.4308    8.8235 C   0  0  0  0  0  0  0  0  0  0  0  0
    1.8026    0.7217    8.0612 C   0  0  0  0  0  0  0  0  0  0  0  0
    2.4309    2.4816    9.7878 C   0  0  0  0  0  0  0  0  0  0  0  0
    3.1539    2.8152   10.8689 N   0  0  0  0  0  0  0  0  0  0  0  0
    2.5771    3.8185   11.5102 N   0  0  0  0  0  0  0  0  0  0  0  0
    2.9097    4.5052   12.6369 C   0  0  0  0  0  0  0  0  0  0  0  0
    2.1211    5.4909   13.0543 N   0  0  0  0  0  0  0  0  0  0  0  0
    1.0022    5.8579   12.4283 C   0  0  0  0  0  0  0  0  0  0  0  0
    0.6774    5.1779   11.3168 N   0  0  0  0  0  0  0  0  0  0  0  0
    1.4615    4.1600   10.8564 C   0  0  0  0  0  0  0  0  0  0  0  0
    1.3714    3.3374    9.7962 N   0  0  0  0  0  0  0  0  0  0  0  0
    0.2273    6.9246   12.9515 N   0  0  0  0  0  0  0  0  0  0  0  0
   -0.5320    7.8302   12.1548 C   0  0  0  0  0  0  0  0  0  0  0  0
    0.1944    8.5199   11.0519 C   0  0  0  0  0  0  0  0  0  0  0  0
   -0.4475    8.4319    9.7410 C   0  0  0  0  0  0  0  0  0  0  0  0
   -1.4391    9.2651    9.3045 C   0  0  0  0  0  0  0  0  0  0  0  0
   -2.0058    9.1381    8.0418 C   0  0  0  0  0  0  0  0  0  0  0  0
   -1.5789    8.1534    7.1792 C   0  0  0  0  0  0  0  0  0  0  0  0
   -0.5831    7.2988    7.5887 C   0  0  0  0  0  0  0  0  0  0  0  0
   -0.0448    7.4456    8.8315 C   0  0  0  0  0  0  0  0  0  0  0  0
   -2.1687    8.0518    5.9158 O   0  0  0  0  0  0  0  0  0  0  0  0
    4.0925    4.1084   13.2962 N   0  0  0  0  0  0  0  0  0  0  0  0
  1  2  2  0
  2  3  1  0
  3  4  1  0
  4  5  2  0
  4  6  1  0
  6  7  2  0
  7  8  1  0
  8  9  1  0
  9 10  2  0
 10 11  1  0
 11 12  2  0
 12 13  1  0
 13 14  2  0
 11 15  1  0
 15 16  1  0
 16 17  1  0
 17 18  1  0
 18 19  2  0
 19 20  1  0
 20 21  2  0
 21 22  1  0
 22 23  2  0
 21 24  1  0
  9 25  1  0
  5  1  1  0
 14  6  1  0
 13  8  1  0
 23 18  1  0
M  END
$$$$
