
     RDKit          3D

 25 28  0  0  0  0  0  0  0  0999 V2000
    1.7912    0.0981    6.5086 C   0  0  0  0  0  0  0  0  0  0  0  0
    3.0142   -0.2127    7.0595 C   0  0  0  0  0  0  0  0  0  0  0  0
    3.2540    0.6331    8.0477 O   0  0  0  0  0  0  0  0  0  0  0  0
    2.2868    1.4815    8.1968 C   0  0  0  0  0  0  0  0  0  0  0  0
    1.3291    1.1775    7.2340 C   0  0  0  0  0  0  0  0  0  0  0  0
    2.2161    2.5496    9.1842 C   0  0  0  0  0  0  0  0  0  0  0  0
    3.0437    2.7489   10.2226 N   0  0  0  0  0  0  0  0  0  0  0  0
    2.6692    3.8193   10.9042 N   0  0  0  0  0  0  0  0  0  0  0  0
    3.1697    4.4274   12.0137 C   0  0  0  0  0  0  0  0  0  0  0  0
    2.5707    5.5172   12.4843 N   0  0  0  0  0  0  0  0  0  0  0  0
    1.4888    6.0642   11.9287 C   0  0  0  0  0  0  0  0  0  0  0  0
    0.9978    5.4612   10.8339 N   0  0  0  0  0  0  0  0  0  0  0  0
    1.5849    4.3412   10.3204 C   0  0  0  0  0  0  0  0  0  0  0  0
    1.3060    3.5599    9.2618 N   0  0  0  0  0  0  0  0  0  0  0  0
    0.9220    7.2300   12.5046 N   0  0  0  0  0  0  0  0  0  0  0  0
    1.5371    7.9942   13.5385 C   0  0  0  0  0  0  0  0  0  0  0  0
    1.2791    7.5535   14.9381 C   0  0  0  0  0  0  0  0  0  0  0  0
    2.0395    8.2708   15.9605 C   0  0  0  0  0  0  0  0  0  0  0  0
    1.5043    9.1751   16.8346 C   0  0  0  0  0  0  0  0  0  0  0  0
    2.2771    9.8201   17.7930 C   0  0  0  0  0  0  0  0  0  0  0  0
    3.6263    9.5638   17.8920 C   0  0  0  0  0  0  0  0  0  0  0  0
    4.1950    8.6594   17.0270 C   0  0  0  0  0  0  0  0  0  0  0  0
    3.4145    8.0412   16.0973 C   0  0  0  0  0  0  0  0  0  0  0  0
    4.3763   10.2286   18.8667 O   0  0  0  0  0  0  0  0  0  0  0  0
    4.3120    3.8405   12.5985 N   0  0  0  0  0  0  0  0  0  0  0  0
  1  2  2  0
  2  3  1  0
  3  4  1  0
  4  5  2  0
  4  6  1  0
  6  7  2  0
  7  8  1  0
  8  9  1  0
  9 10  2  0
 10 11  1  0
 11 12  2  0
 12 13  1  0
 13 14  2  0
 11 15  1  0
 15 16  1  0
 16 17  1  0
 17 18  1  0
 18 19  2  0
 19 20  1  0
 20 21  2  0
 21 22  1  0
 22 23  2  0
 21 24  1  0
  9 25  1  0
  5  1  1  0
 14  6  1  0
 13  8  1  0
 23 18  1  0
M  END
$$$$
