
     RDKit          3D

 25 28  0  0  0  0  0  0  0  0999 V2000
    1.5157   -0.1056    6.7418 C   0  0  0  0  0  0  0  0  0  0  0  0
    2.7631   -0.4114    7.2378 C   0  0  0  0  0  0  0  0  0  0  0  0
    3.0687    0.4725    8.1732 O   0  0  0  0  0  0  0  0  0  0  0  0
    2.1225    1.3415    8.3377 C   0  0  0  0  0  0  0  0  0  0  0  0
    1.1089    1.0112    7.4433 C   0  0  0  0  0  0  0  0  0  0  0  0
    2.1209    2.4523    9.2795 C   0  0  0  0  0  0  0  0  0  0  0  0
    2.9264    2.6152   10.3413 N   0  0  0  0  0  0  0  0  0  0  0  0
    2.6337    3.7444   10.9656 N   0  0  0  0  0  0  0  0  0  0  0  0
    3.1512    4.3482   12.0698 C   0  0  0  0  0  0  0  0  0  0  0  0
    2.6446    5.5092   12.4738 N   0  0  0  0  0  0  0  0  0  0  0  0
    1.6415    6.1333   11.8551 C   0  0  0  0  0  0  0  0  0  0  0  0
    1.1335    5.5343   10.7658 N   0  0  0  0  0  0  0  0  0  0  0  0
    1.6269    4.3425   10.3197 C   0  0  0  0  0  0  0  0  0  0  0  0
    1.3112    3.5475    9.2819 N   0  0  0  0  0  0  0  0  0  0  0  0
    1.1706    7.3714   12.3626 N   0  0  0  0  0  0  0  0  0  0  0  0
    1.7360    8.0457   13.4837 C   0  0  0  0  0  0  0  0  0  0  0  0
    1.2126    7.6648   14.8256 C   0  0  0  0  0  0  0  0  0  0  0  0
    1.9447    8.2323   15.9570 C   0  0  0  0  0  0  0  0  0  0  0  0
    1.4392    9.1631   16.8208 C   0  0  0  0  0  0  0  0  0  0  0  0
    2.1812    9.6599   17.8858 C   0  0  0  0  0  0  0  0  0  0  0  0
    3.4683    9.2230   18.1059 C   0  0  0  0  0  0  0  0  0  0  0  0
    4.0059    8.2873   17.2544 C   0  0  0  0  0  0  0  0  0  0  0  0
    3.2566    7.8168   16.2185 C   0  0  0  0  0  0  0  0  0  0  0  0
    4.1885    9.7419   19.1859 O   0  0  0  0  0  0  0  0  0  0  0  0
    4.2093    3.6799   12.7216 N   0  0  0  0  0  0  0  0  0  0  0  0
  1  2  2  0
  2  3  1  0
  3  4  1  0
  4  5  2  0
  4  6  1  0
  6  7  2  0
  7  8  1  0
  8  9  1  0
  9 10  2  0
 10 11  1  0
 11 12  2  0
 12 13  1  0
 13 14  2  0
 11 15  1  0
 15 16  1  0
 16 17  1  0
 17 18  1  0
 18 19  2  0
 19 20  1  0
 20 21  2  0
 21 22  1  0
 22 23  2  0
 21 24  1  0
  9 25  1  0
  5  1  1  0
 14  6  1  0
 13  8  1  0
 23 18  1  0
M  END
$$$$
