
     RDKit          3D

 25 28  0  0  0  0  0  0  0  0999 V2000
    2.0444    0.1900    6.5661 C   0  0  0  0  0  0  0  0  0  0  0  0
    3.2611   -0.0715    7.1549 C   0  0  0  0  0  0  0  0  0  0  0  0
    3.4121    0.7474    8.1827 O   0  0  0  0  0  0  0  0  0  0  0  0
    2.3915    1.5323    8.3230 C   0  0  0  0  0  0  0  0  0  0  0  0
    1.4916    1.2119    7.3111 C   0  0  0  0  0  0  0  0  0  0  0  0
    2.2197    2.5552    9.3454 C   0  0  0  0  0  0  0  0  0  0  0  0
    2.9837    2.7507   10.4320 N   0  0  0  0  0  0  0  0  0  0  0  0
    2.5239    3.7739   11.1336 N   0  0  0  0  0  0  0  0  0  0  0  0
    2.9382    4.3594   12.2899 C   0  0  0  0  0  0  0  0  0  0  0  0
    2.2641    5.4000   12.7699 N   0  0  0  0  0  0  0  0  0  0  0  0
    1.1859    5.9179   12.1802 C   0  0  0  0  0  0  0  0  0  0  0  0
    0.7801    5.3375   11.0393 N   0  0  0  0  0  0  0  0  0  0  0  0
    1.4460    4.2678   10.5147 C   0  0  0  0  0  0  0  0  0  0  0  0
    1.2587    3.5179    9.4141 N   0  0  0  0  0  0  0  0  0  0  0  0
    0.5350    7.0318   12.7699 N   0  0  0  0  0  0  0  0  0  0  0  0
    0.9745    7.6795   13.9609 C   0  0  0  0  0  0  0  0  0  0  0  0
    2.2511    8.4426   13.8738 C   0  0  0  0  0  0  0  0  0  0  0  0
    2.7473    8.9618   15.1475 C   0  0  0  0  0  0  0  0  0  0  0  0
    2.0919    8.8465   16.3412 C   0  0  0  0  0  0  0  0  0  0  0  0
    2.6188    9.3532   17.5233 C   0  0  0  0  0  0  0  0  0  0  0  0
    3.8358    9.9971   17.5274 C   0  0  0  0  0  0  0  0  0  0  0  0
    4.5200   10.1298   16.3425 C   0  0  0  0  0  0  0  0  0  0  0  0
    3.9808    9.6236   15.1984 C   0  0  0  0  0  0  0  0  0  0  0  0
    4.3389   10.4955   18.7328 O   0  0  0  0  0  0  0  0  0  0  0  0
    4.0770    3.8032   12.9103 N   0  0  0  0  0  0  0  0  0  0  0  0
  1  2  2  0
  2  3  1  0
  3  4  1  0
  4  5  2  0
  4  6  1  0
  6  7  2  0
  7  8  1  0
  8  9  1  0
  9 10  2  0
 10 11  1  0
 11 12  2  0
 12 13  1  0
 13 14  2  0
 11 15  1  0
 15 16  1  0
 16 17  1  0
 17 18  1  0
 18 19  2  0
 19 20  1  0
 20 21  2  0
 21 22  1  0
 22 23  2  0
 21 24  1  0
  9 25  1  0
  5  1  1  0
 14  6  1  0
 13  8  1  0
 23 18  1  0
M  END
$$$$
