
     RDKit          3D

 25 28  0  0  0  0  0  0  0  0999 V2000
    2.3542   -0.1278    6.8058 C   0  0  0  0  0  0  0  0  0  0  0  0
    1.3398    0.5902    6.2134 C   0  0  0  0  0  0  0  0  0  0  0  0
    1.1107    1.6692    6.9434 O   0  0  0  0  0  0  0  0  0  0  0  0
    1.8930    1.7246    7.9741 C   0  0  0  0  0  0  0  0  0  0  0  0
    2.7056    0.5959    7.9272 C   0  0  0  0  0  0  0  0  0  0  0  0
    1.9166    2.7695    8.9882 C   0  0  0  0  0  0  0  0  0  0  0  0
    2.7455    2.8581   10.0408 N   0  0  0  0  0  0  0  0  0  0  0  0
    2.4714    3.9436   10.7459 N   0  0  0  0  0  0  0  0  0  0  0  0
    3.0152    4.4702   11.8766 C   0  0  0  0  0  0  0  0  0  0  0  0
    2.5227    5.6029   12.3687 N   0  0  0  0  0  0  0  0  0  0  0  0
    1.5094    6.2703   11.8152 C   0  0  0  0  0  0  0  0  0  0  0  0
    0.9753    5.7475   10.6995 N   0  0  0  0  0  0  0  0  0  0  0  0
    1.4536    4.5869   10.1636 C   0  0  0  0  0  0  0  0  0  0  0  0
    1.1121    3.8645    9.0819 N   0  0  0  0  0  0  0  0  0  0  0  0
    1.0551    7.4728   12.4149 N   0  0  0  0  0  0  0  0  0  0  0  0
    1.7474    8.1632   13.4520 C   0  0  0  0  0  0  0  0  0  0  0  0
    2.1232    7.3632   14.6513 C   0  0  0  0  0  0  0  0  0  0  0  0
    2.6330    8.1434   15.7780 C   0  0  0  0  0  0  0  0  0  0  0  0
    2.9392    7.6260   17.0055 C   0  0  0  0  0  0  0  0  0  0  0  0
    3.4300    8.4174   18.0373 C   0  0  0  0  0  0  0  0  0  0  0  0
    3.6252    9.7676   17.8512 C   0  0  0  0  0  0  0  0  0  0  0  0
    3.3264   10.3187   16.6278 C   0  0  0  0  0  0  0  0  0  0  0  0
    2.8469    9.5202   15.6336 C   0  0  0  0  0  0  0  0  0  0  0  0
    4.1204   10.5365   18.9086 O   0  0  0  0  0  0  0  0  0  0  0  0
    4.0841    3.7563   12.4588 N   0  0  0  0  0  0  0  0  0  0  0  0
  1  2  2  0
  2  3  1  0
  3  4  1  0
  4  5  2  0
  4  6  1  0
  6  7  2  0
  7  8  1  0
  8  9  1  0
  9 10  2  0
 10 11  1  0
 11 12  2  0
 12 13  1  0
 13 14  2  0
 11 15  1  0
 15 16  1  0
 16 17  1  0
 17 18  1  0
 18 19  2  0
 19 20  1  0
 20 21  2  0
 21 22  1  0
 22 23  2  0
 21 24  1  0
  9 25  1  0
  5  1  1  0
 14  6  1  0
 13  8  1  0
 23 18  1  0
M  END
$$$$
