
     RDKit          3D

 25 28  0  0  0  0  0  0  0  0999 V2000
    1.9112    0.6336    6.2016 C   0  0  0  0  0  0  0  0  0  0  0  0
    3.1354    0.3089    6.7413 C   0  0  0  0  0  0  0  0  0  0  0  0
    3.3502    1.0885    7.7881 O   0  0  0  0  0  0  0  0  0  0  0  0
    2.3651    1.9056    7.9862 C   0  0  0  0  0  0  0  0  0  0  0  0
    1.4216    1.6509    6.9955 C   0  0  0  0  0  0  0  0  0  0  0  0
    2.2650    2.9011    9.0446 C   0  0  0  0  0  0  0  0  0  0  0  0
    3.0423    3.0056   10.1344 N   0  0  0  0  0  0  0  0  0  0  0  0
    2.6545    4.0323   10.8732 N   0  0  0  0  0  0  0  0  0  0  0  0
    3.1095    4.5470   12.0478 C   0  0  0  0  0  0  0  0  0  0  0  0
    2.5087    5.6135   12.5667 N   0  0  0  0  0  0  0  0  0  0  0  0
    1.4675    6.2242   11.9999 C   0  0  0  0  0  0  0  0  0  0  0  0
    1.0212    5.7134   10.8409 N   0  0  0  0  0  0  0  0  0  0  0  0
    1.6118    4.6200   10.2764 C   0  0  0  0  0  0  0  0  0  0  0  0
    1.3720    3.9240    9.1509 N   0  0  0  0  0  0  0  0  0  0  0  0
    0.8949    7.3582   12.6309 N   0  0  0  0  0  0  0  0  0  0  0  0
    1.2599    7.8242   13.9274 C   0  0  0  0  0  0  0  0  0  0  0  0
    2.7181    7.9510   14.2053 C   0  0  0  0  0  0  0  0  0  0  0  0
    3.0612    8.8636   15.2950 C   0  0  0  0  0  0  0  0  0  0  0  0
    4.2040    8.7876   16.0408 C   0  0  0  0  0  0  0  0  0  0  0  0
    4.4803    9.6911   17.0602 C   0  0  0  0  0  0  0  0  0  0  0  0
    3.5971   10.7056   17.3543 C   0  0  0  0  0  0  0  0  0  0  0  0
    2.4380   10.8090   16.6224 C   0  0  0  0  0  0  0  0  0  0  0  0
    2.1921    9.9103   15.6286 C   0  0  0  0  0  0  0  0  0  0  0  0
    3.9039   11.5985   18.3853 O   0  0  0  0  0  0  0  0  0  0  0  0
    4.2087    3.8930   12.6438 N   0  0  0  0  0  0  0  0  0  0  0  0
  1  2  2  0
  2  3  1  0
  3  4  1  0
  4  5  2  0
  4  6  1  0
  6  7  2  0
  7  8  1  0
  8  9  1  0
  9 10  2  0
 10 11  1  0
 11 12  2  0
 12 13  1  0
 13 14  2  0
 11 15  1  0
 15 16  1  0
 16 17  1  0
 17 18  1  0
 18 19  2  0
 19 20  1  0
 20 21  2  0
 21 22  1  0
 22 23  2  0
 21 24  1  0
  9 25  1  0
  5  1  1  0
 14  6  1  0
 13  8  1  0
 23 18  1  0
M  END
$$$$
