
     RDKit          3D

 25 28  0  0  0  0  0  0  0  0999 V2000
    1.0294    1.8771    6.4754 C   0  0  0  0  0  0  0  0  0  0  0  0
    2.1250    1.1567    6.8949 C   0  0  0  0  0  0  0  0  0  0  0  0
    2.5850    1.7060    8.0068 O   0  0  0  0  0  0  0  0  0  0  0  0
    1.8813    2.7346    8.3590 C   0  0  0  0  0  0  0  0  0  0  0  0
    0.8753    2.8819    7.4089 C   0  0  0  0  0  0  0  0  0  0  0  0
    2.1019    3.5760    9.5270 C   0  0  0  0  0  0  0  0  0  0  0  0
    2.9234    3.3289   10.5599 N   0  0  0  0  0  0  0  0  0  0  0  0
    2.8625    4.3179   11.4366 N   0  0  0  0  0  0  0  0  0  0  0  0
    3.4901    4.5374   12.6238 C   0  0  0  0  0  0  0  0  0  0  0  0
    3.2260    5.6494   13.3033 N   0  0  0  0  0  0  0  0  0  0  0  0
    2.3683    6.5827   12.8889 C   0  0  0  0  0  0  0  0  0  0  0  0
    1.7509    6.3625   11.7169 N   0  0  0  0  0  0  0  0  0  0  0  0
    1.9959    5.2335   10.9901 C   0  0  0  0  0  0  0  0  0  0  0  0
    1.5277    4.7771    9.8148 N   0  0  0  0  0  0  0  0  0  0  0  0
    2.1546    7.7372   13.6848 N   0  0  0  0  0  0  0  0  0  0  0  0
    1.4406    8.8910   13.2487 C   0  0  0  0  0  0  0  0  0  0  0  0
   -0.0309    8.8935   13.4822 C   0  0  0  0  0  0  0  0  0  0  0  0
   -0.7990    9.7364   12.5671 C   0  0  0  0  0  0  0  0  0  0  0  0
   -1.8481    9.3016   11.8065 C   0  0  0  0  0  0  0  0  0  0  0  0
   -2.5476   10.1534   10.9598 C   0  0  0  0  0  0  0  0  0  0  0  0
   -2.1990   11.4817   10.8599 C   0  0  0  0  0  0  0  0  0  0  0  0
   -1.1478   11.9501   11.6117 C   0  0  0  0  0  0  0  0  0  0  0  0
   -0.4794   11.0937   12.4337 C   0  0  0  0  0  0  0  0  0  0  0  0
   -2.9222   12.3129    9.9994 O   0  0  0  0  0  0  0  0  0  0  0  0
    4.3929    3.5436   13.0578 N   0  0  0  0  0  0  0  0  0  0  0  0
  1  2  2  0
  2  3  1  0
  3  4  1  0
  4  5  2  0
  4  6  1  0
  6  7  2  0
  7  8  1  0
  8  9  1  0
  9 10  2  0
 10 11  1  0
 11 12  2  0
 12 13  1  0
 13 14  2  0
 11 15  1  0
 15 16  1  0
 16 17  1  0
 17 18  1  0
 18 19  2  0
 19 20  1  0
 20 21  2  0
 21 22  1  0
 22 23  2  0
 21 24  1  0
  9 25  1  0
  5  1  1  0
 14  6  1  0
 13  8  1  0
 23 18  1  0
M  END
$$$$
