
     RDKit          3D

 25 28  0  0  0  0  0  0  0  0999 V2000
    5.3013   -0.4202    9.5811 C   0  0  0  0  0  0  0  0  0  0  0  0
    4.5522   -0.2193    8.4436 C   0  0  0  0  0  0  0  0  0  0  0  0
    3.7824    0.8397    8.6324 O   0  0  0  0  0  0  0  0  0  0  0  0
    3.9611    1.3581    9.8057 C   0  0  0  0  0  0  0  0  0  0  0  0
    4.9237    0.5853   10.4479 C   0  0  0  0  0  0  0  0  0  0  0  0
    3.2831    2.5272   10.3484 C   0  0  0  0  0  0  0  0  0  0  0  0
    3.4658    3.0808   11.5579 N   0  0  0  0  0  0  0  0  0  0  0  0
    2.6744    4.1312   11.7020 N   0  0  0  0  0  0  0  0  0  0  0  0
    2.4883    5.0122   12.7221 C   0  0  0  0  0  0  0  0  0  0  0  0
    1.6034    5.9944   12.5799 N   0  0  0  0  0  0  0  0  0  0  0  0
    0.8711    6.1761   11.4803 C   0  0  0  0  0  0  0  0  0  0  0  0
    1.0576    5.3046   10.4758 N   0  0  0  0  0  0  0  0  0  0  0  0
    1.9569    4.2836   10.5836 C   0  0  0  0  0  0  0  0  0  0  0  0
    2.3314    3.2965    9.7504 N   0  0  0  0  0  0  0  0  0  0  0  0
   -0.0469    7.2559   11.4234 N   0  0  0  0  0  0  0  0  0  0  0  0
   -0.7588    7.6425   10.2507 C   0  0  0  0  0  0  0  0  0  0  0  0
   -1.8993    6.7738    9.8453 C   0  0  0  0  0  0  0  0  0  0  0  0
   -1.8916    6.3607    8.4426 C   0  0  0  0  0  0  0  0  0  0  0  0
   -1.6400    5.0891    8.0091 C   0  0  0  0  0  0  0  0  0  0  0  0
   -1.6556    4.7537    6.6605 C   0  0  0  0  0  0  0  0  0  0  0  0
   -1.9288    5.7073    5.7055 C   0  0  0  0  0  0  0  0  0  0  0  0
   -2.1856    6.9959    6.1092 C   0  0  0  0  0  0  0  0  0  0  0  0
   -2.1642    7.2975    7.4376 C   0  0  0  0  0  0  0  0  0  0  0  0
   -1.9371    5.3382    4.3571 O   0  0  0  0  0  0  0  0  0  0  0  0
    3.2635    4.8111   13.8839 N   0  0  0  0  0  0  0  0  0  0  0  0
  1  2  2  0
  2  3  1  0
  3  4  1  0
  4  5  2  0
  4  6  1  0
  6  7  2  0
  7  8  1  0
  8  9  1  0
  9 10  2  0
 10 11  1  0
 11 12  2  0
 12 13  1  0
 13 14  2  0
 11 15  1  0
 15 16  1  0
 16 17  1  0
 17 18  1  0
 18 19  2  0
 19 20  1  0
 20 21  2  0
 21 22  1  0
 22 23  2  0
 21 24  1  0
  9 25  1  0
  5  1  1  0
 14  6  1  0
 13  8  1  0
 23 18  1  0
M  END
$$$$
