
     RDKit          3D

 25 28  0  0  0  0  0  0  0  0999 V2000
    1.9499    0.1562    6.4460 C   0  0  0  0  0  0  0  0  0  0  0  0
    3.0978   -0.2168    7.1084 C   0  0  0  0  0  0  0  0  0  0  0  0
    3.2479    0.5716    8.1599 O   0  0  0  0  0  0  0  0  0  0  0  0
    2.2902    1.4390    8.2482 C   0  0  0  0  0  0  0  0  0  0  0  0
    1.4366    1.2111    7.1731 C   0  0  0  0  0  0  0  0  0  0  0  0
    2.1370    2.4584    9.2770 C   0  0  0  0  0  0  0  0  0  0  0  0
    2.8639    2.5937   10.3978 N   0  0  0  0  0  0  0  0  0  0  0  0
    2.4374    3.6349   11.0938 N   0  0  0  0  0  0  0  0  0  0  0  0
    2.8362    4.1801   12.2750 C   0  0  0  0  0  0  0  0  0  0  0  0
    2.2067    5.2545   12.7410 N   0  0  0  0  0  0  0  0  0  0  0  0
    1.1886    5.8447   12.1136 C   0  0  0  0  0  0  0  0  0  0  0  0
    0.7979    5.3038   10.9482 N   0  0  0  0  0  0  0  0  0  0  0  0
    1.4194    4.2014   10.4370 C   0  0  0  0  0  0  0  0  0  0  0  0
    1.2344    3.4775    9.3187 N   0  0  0  0  0  0  0  0  0  0  0  0
    0.5818    6.9894   12.6911 N   0  0  0  0  0  0  0  0  0  0  0  0
    1.0284    7.6141   13.8919 C   0  0  0  0  0  0  0  0  0  0  0  0
    2.2287    8.4898   13.7825 C   0  0  0  0  0  0  0  0  0  0  0  0
    2.9498    8.7071   15.0358 C   0  0  0  0  0  0  0  0  0  0  0  0
    3.8324    9.7270   15.2571 C   0  0  0  0  0  0  0  0  0  0  0  0
    4.4821    9.8882   16.4751 C   0  0  0  0  0  0  0  0  0  0  0  0
    4.2529    9.0113   17.5117 C   0  0  0  0  0  0  0  0  0  0  0  0
    3.3708    7.9745   17.3207 C   0  0  0  0  0  0  0  0  0  0  0  0
    2.7473    7.8398   16.1170 C   0  0  0  0  0  0  0  0  0  0  0  0
    4.9218    9.2006   18.7246 O   0  0  0  0  0  0  0  0  0  0  0  0
    3.9111    3.5476   12.9352 N   0  0  0  0  0  0  0  0  0  0  0  0
  1  2  2  0
  2  3  1  0
  3  4  1  0
  4  5  2  0
  4  6  1  0
  6  7  2  0
  7  8  1  0
  8  9  1  0
  9 10  2  0
 10 11  1  0
 11 12  2  0
 12 13  1  0
 13 14  2  0
 11 15  1  0
 15 16  1  0
 16 17  1  0
 17 18  1  0
 18 19  2  0
 19 20  1  0
 20 21  2  0
 21 22  1  0
 22 23  2  0
 21 24  1  0
  9 25  1  0
  5  1  1  0
 14  6  1  0
 13  8  1  0
 23 18  1  0
M  END
$$$$
