
     RDKit          3D

 25 28  0  0  0  0  0  0  0  0999 V2000
    2.0060    0.3256    6.4243 C   0  0  0  0  0  0  0  0  0  0  0  0
    3.1709    0.0090    7.0863 C   0  0  0  0  0  0  0  0  0  0  0  0
    3.2918    0.8159    8.1274 O   0  0  0  0  0  0  0  0  0  0  0  0
    2.2991    1.6436    8.2092 C   0  0  0  0  0  0  0  0  0  0  0  0
    1.4517    1.3670    7.1406 C   0  0  0  0  0  0  0  0  0  0  0  0
    2.1073    2.6683    9.2261 C   0  0  0  0  0  0  0  0  0  0  0  0
    2.8373    2.8530   10.3378 N   0  0  0  0  0  0  0  0  0  0  0  0
    2.3684    3.8821   11.0245 N   0  0  0  0  0  0  0  0  0  0  0  0
    2.7519    4.4614   12.1944 C   0  0  0  0  0  0  0  0  0  0  0  0
    2.0764    5.5109   12.6527 N   0  0  0  0  0  0  0  0  0  0  0  0
    1.0256    6.0437   12.0279 C   0  0  0  0  0  0  0  0  0  0  0  0
    0.6501    5.4693   10.8736 N   0  0  0  0  0  0  0  0  0  0  0  0
    1.3185    4.3909   10.3705 C   0  0  0  0  0  0  0  0  0  0  0  0
    1.1577    3.6440    9.2637 N   0  0  0  0  0  0  0  0  0  0  0  0
    0.3706    7.1661   12.5965 N   0  0  0  0  0  0  0  0  0  0  0  0
    0.8709    7.9104   13.7043 C   0  0  0  0  0  0  0  0  0  0  0  0
    2.1596    8.6292   13.4984 C   0  0  0  0  0  0  0  0  0  0  0  0
    2.8980    8.9341   14.7231 C   0  0  0  0  0  0  0  0  0  0  0  0
    3.3225   10.1823   15.0834 C   0  0  0  0  0  0  0  0  0  0  0  0
    4.0138   10.4125   16.2670 C   0  0  0  0  0  0  0  0  0  0  0  0
    4.2967    9.3737   17.1254 C   0  0  0  0  0  0  0  0  0  0  0  0
    3.8835    8.1059   16.7914 C   0  0  0  0  0  0  0  0  0  0  0  0
    3.2074    7.9082   15.6253 C   0  0  0  0  0  0  0  0  0  0  0  0
    4.9935    9.6379   18.3082 O   0  0  0  0  0  0  0  0  0  0  0  0
    3.8618    3.8895   12.8520 N   0  0  0  0  0  0  0  0  0  0  0  0
  1  2  2  0
  2  3  1  0
  3  4  1  0
  4  5  2  0
  4  6  1  0
  6  7  2  0
  7  8  1  0
  8  9  1  0
  9 10  2  0
 10 11  1  0
 11 12  2  0
 12 13  1  0
 13 14  2  0
 11 15  1  0
 15 16  1  0
 16 17  1  0
 17 18  1  0
 18 19  2  0
 19 20  1  0
 20 21  2  0
 21 22  1  0
 22 23  2  0
 21 24  1  0
  9 25  1  0
  5  1  1  0
 14  6  1  0
 13  8  1  0
 23 18  1  0
M  END
$$$$
