
     RDKit          3D

 25 28  0  0  0  0  0  0  0  0999 V2000
    1.7040    0.3653    6.5385 C   0  0  0  0  0  0  0  0  0  0  0  0
    2.9721    0.1547    7.0315 C   0  0  0  0  0  0  0  0  0  0  0  0
    3.2094    1.0547    7.9714 O   0  0  0  0  0  0  0  0  0  0  0  0
    2.1989    1.8467    8.1415 C   0  0  0  0  0  0  0  0  0  0  0  0
    1.2127    1.4434    7.2464 C   0  0  0  0  0  0  0  0  0  0  0  0
    2.1125    2.9490    9.0894 C   0  0  0  0  0  0  0  0  0  0  0  0
    2.9436    3.2047   10.1124 N   0  0  0  0  0  0  0  0  0  0  0  0
    2.5509    4.2912   10.7572 N   0  0  0  0  0  0  0  0  0  0  0  0
    3.0467    4.9510   11.8391 C   0  0  0  0  0  0  0  0  0  0  0  0
    2.4274    6.0441   12.2743 N   0  0  0  0  0  0  0  0  0  0  0  0
    1.3293    6.5463   11.7083 C   0  0  0  0  0  0  0  0  0  0  0  0
    0.8430    5.8925   10.6409 N   0  0  0  0  0  0  0  0  0  0  0  0
    1.4508    4.7673   10.1640 C   0  0  0  0  0  0  0  0  0  0  0  0
    1.1808    3.9414    9.1375 N   0  0  0  0  0  0  0  0  0  0  0  0
    0.7414    7.7201   12.2456 N   0  0  0  0  0  0  0  0  0  0  0  0
    1.3336    8.5183   13.2671 C   0  0  0  0  0  0  0  0  0  0  0  0
    0.9397    8.2075   14.6700 C   0  0  0  0  0  0  0  0  0  0  0  0
    2.0152    8.3272   15.6534 C   0  0  0  0  0  0  0  0  0  0  0  0
    1.8773    8.0743   16.9894 C   0  0  0  0  0  0  0  0  0  0  0  0
    2.9405    8.1966   17.8763 C   0  0  0  0  0  0  0  0  0  0  0  0
    4.1841    8.5827   17.4286 C   0  0  0  0  0  0  0  0  0  0  0  0
    4.3553    8.8448   16.0901 C   0  0  0  0  0  0  0  0  0  0  0  0
    3.2964    8.7168   15.2426 C   0  0  0  0  0  0  0  0  0  0  0  0
    5.2332    8.6964   18.3455 O   0  0  0  0  0  0  0  0  0  0  0  0
    4.2062    4.4113   12.4352 N   0  0  0  0  0  0  0  0  0  0  0  0
  1  2  2  0
  2  3  1  0
  3  4  1  0
  4  5  2  0
  4  6  1  0
  6  7  2  0
  7  8  1  0
  8  9  1  0
  9 10  2  0
 10 11  1  0
 11 12  2  0
 12 13  1  0
 13 14  2  0
 11 15  1  0
 15 16  1  0
 16 17  1  0
 17 18  1  0
 18 19  2  0
 19 20  1  0
 20 21  2  0
 21 22  1  0
 22 23  2  0
 21 24  1  0
  9 25  1  0
  5  1  1  0
 14  6  1  0
 13  8  1  0
 23 18  1  0
M  END
$$$$
