
     RDKit          3D

 25 28  0  0  0  0  0  0  0  0999 V2000
    2.1633    0.6722    5.7719 C   0  0  0  0  0  0  0  0  0  0  0  0
    3.3041    0.2522    6.4182 C   0  0  0  0  0  0  0  0  0  0  0  0
    3.4524    0.9754    7.5157 O   0  0  0  0  0  0  0  0  0  0  0  0
    2.5000    1.8428    7.6495 C   0  0  0  0  0  0  0  0  0  0  0  0
    1.6521    1.6854    6.5574 C   0  0  0  0  0  0  0  0  0  0  0  0
    2.3467    2.8000    8.7363 C   0  0  0  0  0  0  0  0  0  0  0  0
    3.1101    2.9065    9.8357 N   0  0  0  0  0  0  0  0  0  0  0  0
    2.6703    3.8917   10.6015 N   0  0  0  0  0  0  0  0  0  0  0  0
    3.0926    4.3905   11.7950 C   0  0  0  0  0  0  0  0  0  0  0  0
    2.4398    5.4124   12.3404 N   0  0  0  0  0  0  0  0  0  0  0  0
    1.3762    5.9922   11.7828 C   0  0  0  0  0  0  0  0  0  0  0  0
    0.9625    5.4972   10.6051 N   0  0  0  0  0  0  0  0  0  0  0  0
    1.6065    4.4494   10.0133 C   0  0  0  0  0  0  0  0  0  0  0  0
    1.4072    3.7777    8.8653 N   0  0  0  0  0  0  0  0  0  0  0  0
    0.7478    7.0795   12.4425 N   0  0  0  0  0  0  0  0  0  0  0  0
    1.2011    7.6426   13.6707 C   0  0  0  0  0  0  0  0  0  0  0  0
    2.5226    8.3301   13.6426 C   0  0  0  0  0  0  0  0  0  0  0  0
    3.1300    8.5527   14.9539 C   0  0  0  0  0  0  0  0  0  0  0  0
    4.3948    9.0310   15.1528 C   0  0  0  0  0  0  0  0  0  0  0  0
    4.9155    9.2310   16.4258 C   0  0  0  0  0  0  0  0  0  0  0  0
    4.1611    8.9484   17.5425 C   0  0  0  0  0  0  0  0  0  0  0  0
    2.8850    8.4654   17.3762 C   0  0  0  0  0  0  0  0  0  0  0  0
    2.3991    8.2789   16.1171 C   0  0  0  0  0  0  0  0  0  0  0  0
    4.7134    9.1605   18.8092 O   0  0  0  0  0  0  0  0  0  0  0  0
    4.2159    3.7692   12.3809 N   0  0  0  0  0  0  0  0  0  0  0  0
  1  2  2  0
  2  3  1  0
  3  4  1  0
  4  5  2  0
  4  6  1  0
  6  7  2  0
  7  8  1  0
  8  9  1  0
  9 10  2  0
 10 11  1  0
 11 12  2  0
 12 13  1  0
 13 14  2  0
 11 15  1  0
 15 16  1  0
 16 17  1  0
 17 18  1  0
 18 19  2  0
 19 20  1  0
 20 21  2  0
 21 22  1  0
 22 23  2  0
 21 24  1  0
  9 25  1  0
  5  1  1  0
 14  6  1  0
 13  8  1  0
 23 18  1  0
M  END
$$$$
