
     RDKit          3D

 25 28  0  0  0  0  0  0  0  0999 V2000
    2.0415    0.3580    6.5175 C   0  0  0  0  0  0  0  0  0  0  0  0
    3.2555    0.0911    7.1095 C   0  0  0  0  0  0  0  0  0  0  0  0
    3.4027    0.9021    8.1441 O   0  0  0  0  0  0  0  0  0  0  0  0
    2.3821    1.6868    8.2860 C   0  0  0  0  0  0  0  0  0  0  0  0
    1.4863    1.3747    7.2679 C   0  0  0  0  0  0  0  0  0  0  0  0
    2.2068    2.7021    9.3152 C   0  0  0  0  0  0  0  0  0  0  0  0
    3.0913    3.0587   10.2604 N   0  0  0  0  0  0  0  0  0  0  0  0
    2.5842    4.0157   11.0204 N   0  0  0  0  0  0  0  0  0  0  0  0
    3.0741    4.7012   12.0888 C   0  0  0  0  0  0  0  0  0  0  0  0
    2.3201    5.6323   12.6654 N   0  0  0  0  0  0  0  0  0  0  0  0
    1.0896    5.9443   12.2568 C   0  0  0  0  0  0  0  0  0  0  0  0
    0.6096    5.2656   11.2022 N   0  0  0  0  0  0  0  0  0  0  0  0
    1.3534    4.3030   10.5832 C   0  0  0  0  0  0  0  0  0  0  0  0
    1.1209    3.4947    9.5337 N   0  0  0  0  0  0  0  0  0  0  0  0
    0.3634    6.9551   12.9372 N   0  0  0  0  0  0  0  0  0  0  0  0
    0.9592    8.0943   13.5526 C   0  0  0  0  0  0  0  0  0  0  0  0
    2.2816    7.8851   14.2063 C   0  0  0  0  0  0  0  0  0  0  0  0
    2.5354    8.7336   15.3698 C   0  0  0  0  0  0  0  0  0  0  0  0
    2.4141   10.0949   15.3793 C   0  0  0  0  0  0  0  0  0  0  0  0
    2.6605   10.8488   16.5206 C   0  0  0  0  0  0  0  0  0  0  0  0
    3.0407   10.2375   17.6943 C   0  0  0  0  0  0  0  0  0  0  0  0
    3.1721    8.8693   17.7174 C   0  0  0  0  0  0  0  0  0  0  0  0
    2.9241    8.1544   16.5845 C   0  0  0  0  0  0  0  0  0  0  0  0
    3.2811   11.0236   18.8251 O   0  0  0  0  0  0  0  0  0  0  0  0
    4.3750    4.3626   12.5180 N   0  0  0  0  0  0  0  0  0  0  0  0
  1  2  2  0
  2  3  1  0
  3  4  1  0
  4  5  2  0
  4  6  1  0
  6  7  2  0
  7  8  1  0
  8  9  1  0
  9 10  2  0
 10 11  1  0
 11 12  2  0
 12 13  1  0
 13 14  2  0
 11 15  1  0
 15 16  1  0
 16 17  1  0
 17 18  1  0
 18 19  2  0
 19 20  1  0
 20 21  2  0
 21 22  1  0
 22 23  2  0
 21 24  1  0
  9 25  1  0
  5  1  1  0
 14  6  1  0
 13  8  1  0
 23 18  1  0
M  END
$$$$
