
     RDKit          3D

 25 28  0  0  0  0  0  0  0  0999 V2000
    1.0933    1.1786    6.5128 C   0  0  0  0  0  0  0  0  0  0  0  0
    2.2853    0.5969    6.8822 C   0  0  0  0  0  0  0  0  0  0  0  0
    2.7275    1.2059    7.9699 O   0  0  0  0  0  0  0  0  0  0  0  0
    1.9233    2.1464    8.3523 C   0  0  0  0  0  0  0  0  0  0  0  0
    0.8640    2.1654    7.4500 C   0  0  0  0  0  0  0  0  0  0  0  0
    2.0958    3.0174    9.5066 C   0  0  0  0  0  0  0  0  0  0  0  0
    3.0542    2.9400   10.4437 N   0  0  0  0  0  0  0  0  0  0  0  0
    2.8926    3.8993   11.3404 N   0  0  0  0  0  0  0  0  0  0  0  0
    3.5863    4.2413   12.4599 C   0  0  0  0  0  0  0  0  0  0  0  0
    3.1816    5.2805   13.1838 N   0  0  0  0  0  0  0  0  0  0  0  0
    2.1181    6.0248   12.8783 C   0  0  0  0  0  0  0  0  0  0  0  0
    1.4360    5.6842   11.7728 N   0  0  0  0  0  0  0  0  0  0  0  0
    1.8204    4.6244   11.0035 C   0  0  0  0  0  0  0  0  0  0  0  0
    1.3299    4.0818    9.8749 N   0  0  0  0  0  0  0  0  0  0  0  0
    1.7664    7.1160   13.7135 N   0  0  0  0  0  0  0  0  0  0  0  0
    0.8682    8.1568   13.3376 C   0  0  0  0  0  0  0  0  0  0  0  0
    1.2769    9.0075   12.1848 C   0  0  0  0  0  0  0  0  0  0  0  0
    0.3143   10.0424   11.8102 C   0  0  0  0  0  0  0  0  0  0  0  0
   -0.4636   10.0093   10.6868 C   0  0  0  0  0  0  0  0  0  0  0  0
   -1.3694   11.0200   10.3875 C   0  0  0  0  0  0  0  0  0  0  0  0
   -1.5124   12.1023   11.2267 C   0  0  0  0  0  0  0  0  0  0  0  0
   -0.7441   12.1654   12.3647 C   0  0  0  0  0  0  0  0  0  0  0  0
    0.1359   11.1609   12.6343 C   0  0  0  0  0  0  0  0  0  0  0  0
   -2.4323   13.1024   10.8979 O   0  0  0  0  0  0  0  0  0  0  0  0
    4.7078    3.4466   12.7791 N   0  0  0  0  0  0  0  0  0  0  0  0
  1  2  2  0
  2  3  1  0
  3  4  1  0
  4  5  2  0
  4  6  1  0
  6  7  2  0
  7  8  1  0
  8  9  1  0
  9 10  2  0
 10 11  1  0
 11 12  2  0
 12 13  1  0
 13 14  2  0
 11 15  1  0
 15 16  1  0
 16 17  1  0
 17 18  1  0
 18 19  2  0
 19 20  1  0
 20 21  2  0
 21 22  1  0
 22 23  2  0
 21 24  1  0
  9 25  1  0
  5  1  1  0
 14  6  1  0
 13  8  1  0
 23 18  1  0
M  END
$$$$
