
     RDKit          3D

 32 35  0  0  0  0  0  0  0  0999 V2000
  -13.1680    2.7935   11.2158 C   0  0  0  0  0  0  0  0  0  0  0  0
  -12.8614    2.8739   12.7159 C   0  0  0  0  0  0  0  0  0  0  0  0
  -13.3507    4.1407   13.3207 C   0  0  0  0  0  0  0  0  0  0  0  0
  -11.4095    2.5410   12.9773 C   0  0  0  0  0  0  0  0  0  0  0  0
  -11.1489    2.0236   14.3268 C   0  0  0  0  0  0  0  0  0  0  0  0
  -11.9814    1.0872   14.8701 C   0  0  0  0  0  0  0  0  0  0  0  0
  -11.7280    0.6190   16.1373 C   0  0  0  0  0  0  0  0  0  0  0  0
  -10.6687    1.0436   16.9046 C   0  0  0  0  0  0  0  0  0  0  0  0
   -9.8375    1.9929   16.3358 C   0  0  0  0  0  0  0  0  0  0  0  0
  -10.0792    2.4708   15.0675 C   0  0  0  0  0  0  0  0  0  0  0  0
  -10.3601    0.4309   18.5260 Cl  0  0  0  0  0  0  0  0  0  0  0  0
  -10.8655    1.7175   11.8854 C   0  0  0  0  0  0  0  0  0  0  0  0
  -11.2882    0.5162   11.7935 O   0  0  0  0  0  0  0  0  0  0  0  0
   -9.9256    2.1168   10.9297 N   0  0  0  0  0  0  0  0  0  0  0  0
   -9.3126    3.4151   11.0104 C   0  0  0  0  0  0  0  0  0  0  0  0
   -7.8217    3.2732   11.0464 C   0  0  0  0  0  0  0  0  0  0  0  0
   -7.2845    2.3464   10.0064 C   0  0  0  0  0  0  0  0  0  0  0  0
   -8.0414    1.0731    9.8494 C   0  0  0  0  0  0  0  0  0  0  0  0
   -9.5475    1.2387    9.8544 C   0  0  0  0  0  0  0  0  0  0  0  0
   -5.9494    2.0032   10.4009 O   0  0  0  0  0  0  0  0  0  0  0  0
   -5.1832    2.0340    9.2558 C   0  0  0  0  0  0  0  0  0  0  0  0
   -5.8995    2.6765    8.2762 C   0  0  0  0  0  0  0  0  0  0  0  0
   -7.1267    3.0588    8.7926 O   0  0  0  0  0  0  0  0  0  0  0  0
   -5.3233    2.8333    7.0066 C   0  0  0  0  0  0  0  0  0  0  0  0
   -4.0855    2.3743    6.7061 C   0  0  0  0  0  0  0  0  0  0  0  0
   -3.3619    1.7235    7.7031 C   0  0  0  0  0  0  0  0  0  0  0  0
   -3.9028    1.5617    8.9416 C   0  0  0  0  0  0  0  0  0  0  0  0
   -3.5094    2.5177    5.3550 C   0  0  0  0  0  0  0  0  0  0  0  0
   -3.6932    1.3721    4.4421 C   0  0  0  0  0  0  0  0  0  0  0  0
   -4.2951    0.2006    5.0724 C   0  0  0  0  0  0  0  0  0  0  0  0
   -4.3158    0.0319    6.2880 O   0  0  0  0  0  0  0  0  0  0  0  0
   -4.8972   -0.8200    4.2950 O   0  0  0  0  0  0  0  0  0  0  0  0
  1  2  1  0
  2  3  1  0
  2  4  1  0
  4  5  1  0
  5  6  2  0
  6  7  1  0
  7  8  2  0
  8  9  1  0
  9 10  2  0
  8 11  1  0
  4 12  1  0
 12 13  2  0
 12 14  1  0
 14 15  1  0
 15 16  1  0
 16 17  1  0
 17 18  1  0
 18 19  1  0
 17 20  1  0
 20 21  1  0
 21 22  2  0
 22 23  1  0
 22 24  1  0
 24 25  2  0
 25 26  1  0
 26 27  2  0
 25 28  1  0
 28 29  1  0
 29 30  1  0
 30 31  2  0
 30 32  1  0
 10  5  1  0
 19 14  1  0
 23 17  1  0
 27 21  1  0
M  END
$$$$
