
     RDKit          3D

 32 35  0  0  0  0  0  0  0  0999 V2000
   -3.4557    3.0641    5.6508 C   0  0  0  0  0  0  0  0  0  0  0  0
   -2.5494    2.1649    6.4998 C   0  0  0  0  0  0  0  0  0  0  0  0
   -1.8017    1.1818    5.6725 C   0  0  0  0  0  0  0  0  0  0  0  0
   -3.3200    1.5879    7.6661 C   0  0  0  0  0  0  0  0  0  0  0  0
   -2.4938    0.8203    8.6069 C   0  0  0  0  0  0  0  0  0  0  0  0
   -1.3964    1.3982    9.1783 C   0  0  0  0  0  0  0  0  0  0  0  0
   -0.6292    0.6635   10.0507 C   0  0  0  0  0  0  0  0  0  0  0  0
   -0.9043   -0.6407   10.3887 C   0  0  0  0  0  0  0  0  0  0  0  0
   -2.0205   -1.2078    9.7984 C   0  0  0  0  0  0  0  0  0  0  0  0
   -2.7981   -0.4838    8.9228 C   0  0  0  0  0  0  0  0  0  0  0  0
    0.0902   -1.5652   11.5094 Cl  0  0  0  0  0  0  0  0  0  0  0  0
   -4.1634    2.6216    8.2877 C   0  0  0  0  0  0  0  0  0  0  0  0
   -3.5792    3.6744    8.7129 O   0  0  0  0  0  0  0  0  0  0  0  0
   -5.5502    2.5708    8.4630 N   0  0  0  0  0  0  0  0  0  0  0  0
   -6.2936    1.4115    8.0494 C   0  0  0  0  0  0  0  0  0  0  0  0
   -7.0722    0.8658    9.2071 C   0  0  0  0  0  0  0  0  0  0  0  0
   -7.8289    1.9080    9.9625 C   0  0  0  0  0  0  0  0  0  0  0  0
   -7.0683    3.1582   10.2398 C   0  0  0  0  0  0  0  0  0  0  0  0
   -6.2588    3.6688    9.0650 C   0  0  0  0  0  0  0  0  0  0  0  0
   -8.1821    1.3339   11.2280 O   0  0  0  0  0  0  0  0  0  0  0  0
   -9.4815    1.7167   11.4819 C   0  0  0  0  0  0  0  0  0  0  0  0
  -10.0212    2.2056   10.3177 C   0  0  0  0  0  0  0  0  0  0  0  0
   -9.0677    2.1366    9.3152 O   0  0  0  0  0  0  0  0  0  0  0  0
  -11.3478    2.6621   10.3242 C   0  0  0  0  0  0  0  0  0  0  0  0
  -12.1205    2.6416   11.4358 C   0  0  0  0  0  0  0  0  0  0  0  0
  -11.5691    2.1442   12.6148 C   0  0  0  0  0  0  0  0  0  0  0  0
  -10.2842    1.6959   12.6294 C   0  0  0  0  0  0  0  0  0  0  0  0
  -13.5028    3.1583   11.4321 C   0  0  0  0  0  0  0  0  0  0  0  0
  -13.6526    4.6210   11.2985 C   0  0  0  0  0  0  0  0  0  0  0  0
  -14.7427    5.1816   12.0919 C   0  0  0  0  0  0  0  0  0  0  0  0
  -14.5743    5.6827   13.1996 O   0  0  0  0  0  0  0  0  0  0  0  0
  -16.0759    5.1740   11.6115 O   0  0  0  0  0  0  0  0  0  0  0  0
  1  2  1  0
  2  3  1  0
  2  4  1  0
  4  5  1  0
  5  6  2  0
  6  7  1  0
  7  8  2  0
  8  9  1  0
  9 10  2  0
  8 11  1  0
  4 12  1  0
 12 13  2  0
 12 14  1  0
 14 15  1  0
 15 16  1  0
 16 17  1  0
 17 18  1  0
 18 19  1  0
 17 20  1  0
 20 21  1  0
 21 22  2  0
 22 23  1  0
 22 24  1  0
 24 25  2  0
 25 26  1  0
 26 27  2  0
 25 28  1  0
 28 29  1  0
 29 30  1  0
 30 31  2  0
 30 32  1  0
 10  5  1  0
 19 14  1  0
 23 17  1  0
 27 21  1  0
M  END
$$$$
