
     RDKit          3D

 32 35  0  0  0  0  0  0  0  0999 V2000
  -12.5903    4.9596   14.3760 C   0  0  0  0  0  0  0  0  0  0  0  0
  -12.9128    3.7177   13.5366 C   0  0  0  0  0  0  0  0  0  0  0  0
  -14.1357    3.0205   14.0144 C   0  0  0  0  0  0  0  0  0  0  0  0
  -11.6832    2.8511   13.3807 C   0  0  0  0  0  0  0  0  0  0  0  0
  -11.3969    2.0052   14.5467 C   0  0  0  0  0  0  0  0  0  0  0  0
  -11.9510    0.7604   14.6379 C   0  0  0  0  0  0  0  0  0  0  0  0
  -11.6792   -0.0157   15.7394 C   0  0  0  0  0  0  0  0  0  0  0  0
  -10.8693    0.3925   16.7731 C   0  0  0  0  0  0  0  0  0  0  0  0
  -10.3181    1.6572   16.6614 C   0  0  0  0  0  0  0  0  0  0  0  0
  -10.5815    2.4454   15.5637 C   0  0  0  0  0  0  0  0  0  0  0  0
  -10.5323   -0.6168   18.1757 Cl  0  0  0  0  0  0  0  0  0  0  0  0
  -11.7163    2.1371   12.0941 C   0  0  0  0  0  0  0  0  0  0  0  0
  -12.8585    1.9688   11.5487 O   0  0  0  0  0  0  0  0  0  0  0  0
  -10.6178    1.6191   11.4005 N   0  0  0  0  0  0  0  0  0  0  0  0
  -10.8115    0.8526   10.1994 C   0  0  0  0  0  0  0  0  0  0  0  0
  -10.0401    1.4681    9.0723 C   0  0  0  0  0  0  0  0  0  0  0  0
   -8.6295    1.8048    9.4274 C   0  0  0  0  0  0  0  0  0  0  0  0
   -8.4562    2.4639   10.7519 C   0  0  0  0  0  0  0  0  0  0  0  0
   -9.2759    1.8470   11.8671 C   0  0  0  0  0  0  0  0  0  0  0  0
   -8.1536    2.7187    8.4305 O   0  0  0  0  0  0  0  0  0  0  0  0
   -6.8676    2.3288    8.1245 C   0  0  0  0  0  0  0  0  0  0  0  0
   -6.6677    1.0690    8.6331 C   0  0  0  0  0  0  0  0  0  0  0  0
   -7.8263    0.6495    9.2660 O   0  0  0  0  0  0  0  0  0  0  0  0
   -5.4213    0.4523    8.4473 C   0  0  0  0  0  0  0  0  0  0  0  0
   -4.4031    1.0510    7.7857 C   0  0  0  0  0  0  0  0  0  0  0  0
   -4.6103    2.3290    7.2708 C   0  0  0  0  0  0  0  0  0  0  0  0
   -5.8125    2.9444    7.4397 C   0  0  0  0  0  0  0  0  0  0  0  0
   -3.0874    0.4008    7.6302 C   0  0  0  0  0  0  0  0  0  0  0  0
   -2.1711    0.4976    8.7837 C   0  0  0  0  0  0  0  0  0  0  0  0
   -1.5602    1.8136    8.9485 C   0  0  0  0  0  0  0  0  0  0  0  0
   -1.7530    2.5217    9.9322 O   0  0  0  0  0  0  0  0  0  0  0  0
   -0.6970    2.3482    7.9598 O   0  0  0  0  0  0  0  0  0  0  0  0
  1  2  1  0
  2  3  1  0
  2  4  1  0
  4  5  1  0
  5  6  2  0
  6  7  1  0
  7  8  2  0
  8  9  1  0
  9 10  2  0
  8 11  1  0
  4 12  1  0
 12 13  2  0
 12 14  1  0
 14 15  1  0
 15 16  1  0
 16 17  1  0
 17 18  1  0
 18 19  1  0
 17 20  1  0
 20 21  1  0
 21 22  2  0
 22 23  1  0
 22 24  1  0
 24 25  2  0
 25 26  1  0
 26 27  2  0
 25 28  1  0
 28 29  1  0
 29 30  1  0
 30 31  2  0
 30 32  1  0
 10  5  1  0
 19 14  1  0
 23 17  1  0
 27 21  1  0
M  END
$$$$
