
     RDKit          3D

 32 35  0  0  0  0  0  0  0  0999 V2000
   -0.6946    4.8783    9.9155 C   0  0  0  0  0  0  0  0  0  0  0  0
   -1.7002    4.9556    8.7606 C   0  0  0  0  0  0  0  0  0  0  0  0
   -2.7133    6.0232    8.9701 C   0  0  0  0  0  0  0  0  0  0  0  0
   -2.2507    3.5826    8.4462 C   0  0  0  0  0  0  0  0  0  0  0  0
   -3.0740    3.0092    9.5188 C   0  0  0  0  0  0  0  0  0  0  0  0
   -4.3198    3.5117    9.7642 C   0  0  0  0  0  0  0  0  0  0  0  0
   -5.0745    2.9690   10.7768 C   0  0  0  0  0  0  0  0  0  0  0  0
   -4.6435    1.9329   11.5717 C   0  0  0  0  0  0  0  0  0  0  0  0
   -3.3781    1.4384   11.3069 C   0  0  0  0  0  0  0  0  0  0  0  0
   -2.6112    1.9722   10.2957 C   0  0  0  0  0  0  0  0  0  0  0  0
   -5.6255    1.2503   12.8637 Cl  0  0  0  0  0  0  0  0  0  0  0  0
   -2.8779    3.5718    7.1148 C   0  0  0  0  0  0  0  0  0  0  0  0
   -3.9645    4.2277    6.9756 O   0  0  0  0  0  0  0  0  0  0  0  0
   -2.4039    2.9122    5.9761 N   0  0  0  0  0  0  0  0  0  0  0  0
   -1.3857    1.9034    6.0908 C   0  0  0  0  0  0  0  0  0  0  0  0
   -1.8672    0.6221    5.4818 C   0  0  0  0  0  0  0  0  0  0  0  0
   -2.4835    0.7961    4.1331 C   0  0  0  0  0  0  0  0  0  0  0  0
   -3.4202    1.9483    4.0154 C   0  0  0  0  0  0  0  0  0  0  0  0
   -2.9276    3.2218    4.6722 C   0  0  0  0  0  0  0  0  0  0  0  0
   -3.2346   -0.3941    3.8594 O   0  0  0  0  0  0  0  0  0  0  0  0
   -2.9933   -0.7140    2.5407 C   0  0  0  0  0  0  0  0  0  0  0  0
   -1.9118    0.0155    2.1121 C   0  0  0  0  0  0  0  0  0  0  0  0
   -1.4580    0.8045    3.1564 O   0  0  0  0  0  0  0  0  0  0  0  0
   -1.4701   -0.1394    0.7895 C   0  0  0  0  0  0  0  0  0  0  0  0
   -2.0694   -0.9810   -0.0854 C   0  0  0  0  0  0  0  0  0  0  0  0
   -3.1661   -1.7198    0.3537 C   0  0  0  0  0  0  0  0  0  0  0  0
   -3.6099   -1.5845    1.6332 C   0  0  0  0  0  0  0  0  0  0  0  0
   -1.6122   -1.1050   -1.4831 C   0  0  0  0  0  0  0  0  0  0  0  0
   -0.1910   -1.4550   -1.6764 C   0  0  0  0  0  0  0  0  0  0  0  0
    0.1128   -1.9987   -2.9971 C   0  0  0  0  0  0  0  0  0  0  0  0
   -0.2838   -1.4851   -4.0389 O   0  0  0  0  0  0  0  0  0  0  0  0
    0.8966   -3.1703   -3.1432 O   0  0  0  0  0  0  0  0  0  0  0  0
  1  2  1  0
  2  3  1  0
  2  4  1  0
  4  5  1  0
  5  6  2  0
  6  7  1  0
  7  8  2  0
  8  9  1  0
  9 10  2  0
  8 11  1  0
  4 12  1  0
 12 13  2  0
 12 14  1  0
 14 15  1  0
 15 16  1  0
 16 17  1  0
 17 18  1  0
 18 19  1  0
 17 20  1  0
 20 21  1  0
 21 22  2  0
 22 23  1  0
 22 24  1  0
 24 25  2  0
 25 26  1  0
 26 27  2  0
 25 28  1  0
 28 29  1  0
 29 30  1  0
 30 31  2  0
 30 32  1  0
 10  5  1  0
 19 14  1  0
 23 17  1  0
 27 21  1  0
M  END
$$$$
