
     RDKit          3D

 32 35  0  0  0  0  0  0  0  0999 V2000
  -12.2159    0.2061   14.9594 C   0  0  0  0  0  0  0  0  0  0  0  0
  -12.8131    1.4723   14.3342 C   0  0  0  0  0  0  0  0  0  0  0  0
  -14.2882    1.3768   14.1755 C   0  0  0  0  0  0  0  0  0  0  0  0
  -12.0444    1.8614   13.0914 C   0  0  0  0  0  0  0  0  0  0  0  0
  -12.5439    3.0772   12.4361 C   0  0  0  0  0  0  0  0  0  0  0  0
  -13.2274    2.9842   11.2576 C   0  0  0  0  0  0  0  0  0  0  0  0
  -13.6815    4.1323   10.6532 C   0  0  0  0  0  0  0  0  0  0  0  0
  -13.4857    5.3906   11.1723 C   0  0  0  0  0  0  0  0  0  0  0  0
  -12.7905    5.4628   12.3670 C   0  0  0  0  0  0  0  0  0  0  0  0
  -12.3299    4.3212   12.9835 C   0  0  0  0  0  0  0  0  0  0  0  0
  -14.0761    6.8496   10.3836 Cl  0  0  0  0  0  0  0  0  0  0  0  0
  -10.5970    1.8550   13.3582 C   0  0  0  0  0  0  0  0  0  0  0  0
  -10.2063    2.3411   14.4725 O   0  0  0  0  0  0  0  0  0  0  0  0
   -9.5960    1.3681   12.5114 N   0  0  0  0  0  0  0  0  0  0  0  0
   -9.9385    0.7653   11.2517 C   0  0  0  0  0  0  0  0  0  0  0  0
   -9.2273    1.4721   10.1386 C   0  0  0  0  0  0  0  0  0  0  0  0
   -7.7733    1.6878   10.4004 C   0  0  0  0  0  0  0  0  0  0  0  0
   -7.4475    2.1701   11.7714 C   0  0  0  0  0  0  0  0  0  0  0  0
   -8.2078    1.4661   12.8770 C   0  0  0  0  0  0  0  0  0  0  0  0
   -7.3260    2.6901    9.4779 O   0  0  0  0  0  0  0  0  0  0  0  0
   -6.0978    2.2729    9.0124 C   0  0  0  0  0  0  0  0  0  0  0  0
   -5.9361    0.9517    9.3498 C   0  0  0  0  0  0  0  0  0  0  0  0
   -7.0615    0.5199   10.0324 O   0  0  0  0  0  0  0  0  0  0  0  0
   -4.7515    0.2971    8.9802 C   0  0  0  0  0  0  0  0  0  0  0  0
   -3.7566    0.9173    8.3030 C   0  0  0  0  0  0  0  0  0  0  0  0
   -3.9250    2.2578    7.9621 C   0  0  0  0  0  0  0  0  0  0  0  0
   -5.0672    2.9107    8.3108 C   0  0  0  0  0  0  0  0  0  0  0  0
   -2.5027    0.2223    7.9531 C   0  0  0  0  0  0  0  0  0  0  0  0
   -1.8117   -0.4728    9.0572 C   0  0  0  0  0  0  0  0  0  0  0  0
   -1.0457    0.4127    9.9297 C   0  0  0  0  0  0  0  0  0  0  0  0
   -1.0973    0.3530   11.1545 O   0  0  0  0  0  0  0  0  0  0  0  0
   -0.1876    1.4049    9.3933 O   0  0  0  0  0  0  0  0  0  0  0  0
  1  2  1  0
  2  3  1  0
  2  4  1  0
  4  5  1  0
  5  6  2  0
  6  7  1  0
  7  8  2  0
  8  9  1  0
  9 10  2  0
  8 11  1  0
  4 12  1  0
 12 13  2  0
 12 14  1  0
 14 15  1  0
 15 16  1  0
 16 17  1  0
 17 18  1  0
 18 19  1  0
 17 20  1  0
 20 21  1  0
 21 22  2  0
 22 23  1  0
 22 24  1  0
 24 25  2  0
 25 26  1  0
 26 27  2  0
 25 28  1  0
 28 29  1  0
 29 30  1  0
 30 31  2  0
 30 32  1  0
 10  5  1  0
 19 14  1  0
 23 17  1  0
 27 21  1  0
M  END
$$$$
