
     RDKit          3D

 32 35  0  0  0  0  0  0  0  0999 V2000
  -11.2867    0.9592    9.9925 C   0  0  0  0  0  0  0  0  0  0  0  0
  -11.6728    2.4339   10.1574 C   0  0  0  0  0  0  0  0  0  0  0  0
  -11.5478    3.1916    8.8845 C   0  0  0  0  0  0  0  0  0  0  0  0
  -10.9644    3.0356   11.3503 C   0  0  0  0  0  0  0  0  0  0  0  0
  -11.0112    2.1997   12.5570 C   0  0  0  0  0  0  0  0  0  0  0  0
   -9.9325    2.1489   13.3929 C   0  0  0  0  0  0  0  0  0  0  0  0
   -9.9896    1.3555   14.5140 C   0  0  0  0  0  0  0  0  0  0  0  0
  -11.0859    0.5967   14.8506 C   0  0  0  0  0  0  0  0  0  0  0  0
  -12.1681    0.6620   13.9901 C   0  0  0  0  0  0  0  0  0  0  0  0
  -12.1250    1.4524   12.8637 C   0  0  0  0  0  0  0  0  0  0  0  0
  -11.1403   -0.4128   16.2920 Cl  0  0  0  0  0  0  0  0  0  0  0  0
   -9.6190    3.4967   10.9714 C   0  0  0  0  0  0  0  0  0  0  0  0
   -9.4746    4.7424   10.7312 O   0  0  0  0  0  0  0  0  0  0  0  0
   -8.4722    2.7060   10.8457 N   0  0  0  0  0  0  0  0  0  0  0  0
   -8.5732    1.2716   10.8527 C   0  0  0  0  0  0  0  0  0  0  0  0
   -7.9533    0.7112    9.6094 C   0  0  0  0  0  0  0  0  0  0  0  0
   -6.6086    1.2828    9.3022 C   0  0  0  0  0  0  0  0  0  0  0  0
   -6.5057    2.7609    9.4541 C   0  0  0  0  0  0  0  0  0  0  0  0
   -7.1733    3.3076   10.6997 C   0  0  0  0  0  0  0  0  0  0  0  0
   -6.3259    0.9740    7.9309 O   0  0  0  0  0  0  0  0  0  0  0  0
   -5.0032    0.5897    7.8814 C   0  0  0  0  0  0  0  0  0  0  0  0
   -4.5779    0.3458    9.1640 C   0  0  0  0  0  0  0  0  0  0  0  0
   -5.6283    0.5734   10.0380 O   0  0  0  0  0  0  0  0  0  0  0  0
   -3.2523   -0.0633    9.3730 C   0  0  0  0  0  0  0  0  0  0  0  0
   -2.3712   -0.2269    8.3581 C   0  0  0  0  0  0  0  0  0  0  0  0
   -2.8071    0.0212    7.0581 C   0  0  0  0  0  0  0  0  0  0  0  0
   -4.0895    0.4183    6.8341 C   0  0  0  0  0  0  0  0  0  0  0  0
   -0.9708   -0.6243    8.6000 C   0  0  0  0  0  0  0  0  0  0  0  0
   -0.2263    0.1783    9.5906 C   0  0  0  0  0  0  0  0  0  0  0  0
    0.7746   -0.5785   10.3372 C   0  0  0  0  0  0  0  0  0  0  0  0
    1.8130   -0.9939    9.8317 O   0  0  0  0  0  0  0  0  0  0  0  0
    0.5918   -0.8764   11.7107 O   0  0  0  0  0  0  0  0  0  0  0  0
  1  2  1  0
  2  3  1  0
  2  4  1  0
  4  5  1  0
  5  6  2  0
  6  7  1  0
  7  8  2  0
  8  9  1  0
  9 10  2  0
  8 11  1  0
  4 12  1  0
 12 13  2  0
 12 14  1  0
 14 15  1  0
 15 16  1  0
 16 17  1  0
 17 18  1  0
 18 19  1  0
 17 20  1  0
 20 21  1  0
 21 22  2  0
 22 23  1  0
 22 24  1  0
 24 25  2  0
 25 26  1  0
 26 27  2  0
 25 28  1  0
 28 29  1  0
 29 30  1  0
 30 31  2  0
 30 32  1  0
 10  5  1  0
 19 14  1  0
 23 17  1  0
 27 21  1  0
M  END
$$$$
