
     RDKit          3D

 32 35  0  0  0  0  0  0  0  0999 V2000
   -8.6422    5.1177   12.1089 C   0  0  0  0  0  0  0  0  0  0  0  0
   -9.7361    4.2388   11.4909 C   0  0  0  0  0  0  0  0  0  0  0  0
  -10.9825    4.2429   12.3011 C   0  0  0  0  0  0  0  0  0  0  0  0
   -9.1846    2.8741   11.1441 C   0  0  0  0  0  0  0  0  0  0  0  0
   -9.5545    1.8203   12.0979 C   0  0  0  0  0  0  0  0  0  0  0  0
   -8.6502    1.3959   13.0289 C   0  0  0  0  0  0  0  0  0  0  0  0
   -9.0095    0.4033   13.9093 C   0  0  0  0  0  0  0  0  0  0  0  0
  -10.2459   -0.1988   13.9093 C   0  0  0  0  0  0  0  0  0  0  0  0
  -11.1475    0.2455   12.9577 C   0  0  0  0  0  0  0  0  0  0  0  0
  -10.8012    1.2390   12.0697 C   0  0  0  0  0  0  0  0  0  0  0  0
  -10.6879   -1.4683   15.0462 Cl  0  0  0  0  0  0  0  0  0  0  0  0
   -9.4561    2.5523    9.7338 C   0  0  0  0  0  0  0  0  0  0  0  0
  -10.6490    2.7280    9.3138 O   0  0  0  0  0  0  0  0  0  0  0  0
   -8.5359    2.0698    8.7975 N   0  0  0  0  0  0  0  0  0  0  0  0
   -8.8915    1.9814    7.4070 C   0  0  0  0  0  0  0  0  0  0  0  0
   -7.9068    2.7495    6.5795 C   0  0  0  0  0  0  0  0  0  0  0  0
   -6.4830    2.4593    6.9227 C   0  0  0  0  0  0  0  0  0  0  0  0
   -6.1868    2.4101    8.3816 C   0  0  0  0  0  0  0  0  0  0  0  0
   -7.2171    1.6606    9.2019 C   0  0  0  0  0  0  0  0  0  0  0  0
   -5.6935    3.5169    6.3625 O   0  0  0  0  0  0  0  0  0  0  0  0
   -4.5769    2.9232    5.8146 C   0  0  0  0  0  0  0  0  0  0  0  0
   -4.8053    1.5717    5.7317 C   0  0  0  0  0  0  0  0  0  0  0  0
   -6.0697    1.2972    6.2266 O   0  0  0  0  0  0  0  0  0  0  0  0
   -3.8032    0.7455    5.2012 C   0  0  0  0  0  0  0  0  0  0  0  0
   -2.6149    1.2277    4.7670 C   0  0  0  0  0  0  0  0  0  0  0  0
   -2.3874    2.5997    4.8524 C   0  0  0  0  0  0  0  0  0  0  0  0
   -3.3471    3.4184    5.3634 C   0  0  0  0  0  0  0  0  0  0  0  0
   -1.5590    0.3392    4.2441 C   0  0  0  0  0  0  0  0  0  0  0  0
   -0.3905    0.1273    5.1213 C   0  0  0  0  0  0  0  0  0  0  0  0
    0.3259   -1.1192    4.8660 C   0  0  0  0  0  0  0  0  0  0  0  0
    0.9343   -1.3391    3.8231 O   0  0  0  0  0  0  0  0  0  0  0  0
    0.3539   -2.1573    5.8304 O   0  0  0  0  0  0  0  0  0  0  0  0
  1  2  1  0
  2  3  1  0
  2  4  1  0
  4  5  1  0
  5  6  2  0
  6  7  1  0
  7  8  2  0
  8  9  1  0
  9 10  2  0
  8 11  1  0
  4 12  1  0
 12 13  2  0
 12 14  1  0
 14 15  1  0
 15 16  1  0
 16 17  1  0
 17 18  1  0
 18 19  1  0
 17 20  1  0
 20 21  1  0
 21 22  2  0
 22 23  1  0
 22 24  1  0
 24 25  2  0
 25 26  1  0
 26 27  2  0
 25 28  1  0
 28 29  1  0
 29 30  1  0
 30 31  2  0
 30 32  1  0
 10  5  1  0
 19 14  1  0
 23 17  1  0
 27 21  1  0
M  END
$$$$
