
     RDKit          3D

 32 35  0  0  0  0  0  0  0  0999 V2000
   -7.8991    1.5651    6.7447 C   0  0  0  0  0  0  0  0  0  0  0  0
   -6.8933    1.8924    7.8547 C   0  0  0  0  0  0  0  0  0  0  0  0
   -5.5453    1.3328    7.5724 C   0  0  0  0  0  0  0  0  0  0  0  0
   -7.4727    1.5534    9.2099 C   0  0  0  0  0  0  0  0  0  0  0  0
   -6.4624    1.2811   10.2404 C   0  0  0  0  0  0  0  0  0  0  0  0
   -6.2087   -0.0051   10.6229 C   0  0  0  0  0  0  0  0  0  0  0  0
   -5.2656   -0.2423   11.5943 C   0  0  0  0  0  0  0  0  0  0  0  0
   -4.5496    0.7541   12.2151 C   0  0  0  0  0  0  0  0  0  0  0  0
   -4.8220    2.0503   11.8134 C   0  0  0  0  0  0  0  0  0  0  0  0
   -5.7640    2.3028   10.8415 C   0  0  0  0  0  0  0  0  0  0  0  0
   -3.3445    0.4301   13.4570 Cl  0  0  0  0  0  0  0  0  0  0  0  0
   -8.4950    2.5400    9.5941 C   0  0  0  0  0  0  0  0  0  0  0  0
   -8.9514    3.2973    8.6728 O   0  0  0  0  0  0  0  0  0  0  0  0
   -9.0233    2.7368   10.8741 N   0  0  0  0  0  0  0  0  0  0  0  0
   -9.7240    3.9512   11.1931 C   0  0  0  0  0  0  0  0  0  0  0  0
  -11.0966    3.6294   11.6997 C   0  0  0  0  0  0  0  0  0  0  0  0
  -11.1138    2.5577   12.7392 C   0  0  0  0  0  0  0  0  0  0  0  0
  -10.2534    1.3793   12.4396 C   0  0  0  0  0  0  0  0  0  0  0  0
   -8.8845    1.7299   11.8926 C   0  0  0  0  0  0  0  0  0  0  0  0
  -12.4648    2.0869   12.8327 O   0  0  0  0  0  0  0  0  0  0  0  0
  -12.7303    1.9246   14.1753 C   0  0  0  0  0  0  0  0  0  0  0  0
  -11.7469    2.5648   14.8886 C   0  0  0  0  0  0  0  0  0  0  0  0
  -10.8493    3.1389   14.0034 O   0  0  0  0  0  0  0  0  0  0  0  0
  -11.8002    2.5400   16.2904 C   0  0  0  0  0  0  0  0  0  0  0  0
  -12.7844    1.9073   16.9715 C   0  0  0  0  0  0  0  0  0  0  0  0
  -13.7805    1.2594   16.2439 C   0  0  0  0  0  0  0  0  0  0  0  0
  -13.7474    1.2723   14.8833 C   0  0  0  0  0  0  0  0  0  0  0  0
  -12.8050    1.8623   18.4464 C   0  0  0  0  0  0  0  0  0  0  0  0
  -13.6617    2.8598   19.1180 C   0  0  0  0  0  0  0  0  0  0  0  0
  -13.1616    4.2287   19.0289 C   0  0  0  0  0  0  0  0  0  0  0  0
  -11.9925    4.5292   19.2513 O   0  0  0  0  0  0  0  0  0  0  0  0
  -14.0197    5.2993   18.6740 O   0  0  0  0  0  0  0  0  0  0  0  0
  1  2  1  0
  2  3  1  0
  2  4  1  0
  4  5  1  0
  5  6  2  0
  6  7  1  0
  7  8  2  0
  8  9  1  0
  9 10  2  0
  8 11  1  0
  4 12  1  0
 12 13  2  0
 12 14  1  0
 14 15  1  0
 15 16  1  0
 16 17  1  0
 17 18  1  0
 18 19  1  0
 17 20  1  0
 20 21  1  0
 21 22  2  0
 22 23  1  0
 22 24  1  0
 24 25  2  0
 25 26  1  0
 26 27  2  0
 25 28  1  0
 28 29  1  0
 29 30  1  0
 30 31  2  0
 30 32  1  0
 10  5  1  0
 19 14  1  0
 23 17  1  0
 27 21  1  0
M  END
$$$$
