
     RDKit          3D

 32 35  0  0  0  0  0  0  0  0999 V2000
   -2.5438    2.9916    1.3931 C   0  0  0  0  0  0  0  0  0  0  0  0
   -2.0464    1.5774    1.7152 C   0  0  0  0  0  0  0  0  0  0  0  0
   -2.0109    0.7079    0.5099 C   0  0  0  0  0  0  0  0  0  0  0  0
   -2.7878    1.0150    2.9072 C   0  0  0  0  0  0  0  0  0  0  0  0
   -2.1218   -0.1318    3.5382 C   0  0  0  0  0  0  0  0  0  0  0  0
   -0.7979   -0.0559    3.8646 C   0  0  0  0  0  0  0  0  0  0  0  0
   -0.1876   -1.1409    4.4475 C   0  0  0  0  0  0  0  0  0  0  0  0
   -0.8404   -2.3186    4.7265 C   0  0  0  0  0  0  0  0  0  0  0  0
   -2.1811   -2.3751    4.3875 C   0  0  0  0  0  0  0  0  0  0  0  0
   -2.8055   -1.2960    3.8033 C   0  0  0  0  0  0  0  0  0  0  0  0
   -0.0412   -3.6975    5.4746 Cl  0  0  0  0  0  0  0  0  0  0  0  0
   -3.1672    2.0939    3.8335 C   0  0  0  0  0  0  0  0  0  0  0  0
   -3.8190    3.0786    3.3477 O   0  0  0  0  0  0  0  0  0  0  0  0
   -2.8857    2.1541    5.2023 N   0  0  0  0  0  0  0  0  0  0  0  0
   -2.9898    3.4002    5.9122 C   0  0  0  0  0  0  0  0  0  0  0  0
   -3.9294    3.2503    7.0694 C   0  0  0  0  0  0  0  0  0  0  0  0
   -3.6716    2.0330    7.8945 C   0  0  0  0  0  0  0  0  0  0  0  0
   -3.4179    0.7891    7.1154 C   0  0  0  0  0  0  0  0  0  0  0  0
   -2.4951    0.9747    5.9280 C   0  0  0  0  0  0  0  0  0  0  0  0
   -4.8451    1.8082    8.6870 O   0  0  0  0  0  0  0  0  0  0  0  0
   -4.4059    1.4621    9.9466 C   0  0  0  0  0  0  0  0  0  0  0  0
   -3.0720    1.7750   10.0381 C   0  0  0  0  0  0  0  0  0  0  0  0
   -2.6542    2.3227    8.8363 O   0  0  0  0  0  0  0  0  0  0  0  0
   -2.3943    1.5125   11.2382 C   0  0  0  0  0  0  0  0  0  0  0  0
   -3.0035    0.9600   12.3136 C   0  0  0  0  0  0  0  0  0  0  0  0
   -4.3572    0.6445   12.2168 C   0  0  0  0  0  0  0  0  0  0  0  0
   -5.0329    0.8919   11.0615 C   0  0  0  0  0  0  0  0  0  0  0  0
   -2.2662    0.6590   13.5561 C   0  0  0  0  0  0  0  0  0  0  0  0
   -2.2719    1.7128   14.5901 C   0  0  0  0  0  0  0  0  0  0  0  0
   -0.9468    2.2320   14.9167 C   0  0  0  0  0  0  0  0  0  0  0  0
   -0.6797    3.4299   14.9178 O   0  0  0  0  0  0  0  0  0  0  0  0
    0.1174    1.3595   15.2555 O   0  0  0  0  0  0  0  0  0  0  0  0
  1  2  1  0
  2  3  1  0
  2  4  1  0
  4  5  1  0
  5  6  2  0
  6  7  1  0
  7  8  2  0
  8  9  1  0
  9 10  2  0
  8 11  1  0
  4 12  1  0
 12 13  2  0
 12 14  1  0
 14 15  1  0
 15 16  1  0
 16 17  1  0
 17 18  1  0
 18 19  1  0
 17 20  1  0
 20 21  1  0
 21 22  2  0
 22 23  1  0
 22 24  1  0
 24 25  2  0
 25 26  1  0
 26 27  2  0
 25 28  1  0
 28 29  1  0
 29 30  1  0
 30 31  2  0
 30 32  1  0
 10  5  1  0
 19 14  1  0
 23 17  1  0
 27 21  1  0
M  END
$$$$
