
     RDKit          3D

 32 35  0  0  0  0  0  0  0  0999 V2000
  -13.3412   -0.1042   13.4954 C   0  0  0  0  0  0  0  0  0  0  0  0
  -11.9257    0.4764   13.5970 C   0  0  0  0  0  0  0  0  0  0  0  0
  -11.2997    0.1993   14.9166 C   0  0  0  0  0  0  0  0  0  0  0  0
  -11.9151    1.9235   13.1578 C   0  0  0  0  0  0  0  0  0  0  0  0
  -10.9686    2.7661   13.9002 C   0  0  0  0  0  0  0  0  0  0  0  0
   -9.6261    2.6317   13.6891 C   0  0  0  0  0  0  0  0  0  0  0  0
   -8.7533    3.4225   14.3978 C   0  0  0  0  0  0  0  0  0  0  0  0
   -9.1569    4.3570   15.3225 C   0  0  0  0  0  0  0  0  0  0  0  0
  -10.5214    4.4771   15.5217 C   0  0  0  0  0  0  0  0  0  0  0  0
  -11.4072    3.6917   14.8189 C   0  0  0  0  0  0  0  0  0  0  0  0
   -8.0233    5.3616   16.2198 Cl  0  0  0  0  0  0  0  0  0  0  0  0
  -11.8055    2.0161   11.6930 C   0  0  0  0  0  0  0  0  0  0  0  0
  -12.8414    2.4001   11.0529 O   0  0  0  0  0  0  0  0  0  0  0  0
  -10.6753    1.7247   10.9222 N   0  0  0  0  0  0  0  0  0  0  0  0
  -10.7531    1.7296    9.4864 C   0  0  0  0  0  0  0  0  0  0  0  0
   -9.7340    2.6728    8.9242 C   0  0  0  0  0  0  0  0  0  0  0  0
   -8.3739    2.5055    9.5170 C   0  0  0  0  0  0  0  0  0  0  0  0
   -8.3498    2.3516   10.9984 C   0  0  0  0  0  0  0  0  0  0  0  0
   -9.4144    1.4226   11.5459 C   0  0  0  0  0  0  0  0  0  0  0  0
   -7.6301    3.6893    9.1989 O   0  0  0  0  0  0  0  0  0  0  0  0
   -6.3670    3.2723    8.8385 C   0  0  0  0  0  0  0  0  0  0  0  0
   -6.4083    1.9179    8.6160 C   0  0  0  0  0  0  0  0  0  0  0  0
   -7.6991    1.4647    8.8336 O   0  0  0  0  0  0  0  0  0  0  0  0
   -5.2313    1.2570    8.2335 C   0  0  0  0  0  0  0  0  0  0  0  0
   -4.0515    1.9020    8.0753 C   0  0  0  0  0  0  0  0  0  0  0  0
   -4.0141    3.2763    8.3015 C   0  0  0  0  0  0  0  0  0  0  0  0
   -5.1451    3.9363    8.6727 C   0  0  0  0  0  0  0  0  0  0  0  0
   -2.8159    1.1844    7.7062 C   0  0  0  0  0  0  0  0  0  0  0  0
   -2.9156   -0.2862    7.6218 C   0  0  0  0  0  0  0  0  0  0  0  0
   -1.6902   -0.9400    7.1713 C   0  0  0  0  0  0  0  0  0  0  0  0
   -0.6018   -0.7651    7.7110 O   0  0  0  0  0  0  0  0  0  0  0  0
   -1.6981   -1.8266    6.0657 O   0  0  0  0  0  0  0  0  0  0  0  0
  1  2  1  0
  2  3  1  0
  2  4  1  0
  4  5  1  0
  5  6  2  0
  6  7  1  0
  7  8  2  0
  8  9  1  0
  9 10  2  0
  8 11  1  0
  4 12  1  0
 12 13  2  0
 12 14  1  0
 14 15  1  0
 15 16  1  0
 16 17  1  0
 17 18  1  0
 18 19  1  0
 17 20  1  0
 20 21  1  0
 21 22  2  0
 22 23  1  0
 22 24  1  0
 24 25  2  0
 25 26  1  0
 26 27  2  0
 25 28  1  0
 28 29  1  0
 29 30  1  0
 30 31  2  0
 30 32  1  0
 10  5  1  0
 19 14  1  0
 23 17  1  0
 27 21  1  0
M  END
$$$$
