
     RDKit          3D

 32 35  0  0  0  0  0  0  0  0999 V2000
  -14.7835    2.3011   16.0297 C   0  0  0  0  0  0  0  0  0  0  0  0
  -13.5026    2.9892   16.5163 C   0  0  0  0  0  0  0  0  0  0  0  0
  -13.6000    4.4708   16.4435 C   0  0  0  0  0  0  0  0  0  0  0  0
  -12.2893    2.3788   15.8511 C   0  0  0  0  0  0  0  0  0  0  0  0
  -11.3911    1.6759   16.7763 C   0  0  0  0  0  0  0  0  0  0  0  0
  -10.8479    0.4752   16.4183 C   0  0  0  0  0  0  0  0  0  0  0  0
  -10.0154   -0.1736   17.2989 C   0  0  0  0  0  0  0  0  0  0  0  0
   -9.6909    0.3215   18.5401 C   0  0  0  0  0  0  0  0  0  0  0  0
  -10.2522    1.5392   18.8837 C   0  0  0  0  0  0  0  0  0  0  0  0
  -11.0877    2.2002   18.0116 C   0  0  0  0  0  0  0  0  0  0  0  0
   -8.6215   -0.5242   19.6540 Cl  0  0  0  0  0  0  0  0  0  0  0  0
  -12.6882    1.5999   14.6678 C   0  0  0  0  0  0  0  0  0  0  0  0
  -13.4220    0.5736   14.8642 O   0  0  0  0  0  0  0  0  0  0  0  0
  -12.3444    1.8687   13.3389 N   0  0  0  0  0  0  0  0  0  0  0  0
  -12.3178    3.2221   12.8539 C   0  0  0  0  0  0  0  0  0  0  0  0
  -10.9693    3.5310   12.2793 C   0  0  0  0  0  0  0  0  0  0  0  0
  -10.4614    2.4798   11.3486 C   0  0  0  0  0  0  0  0  0  0  0  0
  -10.6457    1.0798   11.8228 C   0  0  0  0  0  0  0  0  0  0  0  0
  -12.0040    0.8027   12.4345 C   0  0  0  0  0  0  0  0  0  0  0  0
   -9.0521    2.6978   11.1998 O   0  0  0  0  0  0  0  0  0  0  0  0
   -8.7681    2.5214    9.8628 C   0  0  0  0  0  0  0  0  0  0  0  0
   -9.9520    2.5288    9.1671 C   0  0  0  0  0  0  0  0  0  0  0  0
  -10.9971    2.7103   10.0580 O   0  0  0  0  0  0  0  0  0  0  0  0
   -9.9213    2.3647    7.7740 C   0  0  0  0  0  0  0  0  0  0  0  0
   -8.7680    2.1974    7.0849 C   0  0  0  0  0  0  0  0  0  0  0  0
   -7.5690    2.1911    7.7946 C   0  0  0  0  0  0  0  0  0  0  0  0
   -7.5771    2.3494    9.1464 C   0  0  0  0  0  0  0  0  0  0  0  0
   -8.7577    1.9915    5.6236 C   0  0  0  0  0  0  0  0  0  0  0  0
   -9.2870    0.6999    5.1427 C   0  0  0  0  0  0  0  0  0  0  0  0
   -9.3293    0.5796    3.6881 C   0  0  0  0  0  0  0  0  0  0  0  0
   -8.6210   -0.2024    3.0611 O   0  0  0  0  0  0  0  0  0  0  0  0
  -10.2086    1.3767    2.9136 O   0  0  0  0  0  0  0  0  0  0  0  0
  1  2  1  0
  2  3  1  0
  2  4  1  0
  4  5  1  0
  5  6  2  0
  6  7  1  0
  7  8  2  0
  8  9  1  0
  9 10  2  0
  8 11  1  0
  4 12  1  0
 12 13  2  0
 12 14  1  0
 14 15  1  0
 15 16  1  0
 16 17  1  0
 17 18  1  0
 18 19  1  0
 17 20  1  0
 20 21  1  0
 21 22  2  0
 22 23  1  0
 22 24  1  0
 24 25  2  0
 25 26  1  0
 26 27  2  0
 25 28  1  0
 28 29  1  0
 29 30  1  0
 30 31  2  0
 30 32  1  0
 10  5  1  0
 19 14  1  0
 23 17  1  0
 27 21  1  0
M  END
$$$$
