
     RDKit          3D

 32 35  0  0  0  0  0  0  0  0999 V2000
   -5.1088    1.8364   12.3850 C   0  0  0  0  0  0  0  0  0  0  0  0
   -4.0128    0.9290   11.8138 C   0  0  0  0  0  0  0  0  0  0  0  0
   -3.0201    0.5311   12.8464 C   0  0  0  0  0  0  0  0  0  0  0  0
   -3.4385    1.5259   10.5485 C   0  0  0  0  0  0  0  0  0  0  0  0
   -2.2274    0.8501   10.0654 C   0  0  0  0  0  0  0  0  0  0  0  0
   -2.1894   -0.5133    9.9967 C   0  0  0  0  0  0  0  0  0  0  0  0
   -1.0455   -1.1307    9.5496 C   0  0  0  0  0  0  0  0  0  0  0  0
    0.0825   -0.4469    9.1608 C   0  0  0  0  0  0  0  0  0  0  0  0
    0.0234    0.9337    9.2384 C   0  0  0  0  0  0  0  0  0  0  0  0
   -1.1158    1.5656    9.6842 C   0  0  0  0  0  0  0  0  0  0  0  0
    1.5382   -1.2559    8.5899 Cl  0  0  0  0  0  0  0  0  0  0  0  0
   -4.4930    1.6997    9.5366 C   0  0  0  0  0  0  0  0  0  0  0  0
   -5.5474    2.3254    9.8932 O   0  0  0  0  0  0  0  0  0  0  0  0
   -4.4606    1.2470    8.2136 N   0  0  0  0  0  0  0  0  0  0  0  0
   -5.5269    1.5748    7.3063 C   0  0  0  0  0  0  0  0  0  0  0  0
   -4.9727    2.2601    6.0949 C   0  0  0  0  0  0  0  0  0  0  0  0
   -3.7870    1.5686    5.5073 C   0  0  0  0  0  0  0  0  0  0  0  0
   -2.7740    1.1091    6.4980 C   0  0  0  0  0  0  0  0  0  0  0  0
   -3.3611    0.4538    7.7316 C   0  0  0  0  0  0  0  0  0  0  0  0
   -3.1401    2.5103    4.6410 O   0  0  0  0  0  0  0  0  0  0  0  0
   -2.7801    1.8148    3.5069 C   0  0  0  0  0  0  0  0  0  0  0  0
   -3.4469    0.6144    3.5087 C   0  0  0  0  0  0  0  0  0  0  0  0
   -4.2358    0.5389    4.6448 O   0  0  0  0  0  0  0  0  0  0  0  0
   -3.2419   -0.2771    2.4449 C   0  0  0  0  0  0  0  0  0  0  0  0
   -2.4095   -0.0020    1.4132 C   0  0  0  0  0  0  0  0  0  0  0  0
   -1.7353    1.2174    1.4151 C   0  0  0  0  0  0  0  0  0  0  0  0
   -1.9209    2.0965    2.4375 C   0  0  0  0  0  0  0  0  0  0  0  0
   -2.1797   -0.9667    0.3204 C   0  0  0  0  0  0  0  0  0  0  0  0
   -0.7705   -1.2850    0.0162 C   0  0  0  0  0  0  0  0  0  0  0  0
   -0.6011   -2.3474   -0.9711 C   0  0  0  0  0  0  0  0  0  0  0  0
    0.3448   -3.1294   -0.9561 O   0  0  0  0  0  0  0  0  0  0  0  0
   -1.5402   -2.5309   -2.0165 O   0  0  0  0  0  0  0  0  0  0  0  0
  1  2  1  0
  2  3  1  0
  2  4  1  0
  4  5  1  0
  5  6  2  0
  6  7  1  0
  7  8  2  0
  8  9  1  0
  9 10  2  0
  8 11  1  0
  4 12  1  0
 12 13  2  0
 12 14  1  0
 14 15  1  0
 15 16  1  0
 16 17  1  0
 17 18  1  0
 18 19  1  0
 17 20  1  0
 20 21  1  0
 21 22  2  0
 22 23  1  0
 22 24  1  0
 24 25  2  0
 25 26  1  0
 26 27  2  0
 25 28  1  0
 28 29  1  0
 29 30  1  0
 30 31  2  0
 30 32  1  0
 10  5  1  0
 19 14  1  0
 23 17  1  0
 27 21  1  0
M  END
$$$$
