
     RDKit          3D

 32 35  0  0  0  0  0  0  0  0999 V2000
  -13.6412    5.1697   13.8450 C   0  0  0  0  0  0  0  0  0  0  0  0
  -13.6739    3.6727   13.5150 C   0  0  0  0  0  0  0  0  0  0  0  0
  -14.7557    2.9613   14.2455 C   0  0  0  0  0  0  0  0  0  0  0  0
  -12.2917    3.0727   13.6441 C   0  0  0  0  0  0  0  0  0  0  0  0
  -11.9265    2.7042   15.0181 C   0  0  0  0  0  0  0  0  0  0  0  0
  -11.3064    3.6143   15.8256 C   0  0  0  0  0  0  0  0  0  0  0  0
  -10.9641    3.2510   17.1064 C   0  0  0  0  0  0  0  0  0  0  0  0
  -11.2125    2.0052   17.6330 C   0  0  0  0  0  0  0  0  0  0  0  0
  -11.8414    1.0977   16.7982 C   0  0  0  0  0  0  0  0  0  0  0  0
  -12.1899    1.4478   15.5131 C   0  0  0  0  0  0  0  0  0  0  0  0
  -10.7673    1.5590   19.2768 Cl  0  0  0  0  0  0  0  0  0  0  0  0
  -12.0980    2.0069   12.6477 C   0  0  0  0  0  0  0  0  0  0  0  0
  -13.1464    1.4575   12.1687 O   0  0  0  0  0  0  0  0  0  0  0  0
  -10.8748    1.5288   12.1665 N   0  0  0  0  0  0  0  0  0  0  0  0
  -10.8179    0.3063   11.4116 C   0  0  0  0  0  0  0  0  0  0  0  0
  -10.1709    0.5570   10.0839 C   0  0  0  0  0  0  0  0  0  0  0  0
   -8.9048    1.3432   10.1753 C   0  0  0  0  0  0  0  0  0  0  0  0
   -8.9608    2.5188   11.0882 C   0  0  0  0  0  0  0  0  0  0  0  0
   -9.6536    2.2501   12.4087 C   0  0  0  0  0  0  0  0  0  0  0  0
   -8.6234    1.8379    8.8593 O   0  0  0  0  0  0  0  0  0  0  0  0
   -7.2683    1.6804    8.6639 C   0  0  0  0  0  0  0  0  0  0  0  0
   -6.7877    0.8419    9.6393 C   0  0  0  0  0  0  0  0  0  0  0  0
   -7.8350    0.4605   10.4618 O   0  0  0  0  0  0  0  0  0  0  0  0
   -5.4205    0.5272    9.6502 C   0  0  0  0  0  0  0  0  0  0  0  0
   -4.5518    1.0191    8.7356 C   0  0  0  0  0  0  0  0  0  0  0  0
   -5.0437    1.8691    7.7473 C   0  0  0  0  0  0  0  0  0  0  0  0
   -6.3670    2.1863    7.7188 C   0  0  0  0  0  0  0  0  0  0  0  0
   -3.1107    0.7047    8.7835 C   0  0  0  0  0  0  0  0  0  0  0  0
   -2.2009    1.8453    9.0093 C   0  0  0  0  0  0  0  0  0  0  0  0
   -0.8102    1.4608    9.2331 C   0  0  0  0  0  0  0  0  0  0  0  0
   -0.4743    0.6177   10.0594 O   0  0  0  0  0  0  0  0  0  0  0  0
    0.2413    2.0550    8.4916 O   0  0  0  0  0  0  0  0  0  0  0  0
  1  2  1  0
  2  3  1  0
  2  4  1  0
  4  5  1  0
  5  6  2  0
  6  7  1  0
  7  8  2  0
  8  9  1  0
  9 10  2  0
  8 11  1  0
  4 12  1  0
 12 13  2  0
 12 14  1  0
 14 15  1  0
 15 16  1  0
 16 17  1  0
 17 18  1  0
 18 19  1  0
 17 20  1  0
 20 21  1  0
 21 22  2  0
 22 23  1  0
 22 24  1  0
 24 25  2  0
 25 26  1  0
 26 27  2  0
 25 28  1  0
 28 29  1  0
 29 30  1  0
 30 31  2  0
 30 32  1  0
 10  5  1  0
 19 14  1  0
 23 17  1  0
 27 21  1  0
M  END
$$$$
