
     RDKit          3D

 32 35  0  0  0  0  0  0  0  0999 V2000
   -0.8664   -1.2733    2.3282 C   0  0  0  0  0  0  0  0  0  0  0  0
   -0.4442   -1.2064    3.8007 C   0  0  0  0  0  0  0  0  0  0  0  0
    0.6226   -2.1902    4.1230 C   0  0  0  0  0  0  0  0  0  0  0  0
   -1.6590   -1.2387    4.7009 C   0  0  0  0  0  0  0  0  0  0  0  0
   -1.3411   -1.3708    6.1287 C   0  0  0  0  0  0  0  0  0  0  0  0
   -0.1079   -1.0066    6.5887 C   0  0  0  0  0  0  0  0  0  0  0  0
    0.1763   -1.1438    7.9265 C   0  0  0  0  0  0  0  0  0  0  0  0
   -0.7212   -1.6343    8.8457 C   0  0  0  0  0  0  0  0  0  0  0  0
   -1.9648   -1.9980    8.3590 C   0  0  0  0  0  0  0  0  0  0  0  0
   -2.2634   -1.8659    7.0215 C   0  0  0  0  0  0  0  0  0  0  0  0
   -0.3387   -1.8017   10.5560 Cl  0  0  0  0  0  0  0  0  0  0  0  0
   -2.5728   -0.1327    4.3724 C   0  0  0  0  0  0  0  0  0  0  0  0
   -3.5338   -0.3874    3.5712 O   0  0  0  0  0  0  0  0  0  0  0  0
   -2.4978    1.1797    4.8503 N   0  0  0  0  0  0  0  0  0  0  0  0
   -3.4724    2.1572    4.4476 C   0  0  0  0  0  0  0  0  0  0  0  0
   -4.1262    2.7528    5.6568 C   0  0  0  0  0  0  0  0  0  0  0  0
   -3.1585    3.1729    6.7133 C   0  0  0  0  0  0  0  0  0  0  0  0
   -2.0723    2.1933    6.9946 C   0  0  0  0  0  0  0  0  0  0  0  0
   -1.4532    1.5765    5.7568 C   0  0  0  0  0  0  0  0  0  0  0  0
   -3.9074    3.3392    7.9246 O   0  0  0  0  0  0  0  0  0  0  0  0
   -3.4326    4.4861    8.5235 C   0  0  0  0  0  0  0  0  0  0  0  0
   -2.6846    5.1751    7.6008 C   0  0  0  0  0  0  0  0  0  0  0  0
   -2.6791    4.4702    6.4083 O   0  0  0  0  0  0  0  0  0  0  0  0
   -2.0901    6.3883    7.9790 C   0  0  0  0  0  0  0  0  0  0  0  0
   -2.2231    6.9092    9.2216 C   0  0  0  0  0  0  0  0  0  0  0  0
   -2.9834    6.2072   10.1546 C   0  0  0  0  0  0  0  0  0  0  0  0
   -3.5689    5.0286    9.8074 C   0  0  0  0  0  0  0  0  0  0  0  0
   -1.5618    8.1695    9.6118 C   0  0  0  0  0  0  0  0  0  0  0  0
   -0.1032    8.1008    9.8300 C   0  0  0  0  0  0  0  0  0  0  0  0
    0.2775    7.6012   11.1481 C   0  0  0  0  0  0  0  0  0  0  0  0
    0.0530    8.2156   12.1866 O   0  0  0  0  0  0  0  0  0  0  0  0
    0.9388    6.3563   11.2954 O   0  0  0  0  0  0  0  0  0  0  0  0
  1  2  1  0
  2  3  1  0
  2  4  1  0
  4  5  1  0
  5  6  2  0
  6  7  1  0
  7  8  2  0
  8  9  1  0
  9 10  2  0
  8 11  1  0
  4 12  1  0
 12 13  2  0
 12 14  1  0
 14 15  1  0
 15 16  1  0
 16 17  1  0
 17 18  1  0
 18 19  1  0
 17 20  1  0
 20 21  1  0
 21 22  2  0
 22 23  1  0
 22 24  1  0
 24 25  2  0
 25 26  1  0
 26 27  2  0
 25 28  1  0
 28 29  1  0
 29 30  1  0
 30 31  2  0
 30 32  1  0
 10  5  1  0
 19 14  1  0
 23 17  1  0
 27 21  1  0
M  END
$$$$
