
     RDKit          3D

 32 35  0  0  0  0  0  0  0  0999 V2000
  -10.9644    0.8283    9.3320 C   0  0  0  0  0  0  0  0  0  0  0  0
  -11.6245    1.5693   10.5009 C   0  0  0  0  0  0  0  0  0  0  0  0
  -12.8202    2.3411   10.0715 C   0  0  0  0  0  0  0  0  0  0  0  0
  -10.5908    2.3455   11.2859 C   0  0  0  0  0  0  0  0  0  0  0  0
  -11.0667    2.8237   12.5904 C   0  0  0  0  0  0  0  0  0  0  0  0
  -10.7829    4.0969   12.9944 C   0  0  0  0  0  0  0  0  0  0  0  0
  -11.2289    4.5264   14.2216 C   0  0  0  0  0  0  0  0  0  0  0  0
  -11.9562    3.7380   15.0822 C   0  0  0  0  0  0  0  0  0  0  0  0
  -12.2327    2.4512   14.6541 C   0  0  0  0  0  0  0  0  0  0  0  0
  -11.7924    2.0076   13.4273 C   0  0  0  0  0  0  0  0  0  0  0  0
  -12.5197    4.3067   16.6501 Cl  0  0  0  0  0  0  0  0  0  0  0  0
   -9.3162    1.6107   11.3260 C   0  0  0  0  0  0  0  0  0  0  0  0
   -9.0837    0.9006   12.3614 O   0  0  0  0  0  0  0  0  0  0  0  0
   -8.3243    1.6091   10.3399 N   0  0  0  0  0  0  0  0  0  0  0  0
   -8.4694    2.4194    9.1609 C   0  0  0  0  0  0  0  0  0  0  0  0
   -7.2876    3.3291    9.0194 C   0  0  0  0  0  0  0  0  0  0  0  0
   -5.9763    2.6368    9.1947 C   0  0  0  0  0  0  0  0  0  0  0  0
   -5.9159    1.6887   10.3419 C   0  0  0  0  0  0  0  0  0  0  0  0
   -7.1392    0.8063   10.4864 C   0  0  0  0  0  0  0  0  0  0  0  0
   -4.9940    3.6544    9.4300 O   0  0  0  0  0  0  0  0  0  0  0  0
   -3.8819    3.3012    8.6965 C   0  0  0  0  0  0  0  0  0  0  0  0
   -4.2483    2.3252    7.8028 C   0  0  0  0  0  0  0  0  0  0  0  0
   -5.5968    2.0514    7.9622 O   0  0  0  0  0  0  0  0  0  0  0  0
   -3.2778    1.7994    6.9367 C   0  0  0  0  0  0  0  0  0  0  0  0
   -1.9895    2.2156    6.9467 C   0  0  0  0  0  0  0  0  0  0  0  0
   -1.6221    3.2064    7.8547 C   0  0  0  0  0  0  0  0  0  0  0  0
   -2.5487    3.7299    8.7031 C   0  0  0  0  0  0  0  0  0  0  0  0
   -0.9746    1.6263    6.0519 C   0  0  0  0  0  0  0  0  0  0  0  0
   -0.8390    0.1568    6.0968 C   0  0  0  0  0  0  0  0  0  0  0  0
    0.0126   -0.3284    7.1791 C   0  0  0  0  0  0  0  0  0  0  0  0
    1.1508    0.0881    7.3722 O   0  0  0  0  0  0  0  0  0  0  0  0
   -0.4433   -1.3249    8.0778 O   0  0  0  0  0  0  0  0  0  0  0  0
  1  2  1  0
  2  3  1  0
  2  4  1  0
  4  5  1  0
  5  6  2  0
  6  7  1  0
  7  8  2  0
  8  9  1  0
  9 10  2  0
  8 11  1  0
  4 12  1  0
 12 13  2  0
 12 14  1  0
 14 15  1  0
 15 16  1  0
 16 17  1  0
 17 18  1  0
 18 19  1  0
 17 20  1  0
 20 21  1  0
 21 22  2  0
 22 23  1  0
 22 24  1  0
 24 25  2  0
 25 26  1  0
 26 27  2  0
 25 28  1  0
 28 29  1  0
 29 30  1  0
 30 31  2  0
 30 32  1  0
 10  5  1  0
 19 14  1  0
 23 17  1  0
 27 21  1  0
M  END
$$$$
