
     RDKit          3D

 32 35  0  0  0  0  0  0  0  0999 V2000
   -2.6468    5.6973    7.8785 C   0  0  0  0  0  0  0  0  0  0  0  0
   -2.4031    4.5142    8.8227 C   0  0  0  0  0  0  0  0  0  0  0  0
   -1.4980    4.8714    9.9466 C   0  0  0  0  0  0  0  0  0  0  0  0
   -2.0166    3.2814    8.0367 C   0  0  0  0  0  0  0  0  0  0  0  0
   -1.5121    2.1786    8.8651 C   0  0  0  0  0  0  0  0  0  0  0  0
   -0.1676    2.0220    9.0458 C   0  0  0  0  0  0  0  0  0  0  0  0
    0.2885    0.9800    9.8177 C   0  0  0  0  0  0  0  0  0  0  0  0
   -0.5413    0.0699   10.4294 C   0  0  0  0  0  0  0  0  0  0  0  0
   -1.9001    0.2462   10.2333 C   0  0  0  0  0  0  0  0  0  0  0  0
   -2.3712    1.2853    9.4628 C   0  0  0  0  0  0  0  0  0  0  0  0
    0.0621   -1.2579   11.4154 Cl  0  0  0  0  0  0  0  0  0  0  0  0
   -3.0908    2.9091    7.1019 C   0  0  0  0  0  0  0  0  0  0  0  0
   -4.2739    2.8263    7.5748 O   0  0  0  0  0  0  0  0  0  0  0  0
   -2.9497    2.6339    5.7379 N   0  0  0  0  0  0  0  0  0  0  0  0
   -1.6594    2.7169    5.1087 C   0  0  0  0  0  0  0  0  0  0  0  0
   -1.3316    1.4146    4.4447 C   0  0  0  0  0  0  0  0  0  0  0  0
   -2.4454    0.8718    3.6115 C   0  0  0  0  0  0  0  0  0  0  0  0
   -3.7930    0.9433    4.2420 C   0  0  0  0  0  0  0  0  0  0  0  0
   -4.0858    2.2561    4.9398 C   0  0  0  0  0  0  0  0  0  0  0  0
   -2.1567   -0.5130    3.3777 O   0  0  0  0  0  0  0  0  0  0  0  0
   -2.4619   -0.7583    2.0562 C   0  0  0  0  0  0  0  0  0  0  0  0
   -2.6063    0.4484    1.4170 C   0  0  0  0  0  0  0  0  0  0  0  0
   -2.3936    1.4695    2.3286 O   0  0  0  0  0  0  0  0  0  0  0  0
   -2.9215    0.4586    0.0500 C   0  0  0  0  0  0  0  0  0  0  0  0
   -3.0910   -0.6770   -0.6676 C   0  0  0  0  0  0  0  0  0  0  0  0
   -2.9430   -1.8992   -0.0152 C   0  0  0  0  0  0  0  0  0  0  0  0
   -2.6367   -1.9307    1.3105 C   0  0  0  0  0  0  0  0  0  0  0  0
   -3.4565   -0.6468   -2.0970 C   0  0  0  0  0  0  0  0  0  0  0  0
   -2.3647   -0.3443   -3.0437 C   0  0  0  0  0  0  0  0  0  0  0  0
   -1.4454   -1.4568   -3.2657 C   0  0  0  0  0  0  0  0  0  0  0  0
   -1.1759   -2.2843   -2.4002 O   0  0  0  0  0  0  0  0  0  0  0  0
   -0.8064   -1.6389   -4.5175 O   0  0  0  0  0  0  0  0  0  0  0  0
  1  2  1  0
  2  3  1  0
  2  4  1  0
  4  5  1  0
  5  6  2  0
  6  7  1  0
  7  8  2  0
  8  9  1  0
  9 10  2  0
  8 11  1  0
  4 12  1  0
 12 13  2  0
 12 14  1  0
 14 15  1  0
 15 16  1  0
 16 17  1  0
 17 18  1  0
 18 19  1  0
 17 20  1  0
 20 21  1  0
 21 22  2  0
 22 23  1  0
 22 24  1  0
 24 25  2  0
 25 26  1  0
 26 27  2  0
 25 28  1  0
 28 29  1  0
 29 30  1  0
 30 31  2  0
 30 32  1  0
 10  5  1  0
 19 14  1  0
 23 17  1  0
 27 21  1  0
M  END
$$$$
