
     RDKit          3D

 32 35  0  0  0  0  0  0  0  0999 V2000
  -10.4593    2.2973    8.7905 C   0  0  0  0  0  0  0  0  0  0  0  0
   -9.3216    3.1909    9.2986 C   0  0  0  0  0  0  0  0  0  0  0  0
   -8.4668    3.6937    8.1912 C   0  0  0  0  0  0  0  0  0  0  0  0
   -8.5893    2.5178   10.4378 C   0  0  0  0  0  0  0  0  0  0  0  0
   -9.4624    2.0868   11.5373 C   0  0  0  0  0  0  0  0  0  0  0  0
   -9.6782    2.9156   12.6010 C   0  0  0  0  0  0  0  0  0  0  0  0
  -10.4918    2.4939   13.6255 C   0  0  0  0  0  0  0  0  0  0  0  0
  -11.1123    1.2668   13.6448 C   0  0  0  0  0  0  0  0  0  0  0  0
  -10.8802    0.4420   12.5578 C   0  0  0  0  0  0  0  0  0  0  0  0
  -10.0677    0.8513   11.5244 C   0  0  0  0  0  0  0  0  0  0  0  0
  -12.1520    0.7450   14.9662 Cl  0  0  0  0  0  0  0  0  0  0  0  0
   -7.6845    1.4767    9.9244 C   0  0  0  0  0  0  0  0  0  0  0  0
   -7.4414    0.4845   10.6904 O   0  0  0  0  0  0  0  0  0  0  0  0
   -7.0575    1.4605    8.6743 N   0  0  0  0  0  0  0  0  0  0  0  0
   -7.2541    2.5425    7.7478 C   0  0  0  0  0  0  0  0  0  0  0  0
   -5.9305    3.1246    7.3560 C   0  0  0  0  0  0  0  0  0  0  0  0
   -4.9154    2.0980    6.9755 C   0  0  0  0  0  0  0  0  0  0  0  0
   -4.8484    0.9166    7.8802 C   0  0  0  0  0  0  0  0  0  0  0  0
   -6.2000    0.3699    8.2927 C   0  0  0  0  0  0  0  0  0  0  0  0
   -3.6343    2.7405    7.0171 O   0  0  0  0  0  0  0  0  0  0  0  0
   -2.9414    2.3032    5.9090 C   0  0  0  0  0  0  0  0  0  0  0  0
   -3.8322    1.7016    5.0545 C   0  0  0  0  0  0  0  0  0  0  0  0
   -5.0982    1.7528    5.6142 O   0  0  0  0  0  0  0  0  0  0  0  0
   -3.3593    1.1715    3.8446 C   0  0  0  0  0  0  0  0  0  0  0  0
   -2.0556    1.2277    3.4840 C   0  0  0  0  0  0  0  0  0  0  0  0
   -1.1552    1.8395    4.3538 C   0  0  0  0  0  0  0  0  0  0  0  0
   -1.5938    2.3606    5.5321 C   0  0  0  0  0  0  0  0  0  0  0  0
   -1.5708    0.6338    2.2231 C   0  0  0  0  0  0  0  0  0  0  0  0
   -1.1490   -0.7796    2.2871 C   0  0  0  0  0  0  0  0  0  0  0  0
   -0.8442   -1.3683    0.9860 C   0  0  0  0  0  0  0  0  0  0  0  0
    0.1838   -2.0004    0.7625 O   0  0  0  0  0  0  0  0  0  0  0  0
   -1.7394   -1.2353   -0.1046 O   0  0  0  0  0  0  0  0  0  0  0  0
  1  2  1  0
  2  3  1  0
  2  4  1  0
  4  5  1  0
  5  6  2  0
  6  7  1  0
  7  8  2  0
  8  9  1  0
  9 10  2  0
  8 11  1  0
  4 12  1  0
 12 13  2  0
 12 14  1  0
 14 15  1  0
 15 16  1  0
 16 17  1  0
 17 18  1  0
 18 19  1  0
 17 20  1  0
 20 21  1  0
 21 22  2  0
 22 23  1  0
 22 24  1  0
 24 25  2  0
 25 26  1  0
 26 27  2  0
 25 28  1  0
 28 29  1  0
 29 30  1  0
 30 31  2  0
 30 32  1  0
 10  5  1  0
 19 14  1  0
 23 17  1  0
 27 21  1  0
M  END
$$$$
