
     RDKit          3D

 32 35  0  0  0  0  0  0  0  0999 V2000
   -4.7453    0.5376    6.0120 C   0  0  0  0  0  0  0  0  0  0  0  0
   -3.8246    0.7827    7.2133 C   0  0  0  0  0  0  0  0  0  0  0  0
   -2.6072   -0.0695    7.1693 C   0  0  0  0  0  0  0  0  0  0  0  0
   -4.6133    0.7324    8.5027 C   0  0  0  0  0  0  0  0  0  0  0  0
   -3.7838    0.5760    9.7045 C   0  0  0  0  0  0  0  0  0  0  0  0
   -3.2234    1.6734   10.2932 C   0  0  0  0  0  0  0  0  0  0  0  0
   -2.4433    1.5089   11.4130 C   0  0  0  0  0  0  0  0  0  0  0  0
   -2.1884    0.2852   11.9863 C   0  0  0  0  0  0  0  0  0  0  0  0
   -2.7654   -0.8140   11.3742 C   0  0  0  0  0  0  0  0  0  0  0  0
   -3.5491   -0.6642   10.2521 C   0  0  0  0  0  0  0  0  0  0  0  0
   -1.1870    0.0950   13.4217 Cl  0  0  0  0  0  0  0  0  0  0  0  0
   -5.5782    1.8423    8.5595 C   0  0  0  0  0  0  0  0  0  0  0  0
   -5.6698    2.5901    7.5286 O   0  0  0  0  0  0  0  0  0  0  0  0
   -6.4124    2.1666    9.6343 N   0  0  0  0  0  0  0  0  0  0  0  0
   -7.0913    3.4336    9.6717 C   0  0  0  0  0  0  0  0  0  0  0  0
   -8.5672    3.2169    9.8107 C   0  0  0  0  0  0  0  0  0  0  0  0
   -8.9292    2.2354   10.8761 C   0  0  0  0  0  0  0  0  0  0  0  0
   -8.0994    0.9986   10.8979 C   0  0  0  0  0  0  0  0  0  0  0  0
   -6.6146    1.2409   10.7172 C   0  0  0  0  0  0  0  0  0  0  0  0
  -10.2846    1.8357   10.6338 O   0  0  0  0  0  0  0  0  0  0  0  0
  -10.9061    1.7957   11.8633 C   0  0  0  0  0  0  0  0  0  0  0  0
  -10.1069    2.4465   12.7706 C   0  0  0  0  0  0  0  0  0  0  0  0
   -8.9713    2.9051   12.1233 O   0  0  0  0  0  0  0  0  0  0  0  0
  -10.5309    2.5386   14.1048 C   0  0  0  0  0  0  0  0  0  0  0  0
  -11.6997    2.0089   14.5366 C   0  0  0  0  0  0  0  0  0  0  0  0
  -12.5078    1.3498   13.6126 C   0  0  0  0  0  0  0  0  0  0  0  0
  -12.1149    1.2501   12.3133 C   0  0  0  0  0  0  0  0  0  0  0  0
  -12.1129    2.0853   15.9512 C   0  0  0  0  0  0  0  0  0  0  0  0
  -11.6011    1.0225   16.8391 C   0  0  0  0  0  0  0  0  0  0  0  0
  -10.7511    1.5106   17.9214 C   0  0  0  0  0  0  0  0  0  0  0  0
   -9.7264    2.1576   17.7269 O   0  0  0  0  0  0  0  0  0  0  0  0
  -11.0749    1.2556   19.2774 O   0  0  0  0  0  0  0  0  0  0  0  0
  1  2  1  0
  2  3  1  0
  2  4  1  0
  4  5  1  0
  5  6  2  0
  6  7  1  0
  7  8  2  0
  8  9  1  0
  9 10  2  0
  8 11  1  0
  4 12  1  0
 12 13  2  0
 12 14  1  0
 14 15  1  0
 15 16  1  0
 16 17  1  0
 17 18  1  0
 18 19  1  0
 17 20  1  0
 20 21  1  0
 21 22  2  0
 22 23  1  0
 22 24  1  0
 24 25  2  0
 25 26  1  0
 26 27  2  0
 25 28  1  0
 28 29  1  0
 29 30  1  0
 30 31  2  0
 30 32  1  0
 10  5  1  0
 19 14  1  0
 23 17  1  0
 27 21  1  0
M  END
$$$$
