
     RDKit          3D

 32 35  0  0  0  0  0  0  0  0999 V2000
  -10.8371    1.7707   10.4330 C   0  0  0  0  0  0  0  0  0  0  0  0
   -9.5796    1.1472   11.0503 C   0  0  0  0  0  0  0  0  0  0  0  0
   -9.7841    0.7644   12.4721 C   0  0  0  0  0  0  0  0  0  0  0  0
   -8.3700    2.0111   10.7719 C   0  0  0  0  0  0  0  0  0  0  0  0
   -7.0894    1.3658   11.0890 C   0  0  0  0  0  0  0  0  0  0  0  0
   -6.0701    2.1007   11.6237 C   0  0  0  0  0  0  0  0  0  0  0  0
   -4.8753    1.4832   11.9076 C   0  0  0  0  0  0  0  0  0  0  0  0
   -4.6399    0.1474   11.6817 C   0  0  0  0  0  0  0  0  0  0  0  0
   -5.6855   -0.5793   11.1391 C   0  0  0  0  0  0  0  0  0  0  0  0
   -6.8878    0.0260   10.8498 C   0  0  0  0  0  0  0  0  0  0  0  0
   -3.1024   -0.6258   12.0531 Cl  0  0  0  0  0  0  0  0  0  0  0  0
   -8.4509    2.5902    9.4212 C   0  0  0  0  0  0  0  0  0  0  0  0
   -9.2918    3.5337    9.2396 O   0  0  0  0  0  0  0  0  0  0  0  0
   -7.6964    2.2116    8.3060 N   0  0  0  0  0  0  0  0  0  0  0  0
   -8.0197    2.7227    7.0015 C   0  0  0  0  0  0  0  0  0  0  0  0
   -6.8216    3.3982    6.4077 C   0  0  0  0  0  0  0  0  0  0  0  0
   -5.5677    2.5950    6.5165 C   0  0  0  0  0  0  0  0  0  0  0  0
   -5.3455    1.9555    7.8433 C   0  0  0  0  0  0  0  0  0  0  0  0
   -6.5809    1.3126    8.4402 C   0  0  0  0  0  0  0  0  0  0  0  0
   -4.4740    3.4932    6.2872 O   0  0  0  0  0  0  0  0  0  0  0  0
   -3.5788    2.8219    5.4825 C   0  0  0  0  0  0  0  0  0  0  0  0
   -4.2102    1.7182    4.9643 C   0  0  0  0  0  0  0  0  0  0  0  0
   -5.5120    1.6806    5.4364 O   0  0  0  0  0  0  0  0  0  0  0  0
   -3.4961    0.8685    4.1061 C   0  0  0  0  0  0  0  0  0  0  0  0
   -2.2045    1.0923    3.7676 C   0  0  0  0  0  0  0  0  0  0  0  0
   -1.5677    2.2137    4.2952 C   0  0  0  0  0  0  0  0  0  0  0  0
   -2.2432    3.0508    5.1291 C   0  0  0  0  0  0  0  0  0  0  0  0
   -1.4587    0.1686    2.8910 C   0  0  0  0  0  0  0  0  0  0  0  0
   -1.5344    0.4400    1.4417 C   0  0  0  0  0  0  0  0  0  0  0  0
   -0.8872   -0.5731    0.6129 C   0  0  0  0  0  0  0  0  0  0  0  0
    0.3295   -0.7302    0.5771 O   0  0  0  0  0  0  0  0  0  0  0  0
   -1.6485   -1.4422   -0.2077 O   0  0  0  0  0  0  0  0  0  0  0  0
  1  2  1  0
  2  3  1  0
  2  4  1  0
  4  5  1  0
  5  6  2  0
  6  7  1  0
  7  8  2  0
  8  9  1  0
  9 10  2  0
  8 11  1  0
  4 12  1  0
 12 13  2  0
 12 14  1  0
 14 15  1  0
 15 16  1  0
 16 17  1  0
 17 18  1  0
 18 19  1  0
 17 20  1  0
 20 21  1  0
 21 22  2  0
 22 23  1  0
 22 24  1  0
 24 25  2  0
 25 26  1  0
 26 27  2  0
 25 28  1  0
 28 29  1  0
 29 30  1  0
 30 31  2  0
 30 32  1  0
 10  5  1  0
 19 14  1  0
 23 17  1  0
 27 21  1  0
M  END
$$$$
