
     RDKit          3D

 32 35  0  0  0  0  0  0  0  0999 V2000
   -5.4719    1.8330    9.0707 C   0  0  0  0  0  0  0  0  0  0  0  0
   -4.3165    1.0068    8.4933 C   0  0  0  0  0  0  0  0  0  0  0  0
   -4.5297   -0.4539    8.6691 C   0  0  0  0  0  0  0  0  0  0  0  0
   -2.9890    1.5390    8.9845 C   0  0  0  0  0  0  0  0  0  0  0  0
   -2.3240    0.6718    9.9657 C   0  0  0  0  0  0  0  0  0  0  0  0
   -2.3969    0.9681   11.2968 C   0  0  0  0  0  0  0  0  0  0  0  0
   -1.7624    0.1506   12.2016 C   0  0  0  0  0  0  0  0  0  0  0  0
   -1.0461   -0.9667   11.8415 C   0  0  0  0  0  0  0  0  0  0  0  0
   -0.9842   -1.2489   10.4879 C   0  0  0  0  0  0  0  0  0  0  0  0
   -1.6150   -0.4390    9.5704 C   0  0  0  0  0  0  0  0  0  0  0  0
   -0.2409   -2.0022   13.0157 Cl  0  0  0  0  0  0  0  0  0  0  0  0
   -2.1454    1.9455    7.8491 C   0  0  0  0  0  0  0  0  0  0  0  0
   -0.9671    2.3592    8.1155 O   0  0  0  0  0  0  0  0  0  0  0  0
   -2.5026    1.9261    6.4970 N   0  0  0  0  0  0  0  0  0  0  0  0
   -2.2439    3.0662    5.6598 C   0  0  0  0  0  0  0  0  0  0  0  0
   -1.4194    2.6544    4.4787 C   0  0  0  0  0  0  0  0  0  0  0  0
   -1.9257    1.4273    3.7953 C   0  0  0  0  0  0  0  0  0  0  0  0
   -2.3268    0.3209    4.7084 C   0  0  0  0  0  0  0  0  0  0  0  0
   -3.1269    0.7677    5.9151 C   0  0  0  0  0  0  0  0  0  0  0  0
   -0.8591    0.9361    2.9727 O   0  0  0  0  0  0  0  0  0  0  0  0
   -1.4307    0.5545    1.7780 C   0  0  0  0  0  0  0  0  0  0  0  0
   -2.6989    1.0779    1.7214 C   0  0  0  0  0  0  0  0  0  0  0  0
   -2.9420    1.7964    2.8806 O   0  0  0  0  0  0  0  0  0  0  0  0
   -3.4877    0.8241    0.5893 C   0  0  0  0  0  0  0  0  0  0  0  0
   -3.0487    0.0804   -0.4533 C   0  0  0  0  0  0  0  0  0  0  0  0
   -1.7610   -0.4484   -0.3921 C   0  0  0  0  0  0  0  0  0  0  0  0
   -0.9795   -0.2132    0.6971 C   0  0  0  0  0  0  0  0  0  0  0  0
   -3.9052   -0.2050   -1.6207 C   0  0  0  0  0  0  0  0  0  0  0  0
   -4.4081   -1.5881   -1.7387 C   0  0  0  0  0  0  0  0  0  0  0  0
   -3.8520   -2.3283   -2.8678 C   0  0  0  0  0  0  0  0  0  0  0  0
   -4.0506   -2.0127   -4.0371 O   0  0  0  0  0  0  0  0  0  0  0  0
   -3.0388   -3.4710   -2.6640 O   0  0  0  0  0  0  0  0  0  0  0  0
  1  2  1  0
  2  3  1  0
  2  4  1  0
  4  5  1  0
  5  6  2  0
  6  7  1  0
  7  8  2  0
  8  9  1  0
  9 10  2  0
  8 11  1  0
  4 12  1  0
 12 13  2  0
 12 14  1  0
 14 15  1  0
 15 16  1  0
 16 17  1  0
 17 18  1  0
 18 19  1  0
 17 20  1  0
 20 21  1  0
 21 22  2  0
 22 23  1  0
 22 24  1  0
 24 25  2  0
 25 26  1  0
 26 27  2  0
 25 28  1  0
 28 29  1  0
 29 30  1  0
 30 31  2  0
 30 32  1  0
 10  5  1  0
 19 14  1  0
 23 17  1  0
 27 21  1  0
M  END
$$$$
