
     RDKit          3D

 32 35  0  0  0  0  0  0  0  0999 V2000
  -11.4878    0.4812    8.9939 C   0  0  0  0  0  0  0  0  0  0  0  0
  -10.1804    1.1849    8.6109 C   0  0  0  0  0  0  0  0  0  0  0  0
   -9.6643    0.7299    7.2931 C   0  0  0  0  0  0  0  0  0  0  0  0
   -9.1942    1.1278    9.7560 C   0  0  0  0  0  0  0  0  0  0  0  0
   -7.8242    0.7908    9.3481 C   0  0  0  0  0  0  0  0  0  0  0  0
   -7.1883   -0.2775    9.9131 C   0  0  0  0  0  0  0  0  0  0  0  0
   -5.9033   -0.5747    9.5260 C   0  0  0  0  0  0  0  0  0  0  0  0
   -5.2071    0.1511    8.5882 C   0  0  0  0  0  0  0  0  0  0  0  0
   -5.8693    1.2298    8.0281 C   0  0  0  0  0  0  0  0  0  0  0  0
   -7.1564    1.5391    8.4062 C   0  0  0  0  0  0  0  0  0  0  0  0
   -3.5615   -0.2461    8.1046 Cl  0  0  0  0  0  0  0  0  0  0  0  0
   -9.3094    2.3314   10.5952 C   0  0  0  0  0  0  0  0  0  0  0  0
   -9.0482    3.4539   10.0455 O   0  0  0  0  0  0  0  0  0  0  0  0
   -9.6782    2.3745   11.9437 N   0  0  0  0  0  0  0  0  0  0  0  0
   -9.6841    3.6232   12.6566 C   0  0  0  0  0  0  0  0  0  0  0  0
  -11.0382    3.8646   13.2503 C   0  0  0  0  0  0  0  0  0  0  0  0
  -11.5929    2.6819   13.9735 C   0  0  0  0  0  0  0  0  0  0  0  0
  -11.4307    1.3812   13.2661 C   0  0  0  0  0  0  0  0  0  0  0  0
  -10.0653    1.1772   12.6416 C   0  0  0  0  0  0  0  0  0  0  0  0
  -12.9997    2.9096   14.1308 O   0  0  0  0  0  0  0  0  0  0  0  0
  -13.3195    2.5113   15.4109 C   0  0  0  0  0  0  0  0  0  0  0  0
  -12.1526    2.3651   16.1199 C   0  0  0  0  0  0  0  0  0  0  0  0
  -11.0826    2.6698   15.2946 O   0  0  0  0  0  0  0  0  0  0  0  0
  -12.2203    1.9622   17.4621 C   0  0  0  0  0  0  0  0  0  0  0  0
  -13.3933    1.7096   18.0892 C   0  0  0  0  0  0  0  0  0  0  0  0
  -14.5749    1.8598   17.3663 C   0  0  0  0  0  0  0  0  0  0  0  0
  -14.5309    2.2503   16.0633 C   0  0  0  0  0  0  0  0  0  0  0  0
  -13.4431    1.2532   19.4917 C   0  0  0  0  0  0  0  0  0  0  0  0
  -13.2725    2.2951   20.5237 C   0  0  0  0  0  0  0  0  0  0  0  0
  -11.8930    2.7428   20.6937 C   0  0  0  0  0  0  0  0  0  0  0  0
  -11.5786    3.9269   20.7663 O   0  0  0  0  0  0  0  0  0  0  0  0
  -10.8281    1.8122   20.7848 O   0  0  0  0  0  0  0  0  0  0  0  0
  1  2  1  0
  2  3  1  0
  2  4  1  0
  4  5  1  0
  5  6  2  0
  6  7  1  0
  7  8  2  0
  8  9  1  0
  9 10  2  0
  8 11  1  0
  4 12  1  0
 12 13  2  0
 12 14  1  0
 14 15  1  0
 15 16  1  0
 16 17  1  0
 17 18  1  0
 18 19  1  0
 17 20  1  0
 20 21  1  0
 21 22  2  0
 22 23  1  0
 22 24  1  0
 24 25  2  0
 25 26  1  0
 26 27  2  0
 25 28  1  0
 28 29  1  0
 29 30  1  0
 30 31  2  0
 30 32  1  0
 10  5  1  0
 19 14  1  0
 23 17  1  0
 27 21  1  0
M  END
$$$$
