
     RDKit          3D

 32 35  0  0  0  0  0  0  0  0999 V2000
  -11.6399    1.6527    7.5320 C   0  0  0  0  0  0  0  0  0  0  0  0
  -11.1067    1.2112    8.9001 C   0  0  0  0  0  0  0  0  0  0  0  0
  -11.9805    0.1928    9.5399 C   0  0  0  0  0  0  0  0  0  0  0  0
  -10.7729    2.4158    9.7512 C   0  0  0  0  0  0  0  0  0  0  0  0
  -10.7035    2.1299   11.1900 C   0  0  0  0  0  0  0  0  0  0  0  0
  -11.8327    1.7697   11.8684 C   0  0  0  0  0  0  0  0  0  0  0  0
  -11.7522    1.5130   13.2164 C   0  0  0  0  0  0  0  0  0  0  0  0
  -10.5834    1.5985   13.9358 C   0  0  0  0  0  0  0  0  0  0  0  0
   -9.4508    1.9654   13.2298 C   0  0  0  0  0  0  0  0  0  0  0  0
   -9.5166    2.2254   11.8794 C   0  0  0  0  0  0  0  0  0  0  0  0
  -10.5002    1.2648   15.6624 Cl  0  0  0  0  0  0  0  0  0  0  0  0
   -9.6030    3.1231    9.2060 C   0  0  0  0  0  0  0  0  0  0  0  0
   -9.6681    4.3967    9.1415 O   0  0  0  0  0  0  0  0  0  0  0  0
   -8.4170    2.5409    8.7468 N   0  0  0  0  0  0  0  0  0  0  0  0
   -7.5155    3.2880    7.9122 C   0  0  0  0  0  0  0  0  0  0  0  0
   -6.1534    3.3207    8.5350 C   0  0  0  0  0  0  0  0  0  0  0  0
   -5.6772    1.9846    9.0010 C   0  0  0  0  0  0  0  0  0  0  0  0
   -6.6924    1.1769    9.7328 C   0  0  0  0  0  0  0  0  0  0  0  0
   -8.0711    1.1907    9.1042 C   0  0  0  0  0  0  0  0  0  0  0  0
   -4.5879    2.2197    9.9031 O   0  0  0  0  0  0  0  0  0  0  0  0
   -3.6236    1.2812    9.6047 C   0  0  0  0  0  0  0  0  0  0  0  0
   -3.9317    0.7192    8.3903 C   0  0  0  0  0  0  0  0  0  0  0  0
   -5.0946    1.2972    7.9083 O   0  0  0  0  0  0  0  0  0  0  0  0
   -3.0883   -0.2733    7.8686 C   0  0  0  0  0  0  0  0  0  0  0  0
   -1.9795   -0.7022    8.5163 C   0  0  0  0  0  0  0  0  0  0  0  0
   -1.6703   -0.1289    9.7480 C   0  0  0  0  0  0  0  0  0  0  0  0
   -2.4753    0.8359   10.2712 C   0  0  0  0  0  0  0  0  0  0  0  0
   -1.1232   -1.7719    7.9683 C   0  0  0  0  0  0  0  0  0  0  0  0
   -0.7123   -1.6210    6.5583 C   0  0  0  0  0  0  0  0  0  0  0  0
    0.6910   -1.9399    6.3109 C   0  0  0  0  0  0  0  0  0  0  0  0
    1.1497   -3.0724    6.4267 O   0  0  0  0  0  0  0  0  0  0  0  0
    1.6107   -0.9362    5.9170 O   0  0  0  0  0  0  0  0  0  0  0  0
  1  2  1  0
  2  3  1  0
  2  4  1  0
  4  5  1  0
  5  6  2  0
  6  7  1  0
  7  8  2  0
  8  9  1  0
  9 10  2  0
  8 11  1  0
  4 12  1  0
 12 13  2  0
 12 14  1  0
 14 15  1  0
 15 16  1  0
 16 17  1  0
 17 18  1  0
 18 19  1  0
 17 20  1  0
 20 21  1  0
 21 22  2  0
 22 23  1  0
 22 24  1  0
 24 25  2  0
 25 26  1  0
 26 27  2  0
 25 28  1  0
 28 29  1  0
 29 30  1  0
 30 31  2  0
 30 32  1  0
 10  5  1  0
 19 14  1  0
 23 17  1  0
 27 21  1  0
M  END
$$$$
