
     RDKit          3D

 32 35  0  0  0  0  0  0  0  0999 V2000
   -8.4613    3.9443   10.0046 C   0  0  0  0  0  0  0  0  0  0  0  0
   -9.2978    2.8167    9.3883 C   0  0  0  0  0  0  0  0  0  0  0  0
  -10.0674    3.2743    8.2015 C   0  0  0  0  0  0  0  0  0  0  0  0
  -10.1008    2.1095   10.4570 C   0  0  0  0  0  0  0  0  0  0  0  0
  -10.5387    0.7593   10.0797 C   0  0  0  0  0  0  0  0  0  0  0  0
   -9.6125   -0.2152    9.8400 C   0  0  0  0  0  0  0  0  0  0  0  0
  -10.0387   -1.4716    9.4803 C   0  0  0  0  0  0  0  0  0  0  0  0
  -11.3640   -1.8126    9.3446 C   0  0  0  0  0  0  0  0  0  0  0  0
  -12.2863   -0.8105    9.5916 C   0  0  0  0  0  0  0  0  0  0  0  0
  -11.8738    0.4524    9.9528 C   0  0  0  0  0  0  0  0  0  0  0  0
  -11.8903   -3.4282    8.8838 Cl  0  0  0  0  0  0  0  0  0  0  0  0
   -9.4157    2.1949   11.7567 C   0  0  0  0  0  0  0  0  0  0  0  0
   -8.1632    1.9477   11.7742 O   0  0  0  0  0  0  0  0  0  0  0  0
   -9.9985    2.5212   12.9857 N   0  0  0  0  0  0  0  0  0  0  0  0
  -11.3777    2.9224   13.0530 C   0  0  0  0  0  0  0  0  0  0  0  0
  -12.1210    2.0337   14.0028 C   0  0  0  0  0  0  0  0  0  0  0  0
  -11.4209    1.8341   15.3063 C   0  0  0  0  0  0  0  0  0  0  0  0
   -9.9589    1.5698   15.1992 C   0  0  0  0  0  0  0  0  0  0  0  0
   -9.2366    2.4556   14.2045 C   0  0  0  0  0  0  0  0  0  0  0  0
  -12.0169    0.6892   15.9305 O   0  0  0  0  0  0  0  0  0  0  0  0
  -12.1630    1.0030   17.2646 C   0  0  0  0  0  0  0  0  0  0  0  0
  -11.9910    2.3576   17.4091 C   0  0  0  0  0  0  0  0  0  0  0  0
  -11.7344    2.9144   16.1669 O   0  0  0  0  0  0  0  0  0  0  0  0
  -12.0938    2.9218   18.6896 C   0  0  0  0  0  0  0  0  0  0  0  0
  -12.3555    2.1824   19.7931 C   0  0  0  0  0  0  0  0  0  0  0  0
  -12.5298    0.8083   19.6419 C   0  0  0  0  0  0  0  0  0  0  0  0
  -12.4347    0.2416   18.4081 C   0  0  0  0  0  0  0  0  0  0  0  0
  -12.4256    2.7883   21.1369 C   0  0  0  0  0  0  0  0  0  0  0  0
  -11.8243    2.0082   22.2368 C   0  0  0  0  0  0  0  0  0  0  0  0
  -10.3651    2.0519   22.2677 C   0  0  0  0  0  0  0  0  0  0  0  0
   -9.7345    2.9745   22.7752 O   0  0  0  0  0  0  0  0  0  0  0  0
   -9.5900    1.0094   21.7012 O   0  0  0  0  0  0  0  0  0  0  0  0
  1  2  1  0
  2  3  1  0
  2  4  1  0
  4  5  1  0
  5  6  2  0
  6  7  1  0
  7  8  2  0
  8  9  1  0
  9 10  2  0
  8 11  1  0
  4 12  1  0
 12 13  2  0
 12 14  1  0
 14 15  1  0
 15 16  1  0
 16 17  1  0
 17 18  1  0
 18 19  1  0
 17 20  1  0
 20 21  1  0
 21 22  2  0
 22 23  1  0
 22 24  1  0
 24 25  2  0
 25 26  1  0
 26 27  2  0
 25 28  1  0
 28 29  1  0
 29 30  1  0
 30 31  2  0
 30 32  1  0
 10  5  1  0
 19 14  1  0
 23 17  1  0
 27 21  1  0
M  END
$$$$
