
     RDKit          3D

 32 35  0  0  0  0  0  0  0  0999 V2000
  -10.2533    3.8304   15.6840 C   0  0  0  0  0  0  0  0  0  0  0  0
  -11.2151    2.6575   15.4597 C   0  0  0  0  0  0  0  0  0  0  0  0
  -11.4933    1.9129   16.7159 C   0  0  0  0  0  0  0  0  0  0  0  0
  -10.7603    1.8176   14.2872 C   0  0  0  0  0  0  0  0  0  0  0  0
  -11.6296    0.6686   14.0026 C   0  0  0  0  0  0  0  0  0  0  0  0
  -12.7679    0.8409   13.2681 C   0  0  0  0  0  0  0  0  0  0  0  0
  -13.5747   -0.2434   13.0172 C   0  0  0  0  0  0  0  0  0  0  0  0
  -13.3005   -1.5129   13.4690 C   0  0  0  0  0  0  0  0  0  0  0  0
  -12.1426   -1.6659   14.2117 C   0  0  0  0  0  0  0  0  0  0  0  0
  -11.3250   -0.5888   14.4706 C   0  0  0  0  0  0  0  0  0  0  0  0
  -14.3462   -2.8897   13.1363 Cl  0  0  0  0  0  0  0  0  0  0  0  0
  -10.4670    2.6718   13.1251 C   0  0  0  0  0  0  0  0  0  0  0  0
  -11.3235    3.5719   12.8308 O   0  0  0  0  0  0  0  0  0  0  0  0
   -9.3383    2.6000   12.3022 N   0  0  0  0  0  0  0  0  0  0  0  0
   -8.3529    1.5730   12.5070 C   0  0  0  0  0  0  0  0  0  0  0  0
   -8.1627    0.7902   11.2439 C   0  0  0  0  0  0  0  0  0  0  0  0
   -7.9923    1.6447   10.0314 C   0  0  0  0  0  0  0  0  0  0  0  0
   -8.9386    2.7908    9.9335 C   0  0  0  0  0  0  0  0  0  0  0  0
   -9.1433    3.5429   11.2330 C   0  0  0  0  0  0  0  0  0  0  0  0
   -8.2202    0.8047    8.8921 O   0  0  0  0  0  0  0  0  0  0  0  0
   -7.2578    1.1365    7.9630 C   0  0  0  0  0  0  0  0  0  0  0  0
   -6.2913    1.8818    8.5923 C   0  0  0  0  0  0  0  0  0  0  0  0
   -6.6331    2.0286    9.9266 O   0  0  0  0  0  0  0  0  0  0  0  0
   -5.1959    2.3415    7.8459 C   0  0  0  0  0  0  0  0  0  0  0  0
   -5.0526    2.0807    6.5251 C   0  0  0  0  0  0  0  0  0  0  0  0
   -6.0354    1.3237    5.8906 C   0  0  0  0  0  0  0  0  0  0  0  0
   -7.1056    0.8677    6.5970 C   0  0  0  0  0  0  0  0  0  0  0  0
   -3.9112    2.6020    5.7484 C   0  0  0  0  0  0  0  0  0  0  0  0
   -2.6525    1.8364    5.8442 C   0  0  0  0  0  0  0  0  0  0  0  0
   -2.8380    0.4276    6.1803 C   0  0  0  0  0  0  0  0  0  0  0  0
   -3.4835   -0.3472    5.4808 O   0  0  0  0  0  0  0  0  0  0  0  0
   -2.2698   -0.1250    7.3551 O   0  0  0  0  0  0  0  0  0  0  0  0
  1  2  1  0
  2  3  1  0
  2  4  1  0
  4  5  1  0
  5  6  2  0
  6  7  1  0
  7  8  2  0
  8  9  1  0
  9 10  2  0
  8 11  1  0
  4 12  1  0
 12 13  2  0
 12 14  1  0
 14 15  1  0
 15 16  1  0
 16 17  1  0
 17 18  1  0
 18 19  1  0
 17 20  1  0
 20 21  1  0
 21 22  2  0
 22 23  1  0
 22 24  1  0
 24 25  2  0
 25 26  1  0
 26 27  2  0
 25 28  1  0
 28 29  1  0
 29 30  1  0
 30 31  2  0
 30 32  1  0
 10  5  1  0
 19 14  1  0
 23 17  1  0
 27 21  1  0
M  END
$$$$
