
     RDKit          3D

 32 35  0  0  0  0  0  0  0  0999 V2000
  -12.8379    4.2857   11.2465 C   0  0  0  0  0  0  0  0  0  0  0  0
  -12.7178    3.3140   12.4265 C   0  0  0  0  0  0  0  0  0  0  0  0
  -13.1694    3.9255   13.7041 C   0  0  0  0  0  0  0  0  0  0  0  0
  -11.3446    2.6811   12.4525 C   0  0  0  0  0  0  0  0  0  0  0  0
  -11.1126    1.8048   13.6079 C   0  0  0  0  0  0  0  0  0  0  0  0
  -10.1450    2.1198   14.5187 C   0  0  0  0  0  0  0  0  0  0  0  0
   -9.9352    1.2849   15.5903 C   0  0  0  0  0  0  0  0  0  0  0  0
  -10.6528    0.1316   15.8046 C   0  0  0  0  0  0  0  0  0  0  0  0
  -11.6282   -0.1697   14.8699 C   0  0  0  0  0  0  0  0  0  0  0  0
  -11.8494    0.6574   13.7917 C   0  0  0  0  0  0  0  0  0  0  0  0
  -10.3699   -0.9247   17.1843 Cl  0  0  0  0  0  0  0  0  0  0  0  0
  -11.0315    2.0769   11.1475 C   0  0  0  0  0  0  0  0  0  0  0  0
  -12.0035    1.8944   10.3400 O   0  0  0  0  0  0  0  0  0  0  0  0
   -9.7693    1.6781   10.6956 N   0  0  0  0  0  0  0  0  0  0  0  0
   -9.5995    1.1812    9.3570 C   0  0  0  0  0  0  0  0  0  0  0  0
   -8.5621    1.9905    8.6408 C   0  0  0  0  0  0  0  0  0  0  0  0
   -7.3161    2.2026    9.4357 C   0  0  0  0  0  0  0  0  0  0  0  0
   -7.5369    2.5698   10.8622 C   0  0  0  0  0  0  0  0  0  0  0  0
   -8.6173    1.7632   11.5535 C   0  0  0  0  0  0  0  0  0  0  0  0
   -6.6068    3.2864    8.8209 O   0  0  0  0  0  0  0  0  0  0  0  0
   -5.2762    2.9274    8.8113 C   0  0  0  0  0  0  0  0  0  0  0  0
   -5.1911    1.5844    9.0846 C   0  0  0  0  0  0  0  0  0  0  0  0
   -6.4681    1.0805    9.2698 O   0  0  0  0  0  0  0  0  0  0  0  0
   -3.9258    0.9802    9.1300 C   0  0  0  0  0  0  0  0  0  0  0  0
   -2.7805    1.6697    8.9158 C   0  0  0  0  0  0  0  0  0  0  0  0
   -2.8714    3.0320    8.6382 C   0  0  0  0  0  0  0  0  0  0  0  0
   -4.0895    3.6371    8.5890 C   0  0  0  0  0  0  0  0  0  0  0  0
   -1.4561    1.0243    9.0019 C   0  0  0  0  0  0  0  0  0  0  0  0
   -1.2133    0.1892   10.1949 C   0  0  0  0  0  0  0  0  0  0  0  0
    0.1371   -0.3610   10.2703 C   0  0  0  0  0  0  0  0  0  0  0  0
    0.9270   -0.0742   11.1648 O   0  0  0  0  0  0  0  0  0  0  0  0
    0.6112   -1.2720    9.2936 O   0  0  0  0  0  0  0  0  0  0  0  0
  1  2  1  0
  2  3  1  0
  2  4  1  0
  4  5  1  0
  5  6  2  0
  6  7  1  0
  7  8  2  0
  8  9  1  0
  9 10  2  0
  8 11  1  0
  4 12  1  0
 12 13  2  0
 12 14  1  0
 14 15  1  0
 15 16  1  0
 16 17  1  0
 17 18  1  0
 18 19  1  0
 17 20  1  0
 20 21  1  0
 21 22  2  0
 22 23  1  0
 22 24  1  0
 24 25  2  0
 25 26  1  0
 26 27  2  0
 25 28  1  0
 28 29  1  0
 29 30  1  0
 30 31  2  0
 30 32  1  0
 10  5  1  0
 19 14  1  0
 23 17  1  0
 27 21  1  0
M  END
$$$$
