
     RDKit          3D

 32 35  0  0  0  0  0  0  0  0999 V2000
  -12.9522    4.3564   13.5320 C   0  0  0  0  0  0  0  0  0  0  0  0
  -12.8416    2.8276   13.4900 C   0  0  0  0  0  0  0  0  0  0  0  0
  -13.3793    2.1929   14.7220 C   0  0  0  0  0  0  0  0  0  0  0  0
  -11.4430    2.4095   13.0945 C   0  0  0  0  0  0  0  0  0  0  0  0
  -10.7601    1.5835   14.0986 C   0  0  0  0  0  0  0  0  0  0  0  0
  -10.2103    2.1691   15.2030 C   0  0  0  0  0  0  0  0  0  0  0  0
   -9.5678    1.3828   16.1295 C   0  0  0  0  0  0  0  0  0  0  0  0
   -9.4427    0.0186   16.0095 C   0  0  0  0  0  0  0  0  0  0  0  0
  -10.0064   -0.5550   14.8830 C   0  0  0  0  0  0  0  0  0  0  0  0
  -10.6530    0.2202   13.9469 C   0  0  0  0  0  0  0  0  0  0  0  0
   -8.6166   -0.9720   17.2078 Cl  0  0  0  0  0  0  0  0  0  0  0  0
  -11.4379    1.8536   11.7318 C   0  0  0  0  0  0  0  0  0  0  0  0
  -12.5691    1.5658   11.2141 O   0  0  0  0  0  0  0  0  0  0  0  0
  -10.3137    1.6053   10.9377 N   0  0  0  0  0  0  0  0  0  0  0  0
  -10.4533    0.9580    9.6613 C   0  0  0  0  0  0  0  0  0  0  0  0
   -9.8569    1.8155    8.5873 C   0  0  0  0  0  0  0  0  0  0  0  0
   -8.4994    2.3376    8.9245 C   0  0  0  0  0  0  0  0  0  0  0  0
   -8.3556    2.8623   10.3111 C   0  0  0  0  0  0  0  0  0  0  0  0
   -9.0000    1.9970   11.3750 C   0  0  0  0  0  0  0  0  0  0  0  0
   -8.2341    3.4242    8.0275 O   0  0  0  0  0  0  0  0  0  0  0  0
   -6.9226    3.2884    7.6260 C   0  0  0  0  0  0  0  0  0  0  0  0
   -6.4956    2.0295    7.9701 C   0  0  0  0  0  0  0  0  0  0  0  0
   -7.5337    1.3561    8.5929 O   0  0  0  0  0  0  0  0  0  0  0  0
   -5.1801    1.6515    7.6620 C   0  0  0  0  0  0  0  0  0  0  0  0
   -4.3105    2.4806    7.0380 C   0  0  0  0  0  0  0  0  0  0  0  0
   -4.7480    3.7568    6.6901 C   0  0  0  0  0  0  0  0  0  0  0  0
   -6.0207    4.1428    6.9796 C   0  0  0  0  0  0  0  0  0  0  0  0
   -2.9197    2.0777    6.7530 C   0  0  0  0  0  0  0  0  0  0  0  0
   -2.7112    0.6612    6.3927 C   0  0  0  0  0  0  0  0  0  0  0  0
   -1.5803    0.4362    5.4969 C   0  0  0  0  0  0  0  0  0  0  0  0
   -0.4305    0.2816    5.8974 O   0  0  0  0  0  0  0  0  0  0  0  0
   -1.7592    0.3844    4.0920 O   0  0  0  0  0  0  0  0  0  0  0  0
  1  2  1  0
  2  3  1  0
  2  4  1  0
  4  5  1  0
  5  6  2  0
  6  7  1  0
  7  8  2  0
  8  9  1  0
  9 10  2  0
  8 11  1  0
  4 12  1  0
 12 13  2  0
 12 14  1  0
 14 15  1  0
 15 16  1  0
 16 17  1  0
 17 18  1  0
 18 19  1  0
 17 20  1  0
 20 21  1  0
 21 22  2  0
 22 23  1  0
 22 24  1  0
 24 25  2  0
 25 26  1  0
 26 27  2  0
 25 28  1  0
 28 29  1  0
 29 30  1  0
 30 31  2  0
 30 32  1  0
 10  5  1  0
 19 14  1  0
 23 17  1  0
 27 21  1  0
M  END
$$$$
