
     RDKit          3D

 32 35  0  0  0  0  0  0  0  0999 V2000
  -10.9361    1.9778   10.7324 C   0  0  0  0  0  0  0  0  0  0  0  0
   -9.6115    1.2071   10.7796 C   0  0  0  0  0  0  0  0  0  0  0  0
   -9.5159    0.3299   11.9760 C   0  0  0  0  0  0  0  0  0  0  0  0
   -8.4459    2.1454   10.5603 C   0  0  0  0  0  0  0  0  0  0  0  0
   -7.1351    1.5453   10.8408 C   0  0  0  0  0  0  0  0  0  0  0  0
   -7.0217    0.1919   10.9829 C   0  0  0  0  0  0  0  0  0  0  0  0
   -5.7890   -0.3532   11.2530 C   0  0  0  0  0  0  0  0  0  0  0  0
   -4.6433    0.3946   11.3914 C   0  0  0  0  0  0  0  0  0  0  0  0
   -4.7800    1.7640   11.2441 C   0  0  0  0  0  0  0  0  0  0  0  0
   -6.0084    2.3238   10.9734 C   0  0  0  0  0  0  0  0  0  0  0  0
   -3.0729   -0.3223   11.7365 Cl  0  0  0  0  0  0  0  0  0  0  0  0
   -8.5547    2.8037    9.2485 C   0  0  0  0  0  0  0  0  0  0  0  0
   -9.3609    3.7893    9.1546 O   0  0  0  0  0  0  0  0  0  0  0  0
   -7.8612    2.4594    8.0836 N   0  0  0  0  0  0  0  0  0  0  0  0
   -8.0079    3.2475    6.8899 C   0  0  0  0  0  0  0  0  0  0  0  0
   -6.6653    3.7215    6.4242 C   0  0  0  0  0  0  0  0  0  0  0  0
   -5.6309    2.6454    6.3890 C   0  0  0  0  0  0  0  0  0  0  0  0
   -5.6125    1.7537    7.5820 C   0  0  0  0  0  0  0  0  0  0  0  0
   -6.9843    1.3190    8.0566 C   0  0  0  0  0  0  0  0  0  0  0  0
   -4.3541    3.2941    6.3214 O   0  0  0  0  0  0  0  0  0  0  0  0
   -3.6024    2.5837    5.4105 C   0  0  0  0  0  0  0  0  0  0  0  0
   -4.4457    1.7604    4.7058 C   0  0  0  0  0  0  0  0  0  0  0  0
   -5.7401    1.9423    5.1644 O   0  0  0  0  0  0  0  0  0  0  0  0
   -3.9084    0.9300    3.7109 C   0  0  0  0  0  0  0  0  0  0  0  0
   -2.5871    0.9059    3.4165 C   0  0  0  0  0  0  0  0  0  0  0  0
   -1.7349    1.7432    4.1335 C   0  0  0  0  0  0  0  0  0  0  0  0
   -2.2365    2.5569    5.1024 C   0  0  0  0  0  0  0  0  0  0  0  0
   -2.0350    0.0003    2.3904 C   0  0  0  0  0  0  0  0  0  0  0  0
   -1.6931   -1.3639    2.8395 C   0  0  0  0  0  0  0  0  0  0  0  0
   -0.6100   -1.4136    3.8175 C   0  0  0  0  0  0  0  0  0  0  0  0
   -0.7942   -1.6501    5.0076 O   0  0  0  0  0  0  0  0  0  0  0  0
    0.7346   -1.1862    3.4318 O   0  0  0  0  0  0  0  0  0  0  0  0
  1  2  1  0
  2  3  1  0
  2  4  1  0
  4  5  1  0
  5  6  2  0
  6  7  1  0
  7  8  2  0
  8  9  1  0
  9 10  2  0
  8 11  1  0
  4 12  1  0
 12 13  2  0
 12 14  1  0
 14 15  1  0
 15 16  1  0
 16 17  1  0
 17 18  1  0
 18 19  1  0
 17 20  1  0
 20 21  1  0
 21 22  2  0
 22 23  1  0
 22 24  1  0
 24 25  2  0
 25 26  1  0
 26 27  2  0
 25 28  1  0
 28 29  1  0
 29 30  1  0
 30 31  2  0
 30 32  1  0
 10  5  1  0
 19 14  1  0
 23 17  1  0
 27 21  1  0
M  END
$$$$
