
     RDKit          3D

 32 35  0  0  0  0  0  0  0  0999 V2000
  -12.3502    2.4230   10.7316 C   0  0  0  0  0  0  0  0  0  0  0  0
  -11.4716    1.4219   11.4912 C   0  0  0  0  0  0  0  0  0  0  0  0
  -12.2790    0.4200   12.2356 C   0  0  0  0  0  0  0  0  0  0  0  0
  -10.4209    2.1486   12.3005 C   0  0  0  0  0  0  0  0  0  0  0  0
   -9.7137    1.2955   13.2644 C   0  0  0  0  0  0  0  0  0  0  0  0
   -9.4721    1.7514   14.5288 C   0  0  0  0  0  0  0  0  0  0  0  0
   -8.8021    0.9436   15.4164 C   0  0  0  0  0  0  0  0  0  0  0  0
   -8.3524   -0.3176   15.1031 C   0  0  0  0  0  0  0  0  0  0  0  0
   -8.6070   -0.7604   13.8167 C   0  0  0  0  0  0  0  0  0  0  0  0
   -9.2771    0.0378   12.9171 C   0  0  0  0  0  0  0  0  0  0  0  0
   -7.4966   -1.3380   16.2546 Cl  0  0  0  0  0  0  0  0  0  0  0  0
   -9.5466    2.9382   11.4184 C   0  0  0  0  0  0  0  0  0  0  0  0
   -9.9087    4.1341   11.1554 O   0  0  0  0  0  0  0  0  0  0  0  0
   -8.3501    2.5119   10.8327 N   0  0  0  0  0  0  0  0  0  0  0  0
   -7.9984    1.1176   10.8292 C   0  0  0  0  0  0  0  0  0  0  0  0
   -7.7548    0.6572    9.4246 C   0  0  0  0  0  0  0  0  0  0  0  0
   -6.8693    1.5697    8.6419 C   0  0  0  0  0  0  0  0  0  0  0  0
   -7.1727    3.0201    8.7926 C   0  0  0  0  0  0  0  0  0  0  0  0
   -7.4530    3.4535   10.2173 C   0  0  0  0  0  0  0  0  0  0  0  0
   -7.0454    1.2385    7.2580 O   0  0  0  0  0  0  0  0  0  0  0  0
   -5.7905    1.2573    6.6887 C   0  0  0  0  0  0  0  0  0  0  0  0
   -4.8601    1.2628    7.6986 C   0  0  0  0  0  0  0  0  0  0  0  0
   -5.5180    1.2474    8.9175 O   0  0  0  0  0  0  0  0  0  0  0  0
   -3.4973    1.2816    7.3655 C   0  0  0  0  0  0  0  0  0  0  0  0
   -3.0601    1.2958    6.0842 C   0  0  0  0  0  0  0  0  0  0  0  0
   -4.0075    1.2896    5.0625 C   0  0  0  0  0  0  0  0  0  0  0  0
   -5.3345    1.2708    5.3646 C   0  0  0  0  0  0  0  0  0  0  0  0
   -1.6231    1.3506    5.7531 C   0  0  0  0  0  0  0  0  0  0  0  0
   -1.0240    0.1034    5.2378 C   0  0  0  0  0  0  0  0  0  0  0  0
   -0.8048   -0.9167    6.2593 C   0  0  0  0  0  0  0  0  0  0  0  0
   -0.0522   -0.7548    7.2152 O   0  0  0  0  0  0  0  0  0  0  0  0
   -1.4641   -2.1695    6.1951 O   0  0  0  0  0  0  0  0  0  0  0  0
  1  2  1  0
  2  3  1  0
  2  4  1  0
  4  5  1  0
  5  6  2  0
  6  7  1  0
  7  8  2  0
  8  9  1  0
  9 10  2  0
  8 11  1  0
  4 12  1  0
 12 13  2  0
 12 14  1  0
 14 15  1  0
 15 16  1  0
 16 17  1  0
 17 18  1  0
 18 19  1  0
 17 20  1  0
 20 21  1  0
 21 22  2  0
 22 23  1  0
 22 24  1  0
 24 25  2  0
 25 26  1  0
 26 27  2  0
 25 28  1  0
 28 29  1  0
 29 30  1  0
 30 31  2  0
 30 32  1  0
 10  5  1  0
 19 14  1  0
 23 17  1  0
 27 21  1  0
M  END
$$$$
