
     RDKit          3D

 32 35  0  0  0  0  0  0  0  0999 V2000
  -10.4003    0.4262   15.1686 C   0  0  0  0  0  0  0  0  0  0  0  0
  -11.4649    0.5850   14.0766 C   0  0  0  0  0  0  0  0  0  0  0  0
  -10.9803    0.1216   12.7499 C   0  0  0  0  0  0  0  0  0  0  0  0
  -12.0523    1.9782   14.1096 C   0  0  0  0  0  0  0  0  0  0  0  0
  -12.3491    2.4694   15.4615 C   0  0  0  0  0  0  0  0  0  0  0  0
  -11.3315    2.6895   16.3452 C   0  0  0  0  0  0  0  0  0  0  0  0
  -11.6269    3.1419   17.6091 C   0  0  0  0  0  0  0  0  0  0  0  0
  -12.9071    3.3905   18.0454 C   0  0  0  0  0  0  0  0  0  0  0  0
  -13.9237    3.1607   17.1346 C   0  0  0  0  0  0  0  0  0  0  0  0
  -13.6426    2.7077   15.8653 C   0  0  0  0  0  0  0  0  0  0  0  0
  -13.2653    3.9708   19.6684 Cl  0  0  0  0  0  0  0  0  0  0  0  0
  -11.2506    2.8945   13.2827 C   0  0  0  0  0  0  0  0  0  0  0  0
  -11.4989    4.1428   13.3856 O   0  0  0  0  0  0  0  0  0  0  0  0
  -10.2365    2.5378   12.3880 N   0  0  0  0  0  0  0  0  0  0  0  0
   -9.9696    1.1535   12.1053 C   0  0  0  0  0  0  0  0  0  0  0  0
  -10.0651    0.9070   10.6307 C   0  0  0  0  0  0  0  0  0  0  0  0
   -9.3251    1.9095    9.8082 C   0  0  0  0  0  0  0  0  0  0  0  0
   -9.5096    3.3261   10.2300 C   0  0  0  0  0  0  0  0  0  0  0  0
   -9.4468    3.5436   11.7283 C   0  0  0  0  0  0  0  0  0  0  0  0
   -9.8181    1.7961    8.4667 O   0  0  0  0  0  0  0  0  0  0  0  0
   -8.7194    1.8757    7.6384 C   0  0  0  0  0  0  0  0  0  0  0  0
   -7.5912    1.7087    8.4032 C   0  0  0  0  0  0  0  0  0  0  0  0
   -7.9656    1.5217    9.7237 O   0  0  0  0  0  0  0  0  0  0  0  0
   -6.3358    1.7502    7.7783 C   0  0  0  0  0  0  0  0  0  0  0  0
   -6.1901    1.9500    6.4472 C   0  0  0  0  0  0  0  0  0  0  0  0
   -7.3375    2.1184    5.6748 C   0  0  0  0  0  0  0  0  0  0  0  0
   -8.5649    2.0809    6.2617 C   0  0  0  0  0  0  0  0  0  0  0  0
   -4.8599    2.0252    5.8127 C   0  0  0  0  0  0  0  0  0  0  0  0
   -4.0620    0.7830    5.8202 C   0  0  0  0  0  0  0  0  0  0  0  0
   -3.1630    0.6612    6.9643 C   0  0  0  0  0  0  0  0  0  0  0  0
   -3.2669   -0.2273    7.8047 O   0  0  0  0  0  0  0  0  0  0  0  0
   -2.1046    1.5823    7.1642 O   0  0  0  0  0  0  0  0  0  0  0  0
  1  2  1  0
  2  3  1  0
  2  4  1  0
  4  5  1  0
  5  6  2  0
  6  7  1  0
  7  8  2  0
  8  9  1  0
  9 10  2  0
  8 11  1  0
  4 12  1  0
 12 13  2  0
 12 14  1  0
 14 15  1  0
 15 16  1  0
 16 17  1  0
 17 18  1  0
 18 19  1  0
 17 20  1  0
 20 21  1  0
 21 22  2  0
 22 23  1  0
 22 24  1  0
 24 25  2  0
 25 26  1  0
 26 27  2  0
 25 28  1  0
 28 29  1  0
 29 30  1  0
 30 31  2  0
 30 32  1  0
 10  5  1  0
 19 14  1  0
 23 17  1  0
 27 21  1  0
M  END
$$$$
