
     RDKit          3D

 32 35  0  0  0  0  0  0  0  0999 V2000
  -13.3801    4.1371   11.4190 C   0  0  0  0  0  0  0  0  0  0  0  0
  -13.3621    3.3320   12.7238 C   0  0  0  0  0  0  0  0  0  0  0  0
  -14.0399    4.0504   13.8349 C   0  0  0  0  0  0  0  0  0  0  0  0
  -11.9643    2.8367   13.0201 C   0  0  0  0  0  0  0  0  0  0  0  0
  -11.7134    2.5720   14.4428 C   0  0  0  0  0  0  0  0  0  0  0  0
  -12.2587    1.4701   15.0372 C   0  0  0  0  0  0  0  0  0  0  0  0
  -12.0207    1.2409   16.3715 C   0  0  0  0  0  0  0  0  0  0  0  0
  -11.2536    2.0682   17.1577 C   0  0  0  0  0  0  0  0  0  0  0  0
  -10.7107    3.1794   16.5362 C   0  0  0  0  0  0  0  0  0  0  0  0
  -10.9406    3.4214   15.2005 C   0  0  0  0  0  0  0  0  0  0  0  0
  -10.9593    1.7571   18.8654 Cl  0  0  0  0  0  0  0  0  0  0  0  0
  -11.6066    1.7327   12.1150 C   0  0  0  0  0  0  0  0  0  0  0  0
  -12.5660    1.0760   11.5871 O   0  0  0  0  0  0  0  0  0  0  0  0
  -10.3143    1.3239   11.7698 N   0  0  0  0  0  0  0  0  0  0  0  0
  -10.1073    0.0945   11.0533 C   0  0  0  0  0  0  0  0  0  0  0  0
   -9.3457    0.3624    9.7914 C   0  0  0  0  0  0  0  0  0  0  0  0
   -8.1453    1.2277    9.9902 C   0  0  0  0  0  0  0  0  0  0  0  0
   -8.3645    2.4131   10.8651 C   0  0  0  0  0  0  0  0  0  0  0  0
   -9.1698    2.1244   12.1158 C   0  0  0  0  0  0  0  0  0  0  0  0
   -7.7628    1.7163    8.6977 O   0  0  0  0  0  0  0  0  0  0  0  0
   -6.3878    1.6407    8.6424 C   0  0  0  0  0  0  0  0  0  0  0  0
   -5.9584    0.8509    9.6804 C   0  0  0  0  0  0  0  0  0  0  0  0
   -7.0585    0.4189   10.4029 O   0  0  0  0  0  0  0  0  0  0  0  0
   -4.5827    0.6228    9.8352 C   0  0  0  0  0  0  0  0  0  0  0  0
   -3.6574    1.1523    9.0007 C   0  0  0  0  0  0  0  0  0  0  0  0
   -4.0975    1.9526    7.9484 C   0  0  0  0  0  0  0  0  0  0  0  0
   -5.4278    2.1857    7.7805 C   0  0  0  0  0  0  0  0  0  0  0  0
   -2.2122    0.9297    9.1997 C   0  0  0  0  0  0  0  0  0  0  0  0
   -1.6123   -0.1837    8.4379 C   0  0  0  0  0  0  0  0  0  0  0  0
   -0.4741   -0.8127    9.1019 C   0  0  0  0  0  0  0  0  0  0  0  0
    0.6791   -0.7074    8.6951 O   0  0  0  0  0  0  0  0  0  0  0  0
   -0.6494   -1.5916   10.2728 O   0  0  0  0  0  0  0  0  0  0  0  0
  1  2  1  0
  2  3  1  0
  2  4  1  0
  4  5  1  0
  5  6  2  0
  6  7  1  0
  7  8  2  0
  8  9  1  0
  9 10  2  0
  8 11  1  0
  4 12  1  0
 12 13  2  0
 12 14  1  0
 14 15  1  0
 15 16  1  0
 16 17  1  0
 17 18  1  0
 18 19  1  0
 17 20  1  0
 20 21  1  0
 21 22  2  0
 22 23  1  0
 22 24  1  0
 24 25  2  0
 25 26  1  0
 26 27  2  0
 25 28  1  0
 28 29  1  0
 29 30  1  0
 30 31  2  0
 30 32  1  0
 10  5  1  0
 19 14  1  0
 23 17  1  0
 27 21  1  0
M  END
$$$$
