
     RDKit          3D

 32 35  0  0  0  0  0  0  0  0999 V2000
  -10.4333    2.8385    8.9678 C   0  0  0  0  0  0  0  0  0  0  0  0
  -10.8995    1.9152   10.0996 C   0  0  0  0  0  0  0  0  0  0  0  0
  -12.2977    1.4501    9.9034 C   0  0  0  0  0  0  0  0  0  0  0  0
  -10.5981    2.5353   11.4457 C   0  0  0  0  0  0  0  0  0  0  0  0
  -11.3794    1.9687   12.5527 C   0  0  0  0  0  0  0  0  0  0  0  0
  -12.5748    2.5301   12.9002 C   0  0  0  0  0  0  0  0  0  0  0  0
  -13.2901    1.9926   13.9438 C   0  0  0  0  0  0  0  0  0  0  0  0
  -12.8675    0.9051   14.6717 C   0  0  0  0  0  0  0  0  0  0  0  0
  -11.6535    0.3514   14.3037 C   0  0  0  0  0  0  0  0  0  0  0  0
  -10.9265    0.8793   13.2605 C   0  0  0  0  0  0  0  0  0  0  0  0
  -13.7986    0.2302   16.0048 Cl  0  0  0  0  0  0  0  0  0  0  0  0
   -9.1454    2.5825   11.6770 C   0  0  0  0  0  0  0  0  0  0  0  0
   -8.7340    3.2736   12.6688 O   0  0  0  0  0  0  0  0  0  0  0  0
   -8.1597    1.9440   10.9174 N   0  0  0  0  0  0  0  0  0  0  0  0
   -8.3154    1.8028    9.4949 C   0  0  0  0  0  0  0  0  0  0  0  0
   -7.1380    2.4053    8.7912 C   0  0  0  0  0  0  0  0  0  0  0  0
   -5.8230    1.9880    9.3622 C   0  0  0  0  0  0  0  0  0  0  0  0
   -5.7517    2.0035   10.8499 C   0  0  0  0  0  0  0  0  0  0  0  0
   -6.9707    1.4238   11.5385 C   0  0  0  0  0  0  0  0  0  0  0  0
   -4.8431    2.9161    8.8784 O   0  0  0  0  0  0  0  0  0  0  0  0
   -3.7343    2.1718    8.5377 C   0  0  0  0  0  0  0  0  0  0  0  0
   -4.1026    0.8499    8.4870 C   0  0  0  0  0  0  0  0  0  0  0  0
   -5.4490    0.7452    8.7954 O   0  0  0  0  0  0  0  0  0  0  0  0
   -3.1356   -0.1116    8.1573 C   0  0  0  0  0  0  0  0  0  0  0  0
   -1.8489    0.2114    7.8871 C   0  0  0  0  0  0  0  0  0  0  0  0
   -1.4795    1.5539    7.9391 C   0  0  0  0  0  0  0  0  0  0  0  0
   -2.4028    2.5022    8.2564 C   0  0  0  0  0  0  0  0  0  0  0  0
   -0.8374   -0.8172    7.5761 C   0  0  0  0  0  0  0  0  0  0  0  0
   -0.2460   -1.5214    8.7311 C   0  0  0  0  0  0  0  0  0  0  0  0
    1.0141   -0.9479    9.1952 C   0  0  0  0  0  0  0  0  0  0  0  0
    1.1150   -0.3139   10.2412 O   0  0  0  0  0  0  0  0  0  0  0  0
    2.2066   -1.0987    8.4445 O   0  0  0  0  0  0  0  0  0  0  0  0
  1  2  1  0
  2  3  1  0
  2  4  1  0
  4  5  1  0
  5  6  2  0
  6  7  1  0
  7  8  2  0
  8  9  1  0
  9 10  2  0
  8 11  1  0
  4 12  1  0
 12 13  2  0
 12 14  1  0
 14 15  1  0
 15 16  1  0
 16 17  1  0
 17 18  1  0
 18 19  1  0
 17 20  1  0
 20 21  1  0
 21 22  2  0
 22 23  1  0
 22 24  1  0
 24 25  2  0
 25 26  1  0
 26 27  2  0
 25 28  1  0
 28 29  1  0
 29 30  1  0
 30 31  2  0
 30 32  1  0
 10  5  1  0
 19 14  1  0
 23 17  1  0
 27 21  1  0
M  END
$$$$
