
     RDKit          3D

 32 35  0  0  0  0  0  0  0  0999 V2000
  -11.6992    2.0034    7.8505 C   0  0  0  0  0  0  0  0  0  0  0  0
  -11.8090    1.7340    9.3560 C   0  0  0  0  0  0  0  0  0  0  0  0
  -13.1994    1.4048    9.7664 C   0  0  0  0  0  0  0  0  0  0  0  0
  -11.1384    2.8390   10.1410 C   0  0  0  0  0  0  0  0  0  0  0  0
  -10.7295    2.4460   11.4957 C   0  0  0  0  0  0  0  0  0  0  0  0
  -10.9777    3.2771   12.5504 C   0  0  0  0  0  0  0  0  0  0  0  0
  -10.5816    2.8978   13.8109 C   0  0  0  0  0  0  0  0  0  0  0  0
   -9.9393    1.7118   14.0788 C   0  0  0  0  0  0  0  0  0  0  0  0
   -9.6970    0.8842   12.9962 C   0  0  0  0  0  0  0  0  0  0  0  0
  -10.0882    1.2511   11.7282 C   0  0  0  0  0  0  0  0  0  0  0  0
   -9.4405    1.2431   15.7009 Cl  0  0  0  0  0  0  0  0  0  0  0  0
  -10.0810    3.4729    9.3372 C   0  0  0  0  0  0  0  0  0  0  0  0
  -10.2599    4.6888    8.9911 O   0  0  0  0  0  0  0  0  0  0  0  0
   -8.8901    2.8772    8.9089 N   0  0  0  0  0  0  0  0  0  0  0  0
   -8.0392    3.5493    7.9646 C   0  0  0  0  0  0  0  0  0  0  0  0
   -6.6612    3.6948    8.5341 C   0  0  0  0  0  0  0  0  0  0  0  0
   -6.1269    2.4364    9.1343 C   0  0  0  0  0  0  0  0  0  0  0  0
   -7.0924    1.6889    9.9873 C   0  0  0  0  0  0  0  0  0  0  0  0
   -8.4887    1.5885    9.4073 C   0  0  0  0  0  0  0  0  0  0  0  0
   -5.0200    2.8069    9.9669 O   0  0  0  0  0  0  0  0  0  0  0  0
   -4.0340    1.8696    9.7465 C   0  0  0  0  0  0  0  0  0  0  0  0
   -4.3586    1.1617    8.6155 C   0  0  0  0  0  0  0  0  0  0  0  0
   -5.5540    1.6449    8.1091 O   0  0  0  0  0  0  0  0  0  0  0  0
   -3.4981    0.1412    8.1835 C   0  0  0  0  0  0  0  0  0  0  0  0
   -2.3569   -0.1764    8.8391 C   0  0  0  0  0  0  0  0  0  0  0  0
   -2.0310    0.5447    9.9859 C   0  0  0  0  0  0  0  0  0  0  0  0
   -2.8522    1.5390   10.4213 C   0  0  0  0  0  0  0  0  0  0  0  0
   -1.4817   -1.2762    8.3894 C   0  0  0  0  0  0  0  0  0  0  0  0
   -0.0556   -0.9416    8.2047 C   0  0  0  0  0  0  0  0  0  0  0  0
    0.7499   -2.0415    7.6817 C   0  0  0  0  0  0  0  0  0  0  0  0
    0.8361   -3.1312    8.2398 O   0  0  0  0  0  0  0  0  0  0  0  0
    1.4866   -1.9011    6.4792 O   0  0  0  0  0  0  0  0  0  0  0  0
  1  2  1  0
  2  3  1  0
  2  4  1  0
  4  5  1  0
  5  6  2  0
  6  7  1  0
  7  8  2  0
  8  9  1  0
  9 10  2  0
  8 11  1  0
  4 12  1  0
 12 13  2  0
 12 14  1  0
 14 15  1  0
 15 16  1  0
 16 17  1  0
 17 18  1  0
 18 19  1  0
 17 20  1  0
 20 21  1  0
 21 22  2  0
 22 23  1  0
 22 24  1  0
 24 25  2  0
 25 26  1  0
 26 27  2  0
 25 28  1  0
 28 29  1  0
 29 30  1  0
 30 31  2  0
 30 32  1  0
 10  5  1  0
 19 14  1  0
 23 17  1  0
 27 21  1  0
M  END
$$$$
