
     RDKit          3D

 32 35  0  0  0  0  0  0  0  0999 V2000
  -10.8328    1.4079    9.8133 C   0  0  0  0  0  0  0  0  0  0  0  0
  -10.2353    2.0583    8.5599 C   0  0  0  0  0  0  0  0  0  0  0  0
  -11.1447    1.9568    7.3883 C   0  0  0  0  0  0  0  0  0  0  0  0
   -8.8208    1.5727    8.3354 C   0  0  0  0  0  0  0  0  0  0  0  0
   -8.1825    2.1269    7.1345 C   0  0  0  0  0  0  0  0  0  0  0  0
   -8.1560    1.3989    5.9794 C   0  0  0  0  0  0  0  0  0  0  0  0
   -7.5477    1.9289    4.8664 C   0  0  0  0  0  0  0  0  0  0  0  0
   -6.9540    3.1691    4.8452 C   0  0  0  0  0  0  0  0  0  0  0  0
   -6.9916    3.8903    6.0260 C   0  0  0  0  0  0  0  0  0  0  0  0
   -7.5974    3.3721    7.1484 C   0  0  0  0  0  0  0  0  0  0  0  0
   -6.1806    3.8313    3.4090 Cl  0  0  0  0  0  0  0  0  0  0  0  0
   -8.0299    1.7026    9.5698 C   0  0  0  0  0  0  0  0  0  0  0  0
   -8.4159    2.5714   10.4221 O   0  0  0  0  0  0  0  0  0  0  0  0
   -6.8896    0.9674    9.9097 N   0  0  0  0  0  0  0  0  0  0  0  0
   -6.5797   -0.2552    9.2191 C   0  0  0  0  0  0  0  0  0  0  0  0
   -5.2036   -0.1742    8.6325 C   0  0  0  0  0  0  0  0  0  0  0  0
   -4.1746    0.3291    9.5902 C   0  0  0  0  0  0  0  0  0  0  0  0
   -4.5928    1.5089   10.3975 C   0  0  0  0  0  0  0  0  0  0  0  0
   -6.0019    1.4200   10.9476 C   0  0  0  0  0  0  0  0  0  0  0  0
   -3.0374    0.7258    8.8124 O   0  0  0  0  0  0  0  0  0  0  0  0
   -1.9242    0.2821    9.4931 C   0  0  0  0  0  0  0  0  0  0  0  0
   -2.3331   -0.6182   10.4458 C   0  0  0  0  0  0  0  0  0  0  0  0
   -3.7100   -0.7531   10.3769 O   0  0  0  0  0  0  0  0  0  0  0  0
   -1.3700   -1.2137   11.2742 C   0  0  0  0  0  0  0  0  0  0  0  0
   -0.0489   -0.9352   11.1734 C   0  0  0  0  0  0  0  0  0  0  0  0
    0.3617   -0.0214   10.2050 C   0  0  0  0  0  0  0  0  0  0  0  0
   -0.5568    0.5668    9.3909 C   0  0  0  0  0  0  0  0  0  0  0  0
    0.9460   -1.5452   12.0766 C   0  0  0  0  0  0  0  0  0  0  0  0
    1.6420   -2.7434   11.5671 C   0  0  0  0  0  0  0  0  0  0  0  0
    3.0984   -2.6414   11.5952 C   0  0  0  0  0  0  0  0  0  0  0  0
    3.7906   -3.1884   12.4485 O   0  0  0  0  0  0  0  0  0  0  0  0
    3.7979   -1.8902   10.6181 O   0  0  0  0  0  0  0  0  0  0  0  0
  1  2  1  0
  2  3  1  0
  2  4  1  0
  4  5  1  0
  5  6  2  0
  6  7  1  0
  7  8  2  0
  8  9  1  0
  9 10  2  0
  8 11  1  0
  4 12  1  0
 12 13  2  0
 12 14  1  0
 14 15  1  0
 15 16  1  0
 16 17  1  0
 17 18  1  0
 18 19  1  0
 17 20  1  0
 20 21  1  0
 21 22  2  0
 22 23  1  0
 22 24  1  0
 24 25  2  0
 25 26  1  0
 26 27  2  0
 25 28  1  0
 28 29  1  0
 29 30  1  0
 30 31  2  0
 30 32  1  0
 10  5  1  0
 19 14  1  0
 23 17  1  0
 27 21  1  0
M  END
$$$$
