
     RDKit          3D

 41 45  0  0  0  0  0  0  0  0999 V2000
  -18.5709   -8.3550   -6.4539 C   0  0  0  0  0  0  0  0  0  0  0  0
  -17.8077   -6.7378   -6.3067 S   0  0  0  0  0  6  0  0  0  0  0  0
  -18.3211   -6.1502   -5.0180 O   0  0  0  0  0  0  0  0  0  0  0  0
  -18.2508   -5.8453   -7.4158 O   0  0  0  0  0  0  0  0  0  0  0  0
  -16.0962   -6.9800   -6.2554 C   0  0  0  0  0  0  0  0  0  0  0  0
  -15.2889   -6.4099   -5.2783 C   0  0  0  0  0  0  0  0  0  0  0  0
  -13.9285   -6.5987   -5.2534 C   0  0  0  0  0  0  0  0  0  0  0  0
  -13.3550   -7.3903   -6.2471 C   0  0  0  0  0  0  0  0  0  0  0  0
  -14.1459   -7.9413   -7.1923 C   0  0  0  0  0  0  0  0  0  0  0  0
  -15.4927   -7.7639   -7.2303 C   0  0  0  0  0  0  0  0  0  0  0  0
  -13.5493   -8.7547   -8.2335 N   0  0  0  0  0  0  0  0  0  0  0  0
  -14.3708   -9.3003   -9.2401 C   0  0  0  0  0  0  0  0  0  0  0  0
  -15.6095   -9.0418   -9.0831 O   0  0  0  0  0  0  0  0  0  0  0  0
  -13.8850  -10.0553  -10.3032 N   0  0  0  0  0  0  0  0  0  0  0  0
  -14.8262  -10.4629  -11.3431 C   0  0  0  0  0  0  0  0  0  0  0  0
  -14.3726   -9.9455  -12.6908 C   0  0  0  0  0  0  0  0  0  0  0  0
  -14.6023   -8.6383  -13.0289 C   0  0  0  0  0  0  0  0  0  0  0  0
  -14.1777   -8.1856  -14.2678 C   0  0  0  0  0  0  0  0  0  0  0  0
  -13.5343   -8.9584  -15.1919 C   0  0  0  0  0  0  0  0  0  0  0  0
  -13.3083  -10.2761  -14.8335 C   0  0  0  0  0  0  0  0  0  0  0  0
  -13.7292  -10.7593  -13.5870 C   0  0  0  0  0  0  0  0  0  0  0  0
  -13.1152   -8.4308  -16.4843 C   0  0  0  0  0  0  0  0  0  0  0  0
  -12.5493   -9.2390  -17.2982 O   0  0  0  0  0  0  0  0  0  0  0  0
  -13.2834   -7.1006  -16.9039 N   0  0  0  0  0  0  0  0  0  0  0  0
  -12.8416   -6.5606  -18.1344 C   0  0  0  0  0  0  0  0  0  0  0  0
  -12.3867   -5.3314  -18.3923 N   0  0  0  0  0  0  0  0  0  0  0  0
  -12.0904   -5.2934  -19.6816 N   0  0  0  0  0  0  0  0  0  0  0  0
  -12.3381   -6.4430  -20.2455 N   0  0  0  0  0  0  0  0  0  0  0  0
  -12.8018   -7.2288  -19.2950 N   0  0  0  0  0  0  0  0  0  0  0  0
  -12.5216  -10.4830  -10.3720 C   0  0  0  0  0  0  0  0  0  0  0  0
  -11.5562   -9.6764  -10.9762 C   0  0  0  0  0  0  0  0  0  0  0  0
  -10.2407  -10.0723  -11.0549 C   0  0  0  0  0  0  0  0  0  0  0  0
   -9.7961  -11.2528  -10.5602 C   0  0  0  0  0  0  0  0  0  0  0  0
  -10.7261  -12.0660   -9.9604 C   0  0  0  0  0  0  0  0  0  0  0  0
  -12.0834  -11.6770   -9.8698 C   0  0  0  0  0  0  0  0  0  0  0  0
   -8.3886  -11.6369  -10.6502 C   0  0  0  0  0  0  0  0  0  0  0  0
   -8.1031  -12.9441   -9.9250 C   0  0  0  0  0  0  0  0  0  0  0  0
   -6.6621  -12.9384   -9.4990 C   0  0  0  0  0  0  0  0  0  0  0  0
   -5.8563  -12.2948  -10.6252 C   0  0  0  0  0  0  0  0  0  0  0  0
   -6.5419  -12.5378  -11.9645 C   0  0  0  0  0  0  0  0  0  0  0  0
   -7.8729  -11.8025  -12.0527 C   0  0  0  0  0  0  0  0  0  0  0  0
  1  2  1  0
  2  3  2  0
  2  4  2  0
  2  5  1  0
  5  6  2  0
  6  7  1  0
  7  8  2  0
  8  9  1  0
  9 10  2  0
  9 11  1  0
 11 12  1  0
 12 13  2  0
 12 14  1  0
 14 15  1  0
 15 16  1  0
 16 17  2  0
 17 18  1  0
 18 19  2  0
 19 20  1  0
 20 21  2  0
 19 22  1  0
 22 23  2  0
 22 24  1  0
 24 25  1  0
 25 26  2  0
 26 27  1  0
 27 28  1  0
 28 29  2  0
 14 30  1  0
 30 31  2  0
 31 32  1  0
 32 33  2  0
 33 34  1  0
 34 35  2  0
 33 36  1  0
 36 37  1  0
 37 38  1  0
 38 39  1  0
 39 40  1  0
 40 41  1  0
 10  5  1  0
 21 16  1  0
 29 25  1  0
 35 30  1  0
 41 36  1  0
M  END
$$$$
