
     RDKit          3D

 41 45  0  0  0  0  0  0  0  0999 V2000
   -2.7598   -0.6707   -0.8934 C   0  0  0  0  0  0  0  0  0  0  0  0
   -4.0183    0.5734   -0.5967 S   0  0  0  0  0  6  0  0  0  0  0  0
   -4.4712    1.0406   -1.9555 O   0  0  0  0  0  0  0  0  0  0  0  0
   -3.4374    1.7491    0.1124 O   0  0  0  0  0  0  0  0  0  0  0  0
   -5.3033   -0.1923    0.2710 C   0  0  0  0  0  0  0  0  0  0  0  0
   -6.1129   -1.1682   -0.2979 C   0  0  0  0  0  0  0  0  0  0  0  0
   -7.1389   -1.7618    0.3962 C   0  0  0  0  0  0  0  0  0  0  0  0
   -7.3619   -1.3614    1.7126 C   0  0  0  0  0  0  0  0  0  0  0  0
   -6.5707   -0.4135    2.2586 C   0  0  0  0  0  0  0  0  0  0  0  0
   -5.5521    0.1829    1.5850 C   0  0  0  0  0  0  0  0  0  0  0  0
   -6.8092    0.0128    3.6235 N   0  0  0  0  0  0  0  0  0  0  0  0
   -5.7930    0.6948    4.3220 C   0  0  0  0  0  0  0  0  0  0  0  0
   -4.7451    0.9002    3.6254 O   0  0  0  0  0  0  0  0  0  0  0  0
   -5.9119    1.1026    5.6471 N   0  0  0  0  0  0  0  0  0  0  0  0
   -4.7480    1.7118    6.2855 C   0  0  0  0  0  0  0  0  0  0  0  0
   -5.0264    3.1650    6.6026 C   0  0  0  0  0  0  0  0  0  0  0  0
   -6.1540    3.5035    7.3026 C   0  0  0  0  0  0  0  0  0  0  0  0
   -6.3887    4.8401    7.5826 C   0  0  0  0  0  0  0  0  0  0  0  0
   -5.5643    5.8625    7.2080 C   0  0  0  0  0  0  0  0  0  0  0  0
   -4.4286    5.5029    6.5033 C   0  0  0  0  0  0  0  0  0  0  0  0
   -4.1688    4.1581    6.2058 C   0  0  0  0  0  0  0  0  0  0  0  0
   -5.8643    7.2534    7.5242 C   0  0  0  0  0  0  0  0  0  0  0  0
   -5.0219    8.1402    7.1504 O   0  0  0  0  0  0  0  0  0  0  0  0
   -7.0078    7.6945    8.2108 N   0  0  0  0  0  0  0  0  0  0  0  0
   -7.3390    9.0424    8.4832 C   0  0  0  0  0  0  0  0  0  0  0  0
   -8.5352    9.5701    8.7569 N   0  0  0  0  0  0  0  0  0  0  0  0
   -8.3499   10.8670    8.9445 N   0  0  0  0  0  0  0  0  0  0  0  0
   -7.0915   11.1782    8.8013 N   0  0  0  0  0  0  0  0  0  0  0  0
   -6.4631   10.0556    8.5166 N   0  0  0  0  0  0  0  0  0  0  0  0
   -7.1076    0.8914    6.4036 C   0  0  0  0  0  0  0  0  0  0  0  0
   -8.3413    1.3205    5.9124 C   0  0  0  0  0  0  0  0  0  0  0  0
   -9.5015    1.1293    6.6271 C   0  0  0  0  0  0  0  0  0  0  0  0
   -9.5289    0.5213    7.8378 C   0  0  0  0  0  0  0  0  0  0  0  0
   -8.3278    0.0895    8.3445 C   0  0  0  0  0  0  0  0  0  0  0  0
   -7.1240    0.2770    7.6251 C   0  0  0  0  0  0  0  0  0  0  0  0
  -10.7815    0.3237    8.5648 C   0  0  0  0  0  0  0  0  0  0  0  0
  -11.5757    1.6147    8.7009 C   0  0  0  0  0  0  0  0  0  0  0  0
  -12.4319    1.5105    9.9313 C   0  0  0  0  0  0  0  0  0  0  0  0
  -12.9522    0.0768   10.0047 C   0  0  0  0  0  0  0  0  0  0  0  0
  -13.0740   -0.5084    8.6027 C   0  0  0  0  0  0  0  0  0  0  0  0
  -11.7088   -0.6883    7.9514 C   0  0  0  0  0  0  0  0  0  0  0  0
  1  2  1  0
  2  3  2  0
  2  4  2  0
  2  5  1  0
  5  6  2  0
  6  7  1  0
  7  8  2  0
  8  9  1  0
  9 10  2  0
  9 11  1  0
 11 12  1  0
 12 13  2  0
 12 14  1  0
 14 15  1  0
 15 16  1  0
 16 17  2  0
 17 18  1  0
 18 19  2  0
 19 20  1  0
 20 21  2  0
 19 22  1  0
 22 23  2  0
 22 24  1  0
 24 25  1  0
 25 26  2  0
 26 27  1  0
 27 28  1  0
 28 29  2  0
 14 30  1  0
 30 31  2  0
 31 32  1  0
 32 33  2  0
 33 34  1  0
 34 35  2  0
 33 36  1  0
 36 37  1  0
 37 38  1  0
 38 39  1  0
 39 40  1  0
 40 41  1  0
 10  5  1  0
 21 16  1  0
 29 25  1  0
 35 30  1  0
 41 36  1  0
M  END
$$$$
