
     RDKit          3D

 41 45  0  0  0  0  0  0  0  0999 V2000
  -15.5185   -8.4348   -5.8896 C   0  0  0  0  0  0  0  0  0  0  0  0
  -16.4869   -6.9274   -5.7937 S   0  0  0  0  0  6  0  0  0  0  0  0
  -15.8251   -6.0727   -4.7444 O   0  0  0  0  0  0  0  0  0  0  0  0
  -17.8716   -7.2219   -5.3258 O   0  0  0  0  0  0  0  0  0  0  0  0
  -16.4276   -6.1784   -7.3512 C   0  0  0  0  0  0  0  0  0  0  0  0
  -16.9075   -4.8948   -7.5829 C   0  0  0  0  0  0  0  0  0  0  0  0
  -16.8667   -4.3134   -8.8268 C   0  0  0  0  0  0  0  0  0  0  0  0
  -16.3231   -5.0476   -9.8796 C   0  0  0  0  0  0  0  0  0  0  0  0
  -15.8582   -6.2934   -9.6465 C   0  0  0  0  0  0  0  0  0  0  0  0
  -15.8916   -6.8821   -8.4220 C   0  0  0  0  0  0  0  0  0  0  0  0
  -15.3039   -7.0628  -10.7430 N   0  0  0  0  0  0  0  0  0  0  0  0
  -14.7747   -8.3440  -10.4900 C   0  0  0  0  0  0  0  0  0  0  0  0
  -14.8790   -8.7074   -9.2723 O   0  0  0  0  0  0  0  0  0  0  0  0
  -14.1871   -9.1398  -11.4687 N   0  0  0  0  0  0  0  0  0  0  0  0
  -13.5825  -10.4034  -11.0552 C   0  0  0  0  0  0  0  0  0  0  0  0
  -12.1035  -10.4048  -11.3751 C   0  0  0  0  0  0  0  0  0  0  0  0
  -11.2306   -9.7402  -10.5551 C   0  0  0  0  0  0  0  0  0  0  0  0
   -9.8805   -9.7553  -10.8665 C   0  0  0  0  0  0  0  0  0  0  0  0
   -9.3458  -10.3961  -11.9476 C   0  0  0  0  0  0  0  0  0  0  0  0
  -10.2414  -11.0643  -12.7645 C   0  0  0  0  0  0  0  0  0  0  0  0
  -11.6123  -11.0632  -12.4725 C   0  0  0  0  0  0  0  0  0  0  0  0
   -7.9164  -10.3733  -12.2312 C   0  0  0  0  0  0  0  0  0  0  0  0
   -7.1188  -10.2327  -11.2413 O   0  0  0  0  0  0  0  0  0  0  0  0
   -7.3473  -10.4918  -13.5102 N   0  0  0  0  0  0  0  0  0  0  0  0
   -5.9649  -10.5900  -13.7931 C   0  0  0  0  0  0  0  0  0  0  0  0
   -4.9401  -10.6622  -12.9392 N   0  0  0  0  0  0  0  0  0  0  0  0
   -3.8379  -10.7452  -13.6670 N   0  0  0  0  0  0  0  0  0  0  0  0
   -4.1234  -10.7287  -14.9395 N   0  0  0  0  0  0  0  0  0  0  0  0
   -5.4349  -10.6331  -15.0229 N   0  0  0  0  0  0  0  0  0  0  0  0
  -14.1117   -8.7307  -12.8375 C   0  0  0  0  0  0  0  0  0  0  0  0
  -14.9159   -9.3376  -13.8031 C   0  0  0  0  0  0  0  0  0  0  0  0
  -14.8549   -8.9600  -15.1249 C   0  0  0  0  0  0  0  0  0  0  0  0
  -14.0243   -7.9890  -15.5759 C   0  0  0  0  0  0  0  0  0  0  0  0
  -13.2215   -7.3755  -14.6458 C   0  0  0  0  0  0  0  0  0  0  0  0
  -13.2693   -7.7497  -13.2822 C   0  0  0  0  0  0  0  0  0  0  0  0
  -13.9938   -7.6043  -16.9857 C   0  0  0  0  0  0  0  0  0  0  0  0
  -14.3789   -8.7559  -17.9031 C   0  0  0  0  0  0  0  0  0  0  0  0
  -13.7253   -8.5308  -19.2373 C   0  0  0  0  0  0  0  0  0  0  0  0
  -13.7933   -7.0339  -19.5314 C   0  0  0  0  0  0  0  0  0  0  0  0
  -15.0168   -6.4231  -18.8585 C   0  0  0  0  0  0  0  0  0  0  0  0
  -14.8935   -6.4533  -17.3406 C   0  0  0  0  0  0  0  0  0  0  0  0
  1  2  1  0
  2  3  2  0
  2  4  2  0
  2  5  1  0
  5  6  2  0
  6  7  1  0
  7  8  2  0
  8  9  1  0
  9 10  2  0
  9 11  1  0
 11 12  1  0
 12 13  2  0
 12 14  1  0
 14 15  1  0
 15 16  1  0
 16 17  2  0
 17 18  1  0
 18 19  2  0
 19 20  1  0
 20 21  2  0
 19 22  1  0
 22 23  2  0
 22 24  1  0
 24 25  1  0
 25 26  2  0
 26 27  1  0
 27 28  1  0
 28 29  2  0
 14 30  1  0
 30 31  2  0
 31 32  1  0
 32 33  2  0
 33 34  1  0
 34 35  2  0
 33 36  1  0
 36 37  1  0
 37 38  1  0
 38 39  1  0
 39 40  1  0
 40 41  1  0
 10  5  1  0
 21 16  1  0
 29 25  1  0
 35 30  1  0
 41 36  1  0
M  END
$$$$
