
     RDKit          3D

 41 45  0  0  0  0  0  0  0  0999 V2000
  -11.4648   -7.2165  -11.4187 C   0  0  0  0  0  0  0  0  0  0  0  0
  -12.3470   -8.7767  -11.3344 S   0  0  0  0  0  6  0  0  0  0  0  0
  -11.3318   -9.8074  -10.9141 O   0  0  0  0  0  0  0  0  0  0  0  0
  -12.8529   -9.1671  -12.6814 O   0  0  0  0  0  0  0  0  0  0  0  0
  -13.5957   -8.5977  -10.1515 C   0  0  0  0  0  0  0  0  0  0  0  0
  -14.8936   -8.2285  -10.4838 C   0  0  0  0  0  0  0  0  0  0  0  0
  -15.8755   -8.0773   -9.5351 C   0  0  0  0  0  0  0  0  0  0  0  0
  -15.5430   -8.3055   -8.2009 C   0  0  0  0  0  0  0  0  0  0  0  0
  -14.2803   -8.6647   -7.8860 C   0  0  0  0  0  0  0  0  0  0  0  0
  -13.2983   -8.8183   -8.8128 C   0  0  0  0  0  0  0  0  0  0  0  0
  -13.9300   -8.8904   -6.4975 N   0  0  0  0  0  0  0  0  0  0  0  0
  -14.8352   -8.5117   -5.4862 C   0  0  0  0  0  0  0  0  0  0  0  0
  -15.8775   -7.9254   -5.9282 O   0  0  0  0  0  0  0  0  0  0  0  0
  -14.6165   -8.7460   -4.1320 N   0  0  0  0  0  0  0  0  0  0  0  0
  -15.6767   -8.3886   -3.1929 C   0  0  0  0  0  0  0  0  0  0  0  0
  -15.2480   -7.2119   -2.3436 C   0  0  0  0  0  0  0  0  0  0  0  0
  -15.4081   -7.2613   -0.9843 C   0  0  0  0  0  0  0  0  0  0  0  0
  -15.0080   -6.1729   -0.2259 C   0  0  0  0  0  0  0  0  0  0  0  0
  -14.4544   -5.0357   -0.7415 C   0  0  0  0  0  0  0  0  0  0  0  0
  -14.2979   -5.0032   -2.1164 C   0  0  0  0  0  0  0  0  0  0  0  0
  -14.6960   -6.0903   -2.9063 C   0  0  0  0  0  0  0  0  0  0  0  0
  -14.0573   -3.9168    0.1039 C   0  0  0  0  0  0  0  0  0  0  0  0
  -13.5386   -2.8975   -0.4685 O   0  0  0  0  0  0  0  0  0  0  0  0
  -14.1987   -3.8733    1.5010 N   0  0  0  0  0  0  0  0  0  0  0  0
  -13.8283   -2.7928    2.3353 C   0  0  0  0  0  0  0  0  0  0  0  0
  -14.1335   -2.5856    3.6192 N   0  0  0  0  0  0  0  0  0  0  0  0
  -13.5609   -1.4457    3.9717 N   0  0  0  0  0  0  0  0  0  0  0  0
  -12.9094   -0.9273    2.9678 N   0  0  0  0  0  0  0  0  0  0  0  0
  -13.0712   -1.7549    1.9553 N   0  0  0  0  0  0  0  0  0  0  0  0
  -13.3779   -9.2662   -3.6404 C   0  0  0  0  0  0  0  0  0  0  0  0
  -12.9838  -10.5683   -3.9513 C   0  0  0  0  0  0  0  0  0  0  0  0
  -11.7977  -11.0873   -3.4849 C   0  0  0  0  0  0  0  0  0  0  0  0
  -10.9425  -10.3837   -2.7040 C   0  0  0  0  0  0  0  0  0  0  0  0
  -11.3068   -9.0991   -2.3828 C   0  0  0  0  0  0  0  0  0  0  0  0
  -12.5221   -8.5476   -2.8523 C   0  0  0  0  0  0  0  0  0  0  0  0
   -9.6845  -10.9620   -2.2357 C   0  0  0  0  0  0  0  0  0  0  0  0
   -8.9078  -11.6327   -3.3596 C   0  0  0  0  0  0  0  0  0  0  0  0
   -8.0454  -12.7059   -2.7576 C   0  0  0  0  0  0  0  0  0  0  0  0
   -7.5049  -12.1679   -1.4346 C   0  0  0  0  0  0  0  0  0  0  0  0
   -7.3804  -10.6502   -1.4984 C   0  0  0  0  0  0  0  0  0  0  0  0
   -8.7455   -9.9807   -1.5909 C   0  0  0  0  0  0  0  0  0  0  0  0
  1  2  1  0
  2  3  2  0
  2  4  2  0
  2  5  1  0
  5  6  2  0
  6  7  1  0
  7  8  2  0
  8  9  1  0
  9 10  2  0
  9 11  1  0
 11 12  1  0
 12 13  2  0
 12 14  1  0
 14 15  1  0
 15 16  1  0
 16 17  2  0
 17 18  1  0
 18 19  2  0
 19 20  1  0
 20 21  2  0
 19 22  1  0
 22 23  2  0
 22 24  1  0
 24 25  1  0
 25 26  2  0
 26 27  1  0
 27 28  1  0
 28 29  2  0
 14 30  1  0
 30 31  2  0
 31 32  1  0
 32 33  2  0
 33 34  1  0
 34 35  2  0
 33 36  1  0
 36 37  1  0
 37 38  1  0
 38 39  1  0
 39 40  1  0
 40 41  1  0
 10  5  1  0
 21 16  1  0
 29 25  1  0
 35 30  1  0
 41 36  1  0
M  END
$$$$
