
     RDKit          3D

 41 45  0  0  0  0  0  0  0  0999 V2000
  -15.4553   -7.8825  -17.1463 C   0  0  0  0  0  0  0  0  0  0  0  0
  -14.5171   -9.0923  -16.2105 S   0  0  0  0  0  6  0  0  0  0  0  0
  -13.3309   -9.4530  -17.0665 O   0  0  0  0  0  0  0  0  0  0  0  0
  -15.3176  -10.3333  -16.0058 O   0  0  0  0  0  0  0  0  0  0  0  0
  -14.0272   -8.3339  -14.7356 C   0  0  0  0  0  0  0  0  0  0  0  0
  -14.3974   -7.0364  -14.4027 C   0  0  0  0  0  0  0  0  0  0  0  0
  -13.9929   -6.4386  -13.2339 C   0  0  0  0  0  0  0  0  0  0  0  0
  -13.1858   -7.1706  -12.3647 C   0  0  0  0  0  0  0  0  0  0  0  0
  -12.8310   -8.4307  -12.6947 C   0  0  0  0  0  0  0  0  0  0  0  0
  -13.2230   -9.0357  -13.8468 C   0  0  0  0  0  0  0  0  0  0  0  0
  -11.9815   -9.1889  -11.7974 N   0  0  0  0  0  0  0  0  0  0  0  0
  -11.6298  -10.5118  -12.1317 C   0  0  0  0  0  0  0  0  0  0  0  0
  -12.0854  -10.8907  -13.2607 O   0  0  0  0  0  0  0  0  0  0  0  0
  -10.8644  -11.3344  -11.3108 N   0  0  0  0  0  0  0  0  0  0  0  0
  -10.1422  -12.4427  -11.9301 C   0  0  0  0  0  0  0  0  0  0  0  0
   -8.8670  -11.9418  -12.5726 C   0  0  0  0  0  0  0  0  0  0  0  0
   -7.7362  -11.7954  -11.8139 C   0  0  0  0  0  0  0  0  0  0  0  0
   -6.5795  -11.3360  -12.4230 C   0  0  0  0  0  0  0  0  0  0  0  0
   -6.4807  -11.0147  -13.7467 C   0  0  0  0  0  0  0  0  0  0  0  0
   -7.6319  -11.1703  -14.4993 C   0  0  0  0  0  0  0  0  0  0  0  0
   -8.8154  -11.6317  -13.9070 C   0  0  0  0  0  0  0  0  0  0  0  0
   -5.2384  -10.5290  -14.3341 C   0  0  0  0  0  0  0  0  0  0  0  0
   -4.3541  -10.0554  -13.5407 O   0  0  0  0  0  0  0  0  0  0  0  0
   -4.9387  -10.5390  -15.7066 N   0  0  0  0  0  0  0  0  0  0  0  0
   -3.7608  -10.0262  -16.2985 C   0  0  0  0  0  0  0  0  0  0  0  0
   -2.7149   -9.4418  -15.7078 N   0  0  0  0  0  0  0  0  0  0  0  0
   -1.8551   -9.1332  -16.6654 N   0  0  0  0  0  0  0  0  0  0  0  0
   -2.3130   -9.4974  -17.8310 N   0  0  0  0  0  0  0  0  0  0  0  0
   -3.4889  -10.0492  -17.6102 N   0  0  0  0  0  0  0  0  0  0  0  0
  -10.8142  -11.1584   -9.8920 C   0  0  0  0  0  0  0  0  0  0  0  0
  -11.9436  -11.3989   -9.1084 C   0  0  0  0  0  0  0  0  0  0  0  0
  -11.9154  -11.2318   -7.7428 C   0  0  0  0  0  0  0  0  0  0  0  0
  -10.8087  -10.8287   -7.0728 C   0  0  0  0  0  0  0  0  0  0  0  0
   -9.6831  -10.5848   -7.8206 C   0  0  0  0  0  0  0  0  0  0  0  0
   -9.6919  -10.7506   -9.2257 C   0  0  0  0  0  0  0  0  0  0  0  0
  -10.8104  -10.6729   -5.6194 C   0  0  0  0  0  0  0  0  0  0  0  0
   -9.7344   -9.7069   -5.1448 C   0  0  0  0  0  0  0  0  0  0  0  0
   -9.3608  -10.0768   -3.7371 C   0  0  0  0  0  0  0  0  0  0  0  0
  -10.6448  -10.4793   -3.0153 C   0  0  0  0  0  0  0  0  0  0  0  0
  -11.8355   -9.7389   -3.6129 C   0  0  0  0  0  0  0  0  0  0  0  0
  -12.1104  -10.1845   -5.0433 C   0  0  0  0  0  0  0  0  0  0  0  0
  1  2  1  0
  2  3  2  0
  2  4  2  0
  2  5  1  0
  5  6  2  0
  6  7  1  0
  7  8  2  0
  8  9  1  0
  9 10  2  0
  9 11  1  0
 11 12  1  0
 12 13  2  0
 12 14  1  0
 14 15  1  0
 15 16  1  0
 16 17  2  0
 17 18  1  0
 18 19  2  0
 19 20  1  0
 20 21  2  0
 19 22  1  0
 22 23  2  0
 22 24  1  0
 24 25  1  0
 25 26  2  0
 26 27  1  0
 27 28  1  0
 28 29  2  0
 14 30  1  0
 30 31  2  0
 31 32  1  0
 32 33  2  0
 33 34  1  0
 34 35  2  0
 33 36  1  0
 36 37  1  0
 37 38  1  0
 38 39  1  0
 39 40  1  0
 40 41  1  0
 10  5  1  0
 21 16  1  0
 29 25  1  0
 35 30  1  0
 41 36  1  0
M  END
$$$$
