
     RDKit          3D

 41 45  0  0  0  0  0  0  0  0999 V2000
   -4.9190  -14.2252  -11.5885 C   0  0  0  0  0  0  0  0  0  0  0  0
   -5.3207  -13.1086  -10.2427 S   0  0  0  0  0  6  0  0  0  0  0  0
   -4.0132  -12.5108   -9.7924 O   0  0  0  0  0  0  0  0  0  0  0  0
   -5.8920  -13.8609   -9.0892 O   0  0  0  0  0  0  0  0  0  0  0  0
   -6.3846  -11.9016  -10.8765 C   0  0  0  0  0  0  0  0  0  0  0  0
   -6.0922  -11.1748  -12.0244 C   0  0  0  0  0  0  0  0  0  0  0  0
   -6.9386  -10.2095  -12.5130 C   0  0  0  0  0  0  0  0  0  0  0  0
   -8.1248   -9.9633  -11.8238 C   0  0  0  0  0  0  0  0  0  0  0  0
   -8.4023  -10.6740  -10.7100 C   0  0  0  0  0  0  0  0  0  0  0  0
   -7.5754  -11.6319  -10.2143 C   0  0  0  0  0  0  0  0  0  0  0  0
   -9.6298  -10.4106   -9.9852 N   0  0  0  0  0  0  0  0  0  0  0  0
   -9.8841  -11.1004   -8.7831 C   0  0  0  0  0  0  0  0  0  0  0  0
   -8.9371  -11.8782   -8.4314 O   0  0  0  0  0  0  0  0  0  0  0  0
  -11.0569  -10.9568   -8.0479 N   0  0  0  0  0  0  0  0  0  0  0  0
  -11.1145  -11.5639   -6.7207 C   0  0  0  0  0  0  0  0  0  0  0  0
  -11.3301  -10.4989   -5.6676 C   0  0  0  0  0  0  0  0  0  0  0  0
  -12.5511  -10.3843   -5.0576 C   0  0  0  0  0  0  0  0  0  0  0  0
  -12.7261   -9.4027   -4.0955 C   0  0  0  0  0  0  0  0  0  0  0  0
  -11.7545   -8.5272   -3.7018 C   0  0  0  0  0  0  0  0  0  0  0  0
  -10.5264   -8.6581   -4.3266 C   0  0  0  0  0  0  0  0  0  0  0  0
  -10.3239   -9.6418   -5.3043 C   0  0  0  0  0  0  0  0  0  0  0  0
  -11.9962   -7.5083   -2.6880 C   0  0  0  0  0  0  0  0  0  0  0  0
  -13.1286   -7.5217   -2.0936 O   0  0  0  0  0  0  0  0  0  0  0  0
  -11.0805   -6.5102   -2.3151 N   0  0  0  0  0  0  0  0  0  0  0  0
  -11.2514   -5.5856   -1.2584 C   0  0  0  0  0  0  0  0  0  0  0  0
  -10.4515   -4.5817   -0.8887 N   0  0  0  0  0  0  0  0  0  0  0  0
  -11.0274   -3.9920    0.1466 N   0  0  0  0  0  0  0  0  0  0  0  0
  -12.1531   -4.5795    0.4443 N   0  0  0  0  0  0  0  0  0  0  0  0
  -12.2962   -5.5637   -0.4200 N   0  0  0  0  0  0  0  0  0  0  0  0
  -12.2076  -10.2895   -8.5743 C   0  0  0  0  0  0  0  0  0  0  0  0
  -12.4015   -8.9264   -8.3466 C   0  0  0  0  0  0  0  0  0  0  0  0
  -13.5038   -8.2682   -8.8418 C   0  0  0  0  0  0  0  0  0  0  0  0
  -14.4632   -8.8854   -9.5731 C   0  0  0  0  0  0  0  0  0  0  0  0
  -14.2967  -10.2275   -9.8117 C   0  0  0  0  0  0  0  0  0  0  0  0
  -13.1704  -10.9221   -9.3109 C   0  0  0  0  0  0  0  0  0  0  0  0
  -15.6157   -8.1528  -10.0943 C   0  0  0  0  0  0  0  0  0  0  0  0
  -16.7433   -8.0581   -9.0766 C   0  0  0  0  0  0  0  0  0  0  0  0
  -18.0386   -7.9151   -9.8246 C   0  0  0  0  0  0  0  0  0  0  0  0
  -17.7758   -7.0035  -11.0212 C   0  0  0  0  0  0  0  0  0  0  0  0
  -16.6499   -6.0282  -10.6991 C   0  0  0  0  0  0  0  0  0  0  0  0
  -15.3170   -6.7471  -10.5361 C   0  0  0  0  0  0  0  0  0  0  0  0
  1  2  1  0
  2  3  2  0
  2  4  2  0
  2  5  1  0
  5  6  2  0
  6  7  1  0
  7  8  2  0
  8  9  1  0
  9 10  2  0
  9 11  1  0
 11 12  1  0
 12 13  2  0
 12 14  1  0
 14 15  1  0
 15 16  1  0
 16 17  2  0
 17 18  1  0
 18 19  2  0
 19 20  1  0
 20 21  2  0
 19 22  1  0
 22 23  2  0
 22 24  1  0
 24 25  1  0
 25 26  2  0
 26 27  1  0
 27 28  1  0
 28 29  2  0
 14 30  1  0
 30 31  2  0
 31 32  1  0
 32 33  2  0
 33 34  1  0
 34 35  2  0
 33 36  1  0
 36 37  1  0
 37 38  1  0
 38 39  1  0
 39 40  1  0
 40 41  1  0
 10  5  1  0
 21 16  1  0
 29 25  1  0
 35 30  1  0
 41 36  1  0
M  END
$$$$
