
     RDKit          3D

 41 45  0  0  0  0  0  0  0  0999 V2000
  -15.3750   -7.2726  -15.1804 C   0  0  0  0  0  0  0  0  0  0  0  0
  -14.0743   -6.8399  -14.0225 S   0  0  0  0  0  6  0  0  0  0  0  0
  -14.1926   -5.3549  -13.7984 O   0  0  0  0  0  0  0  0  0  0  0  0
  -12.7328   -7.0991  -14.6192 O   0  0  0  0  0  0  0  0  0  0  0  0
  -14.3667   -7.7260  -12.5666 C   0  0  0  0  0  0  0  0  0  0  0  0
  -15.6415   -7.9050  -12.0429 C   0  0  0  0  0  0  0  0  0  0  0  0
  -15.8620   -8.6004  -10.8789 C   0  0  0  0  0  0  0  0  0  0  0  0
  -14.7610   -9.1377  -10.2141 C   0  0  0  0  0  0  0  0  0  0  0  0
  -13.5259   -8.9605  -10.7295 C   0  0  0  0  0  0  0  0  0  0  0  0
  -13.2917   -8.2752  -11.8795 C   0  0  0  0  0  0  0  0  0  0  0  0
  -12.3788   -9.5082  -10.0326 N   0  0  0  0  0  0  0  0  0  0  0  0
  -11.0913   -9.3356  -10.5788 C   0  0  0  0  0  0  0  0  0  0  0  0
  -11.0882   -8.7084  -11.6889 O   0  0  0  0  0  0  0  0  0  0  0  0
   -9.9302   -9.8071   -9.9738 N   0  0  0  0  0  0  0  0  0  0  0  0
   -8.6468   -9.4107  -10.5474 C   0  0  0  0  0  0  0  0  0  0  0  0
   -8.2417  -10.3765  -11.6397 C   0  0  0  0  0  0  0  0  0  0  0  0
   -9.1414  -11.3035  -12.0946 C   0  0  0  0  0  0  0  0  0  0  0  0
   -8.7495  -12.1774  -13.0959 C   0  0  0  0  0  0  0  0  0  0  0  0
   -7.5123  -12.1820  -13.6744 C   0  0  0  0  0  0  0  0  0  0  0  0
   -6.6161  -11.2376  -13.2044 C   0  0  0  0  0  0  0  0  0  0  0  0
   -6.9871  -10.3431  -12.1912 C   0  0  0  0  0  0  0  0  0  0  0  0
   -7.1513  -13.1301  -14.7210 C   0  0  0  0  0  0  0  0  0  0  0  0
   -5.9155  -13.2196  -15.0378 O   0  0  0  0  0  0  0  0  0  0  0  0
   -8.0583  -13.9520  -15.4106 N   0  0  0  0  0  0  0  0  0  0  0  0
   -7.7194  -14.9220  -16.3827 C   0  0  0  0  0  0  0  0  0  0  0  0
   -6.5142  -15.2345  -16.8666 N   0  0  0  0  0  0  0  0  0  0  0  0
   -6.6937  -16.2031  -17.7504 N   0  0  0  0  0  0  0  0  0  0  0  0
   -7.9570  -16.5138  -17.8436 N   0  0  0  0  0  0  0  0  0  0  0  0
   -8.5944  -15.7261  -17.0014 N   0  0  0  0  0  0  0  0  0  0  0  0
   -9.9635  -10.7014   -8.8576 C   0  0  0  0  0  0  0  0  0  0  0  0
  -10.5180  -10.2968   -7.6426 C   0  0  0  0  0  0  0  0  0  0  0  0
  -10.5558  -11.1416   -6.5571 C   0  0  0  0  0  0  0  0  0  0  0  0
  -10.0659  -12.4046   -6.5894 C   0  0  0  0  0  0  0  0  0  0  0  0
   -9.5141  -12.8279   -7.7736 C   0  0  0  0  0  0  0  0  0  0  0  0
   -9.4656  -11.9742   -8.9008 C   0  0  0  0  0  0  0  0  0  0  0  0
  -10.1332  -13.2799   -5.4206 C   0  0  0  0  0  0  0  0  0  0  0  0
  -11.2964  -14.2579   -5.5025 C   0  0  0  0  0  0  0  0  0  0  0  0
  -11.6966  -14.6281   -4.1023 C   0  0  0  0  0  0  0  0  0  0  0  0
  -10.4155  -14.7606   -3.2819 C   0  0  0  0  0  0  0  0  0  0  0  0
   -9.2610  -15.1899   -4.1795 C   0  0  0  0  0  0  0  0  0  0  0  0
   -8.8973  -14.1018   -5.1814 C   0  0  0  0  0  0  0  0  0  0  0  0
  1  2  1  0
  2  3  2  0
  2  4  2  0
  2  5  1  0
  5  6  2  0
  6  7  1  0
  7  8  2  0
  8  9  1  0
  9 10  2  0
  9 11  1  0
 11 12  1  0
 12 13  2  0
 12 14  1  0
 14 15  1  0
 15 16  1  0
 16 17  2  0
 17 18  1  0
 18 19  2  0
 19 20  1  0
 20 21  2  0
 19 22  1  0
 22 23  2  0
 22 24  1  0
 24 25  1  0
 25 26  2  0
 26 27  1  0
 27 28  1  0
 28 29  2  0
 14 30  1  0
 30 31  2  0
 31 32  1  0
 32 33  2  0
 33 34  1  0
 34 35  2  0
 33 36  1  0
 36 37  1  0
 37 38  1  0
 38 39  1  0
 39 40  1  0
 40 41  1  0
 10  5  1  0
 21 16  1  0
 29 25  1  0
 35 30  1  0
 41 36  1  0
M  END
$$$$
