
     RDKit          3D

 41 45  0  0  0  0  0  0  0  0999 V2000
   -6.7034  -10.7961  -11.1071 C   0  0  0  0  0  0  0  0  0  0  0  0
   -6.0752  -12.2207  -10.2151 S   0  0  0  0  0  6  0  0  0  0  0  0
   -4.8250  -11.7558   -9.5146 O   0  0  0  0  0  0  0  0  0  0  0  0
   -5.6835  -13.3026  -11.1631 O   0  0  0  0  0  0  0  0  0  0  0  0
   -7.2943  -12.6984   -9.0855 C   0  0  0  0  0  0  0  0  0  0  0  0
   -7.8291  -13.9809   -9.0598 C   0  0  0  0  0  0  0  0  0  0  0  0
   -8.8061  -14.3469   -8.1662 C   0  0  0  0  0  0  0  0  0  0  0  0
   -9.2646  -13.3896   -7.2628 C   0  0  0  0  0  0  0  0  0  0  0  0
   -8.7396  -12.1463   -7.2933 C   0  0  0  0  0  0  0  0  0  0  0  0
   -7.7730  -11.7690   -8.1710 C   0  0  0  0  0  0  0  0  0  0  0  0
   -9.2242  -11.1462   -6.3625 N   0  0  0  0  0  0  0  0  0  0  0  0
   -8.7012   -9.8389   -6.4186 C   0  0  0  0  0  0  0  0  0  0  0  0
   -7.7329   -9.7118   -7.2383 O   0  0  0  0  0  0  0  0  0  0  0  0
   -9.1854   -8.7839   -5.6512 N   0  0  0  0  0  0  0  0  0  0  0  0
   -8.4766   -7.5082   -5.7119 C   0  0  0  0  0  0  0  0  0  0  0  0
   -8.1528   -7.0229   -4.3157 C   0  0  0  0  0  0  0  0  0  0  0  0
   -7.0447   -7.5032   -3.6697 C   0  0  0  0  0  0  0  0  0  0  0  0
   -6.7668   -7.0445   -2.3921 C   0  0  0  0  0  0  0  0  0  0  0  0
   -7.5273   -6.1319   -1.7182 C   0  0  0  0  0  0  0  0  0  0  0  0
   -8.6421   -5.6555   -2.3861 C   0  0  0  0  0  0  0  0  0  0  0  0
   -8.9464   -6.1045   -3.6785 C   0  0  0  0  0  0  0  0  0  0  0  0
   -7.1912   -5.6892   -0.3708 C   0  0  0  0  0  0  0  0  0  0  0  0
   -6.0987   -6.1177    0.1376 O   0  0  0  0  0  0  0  0  0  0  0  0
   -7.9774   -4.8289    0.4137 N   0  0  0  0  0  0  0  0  0  0  0  0
   -7.5538   -4.1641    1.5881 C   0  0  0  0  0  0  0  0  0  0  0  0
   -7.7095   -2.8806    1.9242 N   0  0  0  0  0  0  0  0  0  0  0  0
   -7.1538   -2.7246    3.1151 N   0  0  0  0  0  0  0  0  0  0  0  0
   -6.6562   -3.8517    3.5429 N   0  0  0  0  0  0  0  0  0  0  0  0
   -6.9005   -4.7435    2.6042 N   0  0  0  0  0  0  0  0  0  0  0  0
  -10.3070   -8.9322   -4.7757 C   0  0  0  0  0  0  0  0  0  0  0  0
  -11.5305   -9.3924   -5.2643 C   0  0  0  0  0  0  0  0  0  0  0  0
  -12.6213   -9.5383   -4.4382 C   0  0  0  0  0  0  0  0  0  0  0  0
  -12.5864   -9.2505   -3.1145 C   0  0  0  0  0  0  0  0  0  0  0  0
  -11.3939   -8.7953   -2.6080 C   0  0  0  0  0  0  0  0  0  0  0  0
  -10.2612   -8.6384   -3.4410 C   0  0  0  0  0  0  0  0  0  0  0  0
  -13.7612   -9.4286   -2.2632 C   0  0  0  0  0  0  0  0  0  0  0  0
  -13.9832  -10.8871   -1.8894 C   0  0  0  0  0  0  0  0  0  0  0  0
  -15.4478  -11.0832   -1.6169 C   0  0  0  0  0  0  0  0  0  0  0  0
  -15.9453   -9.8402   -0.8825 C   0  0  0  0  0  0  0  0  0  0  0  0
  -14.8122   -9.2224   -0.0718 C   0  0  0  0  0  0  0  0  0  0  0  0
  -13.7236   -8.6559   -0.9741 C   0  0  0  0  0  0  0  0  0  0  0  0
  1  2  1  0
  2  3  2  0
  2  4  2  0
  2  5  1  0
  5  6  2  0
  6  7  1  0
  7  8  2  0
  8  9  1  0
  9 10  2  0
  9 11  1  0
 11 12  1  0
 12 13  2  0
 12 14  1  0
 14 15  1  0
 15 16  1  0
 16 17  2  0
 17 18  1  0
 18 19  2  0
 19 20  1  0
 20 21  2  0
 19 22  1  0
 22 23  2  0
 22 24  1  0
 24 25  1  0
 25 26  2  0
 26 27  1  0
 27 28  1  0
 28 29  2  0
 14 30  1  0
 30 31  2  0
 31 32  1  0
 32 33  2  0
 33 34  1  0
 34 35  2  0
 33 36  1  0
 36 37  1  0
 37 38  1  0
 38 39  1  0
 39 40  1  0
 40 41  1  0
 10  5  1  0
 21 16  1  0
 29 25  1  0
 35 30  1  0
 41 36  1  0
M  END
$$$$
