
     RDKit          3D

 41 45  0  0  0  0  0  0  0  0999 V2000
   -7.7015   -8.6571  -10.1798 C   0  0  0  0  0  0  0  0  0  0  0  0
   -7.5299  -10.4385  -10.3100 S   0  0  0  0  0  6  0  0  0  0  0  0
   -6.5514  -10.8425   -9.2381 O   0  0  0  0  0  0  0  0  0  0  0  0
   -6.9364  -10.8139  -11.6251 O   0  0  0  0  0  0  0  0  0  0  0  0
   -9.0921  -11.1268  -10.0342 C   0  0  0  0  0  0  0  0  0  0  0  0
   -9.6152  -12.1385  -10.8307 C   0  0  0  0  0  0  0  0  0  0  0  0
  -10.8625  -12.6702  -10.6106 C   0  0  0  0  0  0  0  0  0  0  0  0
  -11.6147  -12.1682   -9.5500 C   0  0  0  0  0  0  0  0  0  0  0  0
  -11.0995  -11.1861   -8.7802 C   0  0  0  0  0  0  0  0  0  0  0  0
   -9.8677  -10.6499   -8.9852 C   0  0  0  0  0  0  0  0  0  0  0  0
  -11.8857  -10.6545   -7.6844 N   0  0  0  0  0  0  0  0  0  0  0  0
  -11.3970   -9.5530   -6.9539 C   0  0  0  0  0  0  0  0  0  0  0  0
  -10.2688   -9.1268   -7.3679 O   0  0  0  0  0  0  0  0  0  0  0  0
  -12.0719   -8.9835   -5.8785 N   0  0  0  0  0  0  0  0  0  0  0  0
  -11.5850   -7.7080   -5.3593 C   0  0  0  0  0  0  0  0  0  0  0  0
  -11.0360   -7.8882   -3.9608 C   0  0  0  0  0  0  0  0  0  0  0  0
   -9.8013   -7.3857   -3.6459 C   0  0  0  0  0  0  0  0  0  0  0  0
   -9.3185   -7.5615   -2.3591 C   0  0  0  0  0  0  0  0  0  0  0  0
   -9.9944   -8.2075   -1.3636 C   0  0  0  0  0  0  0  0  0  0  0  0
  -11.2411   -8.7072   -1.6981 C   0  0  0  0  0  0  0  0  0  0  0  0
  -11.7518   -8.5443   -2.9932 C   0  0  0  0  0  0  0  0  0  0  0  0
   -9.4348   -8.3694   -0.0276 C   0  0  0  0  0  0  0  0  0  0  0  0
   -9.9401   -9.2760    0.7199 O   0  0  0  0  0  0  0  0  0  0  0  0
   -8.3834   -7.6036    0.5033 N   0  0  0  0  0  0  0  0  0  0  0  0
   -7.0897   -7.4778   -0.0547 C   0  0  0  0  0  0  0  0  0  0  0  0
   -6.3513   -6.3759   -0.2128 N   0  0  0  0  0  0  0  0  0  0  0  0
   -5.2137   -6.7523   -0.7744 N   0  0  0  0  0  0  0  0  0  0  0  0
   -5.2034   -8.0408   -0.9761 N   0  0  0  0  0  0  0  0  0  0  0  0
   -6.3589   -8.4935   -0.5335 N   0  0  0  0  0  0  0  0  0  0  0  0
  -13.1769   -9.6334   -5.2436 C   0  0  0  0  0  0  0  0  0  0  0  0
  -14.4464   -9.0542   -5.2648 C   0  0  0  0  0  0  0  0  0  0  0  0
  -15.5204   -9.6627   -4.6568 C   0  0  0  0  0  0  0  0  0  0  0  0
  -15.4242  -10.8470   -4.0053 C   0  0  0  0  0  0  0  0  0  0  0  0
  -14.1854  -11.4385   -3.9693 C   0  0  0  0  0  0  0  0  0  0  0  0
  -13.0688  -10.8286   -4.5881 C   0  0  0  0  0  0  0  0  0  0  0  0
  -16.5887  -11.4715   -3.3805 C   0  0  0  0  0  0  0  0  0  0  0  0
  -17.7604  -11.5936   -4.3440 C   0  0  0  0  0  0  0  0  0  0  0  0
  -19.0294  -11.6048   -3.5394 C   0  0  0  0  0  0  0  0  0  0  0  0
  -18.7625  -12.4236   -2.2784 C   0  0  0  0  0  0  0  0  0  0  0  0
  -17.6995  -13.4802   -2.5554 C   0  0  0  0  0  0  0  0  0  0  0  0
  -16.3410  -12.8481   -2.8292 C   0  0  0  0  0  0  0  0  0  0  0  0
  1  2  1  0
  2  3  2  0
  2  4  2  0
  2  5  1  0
  5  6  2  0
  6  7  1  0
  7  8  2  0
  8  9  1  0
  9 10  2  0
  9 11  1  0
 11 12  1  0
 12 13  2  0
 12 14  1  0
 14 15  1  0
 15 16  1  0
 16 17  2  0
 17 18  1  0
 18 19  2  0
 19 20  1  0
 20 21  2  0
 19 22  1  0
 22 23  2  0
 22 24  1  0
 24 25  1  0
 25 26  2  0
 26 27  1  0
 27 28  1  0
 28 29  2  0
 14 30  1  0
 30 31  2  0
 31 32  1  0
 32 33  2  0
 33 34  1  0
 34 35  2  0
 33 36  1  0
 36 37  1  0
 37 38  1  0
 38 39  1  0
 39 40  1  0
 40 41  1  0
 10  5  1  0
 21 16  1  0
 29 25  1  0
 35 30  1  0
 41 36  1  0
M  END
$$$$
