
     RDKit          3D

 41 45  0  0  0  0  0  0  0  0999 V2000
  -12.0734   -6.9440  -15.7756 C   0  0  0  0  0  0  0  0  0  0  0  0
  -13.7456   -6.2963  -15.7106 S   0  0  0  0  0  6  0  0  0  0  0  0
  -14.4357   -6.7986  -16.9520 O   0  0  0  0  0  0  0  0  0  0  0  0
  -13.7344   -4.8068  -15.7740 O   0  0  0  0  0  0  0  0  0  0  0  0
  -14.4838   -6.9223  -14.2776 C   0  0  0  0  0  0  0  0  0  0  0  0
  -15.7822   -6.5985  -13.9022 C   0  0  0  0  0  0  0  0  0  0  0  0
  -16.3553   -7.0917  -12.7554 C   0  0  0  0  0  0  0  0  0  0  0  0
  -15.5970   -7.9432  -11.9536 C   0  0  0  0  0  0  0  0  0  0  0  0
  -14.3369   -8.2537  -12.3253 C   0  0  0  0  0  0  0  0  0  0  0  0
  -13.7561   -7.7741  -13.4565 C   0  0  0  0  0  0  0  0  0  0  0  0
  -13.5428   -9.1293  -11.4861 N   0  0  0  0  0  0  0  0  0  0  0  0
  -12.1459   -9.1781  -11.6651 C   0  0  0  0  0  0  0  0  0  0  0  0
  -11.7232   -8.4092  -12.5901 O   0  0  0  0  0  0  0  0  0  0  0  0
  -11.3026   -9.9901  -10.9128 N   0  0  0  0  0  0  0  0  0  0  0  0
   -9.8687   -9.7146  -10.9519 C   0  0  0  0  0  0  0  0  0  0  0  0
   -9.2485  -10.3451  -12.1798 C   0  0  0  0  0  0  0  0  0  0  0  0
  -10.0277  -11.0814  -13.0323 C   0  0  0  0  0  0  0  0  0  0  0  0
   -9.4391  -11.6490  -14.1509 C   0  0  0  0  0  0  0  0  0  0  0  0
   -8.1178  -11.5252  -14.4735 C   0  0  0  0  0  0  0  0  0  0  0  0
   -7.3453  -10.7764  -13.6026 C   0  0  0  0  0  0  0  0  0  0  0  0
   -7.9159  -10.1930  -12.4631 C   0  0  0  0  0  0  0  0  0  0  0  0
   -7.5497  -12.1503  -15.6613 C   0  0  0  0  0  0  0  0  0  0  0  0
   -8.3262  -12.8674  -16.3814 O   0  0  0  0  0  0  0  0  0  0  0  0
   -6.2127  -12.0273  -16.0747 N   0  0  0  0  0  0  0  0  0  0  0  0
   -5.6548  -12.5925  -17.2452 C   0  0  0  0  0  0  0  0  0  0  0  0
   -6.2660  -13.2772  -18.2157 N   0  0  0  0  0  0  0  0  0  0  0  0
   -5.3380  -13.5988  -19.1028 N   0  0  0  0  0  0  0  0  0  0  0  0
   -4.1715  -13.1470  -18.7340 N   0  0  0  0  0  0  0  0  0  0  0  0
   -4.3614  -12.5250  -17.5881 N   0  0  0  0  0  0  0  0  0  0  0  0
  -11.7915  -11.1041  -10.1602 C   0  0  0  0  0  0  0  0  0  0  0  0
  -11.8909  -11.0306   -8.7702 C   0  0  0  0  0  0  0  0  0  0  0  0
  -12.3556  -12.0929   -8.0291 C   0  0  0  0  0  0  0  0  0  0  0  0
  -12.7430  -13.2659   -8.5861 C   0  0  0  0  0  0  0  0  0  0  0  0
  -12.6549  -13.3648   -9.9529 C   0  0  0  0  0  0  0  0  0  0  0  0
  -12.1795  -12.2839  -10.7323 C   0  0  0  0  0  0  0  0  0  0  0  0
  -13.2433  -14.3703   -7.7697 C   0  0  0  0  0  0  0  0  0  0  0  0
  -12.6799  -15.7127   -8.2133 C   0  0  0  0  0  0  0  0  0  0  0  0
  -13.6618  -16.7831   -7.8284 C   0  0  0  0  0  0  0  0  0  0  0  0
  -14.2306  -16.4099   -6.4613 C   0  0  0  0  0  0  0  0  0  0  0  0
  -13.2048  -15.6085   -5.6685 C   0  0  0  0  0  0  0  0  0  0  0  0
  -12.9502  -14.2461   -6.3003 C   0  0  0  0  0  0  0  0  0  0  0  0
  1  2  1  0
  2  3  2  0
  2  4  2  0
  2  5  1  0
  5  6  2  0
  6  7  1  0
  7  8  2  0
  8  9  1  0
  9 10  2  0
  9 11  1  0
 11 12  1  0
 12 13  2  0
 12 14  1  0
 14 15  1  0
 15 16  1  0
 16 17  2  0
 17 18  1  0
 18 19  2  0
 19 20  1  0
 20 21  2  0
 19 22  1  0
 22 23  2  0
 22 24  1  0
 24 25  1  0
 25 26  2  0
 26 27  1  0
 27 28  1  0
 28 29  2  0
 14 30  1  0
 30 31  2  0
 31 32  1  0
 32 33  2  0
 33 34  1  0
 34 35  2  0
 33 36  1  0
 36 37  1  0
 37 38  1  0
 38 39  1  0
 39 40  1  0
 40 41  1  0
 10  5  1  0
 21 16  1  0
 29 25  1  0
 35 30  1  0
 41 36  1  0
M  END
$$$$
