
     RDKit          3D

 41 45  0  0  0  0  0  0  0  0999 V2000
  -14.1364   -7.3575   -3.8476 C   0  0  0  0  0  0  0  0  0  0  0  0
  -14.3027   -9.1314   -4.0604 S   0  0  0  0  0  6  0  0  0  0  0  0
  -15.2038   -9.6019   -2.9485 O   0  0  0  0  0  0  0  0  0  0  0  0
  -12.9848   -9.8066   -3.8872 O   0  0  0  0  0  0  0  0  0  0  0  0
  -15.0182   -9.3981   -5.6119 C   0  0  0  0  0  0  0  0  0  0  0  0
  -16.3825   -9.6014   -5.7817 C   0  0  0  0  0  0  0  0  0  0  0  0
  -16.9394   -9.8245   -7.0174 C   0  0  0  0  0  0  0  0  0  0  0  0
  -16.0954   -9.8442   -8.1265 C   0  0  0  0  0  0  0  0  0  0  0  0
  -14.7714   -9.6450   -7.9537 C   0  0  0  0  0  0  0  0  0  0  0  0
  -14.2056   -9.4231   -6.7381 C   0  0  0  0  0  0  0  0  0  0  0  0
  -13.8907   -9.6774   -9.1047 N   0  0  0  0  0  0  0  0  0  0  0  0
  -12.5110   -9.4537   -8.9257 C   0  0  0  0  0  0  0  0  0  0  0  0
  -12.1332   -9.5437   -7.7113 O   0  0  0  0  0  0  0  0  0  0  0  0
  -11.6390   -9.1562   -9.9686 N   0  0  0  0  0  0  0  0  0  0  0  0
  -10.2213   -8.9980   -9.6548 C   0  0  0  0  0  0  0  0  0  0  0  0
   -9.3918   -9.9489  -10.4900 C   0  0  0  0  0  0  0  0  0  0  0  0
   -9.0243  -11.1630   -9.9734 C   0  0  0  0  0  0  0  0  0  0  0  0
   -8.2655  -12.0183  -10.7560 C   0  0  0  0  0  0  0  0  0  0  0  0
   -7.8512  -11.7371  -12.0267 C   0  0  0  0  0  0  0  0  0  0  0  0
   -8.2328  -10.5071  -12.5340 C   0  0  0  0  0  0  0  0  0  0  0  0
   -8.9991   -9.6230  -11.7624 C   0  0  0  0  0  0  0  0  0  0  0  0
   -7.0475  -12.6729  -12.8031 C   0  0  0  0  0  0  0  0  0  0  0  0
   -6.4328  -12.2166  -13.8276 O   0  0  0  0  0  0  0  0  0  0  0  0
   -6.8983  -14.0394  -12.5132 N   0  0  0  0  0  0  0  0  0  0  0  0
   -6.0806  -14.9497  -13.2227 C   0  0  0  0  0  0  0  0  0  0  0  0
   -6.0257  -16.2803  -13.1183 N   0  0  0  0  0  0  0  0  0  0  0  0
   -5.1163  -16.6970  -13.9849 N   0  0  0  0  0  0  0  0  0  0  0  0
   -4.5975  -15.6889  -14.6293 N   0  0  0  0  0  0  0  0  0  0  0  0
   -5.1892  -14.6080  -14.1628 N   0  0  0  0  0  0  0  0  0  0  0  0
  -12.0976   -8.9486  -11.3077 C   0  0  0  0  0  0  0  0  0  0  0  0
  -12.2907   -7.6563  -11.7976 C   0  0  0  0  0  0  0  0  0  0  0  0
  -12.7344   -7.4370  -13.0815 C   0  0  0  0  0  0  0  0  0  0  0  0
  -13.0110   -8.4423  -13.9470 C   0  0  0  0  0  0  0  0  0  0  0  0
  -12.8296   -9.7244  -13.4897 C   0  0  0  0  0  0  0  0  0  0  0  0
  -12.3743   -9.9706  -12.1730 C   0  0  0  0  0  0  0  0  0  0  0  0
  -13.4694   -8.1732  -15.3086 C   0  0  0  0  0  0  0  0  0  0  0  0
  -14.7380   -8.9420  -15.6493 C   0  0  0  0  0  0  0  0  0  0  0  0
  -14.7753   -9.1484  -17.1371 C   0  0  0  0  0  0  0  0  0  0  0  0
  -14.2489   -7.8712  -17.7880 C   0  0  0  0  0  0  0  0  0  0  0  0
  -14.5462   -6.6696  -16.8988 C   0  0  0  0  0  0  0  0  0  0  0  0
  -13.7534   -6.7258  -15.5995 C   0  0  0  0  0  0  0  0  0  0  0  0
  1  2  1  0
  2  3  2  0
  2  4  2  0
  2  5  1  0
  5  6  2  0
  6  7  1  0
  7  8  2  0
  8  9  1  0
  9 10  2  0
  9 11  1  0
 11 12  1  0
 12 13  2  0
 12 14  1  0
 14 15  1  0
 15 16  1  0
 16 17  2  0
 17 18  1  0
 18 19  2  0
 19 20  1  0
 20 21  2  0
 19 22  1  0
 22 23  2  0
 22 24  1  0
 24 25  1  0
 25 26  2  0
 26 27  1  0
 27 28  1  0
 28 29  2  0
 14 30  1  0
 30 31  2  0
 31 32  1  0
 32 33  2  0
 33 34  1  0
 34 35  2  0
 33 36  1  0
 36 37  1  0
 37 38  1  0
 38 39  1  0
 39 40  1  0
 40 41  1  0
 10  5  1  0
 21 16  1  0
 29 25  1  0
 35 30  1  0
 41 36  1  0
M  END
$$$$
