
     RDKit          3D

 41 45  0  0  0  0  0  0  0  0999 V2000
  -12.3830   -5.7357  -16.7993 C   0  0  0  0  0  0  0  0  0  0  0  0
  -13.4416   -7.0930  -17.3058 S   0  0  0  0  0  6  0  0  0  0  0  0
  -12.5192   -8.2226  -17.6835 O   0  0  0  0  0  0  0  0  0  0  0  0
  -14.2222   -6.7244  -18.5214 O   0  0  0  0  0  0  0  0  0  0  0  0
  -14.4297   -7.5082  -15.9487 C   0  0  0  0  0  0  0  0  0  0  0  0
  -15.8139   -7.3857  -15.9657 C   0  0  0  0  0  0  0  0  0  0  0  0
  -16.5889   -7.7069  -14.8780 C   0  0  0  0  0  0  0  0  0  0  0  0
  -15.9510   -8.1692  -13.7281 C   0  0  0  0  0  0  0  0  0  0  0  0
  -14.6061   -8.2864  -13.7196 C   0  0  0  0  0  0  0  0  0  0  0  0
  -13.8260   -7.9728  -14.7873 C   0  0  0  0  0  0  0  0  0  0  0  0
  -13.9403   -8.7555  -12.5203 N   0  0  0  0  0  0  0  0  0  0  0  0
  -12.5340   -8.7070  -12.4469 C   0  0  0  0  0  0  0  0  0  0  0  0
  -11.9797   -8.3233  -13.5291 O   0  0  0  0  0  0  0  0  0  0  0  0
  -11.8116   -9.0497  -11.3079 N   0  0  0  0  0  0  0  0  0  0  0  0
  -10.3832   -8.7459  -11.2830 C   0  0  0  0  0  0  0  0  0  0  0  0
   -9.5756  -10.0177  -11.4241 C   0  0  0  0  0  0  0  0  0  0  0  0
   -8.9962  -10.5807  -10.3181 C   0  0  0  0  0  0  0  0  0  0  0  0
   -8.2617  -11.7457  -10.4703 C   0  0  0  0  0  0  0  0  0  0  0  0
   -8.0710  -12.3868  -11.6611 C   0  0  0  0  0  0  0  0  0  0  0  0
   -8.6649  -11.8058  -12.7681 C   0  0  0  0  0  0  0  0  0  0  0  0
   -9.4116  -10.6264  -12.6414 C   0  0  0  0  0  0  0  0  0  0  0  0
   -7.2821  -13.6080  -11.7643 C   0  0  0  0  0  0  0  0  0  0  0  0
   -7.0196  -14.0456  -12.9371 O   0  0  0  0  0  0  0  0  0  0  0  0
   -6.7897  -14.3432  -10.6731 N   0  0  0  0  0  0  0  0  0  0  0  0
   -5.9901  -15.5071  -10.7549 C   0  0  0  0  0  0  0  0  0  0  0  0
   -4.8058  -15.6672  -11.3518 N   0  0  0  0  0  0  0  0  0  0  0  0
   -4.4453  -16.9261  -11.1601 N   0  0  0  0  0  0  0  0  0  0  0  0
   -5.3491  -17.5643  -10.4695 N   0  0  0  0  0  0  0  0  0  0  0  0
   -6.3046  -16.6931  -10.2168 N   0  0  0  0  0  0  0  0  0  0  0  0
  -12.4120   -9.7321  -10.2032 C   0  0  0  0  0  0  0  0  0  0  0  0
  -12.2890  -11.1162  -10.0745 C   0  0  0  0  0  0  0  0  0  0  0  0
  -12.8625  -11.7903   -9.0208 C   0  0  0  0  0  0  0  0  0  0  0  0
  -13.5751  -11.1696   -8.0498 C   0  0  0  0  0  0  0  0  0  0  0  0
  -13.7116   -9.8070   -8.1527 C   0  0  0  0  0  0  0  0  0  0  0  0
  -13.1299   -9.0959   -9.2286 C   0  0  0  0  0  0  0  0  0  0  0  0
  -14.1608  -11.9154   -6.9374 C   0  0  0  0  0  0  0  0  0  0  0  0
  -13.1628  -12.8700   -6.2980 C   0  0  0  0  0  0  0  0  0  0  0  0
  -13.9302  -14.0009   -5.6735 C   0  0  0  0  0  0  0  0  0  0  0  0
  -15.1916  -13.4068   -5.0508 C   0  0  0  0  0  0  0  0  0  0  0  0
  -14.9368  -11.9656   -4.6255 C   0  0  0  0  0  0  0  0  0  0  0  0
  -14.7077  -11.0599   -5.8286 C   0  0  0  0  0  0  0  0  0  0  0  0
  1  2  1  0
  2  3  2  0
  2  4  2  0
  2  5  1  0
  5  6  2  0
  6  7  1  0
  7  8  2  0
  8  9  1  0
  9 10  2  0
  9 11  1  0
 11 12  1  0
 12 13  2  0
 12 14  1  0
 14 15  1  0
 15 16  1  0
 16 17  2  0
 17 18  1  0
 18 19  2  0
 19 20  1  0
 20 21  2  0
 19 22  1  0
 22 23  2  0
 22 24  1  0
 24 25  1  0
 25 26  2  0
 26 27  1  0
 27 28  1  0
 28 29  2  0
 14 30  1  0
 30 31  2  0
 31 32  1  0
 32 33  2  0
 33 34  1  0
 34 35  2  0
 33 36  1  0
 36 37  1  0
 37 38  1  0
 38 39  1  0
 39 40  1  0
 40 41  1  0
 10  5  1  0
 21 16  1  0
 29 25  1  0
 35 30  1  0
 41 36  1  0
M  END
$$$$
