
     RDKit          3D

 41 45  0  0  0  0  0  0  0  0999 V2000
   -7.1111  -11.3070  -15.2234 C   0  0  0  0  0  0  0  0  0  0  0  0
   -6.5051  -12.3255  -13.8762 S   0  0  0  0  0  6  0  0  0  0  0  0
   -5.0181  -12.4497  -14.0838 O   0  0  0  0  0  0  0  0  0  0  0  0
   -7.0857  -13.6966  -13.9525 O   0  0  0  0  0  0  0  0  0  0  0  0
   -6.8725  -11.4997  -12.4020 C   0  0  0  0  0  0  0  0  0  0  0  0
   -5.8918  -10.9281  -11.6002 C   0  0  0  0  0  0  0  0  0  0  0  0
   -6.1932  -10.2846  -10.4245 C   0  0  0  0  0  0  0  0  0  0  0  0
   -7.5303  -10.2110  -10.0379 C   0  0  0  0  0  0  0  0  0  0  0  0
   -8.4773  -10.7679  -10.8225 C   0  0  0  0  0  0  0  0  0  0  0  0
   -8.1951  -11.4076  -11.9878 C   0  0  0  0  0  0  0  0  0  0  0  0
   -9.8671  -10.7029  -10.4154 N   0  0  0  0  0  0  0  0  0  0  0  0
  -10.8432  -11.3720  -11.1804 C   0  0  0  0  0  0  0  0  0  0  0  0
  -10.3634  -12.0071  -12.1764 O   0  0  0  0  0  0  0  0  0  0  0  0
  -12.2032  -11.3420  -10.8871 N   0  0  0  0  0  0  0  0  0  0  0  0
  -13.1305  -11.8968  -11.8698 C   0  0  0  0  0  0  0  0  0  0  0  0
  -13.5131  -10.8396  -12.8826 C   0  0  0  0  0  0  0  0  0  0  0  0
  -13.0120  -10.9056  -14.1555 C   0  0  0  0  0  0  0  0  0  0  0  0
  -13.3763   -9.9275  -15.0669 C   0  0  0  0  0  0  0  0  0  0  0  0
  -14.2138   -8.8859  -14.7863 C   0  0  0  0  0  0  0  0  0  0  0  0
  -14.7128   -8.8354  -13.4962 C   0  0  0  0  0  0  0  0  0  0  0  0
  -14.3586   -9.8115  -12.5548 C   0  0  0  0  0  0  0  0  0  0  0  0
  -14.5583   -7.8801  -15.7834 C   0  0  0  0  0  0  0  0  0  0  0  0
  -15.2806   -6.8948  -15.4051 O   0  0  0  0  0  0  0  0  0  0  0  0
  -14.1591   -7.9115  -17.1300 N   0  0  0  0  0  0  0  0  0  0  0  0
  -14.4056   -6.9008  -18.0883 C   0  0  0  0  0  0  0  0  0  0  0  0
  -15.0919   -5.7636  -17.9458 N   0  0  0  0  0  0  0  0  0  0  0  0
  -15.0472   -5.1386  -19.1115 N   0  0  0  0  0  0  0  0  0  0  0  0
  -14.3637   -5.8310  -19.9799 N   0  0  0  0  0  0  0  0  0  0  0  0
  -13.9654   -6.9196  -19.3535 N   0  0  0  0  0  0  0  0  0  0  0  0
  -12.7105  -10.7398   -9.6927 C   0  0  0  0  0  0  0  0  0  0  0  0
  -13.3048  -11.5229   -8.7022 C   0  0  0  0  0  0  0  0  0  0  0  0
  -13.8016  -10.9613   -7.5484 C   0  0  0  0  0  0  0  0  0  0  0  0
  -13.7503   -9.6311   -7.2956 C   0  0  0  0  0  0  0  0  0  0  0  0
  -13.1705   -8.8373   -8.2546 C   0  0  0  0  0  0  0  0  0  0  0  0
  -12.6542   -9.3957   -9.4476 C   0  0  0  0  0  0  0  0  0  0  0  0
  -14.2771   -9.0691   -6.0533 C   0  0  0  0  0  0  0  0  0  0  0  0
  -13.7881   -7.6479   -5.8137 C   0  0  0  0  0  0  0  0  0  0  0  0
  -13.7969   -7.3928   -4.3330 C   0  0  0  0  0  0  0  0  0  0  0  0
  -15.0436   -8.0648   -3.7620 C   0  0  0  0  0  0  0  0  0  0  0  0
  -16.1448   -8.1061   -4.8148 C   0  0  0  0  0  0  0  0  0  0  0  0
  -15.7777   -9.0262   -5.9719 C   0  0  0  0  0  0  0  0  0  0  0  0
  1  2  1  0
  2  3  2  0
  2  4  2  0
  2  5  1  0
  5  6  2  0
  6  7  1  0
  7  8  2  0
  8  9  1  0
  9 10  2  0
  9 11  1  0
 11 12  1  0
 12 13  2  0
 12 14  1  0
 14 15  1  0
 15 16  1  0
 16 17  2  0
 17 18  1  0
 18 19  2  0
 19 20  1  0
 20 21  2  0
 19 22  1  0
 22 23  2  0
 22 24  1  0
 24 25  1  0
 25 26  2  0
 26 27  1  0
 27 28  1  0
 28 29  2  0
 14 30  1  0
 30 31  2  0
 31 32  1  0
 32 33  2  0
 33 34  1  0
 34 35  2  0
 33 36  1  0
 36 37  1  0
 37 38  1  0
 38 39  1  0
 39 40  1  0
 40 41  1  0
 10  5  1  0
 21 16  1  0
 29 25  1  0
 35 30  1  0
 41 36  1  0
M  END
$$$$
