
     RDKit          3D

 41 45  0  0  0  0  0  0  0  0999 V2000
  -16.2838   -7.4854  -20.6428 C   0  0  0  0  0  0  0  0  0  0  0  0
  -16.3069   -7.3871  -18.8513 S   0  0  0  0  0  6  0  0  0  0  0  0
  -17.4221   -8.2931  -18.3985 O   0  0  0  0  0  0  0  0  0  0  0  0
  -16.6420   -6.0043  -18.4058 O   0  0  0  0  0  0  0  0  0  0  0  0
  -14.7699   -7.9426  -18.2862 C   0  0  0  0  0  0  0  0  0  0  0  0
  -13.6453   -7.9892  -19.1014 C   0  0  0  0  0  0  0  0  0  0  0  0
  -12.4315   -8.4436  -18.6461 C   0  0  0  0  0  0  0  0  0  0  0  0
  -12.3418   -8.8677  -17.3213 C   0  0  0  0  0  0  0  0  0  0  0  0
  -13.4383   -8.8186  -16.5354 C   0  0  0  0  0  0  0  0  0  0  0  0
  -14.6456   -8.3718  -16.9711 C   0  0  0  0  0  0  0  0  0  0  0  0
  -13.3495   -9.2708  -15.1610 N   0  0  0  0  0  0  0  0  0  0  0  0
  -14.2589   -8.7696  -14.2084 C   0  0  0  0  0  0  0  0  0  0  0  0
  -15.2635   -8.1779  -14.7246 O   0  0  0  0  0  0  0  0  0  0  0  0
  -14.0814   -8.8984  -12.8342 N   0  0  0  0  0  0  0  0  0  0  0  0
  -15.1799   -8.4976  -11.9590 C   0  0  0  0  0  0  0  0  0  0  0  0
  -14.8291   -8.7839  -10.5151 C   0  0  0  0  0  0  0  0  0  0  0  0
  -15.0762  -10.0242   -9.9893 C   0  0  0  0  0  0  0  0  0  0  0  0
  -14.7464  -10.2646   -8.6651 C   0  0  0  0  0  0  0  0  0  0  0  0
  -14.1816   -9.3418   -7.8315 C   0  0  0  0  0  0  0  0  0  0  0  0
  -13.9368   -8.0945   -8.3794 C   0  0  0  0  0  0  0  0  0  0  0  0
  -14.2626   -7.8251   -9.7157 C   0  0  0  0  0  0  0  0  0  0  0  0
  -13.8610   -9.6476   -6.4430 C   0  0  0  0  0  0  0  0  0  0  0  0
  -13.9101  -10.8732   -6.0803 O   0  0  0  0  0  0  0  0  0  0  0  0
  -13.5041   -8.6981   -5.4711 N   0  0  0  0  0  0  0  0  0  0  0  0
  -13.1435   -8.9813   -4.1330 C   0  0  0  0  0  0  0  0  0  0  0  0
  -12.8631   -8.1277   -3.1445 N   0  0  0  0  0  0  0  0  0  0  0  0
  -12.5859   -8.8556   -2.0745 N   0  0  0  0  0  0  0  0  0  0  0  0
  -12.6796  -10.1279   -2.3456 N   0  0  0  0  0  0  0  0  0  0  0  0
  -13.0236  -10.2110   -3.6148 N   0  0  0  0  0  0  0  0  0  0  0  0
  -12.8497   -9.3524  -12.2657 C   0  0  0  0  0  0  0  0  0  0  0  0
  -11.8316   -8.4461  -11.9664 C   0  0  0  0  0  0  0  0  0  0  0  0
  -10.6388   -8.8643  -11.4225 C   0  0  0  0  0  0  0  0  0  0  0  0
  -10.3718  -10.1631  -11.1434 C   0  0  0  0  0  0  0  0  0  0  0  0
  -11.3573  -11.0761  -11.4287 C   0  0  0  0  0  0  0  0  0  0  0  0
  -12.5903  -10.6660  -11.9884 C   0  0  0  0  0  0  0  0  0  0  0  0
   -9.0979  -10.5714  -10.5543 C   0  0  0  0  0  0  0  0  0  0  0  0
   -8.2753   -9.3803  -10.0843 C   0  0  0  0  0  0  0  0  0  0  0  0
   -6.8246   -9.7705  -10.1179 C   0  0  0  0  0  0  0  0  0  0  0  0
   -6.7312  -11.2198   -9.6463 C   0  0  0  0  0  0  0  0  0  0  0  0
   -7.8675  -11.5300   -8.6791 C   0  0  0  0  0  0  0  0  0  0  0  0
   -9.2206  -11.4995   -9.3779 C   0  0  0  0  0  0  0  0  0  0  0  0
  1  2  1  0
  2  3  2  0
  2  4  2  0
  2  5  1  0
  5  6  2  0
  6  7  1  0
  7  8  2  0
  8  9  1  0
  9 10  2  0
  9 11  1  0
 11 12  1  0
 12 13  2  0
 12 14  1  0
 14 15  1  0
 15 16  1  0
 16 17  2  0
 17 18  1  0
 18 19  2  0
 19 20  1  0
 20 21  2  0
 19 22  1  0
 22 23  2  0
 22 24  1  0
 24 25  1  0
 25 26  2  0
 26 27  1  0
 27 28  1  0
 28 29  2  0
 14 30  1  0
 30 31  2  0
 31 32  1  0
 32 33  2  0
 33 34  1  0
 34 35  2  0
 33 36  1  0
 36 37  1  0
 37 38  1  0
 38 39  1  0
 39 40  1  0
 40 41  1  0
 10  5  1  0
 21 16  1  0
 29 25  1  0
 35 30  1  0
 41 36  1  0
M  END
$$$$
