
     RDKit          3D

 41 45  0  0  0  0  0  0  0  0999 V2000
  -15.1182   -4.7065   -9.6164 C   0  0  0  0  0  0  0  0  0  0  0  0
  -16.1177   -4.7464   -8.1267 S   0  0  0  0  0  6  0  0  0  0  0  0
  -17.5446   -4.8964   -8.5859 O   0  0  0  0  0  0  0  0  0  0  0  0
  -16.0156   -3.4535   -7.3913 O   0  0  0  0  0  0  0  0  0  0  0  0
  -15.6034   -6.1123   -7.1992 C   0  0  0  0  0  0  0  0  0  0  0  0
  -15.4900   -6.0765   -5.8145 C   0  0  0  0  0  0  0  0  0  0  0  0
  -15.0689   -7.1636   -5.0879 C   0  0  0  0  0  0  0  0  0  0  0  0
  -14.7491   -8.3324   -5.7767 C   0  0  0  0  0  0  0  0  0  0  0  0
  -14.8627   -8.3597   -7.1216 C   0  0  0  0  0  0  0  0  0  0  0  0
  -15.2777   -7.2930   -7.8543 C   0  0  0  0  0  0  0  0  0  0  0  0
  -14.5188   -9.5708   -7.8403 N   0  0  0  0  0  0  0  0  0  0  0  0
  -14.3489   -9.5201   -9.2382 C   0  0  0  0  0  0  0  0  0  0  0  0
  -14.5328   -8.3593   -9.7325 O   0  0  0  0  0  0  0  0  0  0  0  0
  -14.0183  -10.6278  -10.0129 N   0  0  0  0  0  0  0  0  0  0  0  0
  -13.7029  -10.4111  -11.4225 C   0  0  0  0  0  0  0  0  0  0  0  0
  -12.2037  -10.4012  -11.6273 C   0  0  0  0  0  0  0  0  0  0  0  0
  -11.3717  -10.6447  -10.5669 C   0  0  0  0  0  0  0  0  0  0  0  0
  -10.0023  -10.6315  -10.7773 C   0  0  0  0  0  0  0  0  0  0  0  0
   -9.4100  -10.3918  -11.9844 C   0  0  0  0  0  0  0  0  0  0  0  0
  -10.2651  -10.1497  -13.0455 C   0  0  0  0  0  0  0  0  0  0  0  0
  -11.6542  -10.1558  -12.8590 C   0  0  0  0  0  0  0  0  0  0  0  0
   -7.9616  -10.3835  -12.1472 C   0  0  0  0  0  0  0  0  0  0  0  0
   -7.2629  -10.9837  -11.2599 O   0  0  0  0  0  0  0  0  0  0  0  0
   -7.2737   -9.7640  -13.2039 N   0  0  0  0  0  0  0  0  0  0  0  0
   -5.8754   -9.8022  -13.4140 C   0  0  0  0  0  0  0  0  0  0  0  0
   -4.9619  -10.5747  -12.8198 N   0  0  0  0  0  0  0  0  0  0  0  0
   -3.7892  -10.2569  -13.3445 N   0  0  0  0  0  0  0  0  0  0  0  0
   -3.9243   -9.3201  -14.2417 N   0  0  0  0  0  0  0  0  0  0  0  0
   -5.2100   -9.0359  -14.2886 N   0  0  0  0  0  0  0  0  0  0  0  0
  -14.0353  -11.9574   -9.4852 C   0  0  0  0  0  0  0  0  0  0  0  0
  -14.8850  -12.9232  -10.0264 C   0  0  0  0  0  0  0  0  0  0  0  0
  -14.9177  -14.2061   -9.5299 C   0  0  0  0  0  0  0  0  0  0  0  0
  -14.1411  -14.6166   -8.4981 C   0  0  0  0  0  0  0  0  0  0  0  0
  -13.2957  -13.6853   -7.9469 C   0  0  0  0  0  0  0  0  0  0  0  0
  -13.2475  -12.3612   -8.4430 C   0  0  0  0  0  0  0  0  0  0  0  0
  -14.1927  -15.9910   -8.0033 C   0  0  0  0  0  0  0  0  0  0  0  0
  -14.1457  -17.0097   -9.1330 C   0  0  0  0  0  0  0  0  0  0  0  0
  -14.8325  -18.2612   -8.6642 C   0  0  0  0  0  0  0  0  0  0  0  0
  -14.4547  -18.4670   -7.1990 C   0  0  0  0  0  0  0  0  0  0  0  0
  -13.0779  -17.8735   -6.9250 C   0  0  0  0  0  0  0  0  0  0  0  0
  -13.0884  -16.3555   -7.0503 C   0  0  0  0  0  0  0  0  0  0  0  0
  1  2  1  0
  2  3  2  0
  2  4  2  0
  2  5  1  0
  5  6  2  0
  6  7  1  0
  7  8  2  0
  8  9  1  0
  9 10  2  0
  9 11  1  0
 11 12  1  0
 12 13  2  0
 12 14  1  0
 14 15  1  0
 15 16  1  0
 16 17  2  0
 17 18  1  0
 18 19  2  0
 19 20  1  0
 20 21  2  0
 19 22  1  0
 22 23  2  0
 22 24  1  0
 24 25  1  0
 25 26  2  0
 26 27  1  0
 27 28  1  0
 28 29  2  0
 14 30  1  0
 30 31  2  0
 31 32  1  0
 32 33  2  0
 33 34  1  0
 34 35  2  0
 33 36  1  0
 36 37  1  0
 37 38  1  0
 38 39  1  0
 39 40  1  0
 40 41  1  0
 10  5  1  0
 21 16  1  0
 29 25  1  0
 35 30  1  0
 41 36  1  0
M  END
$$$$
