
     RDKit          3D

 41 45  0  0  0  0  0  0  0  0999 V2000
  -13.6963   -7.2460  -17.5639 C   0  0  0  0  0  0  0  0  0  0  0  0
  -15.2640   -7.6338  -16.7819 S   0  0  0  0  0  6  0  0  0  0  0  0
  -15.6131   -9.0327  -17.2189 O   0  0  0  0  0  0  0  0  0  0  0  0
  -16.3373   -6.7264  -17.2792 O   0  0  0  0  0  0  0  0  0  0  0  0
  -15.0210   -7.5460  -15.0720 C   0  0  0  0  0  0  0  0  0  0  0  0
  -15.6374   -6.5870  -14.2771 C   0  0  0  0  0  0  0  0  0  0  0  0
  -15.4282   -6.5182  -12.9212 C   0  0  0  0  0  0  0  0  0  0  0  0
  -14.5676   -7.4476  -12.3394 C   0  0  0  0  0  0  0  0  0  0  0  0
  -13.9733   -8.3767  -13.1181 C   0  0  0  0  0  0  0  0  0  0  0  0
  -14.1701   -8.4576  -14.4603 C   0  0  0  0  0  0  0  0  0  0  0  0
  -13.0685   -9.3362  -12.5163 N   0  0  0  0  0  0  0  0  0  0  0  0
  -12.9217  -10.6092  -13.1023 C   0  0  0  0  0  0  0  0  0  0  0  0
  -13.6046  -10.7618  -14.1681 O   0  0  0  0  0  0  0  0  0  0  0  0
  -12.1155  -11.6114  -12.5712 N   0  0  0  0  0  0  0  0  0  0  0  0
  -11.7548  -12.7329  -13.4346 C   0  0  0  0  0  0  0  0  0  0  0  0
  -10.4543  -12.4433  -14.1520 C   0  0  0  0  0  0  0  0  0  0  0  0
   -9.2705  -12.8686  -13.6102 C   0  0  0  0  0  0  0  0  0  0  0  0
   -8.0917  -12.5932  -14.2845 C   0  0  0  0  0  0  0  0  0  0  0  0
   -8.0213  -11.9195  -15.4704 C   0  0  0  0  0  0  0  0  0  0  0  0
   -9.2267  -11.4987  -16.0049 C   0  0  0  0  0  0  0  0  0  0  0  0
  -10.4330  -11.7631  -15.3420 C   0  0  0  0  0  0  0  0  0  0  0  0
   -6.7513  -11.6514  -16.1334 C   0  0  0  0  0  0  0  0  0  0  0  0
   -6.7846  -11.0069  -17.2376 O   0  0  0  0  0  0  0  0  0  0  0  0
   -5.4924  -12.0492  -15.6530 N   0  0  0  0  0  0  0  0  0  0  0  0
   -4.2547  -11.8339  -16.3029 C   0  0  0  0  0  0  0  0  0  0  0  0
   -3.2570  -12.6982  -16.5081 N   0  0  0  0  0  0  0  0  0  0  0  0
   -2.3095  -12.0443  -17.1608 N   0  0  0  0  0  0  0  0  0  0  0  0
   -2.6665  -10.8084  -17.3756 N   0  0  0  0  0  0  0  0  0  0  0  0
   -3.8664  -10.6733  -16.8481 N   0  0  0  0  0  0  0  0  0  0  0  0
  -11.6859  -11.5988  -11.2067 C   0  0  0  0  0  0  0  0  0  0  0  0
  -10.5829  -10.8370  -10.8187 C   0  0  0  0  0  0  0  0  0  0  0  0
  -10.1529  -10.8151   -9.5117 C   0  0  0  0  0  0  0  0  0  0  0  0
  -10.7588  -11.5191   -8.5251 C   0  0  0  0  0  0  0  0  0  0  0  0
  -11.8471  -12.2776   -8.8802 C   0  0  0  0  0  0  0  0  0  0  0  0
  -12.3045  -12.3136  -10.2186 C   0  0  0  0  0  0  0  0  0  0  0  0
  -10.2828  -11.4633   -7.1442 C   0  0  0  0  0  0  0  0  0  0  0  0
  -10.4470  -10.0779   -6.5362 C   0  0  0  0  0  0  0  0  0  0  0  0
   -9.4106   -9.9123   -5.4609 C   0  0  0  0  0  0  0  0  0  0  0  0
   -9.2926  -11.2489   -4.7318 C   0  0  0  0  0  0  0  0  0  0  0  0
  -10.6205  -11.9949   -4.7878 C   0  0  0  0  0  0  0  0  0  0  0  0
  -10.9601  -12.4258   -6.2087 C   0  0  0  0  0  0  0  0  0  0  0  0
  1  2  1  0
  2  3  2  0
  2  4  2  0
  2  5  1  0
  5  6  2  0
  6  7  1  0
  7  8  2  0
  8  9  1  0
  9 10  2  0
  9 11  1  0
 11 12  1  0
 12 13  2  0
 12 14  1  0
 14 15  1  0
 15 16  1  0
 16 17  2  0
 17 18  1  0
 18 19  2  0
 19 20  1  0
 20 21  2  0
 19 22  1  0
 22 23  2  0
 22 24  1  0
 24 25  1  0
 25 26  2  0
 26 27  1  0
 27 28  1  0
 28 29  2  0
 14 30  1  0
 30 31  2  0
 31 32  1  0
 32 33  2  0
 33 34  1  0
 34 35  2  0
 33 36  1  0
 36 37  1  0
 37 38  1  0
 38 39  1  0
 39 40  1  0
 40 41  1  0
 10  5  1  0
 21 16  1  0
 29 25  1  0
 35 30  1  0
 41 36  1  0
M  END
$$$$
