
     RDKit          3D

 41 45  0  0  0  0  0  0  0  0999 V2000
  -16.9491  -10.7375  -15.7797 C   0  0  0  0  0  0  0  0  0  0  0  0
  -15.6038   -9.8755  -16.5963 S   0  0  0  0  0  6  0  0  0  0  0  0
  -16.2406   -9.0274  -17.6662 O   0  0  0  0  0  0  0  0  0  0  0  0
  -14.6937  -10.8437  -17.2725 O   0  0  0  0  0  0  0  0  0  0  0  0
  -14.8161   -8.9038  -15.4022 C   0  0  0  0  0  0  0  0  0  0  0  0
  -14.8338   -7.5146  -15.4376 C   0  0  0  0  0  0  0  0  0  0  0  0
  -14.1946   -6.7517  -14.4908 C   0  0  0  0  0  0  0  0  0  0  0  0
  -13.5112   -7.4075  -13.4681 C   0  0  0  0  0  0  0  0  0  0  0  0
  -13.4994   -8.7572  -13.4400 C   0  0  0  0  0  0  0  0  0  0  0  0
  -14.1266   -9.5255  -14.3691 C   0  0  0  0  0  0  0  0  0  0  0  0
  -12.7787   -9.4406  -12.3840 N   0  0  0  0  0  0  0  0  0  0  0  0
  -12.2865  -10.7410  -12.6128 C   0  0  0  0  0  0  0  0  0  0  0  0
  -12.6048  -11.2132  -13.7536 O   0  0  0  0  0  0  0  0  0  0  0  0
  -11.5303  -11.4508  -11.6851 N   0  0  0  0  0  0  0  0  0  0  0  0
  -10.8276  -12.6468  -12.1423 C   0  0  0  0  0  0  0  0  0  0  0  0
   -9.5752  -12.2603  -12.8986 C   0  0  0  0  0  0  0  0  0  0  0  0
   -8.5022  -11.7479  -12.2188 C   0  0  0  0  0  0  0  0  0  0  0  0
   -7.3654  -11.4016  -12.9311 C   0  0  0  0  0  0  0  0  0  0  0  0
   -7.2318  -11.5373  -14.2835 C   0  0  0  0  0  0  0  0  0  0  0  0
   -8.3245  -12.0584  -14.9547 C   0  0  0  0  0  0  0  0  0  0  0  0
   -9.4870  -12.4152  -14.2578 C   0  0  0  0  0  0  0  0  0  0  0  0
   -6.0133  -11.1499  -14.9832 C   0  0  0  0  0  0  0  0  0  0  0  0
   -5.8085  -11.6562  -16.1397 O   0  0  0  0  0  0  0  0  0  0  0  0
   -5.0446  -10.2638  -14.4829 N   0  0  0  0  0  0  0  0  0  0  0  0
   -3.8905   -9.8261  -15.1736 C   0  0  0  0  0  0  0  0  0  0  0  0
   -3.1446   -8.7406  -14.9508 N   0  0  0  0  0  0  0  0  0  0  0  0
   -2.1699   -8.7531  -15.8458 N   0  0  0  0  0  0  0  0  0  0  0  0
   -2.2690   -9.7973  -16.6208 N   0  0  0  0  0  0  0  0  0  0  0  0
   -3.3293  -10.4630  -16.2102 N   0  0  0  0  0  0  0  0  0  0  0  0
  -11.4715  -11.0763  -10.3056 C   0  0  0  0  0  0  0  0  0  0  0  0
  -10.9559   -9.8350   -9.9303 C   0  0  0  0  0  0  0  0  0  0  0  0
  -10.8881   -9.4587   -8.6085 C   0  0  0  0  0  0  0  0  0  0  0  0
  -11.3097  -10.2523   -7.5943 C   0  0  0  0  0  0  0  0  0  0  0  0
  -11.8214  -11.4799   -7.9363 C   0  0  0  0  0  0  0  0  0  0  0  0
  -11.8993  -11.8853   -9.2896 C   0  0  0  0  0  0  0  0  0  0  0  0
  -11.2341   -9.8159   -6.2013 C   0  0  0  0  0  0  0  0  0  0  0  0
  -10.4453  -10.7892   -5.3371 C   0  0  0  0  0  0  0  0  0  0  0  0
  -10.9370  -10.6645   -3.9228 C   0  0  0  0  0  0  0  0  0  0  0  0
  -11.2058   -9.1840   -3.6623 C   0  0  0  0  0  0  0  0  0  0  0  0
  -10.2839   -8.3257   -4.5203 C   0  0  0  0  0  0  0  0  0  0  0  0
  -10.6111   -8.4623   -6.0017 C   0  0  0  0  0  0  0  0  0  0  0  0
  1  2  1  0
  2  3  2  0
  2  4  2  0
  2  5  1  0
  5  6  2  0
  6  7  1  0
  7  8  2  0
  8  9  1  0
  9 10  2  0
  9 11  1  0
 11 12  1  0
 12 13  2  0
 12 14  1  0
 14 15  1  0
 15 16  1  0
 16 17  2  0
 17 18  1  0
 18 19  2  0
 19 20  1  0
 20 21  2  0
 19 22  1  0
 22 23  2  0
 22 24  1  0
 24 25  1  0
 25 26  2  0
 26 27  1  0
 27 28  1  0
 28 29  2  0
 14 30  1  0
 30 31  2  0
 31 32  1  0
 32 33  2  0
 33 34  1  0
 34 35  2  0
 33 36  1  0
 36 37  1  0
 37 38  1  0
 38 39  1  0
 39 40  1  0
 40 41  1  0
 10  5  1  0
 21 16  1  0
 29 25  1  0
 35 30  1  0
 41 36  1  0
M  END
$$$$
