
     RDKit          3D

 41 45  0  0  0  0  0  0  0  0999 V2000
  -17.3848   -7.2606  -13.6244 C   0  0  0  0  0  0  0  0  0  0  0  0
  -16.3206   -6.8389  -15.0062 S   0  0  0  0  0  6  0  0  0  0  0  0
  -15.5084   -5.6513  -14.5595 O   0  0  0  0  0  0  0  0  0  0  0  0
  -17.1317   -6.4122  -16.1822 O   0  0  0  0  0  0  0  0  0  0  0  0
  -15.3168   -8.2116  -15.3195 C   0  0  0  0  0  0  0  0  0  0  0  0
  -15.3536   -8.9064  -16.5226 C   0  0  0  0  0  0  0  0  0  0  0  0
  -14.5605  -10.0032  -16.7571 C   0  0  0  0  0  0  0  0  0  0  0  0
  -13.6965  -10.4197  -15.7457 C   0  0  0  0  0  0  0  0  0  0  0  0
  -13.6658   -9.7392  -14.5802 C   0  0  0  0  0  0  0  0  0  0  0  0
  -14.4438   -8.6526  -14.3332 C   0  0  0  0  0  0  0  0  0  0  0  0
  -12.7765  -10.1785  -13.5229 N   0  0  0  0  0  0  0  0  0  0  0  0
  -11.9600  -11.3078  -13.7316 C   0  0  0  0  0  0  0  0  0  0  0  0
  -12.1207  -11.8492  -14.8747 O   0  0  0  0  0  0  0  0  0  0  0  0
  -11.0659  -11.7955  -12.7833 N   0  0  0  0  0  0  0  0  0  0  0  0
  -10.0648  -12.7661  -13.2180 C   0  0  0  0  0  0  0  0  0  0  0  0
   -8.8327  -12.0526  -13.7305 C   0  0  0  0  0  0  0  0  0  0  0  0
   -7.6586  -12.1370  -13.0304 C   0  0  0  0  0  0  0  0  0  0  0  0
   -6.5426  -11.4763  -13.5184 C   0  0  0  0  0  0  0  0  0  0  0  0
   -6.5253  -10.7364  -14.6662 C   0  0  0  0  0  0  0  0  0  0  0  0
   -7.7194  -10.6633  -15.3624 C   0  0  0  0  0  0  0  0  0  0  0  0
   -8.8632  -11.3209  -14.8894 C   0  0  0  0  0  0  0  0  0  0  0  0
   -5.3226  -10.0560  -15.1298 C   0  0  0  0  0  0  0  0  0  0  0  0
   -5.4132   -9.3536  -16.1948 O   0  0  0  0  0  0  0  0  0  0  0  0
   -4.0696  -10.1148  -14.4971 N   0  0  0  0  0  0  0  0  0  0  0  0
   -2.8599   -9.5912  -15.0101 C   0  0  0  0  0  0  0  0  0  0  0  0
   -1.6364  -10.1262  -14.9752 N   0  0  0  0  0  0  0  0  0  0  0  0
   -0.8267   -9.2748  -15.5842 N   0  0  0  0  0  0  0  0  0  0  0  0
   -1.4858   -8.2292  -16.0005 N   0  0  0  0  0  0  0  0  0  0  0  0
   -2.7412   -8.4194  -15.6487 N   0  0  0  0  0  0  0  0  0  0  0  0
  -11.1386  -11.4190  -11.4050 C   0  0  0  0  0  0  0  0  0  0  0  0
  -12.3729  -11.1706  -10.8032 C   0  0  0  0  0  0  0  0  0  0  0  0
  -12.4626  -10.8041   -9.4798 C   0  0  0  0  0  0  0  0  0  0  0  0
  -11.3780  -10.6607   -8.6803 C   0  0  0  0  0  0  0  0  0  0  0  0
  -10.1505  -10.8991   -9.2481 C   0  0  0  0  0  0  0  0  0  0  0  0
  -10.0375  -11.2765  -10.6070 C   0  0  0  0  0  0  0  0  0  0  0  0
  -11.5103  -10.2815   -7.2748 C   0  0  0  0  0  0  0  0  0  0  0  0
  -10.6929  -11.1809   -6.3587 C   0  0  0  0  0  0  0  0  0  0  0  0
  -11.3441  -11.1858   -5.0045 C   0  0  0  0  0  0  0  0  0  0  0  0
  -11.8368   -9.7667   -4.7303 C   0  0  0  0  0  0  0  0  0  0  0  0
  -10.9539   -8.7569   -5.4540 C   0  0  0  0  0  0  0  0  0  0  0  0
  -11.1008   -8.8683   -6.9660 C   0  0  0  0  0  0  0  0  0  0  0  0
  1  2  1  0
  2  3  2  0
  2  4  2  0
  2  5  1  0
  5  6  2  0
  6  7  1  0
  7  8  2  0
  8  9  1  0
  9 10  2  0
  9 11  1  0
 11 12  1  0
 12 13  2  0
 12 14  1  0
 14 15  1  0
 15 16  1  0
 16 17  2  0
 17 18  1  0
 18 19  2  0
 19 20  1  0
 20 21  2  0
 19 22  1  0
 22 23  2  0
 22 24  1  0
 24 25  1  0
 25 26  2  0
 26 27  1  0
 27 28  1  0
 28 29  2  0
 14 30  1  0
 30 31  2  0
 31 32  1  0
 32 33  2  0
 33 34  1  0
 34 35  2  0
 33 36  1  0
 36 37  1  0
 37 38  1  0
 38 39  1  0
 39 40  1  0
 40 41  1  0
 10  5  1  0
 21 16  1  0
 29 25  1  0
 35 30  1  0
 41 36  1  0
M  END
$$$$
