
     RDKit          3D

 41 45  0  0  0  0  0  0  0  0999 V2000
  -17.4251  -11.8768  -18.3323 C   0  0  0  0  0  0  0  0  0  0  0  0
  -15.8273  -11.4678  -17.6257 S   0  0  0  0  0  6  0  0  0  0  0  0
  -14.8059  -11.8094  -18.6790 O   0  0  0  0  0  0  0  0  0  0  0  0
  -15.5467  -12.3193  -16.4345 O   0  0  0  0  0  0  0  0  0  0  0  0
  -15.8374   -9.7738  -17.2783 C   0  0  0  0  0  0  0  0  0  0  0  0
  -16.5140   -8.8521  -18.0683 C   0  0  0  0  0  0  0  0  0  0  0  0
  -16.5058   -7.5068  -17.7905 C   0  0  0  0  0  0  0  0  0  0  0  0
  -15.7915   -7.0685  -16.6767 C   0  0  0  0  0  0  0  0  0  0  0  0
  -15.1376   -7.9700  -15.9136 C   0  0  0  0  0  0  0  0  0  0  0  0
  -15.1362   -9.3036  -16.1753 C   0  0  0  0  0  0  0  0  0  0  0  0
  -14.3842   -7.5142  -14.7620 N   0  0  0  0  0  0  0  0  0  0  0  0
  -13.7968   -8.4627  -13.9012 C   0  0  0  0  0  0  0  0  0  0  0  0
  -14.1156   -9.6664  -14.1750 O   0  0  0  0  0  0  0  0  0  0  0  0
  -12.9535   -8.1253  -12.8469 N   0  0  0  0  0  0  0  0  0  0  0  0
  -12.9538   -6.7403  -12.3830 C   0  0  0  0  0  0  0  0  0  0  0  0
  -13.8023   -6.6064  -11.1372 C   0  0  0  0  0  0  0  0  0  0  0  0
  -13.7952   -5.4312  -10.4337 C   0  0  0  0  0  0  0  0  0  0  0  0
  -14.5803   -5.3303   -9.2964 C   0  0  0  0  0  0  0  0  0  0  0  0
  -15.3759   -6.3318   -8.8175 C   0  0  0  0  0  0  0  0  0  0  0  0
  -15.3727   -7.5117   -9.5413 C   0  0  0  0  0  0  0  0  0  0  0  0
  -14.5863   -7.6400  -10.6943 C   0  0  0  0  0  0  0  0  0  0  0  0
  -16.1771   -6.1729   -7.6104 C   0  0  0  0  0  0  0  0  0  0  0  0
  -16.9983   -7.1087   -7.3177 O   0  0  0  0  0  0  0  0  0  0  0  0
  -16.1179   -5.0683   -6.7443 N   0  0  0  0  0  0  0  0  0  0  0  0
  -16.8484   -4.9214   -5.5420 C   0  0  0  0  0  0  0  0  0  0  0  0
  -18.1722   -4.9242   -5.3628 N   0  0  0  0  0  0  0  0  0  0  0  0
  -18.3854   -4.7587   -4.0673 N   0  0  0  0  0  0  0  0  0  0  0  0
  -17.2559   -4.6524   -3.4240 N   0  0  0  0  0  0  0  0  0  0  0  0
  -16.3040   -4.7522   -4.3296 N   0  0  0  0  0  0  0  0  0  0  0  0
  -12.0601   -9.0726  -12.2544 C   0  0  0  0  0  0  0  0  0  0  0  0
  -12.1758  -10.4326  -12.5450 C   0  0  0  0  0  0  0  0  0  0  0  0
  -11.3280  -11.3589  -11.9821 C   0  0  0  0  0  0  0  0  0  0  0  0
  -10.3376  -11.0229  -11.1205 C   0  0  0  0  0  0  0  0  0  0  0  0
  -10.2022   -9.6904  -10.8173 C   0  0  0  0  0  0  0  0  0  0  0  0
  -11.0640   -8.7228  -11.3853 C   0  0  0  0  0  0  0  0  0  0  0  0
   -9.4469  -12.0318  -10.5502 C   0  0  0  0  0  0  0  0  0  0  0  0
   -9.7224  -12.2709   -9.0726 C   0  0  0  0  0  0  0  0  0  0  0  0
   -8.4535  -12.7588   -8.4325 C   0  0  0  0  0  0  0  0  0  0  0  0
   -7.7750  -13.7006   -9.4248 C   0  0  0  0  0  0  0  0  0  0  0  0
   -8.8206  -14.3763  -10.3040 C   0  0  0  0  0  0  0  0  0  0  0  0
   -9.5107  -13.3754  -11.2217 C   0  0  0  0  0  0  0  0  0  0  0  0
  1  2  1  0
  2  3  2  0
  2  4  2  0
  2  5  1  0
  5  6  2  0
  6  7  1  0
  7  8  2  0
  8  9  1  0
  9 10  2  0
  9 11  1  0
 11 12  1  0
 12 13  2  0
 12 14  1  0
 14 15  1  0
 15 16  1  0
 16 17  2  0
 17 18  1  0
 18 19  2  0
 19 20  1  0
 20 21  2  0
 19 22  1  0
 22 23  2  0
 22 24  1  0
 24 25  1  0
 25 26  2  0
 26 27  1  0
 27 28  1  0
 28 29  2  0
 14 30  1  0
 30 31  2  0
 31 32  1  0
 32 33  2  0
 33 34  1  0
 34 35  2  0
 33 36  1  0
 36 37  1  0
 37 38  1  0
 38 39  1  0
 39 40  1  0
 40 41  1  0
 10  5  1  0
 21 16  1  0
 29 25  1  0
 35 30  1  0
 41 36  1  0
M  END
$$$$
