
     RDKit          3D

 41 45  0  0  0  0  0  0  0  0999 V2000
  -17.3984   -7.4627  -16.2958 C   0  0  0  0  0  0  0  0  0  0  0  0
  -16.9011   -8.8874  -17.2667 S   0  0  0  0  0  6  0  0  0  0  0  0
  -15.7975   -8.4092  -18.1738 O   0  0  0  0  0  0  0  0  0  0  0  0
  -18.0240   -9.3515  -18.1309 O   0  0  0  0  0  0  0  0  0  0  0  0
  -16.3361  -10.0910  -16.1610 C   0  0  0  0  0  0  0  0  0  0  0  0
  -16.4573  -11.4527  -16.4112 C   0  0  0  0  0  0  0  0  0  0  0  0
  -16.0160  -12.4009  -15.5207 C   0  0  0  0  0  0  0  0  0  0  0  0
  -15.4299  -11.9669  -14.3328 C   0  0  0  0  0  0  0  0  0  0  0  0
  -15.3149  -10.6425  -14.0974 C   0  0  0  0  0  0  0  0  0  0  0  0
  -15.7464   -9.6926  -14.9682 C   0  0  0  0  0  0  0  0  0  0  0  0
  -14.7167  -10.1897  -12.8569 N   0  0  0  0  0  0  0  0  0  0  0  0
  -14.4154   -8.8228  -12.6937 C   0  0  0  0  0  0  0  0  0  0  0  0
  -14.9518   -8.0737  -13.5749 O   0  0  0  0  0  0  0  0  0  0  0  0
  -13.6055   -8.3308  -11.6746 N   0  0  0  0  0  0  0  0  0  0  0  0
  -13.4619   -6.8826  -11.5499 C   0  0  0  0  0  0  0  0  0  0  0  0
  -14.0865   -6.4046  -10.2572 C   0  0  0  0  0  0  0  0  0  0  0  0
  -14.7164   -7.3010   -9.4351 C   0  0  0  0  0  0  0  0  0  0  0  0
  -15.2807   -6.8416   -8.2560 C   0  0  0  0  0  0  0  0  0  0  0  0
  -15.2534   -5.5397   -7.8442 C   0  0  0  0  0  0  0  0  0  0  0  0
  -14.6113   -4.6476   -8.6855 C   0  0  0  0  0  0  0  0  0  0  0  0
  -14.0337   -5.0864   -9.8848 C   0  0  0  0  0  0  0  0  0  0  0  0
  -15.8701   -5.1103   -6.5954 C   0  0  0  0  0  0  0  0  0  0  0  0
  -16.7492   -4.1834   -6.6574 O   0  0  0  0  0  0  0  0  0  0  0  0
  -15.5709   -5.6356   -5.3272 N   0  0  0  0  0  0  0  0  0  0  0  0
  -16.1948   -5.2672   -4.1124 C   0  0  0  0  0  0  0  0  0  0  0  0
  -17.4759   -5.3982   -3.7577 N   0  0  0  0  0  0  0  0  0  0  0  0
  -17.5862   -4.9175   -2.5295 N   0  0  0  0  0  0  0  0  0  0  0  0
  -16.4325   -4.4908   -2.0962 N   0  0  0  0  0  0  0  0  0  0  0  0
  -15.5702   -4.7044   -3.0693 N   0  0  0  0  0  0  0  0  0  0  0  0
  -12.8776   -9.1949  -10.7972 C   0  0  0  0  0  0  0  0  0  0  0  0
  -11.4835   -9.1489  -10.7541 C   0  0  0  0  0  0  0  0  0  0  0  0
  -10.7661   -9.9747   -9.9193 C   0  0  0  0  0  0  0  0  0  0  0  0
  -11.3514  -10.8758   -9.0937 C   0  0  0  0  0  0  0  0  0  0  0  0
  -12.7229  -10.9417   -9.1167 C   0  0  0  0  0  0  0  0  0  0  0  0
  -13.4783  -10.1015   -9.9683 C   0  0  0  0  0  0  0  0  0  0  0  0
  -10.5591  -11.7295   -8.2105 C   0  0  0  0  0  0  0  0  0  0  0  0
   -9.1352  -11.9129   -8.7156 C   0  0  0  0  0  0  0  0  0  0  0  0
   -8.6195  -13.2253   -8.1965 C   0  0  0  0  0  0  0  0  0  0  0  0
   -9.1363  -13.3856   -6.7686 C   0  0  0  0  0  0  0  0  0  0  0  0
   -9.3282  -12.0176   -6.1245 C   0  0  0  0  0  0  0  0  0  0  0  0
  -10.4520  -11.2372   -6.7940 C   0  0  0  0  0  0  0  0  0  0  0  0
  1  2  1  0
  2  3  2  0
  2  4  2  0
  2  5  1  0
  5  6  2  0
  6  7  1  0
  7  8  2  0
  8  9  1  0
  9 10  2  0
  9 11  1  0
 11 12  1  0
 12 13  2  0
 12 14  1  0
 14 15  1  0
 15 16  1  0
 16 17  2  0
 17 18  1  0
 18 19  2  0
 19 20  1  0
 20 21  2  0
 19 22  1  0
 22 23  2  0
 22 24  1  0
 24 25  1  0
 25 26  2  0
 26 27  1  0
 27 28  1  0
 28 29  2  0
 14 30  1  0
 30 31  2  0
 31 32  1  0
 32 33  2  0
 33 34  1  0
 34 35  2  0
 33 36  1  0
 36 37  1  0
 37 38  1  0
 38 39  1  0
 39 40  1  0
 40 41  1  0
 10  5  1  0
 21 16  1  0
 29 25  1  0
 35 30  1  0
 41 36  1  0
M  END
$$$$
