
     RDKit          3D

 41 45  0  0  0  0  0  0  0  0999 V2000
  -13.6728   -4.4344  -15.3455 C   0  0  0  0  0  0  0  0  0  0  0  0
  -14.0954   -6.1551  -15.6288 S   0  0  0  0  0  6  0  0  0  0  0  0
  -12.8026   -6.8522  -15.9635 O   0  0  0  0  0  0  0  0  0  0  0  0
  -14.9961   -6.2869  -16.8096 O   0  0  0  0  0  0  0  0  0  0  0  0
  -14.7826   -6.7635  -14.1632 C   0  0  0  0  0  0  0  0  0  0  0  0
  -16.1011   -6.5200  -13.7975 C   0  0  0  0  0  0  0  0  0  0  0  0
  -16.6340   -6.9978  -12.6250 C   0  0  0  0  0  0  0  0  0  0  0  0
  -15.8128   -7.7495  -11.7864 C   0  0  0  0  0  0  0  0  0  0  0  0
  -14.5334   -7.9826  -12.1489 C   0  0  0  0  0  0  0  0  0  0  0  0
  -13.9918   -7.5169  -13.3051 C   0  0  0  0  0  0  0  0  0  0  0  0
  -13.6746   -8.7539  -11.2719 N   0  0  0  0  0  0  0  0  0  0  0  0
  -12.2903   -8.8049  -11.5301 C   0  0  0  0  0  0  0  0  0  0  0  0
  -11.9460   -8.1846  -12.5895 O   0  0  0  0  0  0  0  0  0  0  0  0
  -11.3805   -9.4718  -10.7152 N   0  0  0  0  0  0  0  0  0  0  0  0
   -9.9566   -9.2339  -10.9369 C   0  0  0  0  0  0  0  0  0  0  0  0
   -9.3516  -10.3773  -11.7220 C   0  0  0  0  0  0  0  0  0  0  0  0
   -9.8550  -10.6957  -12.9554 C   0  0  0  0  0  0  0  0  0  0  0  0
   -9.2852  -11.7458  -13.6571 C   0  0  0  0  0  0  0  0  0  0  0  0
   -8.2397  -12.4987  -13.2039 C   0  0  0  0  0  0  0  0  0  0  0  0
   -7.7419  -12.1624  -11.9569 C   0  0  0  0  0  0  0  0  0  0  0  0
   -8.3014  -11.1055  -11.2259 C   0  0  0  0  0  0  0  0  0  0  0  0
   -7.6833  -13.5979  -13.9826 C   0  0  0  0  0  0  0  0  0  0  0  0
   -6.7845  -14.3200  -13.4288 O   0  0  0  0  0  0  0  0  0  0  0  0
   -8.0572  -13.9237  -15.2970 N   0  0  0  0  0  0  0  0  0  0  0  0
   -7.5647  -15.0157  -16.0492 C   0  0  0  0  0  0  0  0  0  0  0  0
   -7.8313  -15.3459  -17.3158 N   0  0  0  0  0  0  0  0  0  0  0  0
   -7.1370  -16.4406  -17.5824 N   0  0  0  0  0  0  0  0  0  0  0  0
   -6.4459  -16.8131  -16.5409 N   0  0  0  0  0  0  0  0  0  0  0  0
   -6.7063  -15.9370  -15.5919 N   0  0  0  0  0  0  0  0  0  0  0  0
  -11.7972  -10.4119   -9.7207 C   0  0  0  0  0  0  0  0  0  0  0  0
  -12.6720  -11.4486  -10.0487 C   0  0  0  0  0  0  0  0  0  0  0  0
  -13.0866  -12.3602   -9.1050 C   0  0  0  0  0  0  0  0  0  0  0  0
  -12.6823  -12.3176   -7.8124 C   0  0  0  0  0  0  0  0  0  0  0  0
  -11.8210  -11.3068   -7.4628 C   0  0  0  0  0  0  0  0  0  0  0  0
  -11.3835  -10.3595   -8.4184 C   0  0  0  0  0  0  0  0  0  0  0  0
  -13.1331  -13.3098   -6.8383 C   0  0  0  0  0  0  0  0  0  0  0  0
  -13.9216  -14.4366   -7.4900 C   0  0  0  0  0  0  0  0  0  0  0  0
  -14.8601  -15.0060   -6.4639 C   0  0  0  0  0  0  0  0  0  0  0  0
  -14.1171  -15.0303   -5.1300 C   0  0  0  0  0  0  0  0  0  0  0  0
  -12.6198  -15.1868   -5.3676 C   0  0  0  0  0  0  0  0  0  0  0  0
  -12.0304  -13.9584   -6.0485 C   0  0  0  0  0  0  0  0  0  0  0  0
  1  2  1  0
  2  3  2  0
  2  4  2  0
  2  5  1  0
  5  6  2  0
  6  7  1  0
  7  8  2  0
  8  9  1  0
  9 10  2  0
  9 11  1  0
 11 12  1  0
 12 13  2  0
 12 14  1  0
 14 15  1  0
 15 16  1  0
 16 17  2  0
 17 18  1  0
 18 19  2  0
 19 20  1  0
 20 21  2  0
 19 22  1  0
 22 23  2  0
 22 24  1  0
 24 25  1  0
 25 26  2  0
 26 27  1  0
 27 28  1  0
 28 29  2  0
 14 30  1  0
 30 31  2  0
 31 32  1  0
 32 33  2  0
 33 34  1  0
 34 35  2  0
 33 36  1  0
 36 37  1  0
 37 38  1  0
 38 39  1  0
 39 40  1  0
 40 41  1  0
 10  5  1  0
 21 16  1  0
 29 25  1  0
 35 30  1  0
 41 36  1  0
M  END
$$$$
