
     RDKit          3D

 41 45  0  0  0  0  0  0  0  0999 V2000
  -15.8720   -7.8535  -18.6183 C   0  0  0  0  0  0  0  0  0  0  0  0
  -14.9568   -8.9032  -17.4869 S   0  0  0  0  0  6  0  0  0  0  0  0
  -13.6406   -9.1937  -18.1598 O   0  0  0  0  0  0  0  0  0  0  0  0
  -15.6593  -10.2039  -17.2930 O   0  0  0  0  0  0  0  0  0  0  0  0
  -14.7365   -8.0109  -16.0221 C   0  0  0  0  0  0  0  0  0  0  0  0
  -14.9228   -6.6356  -15.9486 C   0  0  0  0  0  0  0  0  0  0  0  0
  -14.7334   -5.9342  -14.7828 C   0  0  0  0  0  0  0  0  0  0  0  0
  -14.3421   -6.6394  -13.6459 C   0  0  0  0  0  0  0  0  0  0  0  0
  -14.1640   -7.9753  -13.7250 C   0  0  0  0  0  0  0  0  0  0  0  0
  -14.3474   -8.6831  -14.8706 C   0  0  0  0  0  0  0  0  0  0  0  0
  -13.7451   -8.7082  -12.5464 N   0  0  0  0  0  0  0  0  0  0  0  0
  -13.3115  -10.0423  -12.6803 C   0  0  0  0  0  0  0  0  0  0  0  0
  -13.3659  -10.4785  -13.8771 O   0  0  0  0  0  0  0  0  0  0  0  0
  -12.8708  -10.8179  -11.6123 N   0  0  0  0  0  0  0  0  0  0  0  0
  -12.2419  -12.1023  -11.9093 C   0  0  0  0  0  0  0  0  0  0  0  0
  -10.7602  -11.9149  -12.1530 C   0  0  0  0  0  0  0  0  0  0  0  0
   -9.8587  -12.7181  -11.5066 C   0  0  0  0  0  0  0  0  0  0  0  0
   -8.5068  -12.5296  -11.7452 C   0  0  0  0  0  0  0  0  0  0  0  0
   -7.9977  -11.5878  -12.5931 C   0  0  0  0  0  0  0  0  0  0  0  0
   -8.9224  -10.7860  -13.2396 C   0  0  0  0  0  0  0  0  0  0  0  0
  -10.2954  -10.9552  -13.0145 C   0  0  0  0  0  0  0  0  0  0  0  0
   -6.5639  -11.4289  -12.8015 C   0  0  0  0  0  0  0  0  0  0  0  0
   -5.7835  -12.2319  -12.1835 O   0  0  0  0  0  0  0  0  0  0  0  0
   -5.9730  -10.4587  -13.6281 N   0  0  0  0  0  0  0  0  0  0  0  0
   -4.6466  -10.4884  -14.1184 C   0  0  0  0  0  0  0  0  0  0  0  0
   -3.5091  -10.6671  -13.4413 N   0  0  0  0  0  0  0  0  0  0  0  0
   -2.5243  -10.6212  -14.3242 N   0  0  0  0  0  0  0  0  0  0  0  0
   -2.9913  -10.4221  -15.5256 N   0  0  0  0  0  0  0  0  0  0  0  0
   -4.3007  -10.3395  -15.4042 N   0  0  0  0  0  0  0  0  0  0  0  0
  -13.0670  -10.4209  -10.2520 C   0  0  0  0  0  0  0  0  0  0  0  0
  -14.2485   -9.7888   -9.8623 C   0  0  0  0  0  0  0  0  0  0  0  0
  -14.4537   -9.3965   -8.5594 C   0  0  0  0  0  0  0  0  0  0  0  0
  -13.5395   -9.5924   -7.5786 C   0  0  0  0  0  0  0  0  0  0  0  0
  -12.3673  -10.2124   -7.9355 C   0  0  0  0  0  0  0  0  0  0  0  0
  -12.1373  -10.6229   -9.2698 C   0  0  0  0  0  0  0  0  0  0  0  0
  -13.7952   -9.1737   -6.2017 C   0  0  0  0  0  0  0  0  0  0  0  0
  -15.1606   -9.6295   -5.7076 C   0  0  0  0  0  0  0  0  0  0  0  0
  -15.6140   -8.6763   -4.6382 C   0  0  0  0  0  0  0  0  0  0  0  0
  -14.3884   -8.3107   -3.8038 C   0  0  0  0  0  0  0  0  0  0  0  0
  -13.3866   -9.4593   -3.8140 C   0  0  0  0  0  0  0  0  0  0  0  0
  -12.7892   -9.6678   -5.1996 C   0  0  0  0  0  0  0  0  0  0  0  0
  1  2  1  0
  2  3  2  0
  2  4  2  0
  2  5  1  0
  5  6  2  0
  6  7  1  0
  7  8  2  0
  8  9  1  0
  9 10  2  0
  9 11  1  0
 11 12  1  0
 12 13  2  0
 12 14  1  0
 14 15  1  0
 15 16  1  0
 16 17  2  0
 17 18  1  0
 18 19  2  0
 19 20  1  0
 20 21  2  0
 19 22  1  0
 22 23  2  0
 22 24  1  0
 24 25  1  0
 25 26  2  0
 26 27  1  0
 27 28  1  0
 28 29  2  0
 14 30  1  0
 30 31  2  0
 31 32  1  0
 32 33  2  0
 33 34  1  0
 34 35  2  0
 33 36  1  0
 36 37  1  0
 37 38  1  0
 38 39  1  0
 39 40  1  0
 40 41  1  0
 10  5  1  0
 21 16  1  0
 29 25  1  0
 35 30  1  0
 41 36  1  0
M  END
$$$$
