
     RDKit          3D

 41 45  0  0  0  0  0  0  0  0999 V2000
  -17.7801  -10.1712   -0.6742 C   0  0  0  0  0  0  0  0  0  0  0  0
  -17.4584   -8.4068   -0.7303 S   0  0  0  0  0  6  0  0  0  0  0  0
  -16.8302   -8.0553    0.5931 O   0  0  0  0  0  0  0  0  0  0  0  0
  -18.7345   -7.6437   -0.8391 O   0  0  0  0  0  0  0  0  0  0  0  0
  -16.3694   -8.1246   -2.0437 C   0  0  0  0  0  0  0  0  0  0  0  0
  -16.8011   -7.9907   -3.3580 C   0  0  0  0  0  0  0  0  0  0  0  0
  -15.9267   -7.7787   -4.3959 C   0  0  0  0  0  0  0  0  0  0  0  0
  -14.5660   -7.6974   -4.1047 C   0  0  0  0  0  0  0  0  0  0  0  0
  -14.1544   -7.8275   -2.8255 C   0  0  0  0  0  0  0  0  0  0  0  0
  -15.0069   -8.0375   -1.7882 C   0  0  0  0  0  0  0  0  0  0  0  0
  -12.7386   -7.7554   -2.5228 N   0  0  0  0  0  0  0  0  0  0  0  0
  -12.3152   -7.8142   -1.1801 C   0  0  0  0  0  0  0  0  0  0  0  0
  -13.2743   -7.7759   -0.3408 O   0  0  0  0  0  0  0  0  0  0  0  0
  -10.9797   -7.8996   -0.7984 N   0  0  0  0  0  0  0  0  0  0  0  0
  -10.6530   -7.6919    0.6100 C   0  0  0  0  0  0  0  0  0  0  0  0
  -10.3960   -6.2246    0.8762 C   0  0  0  0  0  0  0  0  0  0  0  0
  -11.4371   -5.3353    0.8407 C   0  0  0  0  0  0  0  0  0  0  0  0
  -11.1791   -3.9966    1.0882 C   0  0  0  0  0  0  0  0  0  0  0  0
   -9.9432   -3.4893    1.3720 C   0  0  0  0  0  0  0  0  0  0  0  0
   -8.9029   -4.4018    1.4059 C   0  0  0  0  0  0  0  0  0  0  0  0
   -9.1369   -5.7612    1.1575 C   0  0  0  0  0  0  0  0  0  0  0  0
   -9.7280   -2.0690    1.6179 C   0  0  0  0  0  0  0  0  0  0  0  0
  -10.7610   -1.3194    1.7001 O   0  0  0  0  0  0  0  0  0  0  0  0
   -8.4713   -1.4594    1.7693 N   0  0  0  0  0  0  0  0  0  0  0  0
   -8.2444   -0.0856    2.0183 C   0  0  0  0  0  0  0  0  0  0  0  0
   -7.0878    0.5425    2.2466 N   0  0  0  0  0  0  0  0  0  0  0  0
   -7.3730    1.8231    2.4203 N   0  0  0  0  0  0  0  0  0  0  0  0
   -8.6563    2.0284    2.3112 N   0  0  0  0  0  0  0  0  0  0  0  0
   -9.1988    0.8536    2.0630 N   0  0  0  0  0  0  0  0  0  0  0  0
   -9.9311   -8.1254   -1.7449 C   0  0  0  0  0  0  0  0  0  0  0  0
  -10.0369   -9.1484   -2.6881 C   0  0  0  0  0  0  0  0  0  0  0  0
   -9.0371   -9.3829   -3.6041 C   0  0  0  0  0  0  0  0  0  0  0  0
   -7.8984   -8.6503   -3.6552 C   0  0  0  0  0  0  0  0  0  0  0  0
   -7.7688   -7.6369   -2.7374 C   0  0  0  0  0  0  0  0  0  0  0  0
   -8.7853   -7.3802   -1.7874 C   0  0  0  0  0  0  0  0  0  0  0  0
   -6.8615   -8.9191   -4.6497 C   0  0  0  0  0  0  0  0  0  0  0  0
   -5.5764   -8.1574   -4.3589 C   0  0  0  0  0  0  0  0  0  0  0  0
   -4.8518   -7.9478   -5.6585 C   0  0  0  0  0  0  0  0  0  0  0  0
   -5.0215   -9.2202   -6.4855 C   0  0  0  0  0  0  0  0  0  0  0  0
   -5.1762  -10.4257   -5.5659 C   0  0  0  0  0  0  0  0  0  0  0  0
   -6.4813  -10.3675   -4.7827 C   0  0  0  0  0  0  0  0  0  0  0  0
  1  2  1  0
  2  3  2  0
  2  4  2  0
  2  5  1  0
  5  6  2  0
  6  7  1  0
  7  8  2  0
  8  9  1  0
  9 10  2  0
  9 11  1  0
 11 12  1  0
 12 13  2  0
 12 14  1  0
 14 15  1  0
 15 16  1  0
 16 17  2  0
 17 18  1  0
 18 19  2  0
 19 20  1  0
 20 21  2  0
 19 22  1  0
 22 23  2  0
 22 24  1  0
 24 25  1  0
 25 26  2  0
 26 27  1  0
 27 28  1  0
 28 29  2  0
 14 30  1  0
 30 31  2  0
 31 32  1  0
 32 33  2  0
 33 34  1  0
 34 35  2  0
 33 36  1  0
 36 37  1  0
 37 38  1  0
 38 39  1  0
 39 40  1  0
 40 41  1  0
 10  5  1  0
 21 16  1  0
 29 25  1  0
 35 30  1  0
 41 36  1  0
M  END
$$$$
