
     RDKit          3D

 41 45  0  0  0  0  0  0  0  0999 V2000
  -16.9432   -8.8164  -16.0980 C   0  0  0  0  0  0  0  0  0  0  0  0
  -15.1515   -8.7289  -16.1397 S   0  0  0  0  0  6  0  0  0  0  0  0
  -14.8087   -7.6910  -17.1763 O   0  0  0  0  0  0  0  0  0  0  0  0
  -14.5731  -10.0259  -16.5936 O   0  0  0  0  0  0  0  0  0  0  0  0
  -14.6236   -8.2497  -14.5642 C   0  0  0  0  0  0  0  0  0  0  0  0
  -15.0439   -7.0704  -13.9608 C   0  0  0  0  0  0  0  0  0  0  0  0
  -14.6091   -6.6929  -12.7137 C   0  0  0  0  0  0  0  0  0  0  0  0
  -13.7182   -7.5307  -12.0451 C   0  0  0  0  0  0  0  0  0  0  0  0
  -13.3152   -8.6751  -12.6373 C   0  0  0  0  0  0  0  0  0  0  0  0
  -13.7362   -9.0622  -13.8701 C   0  0  0  0  0  0  0  0  0  0  0  0
  -12.3790   -9.5414  -11.9483 N   0  0  0  0  0  0  0  0  0  0  0  0
  -11.8772  -10.6806  -12.6087 C   0  0  0  0  0  0  0  0  0  0  0  0
  -12.3598  -10.8466  -13.7771 O   0  0  0  0  0  0  0  0  0  0  0  0
  -10.9486  -11.5496  -12.0439 N   0  0  0  0  0  0  0  0  0  0  0  0
  -10.3361  -12.5562  -12.9069 C   0  0  0  0  0  0  0  0  0  0  0  0
   -9.0065  -12.0577  -13.4296 C   0  0  0  0  0  0  0  0  0  0  0  0
   -8.7286  -10.7166  -13.4099 C   0  0  0  0  0  0  0  0  0  0  0  0
   -7.5046  -10.2823  -13.8928 C   0  0  0  0  0  0  0  0  0  0  0  0
   -6.5371  -11.1060  -14.3935 C   0  0  0  0  0  0  0  0  0  0  0  0
   -6.8333  -12.4580  -14.4042 C   0  0  0  0  0  0  0  0  0  0  0  0
   -8.0648  -12.9231  -13.9231 C   0  0  0  0  0  0  0  0  0  0  0  0
   -5.2683  -10.5932  -14.8951 C   0  0  0  0  0  0  0  0  0  0  0  0
   -5.0510   -9.3379  -14.7817 O   0  0  0  0  0  0  0  0  0  0  0  0
   -4.2660  -11.3727  -15.4963 N   0  0  0  0  0  0  0  0  0  0  0  0
   -3.0357  -10.8902  -16.0006 C   0  0  0  0  0  0  0  0  0  0  0  0
   -2.0291  -11.5779  -16.5467 N   0  0  0  0  0  0  0  0  0  0  0  0
   -1.0944  -10.6992  -16.8716 N   0  0  0  0  0  0  0  0  0  0  0  0
   -1.4679   -9.4905  -16.5548 N   0  0  0  0  0  0  0  0  0  0  0  0
   -2.6655   -9.6027  -16.0169 N   0  0  0  0  0  0  0  0  0  0  0  0
  -10.6274  -11.5184  -10.6502 C   0  0  0  0  0  0  0  0  0  0  0  0
  -11.0475  -12.5454   -9.8037 C   0  0  0  0  0  0  0  0  0  0  0  0
  -10.7511  -12.5310   -8.4600 C   0  0  0  0  0  0  0  0  0  0  0  0
  -10.0428  -11.5363   -7.8727 C   0  0  0  0  0  0  0  0  0  0  0  0
   -9.6174  -10.5128   -8.6835 C   0  0  0  0  0  0  0  0  0  0  0  0
   -9.9122  -10.5092  -10.0673 C   0  0  0  0  0  0  0  0  0  0  0  0
   -9.7354  -11.5587   -6.4439 C   0  0  0  0  0  0  0  0  0  0  0  0
  -10.9705  -11.8248   -5.5954 C   0  0  0  0  0  0  0  0  0  0  0  0
  -10.7505  -11.2100   -4.2421 C   0  0  0  0  0  0  0  0  0  0  0  0
   -9.2880  -11.4412   -3.8685 C   0  0  0  0  0  0  0  0  0  0  0  0
   -8.7757  -12.7180   -4.5244 C   0  0  0  0  0  0  0  0  0  0  0  0
   -8.7088  -12.5801   -6.0398 C   0  0  0  0  0  0  0  0  0  0  0  0
  1  2  1  0
  2  3  2  0
  2  4  2  0
  2  5  1  0
  5  6  2  0
  6  7  1  0
  7  8  2  0
  8  9  1  0
  9 10  2  0
  9 11  1  0
 11 12  1  0
 12 13  2  0
 12 14  1  0
 14 15  1  0
 15 16  1  0
 16 17  2  0
 17 18  1  0
 18 19  2  0
 19 20  1  0
 20 21  2  0
 19 22  1  0
 22 23  2  0
 22 24  1  0
 24 25  1  0
 25 26  2  0
 26 27  1  0
 27 28  1  0
 28 29  2  0
 14 30  1  0
 30 31  2  0
 31 32  1  0
 32 33  2  0
 33 34  1  0
 34 35  2  0
 33 36  1  0
 36 37  1  0
 37 38  1  0
 38 39  1  0
 39 40  1  0
 40 41  1  0
 10  5  1  0
 21 16  1  0
 29 25  1  0
 35 30  1  0
 41 36  1  0
M  END
$$$$
