
     RDKit          3D

 41 45  0  0  0  0  0  0  0  0999 V2000
   -6.7845   -6.5030   -2.6708 C   0  0  0  0  0  0  0  0  0  0  0  0
   -8.0192   -7.5987   -1.9678 S   0  0  0  0  0  6  0  0  0  0  0  0
   -8.1748   -7.1825   -0.5283 O   0  0  0  0  0  0  0  0  0  0  0  0
   -7.5363   -9.0092   -1.9783 O   0  0  0  0  0  0  0  0  0  0  0  0
   -9.4829   -7.3620   -2.8577 C   0  0  0  0  0  0  0  0  0  0  0  0
  -10.2418   -6.2023   -2.7548 C   0  0  0  0  0  0  0  0  0  0  0  0
  -11.4097   -6.0290   -3.4570 C   0  0  0  0  0  0  0  0  0  0  0  0
  -11.8330   -7.0588   -4.2956 C   0  0  0  0  0  0  0  0  0  0  0  0
  -11.0900   -8.1819   -4.3910 C   0  0  0  0  0  0  0  0  0  0  0  0
   -9.9329   -8.3682   -3.7030 C   0  0  0  0  0  0  0  0  0  0  0  0
  -11.5355   -9.2587   -5.2533 N   0  0  0  0  0  0  0  0  0  0  0  0
  -10.6600  -10.3266   -5.5336 C   0  0  0  0  0  0  0  0  0  0  0  0
   -9.5267  -10.2213   -4.9589 O   0  0  0  0  0  0  0  0  0  0  0  0
  -10.9909  -11.3944   -6.3624 N   0  0  0  0  0  0  0  0  0  0  0  0
   -9.9619  -12.3932   -6.6400 C   0  0  0  0  0  0  0  0  0  0  0  0
   -9.3460  -12.1453   -7.9998 C   0  0  0  0  0  0  0  0  0  0  0  0
   -8.3964  -11.1694   -8.1476 C   0  0  0  0  0  0  0  0  0  0  0  0
   -7.8452  -10.9600   -9.4014 C   0  0  0  0  0  0  0  0  0  0  0  0
   -8.1824  -11.6678  -10.5198 C   0  0  0  0  0  0  0  0  0  0  0  0
   -9.1418  -12.6513  -10.3524 C   0  0  0  0  0  0  0  0  0  0  0  0
   -9.7162  -12.8821   -9.0949 C   0  0  0  0  0  0  0  0  0  0  0  0
   -7.5743  -11.4002  -11.8170 C   0  0  0  0  0  0  0  0  0  0  0  0
   -7.4294  -12.3870  -12.6176 O   0  0  0  0  0  0  0  0  0  0  0  0
   -7.1325  -10.1405  -12.2548 N   0  0  0  0  0  0  0  0  0  0  0  0
   -6.4347   -9.8821  -13.4577 C   0  0  0  0  0  0  0  0  0  0  0  0
   -5.2288   -9.3316  -13.6226 N   0  0  0  0  0  0  0  0  0  0  0  0
   -4.9955   -9.2991  -14.9249 N   0  0  0  0  0  0  0  0  0  0  0  0
   -5.9998   -9.8043  -15.5859 N   0  0  0  0  0  0  0  0  0  0  0  0
   -6.8908  -10.1658  -14.6851 N   0  0  0  0  0  0  0  0  0  0  0  0
  -12.2745  -11.5052   -6.9841 C   0  0  0  0  0  0  0  0  0  0  0  0
  -12.3866  -11.9485   -8.3026 C   0  0  0  0  0  0  0  0  0  0  0  0
  -13.6122  -12.0582   -8.9186 C   0  0  0  0  0  0  0  0  0  0  0  0
  -14.7776  -11.7493   -8.3000 C   0  0  0  0  0  0  0  0  0  0  0  0
  -14.6954  -11.3101   -7.0014 C   0  0  0  0  0  0  0  0  0  0  0  0
  -13.4447  -11.1902   -6.3509 C   0  0  0  0  0  0  0  0  0  0  0  0
  -16.0637  -11.8891   -8.9804 C   0  0  0  0  0  0  0  0  0  0  0  0
  -16.7476  -13.2077   -8.6493 C   0  0  0  0  0  0  0  0  0  0  0  0
  -17.6459  -13.5709   -9.7978 C   0  0  0  0  0  0  0  0  0  0  0  0
  -18.2896  -12.2801  -10.2990 C   0  0  0  0  0  0  0  0  0  0  0  0
  -18.4194  -11.2812   -9.1552 C   0  0  0  0  0  0  0  0  0  0  0  0
  -17.0560  -10.8019   -8.6741 C   0  0  0  0  0  0  0  0  0  0  0  0
  1  2  1  0
  2  3  2  0
  2  4  2  0
  2  5  1  0
  5  6  2  0
  6  7  1  0
  7  8  2  0
  8  9  1  0
  9 10  2  0
  9 11  1  0
 11 12  1  0
 12 13  2  0
 12 14  1  0
 14 15  1  0
 15 16  1  0
 16 17  2  0
 17 18  1  0
 18 19  2  0
 19 20  1  0
 20 21  2  0
 19 22  1  0
 22 23  2  0
 22 24  1  0
 24 25  1  0
 25 26  2  0
 26 27  1  0
 27 28  1  0
 28 29  2  0
 14 30  1  0
 30 31  2  0
 31 32  1  0
 32 33  2  0
 33 34  1  0
 34 35  2  0
 33 36  1  0
 36 37  1  0
 37 38  1  0
 38 39  1  0
 39 40  1  0
 40 41  1  0
 10  5  1  0
 21 16  1  0
 29 25  1  0
 35 30  1  0
 41 36  1  0
M  END
$$$$
