
     RDKit          3D

 41 45  0  0  0  0  0  0  0  0999 V2000
   -3.9160   -9.2758   -1.1496 C   0  0  0  0  0  0  0  0  0  0  0  0
   -5.3140   -9.1403   -0.0331 S   0  0  0  0  0  6  0  0  0  0  0  0
   -4.8308   -8.3341    1.1442 O   0  0  0  0  0  0  0  0  0  0  0  0
   -5.7120  -10.4842    0.4752 O   0  0  0  0  0  0  0  0  0  0  0  0
   -6.5759   -8.3219   -0.8866 C   0  0  0  0  0  0  0  0  0  0  0  0
   -6.6655   -8.3254   -2.2735 C   0  0  0  0  0  0  0  0  0  0  0  0
   -7.6651   -7.6620   -2.9424 C   0  0  0  0  0  0  0  0  0  0  0  0
   -8.6123   -6.9680   -2.1914 C   0  0  0  0  0  0  0  0  0  0  0  0
   -8.5192   -6.9701   -0.8446 C   0  0  0  0  0  0  0  0  0  0  0  0
   -7.5365   -7.6214   -0.1685 C   0  0  0  0  0  0  0  0  0  0  0  0
   -9.4965   -6.2386   -0.0627 N   0  0  0  0  0  0  0  0  0  0  0  0
   -9.2795   -6.0546    1.3175 C   0  0  0  0  0  0  0  0  0  0  0  0
   -8.1624   -6.5154    1.7239 O   0  0  0  0  0  0  0  0  0  0  0  0
  -10.1949   -5.4358    2.1635 N   0  0  0  0  0  0  0  0  0  0  0  0
   -9.7493   -5.0644    3.5040 C   0  0  0  0  0  0  0  0  0  0  0  0
   -9.5210   -3.5707    3.5839 C   0  0  0  0  0  0  0  0  0  0  0  0
  -10.3379   -2.7205    2.8869 C   0  0  0  0  0  0  0  0  0  0  0  0
  -10.1112   -1.3564    2.9752 C   0  0  0  0  0  0  0  0  0  0  0  0
   -9.1183   -0.7865    3.7199 C   0  0  0  0  0  0  0  0  0  0  0  0
   -8.3034   -1.6597    4.4195 C   0  0  0  0  0  0  0  0  0  0  0  0
   -8.5105   -3.0439    4.3459 C   0  0  0  0  0  0  0  0  0  0  0  0
   -8.9212    0.6567    3.7711 C   0  0  0  0  0  0  0  0  0  0  0  0
   -9.7215    1.3878    3.0923 O   0  0  0  0  0  0  0  0  0  0  0  0
   -7.9169    1.3066    4.5078 N   0  0  0  0  0  0  0  0  0  0  0  0
   -7.6411    2.6937    4.4831 C   0  0  0  0  0  0  0  0  0  0  0  0
   -6.5129    3.3153    4.1295 N   0  0  0  0  0  0  0  0  0  0  0  0
   -6.7305    4.6138    4.2640 N   0  0  0  0  0  0  0  0  0  0  0  0
   -7.9443    4.8365    4.6858 N   0  0  0  0  0  0  0  0  0  0  0  0
   -8.5108    3.6547    4.8226 N   0  0  0  0  0  0  0  0  0  0  0  0
  -11.5542   -5.2103    1.7790 C   0  0  0  0  0  0  0  0  0  0  0  0
  -11.8676   -4.8396    0.4706 C   0  0  0  0  0  0  0  0  0  0  0  0
  -13.1688   -4.6150    0.0830 C   0  0  0  0  0  0  0  0  0  0  0  0
  -14.2204   -4.7356    0.9290 C   0  0  0  0  0  0  0  0  0  0  0  0
  -13.9395   -5.0992    2.2231 C   0  0  0  0  0  0  0  0  0  0  0  0
  -12.6084   -5.3342    2.6410 C   0  0  0  0  0  0  0  0  0  0  0  0
  -15.5918   -4.5011    0.4806 C   0  0  0  0  0  0  0  0  0  0  0  0
  -16.5609   -4.3642    1.6460 C   0  0  0  0  0  0  0  0  0  0  0  0
  -17.9256   -4.7768    1.1714 C   0  0  0  0  0  0  0  0  0  0  0  0
  -18.0910   -4.2518   -0.2530 C   0  0  0  0  0  0  0  0  0  0  0  0
  -17.2645   -2.9854   -0.4434 C   0  0  0  0  0  0  0  0  0  0  0  0
  -15.7711   -3.2766   -0.3731 C   0  0  0  0  0  0  0  0  0  0  0  0
  1  2  1  0
  2  3  2  0
  2  4  2  0
  2  5  1  0
  5  6  2  0
  6  7  1  0
  7  8  2  0
  8  9  1  0
  9 10  2  0
  9 11  1  0
 11 12  1  0
 12 13  2  0
 12 14  1  0
 14 15  1  0
 15 16  1  0
 16 17  2  0
 17 18  1  0
 18 19  2  0
 19 20  1  0
 20 21  2  0
 19 22  1  0
 22 23  2  0
 22 24  1  0
 24 25  1  0
 25 26  2  0
 26 27  1  0
 27 28  1  0
 28 29  2  0
 14 30  1  0
 30 31  2  0
 31 32  1  0
 32 33  2  0
 33 34  1  0
 34 35  2  0
 33 36  1  0
 36 37  1  0
 37 38  1  0
 38 39  1  0
 39 40  1  0
 40 41  1  0
 10  5  1  0
 21 16  1  0
 29 25  1  0
 35 30  1  0
 41 36  1  0
M  END
$$$$
