
     RDKit          3D

 41 45  0  0  0  0  0  0  0  0999 V2000
  -11.9830   -5.8820  -17.4920 C   0  0  0  0  0  0  0  0  0  0  0  0
  -13.3500   -5.5637  -16.3741 S   0  0  0  0  0  6  0  0  0  0  0  0
  -14.1213   -4.4173  -16.9745 O   0  0  0  0  0  0  0  0  0  0  0  0
  -12.8469   -5.1189  -15.0430 O   0  0  0  0  0  0  0  0  0  0  0  0
  -14.3050   -7.0038  -16.3068 C   0  0  0  0  0  0  0  0  0  0  0  0
  -15.3051   -7.2822  -17.2307 C   0  0  0  0  0  0  0  0  0  0  0  0
  -16.0663   -8.4236  -17.1614 C   0  0  0  0  0  0  0  0  0  0  0  0
  -15.8147   -9.3212  -16.1251 C   0  0  0  0  0  0  0  0  0  0  0  0
  -14.8409   -9.0442  -15.2320 C   0  0  0  0  0  0  0  0  0  0  0  0
  -14.0797   -7.9198  -15.2872 C   0  0  0  0  0  0  0  0  0  0  0  0
  -14.5864   -9.9709  -14.1466 N   0  0  0  0  0  0  0  0  0  0  0  0
  -13.6930   -9.6044  -13.1203 C   0  0  0  0  0  0  0  0  0  0  0  0
  -13.1472   -8.4665  -13.3017 O   0  0  0  0  0  0  0  0  0  0  0  0
  -13.4222  -10.4052  -12.0149 N   0  0  0  0  0  0  0  0  0  0  0  0
  -12.3615   -9.9829  -11.1040 C   0  0  0  0  0  0  0  0  0  0  0  0
  -11.0056  -10.2611  -11.7155 C   0  0  0  0  0  0  0  0  0  0  0  0
  -10.1992   -9.2170  -12.0834 C   0  0  0  0  0  0  0  0  0  0  0  0
   -8.9614   -9.4948  -12.6407 C   0  0  0  0  0  0  0  0  0  0  0  0
   -8.4763  -10.7539  -12.8522 C   0  0  0  0  0  0  0  0  0  0  0  0
   -9.3029  -11.7973  -12.4730 C   0  0  0  0  0  0  0  0  0  0  0  0
  -10.5603  -11.5433  -11.9085 C   0  0  0  0  0  0  0  0  0  0  0  0
   -7.1675  -10.9883  -13.4493 C   0  0  0  0  0  0  0  0  0  0  0  0
   -6.8069  -12.2024  -13.6269 O   0  0  0  0  0  0  0  0  0  0  0  0
   -6.2700   -9.9816  -13.8428 N   0  0  0  0  0  0  0  0  0  0  0  0
   -5.0605  -10.1829  -14.5480 C   0  0  0  0  0  0  0  0  0  0  0  0
   -4.3086   -9.2853  -15.1909 N   0  0  0  0  0  0  0  0  0  0  0  0
   -3.2734   -9.9394  -15.6930 N   0  0  0  0  0  0  0  0  0  0  0  0
   -3.3405  -11.2072  -15.3946 N   0  0  0  0  0  0  0  0  0  0  0  0
   -4.4416  -11.3629  -14.6879 N   0  0  0  0  0  0  0  0  0  0  0  0
  -14.1069  -11.6399  -11.7841 C   0  0  0  0  0  0  0  0  0  0  0  0
  -13.6144  -12.5600  -10.8577 C   0  0  0  0  0  0  0  0  0  0  0  0
  -14.2572  -13.7542  -10.6247 C   0  0  0  0  0  0  0  0  0  0  0  0
  -15.3943  -14.1160  -11.2668 C   0  0  0  0  0  0  0  0  0  0  0  0
  -15.9002  -13.2282  -12.1842 C   0  0  0  0  0  0  0  0  0  0  0  0
  -15.2539  -11.9955  -12.4381 C   0  0  0  0  0  0  0  0  0  0  0  0
  -16.0581  -15.3877  -10.9861 C   0  0  0  0  0  0  0  0  0  0  0  0
  -15.2705  -16.2412  -10.0025 C   0  0  0  0  0  0  0  0  0  0  0  0
  -15.6105  -17.6827  -10.2563 C   0  0  0  0  0  0  0  0  0  0  0  0
  -17.1031  -17.7505  -10.5715 C   0  0  0  0  0  0  0  0  0  0  0  0
  -17.8395  -16.6192   -9.8638 C   0  0  0  0  0  0  0  0  0  0  0  0
  -17.4475  -15.2590  -10.4261 C   0  0  0  0  0  0  0  0  0  0  0  0
  1  2  1  0
  2  3  2  0
  2  4  2  0
  2  5  1  0
  5  6  2  0
  6  7  1  0
  7  8  2  0
  8  9  1  0
  9 10  2  0
  9 11  1  0
 11 12  1  0
 12 13  2  0
 12 14  1  0
 14 15  1  0
 15 16  1  0
 16 17  2  0
 17 18  1  0
 18 19  2  0
 19 20  1  0
 20 21  2  0
 19 22  1  0
 22 23  2  0
 22 24  1  0
 24 25  1  0
 25 26  2  0
 26 27  1  0
 27 28  1  0
 28 29  2  0
 14 30  1  0
 30 31  2  0
 31 32  1  0
 32 33  2  0
 33 34  1  0
 34 35  2  0
 33 36  1  0
 36 37  1  0
 37 38  1  0
 38 39  1  0
 39 40  1  0
 40 41  1  0
 10  5  1  0
 21 16  1  0
 29 25  1  0
 35 30  1  0
 41 36  1  0
M  END
$$$$
