
     RDKit          3D

 41 45  0  0  0  0  0  0  0  0999 V2000
  -17.9885   -6.8059  -11.0461 C   0  0  0  0  0  0  0  0  0  0  0  0
  -17.3720   -6.3824  -12.6771 S   0  0  0  0  0  6  0  0  0  0  0  0
  -17.6025   -4.9024  -12.8386 O   0  0  0  0  0  0  0  0  0  0  0  0
  -18.1611   -7.0781  -13.7336 O   0  0  0  0  0  0  0  0  0  0  0  0
  -15.6865   -6.7682  -12.7057 C   0  0  0  0  0  0  0  0  0  0  0  0
  -14.8376   -6.3378  -13.7183 C   0  0  0  0  0  0  0  0  0  0  0  0
  -13.5023   -6.6599  -13.7381 C   0  0  0  0  0  0  0  0  0  0  0  0
  -12.9985   -7.4441  -12.7017 C   0  0  0  0  0  0  0  0  0  0  0  0
  -13.8292   -7.8575  -11.7211 C   0  0  0  0  0  0  0  0  0  0  0  0
  -15.1519   -7.5473  -11.6876 C   0  0  0  0  0  0  0  0  0  0  0  0
  -13.3092   -8.6834  -10.6491 N   0  0  0  0  0  0  0  0  0  0  0  0
  -14.1759   -9.1108   -9.6236 C   0  0  0  0  0  0  0  0  0  0  0  0
  -15.3562   -8.6391   -9.7237 O   0  0  0  0  0  0  0  0  0  0  0  0
  -13.7866   -9.9612   -8.5931 N   0  0  0  0  0  0  0  0  0  0  0  0
  -14.7735  -10.2979   -7.5703 C   0  0  0  0  0  0  0  0  0  0  0  0
  -14.4771   -9.5469   -6.2905 C   0  0  0  0  0  0  0  0  0  0  0  0
  -14.2211   -8.2022   -6.3357 C   0  0  0  0  0  0  0  0  0  0  0  0
  -13.9530   -7.5344   -5.1516 C   0  0  0  0  0  0  0  0  0  0  0  0
  -13.9266   -8.1269   -3.9214 C   0  0  0  0  0  0  0  0  0  0  0  0
  -14.1894   -9.4856   -3.8934 C   0  0  0  0  0  0  0  0  0  0  0  0
  -14.4619  -10.1847   -5.0771 C   0  0  0  0  0  0  0  0  0  0  0  0
  -13.6318   -7.3760   -2.7075 C   0  0  0  0  0  0  0  0  0  0  0  0
  -13.6666   -8.0091   -1.5967 O   0  0  0  0  0  0  0  0  0  0  0  0
  -13.3143   -6.0081   -2.6639 N   0  0  0  0  0  0  0  0  0  0  0  0
  -13.1514   -5.2350   -1.4906 C   0  0  0  0  0  0  0  0  0  0  0  0
  -13.9130   -4.2365   -1.0353 N   0  0  0  0  0  0  0  0  0  0  0  0
  -13.3690   -3.8237    0.0983 N   0  0  0  0  0  0  0  0  0  0  0  0
  -12.3003   -4.5177    0.3763 N   0  0  0  0  0  0  0  0  0  0  0  0
  -12.1616   -5.3902   -0.6012 N   0  0  0  0  0  0  0  0  0  0  0  0
  -12.4502  -10.4592   -8.4818 C   0  0  0  0  0  0  0  0  0  0  0  0
  -11.9403  -11.3383   -9.4382 C   0  0  0  0  0  0  0  0  0  0  0  0
  -10.6586  -11.8305   -9.3461 C   0  0  0  0  0  0  0  0  0  0  0  0
   -9.8145  -11.5029   -8.3380 C   0  0  0  0  0  0  0  0  0  0  0  0
  -10.2917  -10.6392   -7.3828 C   0  0  0  0  0  0  0  0  0  0  0  0
  -11.6066  -10.1225   -7.4597 C   0  0  0  0  0  0  0  0  0  0  0  0
   -8.4545  -12.0351   -8.2774 C   0  0  0  0  0  0  0  0  0  0  0  0
   -7.5174  -11.3261   -9.2445 C   0  0  0  0  0  0  0  0  0  0  0  0
   -6.4118  -12.2768   -9.6075 C   0  0  0  0  0  0  0  0  0  0  0  0
   -6.0450  -13.0529   -8.3446 C   0  0  0  0  0  0  0  0  0  0  0  0
   -6.3198  -12.2032   -7.1095 C   0  0  0  0  0  0  0  0  0  0  0  0
   -7.8110  -11.9568   -6.9209 C   0  0  0  0  0  0  0  0  0  0  0  0
  1  2  1  0
  2  3  2  0
  2  4  2  0
  2  5  1  0
  5  6  2  0
  6  7  1  0
  7  8  2  0
  8  9  1  0
  9 10  2  0
  9 11  1  0
 11 12  1  0
 12 13  2  0
 12 14  1  0
 14 15  1  0
 15 16  1  0
 16 17  2  0
 17 18  1  0
 18 19  2  0
 19 20  1  0
 20 21  2  0
 19 22  1  0
 22 23  2  0
 22 24  1  0
 24 25  1  0
 25 26  2  0
 26 27  1  0
 27 28  1  0
 28 29  2  0
 14 30  1  0
 30 31  2  0
 31 32  1  0
 32 33  2  0
 33 34  1  0
 34 35  2  0
 33 36  1  0
 36 37  1  0
 37 38  1  0
 38 39  1  0
 39 40  1  0
 40 41  1  0
 10  5  1  0
 21 16  1  0
 29 25  1  0
 35 30  1  0
 41 36  1  0
M  END
$$$$
