
     RDKit          3D

 41 45  0  0  0  0  0  0  0  0999 V2000
  -15.1755  -17.8353  -13.4402 C   0  0  0  0  0  0  0  0  0  0  0  0
  -16.0483  -16.7222  -12.3363 S   0  0  0  0  0  6  0  0  0  0  0  0
  -16.9410  -17.5907  -11.4887 O   0  0  0  0  0  0  0  0  0  0  0  0
  -16.9245  -15.7963  -13.1095 O   0  0  0  0  0  0  0  0  0  0  0  0
  -14.8589  -15.9108  -11.3786 C   0  0  0  0  0  0  0  0  0  0  0  0
  -14.4242  -16.4004  -10.1527 C   0  0  0  0  0  0  0  0  0  0  0  0
  -13.4875  -15.7419   -9.3939 C   0  0  0  0  0  0  0  0  0  0  0  0
  -12.9659  -14.5456   -9.8835 C   0  0  0  0  0  0  0  0  0  0  0  0
  -13.3924  -14.0768  -11.0755 C   0  0  0  0  0  0  0  0  0  0  0  0
  -14.3181  -14.7166  -11.8376 C   0  0  0  0  0  0  0  0  0  0  0  0
  -12.8599  -12.8265  -11.5802 N   0  0  0  0  0  0  0  0  0  0  0  0
  -11.6506  -12.3286  -11.0555 C   0  0  0  0  0  0  0  0  0  0  0  0
  -11.0882  -13.1212  -10.2303 O   0  0  0  0  0  0  0  0  0  0  0  0
  -11.1181  -11.0887  -11.3956 N   0  0  0  0  0  0  0  0  0  0  0  0
   -9.8268  -10.7155  -10.8241 C   0  0  0  0  0  0  0  0  0  0  0  0
   -8.7579  -10.7277  -11.8951 C   0  0  0  0  0  0  0  0  0  0  0  0
   -8.1328  -11.9030  -12.2175 C   0  0  0  0  0  0  0  0  0  0  0  0
   -7.1576  -11.8912  -13.2017 C   0  0  0  0  0  0  0  0  0  0  0  0
   -6.7679  -10.7763  -13.8876 C   0  0  0  0  0  0  0  0  0  0  0  0
   -7.4109   -9.5977  -13.5508 C   0  0  0  0  0  0  0  0  0  0  0  0
   -8.3998   -9.5823  -12.5577 C   0  0  0  0  0  0  0  0  0  0  0  0
   -5.7302  -10.8205  -14.9101 C   0  0  0  0  0  0  0  0  0  0  0  0
   -5.7771  -11.7751  -15.7600 O   0  0  0  0  0  0  0  0  0  0  0  0
   -4.6801   -9.8953  -15.0321 N   0  0  0  0  0  0  0  0  0  0  0  0
   -3.6811   -9.9073  -16.0334 C   0  0  0  0  0  0  0  0  0  0  0  0
   -3.5467  -10.7391  -17.0700 N   0  0  0  0  0  0  0  0  0  0  0  0
   -2.4663  -10.3575  -17.7321 N   0  0  0  0  0  0  0  0  0  0  0  0
   -1.9156   -9.3234  -17.1589 N   0  0  0  0  0  0  0  0  0  0  0  0
   -2.6615   -9.0414  -16.1100 N   0  0  0  0  0  0  0  0  0  0  0  0
  -11.8191  -10.1633  -12.2315 C   0  0  0  0  0  0  0  0  0  0  0  0
  -12.0732  -10.4695  -13.5691 C   0  0  0  0  0  0  0  0  0  0  0  0
  -12.7428   -9.5906  -14.3893 C   0  0  0  0  0  0  0  0  0  0  0  0
  -13.1955   -8.3861  -13.9646 C   0  0  0  0  0  0  0  0  0  0  0  0
  -12.9582   -8.0598  -12.6519 C   0  0  0  0  0  0  0  0  0  0  0  0
  -12.2713   -8.9496  -11.7928 C   0  0  0  0  0  0  0  0  0  0  0  0
  -13.9141   -7.4815  -14.8600 C   0  0  0  0  0  0  0  0  0  0  0  0
  -15.2279   -8.0776  -15.3446 C   0  0  0  0  0  0  0  0  0  0  0  0
  -15.5606   -7.4603  -16.6735 C   0  0  0  0  0  0  0  0  0  0  0  0
  -15.1691   -5.9860  -16.6021 C   0  0  0  0  0  0  0  0  0  0  0  0
  -15.2795   -5.4838  -15.1674 C   0  0  0  0  0  0  0  0  0  0  0  0
  -14.2447   -6.1416  -14.2637 C   0  0  0  0  0  0  0  0  0  0  0  0
  1  2  1  0
  2  3  2  0
  2  4  2  0
  2  5  1  0
  5  6  2  0
  6  7  1  0
  7  8  2  0
  8  9  1  0
  9 10  2  0
  9 11  1  0
 11 12  1  0
 12 13  2  0
 12 14  1  0
 14 15  1  0
 15 16  1  0
 16 17  2  0
 17 18  1  0
 18 19  2  0
 19 20  1  0
 20 21  2  0
 19 22  1  0
 22 23  2  0
 22 24  1  0
 24 25  1  0
 25 26  2  0
 26 27  1  0
 27 28  1  0
 28 29  2  0
 14 30  1  0
 30 31  2  0
 31 32  1  0
 32 33  2  0
 33 34  1  0
 34 35  2  0
 33 36  1  0
 36 37  1  0
 37 38  1  0
 38 39  1  0
 39 40  1  0
 40 41  1  0
 10  5  1  0
 21 16  1  0
 29 25  1  0
 35 30  1  0
 41 36  1  0
M  END
$$$$
