
     RDKit          3D

 41 45  0  0  0  0  0  0  0  0999 V2000
  -17.0129   -6.9477  -16.7935 C   0  0  0  0  0  0  0  0  0  0  0  0
  -15.4208   -7.0703  -15.9751 S   0  0  0  0  0  6  0  0  0  0  0  0
  -15.2066   -5.7510  -15.2801 O   0  0  0  0  0  0  0  0  0  0  0  0
  -14.3275   -7.2341  -16.9755 O   0  0  0  0  0  0  0  0  0  0  0  0
  -15.5237   -8.3736  -14.8432 C   0  0  0  0  0  0  0  0  0  0  0  0
  -15.8330   -9.6736  -15.2252 C   0  0  0  0  0  0  0  0  0  0  0  0
  -15.9242  -10.6997  -14.3164 C   0  0  0  0  0  0  0  0  0  0  0  0
  -15.6961  -10.4111  -12.9720 C   0  0  0  0  0  0  0  0  0  0  0  0
  -15.3953   -9.1461  -12.6088 C   0  0  0  0  0  0  0  0  0  0  0  0
  -15.3014   -8.1206  -13.4957 C   0  0  0  0  0  0  0  0  0  0  0  0
  -15.1699   -8.8421  -11.2094 N   0  0  0  0  0  0  0  0  0  0  0  0
  -14.8682   -7.5191  -10.8296 C   0  0  0  0  0  0  0  0  0  0  0  0
  -15.1399   -6.6561  -11.7280 O   0  0  0  0  0  0  0  0  0  0  0  0
  -14.3201   -7.1795   -9.5965 N   0  0  0  0  0  0  0  0  0  0  0  0
  -14.1568   -5.7621   -9.2840 C   0  0  0  0  0  0  0  0  0  0  0  0
  -14.9524   -5.4043   -8.0475 C   0  0  0  0  0  0  0  0  0  0  0  0
  -16.3064   -5.6100   -8.0280 C   0  0  0  0  0  0  0  0  0  0  0  0
  -17.0150   -5.2759   -6.8851 C   0  0  0  0  0  0  0  0  0  0  0  0
  -16.4541   -4.7498   -5.7564 C   0  0  0  0  0  0  0  0  0  0  0  0
  -15.0848   -4.5503   -5.7923 C   0  0  0  0  0  0  0  0  0  0  0  0
  -14.3451   -4.8784   -6.9367 C   0  0  0  0  0  0  0  0  0  0  0  0
  -17.2497   -4.4103   -4.5834 C   0  0  0  0  0  0  0  0  0  0  0  0
  -18.5104   -4.6173   -4.6432 O   0  0  0  0  0  0  0  0  0  0  0  0
  -16.7375   -3.8702   -3.3919 N   0  0  0  0  0  0  0  0  0  0  0  0
  -17.4721   -3.1251   -2.4401 C   0  0  0  0  0  0  0  0  0  0  0  0
  -17.0436   -2.5666   -1.3048 N   0  0  0  0  0  0  0  0  0  0  0  0
  -18.0879   -1.9716   -0.7507 N   0  0  0  0  0  0  0  0  0  0  0  0
  -19.1530   -2.1305   -1.4863 N   0  0  0  0  0  0  0  0  0  0  0  0
  -18.7784   -2.8417   -2.5303 N   0  0  0  0  0  0  0  0  0  0  0  0
  -13.8676   -8.1684   -8.6670 C   0  0  0  0  0  0  0  0  0  0  0  0
  -14.7695   -9.0649   -8.0922 C   0  0  0  0  0  0  0  0  0  0  0  0
  -14.3536  -10.0205   -7.1937 C   0  0  0  0  0  0  0  0  0  0  0  0
  -13.0615  -10.1573   -6.8093 C   0  0  0  0  0  0  0  0  0  0  0  0
  -12.1531   -9.2871   -7.3602 C   0  0  0  0  0  0  0  0  0  0  0  0
  -12.5609   -8.2975   -8.2854 C   0  0  0  0  0  0  0  0  0  0  0  0
  -12.6522  -11.1919   -5.8613 C   0  0  0  0  0  0  0  0  0  0  0  0
  -13.7666  -12.1913   -5.5863 C   0  0  0  0  0  0  0  0  0  0  0  0
  -13.5479  -12.7718   -4.2177 C   0  0  0  0  0  0  0  0  0  0  0  0
  -12.0442  -12.9715   -4.0420 C   0  0  0  0  0  0  0  0  0  0  0  0
  -11.3882  -13.2250   -5.3942 C   0  0  0  0  0  0  0  0  0  0  0  0
  -11.4529  -11.9925   -6.2868 C   0  0  0  0  0  0  0  0  0  0  0  0
  1  2  1  0
  2  3  2  0
  2  4  2  0
  2  5  1  0
  5  6  2  0
  6  7  1  0
  7  8  2  0
  8  9  1  0
  9 10  2  0
  9 11  1  0
 11 12  1  0
 12 13  2  0
 12 14  1  0
 14 15  1  0
 15 16  1  0
 16 17  2  0
 17 18  1  0
 18 19  2  0
 19 20  1  0
 20 21  2  0
 19 22  1  0
 22 23  2  0
 22 24  1  0
 24 25  1  0
 25 26  2  0
 26 27  1  0
 27 28  1  0
 28 29  2  0
 14 30  1  0
 30 31  2  0
 31 32  1  0
 32 33  2  0
 33 34  1  0
 34 35  2  0
 33 36  1  0
 36 37  1  0
 37 38  1  0
 38 39  1  0
 39 40  1  0
 40 41  1  0
 10  5  1  0
 21 16  1  0
 29 25  1  0
 35 30  1  0
 41 36  1  0
M  END
$$$$
