
     RDKit          3D

 41 45  0  0  0  0  0  0  0  0999 V2000
  -15.7343  -14.0669    0.4063 C   0  0  0  0  0  0  0  0  0  0  0  0
  -14.5019  -13.3157    1.4723 S   0  0  0  0  0  6  0  0  0  0  0  0
  -14.3449  -14.2451    2.6475 O   0  0  0  0  0  0  0  0  0  0  0  0
  -14.9882  -12.0071    1.9958 O   0  0  0  0  0  0  0  0  0  0  0  0
  -13.0380  -13.1948    0.5598 C   0  0  0  0  0  0  0  0  0  0  0  0
  -11.8713  -13.8552    0.9262 C   0  0  0  0  0  0  0  0  0  0  0  0
  -10.7101  -13.7430    0.2011 C   0  0  0  0  0  0  0  0  0  0  0  0
  -10.7190  -12.9372   -0.9363 C   0  0  0  0  0  0  0  0  0  0  0  0
  -11.8563  -12.2996   -1.2863 C   0  0  0  0  0  0  0  0  0  0  0  0
  -13.0127  -12.4006   -0.5794 C   0  0  0  0  0  0  0  0  0  0  0  0
  -11.8637  -11.4515   -2.4620 N   0  0  0  0  0  0  0  0  0  0  0  0
  -13.0245  -10.7174   -2.7771 C   0  0  0  0  0  0  0  0  0  0  0  0
  -13.9619  -10.8547   -1.9239 O   0  0  0  0  0  0  0  0  0  0  0  0
  -13.1460   -9.9218   -3.9123 N   0  0  0  0  0  0  0  0  0  0  0  0
  -14.3004   -9.0320   -4.0074 C   0  0  0  0  0  0  0  0  0  0  0  0
  -13.9090   -7.6241   -3.6146 C   0  0  0  0  0  0  0  0  0  0  0  0
  -13.5531   -7.3542   -2.3198 C   0  0  0  0  0  0  0  0  0  0  0  0
  -13.1976   -6.0582   -1.9825 C   0  0  0  0  0  0  0  0  0  0  0  0
  -13.1732   -5.0122   -2.8603 C   0  0  0  0  0  0  0  0  0  0  0  0
  -13.5336   -5.3026   -4.1648 C   0  0  0  0  0  0  0  0  0  0  0  0
  -13.8989   -6.6051   -4.5316 C   0  0  0  0  0  0  0  0  0  0  0  0
  -12.7969   -3.6656   -2.4487 C   0  0  0  0  0  0  0  0  0  0  0  0
  -12.9668   -2.7196   -3.2925 O   0  0  0  0  0  0  0  0  0  0  0  0
  -12.2592   -3.3274   -1.1956 N   0  0  0  0  0  0  0  0  0  0  0  0
  -11.9476   -2.0194   -0.7564 C   0  0  0  0  0  0  0  0  0  0  0  0
  -11.8179   -0.9037   -1.4795 N   0  0  0  0  0  0  0  0  0  0  0  0
  -11.5258    0.0713   -0.6337 N   0  0  0  0  0  0  0  0  0  0  0  0
  -11.4664   -0.3808    0.5882 N   0  0  0  0  0  0  0  0  0  0  0  0
  -11.7261   -1.6707    0.5181 N   0  0  0  0  0  0  0  0  0  0  0  0
  -12.2143   -9.9946   -4.9955 C   0  0  0  0  0  0  0  0  0  0  0  0
  -10.8649   -9.7045   -4.7893 C   0  0  0  0  0  0  0  0  0  0  0  0
   -9.9547   -9.7658   -5.8195 C   0  0  0  0  0  0  0  0  0  0  0  0
  -10.2971  -10.1060   -7.0856 C   0  0  0  0  0  0  0  0  0  0  0  0
  -11.6195  -10.3962   -7.3158 C   0  0  0  0  0  0  0  0  0  0  0  0
  -12.5707  -10.3387   -6.2700 C   0  0  0  0  0  0  0  0  0  0  0  0
   -9.3019  -10.1730   -8.1540 C   0  0  0  0  0  0  0  0  0  0  0  0
   -9.7608   -9.4493   -9.4118 C   0  0  0  0  0  0  0  0  0  0  0  0
   -9.0716  -10.0761  -10.5907 C   0  0  0  0  0  0  0  0  0  0  0  0
   -7.6418  -10.4001  -10.1637 C   0  0  0  0  0  0  0  0  0  0  0  0
   -7.1803   -9.4193   -9.0923 C   0  0  0  0  0  0  0  0  0  0  0  0
   -7.9585   -9.6009   -7.7956 C   0  0  0  0  0  0  0  0  0  0  0  0
  1  2  1  0
  2  3  2  0
  2  4  2  0
  2  5  1  0
  5  6  2  0
  6  7  1  0
  7  8  2  0
  8  9  1  0
  9 10  2  0
  9 11  1  0
 11 12  1  0
 12 13  2  0
 12 14  1  0
 14 15  1  0
 15 16  1  0
 16 17  2  0
 17 18  1  0
 18 19  2  0
 19 20  1  0
 20 21  2  0
 19 22  1  0
 22 23  2  0
 22 24  1  0
 24 25  1  0
 25 26  2  0
 26 27  1  0
 27 28  1  0
 28 29  2  0
 14 30  1  0
 30 31  2  0
 31 32  1  0
 32 33  2  0
 33 34  1  0
 34 35  2  0
 33 36  1  0
 36 37  1  0
 37 38  1  0
 38 39  1  0
 39 40  1  0
 40 41  1  0
 10  5  1  0
 21 16  1  0
 29 25  1  0
 35 30  1  0
 41 36  1  0
M  END
$$$$
