tmp_mol_0_158.sdf
     RDKit          3D

 13 13  0  0  1  0  0  0  0  0999 V2000
   -0.8970    2.0887    7.1369 C   0  0  0  0  0  0  0  0  0  0  0  0
   -1.9393    2.1490    8.0375 C   0  0  0  0  0  0  0  0  0  0  0  0
   -2.9946    2.9987    7.8448 C   0  0  0  0  0  0  0  0  0  0  0  0
   -3.0152    3.8042    6.7359 C   0  0  0  0  0  0  0  0  0  0  0  0
   -1.9969    3.7763    5.8125 C   0  0  0  0  0  0  0  0  0  0  0  0
   -0.9273    2.9033    6.0243 C   0  0  0  0  0  0  0  0  0  0  0  0
   -4.0665    3.0965    8.7209 O   0  0  0  0  0  0  0  0  0  0  0  0
   -4.0817    4.6802    6.5169 O   0  0  0  0  0  0  0  0  0  0  0  0
    0.7129    0.6763    6.1661 O   0  0  0  0  0  0  0  0  0  0  0  0
    3.4749    1.4380    9.1999 C   0  0  0  0  0  0  0  0  0  0  0  0
    2.4101    0.8176    8.4036 N   0  0  0  0  0  4  0  0  0  0  0  0
    1.3527    1.7888    8.1674 C   0  0  0  0  0  0  0  0  0  0  0  0
    0.2295    1.1633    7.3659 C   0  0  1  0  0  0  0  0  0  0  0  0
  1  2  2  0
  1  6  1  0
  1 13  1  0
  2  3  1  0
  3  4  2  0
  3  7  1  0
  4  5  1  0
  4  8  1  0
  5  6  2  0
 13  9  1  6
 11 10  1  6
 11 12  1  0
 12 13  1  1
M  CHG  1  11   1
M  END
$$$$
