tmp_mol_0_158.sdf
     RDKit          3D

 13 13  0  0  1  0  0  0  0  0999 V2000
   -0.5676    2.0308    6.8390 C   0  0  0  0  0  0  0  0  0  0  0  0
   -1.5926    2.1167    7.7573 C   0  0  0  0  0  0  0  0  0  0  0  0
   -2.6786    2.9190    7.5348 C   0  0  0  0  0  0  0  0  0  0  0  0
   -2.7482    3.6504    6.3775 C   0  0  0  0  0  0  0  0  0  0  0  0
   -1.7488    3.5947    5.4350 C   0  0  0  0  0  0  0  0  0  0  0  0
   -0.6472    2.7708    5.6777 C   0  0  0  0  0  0  0  0  0  0  0  0
   -3.7349    3.0398    8.4268 O   0  0  0  0  0  0  0  0  0  0  0  0
   -3.8469    4.4769    6.1273 O   0  0  0  0  0  0  0  0  0  0  0  0
    1.1657    0.7382    5.9152 O   0  0  0  0  0  0  0  0  0  0  0  0
    3.7584    1.5578    9.0433 C   0  0  0  0  0  0  0  0  0  0  0  0
    2.8187    0.9704    8.0816 N   0  0  0  0  0  4  0  0  0  0  0  0
    1.6358    1.8122    7.9834 C   0  0  0  0  0  0  0  0  0  0  0  0
    0.5928    1.1576    7.1010 C   0  0  1  0  0  0  0  0  0  0  0  0
  1  2  2  0
  1  6  1  0
  1 13  1  0
  2  3  1  0
  3  4  2  0
  3  7  1  0
  4  5  1  0
  4  8  1  0
  5  6  2  0
 13  9  1  6
 11 10  1  6
 11 12  1  0
 12 13  1  1
M  CHG  1  11   1
M  END
$$$$
