tmp_mol_0_158.sdf
     RDKit          3D

 13 13  0  0  1  0  0  0  0  0999 V2000
   -0.8464    2.0842    7.2671 C   0  0  0  0  0  0  0  0  0  0  0  0
   -1.2605    2.9421    6.2702 C   0  0  0  0  0  0  0  0  0  0  0  0
   -2.3843    3.7092    6.4165 C   0  0  0  0  0  0  0  0  0  0  0  0
   -3.1111    3.6225    7.5755 C   0  0  0  0  0  0  0  0  0  0  0  0
   -2.7343    2.7804    8.5948 C   0  0  0  0  0  0  0  0  0  0  0  0
   -1.5847    2.0045    8.4294 C   0  0  0  0  0  0  0  0  0  0  0  0
   -2.8422    4.5868    5.4438 O   0  0  0  0  0  0  0  0  0  0  0  0
   -4.2623    4.3956    7.7487 O   0  0  0  0  0  0  0  0  0  0  0  0
    0.6156    1.0488    5.7442 O   0  0  0  0  0  0  0  0  0  0  0  0
    3.8912    1.5557    8.2941 C   0  0  0  0  0  0  0  0  0  0  0  0
    2.7626    1.0471    7.5064 N   0  0  0  0  0  4  0  0  0  0  0  0
    1.5898    1.8731    7.7500 C   0  0  0  0  0  0  0  0  0  0  0  0
    0.3697    1.2680    7.0864 C   0  0  1  0  0  0  0  0  0  0  0  0
  1  2  2  0
  1  6  1  0
  1 13  1  0
  2  3  1  0
  3  4  2  0
  3  7  1  0
  4  5  1  0
  4  8  1  0
  5  6  2  0
 13  9  1  6
 11 10  1  6
 11 12  1  0
 12 13  1  1
M  CHG  1  11   1
M  END
$$$$
