tmp_mol_0_158.sdf
     RDKit          3D

 13 13  0  0  1  0  0  0  0  0999 V2000
   -0.6230    2.1448    7.0316 C   0  0  0  0  0  0  0  0  0  0  0  0
   -1.6773    2.2138    7.9176 C   0  0  0  0  0  0  0  0  0  0  0  0
   -2.7443    3.0390    7.6870 C   0  0  0  0  0  0  0  0  0  0  0  0
   -2.7648    3.8108    6.5543 C   0  0  0  0  0  0  0  0  0  0  0  0
   -1.7348    3.7731    5.6444 C   0  0  0  0  0  0  0  0  0  0  0  0
   -0.6533    2.9254    5.8948 C   0  0  0  0  0  0  0  0  0  0  0  0
   -3.8285    3.1443    8.5469 O   0  0  0  0  0  0  0  0  0  0  0  0
   -3.8432    4.6613    6.2966 O   0  0  0  0  0  0  0  0  0  0  0  0
    1.0009    0.7057    6.1256 O   0  0  0  0  0  0  0  0  0  0  0  0
    3.7725    1.6470    9.0873 C   0  0  0  0  0  0  0  0  0  0  0  0
    2.7590    1.0173    8.2333 N   0  0  0  0  0  4  0  0  0  0  0  0
    1.6344    1.9253    8.0655 C   0  0  0  0  0  0  0  0  0  0  0  0
    0.5161    1.2463    7.3015 C   0  0  1  0  0  0  0  0  0  0  0  0
  1  2  2  0
  1  6  1  0
  1 13  1  0
  2  3  1  0
  3  4  2  0
  3  7  1  0
  4  5  1  0
  4  8  1  0
  5  6  2  0
 13  9  1  6
 11 10  1  6
 11 12  1  0
 12 13  1  1
M  CHG  1  11   1
M  END
$$$$
