tmp_mol_0_158.sdf
     RDKit          3D

 13 13  0  0  1  0  0  0  0  0999 V2000
   -0.7567    1.9853    7.0277 C   0  0  0  0  0  0  0  0  0  0  0  0
   -1.7984    2.0289    7.9301 C   0  0  0  0  0  0  0  0  0  0  0  0
   -2.8839    2.8356    7.7213 C   0  0  0  0  0  0  0  0  0  0  0  0
   -2.9360    3.6142    6.5944 C   0  0  0  0  0  0  0  0  0  0  0  0
   -1.9196    3.6015    5.6686 C   0  0  0  0  0  0  0  0  0  0  0  0
   -0.8188    2.7726    5.8969 C   0  0  0  0  0  0  0  0  0  0  0  0
   -3.9566    2.9151    8.5983 O   0  0  0  0  0  0  0  0  0  0  0  0
   -4.0338    4.4462    6.3588 O   0  0  0  0  0  0  0  0  0  0  0  0
    0.9643    0.6927    6.0810 O   0  0  0  0  0  0  0  0  0  0  0  0
    3.5810    1.4754    9.2006 C   0  0  0  0  0  0  0  0  0  0  0  0
    2.6394    0.9090    8.2282 N   0  0  0  0  0  4  0  0  0  0  0  0
    1.4555    1.7516    8.1522 C   0  0  0  0  0  0  0  0  0  0  0  0
    0.4028    1.1064    7.2743 C   0  0  1  0  0  0  0  0  0  0  0  0
  1  2  2  0
  1  6  1  0
  1 13  1  0
  2  3  1  0
  3  4  2  0
  3  7  1  0
  4  5  1  0
  4  8  1  0
  5  6  2  0
 13  9  1  6
 11 10  1  6
 11 12  1  0
 12 13  1  1
M  CHG  1  11   1
M  END
$$$$
