tmp_mol_0_158.sdf
     RDKit          3D

 13 13  0  0  1  0  0  0  0  0999 V2000
   -0.6349    2.2130    6.9154 C   0  0  0  0  0  0  0  0  0  0  0  0
   -1.6724    2.2917    7.8203 C   0  0  0  0  0  0  0  0  0  0  0  0
   -2.7657    3.0784    7.5786 C   0  0  0  0  0  0  0  0  0  0  0  0
   -2.8300    3.8011    6.4156 C   0  0  0  0  0  0  0  0  0  0  0  0
   -1.8182    3.7520    5.4861 C   0  0  0  0  0  0  0  0  0  0  0  0
   -0.7094    2.9440    5.7481 C   0  0  0  0  0  0  0  0  0  0  0  0
   -3.8345    3.1916    8.4566 O   0  0  0  0  0  0  0  0  0  0  0  0
   -3.9360    4.6117    6.1460 O   0  0  0  0  0  0  0  0  0  0  0  0
    1.1097    0.9139    6.0223 O   0  0  0  0  0  0  0  0  0  0  0  0
    3.6884    1.8191    9.1405 C   0  0  0  0  0  0  0  0  0  0  0  0
    2.7678    1.2207    8.1672 N   0  0  0  0  0  4  0  0  0  0  0  0
    1.5705    2.0412    8.0640 C   0  0  0  0  0  0  0  0  0  0  0  0
    0.5332    1.3565    7.1978 C   0  0  1  0  0  0  0  0  0  0  0  0
  1  2  2  0
  1  6  1  0
  1 13  1  0
  2  3  1  0
  3  4  2  0
  3  7  1  0
  4  5  1  0
  4  8  1  0
  5  6  2  0
 13  9  1  6
 11 10  1  6
 11 12  1  0
 12 13  1  1
M  CHG  1  11   1
M  END
$$$$
