tmp_mol_0_158.sdf
     RDKit          3D

 13 13  0  0  1  0  0  0  0  0999 V2000
   -0.6504    2.0531    6.9833 C   0  0  0  0  0  0  0  0  0  0  0  0
   -1.6748    2.1123    7.9045 C   0  0  0  0  0  0  0  0  0  0  0  0
   -2.7571    2.9268    7.7098 C   0  0  0  0  0  0  0  0  0  0  0  0
   -2.8235    3.6976    6.5783 C   0  0  0  0  0  0  0  0  0  0  0  0
   -1.8246    3.6695    5.6340 C   0  0  0  0  0  0  0  0  0  0  0  0
   -0.7268    2.8327    5.8480 C   0  0  0  0  0  0  0  0  0  0  0  0
   -3.8126    3.0220    8.6059 O   0  0  0  0  0  0  0  0  0  0  0  0
   -3.9183    4.5374    6.3568 O   0  0  0  0  0  0  0  0  0  0  0  0
    1.0671    0.7722    6.0149 O   0  0  0  0  0  0  0  0  0  0  0  0
    3.6496    1.4709    9.2114 C   0  0  0  0  0  0  0  0  0  0  0  0
    2.6895    0.8888    8.2668 N   0  0  0  0  0  4  0  0  0  0  0  0
    1.5599    1.7918    8.1053 C   0  0  0  0  0  0  0  0  0  0  0  0
    0.5059    1.1661    7.2149 C   0  0  1  0  0  0  0  0  0  0  0  0
  1  2  2  0
  1  6  1  0
  1 13  1  0
  2  3  1  0
  3  4  2  0
  3  7  1  0
  4  5  1  0
  4  8  1  0
  5  6  2  0
 13  9  1  6
 11 10  1  6
 11 12  1  0
 12 13  1  1
M  CHG  1  11   1
M  END
$$$$
