tmp_mol_0_158.sdf
     RDKit          3D

 13 13  0  0  1  0  0  0  0  0999 V2000
   -0.8164    2.0182    6.9538 C   0  0  0  0  0  0  0  0  0  0  0  0
   -1.8702    2.0905    7.8402 C   0  0  0  0  0  0  0  0  0  0  0  0
   -2.9548    2.8862    7.5887 C   0  0  0  0  0  0  0  0  0  0  0  0
   -2.9937    3.6245    6.4344 C   0  0  0  0  0  0  0  0  0  0  0  0
   -1.9649    3.5822    5.5233 C   0  0  0  0  0  0  0  0  0  0  0  0
   -0.8653    2.7650    5.7952 C   0  0  0  0  0  0  0  0  0  0  0  0
   -4.0393    2.9934    8.4481 O   0  0  0  0  0  0  0  0  0  0  0  0
   -4.0903    4.4445    6.1551 O   0  0  0  0  0  0  0  0  0  0  0  0
    0.8886    0.6564    6.0779 O   0  0  0  0  0  0  0  0  0  0  0  0
    3.5460    1.6436    9.1048 C   0  0  0  0  0  0  0  0  0  0  0  0
    2.5711    0.9904    8.2241 N   0  0  0  0  0  4  0  0  0  0  0  0
    1.4067    1.8490    8.0681 C   0  0  0  0  0  0  0  0  0  0  0  0
    0.3418    1.1518    7.2466 C   0  0  1  0  0  0  0  0  0  0  0  0
  1  2  2  0
  1  6  1  0
  1 13  1  0
  2  3  1  0
  3  4  2  0
  3  7  1  0
  4  5  1  0
  4  8  1  0
  5  6  2  0
 13  9  1  6
 11 10  1  6
 11 12  1  0
 12 13  1  1
M  CHG  1  11   1
M  END
$$$$
