tmp_mol_0_158.sdf
     RDKit          3D

 13 13  0  0  1  0  0  0  0  0999 V2000
   -0.6559    2.8238    6.8594 C   0  0  0  0  0  0  0  0  0  0  0  0
   -1.4504    3.0338    7.9666 C   0  0  0  0  0  0  0  0  0  0  0  0
   -2.7743    3.3555    7.8384 C   0  0  0  0  0  0  0  0  0  0  0  0
   -3.3200    3.4708    6.5862 C   0  0  0  0  0  0  0  0  0  0  0  0
   -2.5642    3.2699    5.4554 C   0  0  0  0  0  0  0  0  0  0  0  0
   -1.2146    2.9423    5.6038 C   0  0  0  0  0  0  0  0  0  0  0  0
   -3.6150    3.5764    8.9203 O   0  0  0  0  0  0  0  0  0  0  0  0
   -4.6694    3.7983    6.4294 O   0  0  0  0  0  0  0  0  0  0  0  0
    1.4118    3.4122    7.8118 O   0  0  0  0  0  0  0  0  0  0  0  0
    2.5812   -0.5730    8.1909 C   0  0  0  0  0  0  0  0  0  0  0  0
    2.3933    0.8258    7.7897 N   0  0  0  0  0  4  0  0  0  0  0  0
    0.9760    1.0859    7.5869 C   0  0  0  0  0  0  0  0  0  0  0  0
    0.7691    2.4768    7.0231 C   0  0  1  0  0  0  0  0  0  0  0  0
  1  2  2  0
  1  6  1  0
  1 13  1  0
  2  3  1  0
  3  4  2  0
  3  7  1  0
  4  5  1  0
  4  8  1  0
  5  6  2  0
 13  9  1  1
 11 10  1  6
 11 12  1  0
 12 13  1  1
M  CHG  1  11   1
M  END
$$$$
