tmp_mol_0_158.sdf
     RDKit          3D

 13 13  0  0  1  0  0  0  0  0999 V2000
   -0.4892    2.7040    6.8495 C   0  0  0  0  0  0  0  0  0  0  0  0
   -1.2231    2.9353    7.9938 C   0  0  0  0  0  0  0  0  0  0  0  0
   -2.5106    3.3945    7.9296 C   0  0  0  0  0  0  0  0  0  0  0  0
   -3.0805    3.6286    6.7051 C   0  0  0  0  0  0  0  0  0  0  0  0
   -2.3851    3.4115    5.5392 C   0  0  0  0  0  0  0  0  0  0  0  0
   -1.0720    2.9427    5.6224 C   0  0  0  0  0  0  0  0  0  0  0  0
   -3.2900    3.6425    9.0508 O   0  0  0  0  0  0  0  0  0  0  0  0
   -4.3937    4.0977    6.6135 O   0  0  0  0  0  0  0  0  0  0  0  0
    1.7707    3.2459    7.2072 O   0  0  0  0  0  0  0  0  0  0  0  0
    2.5908   -0.3593    9.0688 C   0  0  0  0  0  0  0  0  0  0  0  0
    2.4617    0.7350    8.0998 N   0  0  0  0  0  4  0  0  0  0  0  0
    1.0615    1.1113    7.9770 C   0  0  0  0  0  0  0  0  0  0  0  0
    0.8972    2.2076    6.9443 C   0  0  1  0  0  0  0  0  0  0  0  0
  1  2  2  0
  1  6  1  0
  1 13  1  0
  2  3  1  0
  3  4  2  0
  3  7  1  0
  4  5  1  0
  4  8  1  0
  5  6  2  0
 13  9  1  1
 11 10  1  6
 11 12  1  0
 12 13  1  1
M  CHG  1  11   1
M  END
$$$$
