tmp_mol_0_158.sdf
     RDKit          3D

 13 13  0  0  1  0  0  0  0  0999 V2000
   -0.6562    2.0016    7.2720 C   0  0  0  0  0  0  0  0  0  0  0  0
   -1.0684    2.8796    6.2920 C   0  0  0  0  0  0  0  0  0  0  0  0
   -2.2354    3.5836    6.4160 C   0  0  0  0  0  0  0  0  0  0  0  0
   -3.0081    3.4122    7.5351 C   0  0  0  0  0  0  0  0  0  0  0  0
   -2.6350    2.5472    8.5365 C   0  0  0  0  0  0  0  0  0  0  0  0
   -1.4410    1.8364    8.3943 C   0  0  0  0  0  0  0  0  0  0  0  0
   -2.6933    4.4781    5.4589 O   0  0  0  0  0  0  0  0  0  0  0  0
   -4.2040    4.1196    7.6849 O   0  0  0  0  0  0  0  0  0  0  0  0
    0.9700    1.1821    5.7846 O   0  0  0  0  0  0  0  0  0  0  0  0
    4.0072    1.5597    8.6284 C   0  0  0  0  0  0  0  0  0  0  0  0
    2.9694    1.0927    7.7022 N   0  0  0  0  0  4  0  0  0  0  0  0
    1.7403    1.8353    7.9368 C   0  0  0  0  0  0  0  0  0  0  0  0
    0.6069    1.2547    7.1161 C   0  0  1  0  0  0  0  0  0  0  0  0
  1  2  2  0
  1  6  1  0
  1 13  1  0
  2  3  1  0
  3  4  2  0
  3  7  1  0
  4  5  1  0
  4  8  1  0
  5  6  2  0
 13  9  1  6
 11 10  1  6
 11 12  1  0
 12 13  1  1
M  CHG  1  11   1
M  END
$$$$
