tmp_mol_0_158.sdf
     RDKit          3D

 13 13  0  0  1  0  0  0  0  0999 V2000
   -0.9477    2.1376    7.0620 C   0  0  0  0  0  0  0  0  0  0  0  0
   -2.0004    2.1612    7.9522 C   0  0  0  0  0  0  0  0  0  0  0  0
   -3.0808    2.9766    7.7511 C   0  0  0  0  0  0  0  0  0  0  0  0
   -3.1165    3.7844    6.6442 C   0  0  0  0  0  0  0  0  0  0  0  0
   -2.0887    3.7925    5.7311 C   0  0  0  0  0  0  0  0  0  0  0  0
   -0.9933    2.9542    5.9514 C   0  0  0  0  0  0  0  0  0  0  0  0
   -4.1641    3.0369    8.6164 O   0  0  0  0  0  0  0  0  0  0  0  0
   -4.2088    4.6259    6.4167 O   0  0  0  0  0  0  0  0  0  0  0  0
    0.7403    0.8113    6.1028 O   0  0  0  0  0  0  0  0  0  0  0  0
    3.4209    1.6199    9.1706 C   0  0  0  0  0  0  0  0  0  0  0  0
    2.3973    0.9786    8.3376 N   0  0  0  0  0  4  0  0  0  0  0  0
    1.2823    1.8942    8.1486 C   0  0  0  0  0  0  0  0  0  0  0  0
    0.2061    1.2488    7.3000 C   0  0  1  0  0  0  0  0  0  0  0  0
  1  2  2  0
  1  6  1  0
  1 13  1  0
  2  3  1  0
  3  4  2  0
  3  7  1  0
  4  5  1  0
  4  8  1  0
  5  6  2  0
 13  9  1  6
 11 10  1  6
 11 12  1  0
 12 13  1  1
M  CHG  1  11   1
M  END
$$$$
