tmp_mol_0_158.sdf
     RDKit          3D

 13 13  0  0  1  0  0  0  0  0999 V2000
   -0.7625    2.0486    6.6984 C   0  0  0  0  0  0  0  0  0  0  0  0
   -1.5630    2.2418    7.8043 C   0  0  0  0  0  0  0  0  0  0  0  0
   -2.6655    3.0506    7.7489 C   0  0  0  0  0  0  0  0  0  0  0  0
   -2.9792    3.6797    6.5722 C   0  0  0  0  0  0  0  0  0  0  0  0
   -2.2087    3.5150    5.4455 C   0  0  0  0  0  0  0  0  0  0  0  0
   -1.0869    2.6861    5.5191 C   0  0  0  0  0  0  0  0  0  0  0  0
   -3.5020    3.2772    8.8329 O   0  0  0  0  0  0  0  0  0  0  0  0
   -4.0999    4.5106    6.4904 O   0  0  0  0  0  0  0  0  0  0  0  0
    1.2552    1.3709    5.6993 O   0  0  0  0  0  0  0  0  0  0  0  0
    3.1602    0.7591    9.2908 C   0  0  0  0  0  0  0  0  0  0  0  0
    2.4685    0.6490    8.0014 N   0  0  0  0  0  4  0  0  0  0  0  0
    1.1912    1.3421    8.0756 C   0  0  0  0  0  0  0  0  0  0  0  0
    0.4206    1.1706    6.7826 C   0  0  1  0  0  0  0  0  0  0  0  0
  1  2  2  0
  1  6  1  0
  1 13  1  0
  2  3  1  0
  3  4  2  0
  3  7  1  0
  4  5  1  0
  4  8  1  0
  5  6  2  0
 13  9  1  6
 11 10  1  6
 11 12  1  0
 12 13  1  1
M  CHG  1  11   1
M  END
$$$$
