tmp_mol_0_158.sdf
     RDKit          3D

 13 13  0  0  1  0  0  0  0  0999 V2000
   -0.6638    2.0747    6.6493 C   0  0  0  0  0  0  0  0  0  0  0  0
   -1.6453    2.1684    7.6133 C   0  0  0  0  0  0  0  0  0  0  0  0
   -2.7530    2.9492    7.4237 C   0  0  0  0  0  0  0  0  0  0  0  0
   -2.8887    3.6509    6.2540 C   0  0  0  0  0  0  0  0  0  0  0  0
   -1.9344    3.5864    5.2664 C   0  0  0  0  0  0  0  0  0  0  0  0
   -0.8099    2.7847    5.4758 C   0  0  0  0  0  0  0  0  0  0  0  0
   -3.7675    3.0767    8.3621 O   0  0  0  0  0  0  0  0  0  0  0  0
   -4.0107    4.4552    6.0369 O   0  0  0  0  0  0  0  0  0  0  0  0
    1.0837    0.8404    5.6739 O   0  0  0  0  0  0  0  0  0  0  0  0
    3.7276    1.6773    8.7350 C   0  0  0  0  0  0  0  0  0  0  0  0
    2.7965    1.1165    7.7493 N   0  0  0  0  0  4  0  0  0  0  0  0
    1.5632    1.8886    7.7532 C   0  0  0  0  0  0  0  0  0  0  0  0
    0.5211    1.2250    6.8763 C   0  0  1  0  0  0  0  0  0  0  0  0
  1  2  2  0
  1  6  1  0
  1 13  1  0
  2  3  1  0
  3  4  2  0
  3  7  1  0
  4  5  1  0
  4  8  1  0
  5  6  2  0
 13  9  1  6
 11 10  1  6
 11 12  1  0
 12 13  1  1
M  CHG  1  11   1
M  END
$$$$
