tmp_mol_0_158.sdf
     RDKit          3D

 13 13  0  0  1  0  0  0  0  0999 V2000
   -0.5570    2.0549    7.0437 C   0  0  0  0  0  0  0  0  0  0  0  0
   -1.5941    2.1103    7.9507 C   0  0  0  0  0  0  0  0  0  0  0  0
   -2.6753    2.9230    7.7425 C   0  0  0  0  0  0  0  0  0  0  0  0
   -2.7276    3.6957    6.6115 C   0  0  0  0  0  0  0  0  0  0  0  0
   -1.7156    3.6713    5.6811 C   0  0  0  0  0  0  0  0  0  0  0  0
   -0.6192    2.8363    5.9088 C   0  0  0  0  0  0  0  0  0  0  0  0
   -3.7432    3.0144    8.6241 O   0  0  0  0  0  0  0  0  0  0  0  0
   -3.8210    4.5336    6.3764 O   0  0  0  0  0  0  0  0  0  0  0  0
    1.1085    0.6909    6.0980 O   0  0  0  0  0  0  0  0  0  0  0  0
    3.8082    1.5492    9.1602 C   0  0  0  0  0  0  0  0  0  0  0  0
    2.8284    0.9431    8.2515 N   0  0  0  0  0  4  0  0  0  0  0  0
    1.6919    1.8385    8.0967 C   0  0  0  0  0  0  0  0  0  0  0  0
    0.5979    1.1698    7.2897 C   0  0  1  0  0  0  0  0  0  0  0  0
  1  2  2  0
  1  6  1  0
  1 13  1  0
  2  3  1  0
  3  4  2  0
  3  7  1  0
  4  5  1  0
  4  8  1  0
  5  6  2  0
 13  9  1  6
 11 10  1  6
 11 12  1  0
 12 13  1  1
M  CHG  1  11   1
M  END
$$$$
