
     RDKit          3D

 22 24  0  0  0  0  0  0  0  0999 V2000
   -0.5784    0.3820    6.5123 O   0  0  0  0  0  0  0  0  0  0  0  0
    0.7054    0.1206    7.0591 C   0  0  2  0  0  0  0  0  0  0  0  0
    1.3923   -0.7646    6.0839 C   0  0  0  0  0  0  0  0  0  0  0  0
    2.3632   -1.5408    6.6732 O   0  0  0  0  0  0  0  0  0  0  0  0
    3.2142   -2.5029    6.2185 C   0  0  0  0  0  0  0  0  0  0  0  0
    3.2402   -3.0282    4.9427 C   0  0  0  0  0  0  0  0  0  0  0  0
    4.1597   -4.0097    4.5908 C   0  0  0  0  0  0  0  0  0  0  0  0
    5.0637   -4.4734    5.5171 C   0  0  0  0  0  0  0  0  0  0  0  0
    5.0236   -3.9352    6.7895 C   0  0  0  0  0  0  0  0  0  0  0  0
    4.1356   -2.9689    7.1774 C   0  0  0  0  0  0  0  0  0  0  0  0
    4.3358   -2.6298    8.5035 C   0  0  0  0  0  0  0  0  0  0  0  0
    3.7395   -1.7399    9.3756 C   0  0  0  0  0  0  0  0  0  0  0  0
    4.1580   -1.6083   10.6825 C   0  0  0  0  0  0  0  0  0  0  0  0
    5.2035   -2.4021   11.0981 C   0  0  0  0  0  0  0  0  0  0  0  0
    5.8094   -3.2946   10.2419 C   0  0  0  0  0  0  0  0  0  0  0  0
    5.3926   -3.4326    8.9228 C   0  0  0  0  0  0  0  0  0  0  0  0
    5.7858   -4.1996    7.8905 N   0  0  0  0  0  0  0  0  0  0  0  0
    0.4135   -0.5736    8.3799 C   0  0  0  0  0  0  0  0  0  0  0  0
   -0.0788    0.4578    9.3043 N   0  0  0  0  0  4  0  0  0  0  0  0
   -0.3018   -0.0689   10.6162 C   0  0  0  0  0  0  0  0  0  0  0  0
   -0.1748    1.0210   11.6510 C   0  0  0  0  0  0  0  0  0  0  0  0
   -1.7382   -0.5908   10.6864 C   0  0  0  0  0  0  0  0  0  0  0  0
  2  1  1  6
  2  3  1  0
  3  4  1  0
  4  5  1  0
  5  6  2  0
  6  7  1  0
  7  8  2  0
  8  9  1  0
  9 10  2  0
 10 11  1  0
 11 12  2  0
 12 13  1  0
 13 14  2  0
 14 15  1  0
 15 16  2  0
 16 17  1  0
  2 18  1  0
 18 19  1  0
 19 20  1  0
 20 21  1  0
 20 22  1  0
 10  5  1  0
 16 11  1  0
 17  9  1  0
M  CHG  1  19   1
M  END
$$$$
