
     RDKit          3D

 22 24  0  0  0  0  0  0  0  0999 V2000
    0.0111    0.9157    6.3302 O   0  0  0  0  0  0  0  0  0  0  0  0
    1.2039    0.3886    6.8913 C   0  0  2  0  0  0  0  0  0  0  0  0
    1.6385   -0.6997    5.9787 C   0  0  0  0  0  0  0  0  0  0  0  0
    2.7814   -1.3272    6.4173 O   0  0  0  0  0  0  0  0  0  0  0  0
    3.5899   -2.2952    5.9016 C   0  0  0  0  0  0  0  0  0  0  0  0
    3.5079   -2.8319    4.6329 C   0  0  0  0  0  0  0  0  0  0  0  0
    4.3931   -3.8185    4.2140 C   0  0  0  0  0  0  0  0  0  0  0  0
    5.3709   -4.2760    5.0652 C   0  0  0  0  0  0  0  0  0  0  0  0
    5.4386   -3.7265    6.3316 C   0  0  0  0  0  0  0  0  0  0  0  0
    4.5877   -2.7548    6.7839 C   0  0  0  0  0  0  0  0  0  0  0  0
    4.8991   -2.4044    8.0854 C   0  0  0  0  0  0  0  0  0  0  0  0
    4.3793   -1.5054    8.9964 C   0  0  0  0  0  0  0  0  0  0  0  0
    4.9063   -1.3632   10.2624 C   0  0  0  0  0  0  0  0  0  0  0  0
    5.9818   -2.1557   10.5959 C   0  0  0  0  0  0  0  0  0  0  0  0
    6.5123   -3.0571    9.7000 C   0  0  0  0  0  0  0  0  0  0  0  0
    5.9861   -3.2059    8.4218 C   0  0  0  0  0  0  0  0  0  0  0  0
    6.2901   -3.9828    7.3671 N   0  0  0  0  0  0  0  0  0  0  0  0
    0.7778   -0.1243    8.2577 C   0  0  0  0  0  0  0  0  0  0  0  0
    0.1423    1.0016    8.9571 N   0  0  0  0  0  4  0  0  0  0  0  0
   -0.0575    0.7186   10.3456 C   0  0  0  0  0  0  0  0  0  0  0  0
   -0.5198    1.9551   11.0750 C   0  0  0  0  0  0  0  0  0  0  0  0
   -1.1741   -0.3200   10.4681 C   0  0  0  0  0  0  0  0  0  0  0  0
  2  1  1  6
  2  3  1  0
  3  4  1  0
  4  5  1  0
  5  6  2  0
  6  7  1  0
  7  8  2  0
  8  9  1  0
  9 10  2  0
 10 11  1  0
 11 12  2  0
 12 13  1  0
 13 14  2  0
 14 15  1  0
 15 16  2  0
 16 17  1  0
  2 18  1  0
 18 19  1  0
 19 20  1  0
 20 21  1  0
 20 22  1  0
 10  5  1  0
 16 11  1  0
 17  9  1  0
M  CHG  1  19   1
M  END
$$$$
