
     RDKit          3D

 22 24  0  0  0  0  0  0  0  0999 V2000
   -0.3782   -0.6305    6.7777 O   0  0  0  0  0  0  0  0  0  0  0  0
    0.6757   -0.0387    7.5224 C   0  0  2  0  0  0  0  0  0  0  0  0
    1.9287   -0.3875    6.8051 C   0  0  0  0  0  0  0  0  0  0  0  0
    2.3516   -1.6674    7.0797 O   0  0  0  0  0  0  0  0  0  0  0  0
    3.0759   -2.5951    6.3931 C   0  0  0  0  0  0  0  0  0  0  0  0
    2.8310   -3.0275    5.1057 C   0  0  0  0  0  0  0  0  0  0  0  0
    3.6430   -3.9820    4.5040 C   0  0  0  0  0  0  0  0  0  0  0  0
    4.7107   -4.5118    5.1893 C   0  0  0  0  0  0  0  0  0  0  0  0
    4.9412   -4.0664    6.4773 C   0  0  0  0  0  0  0  0  0  0  0  0
    4.1671   -3.1297    7.1065 C   0  0  0  0  0  0  0  0  0  0  0  0
    4.6408   -2.8869    8.3833 C   0  0  0  0  0  0  0  0  0  0  0  0
    4.2503   -2.0614    9.4198 C   0  0  0  0  0  0  0  0  0  0  0  0
    4.9305   -2.0244   10.6184 C   0  0  0  0  0  0  0  0  0  0  0  0
    6.0264   -2.8470   10.7530 C   0  0  0  0  0  0  0  0  0  0  0  0
    6.4294   -3.6761    9.7299 C   0  0  0  0  0  0  0  0  0  0  0  0
    5.7485   -3.7187    8.5186 C   0  0  0  0  0  0  0  0  0  0  0  0
    5.9091   -4.4099    7.3762 N   0  0  0  0  0  0  0  0  0  0  0  0
    0.5789   -0.6944    8.8907 C   0  0  0  0  0  0  0  0  0  0  0  0
    0.7809    0.3667    9.8877 N   0  0  0  0  0  4  0  0  0  0  0  0
   -0.4500    1.0091   10.2349 C   0  0  0  0  0  0  0  0  0  0  0  0
   -1.2427    0.1503   11.1883 C   0  0  0  0  0  0  0  0  0  0  0  0
   -0.1219    2.3109   10.9686 C   0  0  0  0  0  0  0  0  0  0  0  0
  2  1  1  6
  2  3  1  0
  3  4  1  0
  4  5  1  0
  5  6  2  0
  6  7  1  0
  7  8  2  0
  8  9  1  0
  9 10  2  0
 10 11  1  0
 11 12  2  0
 12 13  1  0
 13 14  2  0
 14 15  1  0
 15 16  2  0
 16 17  1  0
  2 18  1  0
 18 19  1  0
 19 20  1  0
 20 21  1  0
 20 22  1  0
 10  5  1  0
 16 11  1  0
 17  9  1  0
M  CHG  1  19   1
M  END
$$$$
