
     RDKit          3D

 22 24  0  0  0  0  0  0  0  0999 V2000
   -0.3012    0.7525    6.3774 O   0  0  0  0  0  0  0  0  0  0  0  0
    0.8906    0.2731    6.9820 C   0  0  2  0  0  0  0  0  0  0  0  0
    1.4477   -0.7347    6.0438 C   0  0  0  0  0  0  0  0  0  0  0  0
    2.5638   -1.3608    6.5484 O   0  0  0  0  0  0  0  0  0  0  0  0
    3.4273   -2.2967    6.0637 C   0  0  0  0  0  0  0  0  0  0  0  0
    3.4173   -2.8303    4.7910 C   0  0  0  0  0  0  0  0  0  0  0  0
    4.3541   -3.7825    4.4062 C   0  0  0  0  0  0  0  0  0  0  0  0
    5.3119   -4.2083    5.2959 C   0  0  0  0  0  0  0  0  0  0  0  0
    5.3073   -3.6624    6.5656 C   0  0  0  0  0  0  0  0  0  0  0  0
    4.4039   -2.7241    6.9852 C   0  0  0  0  0  0  0  0  0  0  0  0
    4.6483   -2.3685    8.2995 C   0  0  0  0  0  0  0  0  0  0  0  0
    4.0593   -1.4929    9.1909 C   0  0  0  0  0  0  0  0  0  0  0  0
    4.5281   -1.3375   10.4780 C   0  0  0  0  0  0  0  0  0  0  0  0
    5.6168   -2.0923   10.8534 C   0  0  0  0  0  0  0  0  0  0  0  0
    6.2161   -2.9699    9.9775 C   0  0  0  0  0  0  0  0  0  0  0  0
    5.7489   -3.1318    8.6782 C   0  0  0  0  0  0  0  0  0  0  0  0
    6.1241   -3.8926    7.6347 N   0  0  0  0  0  0  0  0  0  0  0  0
    0.4232   -0.3387    8.2931 C   0  0  0  0  0  0  0  0  0  0  0  0
   -0.2148    0.7387    9.0632 N   0  0  0  0  0  4  0  0  0  0  0  0
   -0.9256    0.2308   10.1968 C   0  0  0  0  0  0  0  0  0  0  0  0
    0.0039    0.0697   11.3736 C   0  0  0  0  0  0  0  0  0  0  0  0
   -1.9860    1.2580   10.5982 C   0  0  0  0  0  0  0  0  0  0  0  0
  2  1  1  6
  2  3  1  0
  3  4  1  0
  4  5  1  0
  5  6  2  0
  6  7  1  0
  7  8  2  0
  8  9  1  0
  9 10  2  0
 10 11  1  0
 11 12  2  0
 12 13  1  0
 13 14  2  0
 14 15  1  0
 15 16  2  0
 16 17  1  0
  2 18  1  0
 18 19  1  0
 19 20  1  0
 20 21  1  0
 20 22  1  0
 10  5  1  0
 16 11  1  0
 17  9  1  0
M  CHG  1  19   1
M  END
$$$$
