
     RDKit          3D

 22 24  0  0  0  0  0  0  0  0999 V2000
    0.0912   -1.6285    9.0602 O   0  0  0  0  0  0  0  0  0  0  0  0
    0.2283   -0.3674    8.4229 C   0  0  2  0  0  0  0  0  0  0  0  0
    1.0163   -0.6168    7.1888 C   0  0  0  0  0  0  0  0  0  0  0  0
    2.0975   -1.4371    7.4134 O   0  0  0  0  0  0  0  0  0  0  0  0
    2.9364   -2.1438    6.6051 C   0  0  0  0  0  0  0  0  0  0  0  0
    2.7724   -2.3577    5.2517 C   0  0  0  0  0  0  0  0  0  0  0  0
    3.6994   -3.0970    4.5259 C   0  0  0  0  0  0  0  0  0  0  0  0
    4.8017   -3.6287    5.1522 C   0  0  0  0  0  0  0  0  0  0  0  0
    4.9501   -3.4036    6.5078 C   0  0  0  0  0  0  0  0  0  0  0  0
    4.0621   -2.6828    7.2592 C   0  0  0  0  0  0  0  0  0  0  0  0
    4.4746   -2.6285    8.5785 C   0  0  0  0  0  0  0  0  0  0  0  0
    3.9701   -2.0506    9.7273 C   0  0  0  0  0  0  0  0  0  0  0  0
    4.6123   -2.1619   10.9421 C   0  0  0  0  0  0  0  0  0  0  0  0
    5.7887   -2.8767   10.9760 C   0  0  0  0  0  0  0  0  0  0  0  0
    6.3057   -3.4592    9.8403 C   0  0  0  0  0  0  0  0  0  0  0  0
    5.6636   -3.3512    8.6120 C   0  0  0  0  0  0  0  0  0  0  0  0
    5.9275   -3.8024    7.3730 N   0  0  0  0  0  0  0  0  0  0  0  0
    0.9767    0.4831    9.4370 C   0  0  0  0  0  0  0  0  0  0  0  0
    0.0251    1.4849    9.9388 N   0  0  0  0  0  4  0  0  0  0  0  0
    0.6763    2.4871   10.7261 C   0  0  0  0  0  0  0  0  0  0  0  0
   -0.2666    3.6292   11.0113 C   0  0  0  0  0  0  0  0  0  0  0  0
    1.0546    1.8686   12.0733 C   0  0  0  0  0  0  0  0  0  0  0  0
  2  1  1  1
  2  3  1  0
  3  4  1  0
  4  5  1  0
  5  6  2  0
  6  7  1  0
  7  8  2  0
  8  9  1  0
  9 10  2  0
 10 11  1  0
 11 12  2  0
 12 13  1  0
 13 14  2  0
 14 15  1  0
 15 16  2  0
 16 17  1  0
  2 18  1  0
 18 19  1  0
 19 20  1  0
 20 21  1  0
 20 22  1  0
 10  5  1  0
 16 11  1  0
 17  9  1  0
M  CHG  1  19   1
M  END
$$$$
