
     RDKit          3D

 22 24  0  0  0  0  0  0  0  0999 V2000
    0.0081   -1.5720    8.3181 O   0  0  0  0  0  0  0  0  0  0  0  0
    0.5528   -0.2972    8.0122 C   0  0  2  0  0  0  0  0  0  0  0  0
    1.5428   -0.5253    6.9287 C   0  0  0  0  0  0  0  0  0  0  0  0
    2.3717   -1.5913    7.1912 O   0  0  0  0  0  0  0  0  0  0  0  0
    3.2121   -2.3491    6.4322 C   0  0  0  0  0  0  0  0  0  0  0  0
    3.0679   -2.6236    5.0875 C   0  0  0  0  0  0  0  0  0  0  0  0
    3.9943   -3.4115    4.4140 C   0  0  0  0  0  0  0  0  0  0  0  0
    5.0762   -3.9315    5.0843 C   0  0  0  0  0  0  0  0  0  0  0  0
    5.2048   -3.6455    6.4305 C   0  0  0  0  0  0  0  0  0  0  0  0
    4.3166   -2.8755    7.1311 C   0  0  0  0  0  0  0  0  0  0  0  0
    4.7069   -2.7661    8.4537 C   0  0  0  0  0  0  0  0  0  0  0  0
    4.1927   -2.1265    9.5649 C   0  0  0  0  0  0  0  0  0  0  0  0
    4.8116   -2.1912   10.7951 C   0  0  0  0  0  0  0  0  0  0  0  0
    5.9745   -2.9231   10.8837 C   0  0  0  0  0  0  0  0  0  0  0  0
    6.5010   -3.5669    9.7861 C   0  0  0  0  0  0  0  0  0  0  0  0
    5.8824   -3.5061    8.5426 C   0  0  0  0  0  0  0  0  0  0  0  0
    6.1599   -4.0193    7.3309 N   0  0  0  0  0  0  0  0  0  0  0  0
    1.1976    0.1543    9.3130 C   0  0  0  0  0  0  0  0  0  0  0  0
    0.4215    1.3049    9.7972 N   0  0  0  0  0  4  0  0  0  0  0  0
    0.9753    1.8500   10.9990 C   0  0  0  0  0  0  0  0  0  0  0  0
    1.5883    3.2019   10.7316 C   0  0  0  0  0  0  0  0  0  0  0  0
   -0.1629    2.0619   11.9991 C   0  0  0  0  0  0  0  0  0  0  0  0
  2  1  1  1
  2  3  1  0
  3  4  1  0
  4  5  1  0
  5  6  2  0
  6  7  1  0
  7  8  2  0
  8  9  1  0
  9 10  2  0
 10 11  1  0
 11 12  2  0
 12 13  1  0
 13 14  2  0
 14 15  1  0
 15 16  2  0
 16 17  1  0
  2 18  1  0
 18 19  1  0
 19 20  1  0
 20 21  1  0
 20 22  1  0
 10  5  1  0
 16 11  1  0
 17  9  1  0
M  CHG  1  19   1
M  END
$$$$
