
     RDKit          3D

 22 24  0  0  0  0  0  0  0  0999 V2000
    1.3341    0.1376    6.8556 O   0  0  0  0  0  0  0  0  0  0  0  0
    1.1177    0.5600    8.1936 C   0  0  2  0  0  0  0  0  0  0  0  0
    2.4533    0.5592    8.8434 C   0  0  0  0  0  0  0  0  0  0  0  0
    3.2165   -0.5236    8.4728 O   0  0  0  0  0  0  0  0  0  0  0  0
    4.2463   -1.2016    9.0528 C   0  0  0  0  0  0  0  0  0  0  0  0
    4.7649   -0.9715   10.3107 C   0  0  0  0  0  0  0  0  0  0  0  0
    5.8205   -1.7320   10.8004 C   0  0  0  0  0  0  0  0  0  0  0  0
    6.3660   -2.7327   10.0315 C   0  0  0  0  0  0  0  0  0  0  0  0
    5.8333   -2.9496    8.7747 C   0  0  0  0  0  0  0  0  0  0  0  0
    4.7958   -2.2246    8.2545 C   0  0  0  0  0  0  0  0  0  0  0  0
    4.4826   -2.6692    6.9826 C   0  0  0  0  0  0  0  0  0  0  0  0
    3.5490   -2.3040    6.0322 C   0  0  0  0  0  0  0  0  0  0  0  0
    3.4614   -2.9420    4.8132 C   0  0  0  0  0  0  0  0  0  0  0  0
    4.3453   -3.9690    4.5684 C   0  0  0  0  0  0  0  0  0  0  0  0
    5.2822   -4.3460    5.5047 C   0  0  0  0  0  0  0  0  0  0  0  0
    5.3764   -3.7072    6.7359 C   0  0  0  0  0  0  0  0  0  0  0  0
    6.1689   -3.8571    7.8120 N   0  0  0  0  0  0  0  0  0  0  0  0
    0.1825   -0.4914    8.7696 C   0  0  0  0  0  0  0  0  0  0  0  0
   -1.1793    0.0553    8.6830 N   0  0  0  0  0  4  0  0  0  0  0  0
   -1.6833    0.4290    9.9693 C   0  0  0  0  0  0  0  0  0  0  0  0
   -2.7338    1.5025    9.8327 C   0  0  0  0  0  0  0  0  0  0  0  0
   -2.3651   -0.7914   10.5908 C   0  0  0  0  0  0  0  0  0  0  0  0
  2  1  1  6
  2  3  1  0
  3  4  1  0
  4  5  1  0
  5  6  2  0
  6  7  1  0
  7  8  2  0
  8  9  1  0
  9 10  2  0
 10 11  1  0
 11 12  2  0
 12 13  1  0
 13 14  2  0
 14 15  1  0
 15 16  2  0
 16 17  1  0
  2 18  1  0
 18 19  1  0
 19 20  1  0
 20 21  1  0
 20 22  1  0
 10  5  1  0
 16 11  1  0
 17  9  1  0
M  CHG  1  19   1
M  END
$$$$
