
     RDKit          3D

 22 24  0  0  0  0  0  0  0  0999 V2000
    0.0822    0.5997    6.2900 O   0  0  0  0  0  0  0  0  0  0  0  0
    1.3361    0.1362    6.7680 C   0  0  2  0  0  0  0  0  0  0  0  0
    1.5577   -1.1825    6.1212 C   0  0  0  0  0  0  0  0  0  0  0  0
    2.6935   -1.8079    6.5806 O   0  0  0  0  0  0  0  0  0  0  0  0
    3.5474   -2.7304    6.0546 C   0  0  0  0  0  0  0  0  0  0  0  0
    3.4604   -3.2954    4.7986 C   0  0  0  0  0  0  0  0  0  0  0  0
    4.3952   -4.2296    4.3672 C   0  0  0  0  0  0  0  0  0  0  0  0
    5.4281   -4.6055    5.1931 C   0  0  0  0  0  0  0  0  0  0  0  0
    5.4998   -4.0286    6.4470 C   0  0  0  0  0  0  0  0  0  0  0  0
    4.6014   -3.1065    6.9109 C   0  0  0  0  0  0  0  0  0  0  0  0
    4.9305   -2.7116    8.1951 C   0  0  0  0  0  0  0  0  0  0  0  0
    4.3818   -1.8314    9.1077 C   0  0  0  0  0  0  0  0  0  0  0  0
    4.9387   -1.6307   10.3527 C   0  0  0  0  0  0  0  0  0  0  0  0
    6.0744   -2.3444   10.6636 C   0  0  0  0  0  0  0  0  0  0  0  0
    6.6345   -3.2258    9.7659 C   0  0  0  0  0  0  0  0  0  0  0  0
    6.0785   -3.4333    8.5086 C   0  0  0  0  0  0  0  0  0  0  0  0
    6.3993   -4.2086    7.4577 N   0  0  0  0  0  0  0  0  0  0  0  0
    1.1447    0.0289    8.2725 C   0  0  0  0  0  0  0  0  0  0  0  0
   -0.3005    0.1162    8.5261 N   0  0  0  0  0  4  0  0  0  0  0  0
   -0.5794    0.5192    9.8708 C   0  0  0  0  0  0  0  0  0  0  0  0
   -2.0406    0.8589   10.0275 C   0  0  0  0  0  0  0  0  0  0  0  0
   -0.2907   -0.6641   10.7964 C   0  0  0  0  0  0  0  0  0  0  0  0
  2  1  1  6
  2  3  1  0
  3  4  1  0
  4  5  1  0
  5  6  2  0
  6  7  1  0
  7  8  2  0
  8  9  1  0
  9 10  2  0
 10 11  1  0
 11 12  2  0
 12 13  1  0
 13 14  2  0
 14 15  1  0
 15 16  2  0
 16 17  1  0
  2 18  1  0
 18 19  1  0
 19 20  1  0
 20 21  1  0
 20 22  1  0
 10  5  1  0
 16 11  1  0
 17  9  1  0
M  CHG  1  19   1
M  END
$$$$
