
     RDKit          3D

 22 24  0  0  0  0  0  0  0  0999 V2000
    1.4578    1.7024   10.9399 O   0  0  0  0  0  0  0  0  0  0  0  0
    2.3306    0.8051   10.2703 C   0  0  2  0  0  0  0  0  0  0  0  0
    1.4638   -0.0477    9.4172 C   0  0  0  0  0  0  0  0  0  0  0  0
    2.1453   -0.5880    8.3514 O   0  0  0  0  0  0  0  0  0  0  0  0
    1.8393   -0.8058    7.0416 C   0  0  0  0  0  0  0  0  0  0  0  0
    0.7848   -0.2463    6.3493 C   0  0  0  0  0  0  0  0  0  0  0  0
    0.5713   -0.5419    5.0079 C   0  0  0  0  0  0  0  0  0  0  0  0
    1.4158   -1.4025    4.3472 C   0  0  0  0  0  0  0  0  0  0  0  0
    2.4670   -1.9527    5.0562 C   0  0  0  0  0  0  0  0  0  0  0  0
    2.7127   -1.6891    6.3763 C   0  0  0  0  0  0  0  0  0  0  0  0
    3.8288   -2.3817    6.8100 C   0  0  0  0  0  0  0  0  0  0  0  0
    4.5007   -2.4786    8.0131 C   0  0  0  0  0  0  0  0  0  0  0  0
    5.6196   -3.2702    8.1617 C   0  0  0  0  0  0  0  0  0  0  0  0
    6.0532   -3.9712    7.0588 C   0  0  0  0  0  0  0  0  0  0  0  0
    5.3953   -3.8861    5.8519 C   0  0  0  0  0  0  0  0  0  0  0  0
    4.2665   -3.0900    5.6948 C   0  0  0  0  0  0  0  0  0  0  0  0
    3.4445   -2.8212    4.6649 N   0  0  0  0  0  0  0  0  0  0  0  0
    2.9987    0.0276   11.3932 C   0  0  0  0  0  0  0  0  0  0  0  0
    4.3651   -0.2785   10.9460 N   0  0  0  0  0  4  0  0  0  0  0  0
    5.2171   -0.6235   12.0430 C   0  0  0  0  0  0  0  0  0  0  0  0
    4.6939   -1.8469   12.7530 C   0  0  0  0  0  0  0  0  0  0  0  0
    6.5961   -0.9820   11.4856 C   0  0  0  0  0  0  0  0  0  0  0  0
  2  1  1  1
  2  3  1  0
  3  4  1  0
  4  5  1  0
  5  6  2  0
  6  7  1  0
  7  8  2  0
  8  9  1  0
  9 10  2  0
 10 11  1  0
 11 12  2  0
 12 13  1  0
 13 14  2  0
 14 15  1  0
 15 16  2  0
 16 17  1  0
  2 18  1  0
 18 19  1  0
 19 20  1  0
 20 21  1  0
 20 22  1  0
 10  5  1  0
 16 11  1  0
 17  9  1  0
M  CHG  1  19   1
M  END
$$$$
