
     RDKit          3D

 22 24  0  0  0  0  0  0  0  0999 V2000
   -0.3073    0.7332    6.3760 O   0  0  0  0  0  0  0  0  0  0  0  0
    0.9287    0.2852    6.9118 C   0  0  2  0  0  0  0  0  0  0  0  0
    1.4176   -0.7681    5.9856 C   0  0  0  0  0  0  0  0  0  0  0  0
    2.5492   -1.3946    6.4539 O   0  0  0  0  0  0  0  0  0  0  0  0
    3.3776   -2.3546    5.9550 C   0  0  0  0  0  0  0  0  0  0  0  0
    3.3104   -2.9109    4.6939 C   0  0  0  0  0  0  0  0  0  0  0  0
    4.2155   -3.8866    4.2924 C   0  0  0  0  0  0  0  0  0  0  0  0
    5.1986   -4.3133    5.1535 C   0  0  0  0  0  0  0  0  0  0  0  0
    5.2513   -3.7444    6.4121 C   0  0  0  0  0  0  0  0  0  0  0  0
    4.3806   -2.7825    6.8473 C   0  0  0  0  0  0  0  0  0  0  0  0
    4.6805   -2.4075    8.1446 C   0  0  0  0  0  0  0  0  0  0  0  0
    4.1406   -1.5055    9.0408 C   0  0  0  0  0  0  0  0  0  0  0  0
    4.6602   -1.3351   10.3063 C   0  0  0  0  0  0  0  0  0  0  0  0
    5.7491   -2.1023   10.6549 C   0  0  0  0  0  0  0  0  0  0  0  0
    6.2998   -3.0063    9.7740 C   0  0  0  0  0  0  0  0  0  0  0  0
    5.7812   -3.1834    8.4963 C   0  0  0  0  0  0  0  0  0  0  0  0
    6.1037   -3.9697    7.4540 N   0  0  0  0  0  0  0  0  0  0  0  0
    0.5643   -0.2603    8.2834 C   0  0  0  0  0  0  0  0  0  0  0  0
   -0.1855    0.7965    8.9775 N   0  0  0  0  0  4  0  0  0  0  0  0
   -0.3742    0.4903   10.3627 C   0  0  0  0  0  0  0  0  0  0  0  0
   -0.6948    1.7419   11.1409 C   0  0  0  0  0  0  0  0  0  0  0  0
   -1.5824   -0.4397   10.4887 C   0  0  0  0  0  0  0  0  0  0  0  0
  2  1  1  6
  2  3  1  0
  3  4  1  0
  4  5  1  0
  5  6  2  0
  6  7  1  0
  7  8  2  0
  8  9  1  0
  9 10  2  0
 10 11  1  0
 11 12  2  0
 12 13  1  0
 13 14  2  0
 14 15  1  0
 15 16  2  0
 16 17  1  0
  2 18  1  0
 18 19  1  0
 19 20  1  0
 20 21  1  0
 20 22  1  0
 10  5  1  0
 16 11  1  0
 17  9  1  0
M  CHG  1  19   1
M  END
$$$$
