
     RDKit          3D

 22 24  0  0  0  0  0  0  0  0999 V2000
   -0.3072    0.4188    6.7318 O   0  0  0  0  0  0  0  0  0  0  0  0
    0.9752    0.0338    7.2037 C   0  0  2  0  0  0  0  0  0  0  0  0
    1.3591   -1.1633    6.4126 C   0  0  0  0  0  0  0  0  0  0  0  0
    2.6245   -1.6093    6.7164 O   0  0  0  0  0  0  0  0  0  0  0  0
    3.4721   -2.5148    6.1524 C   0  0  0  0  0  0  0  0  0  0  0  0
    3.3852   -3.0219    4.8719 C   0  0  0  0  0  0  0  0  0  0  0  0
    4.3133   -3.9441    4.4022 C   0  0  0  0  0  0  0  0  0  0  0  0
    5.3395   -4.3662    5.2140 C   0  0  0  0  0  0  0  0  0  0  0  0
    5.4113   -3.8471    6.4929 C   0  0  0  0  0  0  0  0  0  0  0  0
    4.5193   -2.9387    6.9946 C   0  0  0  0  0  0  0  0  0  0  0  0
    4.8468   -2.6050    8.2966 C   0  0  0  0  0  0  0  0  0  0  0  0
    4.3024   -1.7620    9.2459 C   0  0  0  0  0  0  0  0  0  0  0  0
    4.8560   -1.6226   10.5007 C   0  0  0  0  0  0  0  0  0  0  0  0
    5.9841   -2.3598   10.7831 C   0  0  0  0  0  0  0  0  0  0  0  0
    6.5399   -3.2050    9.8486 C   0  0  0  0  0  0  0  0  0  0  0  0
    5.9871   -3.3505    8.5813 C   0  0  0  0  0  0  0  0  0  0  0  0
    6.3052   -4.0806    7.4977 N   0  0  0  0  0  0  0  0  0  0  0  0
    0.7522   -0.2797    8.6746 C   0  0  0  0  0  0  0  0  0  0  0  0
   -0.1830    0.7309    9.1893 N   0  0  0  0  0  4  0  0  0  0  0  0
   -0.2586    0.7043   10.6182 C   0  0  0  0  0  0  0  0  0  0  0  0
   -0.8656    1.9834   11.1383 C   0  0  0  0  0  0  0  0  0  0  0  0
   -1.1922   -0.4362   11.0285 C   0  0  0  0  0  0  0  0  0  0  0  0
  2  1  1  6
  2  3  1  0
  3  4  1  0
  4  5  1  0
  5  6  2  0
  6  7  1  0
  7  8  2  0
  8  9  1  0
  9 10  2  0
 10 11  1  0
 11 12  2  0
 12 13  1  0
 13 14  2  0
 14 15  1  0
 15 16  2  0
 16 17  1  0
  2 18  1  0
 18 19  1  0
 19 20  1  0
 20 21  1  0
 20 22  1  0
 10  5  1  0
 16 11  1  0
 17  9  1  0
M  CHG  1  19   1
M  END
$$$$
