
     RDKit          3D

 22 24  0  0  0  0  0  0  0  0999 V2000
   -0.6624    0.3611    6.3508 O   0  0  0  0  0  0  0  0  0  0  0  0
    0.6201    0.0325    6.8634 C   0  0  2  0  0  0  0  0  0  0  0  0
    1.1895   -0.9703    5.9272 C   0  0  0  0  0  0  0  0  0  0  0  0
    2.3404   -1.5468    6.4123 O   0  0  0  0  0  0  0  0  0  0  0  0
    3.2330   -2.4477    5.9142 C   0  0  0  0  0  0  0  0  0  0  0  0
    3.1978   -3.0173    4.6578 C   0  0  0  0  0  0  0  0  0  0  0  0
    4.1689   -3.9276    4.2566 C   0  0  0  0  0  0  0  0  0  0  0  0
    5.1864   -4.2749    5.1134 C   0  0  0  0  0  0  0  0  0  0  0  0
    5.2061   -3.6939    6.3674 C   0  0  0  0  0  0  0  0  0  0  0  0
    4.2708   -2.7946    6.8021 C   0  0  0  0  0  0  0  0  0  0  0  0
    4.5515   -2.3887    8.0944 C   0  0  0  0  0  0  0  0  0  0  0  0
    3.9535   -1.5214    8.9880 C   0  0  0  0  0  0  0  0  0  0  0  0
    4.4680   -1.3038   10.2484 C   0  0  0  0  0  0  0  0  0  0  0  0
    5.6123   -1.9869   10.5944 C   0  0  0  0  0  0  0  0  0  0  0  0
    6.2213   -2.8553    9.7160 C   0  0  0  0  0  0  0  0  0  0  0  0
    5.7082   -3.0796    8.4435 C   0  0  0  0  0  0  0  0  0  0  0  0
    6.0799   -3.8484    7.4046 N   0  0  0  0  0  0  0  0  0  0  0  0
    0.3342   -0.5441    8.2408 C   0  0  0  0  0  0  0  0  0  0  0  0
   -0.3637    0.5003    9.0043 N   0  0  0  0  0  4  0  0  0  0  0  0
   -0.5293    0.1322   10.3773 C   0  0  0  0  0  0  0  0  0  0  0  0
   -0.4896    1.3546   11.2598 C   0  0  0  0  0  0  0  0  0  0  0  0
   -1.9141   -0.4970   10.5421 C   0  0  0  0  0  0  0  0  0  0  0  0
  2  1  1  6
  2  3  1  0
  3  4  1  0
  4  5  1  0
  5  6  2  0
  6  7  1  0
  7  8  2  0
  8  9  1  0
  9 10  2  0
 10 11  1  0
 11 12  2  0
 12 13  1  0
 13 14  2  0
 14 15  1  0
 15 16  2  0
 16 17  1  0
  2 18  1  0
 18 19  1  0
 19 20  1  0
 20 21  1  0
 20 22  1  0
 10  5  1  0
 16 11  1  0
 17  9  1  0
M  CHG  1  19   1
M  END
$$$$
