
     RDKit          3D

 22 24  0  0  0  0  0  0  0  0999 V2000
   -0.1053    0.5729    6.6396 O   0  0  0  0  0  0  0  0  0  0  0  0
    1.1557    0.1472    7.1339 C   0  0  2  0  0  0  0  0  0  0  0  0
    1.5828   -0.9710    6.2545 C   0  0  0  0  0  0  0  0  0  0  0  0
    2.7680   -1.5370    6.6636 O   0  0  0  0  0  0  0  0  0  0  0  0
    3.6148   -2.4588    6.1253 C   0  0  0  0  0  0  0  0  0  0  0  0
    3.5347   -2.9922    4.8551 C   0  0  0  0  0  0  0  0  0  0  0  0
    4.4612   -3.9292    4.4120 C   0  0  0  0  0  0  0  0  0  0  0  0
    5.4787   -4.3398    5.2404 C   0  0  0  0  0  0  0  0  0  0  0  0
    5.5437   -3.7944    6.5087 C   0  0  0  0  0  0  0  0  0  0  0  0
    4.6530   -2.8707    6.9844 C   0  0  0  0  0  0  0  0  0  0  0  0
    4.9724   -2.5116    8.2815 C   0  0  0  0  0  0  0  0  0  0  0  0
    4.4256   -1.6458    9.2087 C   0  0  0  0  0  0  0  0  0  0  0  0
    4.9703   -1.4833   10.4646 C   0  0  0  0  0  0  0  0  0  0  0  0
    6.0921   -2.2206   10.7712 C   0  0  0  0  0  0  0  0  0  0  0  0
    6.6502   -3.0883    9.8589 C   0  0  0  0  0  0  0  0  0  0  0  0
    6.1063   -3.2573    8.5907 C   0  0  0  0  0  0  0  0  0  0  0  0
    6.4285   -4.0117    7.5250 N   0  0  0  0  0  0  0  0  0  0  0  0
    0.8656   -0.3015    8.5574 C   0  0  0  0  0  0  0  0  0  0  0  0
   -0.1595    0.6070    9.0907 N   0  0  0  0  0  4  0  0  0  0  0  0
   -0.2952    0.4788   10.5096 C   0  0  0  0  0  0  0  0  0  0  0  0
   -0.7426    1.7848   11.1170 C   0  0  0  0  0  0  0  0  0  0  0  0
   -1.3911   -0.5496   10.7962 C   0  0  0  0  0  0  0  0  0  0  0  0
  2  1  1  6
  2  3  1  0
  3  4  1  0
  4  5  1  0
  5  6  2  0
  6  7  1  0
  7  8  2  0
  8  9  1  0
  9 10  2  0
 10 11  1  0
 11 12  2  0
 12 13  1  0
 13 14  2  0
 14 15  1  0
 15 16  2  0
 16 17  1  0
  2 18  1  0
 18 19  1  0
 19 20  1  0
 20 21  1  0
 20 22  1  0
 10  5  1  0
 16 11  1  0
 17  9  1  0
M  CHG  1  19   1
M  END
$$$$
