
     RDKit          3D

 22 24  0  0  0  0  0  0  0  0999 V2000
    1.2010   -0.0126    9.8252 O   0  0  0  0  0  0  0  0  0  0  0  0
    0.4331   -0.8981    9.0243 C   0  0  2  0  0  0  0  0  0  0  0  0
    1.0955   -0.9253    7.6951 C   0  0  0  0  0  0  0  0  0  0  0  0
    2.3024   -1.5848    7.7237 O   0  0  0  0  0  0  0  0  0  0  0  0
    2.9507   -2.4149    6.8593 C   0  0  0  0  0  0  0  0  0  0  0  0
    2.5378   -2.7440    5.5843 C   0  0  0  0  0  0  0  0  0  0  0  0
    3.2859   -3.6042    4.7888 C   0  0  0  0  0  0  0  0  0  0  0  0
    4.4577   -4.1425    5.2657 C   0  0  0  0  0  0  0  0  0  0  0  0
    4.8561   -3.8011    6.5444 C   0  0  0  0  0  0  0  0  0  0  0  0
    4.1500   -2.9593    7.3601 C   0  0  0  0  0  0  0  0  0  0  0  0
    4.7939   -2.8074    8.5750 C   0  0  0  0  0  0  0  0  0  0  0  0
    4.5295   -2.0942    9.7281 C   0  0  0  0  0  0  0  0  0  0  0  0
    5.3731   -2.1309   10.8178 C   0  0  0  0  0  0  0  0  0  0  0  0
    6.5034   -2.9112   10.7205 C   0  0  0  0  0  0  0  0  0  0  0  0
    6.7824   -3.6286    9.5786 C   0  0  0  0  0  0  0  0  0  0  0  0
    5.9363   -3.5964    8.4759 C   0  0  0  0  0  0  0  0  0  0  0  0
    5.9538   -4.1771    7.2631 N   0  0  0  0  0  0  0  0  0  0  0  0
   -0.9464   -0.2601    8.9812 C   0  0  0  0  0  0  0  0  0  0  0  0
   -0.7420    1.1933    8.9005 N   0  0  0  0  0  4  0  0  0  0  0  0
   -1.9844    1.9036    8.8903 C   0  0  0  0  0  0  0  0  0  0  0  0
   -2.2566    2.5099   10.2443 C   0  0  0  0  0  0  0  0  0  0  0  0
   -1.8686    3.0594    7.8948 C   0  0  0  0  0  0  0  0  0  0  0  0
  2  1  1  1
  2  3  1  0
  3  4  1  0
  4  5  1  0
  5  6  2  0
  6  7  1  0
  7  8  2  0
  8  9  1  0
  9 10  2  0
 10 11  1  0
 11 12  2  0
 12 13  1  0
 13 14  2  0
 14 15  1  0
 15 16  2  0
 16 17  1  0
  2 18  1  0
 18 19  1  0
 19 20  1  0
 20 21  1  0
 20 22  1  0
 10  5  1  0
 16 11  1  0
 17  9  1  0
M  CHG  1  19   1
M  END
$$$$
