
     RDKit          3D

 22 24  0  0  0  0  0  0  0  0999 V2000
    1.4267    0.5073    6.7130 O   0  0  0  0  0  0  0  0  0  0  0  0
    0.7475   -0.7323    6.8454 C   0  0  2  0  0  0  0  0  0  0  0  0
    0.7100   -1.0240    8.3014 C   0  0  0  0  0  0  0  0  0  0  0  0
    1.9021   -0.7373    8.9249 O   0  0  0  0  0  0  0  0  0  0  0  0
    2.2369   -0.1501   10.1080 C   0  0  0  0  0  0  0  0  0  0  0  0
    1.5223    0.8361   10.7569 C   0  0  0  0  0  0  0  0  0  0  0  0
    1.9621    1.3612   11.9665 C   0  0  0  0  0  0  0  0  0  0  0  0
    3.1246    0.9003   12.5378 C   0  0  0  0  0  0  0  0  0  0  0  0
    3.8268   -0.0882   11.8743 C   0  0  0  0  0  0  0  0  0  0  0  0
    3.4299   -0.6317   10.6828 C   0  0  0  0  0  0  0  0  0  0  0  0
    4.3305   -1.5949   10.2647 C   0  0  0  0  0  0  0  0  0  0  0  0
    4.4149   -2.4298    9.1673 C   0  0  0  0  0  0  0  0  0  0  0  0
    5.4568   -3.3178    9.0051 C   0  0  0  0  0  0  0  0  0  0  0  0
    6.4246   -3.3478    9.9841 C   0  0  0  0  0  0  0  0  0  0  0  0
    6.3560   -2.5225   11.0845 C   0  0  0  0  0  0  0  0  0  0  0  0
    5.3083   -1.6246   11.2547 C   0  0  0  0  0  0  0  0  0  0  0  0
    4.9903   -0.7229   12.2003 N   0  0  0  0  0  0  0  0  0  0  0  0
    1.6111   -1.7149    6.0705 C   0  0  0  0  0  0  0  0  0  0  0  0
    1.4914   -1.3594    4.6492 N   0  0  0  0  0  4  0  0  0  0  0  0
    2.4355   -2.0717    3.8433 C   0  0  0  0  0  0  0  0  0  0  0  0
    2.2255   -3.5594    3.9751 C   0  0  0  0  0  0  0  0  0  0  0  0
    2.1855   -1.7099    2.3780 C   0  0  0  0  0  0  0  0  0  0  0  0
  2  1  1  1
  2  3  1  0
  3  4  1  0
  4  5  1  0
  5  6  2  0
  6  7  1  0
  7  8  2  0
  8  9  1  0
  9 10  2  0
 10 11  1  0
 11 12  2  0
 12 13  1  0
 13 14  2  0
 14 15  1  0
 15 16  2  0
 16 17  1  0
  2 18  1  0
 18 19  1  0
 19 20  1  0
 20 21  1  0
 20 22  1  0
 10  5  1  0
 16 11  1  0
 17  9  1  0
M  CHG  1  19   1
M  END
$$$$
