
     RDKit          3D

 22 24  0  0  0  0  0  0  0  0999 V2000
   -0.0116    0.4512    6.6241 O   0  0  0  0  0  0  0  0  0  0  0  0
    1.1826   -0.0482    7.2071 C   0  0  2  0  0  0  0  0  0  0  0  0
    1.7236   -1.0406    6.2434 C   0  0  0  0  0  0  0  0  0  0  0  0
    2.8013   -1.7298    6.7494 O   0  0  0  0  0  0  0  0  0  0  0  0
    3.6190   -2.7038    6.2604 C   0  0  0  0  0  0  0  0  0  0  0  0
    3.5377   -3.2814    5.0097 C   0  0  0  0  0  0  0  0  0  0  0  0
    4.4329   -4.2701    4.6178 C   0  0  0  0  0  0  0  0  0  0  0  0
    5.4202   -4.6886    5.4782 C   0  0  0  0  0  0  0  0  0  0  0  0
    5.4870   -4.0985    6.7262 C   0  0  0  0  0  0  0  0  0  0  0  0
    4.6265   -3.1233    7.1518 C   0  0  0  0  0  0  0  0  0  0  0  0
    4.9396   -2.7281    8.4400 C   0  0  0  0  0  0  0  0  0  0  0  0
    4.4132   -1.8070    9.3248 C   0  0  0  0  0  0  0  0  0  0  0  0
    4.9442   -1.6185   10.5830 C   0  0  0  0  0  0  0  0  0  0  0  0
    6.0308   -2.3871   10.9359 C   0  0  0  0  0  0  0  0  0  0  0  0
    6.5681   -3.3099   10.0663 C   0  0  0  0  0  0  0  0  0  0  0  0
    6.0378   -3.5054    8.7961 C   0  0  0  0  0  0  0  0  0  0  0  0
    6.3464   -4.3117    7.7650 N   0  0  0  0  0  0  0  0  0  0  0  0
    0.7237   -0.6832    8.5102 C   0  0  0  0  0  0  0  0  0  0  0  0
   -0.0345    0.3424    9.2409 N   0  0  0  0  0  4  0  0  0  0  0  0
   -0.1983   -0.0015   10.6204 C   0  0  0  0  0  0  0  0  0  0  0  0
   -0.1438    1.2348   11.4825 C   0  0  0  0  0  0  0  0  0  0  0  0
   -1.5883   -0.6149   10.8006 C   0  0  0  0  0  0  0  0  0  0  0  0
  2  1  1  6
  2  3  1  0
  3  4  1  0
  4  5  1  0
  5  6  2  0
  6  7  1  0
  7  8  2  0
  8  9  1  0
  9 10  2  0
 10 11  1  0
 11 12  2  0
 12 13  1  0
 13 14  2  0
 14 15  1  0
 15 16  2  0
 16 17  1  0
  2 18  1  0
 18 19  1  0
 19 20  1  0
 20 21  1  0
 20 22  1  0
 10  5  1  0
 16 11  1  0
 17  9  1  0
M  CHG  1  19   1
M  END
$$$$
