
     RDKit          3D

 22 24  0  0  0  0  0  0  0  0999 V2000
   -0.0355   -1.4967    8.1180 O   0  0  0  0  0  0  0  0  0  0  0  0
    0.4975   -0.2080    7.8520 C   0  0  2  0  0  0  0  0  0  0  0  0
    1.5101   -0.3977    6.7820 C   0  0  0  0  0  0  0  0  0  0  0  0
    2.4428   -1.3554    7.1060 O   0  0  0  0  0  0  0  0  0  0  0  0
    3.2508   -2.1773    6.3791 C   0  0  0  0  0  0  0  0  0  0  0  0
    3.1091   -2.4799    5.0402 C   0  0  0  0  0  0  0  0  0  0  0  0
    4.0003   -3.3340    4.4008 C   0  0  0  0  0  0  0  0  0  0  0  0
    5.0440   -3.8928    5.0998 C   0  0  0  0  0  0  0  0  0  0  0  0
    5.1707   -3.5778    6.4396 C   0  0  0  0  0  0  0  0  0  0  0  0
    4.3164   -2.7428    7.1072 C   0  0  0  0  0  0  0  0  0  0  0  0
    4.6952   -2.6188    8.4318 C   0  0  0  0  0  0  0  0  0  0  0  0
    4.2021   -1.9229    9.5185 C   0  0  0  0  0  0  0  0  0  0  0  0
    4.8010   -1.9873   10.7586 C   0  0  0  0  0  0  0  0  0  0  0  0
    5.9217   -2.7777   10.8828 C   0  0  0  0  0  0  0  0  0  0  0  0
    6.4266   -3.4781    9.8100 C   0  0  0  0  0  0  0  0  0  0  0  0
    5.8280   -3.4179    8.5567 C   0  0  0  0  0  0  0  0  0  0  0  0
    6.0929   -3.9777    7.3630 N   0  0  0  0  0  0  0  0  0  0  0  0
    1.1124    0.2211    9.1747 C   0  0  0  0  0  0  0  0  0  0  0  0
    0.0699    0.9468    9.9144 N   0  0  0  0  0  4  0  0  0  0  0  0
    0.6038    2.0768   10.6117 C   0  0  0  0  0  0  0  0  0  0  0  0
   -0.3941    3.2076   10.6262 C   0  0  0  0  0  0  0  0  0  0  0  0
    0.8465    1.6721   12.0670 C   0  0  0  0  0  0  0  0  0  0  0  0
  2  1  1  1
  2  3  1  0
  3  4  1  0
  4  5  1  0
  5  6  2  0
  6  7  1  0
  7  8  2  0
  8  9  1  0
  9 10  2  0
 10 11  1  0
 11 12  2  0
 12 13  1  0
 13 14  2  0
 14 15  1  0
 15 16  2  0
 16 17  1  0
  2 18  1  0
 18 19  1  0
 19 20  1  0
 20 21  1  0
 20 22  1  0
 10  5  1  0
 16 11  1  0
 17  9  1  0
M  CHG  1  19   1
M  END
$$$$
