
     RDKit          3D

 22 24  0  0  0  0  0  0  0  0999 V2000
   -0.4407   -1.3709    7.9791 O   0  0  0  0  0  0  0  0  0  0  0  0
    0.3413   -0.1903    8.0798 C   0  0  2  0  0  0  0  0  0  0  0  0
    1.5167   -0.4023    7.1968 C   0  0  0  0  0  0  0  0  0  0  0  0
    2.1310   -1.6122    7.4225 O   0  0  0  0  0  0  0  0  0  0  0  0
    2.9120   -2.4351    6.6678 C   0  0  0  0  0  0  0  0  0  0  0  0
    2.6921   -2.7813    5.3502 C   0  0  0  0  0  0  0  0  0  0  0  0
    3.5627   -3.6318    4.6782 C   0  0  0  0  0  0  0  0  0  0  0  0
    4.6641   -4.1429    5.3229 C   0  0  0  0  0  0  0  0  0  0  0  0
    4.8689   -3.7847    6.6420 C   0  0  0  0  0  0  0  0  0  0  0  0
    4.0374   -2.9516    7.3402 C   0  0  0  0  0  0  0  0  0  0  0  0
    4.4978   -2.7783    8.6331 C   0  0  0  0  0  0  0  0  0  0  0  0
    4.0576   -2.0626    9.7295 C   0  0  0  0  0  0  0  0  0  0  0  0
    4.7371   -2.0747   10.9290 C   0  0  0  0  0  0  0  0  0  0  0  0
    5.8843   -2.8326   11.0019 C   0  0  0  0  0  0  0  0  0  0  0  0
    6.3374   -3.5522    9.9186 C   0  0  0  0  0  0  0  0  0  0  0  0
    5.6574   -3.5447    8.7061 C   0  0  0  0  0  0  0  0  0  0  0  0
    5.8594   -4.1334    7.5140 N   0  0  0  0  0  0  0  0  0  0  0  0
    0.7165   -0.1163    9.5514 C   0  0  0  0  0  0  0  0  0  0  0  0
   -0.1648    0.8865   10.1665 N   0  0  0  0  0  4  0  0  0  0  0  0
    0.5488    1.7365   11.0701 C   0  0  0  0  0  0  0  0  0  0  0  0
   -0.0339    3.1276   11.0574 C   0  0  0  0  0  0  0  0  0  0  0  0
    0.3715    1.1874   12.4871 C   0  0  0  0  0  0  0  0  0  0  0  0
  2  1  1  1
  2  3  1  0
  3  4  1  0
  4  5  1  0
  5  6  2  0
  6  7  1  0
  7  8  2  0
  8  9  1  0
  9 10  2  0
 10 11  1  0
 11 12  2  0
 12 13  1  0
 13 14  2  0
 14 15  1  0
 15 16  2  0
 16 17  1  0
  2 18  1  0
 18 19  1  0
 19 20  1  0
 20 21  1  0
 20 22  1  0
 10  5  1  0
 16 11  1  0
 17  9  1  0
M  CHG  1  19   1
M  END
$$$$
