
     RDKit          3D

 22 24  0  0  0  0  0  0  0  0999 V2000
   -0.3761   -1.3593    7.7987 O   0  0  0  0  0  0  0  0  0  0  0  0
    0.3561   -0.1487    7.6820 C   0  0  2  0  0  0  0  0  0  0  0  0
    1.4149   -0.4074    6.6729 C   0  0  0  0  0  0  0  0  0  0  0  0
    2.3023   -1.3764    7.0800 O   0  0  0  0  0  0  0  0  0  0  0  0
    3.0380   -2.3221    6.4312 C   0  0  0  0  0  0  0  0  0  0  0  0
    2.8433   -2.7560    5.1358 C   0  0  0  0  0  0  0  0  0  0  0  0
    3.6622   -3.7299    4.5759 C   0  0  0  0  0  0  0  0  0  0  0  0
    4.6864   -4.2777    5.3114 C   0  0  0  0  0  0  0  0  0  0  0  0
    4.8671   -3.8305    6.6067 C   0  0  0  0  0  0  0  0  0  0  0  0
    4.0844   -2.8751    7.1960 C   0  0  0  0  0  0  0  0  0  0  0  0
    4.5042   -2.6353    8.4921 C   0  0  0  0  0  0  0  0  0  0  0  0
    4.0839   -1.7968    9.5062 C   0  0  0  0  0  0  0  0  0  0  0  0
    4.7093   -1.7674   10.7344 C   0  0  0  0  0  0  0  0  0  0  0  0
    5.7809   -2.6114   10.9223 C   0  0  0  0  0  0  0  0  0  0  0  0
    6.2131   -3.4538    9.9223 C   0  0  0  0  0  0  0  0  0  0  0  0
    5.5873   -3.4887    8.6813 C   0  0  0  0  0  0  0  0  0  0  0  0
    5.7857   -4.1889    7.5504 N   0  0  0  0  0  0  0  0  0  0  0  0
    0.9163    0.0838    9.0763 C   0  0  0  0  0  0  0  0  0  0  0  0
   -0.1035    0.8304    9.8268 N   0  0  0  0  0  4  0  0  0  0  0  0
    0.4860    1.7474   10.7540 C   0  0  0  0  0  0  0  0  0  0  0  0
   -0.4051    2.9489   10.9468 C   0  0  0  0  0  0  0  0  0  0  0  0
    0.6014    1.0504   12.1110 C   0  0  0  0  0  0  0  0  0  0  0  0
  2  1  1  1
  2  3  1  0
  3  4  1  0
  4  5  1  0
  5  6  2  0
  6  7  1  0
  7  8  2  0
  8  9  1  0
  9 10  2  0
 10 11  1  0
 11 12  2  0
 12 13  1  0
 13 14  2  0
 14 15  1  0
 15 16  2  0
 16 17  1  0
  2 18  1  0
 18 19  1  0
 19 20  1  0
 20 21  1  0
 20 22  1  0
 10  5  1  0
 16 11  1  0
 17  9  1  0
M  CHG  1  19   1
M  END
$$$$
