
     RDKit          3D

 22 24  0  0  0  0  0  0  0  0999 V2000
   -0.3473   -0.7954    7.0664 O   0  0  0  0  0  0  0  0  0  0  0  0
    0.5803    0.2277    7.3954 C   0  0  2  0  0  0  0  0  0  0  0  0
    1.8103   -0.0706    6.6179 C   0  0  0  0  0  0  0  0  0  0  0  0
    2.3116   -1.3226    6.8889 O   0  0  0  0  0  0  0  0  0  0  0  0
    3.1875   -2.1516    6.2547 C   0  0  0  0  0  0  0  0  0  0  0  0
    3.1264   -2.5402    4.9320 C   0  0  0  0  0  0  0  0  0  0  0  0
    4.0821   -3.3926    4.3910 C   0  0  0  0  0  0  0  0  0  0  0  0
    5.1101   -3.8632    5.1732 C   0  0  0  0  0  0  0  0  0  0  0  0
    5.1558   -3.4628    6.4954 C   0  0  0  0  0  0  0  0  0  0  0  0
    4.2362   -2.6263    7.0674 C   0  0  0  0  0  0  0  0  0  0  0  0
    4.5418   -2.4065    8.3985 C   0  0  0  0  0  0  0  0  0  0  0  0
    3.9667   -1.6680    9.4145 C   0  0  0  0  0  0  0  0  0  0  0  0
    4.5037   -1.6319   10.6837 C   0  0  0  0  0  0  0  0  0  0  0  0
    5.6469   -2.3648   10.9112 C   0  0  0  0  0  0  0  0  0  0  0  0
    6.2333   -3.1065    9.9099 C   0  0  0  0  0  0  0  0  0  0  0  0
    5.6974   -3.1476    8.6277 C   0  0  0  0  0  0  0  0  0  0  0  0
    6.0448   -3.7666    7.4855 N   0  0  0  0  0  0  0  0  0  0  0  0
    0.7819    0.0796    8.8952 C   0  0  0  0  0  0  0  0  0  0  0  0
   -0.1400    1.0225    9.5447 N   0  0  0  0  0  4  0  0  0  0  0  0
    0.2103    1.2482   10.9139 C   0  0  0  0  0  0  0  0  0  0  0  0
   -0.4534    2.5009   11.4287 C   0  0  0  0  0  0  0  0  0  0  0  0
   -0.3253    0.0810   11.7453 C   0  0  0  0  0  0  0  0  0  0  0  0
  2  1  1  6
  2  3  1  0
  3  4  1  0
  4  5  1  0
  5  6  2  0
  6  7  1  0
  7  8  2  0
  8  9  1  0
  9 10  2  0
 10 11  1  0
 11 12  2  0
 12 13  1  0
 13 14  2  0
 14 15  1  0
 15 16  2  0
 16 17  1  0
  2 18  1  0
 18 19  1  0
 19 20  1  0
 20 21  1  0
 20 22  1  0
 10  5  1  0
 16 11  1  0
 17  9  1  0
M  CHG  1  19   1
M  END
$$$$
