
     RDKit          3D

 22 24  0  0  0  0  0  0  0  0999 V2000
    0.0220   -0.2958    5.7984 O   0  0  0  0  0  0  0  0  0  0  0  0
    0.9605    0.3381    6.6543 C   0  0  2  0  0  0  0  0  0  0  0  0
    2.3011    0.0070    6.1071 C   0  0  0  0  0  0  0  0  0  0  0  0
    2.8097   -1.1577    6.6334 O   0  0  0  0  0  0  0  0  0  0  0  0
    3.4583   -2.2335    6.1057 C   0  0  0  0  0  0  0  0  0  0  0  0
    3.2647   -2.7616    4.8455 C   0  0  0  0  0  0  0  0  0  0  0  0
    3.9895   -3.8661    4.4127 C   0  0  0  0  0  0  0  0  0  0  0  0
    4.9174   -4.4514    5.2412 C   0  0  0  0  0  0  0  0  0  0  0  0
    5.0985   -3.9087    6.4994 C   0  0  0  0  0  0  0  0  0  0  0  0
    4.4066   -2.8236    6.9648 C   0  0  0  0  0  0  0  0  0  0  0  0
    4.8019   -2.5121    8.2533 C   0  0  0  0  0  0  0  0  0  0  0  0
    4.4407   -1.5428    9.1689 C   0  0  0  0  0  0  0  0  0  0  0  0
    5.0190   -1.4680   10.4181 C   0  0  0  0  0  0  0  0  0  0  0  0
    5.9813   -2.4023   10.7299 C   0  0  0  0  0  0  0  0  0  0  0  0
    6.3533   -3.3754    9.8292 C   0  0  0  0  0  0  0  0  0  0  0  0
    5.7744   -3.4568    8.5678 C   0  0  0  0  0  0  0  0  0  0  0  0
    5.9352   -4.2758    7.5134 N   0  0  0  0  0  0  0  0  0  0  0  0
    0.7085   -0.2917    8.0151 C   0  0  0  0  0  0  0  0  0  0  0  0
   -0.0357    0.6950    8.8107 N   0  0  0  0  0  4  0  0  0  0  0  0
   -0.3580    0.1928   10.1116 C   0  0  0  0  0  0  0  0  0  0  0  0
    0.7426    0.5181   11.0903 C   0  0  0  0  0  0  0  0  0  0  0  0
   -1.6207    0.9041   10.6016 C   0  0  0  0  0  0  0  0  0  0  0  0
  2  1  1  6
  2  3  1  0
  3  4  1  0
  4  5  1  0
  5  6  2  0
  6  7  1  0
  7  8  2  0
  8  9  1  0
  9 10  2  0
 10 11  1  0
 11 12  2  0
 12 13  1  0
 13 14  2  0
 14 15  1  0
 15 16  2  0
 16 17  1  0
  2 18  1  0
 18 19  1  0
 19 20  1  0
 20 21  1  0
 20 22  1  0
 10  5  1  0
 16 11  1  0
 17  9  1  0
M  CHG  1  19   1
M  END
$$$$
