
     RDKit          3D

 22 24  0  0  0  0  0  0  0  0999 V2000
   -0.2036    0.5543    6.5641 O   0  0  0  0  0  0  0  0  0  0  0  0
    1.0768    0.1538    7.0286 C   0  0  2  0  0  0  0  0  0  0  0  0
    1.4753   -1.0007    6.1833 C   0  0  0  0  0  0  0  0  0  0  0  0
    2.6802   -1.5415    6.5681 O   0  0  0  0  0  0  0  0  0  0  0  0
    3.5328   -2.4489    6.0147 C   0  0  0  0  0  0  0  0  0  0  0  0
    3.4552   -2.9628    4.7363 C   0  0  0  0  0  0  0  0  0  0  0  0
    4.3876   -3.8864    4.2778 C   0  0  0  0  0  0  0  0  0  0  0  0
    5.4087   -4.3030    5.0987 C   0  0  0  0  0  0  0  0  0  0  0  0
    5.4712   -3.7770    6.3754 C   0  0  0  0  0  0  0  0  0  0  0  0
    4.5747   -2.8671    6.8662 C   0  0  0  0  0  0  0  0  0  0  0  0
    4.8929   -2.5262    8.1686 C   0  0  0  0  0  0  0  0  0  0  0  0
    4.3410   -1.6788    9.1097 C   0  0  0  0  0  0  0  0  0  0  0  0
    4.8859   -1.5322   10.3675 C   0  0  0  0  0  0  0  0  0  0  0  0
    6.0129   -2.2665   10.6615 C   0  0  0  0  0  0  0  0  0  0  0  0
    6.5761   -3.1159    9.7353 C   0  0  0  0  0  0  0  0  0  0  0  0
    6.0321   -3.2688    8.4650 C   0  0  0  0  0  0  0  0  0  0  0  0
    6.3584   -4.0042    7.3874 N   0  0  0  0  0  0  0  0  0  0  0  0
    0.8422   -0.2330    8.4802 C   0  0  0  0  0  0  0  0  0  0  0  0
   -0.0731    0.7684    9.0461 N   0  0  0  0  0  4  0  0  0  0  0  0
   -0.1985    0.6302   10.4650 C   0  0  0  0  0  0  0  0  0  0  0  0
   -0.8159    1.8694   11.0633 C   0  0  0  0  0  0  0  0  0  0  0  0
   -1.1522   -0.5312   10.7519 C   0  0  0  0  0  0  0  0  0  0  0  0
  2  1  1  6
  2  3  1  0
  3  4  1  0
  4  5  1  0
  5  6  2  0
  6  7  1  0
  7  8  2  0
  8  9  1  0
  9 10  2  0
 10 11  1  0
 11 12  2  0
 12 13  1  0
 13 14  2  0
 14 15  1  0
 15 16  2  0
 16 17  1  0
  2 18  1  0
 18 19  1  0
 19 20  1  0
 20 21  1  0
 20 22  1  0
 10  5  1  0
 16 11  1  0
 17  9  1  0
M  CHG  1  19   1
M  END
$$$$
