
     RDKit          3D

 22 24  0  0  0  0  0  0  0  0999 V2000
    1.5099   -1.2598    9.8197 O   0  0  0  0  0  0  0  0  0  0  0  0
    0.7001   -0.6705    8.8135 C   0  0  2  0  0  0  0  0  0  0  0  0
    1.2111   -1.1926    7.5202 C   0  0  0  0  0  0  0  0  0  0  0  0
    2.5194   -1.6095    7.6027 O   0  0  0  0  0  0  0  0  0  0  0  0
    3.3852   -2.1959    6.7291 C   0  0  0  0  0  0  0  0  0  0  0  0
    3.1810   -2.3696    5.3754 C   0  0  0  0  0  0  0  0  0  0  0  0
    4.1413   -2.9829    4.5791 C   0  0  0  0  0  0  0  0  0  0  0  0
    5.3178   -3.4276    5.1343 C   0  0  0  0  0  0  0  0  0  0  0  0
    5.5054   -3.2444    6.4914 C   0  0  0  0  0  0  0  0  0  0  0  0
    4.5868   -2.6466    7.3108 C   0  0  0  0  0  0  0  0  0  0  0  0
    5.0521   -2.6055    8.6129 C   0  0  0  0  0  0  0  0  0  0  0  0
    4.5469   -2.1280    9.8066 C   0  0  0  0  0  0  0  0  0  0  0  0
    5.2519   -2.2244   10.9874 C   0  0  0  0  0  0  0  0  0  0  0  0
    6.4926   -2.8196   10.9401 C   0  0  0  0  0  0  0  0  0  0  0  0
    7.0114   -3.3011    9.7587 C   0  0  0  0  0  0  0  0  0  0  0  0
    6.3061   -3.2073    8.5643 C   0  0  0  0  0  0  0  0  0  0  0  0
    6.5557   -3.5791    7.2962 N   0  0  0  0  0  0  0  0  0  0  0  0
    0.9307    0.8234    8.9772 C   0  0  0  0  0  0  0  0  0  0  0  0
   -0.2026    1.3475    9.7530 N   0  0  0  0  0  4  0  0  0  0  0  0
   -0.2240    2.7785    9.7594 C   0  0  0  0  0  0  0  0  0  0  0  0
   -1.6354    3.2843    9.9241 C   0  0  0  0  0  0  0  0  0  0  0  0
    0.5727    3.2652   10.9713 C   0  0  0  0  0  0  0  0  0  0  0  0
  2  1  1  1
  2  3  1  0
  3  4  1  0
  4  5  1  0
  5  6  2  0
  6  7  1  0
  7  8  2  0
  8  9  1  0
  9 10  2  0
 10 11  1  0
 11 12  2  0
 12 13  1  0
 13 14  2  0
 14 15  1  0
 15 16  2  0
 16 17  1  0
  2 18  1  0
 18 19  1  0
 19 20  1  0
 20 21  1  0
 20 22  1  0
 10  5  1  0
 16 11  1  0
 17  9  1  0
M  CHG  1  19   1
M  END
$$$$
