
     RDKit          3D

 22 24  0  0  0  0  0  0  0  0999 V2000
    1.6798    0.2487    6.5851 O   0  0  0  0  0  0  0  0  0  0  0  0
    1.3592    0.7565    7.8715 C   0  0  2  0  0  0  0  0  0  0  0  0
    2.6285    0.7462    8.6428 C   0  0  0  0  0  0  0  0  0  0  0  0
    3.4244   -0.3311    8.3291 O   0  0  0  0  0  0  0  0  0  0  0  0
    4.4623   -0.9571    8.9516 C   0  0  0  0  0  0  0  0  0  0  0  0
    4.9489   -0.6681   10.2102 C   0  0  0  0  0  0  0  0  0  0  0  0
    6.0168   -1.3788   10.7458 C   0  0  0  0  0  0  0  0  0  0  0  0
    6.6070   -2.3883   10.0227 C   0  0  0  0  0  0  0  0  0  0  0  0
    6.1060   -2.6643    8.7645 C   0  0  0  0  0  0  0  0  0  0  0  0
    5.0577   -1.9897    8.2000 C   0  0  0  0  0  0  0  0  0  0  0  0
    4.7831   -2.4870    6.9388 C   0  0  0  0  0  0  0  0  0  0  0  0
    3.8580   -2.1833    5.9588 C   0  0  0  0  0  0  0  0  0  0  0  0
    3.8136   -2.8652    4.7615 C   0  0  0  0  0  0  0  0  0  0  0  0
    4.7324   -3.8726    4.5693 C   0  0  0  0  0  0  0  0  0  0  0  0
    5.6615   -4.1885    5.5355 C   0  0  0  0  0  0  0  0  0  0  0  0
    5.7122   -3.5052    6.7452 C   0  0  0  0  0  0  0  0  0  0  0  0
    6.4874   -3.5937    7.8405 N   0  0  0  0  0  0  0  0  0  0  0  0
    0.3328   -0.2252    8.4143 C   0  0  0  0  0  0  0  0  0  0  0  0
   -0.5450    0.5316    9.3183 N   0  0  0  0  0  4  0  0  0  0  0  0
   -1.7937   -0.1360    9.5267 C   0  0  0  0  0  0  0  0  0  0  0  0
   -1.6549   -1.1940   10.5927 C   0  0  0  0  0  0  0  0  0  0  0  0
   -2.8066    0.8894   10.0396 C   0  0  0  0  0  0  0  0  0  0  0  0
  2  1  1  6
  2  3  1  0
  3  4  1  0
  4  5  1  0
  5  6  2  0
  6  7  1  0
  7  8  2  0
  8  9  1  0
  9 10  2  0
 10 11  1  0
 11 12  2  0
 12 13  1  0
 13 14  2  0
 14 15  1  0
 15 16  2  0
 16 17  1  0
  2 18  1  0
 18 19  1  0
 19 20  1  0
 20 21  1  0
 20 22  1  0
 10  5  1  0
 16 11  1  0
 17  9  1  0
M  CHG  1  19   1
M  END
$$$$
