
     RDKit          3D

 22 24  0  0  0  0  0  0  0  0999 V2000
   -0.5250    0.2282    6.4940 O   0  0  0  0  0  0  0  0  0  0  0  0
    0.8387    0.3631    6.8649 C   0  0  2  0  0  0  0  0  0  0  0  0
    1.6085   -0.4607    5.8979 C   0  0  0  0  0  0  0  0  0  0  0  0
    2.4938   -1.3100    6.5201 O   0  0  0  0  0  0  0  0  0  0  0  0
    3.3185   -2.3044    6.0870 C   0  0  0  0  0  0  0  0  0  0  0  0
    3.2896   -2.9001    4.8425 C   0  0  0  0  0  0  0  0  0  0  0  0
    4.1865   -3.9089    4.5103 C   0  0  0  0  0  0  0  0  0  0  0  0
    5.1229   -4.3295    5.4249 C   0  0  0  0  0  0  0  0  0  0  0  0
    5.1377   -3.7210    6.6658 C   0  0  0  0  0  0  0  0  0  0  0  0
    4.2735   -2.7257    7.0335 C   0  0  0  0  0  0  0  0  0  0  0  0
    4.5290   -2.3155    8.3297 C   0  0  0  0  0  0  0  0  0  0  0  0
    3.9748   -1.3724    9.1734 C   0  0  0  0  0  0  0  0  0  0  0  0
    4.4460   -1.1726   10.4535 C   0  0  0  0  0  0  0  0  0  0  0  0
    5.5008   -1.9527   10.8714 C   0  0  0  0  0  0  0  0  0  0  0  0
    6.0652   -2.8974   10.0434 C   0  0  0  0  0  0  0  0  0  0  0  0
    5.5952   -3.1044    8.7515 C   0  0  0  0  0  0  0  0  0  0  0  0
    5.9410   -3.9315    7.7490 N   0  0  0  0  0  0  0  0  0  0  0  0
    0.8955   -0.1860    8.2816 C   0  0  0  0  0  0  0  0  0  0  0  0
    0.1337    0.7419    9.1297 N   0  0  0  0  0  4  0  0  0  0  0  0
    0.1882    0.3655   10.5094 C   0  0  0  0  0  0  0  0  0  0  0  0
   -0.0482    1.5646   11.3932 C   0  0  0  0  0  0  0  0  0  0  0  0
   -0.9454   -0.6249   10.7821 C   0  0  0  0  0  0  0  0  0  0  0  0
  2  1  1  6
  2  3  1  0
  3  4  1  0
  4  5  1  0
  5  6  2  0
  6  7  1  0
  7  8  2  0
  8  9  1  0
  9 10  2  0
 10 11  1  0
 11 12  2  0
 12 13  1  0
 13 14  2  0
 14 15  1  0
 15 16  2  0
 16 17  1  0
  2 18  1  0
 18 19  1  0
 19 20  1  0
 20 21  1  0
 20 22  1  0
 10  5  1  0
 16 11  1  0
 17  9  1  0
M  CHG  1  19   1
M  END
$$$$
