
     RDKit          3D

 22 24  0  0  0  0  0  0  0  0999 V2000
   -0.5319    0.6386    6.8341 O   0  0  0  0  0  0  0  0  0  0  0  0
    0.7920    0.2527    7.1714 C   0  0  2  0  0  0  0  0  0  0  0  0
    1.0436   -1.0196    6.4473 C   0  0  0  0  0  0  0  0  0  0  0  0
    2.2529   -1.5836    6.7820 O   0  0  0  0  0  0  0  0  0  0  0  0
    3.1552   -2.3580    6.1167 C   0  0  0  0  0  0  0  0  0  0  0  0
    3.0606   -2.7696    4.8029 C   0  0  0  0  0  0  0  0  0  0  0  0
    4.0485   -3.5603    4.2272 C   0  0  0  0  0  0  0  0  0  0  0  0
    5.1427   -3.9453    4.9653 C   0  0  0  0  0  0  0  0  0  0  0  0
    5.2210   -3.5230    6.2790 C   0  0  0  0  0  0  0  0  0  0  0  0
    4.2717   -2.7451    6.8842 C   0  0  0  0  0  0  0  0  0  0  0  0
    4.6223   -2.4844    8.1967 C   0  0  0  0  0  0  0  0  0  0  0  0
    4.0439   -1.7733    9.2301 C   0  0  0  0  0  0  0  0  0  0  0  0
    4.6353   -1.6803   10.4720 C   0  0  0  0  0  0  0  0  0  0  0  0
    5.8372   -2.3271   10.6535 C   0  0  0  0  0  0  0  0  0  0  0  0
    6.4279   -3.0404    9.6342 C   0  0  0  0  0  0  0  0  0  0  0  0
    5.8373   -3.1384    8.3795 C   0  0  0  0  0  0  0  0  0  0  0  0
    6.1745   -3.7483    7.2293 N   0  0  0  0  0  0  0  0  0  0  0  0
    0.7548    0.0733    8.6807 C   0  0  0  0  0  0  0  0  0  0  0  0
   -0.4373    0.7836    9.1656 N   0  0  0  0  0  4  0  0  0  0  0  0
   -0.4834    0.8274   10.5953 C   0  0  0  0  0  0  0  0  0  0  0  0
   -1.1288    2.1077   11.0634 C   0  0  0  0  0  0  0  0  0  0  0  0
   -1.3639   -0.3248   11.0829 C   0  0  0  0  0  0  0  0  0  0  0  0
  2  1  1  6
  2  3  1  0
  3  4  1  0
  4  5  1  0
  5  6  2  0
  6  7  1  0
  7  8  2  0
  8  9  1  0
  9 10  2  0
 10 11  1  0
 11 12  2  0
 12 13  1  0
 13 14  2  0
 14 15  1  0
 15 16  2  0
 16 17  1  0
  2 18  1  0
 18 19  1  0
 19 20  1  0
 20 21  1  0
 20 22  1  0
 10  5  1  0
 16 11  1  0
 17  9  1  0
M  CHG  1  19   1
M  END
$$$$
