
     RDKit          3D

 22 24  0  0  0  0  0  0  0  0999 V2000
   -0.0482   -1.3919    7.6016 O   0  0  0  0  0  0  0  0  0  0  0  0
    0.8317   -0.2780    7.5811 C   0  0  2  0  0  0  0  0  0  0  0  0
    1.9538   -0.6602    6.6861 C   0  0  0  0  0  0  0  0  0  0  0  0
    2.6168   -1.7824    7.1258 O   0  0  0  0  0  0  0  0  0  0  0  0
    3.4332   -2.6965    6.5303 C   0  0  0  0  0  0  0  0  0  0  0  0
    3.3163   -3.1720    5.2401 C   0  0  0  0  0  0  0  0  0  0  0  0
    4.2139   -4.1069    4.7373 C   0  0  0  0  0  0  0  0  0  0  0  0
    5.2392   -4.5736    5.5253 C   0  0  0  0  0  0  0  0  0  0  0  0
    5.3413   -4.0857    6.8144 C   0  0  0  0  0  0  0  0  0  0  0  0
    4.4798   -3.1662    7.3485 C   0  0  0  0  0  0  0  0  0  0  0  0
    4.8328   -2.8707    8.6529 C   0  0  0  0  0  0  0  0  0  0  0  0
    4.3230   -2.0357    9.6282 C   0  0  0  0  0  0  0  0  0  0  0  0
    4.8964   -1.9392   10.8782 C   0  0  0  0  0  0  0  0  0  0  0  0
    6.0085   -2.7114   11.1286 C   0  0  0  0  0  0  0  0  0  0  0  0
    6.5298   -3.5492   10.1680 C   0  0  0  0  0  0  0  0  0  0  0  0
    5.9570   -3.6517    8.9054 C   0  0  0  0  0  0  0  0  0  0  0  0
    6.2417   -4.3649    7.8014 N   0  0  0  0  0  0  0  0  0  0  0  0
    1.2633   -0.1175    9.0302 C   0  0  0  0  0  0  0  0  0  0  0  0
    0.2493    0.7197    9.6872 N   0  0  0  0  0  4  0  0  0  0  0  0
    0.4351    0.7624   11.1056 C   0  0  0  0  0  0  0  0  0  0  0  0
    0.7274    2.1715   11.5573 C   0  0  0  0  0  0  0  0  0  0  0  0
   -0.8737    0.3379   11.7743 C   0  0  0  0  0  0  0  0  0  0  0  0
  2  1  1  1
  2  3  1  0
  3  4  1  0
  4  5  1  0
  5  6  2  0
  6  7  1  0
  7  8  2  0
  8  9  1  0
  9 10  2  0
 10 11  1  0
 11 12  2  0
 12 13  1  0
 13 14  2  0
 14 15  1  0
 15 16  2  0
 16 17  1  0
  2 18  1  0
 18 19  1  0
 19 20  1  0
 20 21  1  0
 20 22  1  0
 10  5  1  0
 16 11  1  0
 17  9  1  0
M  CHG  1  19   1
M  END
$$$$
