
     RDKit          3D

 18 18  0  0  0  0  0  0  0  0999 V2000
    6.3901   -3.6898    6.0802 C   0  0  0  0  0  0  0  0  0  0  0  0
    5.0761   -4.3079    6.5771 C   0  0  0  0  0  0  0  0  0  0  0  0
    5.1807   -4.4215    8.1006 C   0  0  0  0  0  0  0  0  0  0  0  0
    4.0379   -3.3692    6.3035 N   0  0  0  0  0  0  0  0  0  0  0  0
    2.7191   -3.8100    6.5709 C   0  0  0  0  0  0  0  0  0  0  0  0
    1.6178   -2.8360    6.2520 C   0  0  0  0  0  0  0  0  0  0  0  0
    1.4972   -1.8444    7.3879 C   0  0  0  0  0  0  0  0  0  0  0  0
    1.4584   -2.4792    8.6449 O   0  0  0  0  0  0  0  0  0  0  0  0
    1.1792   -1.6922    9.7538 C   0  0  0  0  0  0  0  0  0  0  0  0
    0.3424   -0.5975    9.6898 C   0  0  0  0  0  0  0  0  0  0  0  0
    0.0939    0.1568   10.8191 C   0  0  0  0  0  0  0  0  0  0  0  0
    0.6584   -0.1404   12.0434 C   0  0  0  0  0  0  0  0  0  0  0  0
    1.4931   -1.2354   12.0988 C   0  0  0  0  0  0  0  0  0  0  0  0
    1.7550   -2.0092   10.9657 C   0  0  0  0  0  0  0  0  0  0  0  0
    2.6495   -3.1924   11.0192 C   0  0  0  0  0  0  0  0  0  0  0  0
    4.0646   -2.8431   10.8623 C   0  0  0  0  0  0  0  0  0  0  0  0
    5.0498   -3.7204   10.9588 C   0  0  0  0  0  0  0  0  0  0  0  0
    1.7562   -2.2338    5.0293 O   0  0  0  0  0  0  0  0  0  0  0  0
  1  2  1  0
  2  3  1  0
  2  4  1  0
  4  5  1  0
  5  6  1  0
  6  7  1  0
  7  8  1  0
  8  9  1  0
  9 10  2  0
 10 11  1  0
 11 12  2  0
 12 13  1  0
 13 14  2  0
 14 15  1  0
 15 16  1  0
 16 17  2  0
  6 18  1  0
 14  9  1  0
M  END
$$$$
