
     RDKit          3D

 18 18  0  0  0  0  0  0  0  0999 V2000
   -2.2777   -1.3083    9.7927 C   0  0  0  0  0  0  0  0  0  0  0  0
   -1.0927   -0.3793   10.0897 C   0  0  0  0  0  0  0  0  0  0  0  0
   -1.6738    0.9371   10.6134 C   0  0  0  0  0  0  0  0  0  0  0  0
   -0.3579   -0.9624   11.1639 N   0  0  0  0  0  0  0  0  0  0  0  0
    1.0350   -0.7076   11.1707 C   0  0  0  0  0  0  0  0  0  0  0  0
    1.9283   -1.9067   11.0049 C   0  0  0  0  0  0  0  0  0  0  0  0
    2.0840   -2.2009    9.5294 C   0  0  0  0  0  0  0  0  0  0  0  0
    3.1721   -3.0576    9.2708 O   0  0  0  0  0  0  0  0  0  0  0  0
    3.3895   -3.4406    7.9544 C   0  0  0  0  0  0  0  0  0  0  0  0
    2.5298   -3.0930    6.9332 C   0  0  0  0  0  0  0  0  0  0  0  0
    2.7864   -3.4971    5.6382 C   0  0  0  0  0  0  0  0  0  0  0  0
    3.8929   -4.2533    5.3071 C   0  0  0  0  0  0  0  0  0  0  0  0
    4.7467   -4.5963    6.3330 C   0  0  0  0  0  0  0  0  0  0  0  0
    4.5019   -4.1956    7.6486 C   0  0  0  0  0  0  0  0  0  0  0  0
    5.4194   -4.5578    8.7575 C   0  0  0  0  0  0  0  0  0  0  0  0
    6.6708   -5.1591    8.2869 C   0  0  0  0  0  0  0  0  0  0  0  0
    7.6389   -5.5601    9.0941 C   0  0  0  0  0  0  0  0  0  0  0  0
    3.1280   -1.7902   11.6561 O   0  0  0  0  0  0  0  0  0  0  0  0
  1  2  1  0
  2  3  1  0
  2  4  1  0
  4  5  1  0
  5  6  1  0
  6  7  1  0
  7  8  1  0
  8  9  1  0
  9 10  2  0
 10 11  1  0
 11 12  2  0
 12 13  1  0
 13 14  2  0
 14 15  1  0
 15 16  1  0
 16 17  2  0
  6 18  1  0
 14  9  1  0
M  END
$$$$
