
     RDKit          3D

 18 18  0  0  0  0  0  0  0  0999 V2000
    3.7050   -3.3758    5.3198 C   0  0  0  0  0  0  0  0  0  0  0  0
    4.4607   -4.4735    6.0809 C   0  0  0  0  0  0  0  0  0  0  0  0
    5.6263   -4.9160    5.1919 C   0  0  0  0  0  0  0  0  0  0  0  0
    5.0316   -3.8678    7.2390 N   0  0  0  0  0  0  0  0  0  0  0  0
    5.0010   -4.6450    8.4223 C   0  0  0  0  0  0  0  0  0  0  0  0
    4.8082   -3.8872    9.7075 C   0  0  0  0  0  0  0  0  0  0  0  0
    3.3327   -3.6140    9.8981 C   0  0  0  0  0  0  0  0  0  0  0  0
    3.0897   -2.3015   10.3484 O   0  0  0  0  0  0  0  0  0  0  0  0
    1.7675   -1.8906   10.4472 C   0  0  0  0  0  0  0  0  0  0  0  0
    0.7107   -2.7306   10.1638 C   0  0  0  0  0  0  0  0  0  0  0  0
   -0.5888   -2.2779   10.2757 C   0  0  0  0  0  0  0  0  0  0  0  0
   -0.8896   -0.9891   10.6686 C   0  0  0  0  0  0  0  0  0  0  0  0
    0.1717   -0.1564   10.9498 C   0  0  0  0  0  0  0  0  0  0  0  0
    1.4924   -0.5985   10.8419 C   0  0  0  0  0  0  0  0  0  0  0  0
    2.6401    0.2916   11.1474 C   0  0  0  0  0  0  0  0  0  0  0  0
    3.0885    0.1841   12.5389 C   0  0  0  0  0  0  0  0  0  0  0  0
    4.3451   -0.0368   12.8877 C   0  0  0  0  0  0  0  0  0  0  0  0
    5.3840   -4.4936   10.7926 O   0  0  0  0  0  0  0  0  0  0  0  0
  1  2  1  0
  2  3  1  0
  2  4  1  0
  4  5  1  0
  5  6  1  0
  6  7  1  0
  7  8  1  0
  8  9  1  0
  9 10  2  0
 10 11  1  0
 11 12  2  0
 12 13  1  0
 13 14  2  0
 14 15  1  0
 15 16  1  0
 16 17  2  0
  6 18  1  0
 14  9  1  0
M  END
$$$$
