
     RDKit          3D

 18 18  0  0  0  0  0  0  0  0999 V2000
    4.5448   -4.6891    7.6414 C   0  0  0  0  0  0  0  0  0  0  0  0
    4.6806   -3.6272    6.5416 C   0  0  0  0  0  0  0  0  0  0  0  0
    5.3151   -4.3143    5.3292 C   0  0  0  0  0  0  0  0  0  0  0  0
    3.3611   -3.2467    6.1568 N   0  0  0  0  0  0  0  0  0  0  0  0
    2.6831   -2.3791    7.0471 C   0  0  0  0  0  0  0  0  0  0  0  0
    1.2544   -2.0596    6.7009 C   0  0  0  0  0  0  0  0  0  0  0  0
    0.6676   -1.1940    7.7939 C   0  0  0  0  0  0  0  0  0  0  0  0
    0.9516   -1.6966    9.0790 O   0  0  0  0  0  0  0  0  0  0  0  0
    0.4243   -1.0141   10.1667 C   0  0  0  0  0  0  0  0  0  0  0  0
   -0.4458    0.0463   10.0212 C   0  0  0  0  0  0  0  0  0  0  0  0
   -0.9450    0.6958   11.1325 C   0  0  0  0  0  0  0  0  0  0  0  0
   -0.6057    0.3245   12.4182 C   0  0  0  0  0  0  0  0  0  0  0  0
    0.2639   -0.7357   12.5549 C   0  0  0  0  0  0  0  0  0  0  0  0
    0.7780   -1.4038   11.4410 C   0  0  0  0  0  0  0  0  0  0  0  0
    1.7116   -2.5491   11.5810 C   0  0  0  0  0  0  0  0  0  0  0  0
    1.0389   -3.8473   11.4761 C   0  0  0  0  0  0  0  0  0  0  0  0
    1.6774   -5.0056   11.4917 C   0  0  0  0  0  0  0  0  0  0  0  0
    1.1011   -1.5194    5.4513 O   0  0  0  0  0  0  0  0  0  0  0  0
  1  2  1  0
  2  3  1  0
  2  4  1  0
  4  5  1  0
  5  6  1  0
  6  7  1  0
  7  8  1  0
  8  9  1  0
  9 10  2  0
 10 11  1  0
 11 12  2  0
 12 13  1  0
 13 14  2  0
 14 15  1  0
 15 16  1  0
 16 17  2  0
  6 18  1  0
 14  9  1  0
M  END
$$$$
