
     RDKit          3D

 18 18  0  0  0  0  0  0  0  0999 V2000
    4.6690   -5.9595    5.3030 C   0  0  0  0  0  0  0  0  0  0  0  0
    4.7394   -4.9061    6.4169 C   0  0  0  0  0  0  0  0  0  0  0  0
    6.1950   -4.4383    6.5020 C   0  0  0  0  0  0  0  0  0  0  0  0
    3.9700   -3.7849    5.9869 N   0  0  0  0  0  0  0  0  0  0  0  0
    3.5886   -2.8715    6.9995 C   0  0  0  0  0  0  0  0  0  0  0  0
    2.8297   -1.6554    6.5428 C   0  0  0  0  0  0  0  0  0  0  0  0
    1.4905   -1.6216    7.2453 C   0  0  0  0  0  0  0  0  0  0  0  0
    1.6273   -1.5767    8.6468 O   0  0  0  0  0  0  0  0  0  0  0  0
    0.4759   -1.3875    9.3988 C   0  0  0  0  0  0  0  0  0  0  0  0
   -0.6777   -0.8558    8.8610 C   0  0  0  0  0  0  0  0  0  0  0  0
   -1.7993   -0.6854    9.6478 C   0  0  0  0  0  0  0  0  0  0  0  0
   -1.8223   -1.0314   10.9841 C   0  0  0  0  0  0  0  0  0  0  0  0
   -0.6660   -1.5618   11.5136 C   0  0  0  0  0  0  0  0  0  0  0  0
    0.4775   -1.7410   10.7315 C   0  0  0  0  0  0  0  0  0  0  0  0
    1.7248   -2.3157   11.2942 C   0  0  0  0  0  0  0  0  0  0  0  0
    2.5618   -1.3143   11.9619 C   0  0  0  0  0  0  0  0  0  0  0  0
    3.7484   -1.5815   12.4817 C   0  0  0  0  0  0  0  0  0  0  0  0
    3.5336   -0.4879    6.6777 O   0  0  0  0  0  0  0  0  0  0  0  0
  1  2  1  0
  2  3  1  0
  2  4  1  0
  4  5  1  0
  5  6  1  0
  6  7  1  0
  7  8  1  0
  8  9  1  0
  9 10  2  0
 10 11  1  0
 11 12  2  0
 12 13  1  0
 13 14  2  0
 14 15  1  0
 15 16  1  0
 16 17  2  0
  6 18  1  0
 14  9  1  0
M  END
$$$$
