
     RDKit          3D

 18 18  0  0  0  0  0  0  0  0999 V2000
    6.9649   -3.9477   11.7104 C   0  0  0  0  0  0  0  0  0  0  0  0
    5.7789   -3.1764   12.3053 C   0  0  0  0  0  0  0  0  0  0  0  0
    6.2889   -2.4681   13.5635 C   0  0  0  0  0  0  0  0  0  0  0  0
    5.4272   -2.1572   11.3718 N   0  0  0  0  0  0  0  0  0  0  0  0
    4.3334   -2.4484   10.5210 C   0  0  0  0  0  0  0  0  0  0  0  0
    3.3120   -1.3559   10.3580 C   0  0  0  0  0  0  0  0  0  0  0  0
    2.7675   -1.4012    8.9475 C   0  0  0  0  0  0  0  0  0  0  0  0
    3.5845   -2.1609    8.0873 O   0  0  0  0  0  0  0  0  0  0  0  0
    3.0991   -2.4345    6.8159 C   0  0  0  0  0  0  0  0  0  0  0  0
    1.8490   -2.0262    6.3996 C   0  0  0  0  0  0  0  0  0  0  0  0
    1.4078   -2.3216    5.1252 C   0  0  0  0  0  0  0  0  0  0  0  0
    2.1793   -3.0255    4.2223 C   0  0  0  0  0  0  0  0  0  0  0  0
    3.4267   -3.4298    4.6459 C   0  0  0  0  0  0  0  0  0  0  0  0
    3.8884   -3.1390    5.9318 C   0  0  0  0  0  0  0  0  0  0  0  0
    5.2325   -3.5676    6.3932 C   0  0  0  0  0  0  0  0  0  0  0  0
    5.2370   -4.9237    6.9499 C   0  0  0  0  0  0  0  0  0  0  0  0
    5.5270   -5.1957    8.2115 C   0  0  0  0  0  0  0  0  0  0  0  0
    2.3286   -1.3788   11.3115 O   0  0  0  0  0  0  0  0  0  0  0  0
  1  2  1  0
  2  3  1  0
  2  4  1  0
  4  5  1  0
  5  6  1  0
  6  7  1  0
  7  8  1  0
  8  9  1  0
  9 10  2  0
 10 11  1  0
 11 12  2  0
 12 13  1  0
 13 14  2  0
 14 15  1  0
 15 16  1  0
 16 17  2  0
  6 18  1  0
 14  9  1  0
M  END
$$$$
