
     RDKit          3D

 18 18  0  0  0  0  0  0  0  0999 V2000
    0.9377   -1.4814   12.2148 C   0  0  0  0  0  0  0  0  0  0  0  0
   -0.2484   -1.5263   11.2418 C   0  0  0  0  0  0  0  0  0  0  0  0
   -1.3336   -0.6096   11.8134 C   0  0  0  0  0  0  0  0  0  0  0  0
    0.1869   -0.9374   10.0180 N   0  0  0  0  0  0  0  0  0  0  0  0
    1.1238   -1.6894    9.2685 C   0  0  0  0  0  0  0  0  0  0  0  0
    1.5804   -1.0761    7.9729 C   0  0  0  0  0  0  0  0  0  0  0  0
    2.2215   -2.1500    7.1221 C   0  0  0  0  0  0  0  0  0  0  0  0
    3.4855   -2.5320    7.6129 O   0  0  0  0  0  0  0  0  0  0  0  0
    4.2013   -3.4709    6.8828 C   0  0  0  0  0  0  0  0  0  0  0  0
    4.0527   -3.6146    5.5190 C   0  0  0  0  0  0  0  0  0  0  0  0
    4.7859   -4.5629    4.8341 C   0  0  0  0  0  0  0  0  0  0  0  0
    5.6859   -5.3974    5.4662 C   0  0  0  0  0  0  0  0  0  0  0  0
    5.8284   -5.2475    6.8286 C   0  0  0  0  0  0  0  0  0  0  0  0
    5.0944   -4.2929    7.5367 C   0  0  0  0  0  0  0  0  0  0  0  0
    5.2462   -4.1231    9.0033 C   0  0  0  0  0  0  0  0  0  0  0  0
    6.3902   -3.2799    9.3628 C   0  0  0  0  0  0  0  0  0  0  0  0
    6.7308   -3.0019   10.6104 C   0  0  0  0  0  0  0  0  0  0  0  0
    0.5945   -0.3900    7.3141 O   0  0  0  0  0  0  0  0  0  0  0  0
  1  2  1  0
  2  3  1  0
  2  4  1  0
  4  5  1  0
  5  6  1  0
  6  7  1  0
  7  8  1  0
  8  9  1  0
  9 10  2  0
 10 11  1  0
 11 12  2  0
 12 13  1  0
 13 14  2  0
 14 15  1  0
 15 16  1  0
 16 17  2  0
  6 18  1  0
 14  9  1  0
M  END
$$$$
