
     RDKit          3D

 18 18  0  0  0  0  0  0  0  0999 V2000
    4.6557   -4.9368    7.1432 C   0  0  0  0  0  0  0  0  0  0  0  0
    4.4618   -3.7137    6.2367 C   0  0  0  0  0  0  0  0  0  0  0  0
    4.5917   -4.2007    4.7908 C   0  0  0  0  0  0  0  0  0  0  0  0
    3.1158   -3.2730    6.4045 N   0  0  0  0  0  0  0  0  0  0  0  0
    2.9018   -2.3126    7.4228 C   0  0  0  0  0  0  0  0  0  0  0  0
    1.4839   -1.8429    7.6026 C   0  0  0  0  0  0  0  0  0  0  0  0
    1.4182   -0.9361    8.8115 C   0  0  0  0  0  0  0  0  0  0  0  0
    2.1403   -1.4549    9.9042 O   0  0  0  0  0  0  0  0  0  0  0  0
    2.0798   -0.7582   11.1033 C   0  0  0  0  0  0  0  0  0  0  0  0
    1.2518    0.3302   11.2834 C   0  0  0  0  0  0  0  0  0  0  0  0
    1.2252    0.9929   12.4942 C   0  0  0  0  0  0  0  0  0  0  0  0
    2.0093    0.6078   13.5632 C   0  0  0  0  0  0  0  0  0  0  0  0
    2.8337   -0.4803   13.3751 C   0  0  0  0  0  0  0  0  0  0  0  0
    2.8726   -1.1621   12.1566 C   0  0  0  0  0  0  0  0  0  0  0  0
    3.7549   -2.3374   11.9485 C   0  0  0  0  0  0  0  0  0  0  0  0
    5.1566   -1.9654   11.7341 C   0  0  0  0  0  0  0  0  0  0  0  0
    6.0562   -1.9140   12.7024 C   0  0  0  0  0  0  0  0  0  0  0  0
    0.9487   -1.2732    6.4775 O   0  0  0  0  0  0  0  0  0  0  0  0
  1  2  1  0
  2  3  1  0
  2  4  1  0
  4  5  1  0
  5  6  1  0
  6  7  1  0
  7  8  1  0
  8  9  1  0
  9 10  2  0
 10 11  1  0
 11 12  2  0
 12 13  1  0
 13 14  2  0
 14 15  1  0
 15 16  1  0
 16 17  2  0
  6 18  1  0
 14  9  1  0
M  END
$$$$
