
     RDKit          3D

 18 18  0  0  0  0  0  0  0  0999 V2000
   -2.3572   -1.5002   12.1861 C   0  0  0  0  0  0  0  0  0  0  0  0
   -1.7577   -0.7053   11.0181 C   0  0  0  0  0  0  0  0  0  0  0  0
   -1.9216    0.7797   11.3540 C   0  0  0  0  0  0  0  0  0  0  0  0
   -0.3568   -0.9723   11.0007 N   0  0  0  0  0  0  0  0  0  0  0  0
    0.1422   -1.5815    9.8239 C   0  0  0  0  0  0  0  0  0  0  0  0
    1.6193   -1.8659    9.8006 C   0  0  0  0  0  0  0  0  0  0  0  0
    1.9577   -2.5932    8.5182 C   0  0  0  0  0  0  0  0  0  0  0  0
    3.3455   -2.7795    8.3639 O   0  0  0  0  0  0  0  0  0  0  0  0
    3.7736   -3.5784    7.3125 C   0  0  0  0  0  0  0  0  0  0  0  0
    2.9917   -3.8172    6.2015 C   0  0  0  0  0  0  0  0  0  0  0  0
    3.4591   -4.6193    5.1797 C   0  0  0  0  0  0  0  0  0  0  0  0
    4.7063   -5.2103    5.2175 C   0  0  0  0  0  0  0  0  0  0  0  0
    5.4810   -4.9667    6.3308 C   0  0  0  0  0  0  0  0  0  0  0  0
    5.0233   -4.1575    7.3734 C   0  0  0  0  0  0  0  0  0  0  0  0
    5.8541   -3.8875    8.5733 C   0  0  0  0  0  0  0  0  0  0  0  0
    5.8736   -5.0102    9.5159 C   0  0  0  0  0  0  0  0  0  0  0  0
    5.8531   -4.8624   10.8302 C   0  0  0  0  0  0  0  0  0  0  0  0
    2.3943   -0.7550   10.0054 O   0  0  0  0  0  0  0  0  0  0  0  0
  1  2  1  0
  2  3  1  0
  2  4  1  0
  4  5  1  0
  5  6  1  0
  6  7  1  0
  7  8  1  0
  8  9  1  0
  9 10  2  0
 10 11  1  0
 11 12  2  0
 12 13  1  0
 13 14  2  0
 14 15  1  0
 15 16  1  0
 16 17  2  0
  6 18  1  0
 14  9  1  0
M  END
$$$$
