
     RDKit          3D

 18 18  0  0  0  0  0  0  0  0999 V2000
    1.2503    1.4080   12.6332 C   0  0  0  0  0  0  0  0  0  0  0  0
    1.5595   -0.0442   12.2450 C   0  0  0  0  0  0  0  0  0  0  0  0
    0.9684   -0.9376   13.3392 C   0  0  0  0  0  0  0  0  0  0  0  0
    0.8366   -0.3244   11.0480 N   0  0  0  0  0  0  0  0  0  0  0  0
    1.6063   -0.7937    9.9560 C   0  0  0  0  0  0  0  0  0  0  0  0
    0.8587   -1.0303    8.6721 C   0  0  0  0  0  0  0  0  0  0  0  0
    1.8316   -1.5195    7.6222 C   0  0  0  0  0  0  0  0  0  0  0  0
    2.5348   -2.6654    8.0429 O   0  0  0  0  0  0  0  0  0  0  0  0
    3.3501   -3.2962    7.1132 C   0  0  0  0  0  0  0  0  0  0  0  0
    3.1767   -3.1405    5.7537 C   0  0  0  0  0  0  0  0  0  0  0  0
    4.0121   -3.7883    4.8658 C   0  0  0  0  0  0  0  0  0  0  0  0
    5.0415   -4.6072    5.2849 C   0  0  0  0  0  0  0  0  0  0  0  0
    5.2080   -4.7575    6.6446 C   0  0  0  0  0  0  0  0  0  0  0  0
    4.3717   -4.1091    7.5565 C   0  0  0  0  0  0  0  0  0  0  0  0
    4.5481   -4.2631    9.0221 C   0  0  0  0  0  0  0  0  0  0  0  0
    5.6221   -3.4210    9.5572 C   0  0  0  0  0  0  0  0  0  0  0  0
    6.6167   -3.8850   10.2955 C   0  0  0  0  0  0  0  0  0  0  0  0
   -0.2299   -1.8497    8.8151 O   0  0  0  0  0  0  0  0  0  0  0  0
  1  2  1  0
  2  3  1  0
  2  4  1  0
  4  5  1  0
  5  6  1  0
  6  7  1  0
  7  8  1  0
  8  9  1  0
  9 10  2  0
 10 11  1  0
 11 12  2  0
 12 13  1  0
 13 14  2  0
 14 15  1  0
 15 16  1  0
 16 17  2  0
  6 18  1  0
 14  9  1  0
M  END
$$$$
