
     RDKit          3D

 18 18  0  0  0  0  0  0  0  0999 V2000
   -1.5409   -1.8656   11.4311 C   0  0  0  0  0  0  0  0  0  0  0  0
   -0.5142   -1.3161   10.4314 C   0  0  0  0  0  0  0  0  0  0  0  0
   -0.6652    0.2077   10.4239 C   0  0  0  0  0  0  0  0  0  0  0  0
    0.7807   -1.6000   10.9570 N   0  0  0  0  0  0  0  0  0  0  0  0
    1.8130   -1.7669   10.0021 C   0  0  0  0  0  0  0  0  0  0  0  0
    3.1666   -2.1325   10.5473 C   0  0  0  0  0  0  0  0  0  0  0  0
    3.7527   -3.2401    9.7001 C   0  0  0  0  0  0  0  0  0  0  0  0
    3.7330   -2.9253    8.3271 O   0  0  0  0  0  0  0  0  0  0  0  0
    4.2884   -3.8457    7.4489 C   0  0  0  0  0  0  0  0  0  0  0  0
    4.9992   -4.9449    7.8841 C   0  0  0  0  0  0  0  0  0  0  0  0
    5.5342   -5.8340    6.9735 C   0  0  0  0  0  0  0  0  0  0  0  0
    5.3879   -5.6714    5.6104 C   0  0  0  0  0  0  0  0  0  0  0  0
    4.6766   -4.5709    5.1839 C   0  0  0  0  0  0  0  0  0  0  0  0
    4.1286   -3.6617    6.0919 C   0  0  0  0  0  0  0  0  0  0  0  0
    3.3578   -2.4767    5.6396 C   0  0  0  0  0  0  0  0  0  0  0  0
    1.9225   -2.7468    5.5117 C   0  0  0  0  0  0  0  0  0  0  0  0
    1.0036   -2.2054    6.2941 C   0  0  0  0  0  0  0  0  0  0  0  0
    4.0096   -1.0613   10.6842 O   0  0  0  0  0  0  0  0  0  0  0  0
  1  2  1  0
  2  3  1  0
  2  4  1  0
  4  5  1  0
  5  6  1  0
  6  7  1  0
  7  8  1  0
  8  9  1  0
  9 10  2  0
 10 11  1  0
 11 12  2  0
 12 13  1  0
 13 14  2  0
 14 15  1  0
 15 16  1  0
 16 17  2  0
  6 18  1  0
 14  9  1  0
M  END
$$$$
