
     RDKit          3D

 18 18  0  0  0  0  0  0  0  0999 V2000
    0.9158    0.5495   12.4520 C   0  0  0  0  0  0  0  0  0  0  0  0
    0.4487   -0.8168   11.9318 C   0  0  0  0  0  0  0  0  0  0  0  0
   -0.9131   -1.1000   12.5722 C   0  0  0  0  0  0  0  0  0  0  0  0
    0.2253   -0.6809   10.5298 N   0  0  0  0  0  0  0  0  0  0  0  0
    1.2574   -1.1639    9.6893 C   0  0  0  0  0  0  0  0  0  0  0  0
    1.0048   -1.0695    8.2092 C   0  0  0  0  0  0  0  0  0  0  0  0
    2.2475   -1.5153    7.4710 C   0  0  0  0  0  0  0  0  0  0  0  0
    2.6456   -2.8156    7.8388 O   0  0  0  0  0  0  0  0  0  0  0  0
    3.6238   -3.4299    7.0689 C   0  0  0  0  0  0  0  0  0  0  0  0
    3.5455   -3.4981    5.6934 C   0  0  0  0  0  0  0  0  0  0  0  0
    4.5426   -4.1198    4.9685 C   0  0  0  0  0  0  0  0  0  0  0  0
    5.6449   -4.6923    5.5711 C   0  0  0  0  0  0  0  0  0  0  0  0
    5.7156   -4.6198    6.9453 C   0  0  0  0  0  0  0  0  0  0  0  0
    4.7155   -3.9944    7.6937 C   0  0  0  0  0  0  0  0  0  0  0  0
    4.7874   -3.9090    9.1737 C   0  0  0  0  0  0  0  0  0  0  0  0
    6.0006   -4.5240    9.7206 C   0  0  0  0  0  0  0  0  0  0  0  0
    6.2990   -4.5334   11.0092 C   0  0  0  0  0  0  0  0  0  0  0  0
   -0.1242   -1.7307    7.8029 O   0  0  0  0  0  0  0  0  0  0  0  0
  1  2  1  0
  2  3  1  0
  2  4  1  0
  4  5  1  0
  5  6  1  0
  6  7  1  0
  7  8  1  0
  8  9  1  0
  9 10  2  0
 10 11  1  0
 11 12  2  0
 12 13  1  0
 13 14  2  0
 14 15  1  0
 15 16  1  0
 16 17  2  0
  6 18  1  0
 14  9  1  0
M  END
$$$$
