
     RDKit          3D

 18 18  0  0  0  0  0  0  0  0999 V2000
    6.0195   -6.1084    8.8150 C   0  0  0  0  0  0  0  0  0  0  0  0
    5.7393   -5.5078   10.1993 C   0  0  0  0  0  0  0  0  0  0  0  0
    7.0050   -5.7033   11.0387 C   0  0  0  0  0  0  0  0  0  0  0  0
    5.5732   -4.1023   10.0240 N   0  0  0  0  0  0  0  0  0  0  0  0
    4.6385   -3.4777   10.8850 C   0  0  0  0  0  0  0  0  0  0  0  0
    4.4147   -2.0065   10.6639 C   0  0  0  0  0  0  0  0  0  0  0  0
    3.0675   -1.8099   10.0048 C   0  0  0  0  0  0  0  0  0  0  0  0
    3.1683   -1.7410    8.6013 O   0  0  0  0  0  0  0  0  0  0  0  0
    2.0075   -1.4804    7.8859 C   0  0  0  0  0  0  0  0  0  0  0  0
    0.8799   -0.9497    8.4771 C   0  0  0  0  0  0  0  0  0  0  0  0
   -0.2526   -0.7075    7.7256 C   0  0  0  0  0  0  0  0  0  0  0  0
   -0.3122   -0.9784    6.3731 C   0  0  0  0  0  0  0  0  0  0  0  0
    0.8184   -1.5084    5.7903 C   0  0  0  0  0  0  0  0  0  0  0  0
    1.9725   -1.7594    6.5362 C   0  0  0  0  0  0  0  0  0  0  0  0
    3.1951   -2.3260    5.9140 C   0  0  0  0  0  0  0  0  0  0  0  0
    3.1387   -3.7843    5.7745 C   0  0  0  0  0  0  0  0  0  0  0  0
    4.2031   -4.5670    5.8376 C   0  0  0  0  0  0  0  0  0  0  0  0
    4.5704   -1.2524   11.7970 O   0  0  0  0  0  0  0  0  0  0  0  0
  1  2  1  0
  2  3  1  0
  2  4  1  0
  4  5  1  0
  5  6  1  0
  6  7  1  0
  7  8  1  0
  8  9  1  0
  9 10  2  0
 10 11  1  0
 11 12  2  0
 12 13  1  0
 13 14  2  0
 14 15  1  0
 15 16  1  0
 16 17  2  0
  6 18  1  0
 14  9  1  0
M  END
$$$$
