
     RDKit          3D

 18 18  0  0  0  0  0  0  0  0999 V2000
    0.5541   -2.2549   13.7850 C   0  0  0  0  0  0  0  0  0  0  0  0
   -0.6159   -2.4098   12.8039 C   0  0  0  0  0  0  0  0  0  0  0  0
   -1.5747   -1.2436   13.0599 C   0  0  0  0  0  0  0  0  0  0  0  0
   -0.0913   -2.2321   11.4897 N   0  0  0  0  0  0  0  0  0  0  0  0
    0.1978   -3.4188   10.7733 C   0  0  0  0  0  0  0  0  0  0  0  0
    0.7439   -3.2368    9.3834 C   0  0  0  0  0  0  0  0  0  0  0  0
    2.1617   -2.7185    9.4784 C   0  0  0  0  0  0  0  0  0  0  0  0
    3.0732   -3.5343    8.7796 O   0  0  0  0  0  0  0  0  0  0  0  0
    4.4179   -3.1959    8.8434 C   0  0  0  0  0  0  0  0  0  0  0  0
    4.8625   -2.0554    9.4792 C   0  0  0  0  0  0  0  0  0  0  0  0
    6.2103   -1.7590    9.5171 C   0  0  0  0  0  0  0  0  0  0  0  0
    7.1610   -2.5720    8.9331 C   0  0  0  0  0  0  0  0  0  0  0  0
    6.7087   -3.7094    8.3000 C   0  0  0  0  0  0  0  0  0  0  0  0
    5.3486   -4.0241    8.2526 C   0  0  0  0  0  0  0  0  0  0  0  0
    4.8549   -5.2495    7.5763 C   0  0  0  0  0  0  0  0  0  0  0  0
    4.1775   -4.9653    6.3076 C   0  0  0  0  0  0  0  0  0  0  0  0
    4.4961   -5.5450    5.1622 C   0  0  0  0  0  0  0  0  0  0  0  0
    0.6355   -4.3564    8.6014 O   0  0  0  0  0  0  0  0  0  0  0  0
  1  2  1  0
  2  3  1  0
  2  4  1  0
  4  5  1  0
  5  6  1  0
  6  7  1  0
  7  8  1  0
  8  9  1  0
  9 10  2  0
 10 11  1  0
 11 12  2  0
 12 13  1  0
 13 14  2  0
 14 15  1  0
 15 16  1  0
 16 17  2  0
  6 18  1  0
 14  9  1  0
M  END
$$$$
