
     RDKit          3D

 18 18  0  0  0  0  0  0  0  0999 V2000
    5.1300   -3.9139    7.3973 C   0  0  0  0  0  0  0  0  0  0  0  0
    4.2212   -3.4444    6.2531 C   0  0  0  0  0  0  0  0  0  0  0  0
    3.9889   -4.6511    5.3395 C   0  0  0  0  0  0  0  0  0  0  0  0
    2.9585   -3.1115    6.8264 N   0  0  0  0  0  0  0  0  0  0  0  0
    2.2400   -2.0757    6.1813 C   0  0  0  0  0  0  0  0  0  0  0  0
    0.9114   -1.7145    6.7873 C   0  0  0  0  0  0  0  0  0  0  0  0
    1.1502   -0.9563    8.0742 C   0  0  0  0  0  0  0  0  0  0  0  0
    1.1857   -1.8098    9.1945 O   0  0  0  0  0  0  0  0  0  0  0  0
    0.9786   -1.2399   10.4432 C   0  0  0  0  0  0  0  0  0  0  0  0
    0.2664   -0.0707   10.6117 C   0  0  0  0  0  0  0  0  0  0  0  0
    0.0861    0.4599   11.8735 C   0  0  0  0  0  0  0  0  0  0  0  0
    0.5986   -0.1405   13.0061 C   0  0  0  0  0  0  0  0  0  0  0  0
    1.3087   -1.3080   12.8292 C   0  0  0  0  0  0  0  0  0  0  0  0
    1.5003   -1.8583   11.5596 C   0  0  0  0  0  0  0  0  0  0  0  0
    2.2604   -3.1177   11.3622 C   0  0  0  0  0  0  0  0  0  0  0  0
    1.4043   -4.3076   11.3813 C   0  0  0  0  0  0  0  0  0  0  0  0
    1.7572   -5.4713   10.8608 C   0  0  0  0  0  0  0  0  0  0  0  0
    0.0773   -1.0536    5.9246 O   0  0  0  0  0  0  0  0  0  0  0  0
  1  2  1  0
  2  3  1  0
  2  4  1  0
  4  5  1  0
  5  6  1  0
  6  7  1  0
  7  8  1  0
  8  9  1  0
  9 10  2  0
 10 11  1  0
 11 12  2  0
 12 13  1  0
 13 14  2  0
 14 15  1  0
 15 16  1  0
 16 17  2  0
  6 18  1  0
 14  9  1  0
M  END
$$$$
