
     RDKit          3D

 18 18  0  0  0  0  0  0  0  0999 V2000
   -2.3323   -1.2992    8.3207 C   0  0  0  0  0  0  0  0  0  0  0  0
   -0.9120   -1.7618    7.9684 C   0  0  0  0  0  0  0  0  0  0  0  0
   -0.6077   -1.2457    6.5592 C   0  0  0  0  0  0  0  0  0  0  0  0
   -0.0178   -1.0925    8.8551 N   0  0  0  0  0  0  0  0  0  0  0  0
    1.2022   -1.7595    9.1232 C   0  0  0  0  0  0  0  0  0  0  0  0
    2.1352   -1.0731   10.0832 C   0  0  0  0  0  0  0  0  0  0  0  0
    3.2111   -2.0499   10.5031 C   0  0  0  0  0  0  0  0  0  0  0  0
    3.8979   -2.5905    9.3982 O   0  0  0  0  0  0  0  0  0  0  0  0
    5.0765   -3.2797    9.6489 C   0  0  0  0  0  0  0  0  0  0  0  0
    5.5964   -3.4147   10.9194 C   0  0  0  0  0  0  0  0  0  0  0  0
    6.7725   -4.1090   11.1211 C   0  0  0  0  0  0  0  0  0  0  0  0
    7.4727   -4.6910   10.0832 C   0  0  0  0  0  0  0  0  0  0  0  0
    6.9466   -4.5515    8.8172 C   0  0  0  0  0  0  0  0  0  0  0  0
    5.7577   -3.8524    8.5959 C   0  0  0  0  0  0  0  0  0  0  0  0
    5.1833   -3.7020    7.2356 C   0  0  0  0  0  0  0  0  0  0  0  0
    4.6973   -4.9687    6.6803 C   0  0  0  0  0  0  0  0  0  0  0  0
    3.7189   -5.0515    5.7940 C   0  0  0  0  0  0  0  0  0  0  0  0
    2.6415    0.1069    9.6058 O   0  0  0  0  0  0  0  0  0  0  0  0
  1  2  1  0
  2  3  1  0
  2  4  1  0
  4  5  1  0
  5  6  1  0
  6  7  1  0
  7  8  1  0
  8  9  1  0
  9 10  2  0
 10 11  1  0
 11 12  2  0
 12 13  1  0
 13 14  2  0
 14 15  1  0
 15 16  1  0
 16 17  2  0
  6 18  1  0
 14  9  1  0
M  END
$$$$
