
     RDKit          3D

 18 18  0  0  0  0  0  0  0  0999 V2000
    1.3944   -0.5763   13.3161 C   0  0  0  0  0  0  0  0  0  0  0  0
    1.7014   -0.0381   11.9120 C   0  0  0  0  0  0  0  0  0  0  0  0
    3.1534    0.4482   11.9246 C   0  0  0  0  0  0  0  0  0  0  0  0
    1.6444   -1.1445   11.0139 N   0  0  0  0  0  0  0  0  0  0  0  0
    1.1192   -0.8707    9.7277 C   0  0  0  0  0  0  0  0  0  0  0  0
    0.4689   -2.0269    9.0181 C   0  0  0  0  0  0  0  0  0  0  0  0
    1.3459   -2.4457    7.8589 C   0  0  0  0  0  0  0  0  0  0  0  0
    2.6411   -2.8091    8.2774 O   0  0  0  0  0  0  0  0  0  0  0  0
    3.4855   -3.3770    7.3332 C   0  0  0  0  0  0  0  0  0  0  0  0
    3.1452   -3.4697    5.9997 C   0  0  0  0  0  0  0  0  0  0  0  0
    4.0173   -4.0433    5.0961 C   0  0  0  0  0  0  0  0  0  0  0  0
    5.2479   -4.5423    5.4737 C   0  0  0  0  0  0  0  0  0  0  0  0
    5.5802   -4.4458    6.8075 C   0  0  0  0  0  0  0  0  0  0  0  0
    4.7096   -3.8683    7.7347 C   0  0  0  0  0  0  0  0  0  0  0  0
    5.0629   -3.7573    9.1720 C   0  0  0  0  0  0  0  0  0  0  0  0
    5.2265   -5.0621    9.8199 C   0  0  0  0  0  0  0  0  0  0  0  0
    5.4814   -5.2120   11.1091 C   0  0  0  0  0  0  0  0  0  0  0  0
    0.1471   -3.0681    9.8482 O   0  0  0  0  0  0  0  0  0  0  0  0
  1  2  1  0
  2  3  1  0
  2  4  1  0
  4  5  1  0
  5  6  1  0
  6  7  1  0
  7  8  1  0
  8  9  1  0
  9 10  2  0
 10 11  1  0
 11 12  2  0
 12 13  1  0
 13 14  2  0
 14 15  1  0
 15 16  1  0
 16 17  2  0
  6 18  1  0
 14  9  1  0
M  END
$$$$
