
     RDKit          3D

 18 18  0  0  0  0  0  0  0  0999 V2000
   -1.3377   -1.0368   11.4683 C   0  0  0  0  0  0  0  0  0  0  0  0
    0.1127   -1.4086   11.1316 C   0  0  0  0  0  0  0  0  0  0  0  0
    0.3052   -2.8744   11.5303 C   0  0  0  0  0  0  0  0  0  0  0  0
    0.2464   -1.3456    9.7132 N   0  0  0  0  0  0  0  0  0  0  0  0
    1.5432   -1.0517    9.2265 C   0  0  0  0  0  0  0  0  0  0  0  0
    1.6478   -0.7608    7.7542 C   0  0  0  0  0  0  0  0  0  0  0  0
    2.2217   -1.9732    7.0552 C   0  0  0  0  0  0  0  0  0  0  0  0
    3.3509   -2.4863    7.7233 O   0  0  0  0  0  0  0  0  0  0  0  0
    4.0493   -3.5156    7.1072 C   0  0  0  0  0  0  0  0  0  0  0  0
    3.8474   -3.8568    5.7860 C   0  0  0  0  0  0  0  0  0  0  0  0
    4.5654   -4.8887    5.2152 C   0  0  0  0  0  0  0  0  0  0  0  0
    5.5017   -5.6156    5.9229 C   0  0  0  0  0  0  0  0  0  0  0  0
    5.6974   -5.2684    7.2420 C   0  0  0  0  0  0  0  0  0  0  0  0
    4.9795   -4.2270    7.8349 C   0  0  0  0  0  0  0  0  0  0  0  0
    5.1884   -3.8449    9.2538 C   0  0  0  0  0  0  0  0  0  0  0  0
    6.3739   -3.0048    9.4480 C   0  0  0  0  0  0  0  0  0  0  0  0
    7.3289   -3.2776   10.3216 C   0  0  0  0  0  0  0  0  0  0  0  0
    0.4737   -0.3283    7.1965 O   0  0  0  0  0  0  0  0  0  0  0  0
  1  2  1  0
  2  3  1  0
  2  4  1  0
  4  5  1  0
  5  6  1  0
  6  7  1  0
  7  8  1  0
  8  9  1  0
  9 10  2  0
 10 11  1  0
 11 12  2  0
 12 13  1  0
 13 14  2  0
 14 15  1  0
 15 16  1  0
 16 17  2  0
  6 18  1  0
 14  9  1  0
M  END
$$$$
