
     RDKit          3D

 18 18  0  0  0  0  0  0  0  0999 V2000
   -3.0852   -1.4597    9.5874 C   0  0  0  0  0  0  0  0  0  0  0  0
   -1.8388   -1.0265   10.3712 C   0  0  0  0  0  0  0  0  0  0  0  0
   -1.3669   -2.2427   11.1731 C   0  0  0  0  0  0  0  0  0  0  0  0
   -0.8184   -0.7400    9.4169 N   0  0  0  0  0  0  0  0  0  0  0  0
    0.4804   -1.2002    9.7432 C   0  0  0  0  0  0  0  0  0  0  0  0
    1.5860   -0.7748    8.8158 C   0  0  0  0  0  0  0  0  0  0  0  0
    2.8661   -1.4657    9.2309 C   0  0  0  0  0  0  0  0  0  0  0  0
    3.4465   -2.1894    8.1707 O   0  0  0  0  0  0  0  0  0  0  0  0
    4.6368   -2.8570    8.4245 C   0  0  0  0  0  0  0  0  0  0  0  0
    5.3510   -2.6747    9.5905 C   0  0  0  0  0  0  0  0  0  0  0  0
    6.5309   -3.3604    9.7994 C   0  0  0  0  0  0  0  0  0  0  0  0
    7.0445   -4.2444    8.8717 C   0  0  0  0  0  0  0  0  0  0  0  0
    6.3251   -4.4209    7.7098 C   0  0  0  0  0  0  0  0  0  0  0  0
    5.1295   -3.7351    7.4826 C   0  0  0  0  0  0  0  0  0  0  0  0
    4.3474   -3.9236    6.2353 C   0  0  0  0  0  0  0  0  0  0  0  0
    4.5919   -5.2227    5.6015 C   0  0  0  0  0  0  0  0  0  0  0  0
    3.8802   -5.6880    4.5884 C   0  0  0  0  0  0  0  0  0  0  0  0
    1.2882   -0.9527    7.4905 O   0  0  0  0  0  0  0  0  0  0  0  0
  1  2  1  0
  2  3  1  0
  2  4  1  0
  4  5  1  0
  5  6  1  0
  6  7  1  0
  7  8  1  0
  8  9  1  0
  9 10  2  0
 10 11  1  0
 11 12  2  0
 12 13  1  0
 13 14  2  0
 14 15  1  0
 15 16  1  0
 16 17  2  0
  6 18  1  0
 14  9  1  0
M  END
$$$$
