
     RDKit          3D

 18 18  0  0  0  0  0  0  0  0999 V2000
   -0.6932   -2.2790   11.7268 C   0  0  0  0  0  0  0  0  0  0  0  0
   -1.0523   -2.0824   10.2477 C   0  0  0  0  0  0  0  0  0  0  0  0
   -2.4076   -1.3710   10.2048 C   0  0  0  0  0  0  0  0  0  0  0  0
   -0.0949   -1.1801    9.6971 N   0  0  0  0  0  0  0  0  0  0  0  0
    0.3998   -1.5113    8.4123 C   0  0  0  0  0  0  0  0  0  0  0  0
    1.4419   -0.5863    7.8452 C   0  0  0  0  0  0  0  0  0  0  0  0
    2.7913   -0.9589    8.4182 C   0  0  0  0  0  0  0  0  0  0  0  0
    3.3281   -2.1093    7.8074 O   0  0  0  0  0  0  0  0  0  0  0  0
    4.4798   -2.6522    8.3602 C   0  0  0  0  0  0  0  0  0  0  0  0
    5.1339   -2.0674    9.4246 C   0  0  0  0  0  0  0  0  0  0  0  0
    6.2771   -2.6433    9.9417 C   0  0  0  0  0  0  0  0  0  0  0  0
    6.8119   -3.8089    9.4304 C   0  0  0  0  0  0  0  0  0  0  0  0
    6.1525   -4.3867    8.3673 C   0  0  0  0  0  0  0  0  0  0  0  0
    4.9947   -3.8172    7.8323 C   0  0  0  0  0  0  0  0  0  0  0  0
    4.2771   -4.4365    6.6902 C   0  0  0  0  0  0  0  0  0  0  0  0
    5.1051   -4.5351    5.4844 C   0  0  0  0  0  0  0  0  0  0  0  0
    5.1281   -5.5981    4.6976 C   0  0  0  0  0  0  0  0  0  0  0  0
    1.4392   -0.5316    6.4763 O   0  0  0  0  0  0  0  0  0  0  0  0
  1  2  1  0
  2  3  1  0
  2  4  1  0
  4  5  1  0
  5  6  1  0
  6  7  1  0
  7  8  1  0
  8  9  1  0
  9 10  2  0
 10 11  1  0
 11 12  2  0
 12 13  1  0
 13 14  2  0
 14 15  1  0
 15 16  1  0
 16 17  2  0
  6 18  1  0
 14  9  1  0
M  END
$$$$
