
     RDKit          3D

 18 18  0  0  0  0  0  0  0  0999 V2000
    0.0842    1.5659   11.7500 C   0  0  0  0  0  0  0  0  0  0  0  0
    0.6260    0.1473   11.5277 C   0  0  0  0  0  0  0  0  0  0  0  0
   -0.0565   -0.7606   12.5546 C   0  0  0  0  0  0  0  0  0  0  0  0
    0.1813   -0.2776   10.2410 N   0  0  0  0  0  0  0  0  0  0  0  0
    1.0762   -1.1042    9.5191 C   0  0  0  0  0  0  0  0  0  0  0  0
    0.6867   -1.4220    8.1012 C   0  0  0  0  0  0  0  0  0  0  0  0
    1.9360   -1.7402    7.3099 C   0  0  0  0  0  0  0  0  0  0  0  0
    2.7140   -2.7404    7.9256 O   0  0  0  0  0  0  0  0  0  0  0  0
    3.6606   -3.3896    7.1450 C   0  0  0  0  0  0  0  0  0  0  0  0
    3.7535   -3.1937    5.7827 C   0  0  0  0  0  0  0  0  0  0  0  0
    4.7113   -3.8618    5.0463 C   0  0  0  0  0  0  0  0  0  0  0  0
    5.6053   -4.7410    5.6239 C   0  0  0  0  0  0  0  0  0  0  0  0
    5.5058   -4.9311    6.9851 C   0  0  0  0  0  0  0  0  0  0  0  0
    4.5427   -4.2629    7.7449 C   0  0  0  0  0  0  0  0  0  0  0  0
    4.4327   -4.4597    9.2120 C   0  0  0  0  0  0  0  0  0  0  0  0
    5.2686   -3.5280    9.9750 C   0  0  0  0  0  0  0  0  0  0  0  0
    5.3189   -3.5042   11.2965 C   0  0  0  0  0  0  0  0  0  0  0  0
   -0.2716   -2.3960    8.0015 O   0  0  0  0  0  0  0  0  0  0  0  0
  1  2  1  0
  2  3  1  0
  2  4  1  0
  4  5  1  0
  5  6  1  0
  6  7  1  0
  7  8  1  0
  8  9  1  0
  9 10  2  0
 10 11  1  0
 11 12  2  0
 12 13  1  0
 13 14  2  0
 14 15  1  0
 15 16  1  0
 16 17  2  0
  6 18  1  0
 14  9  1  0
M  END
$$$$
