
     RDKit          3D

 18 18  0  0  0  0  0  0  0  0999 V2000
    4.8655   -6.3730    5.3983 C   0  0  0  0  0  0  0  0  0  0  0  0
    4.4132   -5.7777    6.7386 C   0  0  0  0  0  0  0  0  0  0  0  0
    5.3440   -6.3396    7.8169 C   0  0  0  0  0  0  0  0  0  0  0  0
    4.6518   -4.3729    6.6786 N   0  0  0  0  0  0  0  0  0  0  0  0
    3.9698   -3.5881    7.6399 C   0  0  0  0  0  0  0  0  0  0  0  0
    4.1259   -2.0975    7.5091 C   0  0  0  0  0  0  0  0  0  0  0  0
    2.7534   -1.4663    7.4329 C   0  0  0  0  0  0  0  0  0  0  0  0
    2.0729   -1.5250    8.6650 O   0  0  0  0  0  0  0  0  0  0  0  0
    0.7806   -1.0203    8.7099 C   0  0  0  0  0  0  0  0  0  0  0  0
    0.2847   -0.1744    7.7397 C   0  0  0  0  0  0  0  0  0  0  0  0
   -1.0076    0.3036    7.8260 C   0  0  0  0  0  0  0  0  0  0  0  0
   -1.8510   -0.0341    8.8656 C   0  0  0  0  0  0  0  0  0  0  0  0
   -1.3480   -0.8795    9.8306 C   0  0  0  0  0  0  0  0  0  0  0  0
   -0.0428   -1.3721    9.7583 C   0  0  0  0  0  0  0  0  0  0  0  0
    0.5038   -2.2864   10.7918 C   0  0  0  0  0  0  0  0  0  0  0  0
    0.3153   -1.7813   12.1550 C   0  0  0  0  0  0  0  0  0  0  0  0
   -0.5490   -2.2969   13.0133 C   0  0  0  0  0  0  0  0  0  0  0  0
    4.9163   -1.5422    8.4806 O   0  0  0  0  0  0  0  0  0  0  0  0
  1  2  1  0
  2  3  1  0
  2  4  1  0
  4  5  1  0
  5  6  1  0
  6  7  1  0
  7  8  1  0
  8  9  1  0
  9 10  2  0
 10 11  1  0
 11 12  2  0
 12 13  1  0
 13 14  2  0
 14 15  1  0
 15 16  1  0
 16 17  2  0
  6 18  1  0
 14  9  1  0
M  END
$$$$
