
     RDKit          3D

 18 18  0  0  0  0  0  0  0  0999 V2000
    7.1216   -5.1114    7.4375 C   0  0  0  0  0  0  0  0  0  0  0  0
    5.6026   -4.8938    7.4669 C   0  0  0  0  0  0  0  0  0  0  0  0
    4.9554   -6.1668    6.9145 C   0  0  0  0  0  0  0  0  0  0  0  0
    5.2166   -4.7953    8.8363 N   0  0  0  0  0  0  0  0  0  0  0  0
    4.0555   -4.0282    9.0981 C   0  0  0  0  0  0  0  0  0  0  0  0
    3.9408   -3.4520   10.4830 C   0  0  0  0  0  0  0  0  0  0  0  0
    2.5257   -2.9609   10.6934 C   0  0  0  0  0  0  0  0  0  0  0  0
    2.0553   -2.2117    9.5969 O   0  0  0  0  0  0  0  0  0  0  0  0
    0.7847   -1.6610    9.6929 C   0  0  0  0  0  0  0  0  0  0  0  0
    0.1717   -1.4269   10.9062 C   0  0  0  0  0  0  0  0  0  0  0  0
   -1.0940   -0.8774   10.9530 C   0  0  0  0  0  0  0  0  0  0  0  0
   -1.7949   -0.5415    9.8121 C   0  0  0  0  0  0  0  0  0  0  0  0
   -1.1755   -0.7785    8.6042 C   0  0  0  0  0  0  0  0  0  0  0  0
    0.1047   -1.3337    8.5391 C   0  0  0  0  0  0  0  0  0  0  0  0
    0.7794   -1.5875    7.2417 C   0  0  0  0  0  0  0  0  0  0  0  0
    1.7663   -0.5578    6.9029 C   0  0  0  0  0  0  0  0  0  0  0  0
    2.2154   -0.3502    5.6761 C   0  0  0  0  0  0  0  0  0  0  0  0
    4.3622   -4.3057   11.4682 O   0  0  0  0  0  0  0  0  0  0  0  0
  1  2  1  0
  2  3  1  0
  2  4  1  0
  4  5  1  0
  5  6  1  0
  6  7  1  0
  7  8  1  0
  8  9  1  0
  9 10  2  0
 10 11  1  0
 11 12  2  0
 12 13  1  0
 13 14  2  0
 14 15  1  0
 15 16  1  0
 16 17  2  0
  6 18  1  0
 14  9  1  0
M  END
$$$$
