
     RDKit          3D

 18 18  0  0  0  0  0  0  0  0999 V2000
    2.1363    0.4167   12.3216 C   0  0  0  0  0  0  0  0  0  0  0  0
    1.0770   -0.5649   11.8023 C   0  0  0  0  0  0  0  0  0  0  0  0
   -0.2688   -0.1233   12.3844 C   0  0  0  0  0  0  0  0  0  0  0  0
    0.9937   -0.3879   10.3897 N   0  0  0  0  0  0  0  0  0  0  0  0
    0.6019   -1.5272    9.6456 C   0  0  0  0  0  0  0  0  0  0  0  0
    0.5275   -1.3502    8.1535 C   0  0  0  0  0  0  0  0  0  0  0  0
    1.9073   -1.5511    7.5672 C   0  0  0  0  0  0  0  0  0  0  0  0
    2.4947   -2.7585    7.9939 O   0  0  0  0  0  0  0  0  0  0  0  0
    3.5109   -3.2901    7.2118 C   0  0  0  0  0  0  0  0  0  0  0  0
    3.5351   -3.1519    5.8396 C   0  0  0  0  0  0  0  0  0  0  0  0
    4.5665   -3.6982    5.1022 C   0  0  0  0  0  0  0  0  0  0  0  0
    5.6037   -4.3954    5.6886 C   0  0  0  0  0  0  0  0  0  0  0  0
    5.5721   -4.5290    7.0598 C   0  0  0  0  0  0  0  0  0  0  0  0
    4.5361   -3.9823    7.8207 C   0  0  0  0  0  0  0  0  0  0  0  0
    4.4980   -4.1186    9.2982 C   0  0  0  0  0  0  0  0  0  0  0  0
    4.5103   -5.5161    9.7409 C   0  0  0  0  0  0  0  0  0  0  0  0
    4.2669   -5.8914   10.9857 C   0  0  0  0  0  0  0  0  0  0  0  0
   -0.4260   -2.1316    7.5560 O   0  0  0  0  0  0  0  0  0  0  0  0
  1  2  1  0
  2  3  1  0
  2  4  1  0
  4  5  1  0
  5  6  1  0
  6  7  1  0
  7  8  1  0
  8  9  1  0
  9 10  2  0
 10 11  1  0
 11 12  2  0
 12 13  1  0
 13 14  2  0
 14 15  1  0
 15 16  1  0
 16 17  2  0
  6 18  1  0
 14  9  1  0
M  END
$$$$
