
     RDKit          3D

 18 18  0  0  0  0  0  0  0  0999 V2000
    0.5253   -0.0255    8.7098 C   0  0  0  0  0  0  0  0  0  0  0  0
    0.3153   -0.6376   10.1015 C   0  0  0  0  0  0  0  0  0  0  0  0
   -1.1956   -0.7744   10.3090 C   0  0  0  0  0  0  0  0  0  0  0  0
    0.8484   -1.9599   10.0659 N   0  0  0  0  0  0  0  0  0  0  0  0
    2.1380   -2.1223   10.6279 C   0  0  0  0  0  0  0  0  0  0  0  0
    2.6054   -3.5400   10.8145 C   0  0  0  0  0  0  0  0  0  0  0  0
    2.8520   -4.1570    9.4556 C   0  0  0  0  0  0  0  0  0  0  0  0
    3.9846   -3.6094    8.8216 O   0  0  0  0  0  0  0  0  0  0  0  0
    4.3623   -4.1514    7.6007 C   0  0  0  0  0  0  0  0  0  0  0  0
    3.5915   -5.0830    6.9368 C   0  0  0  0  0  0  0  0  0  0  0  0
    4.0078   -5.5951    5.7242 C   0  0  0  0  0  0  0  0  0  0  0  0
    5.1912   -5.2087    5.1275 C   0  0  0  0  0  0  0  0  0  0  0  0
    5.9553   -4.2778    5.7971 C   0  0  0  0  0  0  0  0  0  0  0  0
    5.5488   -3.7496    7.0247 C   0  0  0  0  0  0  0  0  0  0  0  0
    6.3647   -2.7434    7.7492 C   0  0  0  0  0  0  0  0  0  0  0  0
    5.9574   -1.3653    7.4592 C   0  0  0  0  0  0  0  0  0  0  0  0
    6.4933   -0.3059    8.0424 C   0  0  0  0  0  0  0  0  0  0  0  0
    3.6793   -3.6564   11.6571 O   0  0  0  0  0  0  0  0  0  0  0  0
  1  2  1  0
  2  3  1  0
  2  4  1  0
  4  5  1  0
  5  6  1  0
  6  7  1  0
  7  8  1  0
  8  9  1  0
  9 10  2  0
 10 11  1  0
 11 12  2  0
 12 13  1  0
 13 14  2  0
 14 15  1  0
 15 16  1  0
 16 17  2  0
  6 18  1  0
 14  9  1  0
M  END
$$$$
