
     RDKit          3D

 18 18  0  0  0  0  0  0  0  0999 V2000
    4.3723   -5.2325    6.1088 C   0  0  0  0  0  0  0  0  0  0  0  0
    4.4756   -3.7257    6.3815 C   0  0  0  0  0  0  0  0  0  0  0  0
    5.0625   -3.0803    5.1230 C   0  0  0  0  0  0  0  0  0  0  0  0
    3.1457   -3.2292    6.5181 N   0  0  0  0  0  0  0  0  0  0  0  0
    2.9923   -2.0912    7.3467 C   0  0  0  0  0  0  0  0  0  0  0  0
    1.5806   -1.6254    7.5775 C   0  0  0  0  0  0  0  0  0  0  0  0
    1.0766   -2.2151    8.8761 C   0  0  0  0  0  0  0  0  0  0  0  0
    1.3939   -1.4062    9.9849 O   0  0  0  0  0  0  0  0  0  0  0  0
    1.2430   -1.9604   11.2487 C   0  0  0  0  0  0  0  0  0  0  0  0
    0.7799   -3.2455   11.4403 C   0  0  0  0  0  0  0  0  0  0  0  0
    0.6455   -3.7549   12.7164 C   0  0  0  0  0  0  0  0  0  0  0  0
    0.9613   -3.0193   13.8412 C   0  0  0  0  0  0  0  0  0  0  0  0
    1.4232   -1.7365   13.6411 C   0  0  0  0  0  0  0  0  0  0  0  0
    1.5651   -1.2059   12.3568 C   0  0  0  0  0  0  0  0  0  0  0  0
    2.0661    0.1733   12.1339 C   0  0  0  0  0  0  0  0  0  0  0  0
    3.4507    0.2048   11.6531 C   0  0  0  0  0  0  0  0  0  0  0  0
    4.1352    1.3211   11.4665 C   0  0  0  0  0  0  0  0  0  0  0  0
    1.4359   -0.2645    7.5169 O   0  0  0  0  0  0  0  0  0  0  0  0
  1  2  1  0
  2  3  1  0
  2  4  1  0
  4  5  1  0
  5  6  1  0
  6  7  1  0
  7  8  1  0
  8  9  1  0
  9 10  2  0
 10 11  1  0
 11 12  2  0
 12 13  1  0
 13 14  2  0
 14 15  1  0
 15 16  1  0
 16 17  2  0
  6 18  1  0
 14  9  1  0
M  END
$$$$
