
     RDKit          3D

 18 18  0  0  0  0  0  0  0  0999 V2000
   -1.1308   -2.1771   12.0925 C   0  0  0  0  0  0  0  0  0  0  0  0
   -0.3968   -2.4321   10.7690 C   0  0  0  0  0  0  0  0  0  0  0  0
   -1.4111   -2.2131    9.6430 C   0  0  0  0  0  0  0  0  0  0  0  0
    0.5954   -1.4165   10.6341 N   0  0  0  0  0  0  0  0  0  0  0  0
    1.7586   -1.7802    9.9131 C   0  0  0  0  0  0  0  0  0  0  0  0
    2.8461   -0.7430    9.8440 C   0  0  0  0  0  0  0  0  0  0  0  0
    3.8855   -1.1896    8.8399 C   0  0  0  0  0  0  0  0  0  0  0  0
    3.6425   -2.4950    8.3692 O   0  0  0  0  0  0  0  0  0  0  0  0
    4.7391   -3.2529    7.9822 C   0  0  0  0  0  0  0  0  0  0  0  0
    5.9992   -3.0479    8.5046 C   0  0  0  0  0  0  0  0  0  0  0  0
    7.0610   -3.8263    8.0891 C   0  0  0  0  0  0  0  0  0  0  0  0
    6.9182   -4.8280    7.1499 C   0  0  0  0  0  0  0  0  0  0  0  0
    5.6563   -5.0264    6.6330 C   0  0  0  0  0  0  0  0  0  0  0  0
    4.5712   -4.2478    7.0425 C   0  0  0  0  0  0  0  0  0  0  0  0
    3.2086   -4.4589    6.4932 C   0  0  0  0  0  0  0  0  0  0  0  0
    2.6509   -5.7687    6.8432 C   0  0  0  0  0  0  0  0  0  0  0  0
    1.9684   -6.0005    7.9523 C   0  0  0  0  0  0  0  0  0  0  0  0
    2.3811    0.5232    9.6046 O   0  0  0  0  0  0  0  0  0  0  0  0
  1  2  1  0
  2  3  1  0
  2  4  1  0
  4  5  1  0
  5  6  1  0
  6  7  1  0
  7  8  1  0
  8  9  1  0
  9 10  2  0
 10 11  1  0
 11 12  2  0
 12 13  1  0
 13 14  2  0
 14 15  1  0
 15 16  1  0
 16 17  2  0
  6 18  1  0
 14  9  1  0
M  END
$$$$
