
     RDKit          3D

 18 18  0  0  0  0  0  0  0  0999 V2000
    5.7165   -4.2237    5.4772 C   0  0  0  0  0  0  0  0  0  0  0  0
    4.1897   -4.3767    5.5049 C   0  0  0  0  0  0  0  0  0  0  0  0
    3.8892   -5.8772    5.5575 C   0  0  0  0  0  0  0  0  0  0  0  0
    3.7319   -3.8206    6.7358 N   0  0  0  0  0  0  0  0  0  0  0  0
    3.6285   -2.4089    6.7763 C   0  0  0  0  0  0  0  0  0  0  0  0
    2.2836   -1.8331    6.4258 C   0  0  0  0  0  0  0  0  0  0  0  0
    1.4101   -1.8425    7.6608 C   0  0  0  0  0  0  0  0  0  0  0  0
    2.0936   -1.3688    8.7980 O   0  0  0  0  0  0  0  0  0  0  0  0
    1.3756   -1.2630    9.9813 C   0  0  0  0  0  0  0  0  0  0  0  0
   -0.0030   -1.2224   10.0068 C   0  0  0  0  0  0  0  0  0  0  0  0
   -0.6750   -1.1161   11.2081 C   0  0  0  0  0  0  0  0  0  0  0  0
   -0.0151   -1.0468   12.4187 C   0  0  0  0  0  0  0  0  0  0  0  0
    1.3618   -1.0880   12.3846 C   0  0  0  0  0  0  0  0  0  0  0  0
    2.0572   -1.1954   11.1778 C   0  0  0  0  0  0  0  0  0  0  0  0
    3.5399   -1.2447   11.1340 C   0  0  0  0  0  0  0  0  0  0  0  0
    4.0903   -2.4196   11.8167 C   0  0  0  0  0  0  0  0  0  0  0  0
    5.3849   -2.6786   11.8983 C   0  0  0  0  0  0  0  0  0  0  0  0
    2.3534   -0.6014    5.8301 O   0  0  0  0  0  0  0  0  0  0  0  0
  1  2  1  0
  2  3  1  0
  2  4  1  0
  4  5  1  0
  5  6  1  0
  6  7  1  0
  7  8  1  0
  8  9  1  0
  9 10  2  0
 10 11  1  0
 11 12  2  0
 12 13  1  0
 13 14  2  0
 14 15  1  0
 15 16  1  0
 16 17  2  0
  6 18  1  0
 14  9  1  0
M  END
$$$$
