
     RDKit          3D

 18 18  0  0  0  0  0  0  0  0999 V2000
    0.4144   -0.6208   12.5725 C   0  0  0  0  0  0  0  0  0  0  0  0
   -0.5562   -0.5035   11.3895 C   0  0  0  0  0  0  0  0  0  0  0  0
   -1.4248    0.7322   11.6414 C   0  0  0  0  0  0  0  0  0  0  0  0
    0.2248   -0.2293   10.2281 N   0  0  0  0  0  0  0  0  0  0  0  0
   -0.2640   -0.7670    9.0128 C   0  0  0  0  0  0  0  0  0  0  0  0
    0.7699   -1.3189    8.0696 C   0  0  0  0  0  0  0  0  0  0  0  0
    1.7094   -2.2167    8.8438 C   0  0  0  0  0  0  0  0  0  0  0  0
    2.6236   -2.8802    8.0021 O   0  0  0  0  0  0  0  0  0  0  0  0
    3.7904   -3.3655    8.5767 C   0  0  0  0  0  0  0  0  0  0  0  0
    4.1652   -3.0486    9.8658 C   0  0  0  0  0  0  0  0  0  0  0  0
    5.3353   -3.5546   10.3958 C   0  0  0  0  0  0  0  0  0  0  0  0
    6.1715   -4.3857    9.6774 C   0  0  0  0  0  0  0  0  0  0  0  0
    5.7898   -4.6974    8.3905 C   0  0  0  0  0  0  0  0  0  0  0  0
    4.6091   -4.1941    7.8392 C   0  0  0  0  0  0  0  0  0  0  0  0
    4.1899   -4.5292    6.4554 C   0  0  0  0  0  0  0  0  0  0  0  0
    4.9456   -3.7924    5.4381 C   0  0  0  0  0  0  0  0  0  0  0  0
    4.5324   -3.6340    4.1916 C   0  0  0  0  0  0  0  0  0  0  0  0
    0.2344   -1.9301    6.9666 O   0  0  0  0  0  0  0  0  0  0  0  0
  1  2  1  0
  2  3  1  0
  2  4  1  0
  4  5  1  0
  5  6  1  0
  6  7  1  0
  7  8  1  0
  8  9  1  0
  9 10  2  0
 10 11  1  0
 11 12  2  0
 12 13  1  0
 13 14  2  0
 14 15  1  0
 15 16  1  0
 16 17  2  0
  6 18  1  0
 14  9  1  0
M  END
$$$$
