
     RDKit          3D

 18 18  0  0  0  0  0  0  0  0999 V2000
   -1.1283   -0.3480   11.3352 C   0  0  0  0  0  0  0  0  0  0  0  0
   -0.7013   -1.2378   10.1599 C   0  0  0  0  0  0  0  0  0  0  0  0
   -1.7793   -1.1049    9.0806 C   0  0  0  0  0  0  0  0  0  0  0  0
    0.4946   -0.6790    9.6200 N   0  0  0  0  0  0  0  0  0  0  0  0
    1.4598   -1.6083    9.1621 C   0  0  0  0  0  0  0  0  0  0  0  0
    2.5605   -1.9504   10.1288 C   0  0  0  0  0  0  0  0  0  0  0  0
    3.1197   -3.3101    9.7729 C   0  0  0  0  0  0  0  0  0  0  0  0
    3.7278   -3.3180    8.5022 O   0  0  0  0  0  0  0  0  0  0  0  0
    4.4333   -4.4556    8.1346 C   0  0  0  0  0  0  0  0  0  0  0  0
    4.7105   -5.4718    9.0252 C   0  0  0  0  0  0  0  0  0  0  0  0
    5.4162   -6.5851    8.6146 C   0  0  0  0  0  0  0  0  0  0  0  0
    5.8702   -6.7343    7.3194 C   0  0  0  0  0  0  0  0  0  0  0  0
    5.5891   -5.7147    6.4360 C   0  0  0  0  0  0  0  0  0  0  0  0
    4.8762   -4.5817    6.8351 C   0  0  0  0  0  0  0  0  0  0  0  0
    4.5663   -3.4818    5.8878 C   0  0  0  0  0  0  0  0  0  0  0  0
    3.4476   -3.7987    4.9949 C   0  0  0  0  0  0  0  0  0  0  0  0
    2.6755   -2.8818    4.4357 C   0  0  0  0  0  0  0  0  0  0  0  0
    3.5264   -0.9836   10.2237 O   0  0  0  0  0  0  0  0  0  0  0  0
  1  2  1  0
  2  3  1  0
  2  4  1  0
  4  5  1  0
  5  6  1  0
  6  7  1  0
  7  8  1  0
  8  9  1  0
  9 10  2  0
 10 11  1  0
 11 12  2  0
 12 13  1  0
 13 14  2  0
 14 15  1  0
 15 16  1  0
 16 17  2  0
  6 18  1  0
 14  9  1  0
M  END
$$$$
