
     RDKit          3D

 18 18  0  0  0  0  0  0  0  0999 V2000
   -2.7255   -0.3111    9.9487 C   0  0  0  0  0  0  0  0  0  0  0  0
   -1.7252   -1.2629   10.6185 C   0  0  0  0  0  0  0  0  0  0  0  0
   -2.3677   -2.6528   10.6330 C   0  0  0  0  0  0  0  0  0  0  0  0
   -0.5844   -1.3445    9.7665 N   0  0  0  0  0  0  0  0  0  0  0  0
    0.5060   -2.0989   10.2633 C   0  0  0  0  0  0  0  0  0  0  0  0
    1.8747   -1.5238   10.0198 C   0  0  0  0  0  0  0  0  0  0  0  0
    2.8981   -2.6322   10.1300 C   0  0  0  0  0  0  0  0  0  0  0  0
    3.4957   -2.9283    8.8890 O   0  0  0  0  0  0  0  0  0  0  0  0
    4.7986   -3.4069    8.9013 C   0  0  0  0  0  0  0  0  0  0  0  0
    5.6189   -3.2857   10.0036 C   0  0  0  0  0  0  0  0  0  0  0  0
    6.9088   -3.7767    9.9699 C   0  0  0  0  0  0  0  0  0  0  0  0
    7.4316   -4.4005    8.8548 C   0  0  0  0  0  0  0  0  0  0  0  0
    6.6057   -4.5175    7.7578 C   0  0  0  0  0  0  0  0  0  0  0  0
    5.2982   -4.0263    7.7754 C   0  0  0  0  0  0  0  0  0  0  0  0
    4.4019   -4.1528    6.5991 C   0  0  0  0  0  0  0  0  0  0  0  0
    4.7618   -5.2757    5.7280 C   0  0  0  0  0  0  0  0  0  0  0  0
    3.9420   -5.7974    4.8305 C   0  0  0  0  0  0  0  0  0  0  0  0
    1.9729   -0.8203    8.8484 O   0  0  0  0  0  0  0  0  0  0  0  0
  1  2  1  0
  2  3  1  0
  2  4  1  0
  4  5  1  0
  5  6  1  0
  6  7  1  0
  7  8  1  0
  8  9  1  0
  9 10  2  0
 10 11  1  0
 11 12  2  0
 12 13  1  0
 13 14  2  0
 14 15  1  0
 15 16  1  0
 16 17  2  0
  6 18  1  0
 14  9  1  0
M  END
$$$$
