
     RDKit          3D

 18 18  0  0  0  0  0  0  0  0999 V2000
   -0.9327   -0.2512   11.5886 C   0  0  0  0  0  0  0  0  0  0  0  0
    0.2337   -1.0207   10.9539 C   0  0  0  0  0  0  0  0  0  0  0  0
    0.0627   -2.4932   11.3378 C   0  0  0  0  0  0  0  0  0  0  0  0
    0.0718   -0.9414    9.5392 N   0  0  0  0  0  0  0  0  0  0  0  0
    1.2545   -1.0781    8.7726 C   0  0  0  0  0  0  0  0  0  0  0  0
    1.0976   -0.9398    7.2828 C   0  0  0  0  0  0  0  0  0  0  0  0
    2.1823   -1.7428    6.5997 C   0  0  0  0  0  0  0  0  0  0  0  0
    2.8450   -2.6075    7.4929 O   0  0  0  0  0  0  0  0  0  0  0  0
    3.7023   -3.5558    6.9520 C   0  0  0  0  0  0  0  0  0  0  0  0
    3.6422   -3.9346    5.6270 C   0  0  0  0  0  0  0  0  0  0  0  0
    4.5157   -4.8827    5.1329 C   0  0  0  0  0  0  0  0  0  0  0  0
    5.4731   -5.4865    5.9232 C   0  0  0  0  0  0  0  0  0  0  0  0
    5.5266   -5.1026    7.2455 C   0  0  0  0  0  0  0  0  0  0  0  0
    4.6504   -4.1448    7.7615 C   0  0  0  0  0  0  0  0  0  0  0  0
    4.7053   -3.7235    9.1836 C   0  0  0  0  0  0  0  0  0  0  0  0
    3.7294   -4.4253   10.0227 C   0  0  0  0  0  0  0  0  0  0  0  0
    3.5925   -4.2113   11.3208 C   0  0  0  0  0  0  0  0  0  0  0  0
   -0.1592   -1.2484    6.8333 O   0  0  0  0  0  0  0  0  0  0  0  0
  1  2  1  0
  2  3  1  0
  2  4  1  0
  4  5  1  0
  5  6  1  0
  6  7  1  0
  7  8  1  0
  8  9  1  0
  9 10  2  0
 10 11  1  0
 11 12  2  0
 12 13  1  0
 13 14  2  0
 14 15  1  0
 15 16  1  0
 16 17  2  0
  6 18  1  0
 14  9  1  0
M  END
$$$$
