
     RDKit          3D

 37 41  0  0  0  0  0  0  0  0999 V2000
    4.0743   -0.1561   17.5179 C   0  0  0  0  0  0  0  0  0  0  0  0
    2.8288   -0.2706   18.2292 N   0  0  0  0  0  0  0  0  0  0  0  0
    1.5924   -0.1183   17.6821 C   0  0  0  0  0  0  0  0  0  0  0  0
    0.7186   -0.3135   18.7302 C   0  0  0  0  0  0  0  0  0  0  0  0
    1.4460   -0.5755   19.8714 C   0  0  0  0  0  0  0  0  0  0  0  0
    2.7313   -0.5414   19.5278 N   0  0  0  0  0  0  0  0  0  0  0  0
    1.3593    0.1953   16.2872 C   0  0  0  0  0  0  0  0  0  0  0  0
    2.0686    1.1669   15.6484 N   0  0  0  0  0  0  0  0  0  0  0  0
    1.8711    1.4674   14.3990 N   0  0  0  0  0  0  0  0  0  0  0  0
    0.9483    0.8520   13.6095 C   0  0  0  0  0  0  0  0  0  0  0  0
    0.1949   -0.1391   14.1852 C   0  0  0  0  0  0  0  0  0  0  0  0
   -0.7610   -0.7964   13.4264 C   0  0  0  0  0  0  0  0  0  0  0  0
   -1.5206   -1.7785   13.9844 C   0  0  0  0  0  0  0  0  0  0  0  0
   -1.3223   -2.1033   15.3060 C   0  0  0  0  0  0  0  0  0  0  0  0
   -0.3699   -1.4590   16.0858 C   0  0  0  0  0  0  0  0  0  0  0  0
    0.4127   -0.4599   15.5383 C   0  0  0  0  0  0  0  0  0  0  0  0
    0.7930    1.2571   12.2773 N   0  0  0  0  0  0  0  0  0  0  0  0
    1.1705    2.6044   11.8856 C   0  0  0  0  0  0  0  0  0  0  0  0
    2.3103    2.5776   10.8866 C   0  0  0  0  0  0  0  0  0  0  0  0
    2.4844    1.2349   10.2448 C   0  0  0  0  0  0  0  0  0  0  0  0
    1.2210    0.4430   10.0553 C   0  0  0  0  0  0  0  0  0  0  0  0
    0.2780    0.4368   11.1972 C   0  0  0  0  0  0  0  0  0  0  0  0
    3.0644    1.4571    8.9404 N   0  0  0  0  0  0  0  0  0  0  0  0
    2.9672    2.7638    8.3385 C   0  0  0  0  0  0  0  0  0  0  0  0
    3.7370    0.4175    8.2476 C   0  0  0  0  0  0  0  0  0  0  0  0
    4.2055    0.5243    7.0857 O   0  0  0  0  0  0  0  0  0  0  0  0
    3.9284   -0.8944    8.8784 C   0  0  0  0  0  0  0  0  0  0  0  0
    3.2716   -2.0284    8.5243 C   0  0  0  0  0  0  0  0  0  0  0  0
    3.5464   -3.2035    9.1800 C   0  0  0  0  0  0  0  0  0  0  0  0
    4.4769   -3.2146   10.1804 C   0  0  0  0  0  0  0  0  0  0  0  0
    5.1525   -2.0922   10.5589 C   0  0  0  0  0  0  0  0  0  0  0  0
    4.8746   -0.9214    9.9007 C   0  0  0  0  0  0  0  0  0  0  0  0
    4.7326   -4.3757   10.8116 F   0  0  0  0  0  0  0  0  0  0  0  0
    2.2541   -1.9613    7.4347 C   0  0  0  0  0  0  0  0  0  0  0  0
    2.7445   -1.1710    6.4098 F   0  0  0  0  0  0  0  0  0  0  0  0
    2.0799   -3.2321    6.9160 F   0  0  0  0  0  0  0  0  0  0  0  0
    1.0556   -1.5238    7.8977 F   0  0  0  0  0  0  0  0  0  0  0  0
  1  2  1  0
  2  3  1  0
  3  4  2  0
  4  5  1  0
  5  6  2  0
  3  7  1  0
  7  8  2  0
  8  9  1  0
  9 10  2  0
 10 11  1  0
 11 12  2  0
 12 13  1  0
 13 14  2  0
 14 15  1  0
 15 16  2  0
 10 17  1  0
 17 18  1  0
 18 19  1  0
 19 20  1  0
 20 21  1  0
 21 22  1  0
 20 23  1  0
 23 24  1  0
 23 25  1  0
 25 26  2  0
 25 27  1  0
 27 28  2  0
 28 29  1  0
 29 30  2  0
 30 31  1  0
 31 32  2  0
 30 33  1  0
 28 34  1  0
 34 35  1  0
 34 36  1  0
 34 37  1  0
  6  2  1  0
 16  7  1  0
 16 11  1  0
 22 17  1  0
 32 27  1  0
M  END
$$$$
