
     RDKit          3D

 37 41  0  0  0  0  0  0  0  0999 V2000
    1.0651    4.1892   21.0673 C   0  0  0  0  0  0  0  0  0  0  0  0
    0.9991    2.7903   21.3977 N   0  0  0  0  0  0  0  0  0  0  0  0
    0.8670    1.7748   20.5019 C   0  0  0  0  0  0  0  0  0  0  0  0
    0.8483    0.6301   21.2696 C   0  0  0  0  0  0  0  0  0  0  0  0
    0.9681    0.9837   22.5965 C   0  0  0  0  0  0  0  0  0  0  0  0
    1.0581    2.3109   22.6370 N   0  0  0  0  0  0  0  0  0  0  0  0
    0.7628    1.9690   19.0701 C   0  0  0  0  0  0  0  0  0  0  0  0
   -0.3936    2.3989   18.4928 N   0  0  0  0  0  0  0  0  0  0  0  0
   -0.5094    2.5742   17.2098 N   0  0  0  0  0  0  0  0  0  0  0  0
    0.4976    2.3499   16.3215 C   0  0  0  0  0  0  0  0  0  0  0  0
    1.6945    1.9146   16.8306 C   0  0  0  0  0  0  0  0  0  0  0  0
    2.7524    1.6683   15.9694 C   0  0  0  0  0  0  0  0  0  0  0  0
    3.9450    1.2307   16.4583 C   0  0  0  0  0  0  0  0  0  0  0  0
    4.0786    1.0393   17.8136 C   0  0  0  0  0  0  0  0  0  0  0  0
    3.0329    1.2801   18.6961 C   0  0  0  0  0  0  0  0  0  0  0  0
    1.8141    1.7260   18.2204 C   0  0  0  0  0  0  0  0  0  0  0  0
    0.2736    2.5481   14.9527 N   0  0  0  0  0  0  0  0  0  0  0  0
    1.4032    2.7320   14.0573 C   0  0  0  0  0  0  0  0  0  0  0  0
    1.4807    1.6051   13.0465 C   0  0  0  0  0  0  0  0  0  0  0  0
    0.1985    0.8375   12.9376 C   0  0  0  0  0  0  0  0  0  0  0  0
   -1.0529    1.6385   13.1649 C   0  0  0  0  0  0  0  0  0  0  0  0
   -1.0232    2.5851   14.3034 C   0  0  0  0  0  0  0  0  0  0  0  0
    0.1375    0.2958   11.5997 N   0  0  0  0  0  0  0  0  0  0  0  0
   -0.9685    0.6503   10.7450 C   0  0  0  0  0  0  0  0  0  0  0  0
    1.1505   -0.5678   11.1087 C   0  0  0  0  0  0  0  0  0  0  0  0
    1.2413   -0.9509    9.9147 O   0  0  0  0  0  0  0  0  0  0  0  0
    2.1902   -1.0823   12.0089 C   0  0  0  0  0  0  0  0  0  0  0  0
    3.4420   -0.5695   12.1209 C   0  0  0  0  0  0  0  0  0  0  0  0
    4.3260   -1.1286   13.0110 C   0  0  0  0  0  0  0  0  0  0  0  0
    3.9331   -2.1937   13.7712 C   0  0  0  0  0  0  0  0  0  0  0  0
    2.6832   -2.7311   13.6810 C   0  0  0  0  0  0  0  0  0  0  0  0
    1.8041   -2.1690   12.7907 C   0  0  0  0  0  0  0  0  0  0  0  0
    4.8135   -2.7282   14.6380 F   0  0  0  0  0  0  0  0  0  0  0  0
    3.8275    0.5855   11.2583 C   0  0  0  0  0  0  0  0  0  0  0  0
    3.3082    0.3921    9.9900 F   0  0  0  0  0  0  0  0  0  0  0  0
    3.2378    1.7299   11.7652 F   0  0  0  0  0  0  0  0  0  0  0  0
    5.1719    0.7711   11.2445 F   0  0  0  0  0  0  0  0  0  0  0  0
  1  2  1  0
  2  3  1  0
  3  4  2  0
  4  5  1  0
  5  6  2  0
  3  7  1  0
  7  8  2  0
  8  9  1  0
  9 10  2  0
 10 11  1  0
 11 12  2  0
 12 13  1  0
 13 14  2  0
 14 15  1  0
 15 16  2  0
 10 17  1  0
 17 18  1  0
 18 19  1  0
 19 20  1  0
 20 21  1  0
 21 22  1  0
 20 23  1  0
 23 24  1  0
 23 25  1  0
 25 26  2  0
 25 27  1  0
 27 28  2  0
 28 29  1  0
 29 30  2  0
 30 31  1  0
 31 32  2  0
 30 33  1  0
 28 34  1  0
 34 35  1  0
 34 36  1  0
 34 37  1  0
  6  2  1  0
 16  7  1  0
 16 11  1  0
 22 17  1  0
 32 27  1  0
M  END
$$$$
