
     RDKit          3D

 37 41  0  0  0  0  0  0  0  0999 V2000
   -1.6562    1.5923   19.6431 C   0  0  0  0  0  0  0  0  0  0  0  0
   -0.2528    1.8223   19.8621 N   0  0  0  0  0  0  0  0  0  0  0  0
    0.6977    1.8761   18.8901 C   0  0  0  0  0  0  0  0  0  0  0  0
    1.8763    2.1123   19.5646 C   0  0  0  0  0  0  0  0  0  0  0  0
    1.6067    2.1935   20.9140 C   0  0  0  0  0  0  0  0  0  0  0  0
    0.2963    2.0116   21.0587 N   0  0  0  0  0  0  0  0  0  0  0  0
    0.4216    1.6955   17.4795 C   0  0  0  0  0  0  0  0  0  0  0  0
    0.6916    2.6737   16.5709 N   0  0  0  0  0  0  0  0  0  0  0  0
    0.4464    2.5337   15.3018 N   0  0  0  0  0  0  0  0  0  0  0  0
   -0.0981    1.4118   14.7556 C   0  0  0  0  0  0  0  0  0  0  0  0
   -0.3972    0.3823   15.6110 C   0  0  0  0  0  0  0  0  0  0  0  0
   -0.9560   -0.7820   15.1072 C   0  0  0  0  0  0  0  0  0  0  0  0
   -1.2636   -1.8108   15.9438 C   0  0  0  0  0  0  0  0  0  0  0  0
   -1.0110   -1.6733   17.2886 C   0  0  0  0  0  0  0  0  0  0  0  0
   -0.4510   -0.5164   17.8163 C   0  0  0  0  0  0  0  0  0  0  0  0
   -0.1301    0.5395   16.9841 C   0  0  0  0  0  0  0  0  0  0  0  0
   -0.3447    1.3594   13.3774 N   0  0  0  0  0  0  0  0  0  0  0  0
   -0.7433    2.5649   12.6708 C   0  0  0  0  0  0  0  0  0  0  0  0
    0.2973    2.9567   11.6405 C   0  0  0  0  0  0  0  0  0  0  0  0
    1.2335    1.8347   11.3095 C   0  0  0  0  0  0  0  0  0  0  0  0
    0.6364    0.4568   11.3758 C   0  0  0  0  0  0  0  0  0  0  0  0
   -0.2338    0.1789   12.5414 C   0  0  0  0  0  0  0  0  0  0  0  0
    1.6963    2.0493    9.9579 N   0  0  0  0  0  0  0  0  0  0  0  0
    1.2390    3.2078    9.2313 C   0  0  0  0  0  0  0  0  0  0  0  0
    2.6001    1.1482    9.3379 C   0  0  0  0  0  0  0  0  0  0  0  0
    3.3724    1.4526    8.3936 O   0  0  0  0  0  0  0  0  0  0  0  0
    2.6836   -0.2476    9.7857 C   0  0  0  0  0  0  0  0  0  0  0  0
    3.6033   -0.7275   10.6612 C   0  0  0  0  0  0  0  0  0  0  0  0
    3.5727   -2.0537   11.0169 C   0  0  0  0  0  0  0  0  0  0  0  0
    2.6170   -2.8718   10.4842 C   0  0  0  0  0  0  0  0  0  0  0  0
    1.6804   -2.4196    9.6024 C   0  0  0  0  0  0  0  0  0  0  0  0
    1.7151   -1.0944    9.2505 C   0  0  0  0  0  0  0  0  0  0  0  0
    2.6031   -4.1687   10.8447 F   0  0  0  0  0  0  0  0  0  0  0  0
    4.6354    0.2034   11.2043 C   0  0  0  0  0  0  0  0  0  0  0  0
    4.7167    0.0336   12.5755 F   0  0  0  0  0  0  0  0  0  0  0  0
    5.8664   -0.1498   10.6806 F   0  0  0  0  0  0  0  0  0  0  0  0
    4.3794    1.4901   10.8564 F   0  0  0  0  0  0  0  0  0  0  0  0
  1  2  1  0
  2  3  1  0
  3  4  2  0
  4  5  1  0
  5  6  2  0
  3  7  1  0
  7  8  2  0
  8  9  1  0
  9 10  2  0
 10 11  1  0
 11 12  2  0
 12 13  1  0
 13 14  2  0
 14 15  1  0
 15 16  2  0
 10 17  1  0
 17 18  1  0
 18 19  1  0
 19 20  1  0
 20 21  1  0
 21 22  1  0
 20 23  1  0
 23 24  1  0
 23 25  1  0
 25 26  2  0
 25 27  1  0
 27 28  2  0
 28 29  1  0
 29 30  2  0
 30 31  1  0
 31 32  2  0
 30 33  1  0
 28 34  1  0
 34 35  1  0
 34 36  1  0
 34 37  1  0
  6  2  1  0
 16  7  1  0
 16 11  1  0
 22 17  1  0
 32 27  1  0
M  END
$$$$
