
     RDKit          3D

 37 41  0  0  0  0  0  0  0  0999 V2000
    0.5143   -2.8677    9.4954 C   0  0  0  0  0  0  0  0  0  0  0  0
    1.9111   -2.5381    9.3913 N   0  0  0  0  0  0  0  0  0  0  0  0
    2.6219   -1.8233   10.3049 C   0  0  0  0  0  0  0  0  0  0  0  0
    3.8973   -1.7606    9.7858 C   0  0  0  0  0  0  0  0  0  0  0  0
    3.9204   -2.4334    8.5830 C   0  0  0  0  0  0  0  0  0  0  0  0
    2.6900   -2.8953    8.3739 N   0  0  0  0  0  0  0  0  0  0  0  0
    2.0560   -1.2791   11.5223 C   0  0  0  0  0  0  0  0  0  0  0  0
    1.1678   -1.9882   12.2729 N   0  0  0  0  0  0  0  0  0  0  0  0
    0.6443   -1.5160   13.3654 N   0  0  0  0  0  0  0  0  0  0  0  0
    0.9245   -0.2815   13.8664 C   0  0  0  0  0  0  0  0  0  0  0  0
    1.8125    0.4917   13.1629 C   0  0  0  0  0  0  0  0  0  0  0  0
    2.1308    1.7582   13.6278 C   0  0  0  0  0  0  0  0  0  0  0  0
    3.0062    2.5400   12.9383 C   0  0  0  0  0  0  0  0  0  0  0  0
    3.5644    2.0520   11.7800 C   0  0  0  0  0  0  0  0  0  0  0  0
    3.2612    0.7858   11.2951 C   0  0  0  0  0  0  0  0  0  0  0  0
    2.3757   -0.0245   11.9807 C   0  0  0  0  0  0  0  0  0  0  0  0
    0.2961    0.1501   15.0419 N   0  0  0  0  0  0  0  0  0  0  0  0
    0.0316   -0.8010   16.1081 C   0  0  0  0  0  0  0  0  0  0  0  0
    0.8048   -0.4381   17.3604 C   0  0  0  0  0  0  0  0  0  0  0  0
    1.2971    0.9770   17.3457 C   0  0  0  0  0  0  0  0  0  0  0  0
    0.4162    1.9578   16.6235 C   0  0  0  0  0  0  0  0  0  0  0  0
   -0.1326    1.5071   15.3240 C   0  0  0  0  0  0  0  0  0  0  0  0
    1.4003    1.4076   18.7208 N   0  0  0  0  0  0  0  0  0  0  0  0
    0.5193    0.8338   19.7076 C   0  0  0  0  0  0  0  0  0  0  0  0
    2.3591    2.3746   19.1190 C   0  0  0  0  0  0  0  0  0  0  0  0
    3.2302    2.8677   18.3581 O   0  0  0  0  0  0  0  0  0  0  0  0
    2.3858    2.8709   20.5006 C   0  0  0  0  0  0  0  0  0  0  0  0
    3.4112    2.6871   21.3709 C   0  0  0  0  0  0  0  0  0  0  0  0
    3.3275    3.2123   22.6372 C   0  0  0  0  0  0  0  0  0  0  0  0
    2.2128    3.9123   23.0035 C   0  0  0  0  0  0  0  0  0  0  0  0
    1.1667    4.1133   22.1522 C   0  0  0  0  0  0  0  0  0  0  0  0
    1.2554    3.5869   20.8887 C   0  0  0  0  0  0  0  0  0  0  0  0
    2.1490    4.4195   24.2487 F   0  0  0  0  0  0  0  0  0  0  0  0
    4.6010    1.9031   20.9275 C   0  0  0  0  0  0  0  0  0  0  0  0
    5.4043    1.6463   22.0249 F   0  0  0  0  0  0  0  0  0  0  0  0
    4.1685    0.6791   20.4490 F   0  0  0  0  0  0  0  0  0  0  0  0
    5.2720    2.5353   19.9314 F   0  0  0  0  0  0  0  0  0  0  0  0
  1  2  1  0
  2  3  1  0
  3  4  2  0
  4  5  1  0
  5  6  2  0
  3  7  1  0
  7  8  2  0
  8  9  1  0
  9 10  2  0
 10 11  1  0
 11 12  2  0
 12 13  1  0
 13 14  2  0
 14 15  1  0
 15 16  2  0
 10 17  1  0
 17 18  1  0
 18 19  1  0
 19 20  1  0
 20 21  1  0
 21 22  1  0
 20 23  1  0
 23 24  1  0
 23 25  1  0
 25 26  2  0
 25 27  1  0
 27 28  2  0
 28 29  1  0
 29 30  2  0
 30 31  1  0
 31 32  2  0
 30 33  1  0
 28 34  1  0
 34 35  1  0
 34 36  1  0
 34 37  1  0
  6  2  1  0
 16  7  1  0
 16 11  1  0
 22 17  1  0
 32 27  1  0
M  END
$$$$
