
     RDKit          3D

 37 41  0  0  0  0  0  0  0  0999 V2000
    1.2848   -0.5159   19.6424 C   0  0  0  0  0  0  0  0  0  0  0  0
    2.6611   -0.1420   19.8335 N   0  0  0  0  0  0  0  0  0  0  0  0
    3.5817    0.0068   18.8428 C   0  0  0  0  0  0  0  0  0  0  0  0
    4.7427    0.3649   19.4937 C   0  0  0  0  0  0  0  0  0  0  0  0
    4.4927    0.4215   20.8481 C   0  0  0  0  0  0  0  0  0  0  0  0
    3.2111    0.1061   21.0189 N   0  0  0  0  0  0  0  0  0  0  0  0
    3.2981   -0.2050   17.4380 C   0  0  0  0  0  0  0  0  0  0  0  0
    2.0362   -0.0808   16.9405 N   0  0  0  0  0  0  0  0  0  0  0  0
    1.7597   -0.2719   15.6846 N   0  0  0  0  0  0  0  0  0  0  0  0
    2.6883   -0.6113   14.7486 C   0  0  0  0  0  0  0  0  0  0  0  0
    3.9835   -0.7545   15.1765 C   0  0  0  0  0  0  0  0  0  0  0  0
    4.9681   -1.1019   14.2648 C   0  0  0  0  0  0  0  0  0  0  0  0
    6.2573   -1.2531   14.6746 C   0  0  0  0  0  0  0  0  0  0  0  0
    6.5613   -1.0560   16.0012 C   0  0  0  0  0  0  0  0  0  0  0  0
    5.5917   -0.7067   16.9330 C   0  0  0  0  0  0  0  0  0  0  0  0
    4.2770   -0.5469   16.5374 C   0  0  0  0  0  0  0  0  0  0  0  0
    2.2929   -0.8159   13.4201 N   0  0  0  0  0  0  0  0  0  0  0  0
    0.9204   -1.1924   13.1270 C   0  0  0  0  0  0  0  0  0  0  0  0
    0.2293   -0.1207   12.3074 C   0  0  0  0  0  0  0  0  0  0  0  0
    1.1950    0.8247   11.6606 C   0  0  0  0  0  0  0  0  0  0  0  0
    2.5151    0.2253   11.2637 C   0  0  0  0  0  0  0  0  0  0  0  0
    3.1436   -0.6801   12.2528 C   0  0  0  0  0  0  0  0  0  0  0  0
    0.5626    1.3284   10.4633 N   0  0  0  0  0  0  0  0  0  0  0  0
    1.0597    0.9133    9.1750 C   0  0  0  0  0  0  0  0  0  0  0  0
   -0.5443    2.2134   10.5326 C   0  0  0  0  0  0  0  0  0  0  0  0
   -1.2365    2.5653    9.5438 O   0  0  0  0  0  0  0  0  0  0  0  0
   -0.9563    2.7901   11.8185 C   0  0  0  0  0  0  0  0  0  0  0  0
   -0.5602    4.0007   12.2879 C   0  0  0  0  0  0  0  0  0  0  0  0
   -1.0251    4.4414   13.5028 C   0  0  0  0  0  0  0  0  0  0  0  0
   -1.8796    3.6549   14.2224 C   0  0  0  0  0  0  0  0  0  0  0  0
   -2.2950    2.4345   13.7778 C   0  0  0  0  0  0  0  0  0  0  0  0
   -1.8281    1.9991   12.5638 C   0  0  0  0  0  0  0  0  0  0  0  0
   -2.3245    4.1038   15.4109 F   0  0  0  0  0  0  0  0  0  0  0  0
    0.3854    4.8162   11.4708 C   0  0  0  0  0  0  0  0  0  0  0  0
    0.6173    6.0176   12.1177 F   0  0  0  0  0  0  0  0  0  0  0  0
    1.5976    4.1522   11.4067 F   0  0  0  0  0  0  0  0  0  0  0  0
   -0.0712    4.9897   10.2045 F   0  0  0  0  0  0  0  0  0  0  0  0
  1  2  1  0
  2  3  1  0
  3  4  2  0
  4  5  1  0
  5  6  2  0
  3  7  1  0
  7  8  2  0
  8  9  1  0
  9 10  2  0
 10 11  1  0
 11 12  2  0
 12 13  1  0
 13 14  2  0
 14 15  1  0
 15 16  2  0
 10 17  1  0
 17 18  1  0
 18 19  1  0
 19 20  1  0
 20 21  1  0
 21 22  1  0
 20 23  1  0
 23 24  1  0
 23 25  1  0
 25 26  2  0
 25 27  1  0
 27 28  2  0
 28 29  1  0
 29 30  2  0
 30 31  1  0
 31 32  2  0
 30 33  1  0
 28 34  1  0
 34 35  1  0
 34 36  1  0
 34 37  1  0
  6  2  1  0
 16  7  1  0
 16 11  1  0
 22 17  1  0
 32 27  1  0
M  END
$$$$
