
     RDKit          3D

 37 41  0  0  0  0  0  0  0  0999 V2000
    3.9840    0.2456   18.8572 C   0  0  0  0  0  0  0  0  0  0  0  0
    3.3195    1.0512   19.8471 N   0  0  0  0  0  0  0  0  0  0  0  0
    2.2898    1.9068   19.6046 C   0  0  0  0  0  0  0  0  0  0  0  0
    1.9867    2.4486   20.8352 C   0  0  0  0  0  0  0  0  0  0  0  0
    2.8353    1.9098   21.7784 C   0  0  0  0  0  0  0  0  0  0  0  0
    3.6356    1.0602   21.1391 N   0  0  0  0  0  0  0  0  0  0  0  0
    1.7203    2.1338   18.2921 C   0  0  0  0  0  0  0  0  0  0  0  0
    2.5062    2.3994   17.2118 N   0  0  0  0  0  0  0  0  0  0  0  0
    2.0147    2.6114   16.0269 N   0  0  0  0  0  0  0  0  0  0  0  0
    0.6828    2.5908   15.7455 C   0  0  0  0  0  0  0  0  0  0  0  0
   -0.1717    2.3292   16.7859 C   0  0  0  0  0  0  0  0  0  0  0  0
   -1.5381    2.2991   16.5546 C   0  0  0  0  0  0  0  0  0  0  0  0
   -2.3998    2.0463   17.5776 C   0  0  0  0  0  0  0  0  0  0  0  0
   -1.8916    1.8229   18.8358 C   0  0  0  0  0  0  0  0  0  0  0  0
   -0.5262    1.8473   19.0916 C   0  0  0  0  0  0  0  0  0  0  0  0
    0.3659    2.1009   18.0666 C   0  0  0  0  0  0  0  0  0  0  0  0
    0.2445    2.8504   14.4403 N   0  0  0  0  0  0  0  0  0  0  0  0
    0.9895    3.7731   13.6006 C   0  0  0  0  0  0  0  0  0  0  0  0
    1.5621    3.0611   12.3910 C   0  0  0  0  0  0  0  0  0  0  0  0
    0.9028    1.7408   12.1321 C   0  0  0  0  0  0  0  0  0  0  0  0
   -0.5508    1.6623   12.5066 C   0  0  0  0  0  0  0  0  0  0  0  0
   -0.9225    2.2661   13.8068 C   0  0  0  0  0  0  0  0  0  0  0  0
    1.0066    1.4823   10.7145 N   0  0  0  0  0  0  0  0  0  0  0  0
    0.8899    2.5801    9.7869 C   0  0  0  0  0  0  0  0  0  0  0  0
    1.2327    0.1716   10.2203 C   0  0  0  0  0  0  0  0  0  0  0  0
    1.2724   -0.1316    9.0008 O   0  0  0  0  0  0  0  0  0  0  0  0
    1.4402   -0.9477   11.1477 C   0  0  0  0  0  0  0  0  0  0  0  0
    2.6527   -1.4254   11.5275 C   0  0  0  0  0  0  0  0  0  0  0  0
    2.7212   -2.4713   12.4150 C   0  0  0  0  0  0  0  0  0  0  0  0
    1.5675   -3.0169   12.9030 C   0  0  0  0  0  0  0  0  0  0  0  0
    0.3353   -2.5594   12.5400 C   0  0  0  0  0  0  0  0  0  0  0  0
    0.2724   -1.5146   11.6537 C   0  0  0  0  0  0  0  0  0  0  0  0
    1.6546   -4.0414   13.7717 F   0  0  0  0  0  0  0  0  0  0  0  0
    3.8833   -0.8046   10.9555 C   0  0  0  0  0  0  0  0  0  0  0  0
    3.6022   -0.3407    9.6821 F   0  0  0  0  0  0  0  0  0  0  0  0
    4.2174    0.2979   11.7217 F   0  0  0  0  0  0  0  0  0  0  0  0
    4.9312   -1.6670   10.9726 F   0  0  0  0  0  0  0  0  0  0  0  0
  1  2  1  0
  2  3  1  0
  3  4  2  0
  4  5  1  0
  5  6  2  0
  3  7  1  0
  7  8  2  0
  8  9  1  0
  9 10  2  0
 10 11  1  0
 11 12  2  0
 12 13  1  0
 13 14  2  0
 14 15  1  0
 15 16  2  0
 10 17  1  0
 17 18  1  0
 18 19  1  0
 19 20  1  0
 20 21  1  0
 21 22  1  0
 20 23  1  0
 23 24  1  0
 23 25  1  0
 25 26  2  0
 25 27  1  0
 27 28  2  0
 28 29  1  0
 29 30  2  0
 30 31  1  0
 31 32  2  0
 30 33  1  0
 28 34  1  0
 34 35  1  0
 34 36  1  0
 34 37  1  0
  6  2  1  0
 16  7  1  0
 16 11  1  0
 22 17  1  0
 32 27  1  0
M  END
$$$$
