
     RDKit          3D

 37 41  0  0  0  0  0  0  0  0999 V2000
    4.5390    1.6966   19.4654 C   0  0  0  0  0  0  0  0  0  0  0  0
    3.4955    2.2805   20.2660 N   0  0  0  0  0  0  0  0  0  0  0  0
    2.3165    2.7656   19.7911 C   0  0  0  0  0  0  0  0  0  0  0  0
    1.6479    3.2180   20.9084 C   0  0  0  0  0  0  0  0  0  0  0  0
    2.4358    2.9955   22.0173 C   0  0  0  0  0  0  0  0  0  0  0  0
    3.5567    2.4215   21.5872 N   0  0  0  0  0  0  0  0  0  0  0  0
    1.9503    2.7692   18.3895 C   0  0  0  0  0  0  0  0  0  0  0  0
    2.8244    3.1749   17.4269 N   0  0  0  0  0  0  0  0  0  0  0  0
    2.5137    3.1909   16.1646 N   0  0  0  0  0  0  0  0  0  0  0  0
    1.3002    2.8098   15.6792 C   0  0  0  0  0  0  0  0  0  0  0  0
    0.3668    2.3881   16.5913 C   0  0  0  0  0  0  0  0  0  0  0  0
   -0.8862    1.9915   16.1506 C   0  0  0  0  0  0  0  0  0  0  0  0
   -1.8255    1.5755   17.0437 C   0  0  0  0  0  0  0  0  0  0  0  0
   -1.5090    1.5566   18.3819 C   0  0  0  0  0  0  0  0  0  0  0  0
   -0.2600    1.9487   18.8470 C   0  0  0  0  0  0  0  0  0  0  0  0
    0.7084    2.3733   17.9568 C   0  0  0  0  0  0  0  0  0  0  0  0
    1.0496    2.8795   14.3024 N   0  0  0  0  0  0  0  0  0  0  0  0
    1.8849    3.7185   13.4600 C   0  0  0  0  0  0  0  0  0  0  0  0
    2.6452    2.8828   12.4493 C   0  0  0  0  0  0  0  0  0  0  0  0
    2.0644    1.5121   12.2792 C   0  0  0  0  0  0  0  0  0  0  0  0
    0.5743    1.4180   12.4527 C   0  0  0  0  0  0  0  0  0  0  0  0
    0.0024    2.1670   13.5951 C   0  0  0  0  0  0  0  0  0  0  0  0
    2.3797    1.0781   10.9379 N   0  0  0  0  0  0  0  0  0  0  0  0
    3.0156    1.9998   10.0294 C   0  0  0  0  0  0  0  0  0  0  0  0
    2.0859   -0.2401   10.5030 C   0  0  0  0  0  0  0  0  0  0  0  0
    2.0456   -0.5995    9.2988 O   0  0  0  0  0  0  0  0  0  0  0  0
    1.8004   -1.2992   11.4791 C   0  0  0  0  0  0  0  0  0  0  0  0
    0.5799   -1.8573   11.6829 C   0  0  0  0  0  0  0  0  0  0  0  0
    0.4381   -2.8540   12.6172 C   0  0  0  0  0  0  0  0  0  0  0  0
    1.5278   -3.2697   13.3289 C   0  0  0  0  0  0  0  0  0  0  0  0
    2.7661   -2.7284   13.1471 C   0  0  0  0  0  0  0  0  0  0  0  0
    2.9023   -1.7335   12.2128 C   0  0  0  0  0  0  0  0  0  0  0  0
    1.3692   -4.2476   14.2402 F   0  0  0  0  0  0  0  0  0  0  0  0
   -0.5820   -1.3588   10.8902 C   0  0  0  0  0  0  0  0  0  0  0  0
   -0.3548   -1.6164    9.5494 F   0  0  0  0  0  0  0  0  0  0  0  0
   -1.7054   -2.0794   11.2545 F   0  0  0  0  0  0  0  0  0  0  0  0
   -0.8235   -0.0451   11.1313 F   0  0  0  0  0  0  0  0  0  0  0  0
  1  2  1  0
  2  3  1  0
  3  4  2  0
  4  5  1  0
  5  6  2  0
  3  7  1  0
  7  8  2  0
  8  9  1  0
  9 10  2  0
 10 11  1  0
 11 12  2  0
 12 13  1  0
 13 14  2  0
 14 15  1  0
 15 16  2  0
 10 17  1  0
 17 18  1  0
 18 19  1  0
 19 20  1  0
 20 21  1  0
 21 22  1  0
 20 23  1  0
 23 24  1  0
 23 25  1  0
 25 26  2  0
 25 27  1  0
 27 28  2  0
 28 29  1  0
 29 30  2  0
 30 31  1  0
 31 32  2  0
 30 33  1  0
 28 34  1  0
 34 35  1  0
 34 36  1  0
 34 37  1  0
  6  2  1  0
 16  7  1  0
 16 11  1  0
 22 17  1  0
 32 27  1  0
M  END
$$$$
