
     RDKit          3D

 37 41  0  0  0  0  0  0  0  0999 V2000
   -1.0539    4.0624   20.0235 C   0  0  0  0  0  0  0  0  0  0  0  0
   -1.6111    2.7369   19.9680 N   0  0  0  0  0  0  0  0  0  0  0  0
   -1.5217    1.8886   18.9081 C   0  0  0  0  0  0  0  0  0  0  0  0
   -2.1952    0.7546   19.3086 C   0  0  0  0  0  0  0  0  0  0  0  0
   -2.6689    0.9486   20.5885 C   0  0  0  0  0  0  0  0  0  0  0  0
   -2.2933    2.1702   20.9594 N   0  0  0  0  0  0  0  0  0  0  0  0
   -0.8505    2.2150   17.6665 C   0  0  0  0  0  0  0  0  0  0  0  0
   -1.4394    1.9904   16.4590 N   0  0  0  0  0  0  0  0  0  0  0  0
   -0.8521    2.2711   15.3336 N   0  0  0  0  0  0  0  0  0  0  0  0
    0.3946    2.8107   15.2447 C   0  0  0  0  0  0  0  0  0  0  0  0
    1.0507    3.0651   16.4220 C   0  0  0  0  0  0  0  0  0  0  0  0
    2.3240    3.6120   16.3882 C   0  0  0  0  0  0  0  0  0  0  0  0
    2.9907    3.8654   17.5477 C   0  0  0  0  0  0  0  0  0  0  0  0
    2.3805    3.5703   18.7442 C   0  0  0  0  0  0  0  0  0  0  0  0
    1.1049    3.0227   18.8030 C   0  0  0  0  0  0  0  0  0  0  0  0
    0.4103    2.7588   17.6375 C   0  0  0  0  0  0  0  0  0  0  0  0
    0.9548    3.0616   13.9853 N   0  0  0  0  0  0  0  0  0  0  0  0
    2.3884    2.9216   13.7939 C   0  0  0  0  0  0  0  0  0  0  0  0
    2.6961    1.8163   12.8032 C   0  0  0  0  0  0  0  0  0  0  0  0
    1.5077    1.4369   11.9734 C   0  0  0  0  0  0  0  0  0  0  0  0
    0.5511    2.5558   11.6691 C   0  0  0  0  0  0  0  0  0  0  0  0
    0.2235    3.4582   12.7968 C   0  0  0  0  0  0  0  0  0  0  0  0
    2.0085    0.9318   10.7160 N   0  0  0  0  0  0  0  0  0  0  0  0
    1.6126    1.5771    9.4887 C   0  0  0  0  0  0  0  0  0  0  0  0
    2.8906   -0.1785   10.6681 C   0  0  0  0  0  0  0  0  0  0  0  0
    3.3647   -0.6651    9.6102 O   0  0  0  0  0  0  0  0  0  0  0  0
    3.3134   -0.8467   11.9053 C   0  0  0  0  0  0  0  0  0  0  0  0
    2.6163   -1.8271   12.5343 C   0  0  0  0  0  0  0  0  0  0  0  0
    3.1215   -2.3884   13.6815 C   0  0  0  0  0  0  0  0  0  0  0  0
    4.3188   -1.9517   14.1740 C   0  0  0  0  0  0  0  0  0  0  0  0
    5.0417   -0.9688   13.5652 C   0  0  0  0  0  0  0  0  0  0  0  0
    4.5329   -0.4117   12.4198 C   0  0  0  0  0  0  0  0  0  0  0  0
    4.7977   -2.5138   15.2994 F   0  0  0  0  0  0  0  0  0  0  0  0
    1.3066   -2.2593   11.9643 C   0  0  0  0  0  0  0  0  0  0  0  0
    1.5075   -2.7175   10.6739 F   0  0  0  0  0  0  0  0  0  0  0  0
    0.8364   -3.3300   12.7038 F   0  0  0  0  0  0  0  0  0  0  0  0
    0.3846   -1.2651   12.0230 F   0  0  0  0  0  0  0  0  0  0  0  0
  1  2  1  0
  2  3  1  0
  3  4  2  0
  4  5  1  0
  5  6  2  0
  3  7  1  0
  7  8  2  0
  8  9  1  0
  9 10  2  0
 10 11  1  0
 11 12  2  0
 12 13  1  0
 13 14  2  0
 14 15  1  0
 15 16  2  0
 10 17  1  0
 17 18  1  0
 18 19  1  0
 19 20  1  0
 20 21  1  0
 21 22  1  0
 20 23  1  0
 23 24  1  0
 23 25  1  0
 25 26  2  0
 25 27  1  0
 27 28  2  0
 28 29  1  0
 29 30  2  0
 30 31  1  0
 31 32  2  0
 30 33  1  0
 28 34  1  0
 34 35  1  0
 34 36  1  0
 34 37  1  0
  6  2  1  0
 16  7  1  0
 16 11  1  0
 22 17  1  0
 32 27  1  0
M  END
$$$$
