
     RDKit          3D

 37 41  0  0  0  0  0  0  0  0999 V2000
    0.3393    0.7263   21.4794 C   0  0  0  0  0  0  0  0  0  0  0  0
    1.6242    1.2967   21.1724 N   0  0  0  0  0  0  0  0  0  0  0  0
    2.1815    1.3611   19.9329 C   0  0  0  0  0  0  0  0  0  0  0  0
    3.3980    1.9795   20.1270 C   0  0  0  0  0  0  0  0  0  0  0  0
    3.5401    2.2683   21.4674 C   0  0  0  0  0  0  0  0  0  0  0  0
    2.4376    1.8372   22.0754 N   0  0  0  0  0  0  0  0  0  0  0  0
    1.5498    0.8459   18.7354 C   0  0  0  0  0  0  0  0  0  0  0  0
    2.0080   -0.2777   18.1166 N   0  0  0  0  0  0  0  0  0  0  0  0
    1.4589   -0.7533   17.0383 N   0  0  0  0  0  0  0  0  0  0  0  0
    0.3845   -0.1868   16.4233 C   0  0  0  0  0  0  0  0  0  0  0  0
   -0.1327    0.9499   16.9905 C   0  0  0  0  0  0  0  0  0  0  0  0
   -1.2251    1.5685   16.4029 C   0  0  0  0  0  0  0  0  0  0  0  0
   -1.7468    2.7003   16.9504 C   0  0  0  0  0  0  0  0  0  0  0  0
   -1.1728    3.2140   18.0896 C   0  0  0  0  0  0  0  0  0  0  0  0
   -0.0781    2.6111   18.6967 C   0  0  0  0  0  0  0  0  0  0  0  0
    0.4661    1.4606   18.1575 C   0  0  0  0  0  0  0  0  0  0  0  0
   -0.1279   -0.7605   15.2522 N   0  0  0  0  0  0  0  0  0  0  0  0
   -0.9076    0.0519   14.3338 C   0  0  0  0  0  0  0  0  0  0  0  0
   -0.2101    0.1729   12.9934 C   0  0  0  0  0  0  0  0  0  0  0  0
    0.8493   -0.8683   12.7974 C   0  0  0  0  0  0  0  0  0  0  0  0
    0.5799   -2.1929   13.4549 C   0  0  0  0  0  0  0  0  0  0  0  0
    0.0496   -2.1390   14.8366 C   0  0  0  0  0  0  0  0  0  0  0  0
    0.9645   -1.0979   11.3757 N   0  0  0  0  0  0  0  0  0  0  0  0
   -0.1892   -1.5504   10.6385 C   0  0  0  0  0  0  0  0  0  0  0  0
    2.1873   -0.8753   10.6913 C   0  0  0  0  0  0  0  0  0  0  0  0
    2.3308   -0.9616    9.4452 O   0  0  0  0  0  0  0  0  0  0  0  0
    3.4018   -0.5180   11.4350 C   0  0  0  0  0  0  0  0  0  0  0  0
    3.7950    0.7509   11.7141 C   0  0  0  0  0  0  0  0  0  0  0  0
    4.9467    0.9609   12.4323 C   0  0  0  0  0  0  0  0  0  0  0  0
    5.6812   -0.1106   12.8554 C   0  0  0  0  0  0  0  0  0  0  0  0
    5.3125   -1.3964   12.5904 C   0  0  0  0  0  0  0  0  0  0  0  0
    4.1614   -1.6007   11.8731 C   0  0  0  0  0  0  0  0  0  0  0  0
    6.8070    0.1150   13.5579 F   0  0  0  0  0  0  0  0  0  0  0  0
    2.9658    1.8880   11.2176 C   0  0  0  0  0  0  0  0  0  0  0  0
    3.4964    2.3430   10.0230 F   0  0  0  0  0  0  0  0  0  0  0  0
    1.6943    1.4179   10.9409 F   0  0  0  0  0  0  0  0  0  0  0  0
    2.8619    2.8724   12.1462 F   0  0  0  0  0  0  0  0  0  0  0  0
  1  2  1  0
  2  3  1  0
  3  4  2  0
  4  5  1  0
  5  6  2  0
  3  7  1  0
  7  8  2  0
  8  9  1  0
  9 10  2  0
 10 11  1  0
 11 12  2  0
 12 13  1  0
 13 14  2  0
 14 15  1  0
 15 16  2  0
 10 17  1  0
 17 18  1  0
 18 19  1  0
 19 20  1  0
 20 21  1  0
 21 22  1  0
 20 23  1  0
 23 24  1  0
 23 25  1  0
 25 26  2  0
 25 27  1  0
 27 28  2  0
 28 29  1  0
 29 30  2  0
 30 31  1  0
 31 32  2  0
 30 33  1  0
 28 34  1  0
 34 35  1  0
 34 36  1  0
 34 37  1  0
  6  2  1  0
 16  7  1  0
 16 11  1  0
 22 17  1  0
 32 27  1  0
M  END
$$$$
