
     RDKit          3D

 37 41  0  0  0  0  0  0  0  0999 V2000
    0.7128    3.8032   18.8238 C   0  0  0  0  0  0  0  0  0  0  0  0
    1.4151    2.9972   19.7870 N   0  0  0  0  0  0  0  0  0  0  0  0
    2.1080    1.8603   19.5071 C   0  0  0  0  0  0  0  0  0  0  0  0
    2.6013    1.4416   20.7242 C   0  0  0  0  0  0  0  0  0  0  0  0
    2.1953    2.3299   21.6968 C   0  0  0  0  0  0  0  0  0  0  0  0
    1.4728    3.2672   21.0881 N   0  0  0  0  0  0  0  0  0  0  0  0
    2.2257    1.2921   18.1797 C   0  0  0  0  0  0  0  0  0  0  0  0
    3.4275    1.2130   17.5437 N   0  0  0  0  0  0  0  0  0  0  0  0
    3.5537    0.7119   16.3507 N   0  0  0  0  0  0  0  0  0  0  0  0
    2.5135    0.2210   15.6224 C   0  0  0  0  0  0  0  0  0  0  0  0
    1.2700    0.2672   16.1992 C   0  0  0  0  0  0  0  0  0  0  0  0
    0.1756   -0.2170   15.4996 C   0  0  0  0  0  0  0  0  0  0  0  0
   -1.0659   -0.1734   16.0559 C   0  0  0  0  0  0  0  0  0  0  0  0
   -1.2120    0.3568   17.3164 C   0  0  0  0  0  0  0  0  0  0  0  0
   -0.1301    0.8474   18.0369 C   0  0  0  0  0  0  0  0  0  0  0  0
    1.1392    0.8113   17.4908 C   0  0  0  0  0  0  0  0  0  0  0  0
    2.7431   -0.2826   14.3352 N   0  0  0  0  0  0  0  0  0  0  0  0
    1.8365   -1.2710   13.7762 C   0  0  0  0  0  0  0  0  0  0  0  0
    1.1323   -0.7259   12.5495 C   0  0  0  0  0  0  0  0  0  0  0  0
    1.8154    0.4795   11.9791 C   0  0  0  0  0  0  0  0  0  0  0  0
    3.3101    0.5070   12.1356 C   0  0  0  0  0  0  0  0  0  0  0  0
    3.8346    0.0987   13.4589 C   0  0  0  0  0  0  0  0  0  0  0  0
    1.5202    0.5085   10.5652 N   0  0  0  0  0  0  0  0  0  0  0  0
    1.9848   -0.5677    9.7254 C   0  0  0  0  0  0  0  0  0  0  0  0
    0.7727    1.5692    9.9913 C   0  0  0  0  0  0  0  0  0  0  0  0
    0.4537    1.6389    8.7772 O   0  0  0  0  0  0  0  0  0  0  0  0
    0.3136    2.6899   10.8214 C   0  0  0  0  0  0  0  0  0  0  0  0
    0.8890    3.9190   10.8519 C   0  0  0  0  0  0  0  0  0  0  0  0
    0.3599    4.8950   11.6604 C   0  0  0  0  0  0  0  0  0  0  0  0
   -0.7384    4.6150   12.4233 C   0  0  0  0  0  0  0  0  0  0  0  0
   -1.3382    3.3905   12.4146 C   0  0  0  0  0  0  0  0  0  0  0  0
   -0.8060    2.4194   11.6053 C   0  0  0  0  0  0  0  0  0  0  0  0
   -1.2428    5.5843   13.2095 F   0  0  0  0  0  0  0  0  0  0  0  0
    2.0956    4.1708   10.0107 C   0  0  0  0  0  0  0  0  0  0  0  0
    1.7356    4.1001    8.6761 F   0  0  0  0  0  0  0  0  0  0  0  0
    2.5323    5.4630   10.2426 F   0  0  0  0  0  0  0  0  0  0  0  0
    3.1061    3.3192   10.3201 F   0  0  0  0  0  0  0  0  0  0  0  0
  1  2  1  0
  2  3  1  0
  3  4  2  0
  4  5  1  0
  5  6  2  0
  3  7  1  0
  7  8  2  0
  8  9  1  0
  9 10  2  0
 10 11  1  0
 11 12  2  0
 12 13  1  0
 13 14  2  0
 14 15  1  0
 15 16  2  0
 10 17  1  0
 17 18  1  0
 18 19  1  0
 19 20  1  0
 20 21  1  0
 21 22  1  0
 20 23  1  0
 23 24  1  0
 23 25  1  0
 25 26  2  0
 25 27  1  0
 27 28  2  0
 28 29  1  0
 29 30  2  0
 30 31  1  0
 31 32  2  0
 30 33  1  0
 28 34  1  0
 34 35  1  0
 34 36  1  0
 34 37  1  0
  6  2  1  0
 16  7  1  0
 16 11  1  0
 22 17  1  0
 32 27  1  0
M  END
$$$$
