
     RDKit          3D

 37 41  0  0  0  0  0  0  0  0999 V2000
    1.2354    3.9905   20.9678 C   0  0  0  0  0  0  0  0  0  0  0  0
    2.3103    3.0344   20.9966 N   0  0  0  0  0  0  0  0  0  0  0  0
    2.7192    2.2769   19.9430 C   0  0  0  0  0  0  0  0  0  0  0  0
    3.7605    1.5211   20.4375 C   0  0  0  0  0  0  0  0  0  0  0  0
    3.9493    1.8406   21.7650 C   0  0  0  0  0  0  0  0  0  0  0  0
    3.0460    2.7683   22.0724 N   0  0  0  0  0  0  0  0  0  0  0  0
    2.1099    2.3240   18.6295 C   0  0  0  0  0  0  0  0  0  0  0  0
    2.7974    2.7714   17.5421 N   0  0  0  0  0  0  0  0  0  0  0  0
    2.2674    2.8268   16.3562 N   0  0  0  0  0  0  0  0  0  0  0  0
    0.9887    2.4494   16.0805 C   0  0  0  0  0  0  0  0  0  0  0  0
    0.2340    1.9871   17.1283 C   0  0  0  0  0  0  0  0  0  0  0  0
   -1.0755    1.5922   16.9030 C   0  0  0  0  0  0  0  0  0  0  0  0
   -1.8394    1.1362   17.9333 C   0  0  0  0  0  0  0  0  0  0  0  0
   -1.2903    1.0754   19.1927 C   0  0  0  0  0  0  0  0  0  0  0  0
    0.0198    1.4649   19.4425 C   0  0  0  0  0  0  0  0  0  0  0  0
    0.8128    1.9297   18.4101 C   0  0  0  0  0  0  0  0  0  0  0  0
    0.4974    2.5630   14.7733 N   0  0  0  0  0  0  0  0  0  0  0  0
    0.8987    3.6899   13.9485 C   0  0  0  0  0  0  0  0  0  0  0  0
    1.6831    3.2221   12.7387 C   0  0  0  0  0  0  0  0  0  0  0  0
    1.5020    1.7606   12.4625 C   0  0  0  0  0  0  0  0  0  0  0  0
    0.1547    1.1994   12.8223 C   0  0  0  0  0  0  0  0  0  0  0  0
   -0.4048    1.6310   14.1238 C   0  0  0  0  0  0  0  0  0  0  0  0
    1.6949    1.5669   11.0440 N   0  0  0  0  0  0  0  0  0  0  0  0
    1.9510    2.7108   10.2043 C   0  0  0  0  0  0  0  0  0  0  0  0
    1.6486    0.2723   10.4652 C   0  0  0  0  0  0  0  0  0  0  0  0
    2.3359   -0.0898    9.4766 O   0  0  0  0  0  0  0  0  0  0  0  0
    0.7562   -0.7565   11.0139 C   0  0  0  0  0  0  0  0  0  0  0  0
    1.1630   -1.8288   11.7401 C   0  0  0  0  0  0  0  0  0  0  0  0
    0.2309   -2.7192   12.2141 C   0  0  0  0  0  0  0  0  0  0  0  0
   -1.0932   -2.5134   11.9476 C   0  0  0  0  0  0  0  0  0  0  0  0
   -1.5326   -1.4464   11.2210 C   0  0  0  0  0  0  0  0  0  0  0  0
   -0.5977   -0.5601   10.7502 C   0  0  0  0  0  0  0  0  0  0  0  0
   -1.9920   -3.3969   12.4204 F   0  0  0  0  0  0  0  0  0  0  0  0
    2.6218   -2.0169   11.9921 C   0  0  0  0  0  0  0  0  0  0  0  0
    2.7921   -3.0546   12.8920 F   0  0  0  0  0  0  0  0  0  0  0  0
    3.2265   -2.4051   10.8097 F   0  0  0  0  0  0  0  0  0  0  0  0
    3.2080   -0.8668   12.4112 F   0  0  0  0  0  0  0  0  0  0  0  0
  1  2  1  0
  2  3  1  0
  3  4  2  0
  4  5  1  0
  5  6  2  0
  3  7  1  0
  7  8  2  0
  8  9  1  0
  9 10  2  0
 10 11  1  0
 11 12  2  0
 12 13  1  0
 13 14  2  0
 14 15  1  0
 15 16  2  0
 10 17  1  0
 17 18  1  0
 18 19  1  0
 19 20  1  0
 20 21  1  0
 21 22  1  0
 20 23  1  0
 23 24  1  0
 23 25  1  0
 25 26  2  0
 25 27  1  0
 27 28  2  0
 28 29  1  0
 29 30  2  0
 30 31  1  0
 31 32  2  0
 30 33  1  0
 28 34  1  0
 34 35  1  0
 34 36  1  0
 34 37  1  0
  6  2  1  0
 16  7  1  0
 16 11  1  0
 22 17  1  0
 32 27  1  0
M  END
$$$$
