
     RDKit          3D

 37 41  0  0  0  0  0  0  0  0999 V2000
    4.5434   -1.2175   19.8568 C   0  0  0  0  0  0  0  0  0  0  0  0
    4.4814    0.2040   20.0719 N   0  0  0  0  0  0  0  0  0  0  0  0
    3.6406    1.0614   19.4323 C   0  0  0  0  0  0  0  0  0  0  0  0
    3.9394    2.3011   19.9555 C   0  0  0  0  0  0  0  0  0  0  0  0
    4.9442    2.1587   20.8883 C   0  0  0  0  0  0  0  0  0  0  0  0
    5.2503    0.8643   20.9332 N   0  0  0  0  0  0  0  0  0  0  0  0
    2.6847    0.6532   18.4233 C   0  0  0  0  0  0  0  0  0  0  0  0
    2.8978   -0.4431   17.6435 N   0  0  0  0  0  0  0  0  0  0  0  0
    2.0554   -0.8230   16.7290 N   0  0  0  0  0  0  0  0  0  0  0  0
    0.8892   -0.1747   16.4583 C   0  0  0  0  0  0  0  0  0  0  0  0
    0.6063    0.9405   17.2050 C   0  0  0  0  0  0  0  0  0  0  0  0
   -0.5670    1.6396   16.9684 C   0  0  0  0  0  0  0  0  0  0  0  0
   -0.8597    2.7514   17.6972 C   0  0  0  0  0  0  0  0  0  0  0  0
    0.0251    3.1642   18.6656 C   0  0  0  0  0  0  0  0  0  0  0  0
    1.2066    2.4794   18.9212 C   0  0  0  0  0  0  0  0  0  0  0  0
    1.5222    1.3475   18.1934 C   0  0  0  0  0  0  0  0  0  0  0  0
    0.0518   -0.6475   15.4394 N   0  0  0  0  0  0  0  0  0  0  0  0
   -0.9487    0.2341   14.8623 C   0  0  0  0  0  0  0  0  0  0  0  0
   -0.6673    0.4832   13.3938 C   0  0  0  0  0  0  0  0  0  0  0  0
    0.2753   -0.5231   12.8074 C   0  0  0  0  0  0  0  0  0  0  0  0
    0.1890   -1.9044   13.3937 C   0  0  0  0  0  0  0  0  0  0  0  0
    0.0820   -1.9810   14.8688 C   0  0  0  0  0  0  0  0  0  0  0  0
   -0.0290   -0.6230   11.3987 N   0  0  0  0  0  0  0  0  0  0  0  0
   -1.0901   -1.4986   10.9667 C   0  0  0  0  0  0  0  0  0  0  0  0
    0.6885    0.1324   10.4356 C   0  0  0  0  0  0  0  0  0  0  0  0
    0.3112    0.3156    9.2503 O   0  0  0  0  0  0  0  0  0  0  0  0
    1.9652    0.7664   10.7880 C   0  0  0  0  0  0  0  0  0  0  0  0
    2.1094    2.0628   11.1640 C   0  0  0  0  0  0  0  0  0  0  0  0
    3.3565    2.5404   11.4848 C   0  0  0  0  0  0  0  0  0  0  0  0
    4.4349    1.7041   11.4204 C   0  0  0  0  0  0  0  0  0  0  0  0
    4.3220    0.3977   11.0460 C   0  0  0  0  0  0  0  0  0  0  0  0
    3.0744   -0.0744   10.7269 C   0  0  0  0  0  0  0  0  0  0  0  0
    5.6492    2.1903   11.7384 F   0  0  0  0  0  0  0  0  0  0  0  0
    0.9027    2.9397   11.2050 C   0  0  0  0  0  0  0  0  0  0  0  0
    0.3488    3.0013    9.9381 F   0  0  0  0  0  0  0  0  0  0  0  0
   -0.0406    2.3526   12.0294 F   0  0  0  0  0  0  0  0  0  0  0  0
    1.1955    4.1682   11.7023 F   0  0  0  0  0  0  0  0  0  0  0  0
  1  2  1  0
  2  3  1  0
  3  4  2  0
  4  5  1  0
  5  6  2  0
  3  7  1  0
  7  8  2  0
  8  9  1  0
  9 10  2  0
 10 11  1  0
 11 12  2  0
 12 13  1  0
 13 14  2  0
 14 15  1  0
 15 16  2  0
 10 17  1  0
 17 18  1  0
 18 19  1  0
 19 20  1  0
 20 21  1  0
 21 22  1  0
 20 23  1  0
 23 24  1  0
 23 25  1  0
 25 26  2  0
 25 27  1  0
 27 28  2  0
 28 29  1  0
 29 30  2  0
 30 31  1  0
 31 32  2  0
 30 33  1  0
 28 34  1  0
 34 35  1  0
 34 36  1  0
 34 37  1  0
  6  2  1  0
 16  7  1  0
 16 11  1  0
 22 17  1  0
 32 27  1  0
M  END
$$$$
