
     RDKit          3D

 37 41  0  0  0  0  0  0  0  0999 V2000
    2.9372    3.1902   19.4890 C   0  0  0  0  0  0  0  0  0  0  0  0
    1.8620    2.3978   20.0243 N   0  0  0  0  0  0  0  0  0  0  0  0
    1.3208    1.3002   19.4298 C   0  0  0  0  0  0  0  0  0  0  0  0
    0.3351    0.8814   20.2976 C   0  0  0  0  0  0  0  0  0  0  0  0
    0.3088    1.7312   21.3826 C   0  0  0  0  0  0  0  0  0  0  0  0
    1.2550    2.6452   21.1817 N   0  0  0  0  0  0  0  0  0  0  0  0
    1.7547    0.7780   18.1501 C   0  0  0  0  0  0  0  0  0  0  0  0
    0.8983    0.6762   17.0959 N   0  0  0  0  0  0  0  0  0  0  0  0
    1.2663    0.2054   15.9412 N   0  0  0  0  0  0  0  0  0  0  0  0
    2.5273   -0.2291   15.6684 C   0  0  0  0  0  0  0  0  0  0  0  0
    3.4465   -0.1570   16.6838 C   0  0  0  0  0  0  0  0  0  0  0  0
    4.7446   -0.5889   16.4602 C   0  0  0  0  0  0  0  0  0  0  0  0
    5.6672   -0.5289   17.4592 C   0  0  0  0  0  0  0  0  0  0  0  0
    5.2888   -0.0350   18.6857 C   0  0  0  0  0  0  0  0  0  0  0  0
    3.9942    0.4043   18.9331 C   0  0  0  0  0  0  0  0  0  0  0  0
    3.0424    0.3531   17.9320 C   0  0  0  0  0  0  0  0  0  0  0  0
    2.8268   -0.7393   14.3983 N   0  0  0  0  0  0  0  0  0  0  0  0
    1.8968   -1.6481   13.7497 C   0  0  0  0  0  0  0  0  0  0  0  0
    1.3460   -1.0392   12.4755 C   0  0  0  0  0  0  0  0  0  0  0  0
    2.1683    0.1125   11.9830 C   0  0  0  0  0  0  0  0  0  0  0  0
    3.6415    0.0198   12.2668 C   0  0  0  0  0  0  0  0  0  0  0  0
    4.0163   -0.4393   13.6240 C   0  0  0  0  0  0  0  0  0  0  0  0
    1.9992    0.1758   10.5497 N   0  0  0  0  0  0  0  0  0  0  0  0
    3.1107   -0.1557    9.6930 C   0  0  0  0  0  0  0  0  0  0  0  0
    0.7579    0.5465    9.9709 C   0  0  0  0  0  0  0  0  0  0  0  0
    0.4995    0.4850    8.7420 O   0  0  0  0  0  0  0  0  0  0  0  0
   -0.3369    1.0437   10.8136 C   0  0  0  0  0  0  0  0  0  0  0  0
   -1.3958    0.3016   11.2268 C   0  0  0  0  0  0  0  0  0  0  0  0
   -2.3536    0.8746   12.0273 C   0  0  0  0  0  0  0  0  0  0  0  0
   -2.2273    2.1840   12.3962 C   0  0  0  0  0  0  0  0  0  0  0  0
   -1.1758    2.9549   11.9970 C   0  0  0  0  0  0  0  0  0  0  0  0
   -0.2220    2.3779   11.1980 C   0  0  0  0  0  0  0  0  0  0  0  0
   -3.1760    2.7281   13.1810 F   0  0  0  0  0  0  0  0  0  0  0  0
   -1.4955   -1.1203   10.7851 C   0  0  0  0  0  0  0  0  0  0  0  0
   -0.3361   -1.7850   11.1450 F   0  0  0  0  0  0  0  0  0  0  0  0
   -2.5351   -1.7227   11.4710 F   0  0  0  0  0  0  0  0  0  0  0  0
   -1.7539   -1.2128    9.4559 F   0  0  0  0  0  0  0  0  0  0  0  0
  1  2  1  0
  2  3  1  0
  3  4  2  0
  4  5  1  0
  5  6  2  0
  3  7  1  0
  7  8  2  0
  8  9  1  0
  9 10  2  0
 10 11  1  0
 11 12  2  0
 12 13  1  0
 13 14  2  0
 14 15  1  0
 15 16  2  0
 10 17  1  0
 17 18  1  0
 18 19  1  0
 19 20  1  0
 20 21  1  0
 21 22  1  0
 20 23  1  0
 23 24  1  0
 23 25  1  0
 25 26  2  0
 25 27  1  0
 27 28  2  0
 28 29  1  0
 29 30  2  0
 30 31  1  0
 31 32  2  0
 30 33  1  0
 28 34  1  0
 34 35  1  0
 34 36  1  0
 34 37  1  0
  6  2  1  0
 16  7  1  0
 16 11  1  0
 22 17  1  0
 32 27  1  0
M  END
$$$$
