
     RDKit          3D

 37 41  0  0  0  0  0  0  0  0999 V2000
   -1.3039    0.0258   20.9435 C   0  0  0  0  0  0  0  0  0  0  0  0
   -2.0211    1.0253   20.1971 N   0  0  0  0  0  0  0  0  0  0  0  0
   -1.6515    1.5186   18.9842 C   0  0  0  0  0  0  0  0  0  0  0  0
   -2.6273    2.4394   18.6679 C   0  0  0  0  0  0  0  0  0  0  0  0
   -3.5508    2.4761   19.6905 C   0  0  0  0  0  0  0  0  0  0  0  0
   -3.1486    1.5994   20.6074 N   0  0  0  0  0  0  0  0  0  0  0  0
   -0.4596    1.1043   18.2727 C   0  0  0  0  0  0  0  0  0  0  0  0
   -0.2264   -0.2047   17.9773 N   0  0  0  0  0  0  0  0  0  0  0  0
    0.8393   -0.5978   17.3446 N   0  0  0  0  0  0  0  0  0  0  0  0
    1.8197    0.2447   16.9175 C   0  0  0  0  0  0  0  0  0  0  0  0
    1.6535    1.5807   17.1798 C   0  0  0  0  0  0  0  0  0  0  0  0
    2.6234    2.4818   16.7690 C   0  0  0  0  0  0  0  0  0  0  0  0
    2.4760    3.8103   17.0264 C   0  0  0  0  0  0  0  0  0  0  0  0
    1.3539    4.2376   17.6971 C   0  0  0  0  0  0  0  0  0  0  0  0
    0.3683    3.3534   18.1179 C   0  0  0  0  0  0  0  0  0  0  0  0
    0.4981    2.0006   17.8655 C   0  0  0  0  0  0  0  0  0  0  0  0
    2.9431   -0.2733   16.2598 N   0  0  0  0  0  0  0  0  0  0  0  0
    2.9822   -1.6809   15.9012 C   0  0  0  0  0  0  0  0  0  0  0  0
    3.0387   -1.8539   14.3964 C   0  0  0  0  0  0  0  0  0  0  0  0
    3.4532   -0.6015   13.6860 C   0  0  0  0  0  0  0  0  0  0  0  0
    4.4128    0.2778   14.4379 C   0  0  0  0  0  0  0  0  0  0  0  0
    4.1219    0.4801   15.8758 C   0  0  0  0  0  0  0  0  0  0  0  0
    4.0948   -1.0012   12.4548 N   0  0  0  0  0  0  0  0  0  0  0  0
    5.2865   -1.8111   12.5111 C   0  0  0  0  0  0  0  0  0  0  0  0
    3.5674   -0.6216   11.1935 C   0  0  0  0  0  0  0  0  0  0  0  0
    4.0030   -1.0321   10.0878 O   0  0  0  0  0  0  0  0  0  0  0  0
    2.4369    0.3116   11.1101 C   0  0  0  0  0  0  0  0  0  0  0  0
    1.1477   -0.0501   10.8872 C   0  0  0  0  0  0  0  0  0  0  0  0
    0.1711    0.9147   10.8443 C   0  0  0  0  0  0  0  0  0  0  0  0
    0.5110    2.2254   11.0261 C   0  0  0  0  0  0  0  0  0  0  0  0
    1.7968    2.6197   11.2514 C   0  0  0  0  0  0  0  0  0  0  0  0
    2.7682    1.6524   11.2935 C   0  0  0  0  0  0  0  0  0  0  0  0
   -0.4599    3.1567   10.9806 F   0  0  0  0  0  0  0  0  0  0  0  0
    0.8295   -1.4933   10.6806 C   0  0  0  0  0  0  0  0  0  0  0  0
   -0.5319   -1.6278   10.4711 F   0  0  0  0  0  0  0  0  0  0  0  0
    1.4596   -1.9223    9.5259 F   0  0  0  0  0  0  0  0  0  0  0  0
    1.2720   -2.2545   11.7136 F   0  0  0  0  0  0  0  0  0  0  0  0
  1  2  1  0
  2  3  1  0
  3  4  2  0
  4  5  1  0
  5  6  2  0
  3  7  1  0
  7  8  2  0
  8  9  1  0
  9 10  2  0
 10 11  1  0
 11 12  2  0
 12 13  1  0
 13 14  2  0
 14 15  1  0
 15 16  2  0
 10 17  1  0
 17 18  1  0
 18 19  1  0
 19 20  1  0
 20 21  1  0
 21 22  1  0
 20 23  1  0
 23 24  1  0
 23 25  1  0
 25 26  2  0
 25 27  1  0
 27 28  2  0
 28 29  1  0
 29 30  2  0
 30 31  1  0
 31 32  2  0
 30 33  1  0
 28 34  1  0
 34 35  1  0
 34 36  1  0
 34 37  1  0
  6  2  1  0
 16  7  1  0
 16 11  1  0
 22 17  1  0
 32 27  1  0
M  END
$$$$
