
     RDKit          3D

 37 41  0  0  0  0  0  0  0  0999 V2000
    3.9826   -2.6618   16.6333 C   0  0  0  0  0  0  0  0  0  0  0  0
    5.0654   -2.6847   15.6859 N   0  0  0  0  0  0  0  0  0  0  0  0
    5.0996   -1.9977   14.5121 C   0  0  0  0  0  0  0  0  0  0  0  0
    6.3141   -2.3258   13.9489 C   0  0  0  0  0  0  0  0  0  0  0  0
    6.9735   -3.1950   14.7914 C   0  0  0  0  0  0  0  0  0  0  0  0
    6.1811   -3.3917   15.8423 N   0  0  0  0  0  0  0  0  0  0  0  0
    4.0272   -1.1433   14.0446 C   0  0  0  0  0  0  0  0  0  0  0  0
    3.3474   -0.3250   14.8951 N   0  0  0  0  0  0  0  0  0  0  0  0
    2.3786    0.4451   14.4968 N   0  0  0  0  0  0  0  0  0  0  0  0
    1.9478    0.5135   13.2071 C   0  0  0  0  0  0  0  0  0  0  0  0
    2.5864   -0.2839   12.2919 C   0  0  0  0  0  0  0  0  0  0  0  0
    2.1853   -0.2549   10.9653 C   0  0  0  0  0  0  0  0  0  0  0  0
    2.8053   -1.0442   10.0458 C   0  0  0  0  0  0  0  0  0  0  0  0
    3.8299   -1.8648   10.4560 C   0  0  0  0  0  0  0  0  0  0  0  0
    4.2496   -1.9102   11.7796 C   0  0  0  0  0  0  0  0  0  0  0  0
    3.6343   -1.1160   12.7288 C   0  0  0  0  0  0  0  0  0  0  0  0
    0.8819    1.3599   12.8746 N   0  0  0  0  0  0  0  0  0  0  0  0
   -0.4819    0.9456   13.1572 C   0  0  0  0  0  0  0  0  0  0  0  0
   -1.1312    1.8738   14.1644 C   0  0  0  0  0  0  0  0  0  0  0  0
   -0.4051    3.1773   14.3006 C   0  0  0  0  0  0  0  0  0  0  0  0
    0.2618    3.6769   13.0495 C   0  0  0  0  0  0  0  0  0  0  0  0
    0.9995    2.6670   12.2563 C   0  0  0  0  0  0  0  0  0  0  0  0
   -1.3762    4.1667   14.7068 N   0  0  0  0  0  0  0  0  0  0  0  0
   -1.8630    5.1168   13.7375 C   0  0  0  0  0  0  0  0  0  0  0  0
   -1.8673    4.2127   16.0372 C   0  0  0  0  0  0  0  0  0  0  0  0
   -2.9851    4.6847   16.3668 O   0  0  0  0  0  0  0  0  0  0  0  0
   -1.0603    3.6895   17.1467 C   0  0  0  0  0  0  0  0  0  0  0  0
   -1.3769    2.5975   17.8882 C   0  0  0  0  0  0  0  0  0  0  0  0
   -0.5337    2.1941   18.8945 C   0  0  0  0  0  0  0  0  0  0  0  0
    0.6122    2.8982   19.1355 C   0  0  0  0  0  0  0  0  0  0  0  0
    0.9570    3.9990   18.4084 C   0  0  0  0  0  0  0  0  0  0  0  0
    0.1117    4.3975   17.4045 C   0  0  0  0  0  0  0  0  0  0  0  0
    1.4261    2.4877   20.1260 F   0  0  0  0  0  0  0  0  0  0  0  0
   -2.6468    1.8707   17.5949 C   0  0  0  0  0  0  0  0  0  0  0  0
   -2.7112    0.7397   18.3901 F   0  0  0  0  0  0  0  0  0  0  0  0
   -3.7102    2.6787   17.9561 F   0  0  0  0  0  0  0  0  0  0  0  0
   -2.7626    1.5819   16.2738 F   0  0  0  0  0  0  0  0  0  0  0  0
  1  2  1  0
  2  3  1  0
  3  4  2  0
  4  5  1  0
  5  6  2  0
  3  7  1  0
  7  8  2  0
  8  9  1  0
  9 10  2  0
 10 11  1  0
 11 12  2  0
 12 13  1  0
 13 14  2  0
 14 15  1  0
 15 16  2  0
 10 17  1  0
 17 18  1  0
 18 19  1  0
 19 20  1  0
 20 21  1  0
 21 22  1  0
 20 23  1  0
 23 24  1  0
 23 25  1  0
 25 26  2  0
 25 27  1  0
 27 28  2  0
 28 29  1  0
 29 30  2  0
 30 31  1  0
 31 32  2  0
 30 33  1  0
 28 34  1  0
 34 35  1  0
 34 36  1  0
 34 37  1  0
  6  2  1  0
 16  7  1  0
 16 11  1  0
 22 17  1  0
 32 27  1  0
M  END
$$$$
