
     RDKit          3D

 37 41  0  0  0  0  0  0  0  0999 V2000
    1.4788    2.7255    8.8973 C   0  0  0  0  0  0  0  0  0  0  0  0
    2.6468    3.3598    9.4487 N   0  0  0  0  0  0  0  0  0  0  0  0
    3.0245    3.3155   10.7550 C   0  0  0  0  0  0  0  0  0  0  0  0
    4.1853    4.0569   10.8098 C   0  0  0  0  0  0  0  0  0  0  0  0
    4.4731    4.5246    9.5455 C   0  0  0  0  0  0  0  0  0  0  0  0
    3.5122    4.0792    8.7397 N   0  0  0  0  0  0  0  0  0  0  0  0
    2.2832    2.6201   11.7872 C   0  0  0  0  0  0  0  0  0  0  0  0
    1.7045    3.2907   12.8219 N   0  0  0  0  0  0  0  0  0  0  0  0
    1.0399    2.6850   13.7609 N   0  0  0  0  0  0  0  0  0  0  0  0
    0.8554    1.3370   13.8084 C   0  0  0  0  0  0  0  0  0  0  0  0
    1.4106    0.5944   12.7977 C   0  0  0  0  0  0  0  0  0  0  0  0
    1.2549   -0.7831   12.7994 C   0  0  0  0  0  0  0  0  0  0  0  0
    1.8043   -1.5348   11.8065 C   0  0  0  0  0  0  0  0  0  0  0  0
    2.5116   -0.9054   10.8091 C   0  0  0  0  0  0  0  0  0  0  0  0
    2.6802    0.4735   10.7859 C   0  0  0  0  0  0  0  0  0  0  0  0
    2.1294    1.2553   11.7839 C   0  0  0  0  0  0  0  0  0  0  0  0
    0.1399    0.7708   14.8717 N   0  0  0  0  0  0  0  0  0  0  0  0
    0.4701   -0.5681   15.3298 C   0  0  0  0  0  0  0  0  0  0  0  0
    0.9752   -0.5412   16.7587 C   0  0  0  0  0  0  0  0  0  0  0  0
    0.6286    0.7310   17.4702 C   0  0  0  0  0  0  0  0  0  0  0  0
   -0.6689    1.3674   17.0564 C   0  0  0  0  0  0  0  0  0  0  0  0
   -0.9396    1.4089   15.6010 C   0  0  0  0  0  0  0  0  0  0  0  0
    0.5377    0.4217   18.8784 N   0  0  0  0  0  0  0  0  0  0  0  0
   -0.3694   -0.6099   19.3169 C   0  0  0  0  0  0  0  0  0  0  0  0
    1.3322    1.1055   19.8347 C   0  0  0  0  0  0  0  0  0  0  0  0
    1.2077    0.9846   21.0799 O   0  0  0  0  0  0  0  0  0  0  0  0
    2.3863    2.0311   19.4009 C   0  0  0  0  0  0  0  0  0  0  0  0
    2.3726    3.3729   19.6058 C   0  0  0  0  0  0  0  0  0  0  0  0
    3.4259    4.1363   19.1653 C   0  0  0  0  0  0  0  0  0  0  0  0
    4.4729    3.5345   18.5265 C   0  0  0  0  0  0  0  0  0  0  0  0
    4.5152    2.1896   18.3056 C   0  0  0  0  0  0  0  0  0  0  0  0
    3.4610    1.4316   18.7476 C   0  0  0  0  0  0  0  0  0  0  0  0
    5.4962    4.2992   18.1020 F   0  0  0  0  0  0  0  0  0  0  0  0
    1.1994    3.9845   20.2961 C   0  0  0  0  0  0  0  0  0  0  0  0
    0.3439    4.5132   19.3452 F   0  0  0  0  0  0  0  0  0  0  0  0
    0.5042    2.9845   20.9525 F   0  0  0  0  0  0  0  0  0  0  0  0
    1.5858    4.9062   21.2145 F   0  0  0  0  0  0  0  0  0  0  0  0
  1  2  1  0
  2  3  1  0
  3  4  2  0
  4  5  1  0
  5  6  2  0
  3  7  1  0
  7  8  2  0
  8  9  1  0
  9 10  2  0
 10 11  1  0
 11 12  2  0
 12 13  1  0
 13 14  2  0
 14 15  1  0
 15 16  2  0
 10 17  1  0
 17 18  1  0
 18 19  1  0
 19 20  1  0
 20 21  1  0
 21 22  1  0
 20 23  1  0
 23 24  1  0
 23 25  1  0
 25 26  2  0
 25 27  1  0
 27 28  2  0
 28 29  1  0
 29 30  2  0
 30 31  1  0
 31 32  2  0
 30 33  1  0
 28 34  1  0
 34 35  1  0
 34 36  1  0
 34 37  1  0
  6  2  1  0
 16  7  1  0
 16 11  1  0
 22 17  1  0
 32 27  1  0
M  END
$$$$
