
     RDKit          3D

 37 41  0  0  0  0  0  0  0  0999 V2000
    4.3007    0.1768   18.2123 C   0  0  0  0  0  0  0  0  0  0  0  0
    3.6258    0.7507   19.3462 N   0  0  0  0  0  0  0  0  0  0  0  0
    2.4736    1.4724   19.2946 C   0  0  0  0  0  0  0  0  0  0  0  0
    2.2120    1.8098   20.6052 C   0  0  0  0  0  0  0  0  0  0  0  0
    3.2058    1.2870   21.4047 C   0  0  0  0  0  0  0  0  0  0  0  0
    4.0520    0.6464   20.6018 N   0  0  0  0  0  0  0  0  0  0  0  0
    1.7638    1.7745   18.0684 C   0  0  0  0  0  0  0  0  0  0  0  0
    2.4017    2.3099   16.9906 N   0  0  0  0  0  0  0  0  0  0  0  0
    1.7822    2.5933   15.8832 N   0  0  0  0  0  0  0  0  0  0  0  0
    0.4507    2.3881   15.6873 C   0  0  0  0  0  0  0  0  0  0  0  0
   -0.2589    1.8506   16.7308 C   0  0  0  0  0  0  0  0  0  0  0  0
   -1.6186    1.6237   16.5852 C   0  0  0  0  0  0  0  0  0  0  0  0
   -2.3380    1.0958   17.6131 C   0  0  0  0  0  0  0  0  0  0  0  0
   -1.6939    0.7943   18.7902 C   0  0  0  0  0  0  0  0  0  0  0  0
   -0.3322    1.0121   18.9591 C   0  0  0  0  0  0  0  0  0  0  0  0
    0.4169    1.5461   17.9274 C   0  0  0  0  0  0  0  0  0  0  0  0
   -0.1345    2.7430   14.4647 N   0  0  0  0  0  0  0  0  0  0  0  0
    0.2477    3.9866   13.8176 C   0  0  0  0  0  0  0  0  0  0  0  0
    0.9175    3.7186   12.4844 C   0  0  0  0  0  0  0  0  0  0  0  0
    0.6567    2.3339   11.9749 C   0  0  0  0  0  0  0  0  0  0  0  0
   -0.6806    1.7539   12.3418 C   0  0  0  0  0  0  0  0  0  0  0  0
   -1.1208    1.9642   13.7401 C   0  0  0  0  0  0  0  0  0  0  0  0
    0.7323    2.3881   10.5332 N   0  0  0  0  0  0  0  0  0  0  0  0
    0.6707    3.6676    9.8712 C   0  0  0  0  0  0  0  0  0  0  0  0
    0.8776    1.2078    9.7592 C   0  0  0  0  0  0  0  0  0  0  0  0
    0.9873    1.1874    8.5069 O   0  0  0  0  0  0  0  0  0  0  0  0
    0.9079   -0.1087   10.4087 C   0  0  0  0  0  0  0  0  0  0  0  0
    2.0116   -0.6777   10.9570 C   0  0  0  0  0  0  0  0  0  0  0  0
    1.9133   -1.9119   11.5515 C   0  0  0  0  0  0  0  0  0  0  0  0
    0.7057   -2.5501   11.5824 C   0  0  0  0  0  0  0  0  0  0  0  0
   -0.4203   -2.0047   11.0401 C   0  0  0  0  0  0  0  0  0  0  0  0
   -0.3168   -0.7719   10.4478 C   0  0  0  0  0  0  0  0  0  0  0  0
    0.6290   -3.7591   12.1694 F   0  0  0  0  0  0  0  0  0  0  0  0
    3.3105    0.0535   10.8851 C   0  0  0  0  0  0  0  0  0  0  0  0
    4.3280   -0.8586   10.6654 F   0  0  0  0  0  0  0  0  0  0  0  0
    3.2811    0.8967    9.7886 F   0  0  0  0  0  0  0  0  0  0  0  0
    3.5210    0.8066   11.9945 F   0  0  0  0  0  0  0  0  0  0  0  0
  1  2  1  0
  2  3  1  0
  3  4  2  0
  4  5  1  0
  5  6  2  0
  3  7  1  0
  7  8  2  0
  8  9  1  0
  9 10  2  0
 10 11  1  0
 11 12  2  0
 12 13  1  0
 13 14  2  0
 14 15  1  0
 15 16  2  0
 10 17  1  0
 17 18  1  0
 18 19  1  0
 19 20  1  0
 20 21  1  0
 21 22  1  0
 20 23  1  0
 23 24  1  0
 23 25  1  0
 25 26  2  0
 25 27  1  0
 27 28  2  0
 28 29  1  0
 29 30  2  0
 30 31  1  0
 31 32  2  0
 30 33  1  0
 28 34  1  0
 34 35  1  0
 34 36  1  0
 34 37  1  0
  6  2  1  0
 16  7  1  0
 16 11  1  0
 22 17  1  0
 32 27  1  0
M  END
$$$$
