
     RDKit          3D

 37 41  0  0  0  0  0  0  0  0999 V2000
    0.9264   -3.8020    7.1979 C   0  0  0  0  0  0  0  0  0  0  0  0
    2.2096   -3.1885    6.9798 N   0  0  0  0  0  0  0  0  0  0  0  0
    2.7239   -2.1588    7.7053 C   0  0  0  0  0  0  0  0  0  0  0  0
    3.9559   -1.9116    7.1388 C   0  0  0  0  0  0  0  0  0  0  0  0
    4.1492   -2.7914    6.0955 C   0  0  0  0  0  0  0  0  0  0  0  0
    3.0623   -3.5564    6.0276 N   0  0  0  0  0  0  0  0  0  0  0  0
    2.0324   -1.5231    8.8081 C   0  0  0  0  0  0  0  0  0  0  0  0
    1.3262   -2.2496    9.7185 N   0  0  0  0  0  0  0  0  0  0  0  0
    0.6943   -1.6982   10.7120 N   0  0  0  0  0  0  0  0  0  0  0  0
    0.6720   -0.3567   10.9434 C   0  0  0  0  0  0  0  0  0  0  0  0
    1.3624    0.4402   10.0662 C   0  0  0  0  0  0  0  0  0  0  0  0
    1.3701    1.8136   10.2543 C   0  0  0  0  0  0  0  0  0  0  0  0
    2.0461    2.6187    9.3895 C   0  0  0  0  0  0  0  0  0  0  0  0
    2.7162    2.0468    8.3335 C   0  0  0  0  0  0  0  0  0  0  0  0
    2.7233    0.6732    8.1252 C   0  0  0  0  0  0  0  0  0  0  0  0
    2.0443   -0.1622    8.9922 C   0  0  0  0  0  0  0  0  0  0  0  0
   -0.0534    0.1488   12.0302 N   0  0  0  0  0  0  0  0  0  0  0  0
   -0.8960   -0.7416   12.8103 C   0  0  0  0  0  0  0  0  0  0  0  0
   -0.4000   -0.8413   14.2392 C   0  0  0  0  0  0  0  0  0  0  0  0
    0.5334    0.2720   14.6058 C   0  0  0  0  0  0  0  0  0  0  0  0
    0.2629    1.5877   13.9310 C   0  0  0  0  0  0  0  0  0  0  0  0
   -0.0484    1.5266   12.4844 C   0  0  0  0  0  0  0  0  0  0  0  0
    0.4159    0.4760   16.0311 N   0  0  0  0  0  0  0  0  0  0  0  0
   -0.5309   -0.3119   16.7808 C   0  0  0  0  0  0  0  0  0  0  0  0
    1.2223    1.4279   16.7071 C   0  0  0  0  0  0  0  0  0  0  0  0
    1.2515    1.5770   17.9551 O   0  0  0  0  0  0  0  0  0  0  0  0
    2.1023    2.3280   15.9512 C   0  0  0  0  0  0  0  0  0  0  0  0
    3.3273    1.9929   15.4719 C   0  0  0  0  0  0  0  0  0  0  0  0
    4.0546    2.9186   14.7645 C   0  0  0  0  0  0  0  0  0  0  0  0
    3.5350    4.1644   14.5535 C   0  0  0  0  0  0  0  0  0  0  0  0
    2.3082    4.5308   15.0226 C   0  0  0  0  0  0  0  0  0  0  0  0
    1.5858    3.6026   15.7281 C   0  0  0  0  0  0  0  0  0  0  0  0
    4.2626    5.0583   13.8580 F   0  0  0  0  0  0  0  0  0  0  0  0
    3.8566    0.6238   15.7411 C   0  0  0  0  0  0  0  0  0  0  0  0
    4.3080    0.0750   14.5534 F   0  0  0  0  0  0  0  0  0  0  0  0
    4.9532    0.7323   16.5777 F   0  0  0  0  0  0  0  0  0  0  0  0
    2.9309   -0.1574   16.3535 F   0  0  0  0  0  0  0  0  0  0  0  0
  1  2  1  0
  2  3  1  0
  3  4  2  0
  4  5  1  0
  5  6  2  0
  3  7  1  0
  7  8  2  0
  8  9  1  0
  9 10  2  0
 10 11  1  0
 11 12  2  0
 12 13  1  0
 13 14  2  0
 14 15  1  0
 15 16  2  0
 10 17  1  0
 17 18  1  0
 18 19  1  0
 19 20  1  0
 20 21  1  0
 21 22  1  0
 20 23  1  0
 23 24  1  0
 23 25  1  0
 25 26  2  0
 25 27  1  0
 27 28  2  0
 28 29  1  0
 29 30  2  0
 30 31  1  0
 31 32  2  0
 30 33  1  0
 28 34  1  0
 34 35  1  0
 34 36  1  0
 34 37  1  0
  6  2  1  0
 16  7  1  0
 16 11  1  0
 22 17  1  0
 32 27  1  0
M  END
$$$$
