
     RDKit          3D

 37 41  0  0  0  0  0  0  0  0999 V2000
    4.0310    0.1883   19.4791 C   0  0  0  0  0  0  0  0  0  0  0  0
    2.8169    0.3257   20.2392 N   0  0  0  0  0  0  0  0  0  0  0  0
    1.5571    0.2054   19.7397 C   0  0  0  0  0  0  0  0  0  0  0  0
    0.7293    0.4157   20.8216 C   0  0  0  0  0  0  0  0  0  0  0  0
    1.5062    0.6555   21.9347 C   0  0  0  0  0  0  0  0  0  0  0  0
    2.7761    0.5926   21.5416 N   0  0  0  0  0  0  0  0  0  0  0  0
    1.2627   -0.0718   18.3486 C   0  0  0  0  0  0  0  0  0  0  0  0
    1.9688   -0.9985   17.6430 N   0  0  0  0  0  0  0  0  0  0  0  0
    1.7242   -1.2582   16.3928 N   0  0  0  0  0  0  0  0  0  0  0  0
    0.7512   -0.6405   15.6681 C   0  0  0  0  0  0  0  0  0  0  0  0
   -0.0025    0.3065   16.3133 C   0  0  0  0  0  0  0  0  0  0  0  0
   -1.0049    0.9678   15.6209 C   0  0  0  0  0  0  0  0  0  0  0  0
   -1.7581    1.9141   16.2453 C   0  0  0  0  0  0  0  0  0  0  0  0
   -1.5067    2.1991   17.5671 C   0  0  0  0  0  0  0  0  0  0  0  0
   -0.5082    1.5490   18.2817 C   0  0  0  0  0  0  0  0  0  0  0  0
    0.2671    0.5840   17.6667 C   0  0  0  0  0  0  0  0  0  0  0  0
    0.5733   -0.9727   14.3187 N   0  0  0  0  0  0  0  0  0  0  0  0
   -0.3788   -0.2273   13.5129 C   0  0  0  0  0  0  0  0  0  0  0  0
    0.3240    0.5118   12.3914 C   0  0  0  0  0  0  0  0  0  0  0  0
    1.7025   -0.0132   12.1285 C   0  0  0  0  0  0  0  0  0  0  0  0
    1.8884   -1.4849   12.3715 C   0  0  0  0  0  0  0  0  0  0  0  0
    1.2737   -2.0245   13.6060 C   0  0  0  0  0  0  0  0  0  0  0  0
    1.9996    0.2444   10.7383 N   0  0  0  0  0  0  0  0  0  0  0  0
    2.2589   -0.8655    9.8551 C   0  0  0  0  0  0  0  0  0  0  0  0
    2.0292    1.5669   10.2251 C   0  0  0  0  0  0  0  0  0  0  0  0
    1.8981    1.8612    9.0098 O   0  0  0  0  0  0  0  0  0  0  0  0
    2.2238    2.7101   11.1256 C   0  0  0  0  0  0  0  0  0  0  0  0
    1.2975    3.6722   11.3688 C   0  0  0  0  0  0  0  0  0  0  0  0
    1.5901    4.6885   12.2450 C   0  0  0  0  0  0  0  0  0  0  0  0
    2.8100    4.7173   12.8595 C   0  0  0  0  0  0  0  0  0  0  0  0
    3.7609    3.7660   12.6355 C   0  0  0  0  0  0  0  0  0  0  0  0
    3.4636    2.7531   11.7598 C   0  0  0  0  0  0  0  0  0  0  0  0
    3.0785    5.7213   13.7150 F   0  0  0  0  0  0  0  0  0  0  0  0
   -0.0150    3.6039   10.6619 C   0  0  0  0  0  0  0  0  0  0  0  0
   -1.0241    3.9138   11.5570 F   0  0  0  0  0  0  0  0  0  0  0  0
   -0.0363    4.5762    9.6778 F   0  0  0  0  0  0  0  0  0  0  0  0
   -0.2006    2.3966   10.0701 F   0  0  0  0  0  0  0  0  0  0  0  0
  1  2  1  0
  2  3  1  0
  3  4  2  0
  4  5  1  0
  5  6  2  0
  3  7  1  0
  7  8  2  0
  8  9  1  0
  9 10  2  0
 10 11  1  0
 11 12  2  0
 12 13  1  0
 13 14  2  0
 14 15  1  0
 15 16  2  0
 10 17  1  0
 17 18  1  0
 18 19  1  0
 19 20  1  0
 20 21  1  0
 21 22  1  0
 20 23  1  0
 23 24  1  0
 23 25  1  0
 25 26  2  0
 25 27  1  0
 27 28  2  0
 28 29  1  0
 29 30  2  0
 30 31  1  0
 31 32  2  0
 30 33  1  0
 28 34  1  0
 34 35  1  0
 34 36  1  0
 34 37  1  0
  6  2  1  0
 16  7  1  0
 16 11  1  0
 22 17  1  0
 32 27  1  0
M  END
$$$$
