
     RDKit          3D

 37 41  0  0  0  0  0  0  0  0999 V2000
   -0.7580    3.4463   20.3312 C   0  0  0  0  0  0  0  0  0  0  0  0
   -1.5503    2.2650   20.1134 N   0  0  0  0  0  0  0  0  0  0  0  0
   -1.6224    1.5691   18.9465 C   0  0  0  0  0  0  0  0  0  0  0  0
   -2.4922    0.5326   19.2095 C   0  0  0  0  0  0  0  0  0  0  0  0
   -2.9176    0.6312   20.5169 C   0  0  0  0  0  0  0  0  0  0  0  0
   -2.3219    1.7010   21.0384 N   0  0  0  0  0  0  0  0  0  0  0  0
   -0.9066    1.9358   17.7416 C   0  0  0  0  0  0  0  0  0  0  0  0
   -1.5450    2.0598   16.5448 N   0  0  0  0  0  0  0  0  0  0  0  0
   -0.9203    2.3825   15.4512 N   0  0  0  0  0  0  0  0  0  0  0  0
    0.4175    2.6267   15.3880 C   0  0  0  0  0  0  0  0  0  0  0  0
    1.1279    2.5208   16.5564 C   0  0  0  0  0  0  0  0  0  0  0  0
    2.4939    2.7563   16.5474 C   0  0  0  0  0  0  0  0  0  0  0  0
    3.2141    2.6501   17.6976 C   0  0  0  0  0  0  0  0  0  0  0  0
    2.5645    2.3069   18.8601 C   0  0  0  0  0  0  0  0  0  0  0  0
    1.1965    2.0668   18.8938 C   0  0  0  0  0  0  0  0  0  0  0  0
    0.4465    2.1706   17.7373 C   0  0  0  0  0  0  0  0  0  0  0  0
    1.0074    2.9496   14.1589 N   0  0  0  0  0  0  0  0  0  0  0  0
    2.4192    2.6803   13.9447 C   0  0  0  0  0  0  0  0  0  0  0  0
    2.6134    1.6605   12.8402 C   0  0  0  0  0  0  0  0  0  0  0  0
    1.3958    1.4990   11.9822 C   0  0  0  0  0  0  0  0  0  0  0  0
    0.5641    2.7385   11.8047 C   0  0  0  0  0  0  0  0  0  0  0  0
    0.3280    3.5453   13.0239 C   0  0  0  0  0  0  0  0  0  0  0  0
    1.8467    1.0806   10.6751 N   0  0  0  0  0  0  0  0  0  0  0  0
    1.4986    1.8729    9.5218 C   0  0  0  0  0  0  0  0  0  0  0  0
    2.6345   -0.0876   10.5077 C   0  0  0  0  0  0  0  0  0  0  0  0
    3.0930   -0.4845    9.4064 O   0  0  0  0  0  0  0  0  0  0  0  0
    2.9691   -0.9309   11.6622 C   0  0  0  0  0  0  0  0  0  0  0  0
    2.1807   -1.9204   12.1541 C   0  0  0  0  0  0  0  0  0  0  0  0
    2.6082   -2.6538   13.2338 C   0  0  0  0  0  0  0  0  0  0  0  0
    3.8213   -2.3769   13.7980 C   0  0  0  0  0  0  0  0  0  0  0  0
    4.6352   -1.3895   13.3269 C   0  0  0  0  0  0  0  0  0  0  0  0
    4.2037   -0.6601   12.2484 C   0  0  0  0  0  0  0  0  0  0  0  0
    4.2233   -3.1064   14.8555 F   0  0  0  0  0  0  0  0  0  0  0  0
    0.8581   -2.1746   11.5115 C   0  0  0  0  0  0  0  0  0  0  0  0
    1.0658   -2.6387   10.2242 F   0  0  0  0  0  0  0  0  0  0  0  0
    0.2179   -3.1855   12.2062 F   0  0  0  0  0  0  0  0  0  0  0  0
    0.0679   -1.0716   11.5429 F   0  0  0  0  0  0  0  0  0  0  0  0
  1  2  1  0
  2  3  1  0
  3  4  2  0
  4  5  1  0
  5  6  2  0
  3  7  1  0
  7  8  2  0
  8  9  1  0
  9 10  2  0
 10 11  1  0
 11 12  2  0
 12 13  1  0
 13 14  2  0
 14 15  1  0
 15 16  2  0
 10 17  1  0
 17 18  1  0
 18 19  1  0
 19 20  1  0
 20 21  1  0
 21 22  1  0
 20 23  1  0
 23 24  1  0
 23 25  1  0
 25 26  2  0
 25 27  1  0
 27 28  2  0
 28 29  1  0
 29 30  2  0
 30 31  1  0
 31 32  2  0
 30 33  1  0
 28 34  1  0
 34 35  1  0
 34 36  1  0
 34 37  1  0
  6  2  1  0
 16  7  1  0
 16 11  1  0
 22 17  1  0
 32 27  1  0
M  END
$$$$
