
     RDKit          3D

 37 41  0  0  0  0  0  0  0  0999 V2000
    4.6731   -2.4958   16.4057 C   0  0  0  0  0  0  0  0  0  0  0  0
    4.0787   -3.6007   15.7012 N   0  0  0  0  0  0  0  0  0  0  0  0
    3.3634   -3.5061   14.5478 C   0  0  0  0  0  0  0  0  0  0  0  0
    3.0000   -4.8027   14.2532 C   0  0  0  0  0  0  0  0  0  0  0  0
    3.5015   -5.6368   15.2292 C   0  0  0  0  0  0  0  0  0  0  0  0
    4.1549   -4.8682   16.0972 N   0  0  0  0  0  0  0  0  0  0  0  0
    3.0901   -2.2571   13.8668 C   0  0  0  0  0  0  0  0  0  0  0  0
    2.8312   -1.1121   14.5576 N   0  0  0  0  0  0  0  0  0  0  0  0
    2.5782    0.0175   13.9657 N   0  0  0  0  0  0  0  0  0  0  0  0
    2.5457    0.1725   12.6135 C   0  0  0  0  0  0  0  0  0  0  0  0
    2.7973   -0.9393   11.8508 C   0  0  0  0  0  0  0  0  0  0  0  0
    2.7740   -0.8373   10.4686 C   0  0  0  0  0  0  0  0  0  0  0  0
    3.0163   -1.9326    9.6976 C   0  0  0  0  0  0  0  0  0  0  0  0
    3.2827   -3.1335   10.3126 C   0  0  0  0  0  0  0  0  0  0  0  0
    3.3122   -3.2598   11.6959 C   0  0  0  0  0  0  0  0  0  0  0  0
    3.0701   -2.1597   12.4970 C   0  0  0  0  0  0  0  0  0  0  0  0
    2.2446    1.4261   12.0650 N   0  0  0  0  0  0  0  0  0  0  0  0
    1.0303    1.5985   11.2858 C   0  0  0  0  0  0  0  0  0  0  0  0
    0.0906    2.5790   11.9591 C   0  0  0  0  0  0  0  0  0  0  0  0
    0.7769    3.4217   12.9904 C   0  0  0  0  0  0  0  0  0  0  0  0
    2.2168    3.7444   12.7041 C   0  0  0  0  0  0  0  0  0  0  0  0
    3.0483    2.6260   12.2028 C   0  0  0  0  0  0  0  0  0  0  0  0
    0.0540    4.6698   13.0721 N   0  0  0  0  0  0  0  0  0  0  0  0
   -0.1411    5.4515   11.8762 C   0  0  0  0  0  0  0  0  0  0  0  0
   -0.4766    5.1335   14.3036 C   0  0  0  0  0  0  0  0  0  0  0  0
   -1.0564    6.2385   14.4572 O   0  0  0  0  0  0  0  0  0  0  0  0
   -0.3707    4.3117   15.5158 C   0  0  0  0  0  0  0  0  0  0  0  0
    0.6397    4.3886   16.4190 C   0  0  0  0  0  0  0  0  0  0  0  0
    0.6226    3.5754   17.5257 C   0  0  0  0  0  0  0  0  0  0  0  0
   -0.4112    2.6997   17.7018 C   0  0  0  0  0  0  0  0  0  0  0  0
   -1.4398    2.5990   16.8123 C   0  0  0  0  0  0  0  0  0  0  0  0
   -1.4181    3.4135   15.7090 C   0  0  0  0  0  0  0  0  0  0  0  0
   -0.4105    1.9108   18.7925 F   0  0  0  0  0  0  0  0  0  0  0  0
    1.7533    5.3514   16.1742 C   0  0  0  0  0  0  0  0  0  0  0  0
    1.2388    6.6360   16.1466 F   0  0  0  0  0  0  0  0  0  0  0  0
    2.6303    5.2912   17.2426 F   0  0  0  0  0  0  0  0  0  0  0  0
    2.4391    5.0440   15.0440 F   0  0  0  0  0  0  0  0  0  0  0  0
  1  2  1  0
  2  3  1  0
  3  4  2  0
  4  5  1  0
  5  6  2  0
  3  7  1  0
  7  8  2  0
  8  9  1  0
  9 10  2  0
 10 11  1  0
 11 12  2  0
 12 13  1  0
 13 14  2  0
 14 15  1  0
 15 16  2  0
 10 17  1  0
 17 18  1  0
 18 19  1  0
 19 20  1  0
 20 21  1  0
 21 22  1  0
 20 23  1  0
 23 24  1  0
 23 25  1  0
 25 26  2  0
 25 27  1  0
 27 28  2  0
 28 29  1  0
 29 30  2  0
 30 31  1  0
 31 32  2  0
 30 33  1  0
 28 34  1  0
 34 35  1  0
 34 36  1  0
 34 37  1  0
  6  2  1  0
 16  7  1  0
 16 11  1  0
 22 17  1  0
 32 27  1  0
M  END
$$$$
