
     RDKit          3D

 37 41  0  0  0  0  0  0  0  0999 V2000
    4.0714   -3.2125   16.2455 C   0  0  0  0  0  0  0  0  0  0  0  0
    3.6586   -4.1097   15.1990 N   0  0  0  0  0  0  0  0  0  0  0  0
    3.0936   -3.7365   14.0190 C   0  0  0  0  0  0  0  0  0  0  0  0
    2.8706   -4.9194   13.3473 C   0  0  0  0  0  0  0  0  0  0  0  0
    3.3034   -5.9650   14.1344 C   0  0  0  0  0  0  0  0  0  0  0  0
    3.7787   -5.4331   15.2579 N   0  0  0  0  0  0  0  0  0  0  0  0
    2.8169   -2.3620   13.6547 C   0  0  0  0  0  0  0  0  0  0  0  0
    2.6222   -1.4010   14.6001 N   0  0  0  0  0  0  0  0  0  0  0  0
    2.3674   -0.1633   14.2943 N   0  0  0  0  0  0  0  0  0  0  0  0
    2.2696    0.2956   13.0163 C   0  0  0  0  0  0  0  0  0  0  0  0
    2.4541   -0.6168   12.0089 C   0  0  0  0  0  0  0  0  0  0  0  0
    2.3625   -0.2028   10.6892 C   0  0  0  0  0  0  0  0  0  0  0  0
    2.5377   -1.0970    9.6780 C   0  0  0  0  0  0  0  0  0  0  0  0
    2.8053   -2.4096    9.9893 C   0  0  0  0  0  0  0  0  0  0  0  0
    2.9024   -2.8475   11.3043 C   0  0  0  0  0  0  0  0  0  0  0  0
    2.7292   -1.9555   12.3458 C   0  0  0  0  0  0  0  0  0  0  0  0
    1.9720    1.6448   12.7834 N   0  0  0  0  0  0  0  0  0  0  0  0
    1.0624    2.0067   11.7097 C   0  0  0  0  0  0  0  0  0  0  0  0
   -0.1833    2.6738   12.2584 C   0  0  0  0  0  0  0  0  0  0  0  0
   -0.0044    3.1661   13.6621 C   0  0  0  0  0  0  0  0  0  0  0  0
    1.3831    3.6271   14.0110 C   0  0  0  0  0  0  0  0  0  0  0  0
    2.4935    2.7694   13.5371 C   0  0  0  0  0  0  0  0  0  0  0  0
   -0.8982    4.2873   13.8387 N   0  0  0  0  0  0  0  0  0  0  0  0
   -1.6586    4.7674   12.7116 C   0  0  0  0  0  0  0  0  0  0  0  0
   -1.0495    4.9157   15.1018 C   0  0  0  0  0  0  0  0  0  0  0  0
   -1.5718    6.0460   15.2758 O   0  0  0  0  0  0  0  0  0  0  0  0
   -0.5827    4.2502   16.3245 C   0  0  0  0  0  0  0  0  0  0  0  0
    0.6372    4.4349   16.8905 C   0  0  0  0  0  0  0  0  0  0  0  0
    0.9561    3.7653   18.0465 C   0  0  0  0  0  0  0  0  0  0  0  0
    0.0410    2.9220   18.6105 C   0  0  0  0  0  0  0  0  0  0  0  0
   -1.1917    2.7155   18.0655 C   0  0  0  0  0  0  0  0  0  0  0  0
   -1.5054    3.3868   16.9113 C   0  0  0  0  0  0  0  0  0  0  0  0
    0.3718    2.2744   19.7433 F   0  0  0  0  0  0  0  0  0  0  0  0
    1.6069    5.3558   16.2283 C   0  0  0  0  0  0  0  0  0  0  0  0
    2.3384    4.6423   15.2948 F   0  0  0  0  0  0  0  0  0  0  0  0
    0.8961    6.3183   15.5336 F   0  0  0  0  0  0  0  0  0  0  0  0
    2.3975    5.9839   17.1353 F   0  0  0  0  0  0  0  0  0  0  0  0
  1  2  1  0
  2  3  1  0
  3  4  2  0
  4  5  1  0
  5  6  2  0
  3  7  1  0
  7  8  2  0
  8  9  1  0
  9 10  2  0
 10 11  1  0
 11 12  2  0
 12 13  1  0
 13 14  2  0
 14 15  1  0
 15 16  2  0
 10 17  1  0
 17 18  1  0
 18 19  1  0
 19 20  1  0
 20 21  1  0
 21 22  1  0
 20 23  1  0
 23 24  1  0
 23 25  1  0
 25 26  2  0
 25 27  1  0
 27 28  2  0
 28 29  1  0
 29 30  2  0
 30 31  1  0
 31 32  2  0
 30 33  1  0
 28 34  1  0
 34 35  1  0
 34 36  1  0
 34 37  1  0
  6  2  1  0
 16  7  1  0
 16 11  1  0
 22 17  1  0
 32 27  1  0
M  END
$$$$
