
     RDKit          3D

 37 41  0  0  0  0  0  0  0  0999 V2000
    0.6662    3.0249   20.3832 C   0  0  0  0  0  0  0  0  0  0  0  0
    0.1025    1.7042   20.2909 N   0  0  0  0  0  0  0  0  0  0  0  0
    0.0476    0.9485   19.1608 C   0  0  0  0  0  0  0  0  0  0  0  0
   -0.5702   -0.2206   19.5503 C   0  0  0  0  0  0  0  0  0  0  0  0
   -0.8688   -0.1384   20.8935 C   0  0  0  0  0  0  0  0  0  0  0  0
   -0.4435    1.0509   21.3127 N   0  0  0  0  0  0  0  0  0  0  0  0
    0.5488    1.3833   17.8731 C   0  0  0  0  0  0  0  0  0  0  0  0
    0.1445    2.5566   17.3116 N   0  0  0  0  0  0  0  0  0  0  0  0
    0.5778    2.9622   16.1549 N   0  0  0  0  0  0  0  0  0  0  0  0
    1.4678    2.2672   15.3943 C   0  0  0  0  0  0  0  0  0  0  0  0
    1.9204    1.0736   15.8959 C   0  0  0  0  0  0  0  0  0  0  0  0
    2.8258    0.3246   15.1605 C   0  0  0  0  0  0  0  0  0  0  0  0
    3.2805   -0.8646   15.6420 C   0  0  0  0  0  0  0  0  0  0  0  0
    2.8272   -1.3050   16.8635 C   0  0  0  0  0  0  0  0  0  0  0  0
    1.9206   -0.5714   17.6187 C   0  0  0  0  0  0  0  0  0  0  0  0
    1.4475    0.6393   17.1485 C   0  0  0  0  0  0  0  0  0  0  0  0
    1.8632    2.7749   14.1497 N   0  0  0  0  0  0  0  0  0  0  0  0
    3.0126    2.2015   13.4703 C   0  0  0  0  0  0  0  0  0  0  0  0
    2.6015    1.5602   12.1598 C   0  0  0  0  0  0  0  0  0  0  0  0
    1.2543    2.0179   11.6902 C   0  0  0  0  0  0  0  0  0  0  0  0
    0.8933    3.4321   12.0495 C   0  0  0  0  0  0  0  0  0  0  0  0
    1.2154    3.8561   13.4315 C   0  0  0  0  0  0  0  0  0  0  0  0
    1.2463    1.9141   10.2493 N   0  0  0  0  0  0  0  0  0  0  0  0
    1.6168    3.0608    9.4575 C   0  0  0  0  0  0  0  0  0  0  0  0
    0.8924    0.7028    9.6009 C   0  0  0  0  0  0  0  0  0  0  0  0
    0.9804    0.5071    8.3620 O   0  0  0  0  0  0  0  0  0  0  0  0
    0.3819   -0.4346   10.3765 C   0  0  0  0  0  0  0  0  0  0  0  0
    1.1190   -1.5113   10.7507 C   0  0  0  0  0  0  0  0  0  0  0  0
    0.5331   -2.5099   11.4896 C   0  0  0  0  0  0  0  0  0  0  0  0
   -0.7841   -2.4058   11.8373 C   0  0  0  0  0  0  0  0  0  0  0  0
   -1.5503   -1.3373   11.4761 C   0  0  0  0  0  0  0  0  0  0  0  0
   -0.9604   -0.3427   10.7385 C   0  0  0  0  0  0  0  0  0  0  0  0
   -1.3409   -3.3945   12.5616 F   0  0  0  0  0  0  0  0  0  0  0  0
    2.5500   -1.5850   10.3340 C   0  0  0  0  0  0  0  0  0  0  0  0
    2.6164   -1.5777    8.9516 F   0  0  0  0  0  0  0  0  0  0  0  0
    3.1963   -0.4438   10.7748 F   0  0  0  0  0  0  0  0  0  0  0  0
    3.1728   -2.6620   10.8765 F   0  0  0  0  0  0  0  0  0  0  0  0
  1  2  1  0
  2  3  1  0
  3  4  2  0
  4  5  1  0
  5  6  2  0
  3  7  1  0
  7  8  2  0
  8  9  1  0
  9 10  2  0
 10 11  1  0
 11 12  2  0
 12 13  1  0
 13 14  2  0
 14 15  1  0
 15 16  2  0
 10 17  1  0
 17 18  1  0
 18 19  1  0
 19 20  1  0
 20 21  1  0
 21 22  1  0
 20 23  1  0
 23 24  1  0
 23 25  1  0
 25 26  2  0
 25 27  1  0
 27 28  2  0
 28 29  1  0
 29 30  2  0
 30 31  1  0
 31 32  2  0
 30 33  1  0
 28 34  1  0
 34 35  1  0
 34 36  1  0
 34 37  1  0
  6  2  1  0
 16  7  1  0
 16 11  1  0
 22 17  1  0
 32 27  1  0
M  END
$$$$
