
     RDKit          3D

 37 41  0  0  0  0  0  0  0  0999 V2000
   -2.2420    0.3031   18.0867 C   0  0  0  0  0  0  0  0  0  0  0  0
   -1.9097    1.4236   18.9260 N   0  0  0  0  0  0  0  0  0  0  0  0
   -1.1731    2.5022   18.5449 C   0  0  0  0  0  0  0  0  0  0  0  0
   -1.1169    3.3024   19.6658 C   0  0  0  0  0  0  0  0  0  0  0  0
   -1.8150    2.6893   20.6840 C   0  0  0  0  0  0  0  0  0  0  0  0
   -2.2856    1.5441   20.1962 N   0  0  0  0  0  0  0  0  0  0  0  0
   -0.6051    2.6659   17.2223 C   0  0  0  0  0  0  0  0  0  0  0  0
   -1.2942    2.3089   16.1030 N   0  0  0  0  0  0  0  0  0  0  0  0
   -0.8006    2.4426   14.9077 N   0  0  0  0  0  0  0  0  0  0  0  0
    0.4386    2.9456   14.6527 C   0  0  0  0  0  0  0  0  0  0  0  0
    1.1924    3.3274   15.7331 C   0  0  0  0  0  0  0  0  0  0  0  0
    2.4626    3.8437   15.5297 C   0  0  0  0  0  0  0  0  0  0  0  0
    3.2254    4.2221   16.5917 C   0  0  0  0  0  0  0  0  0  0  0  0
    2.7147    4.0831   17.8610 C   0  0  0  0  0  0  0  0  0  0  0  0
    1.4443    3.5690   18.0894 C   0  0  0  0  0  0  0  0  0  0  0  0
    0.6530    3.1800   17.0249 C   0  0  0  0  0  0  0  0  0  0  0  0
    0.8939    3.0342   13.3307 N   0  0  0  0  0  0  0  0  0  0  0  0
    2.3060    2.8502   13.0415 C   0  0  0  0  0  0  0  0  0  0  0  0
    2.5248    1.6290   12.1706 C   0  0  0  0  0  0  0  0  0  0  0  0
    1.2697    1.1704   11.4928 C   0  0  0  0  0  0  0  0  0  0  0  0
    0.2971    2.2588   11.1339 C   0  0  0  0  0  0  0  0  0  0  0  0
    0.0688    3.2956   12.1664 C   0  0  0  0  0  0  0  0  0  0  0  0
    1.6620    0.5097   10.2694 N   0  0  0  0  0  0  0  0  0  0  0  0
    1.7328    1.2720    9.0474 C   0  0  0  0  0  0  0  0  0  0  0  0
    1.9897   -0.8707   10.2512 C   0  0  0  0  0  0  0  0  0  0  0  0
    2.4888   -1.4703    9.2652 O   0  0  0  0  0  0  0  0  0  0  0  0
    1.7516   -1.7075   11.4340 C   0  0  0  0  0  0  0  0  0  0  0  0
    2.6912   -2.0259   12.3604 C   0  0  0  0  0  0  0  0  0  0  0  0
    2.3452   -2.8074   13.4356 C   0  0  0  0  0  0  0  0  0  0  0  0
    1.0597   -3.2538   13.5574 C   0  0  0  0  0  0  0  0  0  0  0  0
    0.0940   -2.9513   12.6434 C   0  0  0  0  0  0  0  0  0  0  0  0
    0.4447   -2.1705   11.5717 C   0  0  0  0  0  0  0  0  0  0  0  0
    0.7395   -4.0186   14.6178 F   0  0  0  0  0  0  0  0  0  0  0  0
    4.0848   -1.5253   12.1750 C   0  0  0  0  0  0  0  0  0  0  0  0
    4.7861   -1.7010   13.3552 F   0  0  0  0  0  0  0  0  0  0  0  0
    4.7082   -2.3035   11.2158 F   0  0  0  0  0  0  0  0  0  0  0  0
    4.0994   -0.2361   11.7510 F   0  0  0  0  0  0  0  0  0  0  0  0
  1  2  1  0
  2  3  1  0
  3  4  2  0
  4  5  1  0
  5  6  2  0
  3  7  1  0
  7  8  2  0
  8  9  1  0
  9 10  2  0
 10 11  1  0
 11 12  2  0
 12 13  1  0
 13 14  2  0
 14 15  1  0
 15 16  2  0
 10 17  1  0
 17 18  1  0
 18 19  1  0
 19 20  1  0
 20 21  1  0
 21 22  1  0
 20 23  1  0
 23 24  1  0
 23 25  1  0
 25 26  2  0
 25 27  1  0
 27 28  2  0
 28 29  1  0
 29 30  2  0
 30 31  1  0
 31 32  2  0
 30 33  1  0
 28 34  1  0
 34 35  1  0
 34 36  1  0
 34 37  1  0
  6  2  1  0
 16  7  1  0
 16 11  1  0
 22 17  1  0
 32 27  1  0
M  END
$$$$
