
     RDKit          3D

 37 41  0  0  0  0  0  0  0  0999 V2000
    3.1964    4.1754   20.5858 C   0  0  0  0  0  0  0  0  0  0  0  0
    2.4385    3.0216   20.9921 N   0  0  0  0  0  0  0  0  0  0  0  0
    1.7121    2.2244   20.1627 C   0  0  0  0  0  0  0  0  0  0  0  0
    1.1679    1.2635   20.9876 C   0  0  0  0  0  0  0  0  0  0  0  0
    1.5772    1.5058   22.2813 C   0  0  0  0  0  0  0  0  0  0  0  0
    2.3521    2.5872   22.2463 N   0  0  0  0  0  0  0  0  0  0  0  0
    1.5932    2.4393   18.7350 C   0  0  0  0  0  0  0  0  0  0  0  0
    2.6846    2.6929   17.9605 N   0  0  0  0  0  0  0  0  0  0  0  0
    2.5988    2.8940   16.6788 N   0  0  0  0  0  0  0  0  0  0  0  0
    1.4267    2.8729   15.9865 C   0  0  0  0  0  0  0  0  0  0  0  0
    0.2831    2.6231   16.7013 C   0  0  0  0  0  0  0  0  0  0  0  0
   -0.9377    2.5931   16.0454 C   0  0  0  0  0  0  0  0  0  0  0  0
   -2.0825    2.3519   16.7414 C   0  0  0  0  0  0  0  0  0  0  0  0
   -2.0043    2.1402   18.0980 C   0  0  0  0  0  0  0  0  0  0  0  0
   -0.7923    2.1647   18.7767 C   0  0  0  0  0  0  0  0  0  0  0  0
    0.3819    2.4066   18.0886 C   0  0  0  0  0  0  0  0  0  0  0  0
    1.4300    3.1203   14.6074 N   0  0  0  0  0  0  0  0  0  0  0  0
    2.5521    2.6752   13.7985 C   0  0  0  0  0  0  0  0  0  0  0  0
    2.1096    1.6404   12.7831 C   0  0  0  0  0  0  0  0  0  0  0  0
    0.6261    1.6350   12.5726 C   0  0  0  0  0  0  0  0  0  0  0  0
   -0.0498    2.9697   12.7177 C   0  0  0  0  0  0  0  0  0  0  0  0
    0.3834    3.7984   13.8662 C   0  0  0  0  0  0  0  0  0  0  0  0
    0.3874    1.1646   11.2277 N   0  0  0  0  0  0  0  0  0  0  0  0
   -0.4963    1.9102   10.3661 C   0  0  0  0  0  0  0  0  0  0  0  0
    1.0149   -0.0094   10.7366 C   0  0  0  0  0  0  0  0  0  0  0  0
    0.9992   -0.3741    9.5335 O   0  0  0  0  0  0  0  0  0  0  0  0
    1.7463   -0.8987   11.6478 C   0  0  0  0  0  0  0  0  0  0  0  0
    3.0897   -0.8763   11.8408 C   0  0  0  0  0  0  0  0  0  0  0  0
    3.6607   -1.7506   12.7330 C   0  0  0  0  0  0  0  0  0  0  0  0
    2.8683   -2.6313   13.4135 C   0  0  0  0  0  0  0  0  0  0  0  0
    1.5165   -2.6782   13.2408 C   0  0  0  0  0  0  0  0  0  0  0  0
    0.9513   -1.8028   12.3490 C   0  0  0  0  0  0  0  0  0  0  0  0
    3.4461   -3.4806   14.2836 F   0  0  0  0  0  0  0  0  0  0  0  0
    3.9134    0.0950   11.0630 C   0  0  0  0  0  0  0  0  0  0  0  0
    3.4723    1.3781   11.3360 F   0  0  0  0  0  0  0  0  0  0  0  0
    5.2221    0.0159   11.5051 F   0  0  0  0  0  0  0  0  0  0  0  0
    3.8959   -0.1869    9.7355 F   0  0  0  0  0  0  0  0  0  0  0  0
  1  2  1  0
  2  3  1  0
  3  4  2  0
  4  5  1  0
  5  6  2  0
  3  7  1  0
  7  8  2  0
  8  9  1  0
  9 10  2  0
 10 11  1  0
 11 12  2  0
 12 13  1  0
 13 14  2  0
 14 15  1  0
 15 16  2  0
 10 17  1  0
 17 18  1  0
 18 19  1  0
 19 20  1  0
 20 21  1  0
 21 22  1  0
 20 23  1  0
 23 24  1  0
 23 25  1  0
 25 26  2  0
 25 27  1  0
 27 28  2  0
 28 29  1  0
 29 30  2  0
 30 31  1  0
 31 32  2  0
 30 33  1  0
 28 34  1  0
 34 35  1  0
 34 36  1  0
 34 37  1  0
  6  2  1  0
 16  7  1  0
 16 11  1  0
 22 17  1  0
 32 27  1  0
M  END
$$$$
