
     RDKit          3D

 37 41  0  0  0  0  0  0  0  0999 V2000
    0.9897    0.4684   21.2123 C   0  0  0  0  0  0  0  0  0  0  0  0
    1.6827    1.7150   21.0219 N   0  0  0  0  0  0  0  0  0  0  0  0
    2.0868    2.2164   19.8234 C   0  0  0  0  0  0  0  0  0  0  0  0
    2.6986    3.4125   20.1319 C   0  0  0  0  0  0  0  0  0  0  0  0
    2.6476    3.5979   21.4969 C   0  0  0  0  0  0  0  0  0  0  0  0
    2.0200    2.5415   22.0080 N   0  0  0  0  0  0  0  0  0  0  0  0
    1.8793    1.5462   18.5560 C   0  0  0  0  0  0  0  0  0  0  0  0
    2.8899    0.8831   17.9281 N   0  0  0  0  0  0  0  0  0  0  0  0
    2.7260    0.2801   16.7880 N   0  0  0  0  0  0  0  0  0  0  0  0
    1.5448    0.2486   16.1117 C   0  0  0  0  0  0  0  0  0  0  0  0
    0.4797    0.8961   16.6839 C   0  0  0  0  0  0  0  0  0  0  0  0
   -0.7456    0.8972   16.0357 C   0  0  0  0  0  0  0  0  0  0  0  0
   -1.8110    1.5398   16.5877 C   0  0  0  0  0  0  0  0  0  0  0  0
   -1.6489    2.1833   17.7923 C   0  0  0  0  0  0  0  0  0  0  0  0
   -0.4309    2.1952   18.4607 C   0  0  0  0  0  0  0  0  0  0  0  0
    0.6631    1.5477   17.9181 C   0  0  0  0  0  0  0  0  0  0  0  0
    1.4681   -0.4109   14.8780 N   0  0  0  0  0  0  0  0  0  0  0  0
    0.4142   -0.0634   13.9399 C   0  0  0  0  0  0  0  0  0  0  0  0
    0.9945    0.5188   12.6663 C   0  0  0  0  0  0  0  0  0  0  0  0
    2.4535    0.2181   12.5060 C   0  0  0  0  0  0  0  0  0  0  0  0
    2.9066   -1.0965   13.0769 C   0  0  0  0  0  0  0  0  0  0  0  0
    2.3723   -1.4458   14.4132 C   0  0  0  0  0  0  0  0  0  0  0  0
    2.7332    0.2024   11.0888 N   0  0  0  0  0  0  0  0  0  0  0  0
    3.3941   -0.9424   10.5129 C   0  0  0  0  0  0  0  0  0  0  0  0
    2.3591    1.2863   10.2530 C   0  0  0  0  0  0  0  0  0  0  0  0
    2.2928    1.2274    8.9989 O   0  0  0  0  0  0  0  0  0  0  0  0
    2.0161    2.5902   10.8345 C   0  0  0  0  0  0  0  0  0  0  0  0
    0.7855    3.1610   10.7865 C   0  0  0  0  0  0  0  0  0  0  0  0
    0.5813    4.3822   11.3809 C   0  0  0  0  0  0  0  0  0  0  0  0
    1.6202    5.0058   12.0122 C   0  0  0  0  0  0  0  0  0  0  0  0
    2.8674    4.4581   12.0768 C   0  0  0  0  0  0  0  0  0  0  0  0
    3.0658    3.2384   11.4818 C   0  0  0  0  0  0  0  0  0  0  0  0
    1.4010    6.2022   12.5889 F   0  0  0  0  0  0  0  0  0  0  0  0
   -0.3131    2.4463   10.0728 C   0  0  0  0  0  0  0  0  0  0  0  0
    0.1682    1.9760    8.8634 F   0  0  0  0  0  0  0  0  0  0  0  0
   -0.6768    1.3399   10.8197 F   0  0  0  0  0  0  0  0  0  0  0  0
   -1.4070    3.2357    9.9229 F   0  0  0  0  0  0  0  0  0  0  0  0
  1  2  1  0
  2  3  1  0
  3  4  2  0
  4  5  1  0
  5  6  2  0
  3  7  1  0
  7  8  2  0
  8  9  1  0
  9 10  2  0
 10 11  1  0
 11 12  2  0
 12 13  1  0
 13 14  2  0
 14 15  1  0
 15 16  2  0
 10 17  1  0
 17 18  1  0
 18 19  1  0
 19 20  1  0
 20 21  1  0
 21 22  1  0
 20 23  1  0
 23 24  1  0
 23 25  1  0
 25 26  2  0
 25 27  1  0
 27 28  2  0
 28 29  1  0
 29 30  2  0
 30 31  1  0
 31 32  2  0
 30 33  1  0
 28 34  1  0
 34 35  1  0
 34 36  1  0
 34 37  1  0
  6  2  1  0
 16  7  1  0
 16 11  1  0
 22 17  1  0
 32 27  1  0
M  END
$$$$
