
     RDKit          3D

 37 41  0  0  0  0  0  0  0  0999 V2000
    2.0774   -4.1064   14.6934 C   0  0  0  0  0  0  0  0  0  0  0  0
    3.4739   -3.8468   14.9234 N   0  0  0  0  0  0  0  0  0  0  0  0
    4.1502   -2.7446   14.5007 C   0  0  0  0  0  0  0  0  0  0  0  0
    5.4411   -2.9330   14.9458 C   0  0  0  0  0  0  0  0  0  0  0  0
    5.5075   -4.1340   15.6190 C   0  0  0  0  0  0  0  0  0  0  0  0
    4.2875   -4.6647   15.5855 N   0  0  0  0  0  0  0  0  0  0  0  0
    3.5474   -1.6695   13.7395 C   0  0  0  0  0  0  0  0  0  0  0  0
    3.3250   -0.4445   14.2920 N   0  0  0  0  0  0  0  0  0  0  0  0
    2.7804    0.5316   13.6280 N   0  0  0  0  0  0  0  0  0  0  0  0
    2.3808    0.4336   12.3302 C   0  0  0  0  0  0  0  0  0  0  0  0
    2.5733   -0.7727   11.7065 C   0  0  0  0  0  0  0  0  0  0  0  0
    2.1819   -0.9273   10.3857 C   0  0  0  0  0  0  0  0  0  0  0  0
    2.3611   -2.1197    9.7542 C   0  0  0  0  0  0  0  0  0  0  0  0
    2.9339   -3.1603   10.4473 C   0  0  0  0  0  0  0  0  0  0  0  0
    3.3348   -3.0288   11.7711 C   0  0  0  0  0  0  0  0  0  0  0  0
    3.1629   -1.8261   12.4304 C   0  0  0  0  0  0  0  0  0  0  0  0
    1.7849    1.5349   11.7017 N   0  0  0  0  0  0  0  0  0  0  0  0
    0.3383    1.5992   11.5807 C   0  0  0  0  0  0  0  0  0  0  0  0
   -0.2170    2.7782   12.3549 C   0  0  0  0  0  0  0  0  0  0  0  0
    0.8314    3.7948   12.6900 C   0  0  0  0  0  0  0  0  0  0  0  0
    1.9380    3.9348   11.6824 C   0  0  0  0  0  0  0  0  0  0  0  0
    2.4885    2.6719   11.1389 C   0  0  0  0  0  0  0  0  0  0  0  0
    0.1679    5.0737   12.7957 N   0  0  0  0  0  0  0  0  0  0  0  0
    0.3433    6.0481   11.7474 C   0  0  0  0  0  0  0  0  0  0  0  0
   -0.6610    5.3830   13.9049 C   0  0  0  0  0  0  0  0  0  0  0  0
   -1.3674    6.4190   13.9979 O   0  0  0  0  0  0  0  0  0  0  0  0
   -0.7399    4.4701   15.0522 C   0  0  0  0  0  0  0  0  0  0  0  0
   -1.7140    3.5438   15.2405 C   0  0  0  0  0  0  0  0  0  0  0  0
   -1.6738    2.7339   16.3491 C   0  0  0  0  0  0  0  0  0  0  0  0
   -0.6538    2.8725   17.2474 C   0  0  0  0  0  0  0  0  0  0  0  0
    0.3386    3.7937   17.0861 C   0  0  0  0  0  0  0  0  0  0  0  0
    0.2939    4.5997   15.9773 C   0  0  0  0  0  0  0  0  0  0  0  0
   -0.6313    2.0699   18.3279 F   0  0  0  0  0  0  0  0  0  0  0  0
   -2.8144    3.4411   14.2377 C   0  0  0  0  0  0  0  0  0  0  0  0
   -3.4097    4.6825   14.0953 F   0  0  0  0  0  0  0  0  0  0  0  0
   -2.2635    3.1149   13.0112 F   0  0  0  0  0  0  0  0  0  0  0  0
   -3.7064    2.4747   14.5731 F   0  0  0  0  0  0  0  0  0  0  0  0
  1  2  1  0
  2  3  1  0
  3  4  2  0
  4  5  1  0
  5  6  2  0
  3  7  1  0
  7  8  2  0
  8  9  1  0
  9 10  2  0
 10 11  1  0
 11 12  2  0
 12 13  1  0
 13 14  2  0
 14 15  1  0
 15 16  2  0
 10 17  1  0
 17 18  1  0
 18 19  1  0
 19 20  1  0
 20 21  1  0
 21 22  1  0
 20 23  1  0
 23 24  1  0
 23 25  1  0
 25 26  2  0
 25 27  1  0
 27 28  2  0
 28 29  1  0
 29 30  2  0
 30 31  1  0
 31 32  2  0
 30 33  1  0
 28 34  1  0
 34 35  1  0
 34 36  1  0
 34 37  1  0
  6  2  1  0
 16  7  1  0
 16 11  1  0
 22 17  1  0
 32 27  1  0
M  END
$$$$
