
     RDKit          3D

 37 41  0  0  0  0  0  0  0  0999 V2000
    2.5021   -0.5085   19.6859 C   0  0  0  0  0  0  0  0  0  0  0  0
    1.9530    0.6132   20.4007 N   0  0  0  0  0  0  0  0  0  0  0  0
    1.3872    1.7107   19.8294 C   0  0  0  0  0  0  0  0  0  0  0  0
    1.0126    2.5053   20.8917 C   0  0  0  0  0  0  0  0  0  0  0  0
    1.3603    1.8706   22.0648 C   0  0  0  0  0  0  0  0  0  0  0  0
    1.9323    0.7176   21.7266 N   0  0  0  0  0  0  0  0  0  0  0  0
    1.2684    1.9063   18.3990 C   0  0  0  0  0  0  0  0  0  0  0  0
    2.3642    1.9255   17.5902 N   0  0  0  0  0  0  0  0  0  0  0  0
    2.2796    2.1050   16.3053 N   0  0  0  0  0  0  0  0  0  0  0  0
    1.1046    2.2902   15.6429 C   0  0  0  0  0  0  0  0  0  0  0  0
   -0.0435    2.2831   16.3932 C   0  0  0  0  0  0  0  0  0  0  0  0
   -1.2669    2.4699   15.7688 C   0  0  0  0  0  0  0  0  0  0  0  0
   -2.4151    2.4709   16.5000 C   0  0  0  0  0  0  0  0  0  0  0  0
   -2.3377    2.2844   17.8604 C   0  0  0  0  0  0  0  0  0  0  0  0
   -1.1233    2.0946   18.5080 C   0  0  0  0  0  0  0  0  0  0  0  0
    0.0541    2.0888   17.7839 C   0  0  0  0  0  0  0  0  0  0  0  0
    1.1133    2.4955   14.2570 N   0  0  0  0  0  0  0  0  0  0  0  0
    2.3781    2.6653   13.5620 C   0  0  0  0  0  0  0  0  0  0  0  0
    2.6062    1.5401   12.5722 C   0  0  0  0  0  0  0  0  0  0  0  0
    1.3492    0.7918   12.2484 C   0  0  0  0  0  0  0  0  0  0  0  0
    0.0887    1.6106   12.2694 C   0  0  0  0  0  0  0  0  0  0  0  0
   -0.0573    2.5535   13.4020 C   0  0  0  0  0  0  0  0  0  0  0  0
    1.5030    0.2548   10.9161 N   0  0  0  0  0  0  0  0  0  0  0  0
    0.6615    0.7494    9.8547 C   0  0  0  0  0  0  0  0  0  0  0  0
    2.4734   -0.7404   10.6315 C   0  0  0  0  0  0  0  0  0  0  0  0
    2.9614   -0.9529    9.4924 O   0  0  0  0  0  0  0  0  0  0  0  0
    2.9797   -1.6126   11.6987 C   0  0  0  0  0  0  0  0  0  0  0  0
    4.1448   -1.4219   12.3686 C   0  0  0  0  0  0  0  0  0  0  0  0
    4.5076   -2.2999   13.3606 C   0  0  0  0  0  0  0  0  0  0  0  0
    3.6906   -3.3535   13.6590 C   0  0  0  0  0  0  0  0  0  0  0  0
    2.5148   -3.5717   13.0037 C   0  0  0  0  0  0  0  0  0  0  0  0
    2.1570   -2.6918   12.0142 C   0  0  0  0  0  0  0  0  0  0  0  0
    4.0629   -4.2034   14.6342 F   0  0  0  0  0  0  0  0  0  0  0  0
    5.0093   -0.2640   11.9959 C   0  0  0  0  0  0  0  0  0  0  0  0
    4.3404    0.9104   12.2941 F   0  0  0  0  0  0  0  0  0  0  0  0
    6.1464   -0.2917   12.7836 F   0  0  0  0  0  0  0  0  0  0  0  0
    5.3922   -0.3258   10.6952 F   0  0  0  0  0  0  0  0  0  0  0  0
  1  2  1  0
  2  3  1  0
  3  4  2  0
  4  5  1  0
  5  6  2  0
  3  7  1  0
  7  8  2  0
  8  9  1  0
  9 10  2  0
 10 11  1  0
 11 12  2  0
 12 13  1  0
 13 14  2  0
 14 15  1  0
 15 16  2  0
 10 17  1  0
 17 18  1  0
 18 19  1  0
 19 20  1  0
 20 21  1  0
 21 22  1  0
 20 23  1  0
 23 24  1  0
 23 25  1  0
 25 26  2  0
 25 27  1  0
 27 28  2  0
 28 29  1  0
 29 30  2  0
 30 31  1  0
 31 32  2  0
 30 33  1  0
 28 34  1  0
 34 35  1  0
 34 36  1  0
 34 37  1  0
  6  2  1  0
 16  7  1  0
 16 11  1  0
 22 17  1  0
 32 27  1  0
M  END
$$$$
