
     RDKit          3D

 37 41  0  0  0  0  0  0  0  0999 V2000
   -2.3126   -0.0348   18.7269 C   0  0  0  0  0  0  0  0  0  0  0  0
   -1.6616    0.9033   19.6024 N   0  0  0  0  0  0  0  0  0  0  0  0
   -0.4236    1.4333   19.4085 C   0  0  0  0  0  0  0  0  0  0  0  0
   -0.2253    2.2659   20.4890 C   0  0  0  0  0  0  0  0  0  0  0  0
   -1.3399    2.2155   21.2985 C   0  0  0  0  0  0  0  0  0  0  0  0
   -2.1966    1.3733   20.7258 N   0  0  0  0  0  0  0  0  0  0  0  0
    0.4254    1.1110   18.2799 C   0  0  0  0  0  0  0  0  0  0  0  0
    0.6402   -0.1783   17.8966 N   0  0  0  0  0  0  0  0  0  0  0  0
    1.4026   -0.4890   16.8904 N   0  0  0  0  0  0  0  0  0  0  0  0
    2.0569    0.4277   16.1255 C   0  0  0  0  0  0  0  0  0  0  0  0
    1.8880    1.7490   16.4523 C   0  0  0  0  0  0  0  0  0  0  0  0
    2.5340    2.7233   15.7074 C   0  0  0  0  0  0  0  0  0  0  0  0
    2.3810    4.0388   16.0223 C   0  0  0  0  0  0  0  0  0  0  0  0
    1.5788    4.3793   17.0862 C   0  0  0  0  0  0  0  0  0  0  0  0
    0.9210    3.4206   17.8467 C   0  0  0  0  0  0  0  0  0  0  0  0
    1.0619    2.0795   17.5430 C   0  0  0  0  0  0  0  0  0  0  0  0
    2.8736   -0.0029   15.0715 N   0  0  0  0  0  0  0  0  0  0  0  0
    3.2692   -1.3987   14.9909 C   0  0  0  0  0  0  0  0  0  0  0  0
    2.7116   -2.0471   13.7394 C   0  0  0  0  0  0  0  0  0  0  0  0
    2.2691   -1.0447   12.7174 C   0  0  0  0  0  0  0  0  0  0  0  0
    3.0588    0.2339   12.6855 C   0  0  0  0  0  0  0  0  0  0  0  0
    3.3846    0.8318   14.0007 C   0  0  0  0  0  0  0  0  0  0  0  0
    2.3943   -1.6718   11.4220 N   0  0  0  0  0  0  0  0  0  0  0  0
    2.9920   -2.9806   11.3266 C   0  0  0  0  0  0  0  0  0  0  0  0
    1.9299   -1.0289   10.2454 C   0  0  0  0  0  0  0  0  0  0  0  0
    2.0117   -1.5160    9.0892 O   0  0  0  0  0  0  0  0  0  0  0  0
    1.3032    0.2968   10.3200 C   0  0  0  0  0  0  0  0  0  0  0  0
   -0.0273    0.5180   10.4736 C   0  0  0  0  0  0  0  0  0  0  0  0
   -0.4961    1.8070   10.5448 C   0  0  0  0  0  0  0  0  0  0  0  0
    0.3835    2.8490   10.4594 C   0  0  0  0  0  0  0  0  0  0  0  0
    1.7248    2.6589   10.3046 C   0  0  0  0  0  0  0  0  0  0  0  0
    2.1879    1.3697   10.2343 C   0  0  0  0  0  0  0  0  0  0  0  0
   -0.0947    4.1053   10.5311 F   0  0  0  0  0  0  0  0  0  0  0  0
   -0.9487   -0.6535   10.5476 C   0  0  0  0  0  0  0  0  0  0  0  0
   -0.6066   -1.4257   11.6440 F   0  0  0  0  0  0  0  0  0  0  0  0
   -2.2339   -0.1898   10.7662 F   0  0  0  0  0  0  0  0  0  0  0  0
   -0.9448   -1.3650    9.3918 F   0  0  0  0  0  0  0  0  0  0  0  0
  1  2  1  0
  2  3  1  0
  3  4  2  0
  4  5  1  0
  5  6  2  0
  3  7  1  0
  7  8  2  0
  8  9  1  0
  9 10  2  0
 10 11  1  0
 11 12  2  0
 12 13  1  0
 13 14  2  0
 14 15  1  0
 15 16  2  0
 10 17  1  0
 17 18  1  0
 18 19  1  0
 19 20  1  0
 20 21  1  0
 21 22  1  0
 20 23  1  0
 23 24  1  0
 23 25  1  0
 25 26  2  0
 25 27  1  0
 27 28  2  0
 28 29  1  0
 29 30  2  0
 30 31  1  0
 31 32  2  0
 30 33  1  0
 28 34  1  0
 34 35  1  0
 34 36  1  0
 34 37  1  0
  6  2  1  0
 16  7  1  0
 16 11  1  0
 22 17  1  0
 32 27  1  0
M  END
$$$$
