
     RDKit          3D

 24 27  0  0  0  0  0  0  0  0999 V2000
    2.9859    9.6361   12.8096 C   0  0  0  0  0  0  0  0  0  0  0  0
    3.2655    8.2129   13.1150 C   0  0  0  0  0  0  0  0  0  0  0  0
    4.5172    7.8128   13.5187 C   0  0  0  0  0  0  0  0  0  0  0  0
    4.7491    6.4928   13.7945 C   0  0  0  0  0  0  0  0  0  0  0  0
    3.7395    5.5742   13.6692 C   0  0  0  0  0  0  0  0  0  0  0  0
    2.4795    5.9559   13.2662 C   0  0  0  0  0  0  0  0  0  0  0  0
    2.2493    7.2838   12.9896 C   0  0  0  0  0  0  0  0  0  0  0  0
    1.3701    4.9689   13.1249 C   0  0  0  0  0  0  0  0  0  0  0  0
    1.7328    4.0668   12.0427 N   0  0  0  0  0  0  0  0  0  0  0  0
    1.3415    4.1031   10.7599 C   0  0  0  0  0  0  0  0  0  0  0  0
    0.5249    4.9616   10.1313 N   0  0  0  0  0  0  0  0  0  0  0  0
    0.2573    4.8192    8.8166 C   0  0  0  0  0  0  0  0  0  0  0  0
    0.8387    3.7925    8.1780 N   0  0  0  0  0  0  0  0  0  0  0  0
    1.6631    2.8990    8.7429 C   0  0  0  0  0  0  0  0  0  0  0  0
    1.9374    3.0436   10.0866 C   0  0  0  0  0  0  0  0  0  0  0  0
    2.6676    2.4087   10.9966 N   0  0  0  0  0  0  0  0  0  0  0  0
    2.5504    3.0206   12.1845 N   0  0  0  0  0  0  0  0  0  0  0  0
    2.2650    1.8031    7.9954 C   0  0  0  0  0  0  0  0  0  0  0  0
    3.0173    0.7662    8.5296 C   0  0  0  0  0  0  0  0  0  0  0  0
    3.4055   -0.0646    7.4997 C   0  0  0  0  0  0  0  0  0  0  0  0
    2.8702    0.5018    6.3635 C   0  0  0  0  0  0  0  0  0  0  0  0
    2.2164    1.5856    6.7050 O   0  0  0  0  0  0  0  0  0  0  0  0
   -0.6081    5.7402    8.1795 N   0  0  0  0  0  0  0  0  0  0  0  0
    5.5486    8.7664   13.6443 N   0  0  0  0  0  0  0  0  0  0  0  0
  1  2  1  0
  2  3  2  0
  3  4  1  0
  4  5  2  0
  5  6  1  0
  6  7  2  0
  6  8  1  0
  8  9  1  0
  9 10  1  0
 10 11  2  0
 11 12  1  0
 12 13  2  0
 13 14  1  0
 14 15  2  0
 15 16  1  0
 16 17  2  0
 14 18  1  0
 18 19  2  0
 19 20  1  0
 20 21  2  0
 21 22  1  0
 12 23  1  0
  3 24  1  0
  7  2  1  0
 17  9  1  0
 15 10  1  0
 22 18  1  0
M  END
$$$$
