
     RDKit          3D

 24 27  0  0  0  0  0  0  0  0999 V2000
   -1.5577    0.3996    9.4428 C   0  0  0  0  0  0  0  0  0  0  0  0
   -0.2293    0.5423    8.8008 C   0  0  0  0  0  0  0  0  0  0  0  0
    0.6281   -0.5286    8.7125 C   0  0  0  0  0  0  0  0  0  0  0  0
    1.8488   -0.3703    8.1150 C   0  0  0  0  0  0  0  0  0  0  0  0
    2.2151    0.8490    7.6070 C   0  0  0  0  0  0  0  0  0  0  0  0
    1.3700    1.9331    7.6860 C   0  0  0  0  0  0  0  0  0  0  0  0
    0.1432    1.7708    8.2874 C   0  0  0  0  0  0  0  0  0  0  0  0
    1.7535    3.2665    7.1382 C   0  0  0  0  0  0  0  0  0  0  0  0
    1.2592    4.2709    8.0673 N   0  0  0  0  0  0  0  0  0  0  0  0
    1.6787    4.5316    9.3148 C   0  0  0  0  0  0  0  0  0  0  0  0
    2.6488    3.9520   10.0373 N   0  0  0  0  0  0  0  0  0  0  0  0
    2.9154    4.3702   11.2920 C   0  0  0  0  0  0  0  0  0  0  0  0
    2.1741    5.3788   11.7749 N   0  0  0  0  0  0  0  0  0  0  0  0
    1.1915    6.0023   11.1096 C   0  0  0  0  0  0  0  0  0  0  0  0
    0.9182    5.5757    9.8270 C   0  0  0  0  0  0  0  0  0  0  0  0
    0.0667    5.9032    8.8616 N   0  0  0  0  0  0  0  0  0  0  0  0
    0.2652    5.1189    7.7917 N   0  0  0  0  0  0  0  0  0  0  0  0
    0.4202    7.0939   11.6888 C   0  0  0  0  0  0  0  0  0  0  0  0
    0.6442    7.6870   12.9235 C   0  0  0  0  0  0  0  0  0  0  0  0
   -0.2964    8.6786   13.1065 C   0  0  0  0  0  0  0  0  0  0  0  0
   -1.0676    8.6538   11.9650 C   0  0  0  0  0  0  0  0  0  0  0  0
   -0.6104    7.7151   11.1722 O   0  0  0  0  0  0  0  0  0  0  0  0
    3.9448    3.7399   12.0309 N   0  0  0  0  0  0  0  0  0  0  0  0
    0.2409   -1.7785    9.2386 N   0  0  0  0  0  0  0  0  0  0  0  0
  1  2  1  0
  2  3  2  0
  3  4  1  0
  4  5  2  0
  5  6  1  0
  6  7  2  0
  6  8  1  0
  8  9  1  0
  9 10  1  0
 10 11  2  0
 11 12  1  0
 12 13  2  0
 13 14  1  0
 14 15  2  0
 15 16  1  0
 16 17  2  0
 14 18  1  0
 18 19  2  0
 19 20  1  0
 20 21  2  0
 21 22  1  0
 12 23  1  0
  3 24  1  0
  7  2  1  0
 17  9  1  0
 15 10  1  0
 22 18  1  0
M  END
$$$$
