
     RDKit          3D

 24 27  0  0  0  0  0  0  0  0999 V2000
    3.8575    8.1842   15.9867 C   0  0  0  0  0  0  0  0  0  0  0  0
    3.7324    7.7211   14.5842 C   0  0  0  0  0  0  0  0  0  0  0  0
    4.8192    7.7248   13.7424 C   0  0  0  0  0  0  0  0  0  0  0  0
    4.6769    7.2922   12.4522 C   0  0  0  0  0  0  0  0  0  0  0  0
    3.4579    6.8573   12.0010 C   0  0  0  0  0  0  0  0  0  0  0  0
    2.3580    6.8461   12.8292 C   0  0  0  0  0  0  0  0  0  0  0  0
    2.5041    7.2817   14.1260 C   0  0  0  0  0  0  0  0  0  0  0  0
    1.0246    6.3760   12.3538 C   0  0  0  0  0  0  0  0  0  0  0  0
    1.2606    5.4665   11.2431 N   0  0  0  0  0  0  0  0  0  0  0  0
    1.8113    4.2434   11.2691 C   0  0  0  0  0  0  0  0  0  0  0  0
    2.2872    3.5336   12.3029 N   0  0  0  0  0  0  0  0  0  0  0  0
    2.8076    2.3035   12.1114 C   0  0  0  0  0  0  0  0  0  0  0  0
    2.8257    1.8319   10.8556 N   0  0  0  0  0  0  0  0  0  0  0  0
    2.3682    2.4856    9.7784 C   0  0  0  0  0  0  0  0  0  0  0  0
    1.8361    3.7429    9.9730 C   0  0  0  0  0  0  0  0  0  0  0  0
    1.2962    4.6906    9.2148 N   0  0  0  0  0  0  0  0  0  0  0  0
    0.9444    5.7385    9.9746 N   0  0  0  0  0  0  0  0  0  0  0  0
    2.4154    1.9196    8.4371 C   0  0  0  0  0  0  0  0  0  0  0  0
    1.8164    2.4524    7.3041 C   0  0  0  0  0  0  0  0  0  0  0  0
    2.0922    1.6246    6.2363 C   0  0  0  0  0  0  0  0  0  0  0  0
    2.8573    0.6067    6.7625 C   0  0  0  0  0  0  0  0  0  0  0  0
    3.0169    0.8242    8.0455 O   0  0  0  0  0  0  0  0  0  0  0  0
    3.3023    1.5776   13.2210 N   0  0  0  0  0  0  0  0  0  0  0  0
    6.0688    8.1744   14.2172 N   0  0  0  0  0  0  0  0  0  0  0  0
  1  2  1  0
  2  3  2  0
  3  4  1  0
  4  5  2  0
  5  6  1  0
  6  7  2  0
  6  8  1  0
  8  9  1  0
  9 10  1  0
 10 11  2  0
 11 12  1  0
 12 13  2  0
 13 14  1  0
 14 15  2  0
 15 16  1  0
 16 17  2  0
 14 18  1  0
 18 19  2  0
 19 20  1  0
 20 21  2  0
 21 22  1  0
 12 23  1  0
  3 24  1  0
  7  2  1  0
 17  9  1  0
 15 10  1  0
 22 18  1  0
M  END
$$$$
