
     RDKit          3D

 24 27  0  0  0  0  0  0  0  0999 V2000
    3.8106    9.8786   11.3874 C   0  0  0  0  0  0  0  0  0  0  0  0
    3.1769    8.8888   12.2905 C   0  0  0  0  0  0  0  0  0  0  0  0
    3.6761    8.6666   13.5520 C   0  0  0  0  0  0  0  0  0  0  0  0
    3.0725    7.7473   14.3661 C   0  0  0  0  0  0  0  0  0  0  0  0
    1.9761    7.0516   13.9269 C   0  0  0  0  0  0  0  0  0  0  0  0
    1.4618    7.2604   12.6668 C   0  0  0  0  0  0  0  0  0  0  0  0
    2.0709    8.1854   11.8506 C   0  0  0  0  0  0  0  0  0  0  0  0
    0.2695    6.5117   12.1738 C   0  0  0  0  0  0  0  0  0  0  0  0
    0.7382    5.5732   11.1658 N   0  0  0  0  0  0  0  0  0  0  0  0
    1.5469    4.5144   11.3237 C   0  0  0  0  0  0  0  0  0  0  0  0
    2.1358    4.0363   12.4299 N   0  0  0  0  0  0  0  0  0  0  0  0
    2.9235    2.9424   12.3719 C   0  0  0  0  0  0  0  0  0  0  0  0
    3.0868    2.3647   11.1721 N   0  0  0  0  0  0  0  0  0  0  0  0
    2.5297    2.7884   10.0288 C   0  0  0  0  0  0  0  0  0  0  0  0
    1.7244    3.9063   10.0869 C   0  0  0  0  0  0  0  0  0  0  0  0
    1.0112    4.6279    9.2295 N   0  0  0  0  0  0  0  0  0  0  0  0
    0.4102    5.6397    9.8731 N   0  0  0  0  0  0  0  0  0  0  0  0
    2.7451    2.1173    8.7540 C   0  0  0  0  0  0  0  0  0  0  0  0
    2.0966    2.4030    7.5606 C   0  0  0  0  0  0  0  0  0  0  0  0
    2.5779    1.5507    6.5894 C   0  0  0  0  0  0  0  0  0  0  0  0
    3.5120    0.7682    7.2325 C   0  0  0  0  0  0  0  0  0  0  0  0
    3.5720    1.1370    8.4891 O   0  0  0  0  0  0  0  0  0  0  0  0
    3.5319    2.4604   13.5553 N   0  0  0  0  0  0  0  0  0  0  0  0
    4.8046    9.3880   13.9935 N   0  0  0  0  0  0  0  0  0  0  0  0
  1  2  1  0
  2  3  2  0
  3  4  1  0
  4  5  2  0
  5  6  1  0
  6  7  2  0
  6  8  1  0
  8  9  1  0
  9 10  1  0
 10 11  2  0
 11 12  1  0
 12 13  2  0
 13 14  1  0
 14 15  2  0
 15 16  1  0
 16 17  2  0
 14 18  1  0
 18 19  2  0
 19 20  1  0
 20 21  2  0
 21 22  1  0
 12 23  1  0
  3 24  1  0
  7  2  1  0
 17  9  1  0
 15 10  1  0
 22 18  1  0
M  END
$$$$
