
     RDKit          3D

 24 27  0  0  0  0  0  0  0  0999 V2000
    0.1885    7.6710   15.4768 C   0  0  0  0  0  0  0  0  0  0  0  0
    1.5007    6.9912   15.3622 C   0  0  0  0  0  0  0  0  0  0  0  0
    2.0504    6.3366   16.4388 C   0  0  0  0  0  0  0  0  0  0  0  0
    3.2631    5.7170   16.3064 C   0  0  0  0  0  0  0  0  0  0  0  0
    3.9266    5.7485   15.1074 C   0  0  0  0  0  0  0  0  0  0  0  0
    3.3921    6.3991   14.0180 C   0  0  0  0  0  0  0  0  0  0  0  0
    2.1725    7.0211   14.1541 C   0  0  0  0  0  0  0  0  0  0  0  0
    4.1013    6.4426   12.7064 C   0  0  0  0  0  0  0  0  0  0  0  0
    3.6102    5.3250   11.9152 N   0  0  0  0  0  0  0  0  0  0  0  0
    2.4844    5.2477   11.1894 C   0  0  0  0  0  0  0  0  0  0  0  0
    1.5193    6.1586   10.9950 N   0  0  0  0  0  0  0  0  0  0  0  0
    0.4539    5.8767   10.2167 C   0  0  0  0  0  0  0  0  0  0  0  0
    0.4073    4.6593    9.6549 N   0  0  0  0  0  0  0  0  0  0  0  0
    1.3345    3.7030    9.8061 C   0  0  0  0  0  0  0  0  0  0  0  0
    2.4238    3.9901   10.6014 C   0  0  0  0  0  0  0  0  0  0  0  0
    3.5220    3.3575   10.9994 N   0  0  0  0  0  0  0  0  0  0  0  0
    4.2470    4.1575   11.7954 N   0  0  0  0  0  0  0  0  0  0  0  0
    1.2278    2.3975    9.1688 C   0  0  0  0  0  0  0  0  0  0  0  0
    2.1455    1.3612    9.2710 C   0  0  0  0  0  0  0  0  0  0  0  0
    1.6846    0.2972    8.5248 C   0  0  0  0  0  0  0  0  0  0  0  0
    0.4904    0.7279    7.9892 C   0  0  0  0  0  0  0  0  0  0  0  0
    0.2696    1.9552    8.3935 O   0  0  0  0  0  0  0  0  0  0  0  0
   -0.5492    6.8574   10.0296 N   0  0  0  0  0  0  0  0  0  0  0  0
    1.3590    6.3105   17.6677 N   0  0  0  0  0  0  0  0  0  0  0  0
  1  2  1  0
  2  3  2  0
  3  4  1  0
  4  5  2  0
  5  6  1  0
  6  7  2  0
  6  8  1  0
  8  9  1  0
  9 10  1  0
 10 11  2  0
 11 12  1  0
 12 13  2  0
 13 14  1  0
 14 15  2  0
 15 16  1  0
 16 17  2  0
 14 18  1  0
 18 19  2  0
 19 20  1  0
 20 21  2  0
 21 22  1  0
 12 23  1  0
  3 24  1  0
  7  2  1  0
 17  9  1  0
 15 10  1  0
 22 18  1  0
M  END
$$$$
