
     RDKit          3D

 24 27  0  0  0  0  0  0  0  0999 V2000
    3.9446    7.8183   15.3682 C   0  0  0  0  0  0  0  0  0  0  0  0
    3.2734    8.0169   14.0617 C   0  0  0  0  0  0  0  0  0  0  0  0
    3.7366    8.9531   13.1679 C   0  0  0  0  0  0  0  0  0  0  0  0
    3.0989    9.1166   11.9684 C   0  0  0  0  0  0  0  0  0  0  0  0
    2.0043    8.3516   11.6592 C   0  0  0  0  0  0  0  0  0  0  0  0
    1.5258    7.4090   12.5414 C   0  0  0  0  0  0  0  0  0  0  0  0
    2.1691    7.2468   13.7467 C   0  0  0  0  0  0  0  0  0  0  0  0
    0.3360    6.5686   12.2201 C   0  0  0  0  0  0  0  0  0  0  0  0
    0.7505    5.6045   11.2125 N   0  0  0  0  0  0  0  0  0  0  0  0
    1.5780    4.5576   11.3503 C   0  0  0  0  0  0  0  0  0  0  0  0
    2.2393    4.1173   12.4309 N   0  0  0  0  0  0  0  0  0  0  0  0
    3.0328    3.0286   12.3557 C   0  0  0  0  0  0  0  0  0  0  0  0
    3.1269    2.4170   11.1653 N   0  0  0  0  0  0  0  0  0  0  0  0
    2.4956    2.8020   10.0472 C   0  0  0  0  0  0  0  0  0  0  0  0
    1.6843    3.9145   10.1230 C   0  0  0  0  0  0  0  0  0  0  0  0
    0.9119    4.6045    9.2912 N   0  0  0  0  0  0  0  0  0  0  0  0
    0.3420    5.6300    9.9415 N   0  0  0  0  0  0  0  0  0  0  0  0
    2.6380    2.0952    8.7815 C   0  0  0  0  0  0  0  0  0  0  0  0
    1.8641    2.2896    7.6458 C   0  0  0  0  0  0  0  0  0  0  0  0
    2.3110    1.4317    6.6631 C   0  0  0  0  0  0  0  0  0  0  0  0
    3.3518    0.7382    7.2413 C   0  0  0  0  0  0  0  0  0  0  0  0
    3.5021    1.1607    8.4733 O   0  0  0  0  0  0  0  0  0  0  0  0
    3.7185    2.5869   13.5123 N   0  0  0  0  0  0  0  0  0  0  0  0
    4.8635    9.7346   13.4964 N   0  0  0  0  0  0  0  0  0  0  0  0
  1  2  1  0
  2  3  2  0
  3  4  1  0
  4  5  2  0
  5  6  1  0
  6  7  2  0
  6  8  1  0
  8  9  1  0
  9 10  1  0
 10 11  2  0
 11 12  1  0
 12 13  2  0
 13 14  1  0
 14 15  2  0
 15 16  1  0
 16 17  2  0
 14 18  1  0
 18 19  2  0
 19 20  1  0
 20 21  2  0
 21 22  1  0
 12 23  1  0
  3 24  1  0
  7  2  1  0
 17  9  1  0
 15 10  1  0
 22 18  1  0
M  END
$$$$
