
     RDKit          3D

 24 27  0  0  0  0  0  0  0  0999 V2000
    0.7117    7.6932   15.3274 C   0  0  0  0  0  0  0  0  0  0  0  0
    0.0639    7.5031   14.0078 C   0  0  0  0  0  0  0  0  0  0  0  0
   -1.2678    7.1736   13.9187 C   0  0  0  0  0  0  0  0  0  0  0  0
   -1.8417    7.0037   12.6883 C   0  0  0  0  0  0  0  0  0  0  0  0
   -1.0935    7.1610   11.5506 C   0  0  0  0  0  0  0  0  0  0  0  0
    0.2415    7.4908   11.6197 C   0  0  0  0  0  0  0  0  0  0  0  0
    0.8158    7.6610   12.8583 C   0  0  0  0  0  0  0  0  0  0  0  0
    1.0695    7.6655   10.3913 C   0  0  0  0  0  0  0  0  0  0  0  0
    1.1964    6.3567    9.7689 N   0  0  0  0  0  0  0  0  0  0  0  0
    1.9991    5.3406   10.1198 C   0  0  0  0  0  0  0  0  0  0  0  0
    2.8886    5.2497   11.1196 N   0  0  0  0  0  0  0  0  0  0  0  0
    3.6053    4.1213   11.3024 C   0  0  0  0  0  0  0  0  0  0  0  0
    3.3885    3.1096   10.4483 N   0  0  0  0  0  0  0  0  0  0  0  0
    2.5173    3.1321    9.4297 C   0  0  0  0  0  0  0  0  0  0  0  0
    1.7842    4.2850    9.2421 C   0  0  0  0  0  0  0  0  0  0  0  0
    0.8554    4.7109    8.3933 N   0  0  0  0  0  0  0  0  0  0  0  0
    0.4928    5.9644    8.7040 N   0  0  0  0  0  0  0  0  0  0  0  0
    2.3260    1.9992    8.5344 C   0  0  0  0  0  0  0  0  0  0  0  0
    1.2954    1.8480    7.6170 C   0  0  0  0  0  0  0  0  0  0  0  0
    1.4673    0.6455    6.9643 C   0  0  0  0  0  0  0  0  0  0  0  0
    2.6081    0.1017    7.5131 C   0  0  0  0  0  0  0  0  0  0  0  0
    3.0695    0.9271    8.4211 O   0  0  0  0  0  0  0  0  0  0  0  0
    4.5367    4.0539   12.3658 N   0  0  0  0  0  0  0  0  0  0  0  0
   -2.0280    7.0143   15.0958 N   0  0  0  0  0  0  0  0  0  0  0  0
  1  2  1  0
  2  3  2  0
  3  4  1  0
  4  5  2  0
  5  6  1  0
  6  7  2  0
  6  8  1  0
  8  9  1  0
  9 10  1  0
 10 11  2  0
 11 12  1  0
 12 13  2  0
 13 14  1  0
 14 15  2  0
 15 16  1  0
 16 17  2  0
 14 18  1  0
 18 19  2  0
 19 20  1  0
 20 21  2  0
 21 22  1  0
 12 23  1  0
  3 24  1  0
  7  2  1  0
 17  9  1  0
 15 10  1  0
 22 18  1  0
M  END
$$$$
