
     RDKit          3D

 24 27  0  0  0  0  0  0  0  0999 V2000
    2.7701   10.7368   11.5202 C   0  0  0  0  0  0  0  0  0  0  0  0
    2.6787    9.4485   12.2475 C   0  0  0  0  0  0  0  0  0  0  0  0
    3.6410    9.0858   13.1598 C   0  0  0  0  0  0  0  0  0  0  0  0
    3.5331    7.8909   13.8177 C   0  0  0  0  0  0  0  0  0  0  0  0
    2.4719    7.0599   13.5690 C   0  0  0  0  0  0  0  0  0  0  0  0
    1.4983    7.4059   12.6589 C   0  0  0  0  0  0  0  0  0  0  0  0
    1.6094    8.6079   11.9989 C   0  0  0  0  0  0  0  0  0  0  0  0
    0.3373    6.5129   12.3768 C   0  0  0  0  0  0  0  0  0  0  0  0
    0.7475    5.5936   11.3265 N   0  0  0  0  0  0  0  0  0  0  0  0
    1.6214    4.5784   11.4010 C   0  0  0  0  0  0  0  0  0  0  0  0
    2.3446    4.1375   12.4411 N   0  0  0  0  0  0  0  0  0  0  0  0
    3.1773    3.0849   12.3031 C   0  0  0  0  0  0  0  0  0  0  0  0
    3.2459    2.5092   11.0932 N   0  0  0  0  0  0  0  0  0  0  0  0
    2.5533    2.8971   10.0130 C   0  0  0  0  0  0  0  0  0  0  0  0
    1.7020    3.9729   10.1529 C   0  0  0  0  0  0  0  0  0  0  0  0
    0.8684    4.6521    9.3730 N   0  0  0  0  0  0  0  0  0  0  0  0
    0.2854    5.6357   10.0744 N   0  0  0  0  0  0  0  0  0  0  0  0
    2.6709    2.2304    8.7232 C   0  0  0  0  0  0  0  0  0  0  0  0
    1.8214    2.3952    7.6381 C   0  0  0  0  0  0  0  0  0  0  0  0
    2.2688    1.5928    6.6098 C   0  0  0  0  0  0  0  0  0  0  0  0
    3.3864    0.9614    7.1105 C   0  0  0  0  0  0  0  0  0  0  0  0
    3.5780    1.3659    8.3428 O   0  0  0  0  0  0  0  0  0  0  0  0
    3.9279    2.6415   13.4179 N   0  0  0  0  0  0  0  0  0  0  0  0
    4.7286    9.9485   13.4079 N   0  0  0  0  0  0  0  0  0  0  0  0
  1  2  1  0
  2  3  2  0
  3  4  1  0
  4  5  2  0
  5  6  1  0
  6  7  2  0
  6  8  1  0
  8  9  1  0
  9 10  1  0
 10 11  2  0
 11 12  1  0
 12 13  2  0
 13 14  1  0
 14 15  2  0
 15 16  1  0
 16 17  2  0
 14 18  1  0
 18 19  2  0
 19 20  1  0
 20 21  2  0
 21 22  1  0
 12 23  1  0
  3 24  1  0
  7  2  1  0
 17  9  1  0
 15 10  1  0
 22 18  1  0
M  END
$$$$
