
     RDKit          3D

 24 27  0  0  0  0  0  0  0  0999 V2000
   -1.8796    8.4234   12.7896 C   0  0  0  0  0  0  0  0  0  0  0  0
   -0.5214    8.0310   13.2350 C   0  0  0  0  0  0  0  0  0  0  0  0
   -0.2676    7.7523   14.5570 C   0  0  0  0  0  0  0  0  0  0  0  0
    0.9951    7.3923   14.9420 C   0  0  0  0  0  0  0  0  0  0  0  0
    2.0016    7.3098   14.0152 C   0  0  0  0  0  0  0  0  0  0  0  0
    1.7668    7.5851   12.6868 C   0  0  0  0  0  0  0  0  0  0  0  0
    0.4962    7.9468   12.3026 C   0  0  0  0  0  0  0  0  0  0  0  0
    2.8510    7.4999   11.6659 C   0  0  0  0  0  0  0  0  0  0  0  0
    2.5664    6.3421   10.8324 N   0  0  0  0  0  0  0  0  0  0  0  0
    2.7933    5.0468   11.0983 C   0  0  0  0  0  0  0  0  0  0  0  0
    3.3337    4.4707   12.1823 N   0  0  0  0  0  0  0  0  0  0  0  0
    3.4746    3.1306   12.2512 C   0  0  0  0  0  0  0  0  0  0  0  0
    3.0542    2.4129   11.1985 N   0  0  0  0  0  0  0  0  0  0  0  0
    2.5063    2.9220   10.0860 C   0  0  0  0  0  0  0  0  0  0  0  0
    2.3619    4.2915   10.0146 C   0  0  0  0  0  0  0  0  0  0  0  0
    1.8899    5.1679    9.1350 N   0  0  0  0  0  0  0  0  0  0  0  0
    2.0093    6.4124    9.6209 N   0  0  0  0  0  0  0  0  0  0  0  0
    2.0683    2.0892    8.9741 C   0  0  0  0  0  0  0  0  0  0  0  0
    1.1834    2.4634    7.9724 C   0  0  0  0  0  0  0  0  0  0  0  0
    1.0269    1.3985    7.1105 C   0  0  0  0  0  0  0  0  0  0  0  0
    1.8302    0.4035    7.6232 C   0  0  0  0  0  0  0  0  0  0  0  0
    2.4141    0.8548    8.7068 O   0  0  0  0  0  0  0  0  0  0  0  0
    4.0483    2.5505   13.4076 N   0  0  0  0  0  0  0  0  0  0  0  0
   -1.3107    7.8404   15.5020 N   0  0  0  0  0  0  0  0  0  0  0  0
  1  2  1  0
  2  3  2  0
  3  4  1  0
  4  5  2  0
  5  6  1  0
  6  7  2  0
  6  8  1  0
  8  9  1  0
  9 10  1  0
 10 11  2  0
 11 12  1  0
 12 13  2  0
 13 14  1  0
 14 15  2  0
 15 16  1  0
 16 17  2  0
 14 18  1  0
 18 19  2  0
 19 20  1  0
 20 21  2  0
 21 22  1  0
 12 23  1  0
  3 24  1  0
  7  2  1  0
 17  9  1  0
 15 10  1  0
 22 18  1  0
M  END
$$$$
