
     RDKit          3D

 24 27  0  0  0  0  0  0  0  0999 V2000
    2.7560   10.7573   12.6855 C   0  0  0  0  0  0  0  0  0  0  0  0
    2.8179    9.2978   12.9363 C   0  0  0  0  0  0  0  0  0  0  0  0
    3.9460    8.7231   13.4718 C   0  0  0  0  0  0  0  0  0  0  0  0
    3.9774    7.3733   13.6936 C   0  0  0  0  0  0  0  0  0  0  0  0
    2.8904    6.5979   13.3836 C   0  0  0  0  0  0  0  0  0  0  0  0
    1.7517    7.1553   12.8465 C   0  0  0  0  0  0  0  0  0  0  0  0
    1.7231    8.5128   12.6247 C   0  0  0  0  0  0  0  0  0  0  0  0
    0.5604    6.3256   12.5038 C   0  0  0  0  0  0  0  0  0  0  0  0
    0.9483    5.4482   11.4100 N   0  0  0  0  0  0  0  0  0  0  0  0
    1.6929    4.3332   11.4591 C   0  0  0  0  0  0  0  0  0  0  0  0
    2.2745    3.7298   12.5063 N   0  0  0  0  0  0  0  0  0  0  0  0
    2.9913    2.5992   12.3379 C   0  0  0  0  0  0  0  0  0  0  0  0
    3.0928    2.1151   11.0909 N   0  0  0  0  0  0  0  0  0  0  0  0
    2.5388    2.6655   10.0013 C   0  0  0  0  0  0  0  0  0  0  0  0
    1.8059    3.8210   10.1723 C   0  0  0  0  0  0  0  0  0  0  0  0
    1.1207    4.6533    9.3962 N   0  0  0  0  0  0  0  0  0  0  0  0
    0.5975    5.6420   10.1363 N   0  0  0  0  0  0  0  0  0  0  0  0
    2.6848    2.0915    8.6705 C   0  0  0  0  0  0  0  0  0  0  0  0
    2.0126    2.4994    7.5267 C   0  0  0  0  0  0  0  0  0  0  0  0
    2.4256    1.7094    6.4747 C   0  0  0  0  0  0  0  0  0  0  0  0
    3.3442    0.8397    7.0208 C   0  0  0  0  0  0  0  0  0  0  0  0
    3.4594    1.1027    8.3000 O   0  0  0  0  0  0  0  0  0  0  0  0
    3.5938    1.9843   13.4613 N   0  0  0  0  0  0  0  0  0  0  0  0
    5.0586    9.5304   13.7870 N   0  0  0  0  0  0  0  0  0  0  0  0
  1  2  1  0
  2  3  2  0
  3  4  1  0
  4  5  2  0
  5  6  1  0
  6  7  2  0
  6  8  1  0
  8  9  1  0
  9 10  1  0
 10 11  2  0
 11 12  1  0
 12 13  2  0
 13 14  1  0
 14 15  2  0
 15 16  1  0
 16 17  2  0
 14 18  1  0
 18 19  2  0
 19 20  1  0
 20 21  2  0
 21 22  1  0
 12 23  1  0
  3 24  1  0
  7  2  1  0
 17  9  1  0
 15 10  1  0
 22 18  1  0
M  END
$$$$
