
     RDKit          3D

 24 27  0  0  0  0  0  0  0  0999 V2000
    0.0114    9.9656    9.7825 C   0  0  0  0  0  0  0  0  0  0  0  0
   -0.4051    8.8501    8.8997 C   0  0  0  0  0  0  0  0  0  0  0  0
   -0.3718    8.9850    7.5320 C   0  0  0  0  0  0  0  0  0  0  0  0
   -0.7616    7.9400    6.7395 C   0  0  0  0  0  0  0  0  0  0  0  0
   -1.1831    6.7649    7.3055 C   0  0  0  0  0  0  0  0  0  0  0  0
   -1.2234    6.6109    8.6732 C   0  0  0  0  0  0  0  0  0  0  0  0
   -0.8308    7.6634    9.4675 C   0  0  0  0  0  0  0  0  0  0  0  0
   -1.6794    5.3388    9.3048 C   0  0  0  0  0  0  0  0  0  0  0  0
   -0.6425    4.3460    9.0686 N   0  0  0  0  0  0  0  0  0  0  0  0
    0.4652    4.1096    9.7877 C   0  0  0  0  0  0  0  0  0  0  0  0
    0.9157    4.7088   10.8999 N   0  0  0  0  0  0  0  0  0  0  0  0
    2.0707    4.3137   11.4746 C   0  0  0  0  0  0  0  0  0  0  0  0
    2.7368    3.3074   10.8885 N   0  0  0  0  0  0  0  0  0  0  0  0
    2.3454    2.6651    9.7788 C   0  0  0  0  0  0  0  0  0  0  0  0
    1.1650    3.0681    9.1907 C   0  0  0  0  0  0  0  0  0  0  0  0
    0.4461    2.7178    8.1301 N   0  0  0  0  0  0  0  0  0  0  0  0
   -0.6505    3.4858    8.0474 N   0  0  0  0  0  0  0  0  0  0  0  0
    3.1134    1.5772    9.1885 C   0  0  0  0  0  0  0  0  0  0  0  0
    2.7338    0.8073    8.0979 C   0  0  0  0  0  0  0  0  0  0  0  0
    3.7288   -0.1143    7.8488 C   0  0  0  0  0  0  0  0  0  0  0  0
    4.6889    0.1298    8.8064 C   0  0  0  0  0  0  0  0  0  0  0  0
    4.2837    1.1226    9.5607 O   0  0  0  0  0  0  0  0  0  0  0  0
    2.5217    4.9644   12.6477 N   0  0  0  0  0  0  0  0  0  0  0  0
    0.0636   10.1986    6.9605 N   0  0  0  0  0  0  0  0  0  0  0  0
  1  2  1  0
  2  3  2  0
  3  4  1  0
  4  5  2  0
  5  6  1  0
  6  7  2  0
  6  8  1  0
  8  9  1  0
  9 10  1  0
 10 11  2  0
 11 12  1  0
 12 13  2  0
 13 14  1  0
 14 15  2  0
 15 16  1  0
 16 17  2  0
 14 18  1  0
 18 19  2  0
 19 20  1  0
 20 21  2  0
 21 22  1  0
 12 23  1  0
  3 24  1  0
  7  2  1  0
 17  9  1  0
 15 10  1  0
 22 18  1  0
M  END
$$$$
