
     RDKit          3D

 24 27  0  0  0  0  0  0  0  0999 V2000
    6.9489    4.0995   15.3536 C   0  0  0  0  0  0  0  0  0  0  0  0
    5.6105    4.7042   15.1540 C   0  0  0  0  0  0  0  0  0  0  0  0
    4.6456    4.6149   16.1292 C   0  0  0  0  0  0  0  0  0  0  0  0
    3.4180    5.1818   15.9200 C   0  0  0  0  0  0  0  0  0  0  0  0
    3.1512    5.8352   14.7449 C   0  0  0  0  0  0  0  0  0  0  0  0
    4.1047    5.9350   13.7566 C   0  0  0  0  0  0  0  0  0  0  0  0
    5.3381    5.3640   13.9699 C   0  0  0  0  0  0  0  0  0  0  0  0
    3.8303    6.6425   12.4724 C   0  0  0  0  0  0  0  0  0  0  0  0
    3.4155    5.6359   11.5074 N   0  0  0  0  0  0  0  0  0  0  0  0
    2.1742    5.2119   11.2258 C   0  0  0  0  0  0  0  0  0  0  0  0
    0.9957    5.5890   11.7434 N   0  0  0  0  0  0  0  0  0  0  0  0
   -0.1547    5.0294   11.3146 C   0  0  0  0  0  0  0  0  0  0  0  0
   -0.0641    4.0915   10.3596 N   0  0  0  0  0  0  0  0  0  0  0  0
    1.0776    3.6677    9.7993 C   0  0  0  0  0  0  0  0  0  0  0  0
    2.2540    4.2390   10.2368 C   0  0  0  0  0  0  0  0  0  0  0  0
    3.5477    4.1160    9.9616 N   0  0  0  0  0  0  0  0  0  0  0  0
    4.2594    4.9578   10.7258 N   0  0  0  0  0  0  0  0  0  0  0  0
    1.1117    2.6436    8.7640 C   0  0  0  0  0  0  0  0  0  0  0  0
    2.2473    2.1661    8.1245 C   0  0  0  0  0  0  0  0  0  0  0  0
    1.8616    1.2063    7.2127 C   0  0  0  0  0  0  0  0  0  0  0  0
    0.4909    1.1326    7.3307 C   0  0  0  0  0  0  0  0  0  0  0  0
    0.1036    1.9880    8.2456 O   0  0  0  0  0  0  0  0  0  0  0  0
   -1.3835    5.4471   11.8790 N   0  0  0  0  0  0  0  0  0  0  0  0
    4.9310    3.9403   17.3343 N   0  0  0  0  0  0  0  0  0  0  0  0
  1  2  1  0
  2  3  2  0
  3  4  1  0
  4  5  2  0
  5  6  1  0
  6  7  2  0
  6  8  1  0
  8  9  1  0
  9 10  1  0
 10 11  2  0
 11 12  1  0
 12 13  2  0
 13 14  1  0
 14 15  2  0
 15 16  1  0
 16 17  2  0
 14 18  1  0
 18 19  2  0
 19 20  1  0
 20 21  2  0
 21 22  1  0
 12 23  1  0
  3 24  1  0
  7  2  1  0
 17  9  1  0
 15 10  1  0
 22 18  1  0
M  END
$$$$
