
     RDKit          3D

 24 27  0  0  0  0  0  0  0  0999 V2000
    2.5180    7.7861   15.8900 C   0  0  0  0  0  0  0  0  0  0  0  0
    2.6890    7.4843   14.4489 C   0  0  0  0  0  0  0  0  0  0  0  0
    3.9108    7.6382   13.8379 C   0  0  0  0  0  0  0  0  0  0  0  0
    4.0419    7.3527   12.5062 C   0  0  0  0  0  0  0  0  0  0  0  0
    2.9614    6.9157   11.7848 C   0  0  0  0  0  0  0  0  0  0  0  0
    1.7298    6.7554   12.3792 C   0  0  0  0  0  0  0  0  0  0  0  0
    1.6011    7.0433   13.7184 C   0  0  0  0  0  0  0  0  0  0  0  0
    0.5442    6.2808   11.6084 C   0  0  0  0  0  0  0  0  0  0  0  0
    1.0194    5.2872   10.6579 N   0  0  0  0  0  0  0  0  0  0  0  0
    1.5662    4.0879   10.9083 C   0  0  0  0  0  0  0  0  0  0  0  0
    1.8216    3.4838   12.0783 N   0  0  0  0  0  0  0  0  0  0  0  0
    2.3847    2.2581   12.1111 C   0  0  0  0  0  0  0  0  0  0  0  0
    2.6724    1.6815   10.9345 N   0  0  0  0  0  0  0  0  0  0  0  0
    2.4447    2.2267    9.7311 C   0  0  0  0  0  0  0  0  0  0  0  0
    1.8692    3.4793    9.6964 C   0  0  0  0  0  0  0  0  0  0  0  0
    1.4904    4.3420    8.7600 N   0  0  0  0  0  0  0  0  0  0  0  0
    0.9745    5.4400    9.3321 N   0  0  0  0  0  0  0  0  0  0  0  0
    2.7799    1.5495    8.4857 C   0  0  0  0  0  0  0  0  0  0  0  0
    2.4704    1.9913    7.2069 C   0  0  0  0  0  0  0  0  0  0  0  0
    2.9583    1.0741    6.3001 C   0  0  0  0  0  0  0  0  0  0  0  0
    3.5537    0.0965    7.0670 C   0  0  0  0  0  0  0  0  0  0  0  0
    3.4230    0.4193    8.3309 O   0  0  0  0  0  0  0  0  0  0  0  0
    2.6428    1.6450   13.3603 N   0  0  0  0  0  0  0  0  0  0  0  0
    5.0157    8.0885   14.5898 N   0  0  0  0  0  0  0  0  0  0  0  0
  1  2  1  0
  2  3  2  0
  3  4  1  0
  4  5  2  0
  5  6  1  0
  6  7  2  0
  6  8  1  0
  8  9  1  0
  9 10  1  0
 10 11  2  0
 11 12  1  0
 12 13  2  0
 13 14  1  0
 14 15  2  0
 15 16  1  0
 16 17  2  0
 14 18  1  0
 18 19  2  0
 19 20  1  0
 20 21  2  0
 21 22  1  0
 12 23  1  0
  3 24  1  0
  7  2  1  0
 17  9  1  0
 15 10  1  0
 22 18  1  0
M  END
$$$$
