
     RDKit          3D

 24 27  0  0  0  0  0  0  0  0999 V2000
   -2.2562    9.7145   11.1216 C   0  0  0  0  0  0  0  0  0  0  0  0
   -1.4993    8.5338   11.6013 C   0  0  0  0  0  0  0  0  0  0  0  0
   -2.0871    7.6127   12.4355 C   0  0  0  0  0  0  0  0  0  0  0  0
   -1.3663    6.5314   12.8640 C   0  0  0  0  0  0  0  0  0  0  0  0
   -0.0656    6.3671   12.4640 C   0  0  0  0  0  0  0  0  0  0  0  0
    0.5402    7.2789   11.6289 C   0  0  0  0  0  0  0  0  0  0  0  0
   -0.1871    8.3651   11.1997 C   0  0  0  0  0  0  0  0  0  0  0  0
    1.9546    7.1147   11.1845 C   0  0  0  0  0  0  0  0  0  0  0  0
    2.0130    5.9077   10.3744 N   0  0  0  0  0  0  0  0  0  0  0  0
    2.4653    4.6927   10.7194 C   0  0  0  0  0  0  0  0  0  0  0  0
    2.9783    4.2612   11.8812 N   0  0  0  0  0  0  0  0  0  0  0  0
    3.3797    2.9808   12.0227 C   0  0  0  0  0  0  0  0  0  0  0  0
    3.2428    2.1722   10.9609 N   0  0  0  0  0  0  0  0  0  0  0  0
    2.7395    2.5361    9.7729 C   0  0  0  0  0  0  0  0  0  0  0  0
    2.3290    3.8445    9.6272 C   0  0  0  0  0  0  0  0  0  0  0  0
    1.7971    4.5877    8.6632 N   0  0  0  0  0  0  0  0  0  0  0  0
    1.6019    5.8388    9.1059 N   0  0  0  0  0  0  0  0  0  0  0  0
    2.6160    1.6103    8.6552 C   0  0  0  0  0  0  0  0  0  0  0  0
    1.9051    1.8336    7.4842 C   0  0  0  0  0  0  0  0  0  0  0  0
    2.0331    0.7215    6.6790 C   0  0  0  0  0  0  0  0  0  0  0  0
    2.8255   -0.1484    7.3957 C   0  0  0  0  0  0  0  0  0  0  0  0
    3.1380    0.4150    8.5374 O   0  0  0  0  0  0  0  0  0  0  0  0
    3.9172    2.5535   13.2602 N   0  0  0  0  0  0  0  0  0  0  0  0
   -3.4260    7.7917   12.8406 N   0  0  0  0  0  0  0  0  0  0  0  0
  1  2  1  0
  2  3  2  0
  3  4  1  0
  4  5  2  0
  5  6  1  0
  6  7  2  0
  6  8  1  0
  8  9  1  0
  9 10  1  0
 10 11  2  0
 11 12  1  0
 12 13  2  0
 13 14  1  0
 14 15  2  0
 15 16  1  0
 16 17  2  0
 14 18  1  0
 18 19  2  0
 19 20  1  0
 20 21  2  0
 21 22  1  0
 12 23  1  0
  3 24  1  0
  7  2  1  0
 17  9  1  0
 15 10  1  0
 22 18  1  0
M  END
$$$$
