
     RDKit          3D

 24 27  0  0  0  0  0  0  0  0999 V2000
    4.3285    8.8335   14.0399 C   0  0  0  0  0  0  0  0  0  0  0  0
    3.1128    8.8434   13.1920 C   0  0  0  0  0  0  0  0  0  0  0  0
    2.8268    9.9186   12.3845 C   0  0  0  0  0  0  0  0  0  0  0  0
    1.6980    9.9027   11.6114 C   0  0  0  0  0  0  0  0  0  0  0  0
    0.8566    8.8210   11.6415 C   0  0  0  0  0  0  0  0  0  0  0  0
    1.1262    7.7350   12.4438 C   0  0  0  0  0  0  0  0  0  0  0  0
    2.2620    7.7539   13.2200 C   0  0  0  0  0  0  0  0  0  0  0  0
    0.2209    6.5503   12.4881 C   0  0  0  0  0  0  0  0  0  0  0  0
    0.6472    5.6441   11.4327 N   0  0  0  0  0  0  0  0  0  0  0  0
    1.5875    4.6885   11.4833 C   0  0  0  0  0  0  0  0  0  0  0  0
    2.3792    4.3102   12.4978 N   0  0  0  0  0  0  0  0  0  0  0  0
    3.2723    3.3116   12.3381 C   0  0  0  0  0  0  0  0  0  0  0  0
    3.3293    2.7240   11.1333 N   0  0  0  0  0  0  0  0  0  0  0  0
    2.5699    3.0508   10.0781 C   0  0  0  0  0  0  0  0  0  0  0  0
    1.6568    4.0713   10.2402 C   0  0  0  0  0  0  0  0  0  0  0  0
    0.7500    4.6840    9.4873 N   0  0  0  0  0  0  0  0  0  0  0  0
    0.1332    5.6381   10.2003 N   0  0  0  0  0  0  0  0  0  0  0  0
    2.6783    2.3743    8.7926 C   0  0  0  0  0  0  0  0  0  0  0  0
    1.8006    2.5032    7.7251 C   0  0  0  0  0  0  0  0  0  0  0  0
    2.2485    1.7034    6.6950 C   0  0  0  0  0  0  0  0  0  0  0  0
    3.3948    1.1098    7.1768 C   0  0  0  0  0  0  0  0  0  0  0  0
    3.6016    1.5324    8.4004 O   0  0  0  0  0  0  0  0  0  0  0  0
    4.0946    2.9338   13.4262 N   0  0  0  0  0  0  0  0  0  0  0  0
    3.6995   11.0262   12.3614 N   0  0  0  0  0  0  0  0  0  0  0  0
  1  2  1  0
  2  3  2  0
  3  4  1  0
  4  5  2  0
  5  6  1  0
  6  7  2  0
  6  8  1  0
  8  9  1  0
  9 10  1  0
 10 11  2  0
 11 12  1  0
 12 13  2  0
 13 14  1  0
 14 15  2  0
 15 16  1  0
 16 17  2  0
 14 18  1  0
 18 19  2  0
 19 20  1  0
 20 21  2  0
 21 22  1  0
 12 23  1  0
  3 24  1  0
  7  2  1  0
 17  9  1  0
 15 10  1  0
 22 18  1  0
M  END
$$$$
