
     RDKit          3D

 24 27  0  0  0  0  0  0  0  0999 V2000
    2.3848    6.5847   16.5448 C   0  0  0  0  0  0  0  0  0  0  0  0
    3.1247    6.3071   15.2908 C   0  0  0  0  0  0  0  0  0  0  0  0
    4.3527    5.6899   15.3203 C   0  0  0  0  0  0  0  0  0  0  0  0
    5.0150    5.4449   14.1483 C   0  0  0  0  0  0  0  0  0  0  0  0
    4.4577    5.8127   12.9513 C   0  0  0  0  0  0  0  0  0  0  0  0
    3.2288    6.4318   12.9015 C   0  0  0  0  0  0  0  0  0  0  0  0
    2.5653    6.6768   14.0816 C   0  0  0  0  0  0  0  0  0  0  0  0
    2.6087    6.8383   11.6072 C   0  0  0  0  0  0  0  0  0  0  0  0
    2.6336    5.6745   10.7347 N   0  0  0  0  0  0  0  0  0  0  0  0
    1.6833    4.7441   10.5577 C   0  0  0  0  0  0  0  0  0  0  0  0
    0.4724    4.6297   11.1229 N   0  0  0  0  0  0  0  0  0  0  0  0
   -0.3424    3.6032   10.8022 C   0  0  0  0  0  0  0  0  0  0  0  0
    0.1106    2.7157    9.9039 N   0  0  0  0  0  0  0  0  0  0  0  0
    1.3069    2.7688    9.3013 C   0  0  0  0  0  0  0  0  0  0  0  0
    2.1404    3.8176    9.6284 C   0  0  0  0  0  0  0  0  0  0  0  0
    3.3545    4.2301    9.2816 N   0  0  0  0  0  0  0  0  0  0  0  0
    3.6624    5.3539    9.9461 N   0  0  0  0  0  0  0  0  0  0  0  0
    1.7432    1.7729    8.3320 C   0  0  0  0  0  0  0  0  0  0  0  0
    2.9806    1.7309    7.7046 C   0  0  0  0  0  0  0  0  0  0  0  0
    3.0038    0.6400    6.8616 C   0  0  0  0  0  0  0  0  0  0  0  0
    1.7670    0.0504    7.0070 C   0  0  0  0  0  0  0  0  0  0  0  0
    1.0713    0.7469    7.8729 O   0  0  0  0  0  0  0  0  0  0  0  0
   -1.6148    3.5081   11.4146 N   0  0  0  0  0  0  0  0  0  0  0  0
    4.9166    5.3158   16.5576 N   0  0  0  0  0  0  0  0  0  0  0  0
  1  2  1  0
  2  3  2  0
  3  4  1  0
  4  5  2  0
  5  6  1  0
  6  7  2  0
  6  8  1  0
  8  9  1  0
  9 10  1  0
 10 11  2  0
 11 12  1  0
 12 13  2  0
 13 14  1  0
 14 15  2  0
 15 16  1  0
 16 17  2  0
 14 18  1  0
 18 19  2  0
 19 20  1  0
 20 21  2  0
 21 22  1  0
 12 23  1  0
  3 24  1  0
  7  2  1  0
 17  9  1  0
 15 10  1  0
 22 18  1  0
M  END
$$$$
