
     RDKit          3D

 24 27  0  0  0  0  0  0  0  0999 V2000
    3.3685   10.2470   12.7429 C   0  0  0  0  0  0  0  0  0  0  0  0
    3.1974    8.7922   12.9689 C   0  0  0  0  0  0  0  0  0  0  0  0
    4.1446    8.0707   13.6559 C   0  0  0  0  0  0  0  0  0  0  0  0
    3.9627    6.7286   13.8509 C   0  0  0  0  0  0  0  0  0  0  0  0
    2.8424    6.1066   13.3642 C   0  0  0  0  0  0  0  0  0  0  0  0
    1.8827    6.8124   12.6737 C   0  0  0  0  0  0  0  0  0  0  0  0
    2.0685    8.1617   12.4792 C   0  0  0  0  0  0  0  0  0  0  0  0
    0.6581    6.1505   12.1377 C   0  0  0  0  0  0  0  0  0  0  0  0
    1.0823    5.2707   11.0595 N   0  0  0  0  0  0  0  0  0  0  0  0
    1.6791    4.0723   11.1466 C   0  0  0  0  0  0  0  0  0  0  0  0
    2.0433    3.3667   12.2276 N   0  0  0  0  0  0  0  0  0  0  0  0
    2.6397    2.1638   12.0951 C   0  0  0  0  0  0  0  0  0  0  0  0
    2.8478    1.7143   10.8483 N   0  0  0  0  0  0  0  0  0  0  0  0
    2.5103    2.3654    9.7262 C   0  0  0  0  0  0  0  0  0  0  0  0
    1.9006    3.5950    9.8605 C   0  0  0  0  0  0  0  0  0  0  0  0
    1.4253    4.5309    9.0465 N   0  0  0  0  0  0  0  0  0  0  0  0
    0.9275    5.5498    9.7629 N   0  0  0  0  0  0  0  0  0  0  0  0
    2.7629    1.8243    8.3976 C   0  0  0  0  0  0  0  0  0  0  0  0
    2.2269    2.2967    7.2077 C   0  0  0  0  0  0  0  0  0  0  0  0
    2.7076    1.5192    6.1753 C   0  0  0  0  0  0  0  0  0  0  0  0
    3.5277    0.5914    6.7795 C   0  0  0  0  0  0  0  0  0  0  0  0
    3.5262    0.8112    8.0720 O   0  0  0  0  0  0  0  0  0  0  0  0
    3.0131    1.4416   13.2536 N   0  0  0  0  0  0  0  0  0  0  0  0
    5.2934    8.7209   14.1522 N   0  0  0  0  0  0  0  0  0  0  0  0
  1  2  1  0
  2  3  2  0
  3  4  1  0
  4  5  2  0
  5  6  1  0
  6  7  2  0
  6  8  1  0
  8  9  1  0
  9 10  1  0
 10 11  2  0
 11 12  1  0
 12 13  2  0
 13 14  1  0
 14 15  2  0
 15 16  1  0
 16 17  2  0
 14 18  1  0
 18 19  2  0
 19 20  1  0
 20 21  2  0
 21 22  1  0
 12 23  1  0
  3 24  1  0
  7  2  1  0
 17  9  1  0
 15 10  1  0
 22 18  1  0
M  END
$$$$
