
     RDKit          3D

 24 27  0  0  0  0  0  0  0  0999 V2000
    4.1605    9.8406   11.8952 C   0  0  0  0  0  0  0  0  0  0  0  0
    3.7000    8.9008   12.9448 C   0  0  0  0  0  0  0  0  0  0  0  0
    2.9099    9.3366   13.9819 C   0  0  0  0  0  0  0  0  0  0  0  0
    2.4983    8.4485   14.9381 C   0  0  0  0  0  0  0  0  0  0  0  0
    2.8714    7.1317   14.8628 C   0  0  0  0  0  0  0  0  0  0  0  0
    3.6623    6.6766   13.8317 C   0  0  0  0  0  0  0  0  0  0  0  0
    4.0746    7.5718   12.8718 C   0  0  0  0  0  0  0  0  0  0  0  0
    4.0770    5.2470   13.7353 C   0  0  0  0  0  0  0  0  0  0  0  0
    3.6045    4.7481   12.4530 N   0  0  0  0  0  0  0  0  0  0  0  0
    2.3399    4.6051   12.0284 C   0  0  0  0  0  0  0  0  0  0  0  0
    1.1844    4.8759   12.6533 N   0  0  0  0  0  0  0  0  0  0  0  0
    0.0027    4.6564   12.0401 C   0  0  0  0  0  0  0  0  0  0  0  0
    0.0390    4.1616   10.7937 N   0  0  0  0  0  0  0  0  0  0  0  0
    1.1550    3.8687   10.1112 C   0  0  0  0  0  0  0  0  0  0  0  0
    2.3632    4.0926   10.7369 C   0  0  0  0  0  0  0  0  0  0  0  0
    3.6485    3.9471   10.4347 N   0  0  0  0  0  0  0  0  0  0  0  0
    4.4083    4.3413   11.4674 N   0  0  0  0  0  0  0  0  0  0  0  0
    1.1298    3.3325    8.7571 C   0  0  0  0  0  0  0  0  0  0  0  0
    2.2377    3.0229    7.9804 C   0  0  0  0  0  0  0  0  0  0  0  0
    1.7965    2.5425    6.7655 C   0  0  0  0  0  0  0  0  0  0  0  0
    0.4215    2.5770    6.8464 C   0  0  0  0  0  0  0  0  0  0  0  0
    0.0838    3.0439    8.0240 O   0  0  0  0  0  0  0  0  0  0  0  0
   -1.2007    4.9516   12.7240 N   0  0  0  0  0  0  0  0  0  0  0  0
    2.5320   10.6936   14.0495 N   0  0  0  0  0  0  0  0  0  0  0  0
  1  2  1  0
  2  3  2  0
  3  4  1  0
  4  5  2  0
  5  6  1  0
  6  7  2  0
  6  8  1  0
  8  9  1  0
  9 10  1  0
 10 11  2  0
 11 12  1  0
 12 13  2  0
 13 14  1  0
 14 15  2  0
 15 16  1  0
 16 17  2  0
 14 18  1  0
 18 19  2  0
 19 20  1  0
 20 21  2  0
 21 22  1  0
 12 23  1  0
  3 24  1  0
  7  2  1  0
 17  9  1  0
 15 10  1  0
 22 18  1  0
M  END
$$$$
