
     RDKit          3D

 24 27  0  0  0  0  0  0  0  0999 V2000
    2.5000    7.6213   16.2534 C   0  0  0  0  0  0  0  0  0  0  0  0
    1.5440    7.5331   15.1241 C   0  0  0  0  0  0  0  0  0  0  0  0
    0.2278    7.2004   15.3408 C   0  0  0  0  0  0  0  0  0  0  0  0
   -0.6343    7.1258   14.2810 C   0  0  0  0  0  0  0  0  0  0  0  0
   -0.1888    7.3811   13.0101 C   0  0  0  0  0  0  0  0  0  0  0  0
    1.1257    7.7158   12.7732 C   0  0  0  0  0  0  0  0  0  0  0  0
    1.9902    7.7900   13.8409 C   0  0  0  0  0  0  0  0  0  0  0  0
    1.6263    7.9966   11.3965 C   0  0  0  0  0  0  0  0  0  0  0  0
    1.5857    6.7423   10.6604 N   0  0  0  0  0  0  0  0  0  0  0  0
    2.3399    5.6469   10.8369 C   0  0  0  0  0  0  0  0  0  0  0  0
    3.3197    5.4075   11.7210 N   0  0  0  0  0  0  0  0  0  0  0  0
    3.9623    4.2212   11.7314 C   0  0  0  0  0  0  0  0  0  0  0  0
    3.5795    3.3062   10.8280 N   0  0  0  0  0  0  0  0  0  0  0  0
    2.6105    3.4780    9.9178 C   0  0  0  0  0  0  0  0  0  0  0  0
    1.9531    4.6901    9.9063 C   0  0  0  0  0  0  0  0  0  0  0  0
    0.9760    5.2517    9.2032 N   0  0  0  0  0  0  0  0  0  0  0  0
    0.7460    6.4946    9.6522 N   0  0  0  0  0  0  0  0  0  0  0  0
    2.2393    2.4444    8.9608 C   0  0  0  0  0  0  0  0  0  0  0  0
    1.1091    2.4450    8.1552 C   0  0  0  0  0  0  0  0  0  0  0  0
    1.1183    1.2963    7.3925 C   0  0  0  0  0  0  0  0  0  0  0  0
    2.2656    0.6302    7.7646 C   0  0  0  0  0  0  0  0  0  0  0  0
    2.8823    1.3389    8.6790 O   0  0  0  0  0  0  0  0  0  0  0  0
    4.9923    3.9968   12.6758 N   0  0  0  0  0  0  0  0  0  0  0  0
   -0.2197    6.9398   16.6526 N   0  0  0  0  0  0  0  0  0  0  0  0
  1  2  1  0
  2  3  2  0
  3  4  1  0
  4  5  2  0
  5  6  1  0
  6  7  2  0
  6  8  1  0
  8  9  1  0
  9 10  1  0
 10 11  2  0
 11 12  1  0
 12 13  2  0
 13 14  1  0
 14 15  2  0
 15 16  1  0
 16 17  2  0
 14 18  1  0
 18 19  2  0
 19 20  1  0
 20 21  2  0
 21 22  1  0
 12 23  1  0
  3 24  1  0
  7  2  1  0
 17  9  1  0
 15 10  1  0
 22 18  1  0
M  END
$$$$
