
     RDKit          3D

 24 27  0  0  0  0  0  0  0  0999 V2000
   -2.6554    1.3160    8.3450 C   0  0  0  0  0  0  0  0  0  0  0  0
   -1.2316    1.5643    8.6741 C   0  0  0  0  0  0  0  0  0  0  0  0
   -0.4008    0.5285    9.0298 C   0  0  0  0  0  0  0  0  0  0  0  0
    0.9096    0.7846    9.3289 C   0  0  0  0  0  0  0  0  0  0  0  0
    1.3917    2.0666    9.2744 C   0  0  0  0  0  0  0  0  0  0  0  0
    0.5749    3.1170    8.9202 C   0  0  0  0  0  0  0  0  0  0  0  0
   -0.7422    2.8563    8.6200 C   0  0  0  0  0  0  0  0  0  0  0  0
    1.0839    4.5176    8.8560 C   0  0  0  0  0  0  0  0  0  0  0  0
    2.1067    4.6504    9.8821 N   0  0  0  0  0  0  0  0  0  0  0  0
    1.9744    5.1036   11.1379 C   0  0  0  0  0  0  0  0  0  0  0  0
    0.8871    5.5505   11.7835 N   0  0  0  0  0  0  0  0  0  0  0  0
    0.9700    5.9669   13.0642 C   0  0  0  0  0  0  0  0  0  0  0  0
    2.1748    5.9130   13.6519 N   0  0  0  0  0  0  0  0  0  0  0  0
    3.3004    5.4788   13.0674 C   0  0  0  0  0  0  0  0  0  0  0  0
    3.2167    5.0530   11.7585 C   0  0  0  0  0  0  0  0  0  0  0  0
    4.0514    4.5686   10.8457 N   0  0  0  0  0  0  0  0  0  0  0  0
    3.3888    4.3216    9.7059 N   0  0  0  0  0  0  0  0  0  0  0  0
    4.5818    5.4440   13.7592 C   0  0  0  0  0  0  0  0  0  0  0  0
    5.7661    4.9206   13.2592 C   0  0  0  0  0  0  0  0  0  0  0  0
    6.7482    5.0773   14.2143 C   0  0  0  0  0  0  0  0  0  0  0  0
    6.1206    5.6969   15.2729 C   0  0  0  0  0  0  0  0  0  0  0  0
    4.8623    5.8884   14.9587 O   0  0  0  0  0  0  0  0  0  0  0  0
   -0.1940    6.4335   13.7203 N   0  0  0  0  0  0  0  0  0  0  0  0
   -0.9074   -0.7866    9.0828 N   0  0  0  0  0  0  0  0  0  0  0  0
  1  2  1  0
  2  3  2  0
  3  4  1  0
  4  5  2  0
  5  6  1  0
  6  7  2  0
  6  8  1  0
  8  9  1  0
  9 10  1  0
 10 11  2  0
 11 12  1  0
 12 13  2  0
 13 14  1  0
 14 15  2  0
 15 16  1  0
 16 17  2  0
 14 18  1  0
 18 19  2  0
 19 20  1  0
 20 21  2  0
 21 22  1  0
 12 23  1  0
  3 24  1  0
  7  2  1  0
 17  9  1  0
 15 10  1  0
 22 18  1  0
M  END
$$$$
