
     RDKit          3D

 24 27  0  0  0  0  0  0  0  0999 V2000
    3.2206   10.0773   12.7896 C   0  0  0  0  0  0  0  0  0  0  0  0
    1.9891    9.7345   12.0393 C   0  0  0  0  0  0  0  0  0  0  0  0
    1.4889   10.5847   11.0819 C   0  0  0  0  0  0  0  0  0  0  0  0
    0.3503   10.2446   10.4036 C   0  0  0  0  0  0  0  0  0  0  0  0
   -0.2884    9.0630   10.6767 C   0  0  0  0  0  0  0  0  0  0  0  0
    0.1974    8.1986   11.6321 C   0  0  0  0  0  0  0  0  0  0  0  0
    1.3425    8.5433   12.3125 C   0  0  0  0  0  0  0  0  0  0  0  0
   -0.4856    6.9091   11.9413 C   0  0  0  0  0  0  0  0  0  0  0  0
    0.0283    5.9166   11.0099 N   0  0  0  0  0  0  0  0  0  0  0  0
    1.0980    5.1187   11.1476 C   0  0  0  0  0  0  0  0  0  0  0  0
    1.9725    5.0155   12.1592 N   0  0  0  0  0  0  0  0  0  0  0  0
    2.9941    4.1362   12.0986 C   0  0  0  0  0  0  0  0  0  0  0  0
    3.0913    3.3813   10.9938 N   0  0  0  0  0  0  0  0  0  0  0  0
    2.2546    3.4322    9.9476 C   0  0  0  0  0  0  0  0  0  0  0  0
    1.2102    4.3306   10.0086 C   0  0  0  0  0  0  0  0  0  0  0  0
    0.1975    4.6881    9.2268 N   0  0  0  0  0  0  0  0  0  0  0  0
   -0.5242    5.6480    9.8243 N   0  0  0  0  0  0  0  0  0  0  0  0
    2.4126    2.5849    8.7734 C   0  0  0  0  0  0  0  0  0  0  0  0
    1.5417    2.5127    7.6950 C   0  0  0  0  0  0  0  0  0  0  0  0
    2.0420    1.5980    6.7925 C   0  0  0  0  0  0  0  0  0  0  0  0
    3.2119    1.1411    7.3592 C   0  0  0  0  0  0  0  0  0  0  0  0
    3.3826    1.7454    8.5101 O   0  0  0  0  0  0  0  0  0  0  0  0
    3.9016    4.0491   13.1811 N   0  0  0  0  0  0  0  0  0  0  0  0
    2.1541   11.7979   10.8090 N   0  0  0  0  0  0  0  0  0  0  0  0
  1  2  1  0
  2  3  2  0
  3  4  1  0
  4  5  2  0
  5  6  1  0
  6  7  2  0
  6  8  1  0
  8  9  1  0
  9 10  1  0
 10 11  2  0
 11 12  1  0
 12 13  2  0
 13 14  1  0
 14 15  2  0
 15 16  1  0
 16 17  2  0
 14 18  1  0
 18 19  2  0
 19 20  1  0
 20 21  2  0
 21 22  1  0
 12 23  1  0
  3 24  1  0
  7  2  1  0
 17  9  1  0
 15 10  1  0
 22 18  1  0
M  END
$$$$
