
     RDKit          3D

 24 27  0  0  0  0  0  0  0  0999 V2000
   -2.5420    8.4232   13.1432 C   0  0  0  0  0  0  0  0  0  0  0  0
   -1.1359    7.9715   13.2701 C   0  0  0  0  0  0  0  0  0  0  0  0
   -0.6733    7.4336   14.4475 C   0  0  0  0  0  0  0  0  0  0  0  0
    0.6292    7.0244   14.5385 C   0  0  0  0  0  0  0  0  0  0  0  0
    1.4684    7.1498   13.4620 C   0  0  0  0  0  0  0  0  0  0  0  0
    1.0233    7.6860   12.2745 C   0  0  0  0  0  0  0  0  0  0  0  0
   -0.2868    8.0966   12.1860 C   0  0  0  0  0  0  0  0  0  0  0  0
    1.9236    7.8294   11.0938 C   0  0  0  0  0  0  0  0  0  0  0  0
    1.8869    6.5680   10.3699 N   0  0  0  0  0  0  0  0  0  0  0  0
    2.5498    5.4328   10.6379 C   0  0  0  0  0  0  0  0  0  0  0  0
    3.4121    5.1502   11.6256 N   0  0  0  0  0  0  0  0  0  0  0  0
    3.9768    3.9283   11.7173 C   0  0  0  0  0  0  0  0  0  0  0  0
    3.6391    3.0231   10.7865 N   0  0  0  0  0  0  0  0  0  0  0  0
    2.7863    3.2372    9.7746 C   0  0  0  0  0  0  0  0  0  0  0  0
    2.2086    4.4858    9.6800 C   0  0  0  0  0  0  0  0  0  0  0  0
    1.3490    5.0928    8.8693 N   0  0  0  0  0  0  0  0  0  0  0  0
    1.1476    6.3542    9.2787 N   0  0  0  0  0  0  0  0  0  0  0  0
    2.4588    2.2121    8.7930 C   0  0  0  0  0  0  0  0  0  0  0  0
    1.4251    2.2671    7.8684 C   0  0  0  0  0  0  0  0  0  0  0  0
    1.4467    1.1075    7.1225 C   0  0  0  0  0  0  0  0  0  0  0  0
    2.5037    0.3801    7.6247 C   0  0  0  0  0  0  0  0  0  0  0  0
    3.0595    1.0656    8.5941 O   0  0  0  0  0  0  0  0  0  0  0  0
    4.8831    3.6586   12.7703 N   0  0  0  0  0  0  0  0  0  0  0  0
   -1.5455    7.3093   15.5487 N   0  0  0  0  0  0  0  0  0  0  0  0
  1  2  1  0
  2  3  2  0
  3  4  1  0
  4  5  2  0
  5  6  1  0
  6  7  2  0
  6  8  1  0
  8  9  1  0
  9 10  1  0
 10 11  2  0
 11 12  1  0
 12 13  2  0
 13 14  1  0
 14 15  2  0
 15 16  1  0
 16 17  2  0
 14 18  1  0
 18 19  2  0
 19 20  1  0
 20 21  2  0
 21 22  1  0
 12 23  1  0
  3 24  1  0
  7  2  1  0
 17  9  1  0
 15 10  1  0
 22 18  1  0
M  END
$$$$
