
     RDKit          3D

 24 27  0  0  0  0  0  0  0  0999 V2000
   -2.2974    7.9370   13.4302 C   0  0  0  0  0  0  0  0  0  0  0  0
   -0.8378    7.6981   13.5291 C   0  0  0  0  0  0  0  0  0  0  0  0
   -0.2657    7.3219   14.7211 C   0  0  0  0  0  0  0  0  0  0  0  0
    1.0842    7.1076   14.7856 C   0  0  0  0  0  0  0  0  0  0  0  0
    1.8620    7.2670   13.6683 C   0  0  0  0  0  0  0  0  0  0  0  0
    1.3071    7.6433   12.4657 C   0  0  0  0  0  0  0  0  0  0  0  0
   -0.0504    7.8581   12.4039 C   0  0  0  0  0  0  0  0  0  0  0  0
    2.1396    7.8211   11.2407 C   0  0  0  0  0  0  0  0  0  0  0  0
    2.0520    6.5850   10.4786 N   0  0  0  0  0  0  0  0  0  0  0  0
    2.6633    5.4144   10.7148 C   0  0  0  0  0  0  0  0  0  0  0  0
    3.5069    5.0646   11.6972 N   0  0  0  0  0  0  0  0  0  0  0  0
    4.0172    3.8169   11.7541 C   0  0  0  0  0  0  0  0  0  0  0  0
    3.6456    2.9559   10.7947 N   0  0  0  0  0  0  0  0  0  0  0  0
    2.8087    3.2376    9.7861 C   0  0  0  0  0  0  0  0  0  0  0  0
    2.2865    4.5125    9.7270 C   0  0  0  0  0  0  0  0  0  0  0  0
    1.4587    5.1807    8.9316 N   0  0  0  0  0  0  0  0  0  0  0  0
    1.3102    6.4368    9.3782 N   0  0  0  0  0  0  0  0  0  0  0  0
    2.4422    2.2579    8.7724 C   0  0  0  0  0  0  0  0  0  0  0  0
    1.4134    2.3834    7.8492 C   0  0  0  0  0  0  0  0  0  0  0  0
    1.3901    1.2480    7.0672 C   0  0  0  0  0  0  0  0  0  0  0  0
    2.4160    0.4633    7.5469 C   0  0  0  0  0  0  0  0  0  0  0  0
    2.9969    1.0950    8.5379 O   0  0  0  0  0  0  0  0  0  0  0  0
    4.9050    3.4762   12.8022 N   0  0  0  0  0  0  0  0  0  0  0  0
   -1.0755    7.1608   15.8644 N   0  0  0  0  0  0  0  0  0  0  0  0
  1  2  1  0
  2  3  2  0
  3  4  1  0
  4  5  2  0
  5  6  1  0
  6  7  2  0
  6  8  1  0
  8  9  1  0
  9 10  1  0
 10 11  2  0
 11 12  1  0
 12 13  2  0
 13 14  1  0
 14 15  2  0
 15 16  1  0
 16 17  2  0
 14 18  1  0
 18 19  2  0
 19 20  1  0
 20 21  2  0
 21 22  1  0
 12 23  1  0
  3 24  1  0
  7  2  1  0
 17  9  1  0
 15 10  1  0
 22 18  1  0
M  END
$$$$
