
     RDKit          3D

 24 27  0  0  0  0  0  0  0  0999 V2000
    0.2648   11.4309   10.4259 C   0  0  0  0  0  0  0  0  0  0  0  0
    0.7777   10.2331   11.1325 C   0  0  0  0  0  0  0  0  0  0  0  0
    2.0215   10.2404   11.7179 C   0  0  0  0  0  0  0  0  0  0  0  0
    2.4714    9.1214   12.3642 C   0  0  0  0  0  0  0  0  0  0  0  0
    1.6868    7.9992   12.4278 C   0  0  0  0  0  0  0  0  0  0  0  0
    0.4384    7.9729   11.8476 C   0  0  0  0  0  0  0  0  0  0  0  0
   -0.0113    9.0996   11.1985 C   0  0  0  0  0  0  0  0  0  0  0  0
   -0.4277    6.7600   11.9078 C   0  0  0  0  0  0  0  0  0  0  0  0
    0.0716    5.8256   10.9107 N   0  0  0  0  0  0  0  0  0  0  0  0
    1.0799    4.9475   11.0214 C   0  0  0  0  0  0  0  0  0  0  0  0
    1.8909    4.6917   12.0587 N   0  0  0  0  0  0  0  0  0  0  0  0
    2.8566    3.7545   11.9621 C   0  0  0  0  0  0  0  0  0  0  0  0
    2.9649    3.1005   10.7957 N   0  0  0  0  0  0  0  0  0  0  0  0
    2.1902    3.3051    9.7209 C   0  0  0  0  0  0  0  0  0  0  0  0
    1.2029    4.2627    9.8186 C   0  0  0  0  0  0  0  0  0  0  0  0
    0.2580    4.7593    9.0278 N   0  0  0  0  0  0  0  0  0  0  0  0
   -0.4325    5.7064    9.6800 N   0  0  0  0  0  0  0  0  0  0  0  0
    2.3569    2.5616    8.4794 C   0  0  0  0  0  0  0  0  0  0  0  0
    3.3104    1.5830    8.2351 C   0  0  0  0  0  0  0  0  0  0  0  0
    3.1399    1.1219    6.9468 C   0  0  0  0  0  0  0  0  0  0  0  0
    2.0777    1.8435    6.4473 C   0  0  0  0  0  0  0  0  0  0  0  0
    1.6579    2.6669    7.3771 O   0  0  0  0  0  0  0  0  0  0  0  0
    3.6976    3.5058   13.0729 N   0  0  0  0  0  0  0  0  0  0  0  0
    2.8203   11.4004   11.6463 N   0  0  0  0  0  0  0  0  0  0  0  0
  1  2  1  0
  2  3  2  0
  3  4  1  0
  4  5  2  0
  5  6  1  0
  6  7  2  0
  6  8  1  0
  8  9  1  0
  9 10  1  0
 10 11  2  0
 11 12  1  0
 12 13  2  0
 13 14  1  0
 14 15  2  0
 15 16  1  0
 16 17  2  0
 14 18  1  0
 18 19  2  0
 19 20  1  0
 20 21  2  0
 21 22  1  0
 12 23  1  0
  3 24  1  0
  7  2  1  0
 17  9  1  0
 15 10  1  0
 22 18  1  0
M  END
$$$$
