
     RDKit          3D

 24 27  0  0  0  0  0  0  0  0999 V2000
    4.2820    8.7250   13.7204 C   0  0  0  0  0  0  0  0  0  0  0  0
    4.4488    7.2535   13.6576 C   0  0  0  0  0  0  0  0  0  0  0  0
    5.6970    6.6829   13.7360 C   0  0  0  0  0  0  0  0  0  0  0  0
    5.8236    5.3218   13.6756 C   0  0  0  0  0  0  0  0  0  0  0  0
    4.7124    4.5312   13.5378 C   0  0  0  0  0  0  0  0  0  0  0  0
    3.4540    5.0843   13.4576 C   0  0  0  0  0  0  0  0  0  0  0  0
    3.3299    6.4531   13.5186 C   0  0  0  0  0  0  0  0  0  0  0  0
    2.2348    4.2380   13.3075 C   0  0  0  0  0  0  0  0  0  0  0  0
    2.1573    3.8404   11.9103 N   0  0  0  0  0  0  0  0  0  0  0  0
    1.4348    4.3937   10.9245 C   0  0  0  0  0  0  0  0  0  0  0  0
    0.6012    5.4441   10.9511 N   0  0  0  0  0  0  0  0  0  0  0  0
   -0.0369    5.8447    9.8318 C   0  0  0  0  0  0  0  0  0  0  0  0
    0.1994    5.1518    8.7076 N   0  0  0  0  0  0  0  0  0  0  0  0
    1.0180    4.0948    8.6095 C   0  0  0  0  0  0  0  0  0  0  0  0
    1.6706    3.6845    9.7529 C   0  0  0  0  0  0  0  0  0  0  0  0
    2.5306    2.7274   10.0829 N   0  0  0  0  0  0  0  0  0  0  0  0
    2.8315    2.8133   11.3873 N   0  0  0  0  0  0  0  0  0  0  0  0
    1.2341    3.3819    7.3577 C   0  0  0  0  0  0  0  0  0  0  0  0
    1.9182    2.1836    7.2077 C   0  0  0  0  0  0  0  0  0  0  0  0
    1.9031    1.8385    5.8728 C   0  0  0  0  0  0  0  0  0  0  0  0
    1.2032    2.8493    5.2510 C   0  0  0  0  0  0  0  0  0  0  0  0
    0.8358    3.7222    6.1576 O   0  0  0  0  0  0  0  0  0  0  0  0
   -0.9107    6.9564    9.8899 N   0  0  0  0  0  0  0  0  0  0  0  0
    6.8334    7.5059   13.8777 N   0  0  0  0  0  0  0  0  0  0  0  0
  1  2  1  0
  2  3  2  0
  3  4  1  0
  4  5  2  0
  5  6  1  0
  6  7  2  0
  6  8  1  0
  8  9  1  0
  9 10  1  0
 10 11  2  0
 11 12  1  0
 12 13  2  0
 13 14  1  0
 14 15  2  0
 15 16  1  0
 16 17  2  0
 14 18  1  0
 18 19  2  0
 19 20  1  0
 20 21  2  0
 21 22  1  0
 12 23  1  0
  3 24  1  0
  7  2  1  0
 17  9  1  0
 15 10  1  0
 22 18  1  0
M  END
$$$$
