
     RDKit          3D

 24 27  0  0  0  0  0  0  0  0999 V2000
   -0.5813    0.2467    7.8311 C   0  0  0  0  0  0  0  0  0  0  0  0
    0.3485    0.7338    8.8777 C   0  0  0  0  0  0  0  0  0  0  0  0
    0.4139    0.1156   10.1038 C   0  0  0  0  0  0  0  0  0  0  0  0
    1.2807    0.5850   11.0526 C   0  0  0  0  0  0  0  0  0  0  0  0
    2.0797    1.6656   10.7827 C   0  0  0  0  0  0  0  0  0  0  0  0
    2.0284    2.2979    9.5607 C   0  0  0  0  0  0  0  0  0  0  0  0
    1.1557    1.8236    8.6086 C   0  0  0  0  0  0  0  0  0  0  0  0
    2.8910    3.4748    9.2512 C   0  0  0  0  0  0  0  0  0  0  0  0
    2.1122    4.6677    9.5463 N   0  0  0  0  0  0  0  0  0  0  0  0
    2.0040    5.3264   10.7101 C   0  0  0  0  0  0  0  0  0  0  0  0
    2.5707    5.0749   11.8995 N   0  0  0  0  0  0  0  0  0  0  0  0
    2.3274    5.8728   12.9599 C   0  0  0  0  0  0  0  0  0  0  0  0
    1.5035    6.9144   12.7700 N   0  0  0  0  0  0  0  0  0  0  0  0
    0.9043    7.2238   11.6114 C   0  0  0  0  0  0  0  0  0  0  0  0
    1.1523    6.4090   10.5269 C   0  0  0  0  0  0  0  0  0  0  0  0
    0.7801    6.3578    9.2528 N   0  0  0  0  0  0  0  0  0  0  0  0
    1.3561    5.3068    8.6504 N   0  0  0  0  0  0  0  0  0  0  0  0
    0.0180    8.3707   11.4671 C   0  0  0  0  0  0  0  0  0  0  0  0
   -0.6183    8.7696   10.2999 C   0  0  0  0  0  0  0  0  0  0  0  0
   -1.3658    9.8952   10.5750 C   0  0  0  0  0  0  0  0  0  0  0  0
   -1.1559   10.1443   11.9137 C   0  0  0  0  0  0  0  0  0  0  0  0
   -0.3442    9.2299   12.3867 O   0  0  0  0  0  0  0  0  0  0  0  0
    2.9393    5.5829   14.2028 N   0  0  0  0  0  0  0  0  0  0  0  0
   -0.4128   -0.9954   10.3706 N   0  0  0  0  0  0  0  0  0  0  0  0
  1  2  1  0
  2  3  2  0
  3  4  1  0
  4  5  2  0
  5  6  1  0
  6  7  2  0
  6  8  1  0
  8  9  1  0
  9 10  1  0
 10 11  2  0
 11 12  1  0
 12 13  2  0
 13 14  1  0
 14 15  2  0
 15 16  1  0
 16 17  2  0
 14 18  1  0
 18 19  2  0
 19 20  1  0
 20 21  2  0
 21 22  1  0
 12 23  1  0
  3 24  1  0
  7  2  1  0
 17  9  1  0
 15 10  1  0
 22 18  1  0
M  END
$$$$
