
     RDKit          3D

 24 27  0  0  0  0  0  0  0  0999 V2000
    2.7854   10.8860   11.4522 C   0  0  0  0  0  0  0  0  0  0  0  0
    2.6890    9.5989   12.1808 C   0  0  0  0  0  0  0  0  0  0  0  0
    3.6614    9.2230   13.0769 C   0  0  0  0  0  0  0  0  0  0  0  0
    3.5485    8.0295   13.7364 C   0  0  0  0  0  0  0  0  0  0  0  0
    2.4722    7.2128   13.5054 C   0  0  0  0  0  0  0  0  0  0  0  0
    1.4883    7.5721   12.6117 C   0  0  0  0  0  0  0  0  0  0  0  0
    1.6045    8.7728   11.9500 C   0  0  0  0  0  0  0  0  0  0  0  0
    0.3109    6.6948   12.3490 C   0  0  0  0  0  0  0  0  0  0  0  0
    0.6857    5.7812   11.2806 N   0  0  0  0  0  0  0  0  0  0  0  0
    1.5084    4.7230   11.3384 C   0  0  0  0  0  0  0  0  0  0  0  0
    2.1994    4.2232   12.3737 N   0  0  0  0  0  0  0  0  0  0  0  0
    2.9811    3.1346   12.2177 C   0  0  0  0  0  0  0  0  0  0  0  0
    3.0330    2.5845   10.9952 N   0  0  0  0  0  0  0  0  0  0  0  0
    2.3703    3.0308    9.9188 C   0  0  0  0  0  0  0  0  0  0  0  0
    1.5710    4.1433   10.0771 C   0  0  0  0  0  0  0  0  0  0  0  0
    0.7789    4.8804    9.3065 N   0  0  0  0  0  0  0  0  0  0  0  0
    0.2380    5.8748   10.0261 N   0  0  0  0  0  0  0  0  0  0  0  0
    2.4673    2.3891    8.6147 C   0  0  0  0  0  0  0  0  0  0  0  0
    3.2829    1.3134    8.2923 C   0  0  0  0  0  0  0  0  0  0  0  0
    3.0865    1.0017    6.9635 C   0  0  0  0  0  0  0  0  0  0  0  0
    2.1485    1.9080    6.5194 C   0  0  0  0  0  0  0  0  0  0  0  0
    1.8207    2.6928    7.5171 O   0  0  0  0  0  0  0  0  0  0  0  0
    3.6988    2.6294   13.3279 N   0  0  0  0  0  0  0  0  0  0  0  0
    4.7645   10.0711   13.3068 N   0  0  0  0  0  0  0  0  0  0  0  0
  1  2  1  0
  2  3  2  0
  3  4  1  0
  4  5  2  0
  5  6  1  0
  6  7  2  0
  6  8  1  0
  8  9  1  0
  9 10  1  0
 10 11  2  0
 11 12  1  0
 12 13  2  0
 13 14  1  0
 14 15  2  0
 15 16  1  0
 16 17  2  0
 14 18  1  0
 18 19  2  0
 19 20  1  0
 20 21  2  0
 21 22  1  0
 12 23  1  0
  3 24  1  0
  7  2  1  0
 17  9  1  0
 15 10  1  0
 22 18  1  0
M  END
$$$$
