
     RDKit          3D

 24 27  0  0  0  0  0  0  0  0999 V2000
    3.6618   -0.5609    8.1481 C   0  0  0  0  0  0  0  0  0  0  0  0
    2.4197    0.2174    7.9279 C   0  0  0  0  0  0  0  0  0  0  0  0
    1.1857   -0.3592    8.1138 C   0  0  0  0  0  0  0  0  0  0  0  0
    0.0545    0.3813    7.9038 C   0  0  0  0  0  0  0  0  0  0  0  0
    0.1505    1.6908    7.5102 C   0  0  0  0  0  0  0  0  0  0  0  0
    1.3774    2.2857    7.3188 C   0  0  0  0  0  0  0  0  0  0  0  0
    2.5131    1.5385    7.5308 C   0  0  0  0  0  0  0  0  0  0  0  0
    1.4991    3.7093    6.8906 C   0  0  0  0  0  0  0  0  0  0  0  0
    0.9784    4.5296    7.9734 N   0  0  0  0  0  0  0  0  0  0  0  0
    1.4808    4.7014    9.2055 C   0  0  0  0  0  0  0  0  0  0  0  0
    2.5785    4.1768    9.7703 N   0  0  0  0  0  0  0  0  0  0  0  0
    2.9115    4.4829   11.0414 C   0  0  0  0  0  0  0  0  0  0  0  0
    2.1036    5.3250   11.7033 N   0  0  0  0  0  0  0  0  0  0  0  0
    0.9937    5.8848   11.2016 C   0  0  0  0  0  0  0  0  0  0  0  0
    0.6524    5.5726    9.9025 C   0  0  0  0  0  0  0  0  0  0  0  0
   -0.3209    5.8918    9.0567 N   0  0  0  0  0  0  0  0  0  0  0  0
   -0.1325    5.2653    7.8857 N   0  0  0  0  0  0  0  0  0  0  0  0
    0.1553    6.7938   11.9714 C   0  0  0  0  0  0  0  0  0  0  0  0
    0.3845    7.2096   13.2757 C   0  0  0  0  0  0  0  0  0  0  0  0
   -0.6326    8.0644   13.6446 C   0  0  0  0  0  0  0  0  0  0  0  0
   -1.4535    8.1396   12.5406 C   0  0  0  0  0  0  0  0  0  0  0  0
   -0.9519    7.3830   11.5947 O   0  0  0  0  0  0  0  0  0  0  0  0
    4.0755    3.9143   11.6113 N   0  0  0  0  0  0  0  0  0  0  0  0
    1.0987   -1.7072    8.5190 N   0  0  0  0  0  0  0  0  0  0  0  0
  1  2  1  0
  2  3  2  0
  3  4  1  0
  4  5  2  0
  5  6  1  0
  6  7  2  0
  6  8  1  0
  8  9  1  0
  9 10  1  0
 10 11  2  0
 11 12  1  0
 12 13  2  0
 13 14  1  0
 14 15  2  0
 15 16  1  0
 16 17  2  0
 14 18  1  0
 18 19  2  0
 19 20  1  0
 20 21  2  0
 21 22  1  0
 12 23  1  0
  3 24  1  0
  7  2  1  0
 17  9  1  0
 15 10  1  0
 22 18  1  0
M  END
$$$$
