
     RDKit          3D

 24 27  0  0  0  0  0  0  0  0999 V2000
   -2.0923    7.3539   14.6576 C   0  0  0  0  0  0  0  0  0  0  0  0
   -0.6366    7.2768   14.3890 C   0  0  0  0  0  0  0  0  0  0  0  0
    0.2482    6.9609   15.3925 C   0  0  0  0  0  0  0  0  0  0  0  0
    1.5872    6.8963   15.1182 C   0  0  0  0  0  0  0  0  0  0  0  0
    2.0442    7.1450   13.8500 C   0  0  0  0  0  0  0  0  0  0  0  0
    1.1733    7.4629   12.8320 C   0  0  0  0  0  0  0  0  0  0  0  0
   -0.1724    7.5271   13.1109 C   0  0  0  0  0  0  0  0  0  0  0  0
    1.6545    7.7363   11.4468 C   0  0  0  0  0  0  0  0  0  0  0  0
    1.6088    6.4770   10.7197 N   0  0  0  0  0  0  0  0  0  0  0  0
    2.3587    5.3798   10.9039 C   0  0  0  0  0  0  0  0  0  0  0  0
    3.3377    5.1429   11.7896 N   0  0  0  0  0  0  0  0  0  0  0  0
    3.9756    3.9542   11.8084 C   0  0  0  0  0  0  0  0  0  0  0  0
    3.5890    3.0343   10.9117 N   0  0  0  0  0  0  0  0  0  0  0  0
    2.6206    3.2034   10.0003 C   0  0  0  0  0  0  0  0  0  0  0  0
    1.9679    4.4180    9.9802 C   0  0  0  0  0  0  0  0  0  0  0  0
    0.9929    4.9784    9.2732 N   0  0  0  0  0  0  0  0  0  0  0  0
    0.7680    6.2254    9.7134 N   0  0  0  0  0  0  0  0  0  0  0  0
    2.2451    2.1645    9.0508 C   0  0  0  0  0  0  0  0  0  0  0  0
    1.1361    2.1825    8.2164 C   0  0  0  0  0  0  0  0  0  0  0  0
    1.1327    1.0214    7.4727 C   0  0  0  0  0  0  0  0  0  0  0  0
    2.2512    0.3304    7.8849 C   0  0  0  0  0  0  0  0  0  0  0  0
    2.8640    1.0372    8.8034 O   0  0  0  0  0  0  0  0  0  0  0  0
    5.0047    3.7324   12.7543 N   0  0  0  0  0  0  0  0  0  0  0  0
   -0.2330    6.7069   16.6936 N   0  0  0  0  0  0  0  0  0  0  0  0
  1  2  1  0
  2  3  2  0
  3  4  1  0
  4  5  2  0
  5  6  1  0
  6  7  2  0
  6  8  1  0
  8  9  1  0
  9 10  1  0
 10 11  2  0
 11 12  1  0
 12 13  2  0
 13 14  1  0
 14 15  2  0
 15 16  1  0
 16 17  2  0
 14 18  1  0
 18 19  2  0
 19 20  1  0
 20 21  2  0
 21 22  1  0
 12 23  1  0
  3 24  1  0
  7  2  1  0
 17  9  1  0
 15 10  1  0
 22 18  1  0
M  END
$$$$
