
     RDKit          3D

 24 27  0  0  0  0  0  0  0  0999 V2000
    2.8204    7.3385   16.2194 C   0  0  0  0  0  0  0  0  0  0  0  0
    1.7991    7.3880   15.1463 C   0  0  0  0  0  0  0  0  0  0  0  0
    0.4702    7.1790   15.4295 C   0  0  0  0  0  0  0  0  0  0  0  0
   -0.4526    7.2301   14.4206 C   0  0  0  0  0  0  0  0  0  0  0  0
   -0.0549    7.4883   13.1345 C   0  0  0  0  0  0  0  0  0  0  0  0
    1.2713    7.7003   12.8314 C   0  0  0  0  0  0  0  0  0  0  0  0
    2.1969    7.6482   13.8479 C   0  0  0  0  0  0  0  0  0  0  0  0
    1.7205    7.9824   11.4372 C   0  0  0  0  0  0  0  0  0  0  0  0
    1.6524    6.7289   10.7019 N   0  0  0  0  0  0  0  0  0  0  0  0
    2.4264    5.6411   10.8344 C   0  0  0  0  0  0  0  0  0  0  0  0
    3.4558    5.4107   11.6629 N   0  0  0  0  0  0  0  0  0  0  0  0
    4.1103    4.2311   11.6355 C   0  0  0  0  0  0  0  0  0  0  0  0
    3.6878    3.3135   10.7527 N   0  0  0  0  0  0  0  0  0  0  0  0
    2.6685    3.4766    9.8974 C   0  0  0  0  0  0  0  0  0  0  0  0
    1.9989    4.6818    9.9246 C   0  0  0  0  0  0  0  0  0  0  0  0
    0.9788    5.2342    9.2774 N   0  0  0  0  0  0  0  0  0  0  0  0
    0.7611    6.4739    9.7409 N   0  0  0  0  0  0  0  0  0  0  0  0
    2.2559    2.4405    8.9603 C   0  0  0  0  0  0  0  0  0  0  0  0
    1.1041    2.4512    8.1858 C   0  0  0  0  0  0  0  0  0  0  0  0
    1.0754    1.2960    7.4334 C   0  0  0  0  0  0  0  0  0  0  0  0
    2.2225    0.6160    7.7800 C   0  0  0  0  0  0  0  0  0  0  0  0
    2.8745    1.3231    8.6708 O   0  0  0  0  0  0  0  0  0  0  0  0
    5.1928    4.0161   12.5213 N   0  0  0  0  0  0  0  0  0  0  0  0
    0.0723    6.9141   16.7563 N   0  0  0  0  0  0  0  0  0  0  0  0
  1  2  1  0
  2  3  2  0
  3  4  1  0
  4  5  2  0
  5  6  1  0
  6  7  2  0
  6  8  1  0
  8  9  1  0
  9 10  1  0
 10 11  2  0
 11 12  1  0
 12 13  2  0
 13 14  1  0
 14 15  2  0
 15 16  1  0
 16 17  2  0
 14 18  1  0
 18 19  2  0
 19 20  1  0
 20 21  2  0
 21 22  1  0
 12 23  1  0
  3 24  1  0
  7  2  1  0
 17  9  1  0
 15 10  1  0
 22 18  1  0
M  END
$$$$
