
     RDKit          3D

 30 34  0  0  0  0  0  0  0  0999 V2000
   -2.6594    3.9288   11.1290 C   0  0  0  0  0  0  0  0  0  0  0  0
   -2.9808    3.1445   12.3423 C   0  0  0  0  0  0  0  0  0  0  0  0
   -2.1979    2.0857   12.7307 C   0  0  0  0  0  0  0  0  0  0  0  0
   -2.5411    1.4014   13.8858 C   0  0  0  0  0  0  0  0  0  0  0  0
   -1.8340    0.4295   14.2569 O   0  0  0  0  0  0  0  0  0  0  0  0
   -3.6182    1.7772   14.5974 N   0  0  0  0  0  0  0  0  0  0  0  0
   -4.0110    1.0919   15.8053 C   0  0  0  0  0  0  0  0  0  0  0  0
   -4.1520    2.1559   16.8880 C   0  0  0  0  0  0  0  0  0  0  0  0
   -5.0247    3.3024   16.4881 C   0  0  0  0  0  0  0  0  0  0  0  0
   -5.5478    3.1389   15.0701 C   0  0  0  0  0  0  0  0  0  0  0  0
   -4.3814    2.8138   14.2100 C   0  0  0  0  0  0  0  0  0  0  0  0
   -4.0678    3.4920   13.0945 N   0  0  0  0  0  0  0  0  0  0  0  0
   -1.0299    1.6629   11.9370 C   0  0  0  0  0  0  0  0  0  0  0  0
   -1.4585    1.0505   10.6262 C   0  0  0  0  0  0  0  0  0  0  0  0
   -0.4722    0.2865    9.9551 N   0  0  0  0  0  0  0  0  0  0  0  0
   -0.7154   -1.0840    9.7441 C   0  0  0  0  0  0  0  0  0  0  0  0
    0.4128   -1.8684    9.1056 C   0  0  0  0  0  0  0  0  0  0  0  0
    1.0543   -1.0954    7.9884 C   0  0  0  0  0  0  0  0  0  0  0  0
    0.2656    0.1681    7.6897 C   0  0  0  0  0  0  0  0  0  0  0  0
    0.2789    0.9796    8.9786 C   0  0  0  0  0  0  0  0  0  0  0  0
    1.3780   -1.8814    6.7875 C   0  0  0  0  0  0  0  0  0  0  0  0
    0.9596   -1.7321    5.5195 N   0  0  0  0  0  0  0  0  0  0  0  0
    1.4651   -2.6422    4.7497 O   0  0  0  0  0  0  0  0  0  0  0  0
    2.2425   -3.4549    5.4161 C   0  0  0  0  0  0  0  0  0  0  0  0
    2.2144   -3.0044    6.7216 C   0  0  0  0  0  0  0  0  0  0  0  0
    2.9482   -3.6649    7.6675 C   0  0  0  0  0  0  0  0  0  0  0  0
    3.7125   -4.7693    7.3435 C   0  0  0  0  0  0  0  0  0  0  0  0
    3.7197   -5.1966    6.0350 C   0  0  0  0  0  0  0  0  0  0  0  0
    2.9937   -4.5591    5.0458 C   0  0  0  0  0  0  0  0  0  0  0  0
    4.4865   -6.2954    5.7519 F   0  0  0  0  0  0  0  0  0  0  0  0
  1  2  1  0
  2  3  2  0
  3  4  1  0
  4  5  2  0
  4  6  1  0
  6  7  1  0
  7  8  1  0
  8  9  1  0
  9 10  1  0
 10 11  1  0
 11 12  2  0
  3 13  1  0
 13 14  1  0
 14 15  1  0
 15 16  1  0
 16 17  1  0
 17 18  1  0
 18 19  1  0
 19 20  1  0
 18 21  1  0
 21 22  2  0
 22 23  1  0
 23 24  1  0
 24 25  2  0
 25 26  1  0
 26 27  2  0
 27 28  1  0
 28 29  2  0
 28 30  1  0
 12  2  1  0
 11  6  1  0
 20 15  1  0
 25 21  1  0
 29 24  1  0
M  END
$$$$
