
     RDKit          3D

 30 34  0  0  0  0  0  0  0  0999 V2000
   -1.4521    3.9757   12.9877 C   0  0  0  0  0  0  0  0  0  0  0  0
   -0.5323    3.5055   14.0476 C   0  0  0  0  0  0  0  0  0  0  0  0
    0.6248    2.8351   13.7368 C   0  0  0  0  0  0  0  0  0  0  0  0
    1.4534    2.4357   14.7732 C   0  0  0  0  0  0  0  0  0  0  0  0
    2.5182    1.8215   14.5063 O   0  0  0  0  0  0  0  0  0  0  0  0
    1.1177    2.7050   16.0470 N   0  0  0  0  0  0  0  0  0  0  0  0
    1.9514    2.3065   17.1557 C   0  0  0  0  0  0  0  0  0  0  0  0
    2.1950    3.5566   17.9937 C   0  0  0  0  0  0  0  0  0  0  0  0
    0.9403    4.2817   18.3625 C   0  0  0  0  0  0  0  0  0  0  0  0
   -0.2896    3.6008   17.7843 C   0  0  0  0  0  0  0  0  0  0  0  0
   -0.0180    3.3601   16.3440 C   0  0  0  0  0  0  0  0  0  0  0  0
   -0.8360    3.7573   15.3563 N   0  0  0  0  0  0  0  0  0  0  0  0
    0.9796    2.5229   12.3406 C   0  0  0  0  0  0  0  0  0  0  0  0
    0.7832    1.0559   12.0468 C   0  0  0  0  0  0  0  0  0  0  0  0
    1.3009    0.6044   10.8078 N   0  0  0  0  0  0  0  0  0  0  0  0
    2.6966    0.4816   10.6700 C   0  0  0  0  0  0  0  0  0  0  0  0
    3.1961    0.0845    9.2957 C   0  0  0  0  0  0  0  0  0  0  0  0
    2.3397   -0.9916    8.6908 C   0  0  0  0  0  0  0  0  0  0  0  0
    1.3362   -1.5110    9.7060 C   0  0  0  0  0  0  0  0  0  0  0  0
    0.4868   -0.3102   10.1014 C   0  0  0  0  0  0  0  0  0  0  0  0
    3.0739   -2.0592    7.9938 C   0  0  0  0  0  0  0  0  0  0  0  0
    4.3967   -2.2662    7.8823 N   0  0  0  0  0  0  0  0  0  0  0  0
    4.6474   -3.3180    7.1701 O   0  0  0  0  0  0  0  0  0  0  0  0
    3.5468   -3.8888    6.7557 C   0  0  0  0  0  0  0  0  0  0  0  0
    2.5185   -3.1163    7.2596 C   0  0  0  0  0  0  0  0  0  0  0  0
    1.2265   -3.4742    6.9908 C   0  0  0  0  0  0  0  0  0  0  0  0
    0.9321   -4.5877    6.2279 C   0  0  0  0  0  0  0  0  0  0  0  0
    1.9772   -5.3375    5.7375 C   0  0  0  0  0  0  0  0  0  0  0  0
    3.2986   -5.0133    5.9846 C   0  0  0  0  0  0  0  0  0  0  0  0
    1.6473   -6.4321    4.9838 F   0  0  0  0  0  0  0  0  0  0  0  0
  1  2  1  0
  2  3  2  0
  3  4  1  0
  4  5  2  0
  4  6  1  0
  6  7  1  0
  7  8  1  0
  8  9  1  0
  9 10  1  0
 10 11  1  0
 11 12  2  0
  3 13  1  0
 13 14  1  0
 14 15  1  0
 15 16  1  0
 16 17  1  0
 17 18  1  0
 18 19  1  0
 19 20  1  0
 18 21  1  0
 21 22  2  0
 22 23  1  0
 23 24  1  0
 24 25  2  0
 25 26  1  0
 26 27  2  0
 27 28  1  0
 28 29  2  0
 28 30  1  0
 12  2  1  0
 11  6  1  0
 20 15  1  0
 25 21  1  0
 29 24  1  0
M  END
$$$$
