
     RDKit          3D

 30 34  0  0  0  0  0  0  0  0999 V2000
   -3.1929    3.5643   10.5407 C   0  0  0  0  0  0  0  0  0  0  0  0
   -2.2828    3.0501   11.5886 C   0  0  0  0  0  0  0  0  0  0  0  0
   -2.1929    1.7060   11.8531 C   0  0  0  0  0  0  0  0  0  0  0  0
   -1.3095    1.2854   12.8344 C   0  0  0  0  0  0  0  0  0  0  0  0
   -1.2135    0.0572   13.0888 O   0  0  0  0  0  0  0  0  0  0  0  0
   -0.5662    2.1845   13.5030 N   0  0  0  0  0  0  0  0  0  0  0  0
    0.3650    1.7893   14.5323 C   0  0  0  0  0  0  0  0  0  0  0  0
    1.7078    2.4162   14.1742 C   0  0  0  0  0  0  0  0  0  0  0  0
    1.6289    3.8859   13.9102 C   0  0  0  0  0  0  0  0  0  0  0  0
    0.2050    4.4019   14.0410 C   0  0  0  0  0  0  0  0  0  0  0  0
   -0.6610    3.4994   13.2400 C   0  0  0  0  0  0  0  0  0  0  0  0
   -1.5097    3.9301   12.2930 N   0  0  0  0  0  0  0  0  0  0  0  0
   -3.0245    0.7247   11.1333 C   0  0  0  0  0  0  0  0  0  0  0  0
   -2.3464   -0.6222   11.0765 C   0  0  0  0  0  0  0  0  0  0  0  0
   -1.1657   -0.6815   10.2958 N   0  0  0  0  0  0  0  0  0  0  0  0
   -0.4334   -1.8838   10.2795 C   0  0  0  0  0  0  0  0  0  0  0  0
    0.8675   -1.8588    9.5031 C   0  0  0  0  0  0  0  0  0  0  0  0
    0.7172   -1.1178    8.2049 C   0  0  0  0  0  0  0  0  0  0  0  0
   -0.7404   -0.7737    7.9505 C   0  0  0  0  0  0  0  0  0  0  0  0
   -1.1699    0.1027    9.1198 C   0  0  0  0  0  0  0  0  0  0  0  0
    1.3831   -1.7376    7.0486 C   0  0  0  0  0  0  0  0  0  0  0  0
    1.0790   -1.6748    5.7414 N   0  0  0  0  0  0  0  0  0  0  0  0
    1.9073   -2.3747    5.0341 O   0  0  0  0  0  0  0  0  0  0  0  0
    2.8105   -2.9494    5.7844 C   0  0  0  0  0  0  0  0  0  0  0  0
    2.5118   -2.5684    7.0781 C   0  0  0  0  0  0  0  0  0  0  0  0
    3.2992   -3.0190    8.1011 C   0  0  0  0  0  0  0  0  0  0  0  0
    4.3818   -3.8446    7.8661 C   0  0  0  0  0  0  0  0  0  0  0  0
    4.6542   -4.2092    6.5669 C   0  0  0  0  0  0  0  0  0  0  0  0
    3.8856   -3.7770    5.5018 C   0  0  0  0  0  0  0  0  0  0  0  0
    5.7331   -5.0299    6.3727 F   0  0  0  0  0  0  0  0  0  0  0  0
  1  2  1  0
  2  3  2  0
  3  4  1  0
  4  5  2  0
  4  6  1  0
  6  7  1  0
  7  8  1  0
  8  9  1  0
  9 10  1  0
 10 11  1  0
 11 12  2  0
  3 13  1  0
 13 14  1  0
 14 15  1  0
 15 16  1  0
 16 17  1  0
 17 18  1  0
 18 19  1  0
 19 20  1  0
 18 21  1  0
 21 22  2  0
 22 23  1  0
 23 24  1  0
 24 25  2  0
 25 26  1  0
 26 27  2  0
 27 28  1  0
 28 29  2  0
 28 30  1  0
 12  2  1  0
 11  6  1  0
 20 15  1  0
 25 21  1  0
 29 24  1  0
M  END
$$$$
