
     RDKit          3D

 30 34  0  0  0  0  0  0  0  0999 V2000
   -4.3851    2.4851   10.4208 C   0  0  0  0  0  0  0  0  0  0  0  0
   -3.4190    2.7168   11.5180 C   0  0  0  0  0  0  0  0  0  0  0  0
   -2.4660    1.7804   11.8338 C   0  0  0  0  0  0  0  0  0  0  0  0
   -1.5791    2.0634   12.8601 C   0  0  0  0  0  0  0  0  0  0  0  0
   -0.6987    1.2171   13.1619 O   0  0  0  0  0  0  0  0  0  0  0  0
   -1.6634    3.2310   13.5215 N   0  0  0  0  0  0  0  0  0  0  0  0
   -0.7603    3.5652   14.5966 C   0  0  0  0  0  0  0  0  0  0  0  0
   -0.1664    4.9292   14.2635 C   0  0  0  0  0  0  0  0  0  0  0  0
   -1.1952    5.9662   13.9440 C   0  0  0  0  0  0  0  0  0  0  0  0
   -2.6027    5.3953   14.0060 C   0  0  0  0  0  0  0  0  0  0  0  0
   -2.6004    4.1425   13.2081 C   0  0  0  0  0  0  0  0  0  0  0  0
   -3.4702    3.8903   12.2169 N   0  0  0  0  0  0  0  0  0  0  0  0
   -2.3896    0.4924   11.1210 C   0  0  0  0  0  0  0  0  0  0  0  0
   -0.9667   -0.0049   11.0518 C   0  0  0  0  0  0  0  0  0  0  0  0
   -0.6400   -0.7702    9.9052 N   0  0  0  0  0  0  0  0  0  0  0  0
   -0.8016   -0.1795    8.6375 C   0  0  0  0  0  0  0  0  0  0  0  0
   -0.5258   -1.0754    7.4471 C   0  0  0  0  0  0  0  0  0  0  0  0
    0.6948   -1.9227    7.6696 C   0  0  0  0  0  0  0  0  0  0  0  0
    1.4148   -1.5014    8.9391 C   0  0  0  0  0  0  0  0  0  0  0  0
    0.4129   -1.6990   10.0692 C   0  0  0  0  0  0  0  0  0  0  0  0
    1.5865   -2.0549    6.5068 C   0  0  0  0  0  0  0  0  0  0  0  0
    1.6367   -1.3379    5.3717 N   0  0  0  0  0  0  0  0  0  0  0  0
    2.5624   -1.7782    4.5807 O   0  0  0  0  0  0  0  0  0  0  0  0
    3.1929   -2.7975    5.1026 C   0  0  0  0  0  0  0  0  0  0  0  0
    2.6004   -3.0070    6.3327 C   0  0  0  0  0  0  0  0  0  0  0  0
    3.0586   -4.0223    7.1256 C   0  0  0  0  0  0  0  0  0  0  0  0
    4.0971   -4.8388    6.7209 C   0  0  0  0  0  0  0  0  0  0  0  0
    4.6669   -4.6076    5.4893 C   0  0  0  0  0  0  0  0  0  0  0  0
    4.2363   -3.5924    4.6551 C   0  0  0  0  0  0  0  0  0  0  0  0
    5.6916   -5.4381    5.1210 F   0  0  0  0  0  0  0  0  0  0  0  0
  1  2  1  0
  2  3  2  0
  3  4  1  0
  4  5  2  0
  4  6  1  0
  6  7  1  0
  7  8  1  0
  8  9  1  0
  9 10  1  0
 10 11  1  0
 11 12  2  0
  3 13  1  0
 13 14  1  0
 14 15  1  0
 15 16  1  0
 16 17  1  0
 17 18  1  0
 18 19  1  0
 19 20  1  0
 18 21  1  0
 21 22  2  0
 22 23  1  0
 23 24  1  0
 24 25  2  0
 25 26  1  0
 26 27  2  0
 27 28  1  0
 28 29  2  0
 28 30  1  0
 12  2  1  0
 11  6  1  0
 20 15  1  0
 25 21  1  0
 29 24  1  0
M  END
$$$$
