
     RDKit          3D

 30 34  0  0  0  0  0  0  0  0999 V2000
   -4.2980    0.9664   12.7099 C   0  0  0  0  0  0  0  0  0  0  0  0
   -3.0672    1.6251   13.2018 C   0  0  0  0  0  0  0  0  0  0  0  0
   -2.1817    2.2134   12.3331 C   0  0  0  0  0  0  0  0  0  0  0  0
   -1.0561    2.8292   12.8566 C   0  0  0  0  0  0  0  0  0  0  0  0
   -0.2349    3.3743   12.0751 O   0  0  0  0  0  0  0  0  0  0  0  0
   -0.8501    2.8408   14.1852 N   0  0  0  0  0  0  0  0  0  0  0  0
    0.3088    3.4702   14.7715 C   0  0  0  0  0  0  0  0  0  0  0  0
   -0.2053    4.4306   15.8380 C   0  0  0  0  0  0  0  0  0  0  0  0
   -1.1500    3.7957   16.8077 C   0  0  0  0  0  0  0  0  0  0  0  0
   -1.3913    2.3318   16.4763 C   0  0  0  0  0  0  0  0  0  0  0  0
   -1.7205    2.2609   15.0297 C   0  0  0  0  0  0  0  0  0  0  0  0
   -2.8184    1.6588   14.5454 N   0  0  0  0  0  0  0  0  0  0  0  0
   -2.3995    2.1806   10.8757 C   0  0  0  0  0  0  0  0  0  0  0  0
   -2.2906    0.7730   10.3431 C   0  0  0  0  0  0  0  0  0  0  0  0
   -1.0275    0.4153    9.8104 N   0  0  0  0  0  0  0  0  0  0  0  0
    0.0577    0.2754   10.6963 C   0  0  0  0  0  0  0  0  0  0  0  0
    1.4014   -0.0165   10.0600 C   0  0  0  0  0  0  0  0  0  0  0  0
    1.2758   -1.0205    8.9494 C   0  0  0  0  0  0  0  0  0  0  0  0
   -0.1272   -1.6015    8.9092 C   0  0  0  0  0  0  0  0  0  0  0  0
   -1.0587   -0.4202    8.6706 C   0  0  0  0  0  0  0  0  0  0  0  0
    2.3341   -2.0415    8.9048 C   0  0  0  0  0  0  0  0  0  0  0  0
    3.1598   -2.4717    9.8735 N   0  0  0  0  0  0  0  0  0  0  0  0
    3.9675   -3.3813    9.4300 O   0  0  0  0  0  0  0  0  0  0  0  0
    3.7584   -3.6311    8.1640 C   0  0  0  0  0  0  0  0  0  0  0  0
    2.7233   -2.7965    7.7897 C   0  0  0  0  0  0  0  0  0  0  0  0
    2.2732   -2.8353    6.4992 C   0  0  0  0  0  0  0  0  0  0  0  0
    2.8321   -3.6887    5.5675 C   0  0  0  0  0  0  0  0  0  0  0  0
    3.8633   -4.5076    5.9687 C   0  0  0  0  0  0  0  0  0  0  0  0
    4.3499   -4.5023    7.2630 C   0  0  0  0  0  0  0  0  0  0  0  0
    4.3939   -5.3379    5.0177 F   0  0  0  0  0  0  0  0  0  0  0  0
  1  2  1  0
  2  3  2  0
  3  4  1  0
  4  5  2  0
  4  6  1  0
  6  7  1  0
  7  8  1  0
  8  9  1  0
  9 10  1  0
 10 11  1  0
 11 12  2  0
  3 13  1  0
 13 14  1  0
 14 15  1  0
 15 16  1  0
 16 17  1  0
 17 18  1  0
 18 19  1  0
 19 20  1  0
 18 21  1  0
 21 22  2  0
 22 23  1  0
 23 24  1  0
 24 25  2  0
 25 26  1  0
 26 27  2  0
 27 28  1  0
 28 29  2  0
 28 30  1  0
 12  2  1  0
 11  6  1  0
 20 15  1  0
 25 21  1  0
 29 24  1  0
M  END
$$$$
