
     RDKit          3D

 30 34  0  0  0  0  0  0  0  0999 V2000
   -0.0257    2.8810   12.4456 C   0  0  0  0  0  0  0  0  0  0  0  0
   -1.2993    2.6425   13.1608 C   0  0  0  0  0  0  0  0  0  0  0  0
   -2.4458    2.3178   12.4789 C   0  0  0  0  0  0  0  0  0  0  0  0
   -3.6027    2.0895   13.2067 C   0  0  0  0  0  0  0  0  0  0  0  0
   -4.6620    1.7896   12.5981 O   0  0  0  0  0  0  0  0  0  0  0  0
   -3.5866    2.1883   14.5475 N   0  0  0  0  0  0  0  0  0  0  0  0
   -4.7687    1.9593   15.3432 C   0  0  0  0  0  0  0  0  0  0  0  0
   -4.3933    0.9276   16.4009 C   0  0  0  0  0  0  0  0  0  0  0  0
   -3.1610    1.2825   17.1700 C   0  0  0  0  0  0  0  0  0  0  0  0
   -2.5590    2.5925   16.6880 C   0  0  0  0  0  0  0  0  0  0  0  0
   -2.4606    2.5087   15.2083 C   0  0  0  0  0  0  0  0  0  0  0  0
   -1.3275    2.7337   14.5243 N   0  0  0  0  0  0  0  0  0  0  0  0
   -2.4654    2.2309   11.0076 C   0  0  0  0  0  0  0  0  0  0  0  0
   -2.5085    0.7936   10.5502 C   0  0  0  0  0  0  0  0  0  0  0  0
   -1.3443    0.3243    9.8934 N   0  0  0  0  0  0  0  0  0  0  0  0
   -0.9519   -1.0120   10.0993 C   0  0  0  0  0  0  0  0  0  0  0  0
    0.3500   -1.4302    9.4466 C   0  0  0  0  0  0  0  0  0  0  0  0
    0.4682   -0.8767    8.0548 C   0  0  0  0  0  0  0  0  0  0  0  0
   -0.8331   -0.2195    7.6277 C   0  0  0  0  0  0  0  0  0  0  0  0
   -1.0805    0.9005    8.6299 C   0  0  0  0  0  0  0  0  0  0  0  0
    1.0098   -1.8087    7.0535 C   0  0  0  0  0  0  0  0  0  0  0  0
    0.7049   -1.9511    5.7528 N   0  0  0  0  0  0  0  0  0  0  0  0
    1.3988   -2.9003    5.2107 O   0  0  0  0  0  0  0  0  0  0  0  0
    2.2041   -3.4586    6.0760 C   0  0  0  0  0  0  0  0  0  0  0  0
    1.9870   -2.7911    7.2657 C   0  0  0  0  0  0  0  0  0  0  0  0
    2.7016   -3.1577    8.3722 C   0  0  0  0  0  0  0  0  0  0  0  0
    3.6312   -4.1787    8.3228 C   0  0  0  0  0  0  0  0  0  0  0  0
    3.8250   -4.8271    7.1241 C   0  0  0  0  0  0  0  0  0  0  0  0
    3.1254   -4.4895    5.9802 C   0  0  0  0  0  0  0  0  0  0  0  0
    4.7522   -5.8349    7.1139 F   0  0  0  0  0  0  0  0  0  0  0  0
  1  2  1  0
  2  3  2  0
  3  4  1  0
  4  5  2  0
  4  6  1  0
  6  7  1  0
  7  8  1  0
  8  9  1  0
  9 10  1  0
 10 11  1  0
 11 12  2  0
  3 13  1  0
 13 14  1  0
 14 15  1  0
 15 16  1  0
 16 17  1  0
 17 18  1  0
 18 19  1  0
 19 20  1  0
 18 21  1  0
 21 22  2  0
 22 23  1  0
 23 24  1  0
 24 25  2  0
 25 26  1  0
 26 27  2  0
 27 28  1  0
 28 29  2  0
 28 30  1  0
 12  2  1  0
 11  6  1  0
 20 15  1  0
 25 21  1  0
 29 24  1  0
M  END
$$$$
