
     RDKit          3D

 30 34  0  0  0  0  0  0  0  0999 V2000
    0.4914    3.1187   13.7623 C   0  0  0  0  0  0  0  0  0  0  0  0
   -0.9670    3.3615   13.6940 C   0  0  0  0  0  0  0  0  0  0  0  0
   -1.8010    2.4919   13.0359 C   0  0  0  0  0  0  0  0  0  0  0  0
   -3.1594    2.7652   13.0221 C   0  0  0  0  0  0  0  0  0  0  0  0
   -3.9381    1.9783   12.4248 O   0  0  0  0  0  0  0  0  0  0  0  0
   -3.6334    3.8600   13.6421 N   0  0  0  0  0  0  0  0  0  0  0  0
   -5.0402    4.1820   13.6514 C   0  0  0  0  0  0  0  0  0  0  0  0
   -5.4328    4.3942   15.1091 C   0  0  0  0  0  0  0  0  0  0  0  0
   -4.5487    5.3604   15.8307 C   0  0  0  0  0  0  0  0  0  0  0  0
   -3.4426    5.8862   14.9302 C   0  0  0  0  0  0  0  0  0  0  0  0
   -2.8106    4.7082   14.2829 C   0  0  0  0  0  0  0  0  0  0  0  0
   -1.4908    4.4635   14.3101 N   0  0  0  0  0  0  0  0  0  0  0  0
   -1.2759    1.3038   12.3392 C   0  0  0  0  0  0  0  0  0  0  0  0
   -1.8210    1.2142   10.9350 C   0  0  0  0  0  0  0  0  0  0  0  0
   -1.0026    0.5304   10.0024 N   0  0  0  0  0  0  0  0  0  0  0  0
    0.3867    0.4978   10.2281 C   0  0  0  0  0  0  0  0  0  0  0  0
    1.2194   -0.1666    9.1506 C   0  0  0  0  0  0  0  0  0  0  0  0
    0.5660   -1.4233    8.6494 C   0  0  0  0  0  0  0  0  0  0  0  0
   -0.6433   -1.7735    9.4993 C   0  0  0  0  0  0  0  0  0  0  0  0
   -1.5941   -0.5900    9.3755 C   0  0  0  0  0  0  0  0  0  0  0  0
    1.4761   -2.5582    8.4298 C   0  0  0  0  0  0  0  0  0  0  0  0
    2.0003   -3.4272    9.3103 N   0  0  0  0  0  0  0  0  0  0  0  0
    2.7731   -4.2823    8.7204 O   0  0  0  0  0  0  0  0  0  0  0  0
    2.8310   -4.0660    7.4324 C   0  0  0  0  0  0  0  0  0  0  0  0
    2.0170   -2.9734    7.2051 C   0  0  0  0  0  0  0  0  0  0  0  0
    1.8732   -2.5075    5.9277 C   0  0  0  0  0  0  0  0  0  0  0  0
    2.5242   -3.1056    4.8660 C   0  0  0  0  0  0  0  0  0  0  0  0
    3.3302   -4.1915    5.1229 C   0  0  0  0  0  0  0  0  0  0  0  0
    3.5044   -4.6967    6.3983 C   0  0  0  0  0  0  0  0  0  0  0  0
    3.9610   -4.7566    4.0468 F   0  0  0  0  0  0  0  0  0  0  0  0
  1  2  1  0
  2  3  2  0
  3  4  1  0
  4  5  2  0
  4  6  1  0
  6  7  1  0
  7  8  1  0
  8  9  1  0
  9 10  1  0
 10 11  1  0
 11 12  2  0
  3 13  1  0
 13 14  1  0
 14 15  1  0
 15 16  1  0
 16 17  1  0
 17 18  1  0
 18 19  1  0
 19 20  1  0
 18 21  1  0
 21 22  2  0
 22 23  1  0
 23 24  1  0
 24 25  2  0
 25 26  1  0
 26 27  2  0
 27 28  1  0
 28 29  2  0
 28 30  1  0
 12  2  1  0
 11  6  1  0
 20 15  1  0
 25 21  1  0
 29 24  1  0
M  END
$$$$
