
     RDKit          3D

 30 34  0  0  0  0  0  0  0  0999 V2000
   -3.8107    1.0422   13.0260 C   0  0  0  0  0  0  0  0  0  0  0  0
   -3.1083    2.3419   13.1163 C   0  0  0  0  0  0  0  0  0  0  0  0
   -1.7423    2.4194   13.0033 C   0  0  0  0  0  0  0  0  0  0  0  0
   -1.1449    3.6674   13.0791 C   0  0  0  0  0  0  0  0  0  0  0  0
    0.1056    3.7569   12.9763 O   0  0  0  0  0  0  0  0  0  0  0  0
   -1.8986    4.7660   13.2602 N   0  0  0  0  0  0  0  0  0  0  0  0
   -1.3170    6.0841   13.3453 C   0  0  0  0  0  0  0  0  0  0  0  0
   -2.0482    6.9535   12.3287 C   0  0  0  0  0  0  0  0  0  0  0  0
   -3.5369    6.8996   12.4583 C   0  0  0  0  0  0  0  0  0  0  0  0
   -3.9675    5.9591   13.5723 C   0  0  0  0  0  0  0  0  0  0  0  0
   -3.2356    4.6823   13.3720 C   0  0  0  0  0  0  0  0  0  0  0  0
   -3.8365    3.4837   13.3010 N   0  0  0  0  0  0  0  0  0  0  0  0
   -0.9169    1.2111   12.8261 C   0  0  0  0  0  0  0  0  0  0  0  0
   -1.3890    0.4011   11.6437 C   0  0  0  0  0  0  0  0  0  0  0  0
   -0.3770   -0.0213   10.7468 N   0  0  0  0  0  0  0  0  0  0  0  0
    0.9077   -0.2809   11.2609 C   0  0  0  0  0  0  0  0  0  0  0  0
    1.9710   -0.6386   10.2424 C   0  0  0  0  0  0  0  0  0  0  0  0
    1.4364   -1.5773    9.1982 C   0  0  0  0  0  0  0  0  0  0  0  0
    0.0423   -2.0530    9.5692 C   0  0  0  0  0  0  0  0  0  0  0  0
   -0.8164   -0.7975    9.6503 C   0  0  0  0  0  0  0  0  0  0  0  0
    2.3445   -2.6688    8.8128 C   0  0  0  0  0  0  0  0  0  0  0  0
    3.1403   -3.4389    9.5736 N   0  0  0  0  0  0  0  0  0  0  0  0
    3.8003   -4.2869    8.8513 O   0  0  0  0  0  0  0  0  0  0  0  0
    3.5118   -4.1614    7.5825 C   0  0  0  0  0  0  0  0  0  0  0  0
    2.5858   -3.1387    7.5143 C   0  0  0  0  0  0  0  0  0  0  0  0
    2.0864   -2.7760    6.2943 C   0  0  0  0  0  0  0  0  0  0  0  0
    2.4893   -3.4096    5.1345 C   0  0  0  0  0  0  0  0  0  0  0  0
    3.4147   -4.4240    5.2329 C   0  0  0  0  0  0  0  0  0  0  0  0
    3.9458   -4.8241    6.4453 C   0  0  0  0  0  0  0  0  0  0  0  0
    3.7919   -5.0269    4.0627 F   0  0  0  0  0  0  0  0  0  0  0  0
  1  2  1  0
  2  3  2  0
  3  4  1  0
  4  5  2  0
  4  6  1  0
  6  7  1  0
  7  8  1  0
  8  9  1  0
  9 10  1  0
 10 11  1  0
 11 12  2  0
  3 13  1  0
 13 14  1  0
 14 15  1  0
 15 16  1  0
 16 17  1  0
 17 18  1  0
 18 19  1  0
 19 20  1  0
 18 21  1  0
 21 22  2  0
 22 23  1  0
 23 24  1  0
 24 25  2  0
 25 26  1  0
 26 27  2  0
 27 28  1  0
 28 29  2  0
 28 30  1  0
 12  2  1  0
 11  6  1  0
 20 15  1  0
 25 21  1  0
 29 24  1  0
M  END
$$$$
