
     RDKit          3D

 30 34  0  0  0  0  0  0  0  0999 V2000
    0.2552    4.5755   12.0643 C   0  0  0  0  0  0  0  0  0  0  0  0
   -0.5229    4.1487   13.2489 C   0  0  0  0  0  0  0  0  0  0  0  0
   -0.5598    2.8323   13.6368 C   0  0  0  0  0  0  0  0  0  0  0  0
   -1.2921    2.4983   14.7648 C   0  0  0  0  0  0  0  0  0  0  0  0
   -1.3357    1.2970   15.1352 O   0  0  0  0  0  0  0  0  0  0  0  0
   -1.9458    3.4519   15.4512 N   0  0  0  0  0  0  0  0  0  0  0  0
   -2.7201    3.1472   16.6304 C   0  0  0  0  0  0  0  0  0  0  0  0
   -2.2274    4.0784   17.7323 C   0  0  0  0  0  0  0  0  0  0  0  0
   -2.2080    5.5190   17.3320 C   0  0  0  0  0  0  0  0  0  0  0  0
   -2.6679    5.7063   15.8953 C   0  0  0  0  0  0  0  0  0  0  0  0
   -1.9068    4.7386   15.0643 C   0  0  0  0  0  0  0  0  0  0  0  0
   -1.2032    5.0859   13.9748 N   0  0  0  0  0  0  0  0  0  0  0  0
    0.1405    1.7862   12.8701 C   0  0  0  0  0  0  0  0  0  0  0  0
   -0.7247    1.2652   11.7490 C   0  0  0  0  0  0  0  0  0  0  0  0
   -0.1297    0.2801   10.9227 N   0  0  0  0  0  0  0  0  0  0  0  0
   -0.8938   -0.2638    9.8727 C   0  0  0  0  0  0  0  0  0  0  0  0
   -0.2385   -1.3779    9.0822 C   0  0  0  0  0  0  0  0  0  0  0  0
    1.2078   -1.0780    8.8074 C   0  0  0  0  0  0  0  0  0  0  0  0
    1.5501    0.3404    9.2302 C   0  0  0  0  0  0  0  0  0  0  0  0
    1.2640    0.4082   10.7246 C   0  0  0  0  0  0  0  0  0  0  0  0
    1.6709   -1.4130    7.4517 C   0  0  0  0  0  0  0  0  0  0  0  0
    1.4882   -0.7607    6.2914 N   0  0  0  0  0  0  0  0  0  0  0  0
    2.0466   -1.3904    5.3076 O   0  0  0  0  0  0  0  0  0  0  0  0
    2.6339   -2.4860    5.7124 C   0  0  0  0  0  0  0  0  0  0  0  0
    2.4176   -2.5381    7.0757 C   0  0  0  0  0  0  0  0  0  0  0  0
    2.9260   -3.5883    7.7885 C   0  0  0  0  0  0  0  0  0  0  0  0
    3.6474   -4.5934    7.1736 C   0  0  0  0  0  0  0  0  0  0  0  0
    3.8456   -4.5159    5.8135 C   0  0  0  0  0  0  0  0  0  0  0  0
    3.3504   -3.4723    5.0533 C   0  0  0  0  0  0  0  0  0  0  0  0
    4.5629   -5.5308    5.2385 F   0  0  0  0  0  0  0  0  0  0  0  0
  1  2  1  0
  2  3  2  0
  3  4  1  0
  4  5  2  0
  4  6  1  0
  6  7  1  0
  7  8  1  0
  8  9  1  0
  9 10  1  0
 10 11  1  0
 11 12  2  0
  3 13  1  0
 13 14  1  0
 14 15  1  0
 15 16  1  0
 16 17  1  0
 17 18  1  0
 18 19  1  0
 19 20  1  0
 18 21  1  0
 21 22  2  0
 22 23  1  0
 23 24  1  0
 24 25  2  0
 25 26  1  0
 26 27  2  0
 27 28  1  0
 28 29  2  0
 28 30  1  0
 12  2  1  0
 11  6  1  0
 20 15  1  0
 25 21  1  0
 29 24  1  0
M  END
$$$$
