
     RDKit          3D

 30 34  0  0  0  0  0  0  0  0999 V2000
   -4.6001    2.5016   10.7496 C   0  0  0  0  0  0  0  0  0  0  0  0
   -3.5540    2.6714   11.7828 C   0  0  0  0  0  0  0  0  0  0  0  0
   -2.3443    2.0304   11.6797 C   0  0  0  0  0  0  0  0  0  0  0  0
   -1.3994    2.2436   12.6706 C   0  0  0  0  0  0  0  0  0  0  0  0
   -0.2852    1.6652   12.5913 O   0  0  0  0  0  0  0  0  0  0  0  0
   -1.6763    3.0607   13.7020 N   0  0  0  0  0  0  0  0  0  0  0  0
   -0.7212    3.3096   14.7550 C   0  0  0  0  0  0  0  0  0  0  0  0
   -0.5840    4.8232   14.8748 C   0  0  0  0  0  0  0  0  0  0  0  0
   -1.8932    5.5320   15.0152 C   0  0  0  0  0  0  0  0  0  0  0  0
   -3.0617    4.5603   14.9797 C   0  0  0  0  0  0  0  0  0  0  0  0
   -2.8637    3.6834   13.7973 C   0  0  0  0  0  0  0  0  0  0  0  0
   -3.7945    3.4925   12.8487 N   0  0  0  0  0  0  0  0  0  0  0  0
   -2.0517    1.1188   10.5590 C   0  0  0  0  0  0  0  0  0  0  0  0
   -1.1460   -0.0056   10.9975 C   0  0  0  0  0  0  0  0  0  0  0  0
   -0.0992   -0.3343   10.1013 N   0  0  0  0  0  0  0  0  0  0  0  0
    0.3614   -1.6644   10.0685 C   0  0  0  0  0  0  0  0  0  0  0  0
    1.5429   -1.9360    9.1598 C   0  0  0  0  0  0  0  0  0  0  0  0
    1.4036   -1.2153    7.8489 C   0  0  0  0  0  0  0  0  0  0  0  0
    0.0298   -0.5778    7.7318 C   0  0  0  0  0  0  0  0  0  0  0  0
   -0.0737    0.4010    8.8943 C   0  0  0  0  0  0  0  0  0  0  0  0
    1.7915   -1.9929    6.6617 C   0  0  0  0  0  0  0  0  0  0  0  0
    1.3375   -1.9248    5.3990 N   0  0  0  0  0  0  0  0  0  0  0  0
    1.9273   -2.7941    4.6421 O   0  0  0  0  0  0  0  0  0  0  0  0
    2.8009   -3.4982    5.3129 C   0  0  0  0  0  0  0  0  0  0  0  0
    2.7456   -3.0185    6.6071 C   0  0  0  0  0  0  0  0  0  0  0  0
    3.5640   -3.5686    7.5542 C   0  0  0  0  0  0  0  0  0  0  0  0
    4.4399   -4.5906    7.2426 C   0  0  0  0  0  0  0  0  0  0  0  0
    4.4719   -5.0496    5.9452 C   0  0  0  0  0  0  0  0  0  0  0  0
    3.6630   -4.5227    4.9552 C   0  0  0  0  0  0  0  0  0  0  0  0
    5.3503   -6.0646    5.6743 F   0  0  0  0  0  0  0  0  0  0  0  0
  1  2  1  0
  2  3  2  0
  3  4  1  0
  4  5  2  0
  4  6  1  0
  6  7  1  0
  7  8  1  0
  8  9  1  0
  9 10  1  0
 10 11  1  0
 11 12  2  0
  3 13  1  0
 13 14  1  0
 14 15  1  0
 15 16  1  0
 16 17  1  0
 17 18  1  0
 18 19  1  0
 19 20  1  0
 18 21  1  0
 21 22  2  0
 22 23  1  0
 23 24  1  0
 24 25  2  0
 25 26  1  0
 26 27  2  0
 27 28  1  0
 28 29  2  0
 28 30  1  0
 12  2  1  0
 11  6  1  0
 20 15  1  0
 25 21  1  0
 29 24  1  0
M  END
$$$$
