
     RDKit          3D

 30 34  0  0  0  0  0  0  0  0999 V2000
   -2.4879    2.8189   12.7997 C   0  0  0  0  0  0  0  0  0  0  0  0
   -1.4032    2.8588   13.8060 C   0  0  0  0  0  0  0  0  0  0  0  0
   -0.3576    1.9705   13.7576 C   0  0  0  0  0  0  0  0  0  0  0  0
    0.6362    2.0700   14.7182 C   0  0  0  0  0  0  0  0  0  0  0  0
    1.6023    1.2649   14.6880 O   0  0  0  0  0  0  0  0  0  0  0  0
    0.5632    3.0185   15.6684 N   0  0  0  0  0  0  0  0  0  0  0  0
    1.5760    3.1564   16.6873 C   0  0  0  0  0  0  0  0  0  0  0  0
    2.0300    4.6115   16.6613 C   0  0  0  0  0  0  0  0  0  0  0  0
    0.9023    5.5902   16.7409 C   0  0  0  0  0  0  0  0  0  0  0  0
   -0.4443    4.8877   16.8051 C   0  0  0  0  0  0  0  0  0  0  0  0
   -0.4647    3.8837   15.7107 C   0  0  0  0  0  0  0  0  0  0  0  0
   -1.4390    3.8067   14.7900 N   0  0  0  0  0  0  0  0  0  0  0  0
   -0.2911    0.9184   12.7274 C   0  0  0  0  0  0  0  0  0  0  0  0
   -0.4440    1.5034   11.3449 C   0  0  0  0  0  0  0  0  0  0  0  0
    0.2667    0.8379   10.3158 N   0  0  0  0  0  0  0  0  0  0  0  0
    1.6737    0.8403   10.3639 C   0  0  0  0  0  0  0  0  0  0  0  0
    2.3797    0.1942    9.1892 C   0  0  0  0  0  0  0  0  0  0  0  0
    1.6998   -1.0795    8.7738 C   0  0  0  0  0  0  0  0  0  0  0  0
    0.6167   -1.4576    9.7696 C   0  0  0  0  0  0  0  0  0  0  0  0
   -0.3712   -0.2984    9.7680 C   0  0  0  0  0  0  0  0  0  0  0  0
    2.6028   -2.1921    8.4400 C   0  0  0  0  0  0  0  0  0  0  0  0
    3.5168   -2.8194    9.1991 N   0  0  0  0  0  0  0  0  0  0  0  0
    4.1229   -3.7477    8.5303 O   0  0  0  0  0  0  0  0  0  0  0  0
    3.6801   -3.8198    7.3024 C   0  0  0  0  0  0  0  0  0  0  0  0
    2.7082   -2.8432    7.2031 C   0  0  0  0  0  0  0  0  0  0  0  0
    2.0515   -2.6790    6.0152 C   0  0  0  0  0  0  0  0  0  0  0  0
    2.3410   -3.4671    4.9179 C   0  0  0  0  0  0  0  0  0  0  0  0
    3.3154   -4.4310    5.0458 C   0  0  0  0  0  0  0  0  0  0  0  0
    4.0044   -4.6325    6.2277 C   0  0  0  0  0  0  0  0  0  0  0  0
    3.5769   -5.1910    3.9371 F   0  0  0  0  0  0  0  0  0  0  0  0
  1  2  1  0
  2  3  2  0
  3  4  1  0
  4  5  2  0
  4  6  1  0
  6  7  1  0
  7  8  1  0
  8  9  1  0
  9 10  1  0
 10 11  1  0
 11 12  2  0
  3 13  1  0
 13 14  1  0
 14 15  1  0
 15 16  1  0
 16 17  1  0
 17 18  1  0
 18 19  1  0
 19 20  1  0
 18 21  1  0
 21 22  2  0
 22 23  1  0
 23 24  1  0
 24 25  2  0
 25 26  1  0
 26 27  2  0
 27 28  1  0
 28 29  2  0
 28 30  1  0
 12  2  1  0
 11  6  1  0
 20 15  1  0
 25 21  1  0
 29 24  1  0
M  END
$$$$
