
     RDKit          3D

 30 34  0  0  0  0  0  0  0  0999 V2000
   -4.4032    3.6979   11.6325 C   0  0  0  0  0  0  0  0  0  0  0  0
   -3.1997    3.3638   12.4265 C   0  0  0  0  0  0  0  0  0  0  0  0
   -2.2012    2.5788   11.9054 C   0  0  0  0  0  0  0  0  0  0  0  0
   -1.0914    2.3159   12.6924 C   0  0  0  0  0  0  0  0  0  0  0  0
   -0.1665    1.5995   12.2302 O   0  0  0  0  0  0  0  0  0  0  0  0
   -1.0099    2.8241   13.9346 N   0  0  0  0  0  0  0  0  0  0  0  0
    0.1275    2.5745   14.7873 C   0  0  0  0  0  0  0  0  0  0  0  0
    0.6268    3.9341   15.2628 C   0  0  0  0  0  0  0  0  0  0  0  0
   -0.4458    4.7892   15.8579 C   0  0  0  0  0  0  0  0  0  0  0  0
   -1.7980    4.0956   15.8222 C   0  0  0  0  0  0  0  0  0  0  0  0
   -1.9924    3.5903   14.4390 C   0  0  0  0  0  0  0  0  0  0  0  0
   -3.0770    3.8589   13.6946 N   0  0  0  0  0  0  0  0  0  0  0  0
   -2.3031    2.0058   10.5511 C   0  0  0  0  0  0  0  0  0  0  0  0
   -2.0473    0.5189   10.5713 C   0  0  0  0  0  0  0  0  0  0  0  0
   -0.9732    0.0708    9.7635 N   0  0  0  0  0  0  0  0  0  0  0  0
    0.3374    0.1969   10.2618 C   0  0  0  0  0  0  0  0  0  0  0  0
    1.4495   -0.2123    9.3175 C   0  0  0  0  0  0  0  0  0  0  0  0
    1.1044   -1.4738    8.5780 C   0  0  0  0  0  0  0  0  0  0  0  0
   -0.1728   -2.0847    9.1284 C   0  0  0  0  0  0  0  0  0  0  0  0
   -1.2560   -1.0330    8.9269 C   0  0  0  0  0  0  0  0  0  0  0  0
    2.2046   -2.4410    8.4411 C   0  0  0  0  0  0  0  0  0  0  0  0
    3.1259   -2.8329    9.3372 N   0  0  0  0  0  0  0  0  0  0  0  0
    3.9390   -3.6998    8.8237 O   0  0  0  0  0  0  0  0  0  0  0  0
    3.6410   -3.9555    7.5768 C   0  0  0  0  0  0  0  0  0  0  0  0
    2.5394   -3.1720    7.2928 C   0  0  0  0  0  0  0  0  0  0  0  0
    1.9892   -3.2289    6.0424 C   0  0  0  0  0  0  0  0  0  0  0  0
    2.5125   -4.0504    5.0626 C   0  0  0  0  0  0  0  0  0  0  0  0
    3.6117   -4.8185    5.3737 C   0  0  0  0  0  0  0  0  0  0  0  0
    4.2002   -4.7933    6.6248 C   0  0  0  0  0  0  0  0  0  0  0  0
    4.1041   -5.6183    4.3772 F   0  0  0  0  0  0  0  0  0  0  0  0
  1  2  1  0
  2  3  2  0
  3  4  1  0
  4  5  2  0
  4  6  1  0
  6  7  1  0
  7  8  1  0
  8  9  1  0
  9 10  1  0
 10 11  1  0
 11 12  2  0
  3 13  1  0
 13 14  1  0
 14 15  1  0
 15 16  1  0
 16 17  1  0
 17 18  1  0
 18 19  1  0
 19 20  1  0
 18 21  1  0
 21 22  2  0
 22 23  1  0
 23 24  1  0
 24 25  2  0
 25 26  1  0
 26 27  2  0
 27 28  1  0
 28 29  2  0
 28 30  1  0
 12  2  1  0
 11  6  1  0
 20 15  1  0
 25 21  1  0
 29 24  1  0
M  END
$$$$
