
     RDKit          3D

 30 34  0  0  0  0  0  0  0  0999 V2000
    1.5126    0.6278   13.4084 C   0  0  0  0  0  0  0  0  0  0  0  0
    0.5612    1.7450   13.6017 C   0  0  0  0  0  0  0  0  0  0  0  0
   -0.7201    1.6782   13.1133 C   0  0  0  0  0  0  0  0  0  0  0  0
   -1.5689    2.7495   13.3419 C   0  0  0  0  0  0  0  0  0  0  0  0
   -2.7467    2.7045   12.9025 O   0  0  0  0  0  0  0  0  0  0  0  0
   -1.1326    3.8214   14.0263 N   0  0  0  0  0  0  0  0  0  0  0  0
   -1.9831    4.9581   14.2859 C   0  0  0  0  0  0  0  0  0  0  0  0
   -1.9318    5.2113   15.7883 C   0  0  0  0  0  0  0  0  0  0  0  0
   -0.5414    5.3135   16.3292 C   0  0  0  0  0  0  0  0  0  0  0  0
    0.4988    5.1134   15.2389 C   0  0  0  0  0  0  0  0  0  0  0  0
    0.1241    3.8807   14.4999 C   0  0  0  0  0  0  0  0  0  0  0  0
    0.9641    2.8543   14.2912 N   0  0  0  0  0  0  0  0  0  0  0  0
   -1.1889    0.5108   12.3451 C   0  0  0  0  0  0  0  0  0  0  0  0
   -1.2958    0.8366   10.8756 C   0  0  0  0  0  0  0  0  0  0  0  0
   -0.2598    0.3230   10.0571 N   0  0  0  0  0  0  0  0  0  0  0  0
   -0.1098   -1.0738    9.9643 C   0  0  0  0  0  0  0  0  0  0  0  0
    1.0710   -1.5625    9.1502 C   0  0  0  0  0  0  0  0  0  0  0  0
    1.2394   -0.7593    7.8917 C   0  0  0  0  0  0  0  0  0  0  0  0
    0.0652    0.1848    7.6980 C   0  0  0  0  0  0  0  0  0  0  0  0
    0.0604    1.0965    8.9181 C   0  0  0  0  0  0  0  0  0  0  0  0
    1.5676   -1.5403    6.6888 C   0  0  0  0  0  0  0  0  0  0  0  0
    1.0533   -1.4735    5.4494 N   0  0  0  0  0  0  0  0  0  0  0  0
    1.6036   -2.3460    4.6668 O   0  0  0  0  0  0  0  0  0  0  0  0
    2.5069   -3.0509    5.2961 C   0  0  0  0  0  0  0  0  0  0  0  0
    2.5153   -2.5684    6.5904 C   0  0  0  0  0  0  0  0  0  0  0  0
    3.3772   -3.1187    7.4981 C   0  0  0  0  0  0  0  0  0  0  0  0
    4.2345   -4.1436    7.1467 C   0  0  0  0  0  0  0  0  0  0  0  0
    4.2026   -4.6053    5.8503 C   0  0  0  0  0  0  0  0  0  0  0  0
    3.3482   -4.0783    4.8994 C   0  0  0  0  0  0  0  0  0  0  0  0
    5.0645   -5.6231    5.5394 F   0  0  0  0  0  0  0  0  0  0  0  0
  1  2  1  0
  2  3  2  0
  3  4  1  0
  4  5  2  0
  4  6  1  0
  6  7  1  0
  7  8  1  0
  8  9  1  0
  9 10  1  0
 10 11  1  0
 11 12  2  0
  3 13  1  0
 13 14  1  0
 14 15  1  0
 15 16  1  0
 16 17  1  0
 17 18  1  0
 18 19  1  0
 19 20  1  0
 18 21  1  0
 21 22  2  0
 22 23  1  0
 23 24  1  0
 24 25  2  0
 25 26  1  0
 26 27  2  0
 27 28  1  0
 28 29  2  0
 28 30  1  0
 12  2  1  0
 11  6  1  0
 20 15  1  0
 25 21  1  0
 29 24  1  0
M  END
$$$$
