
     RDKit          3D

 30 34  0  0  0  0  0  0  0  0999 V2000
    0.7298   -0.6559   12.9340 C   0  0  0  0  0  0  0  0  0  0  0  0
    0.2225    0.7333   12.9945 C   0  0  0  0  0  0  0  0  0  0  0  0
   -0.9783    1.0756   12.4238 C   0  0  0  0  0  0  0  0  0  0  0  0
   -1.4071    2.3890   12.5293 C   0  0  0  0  0  0  0  0  0  0  0  0
   -2.5056    2.7198   12.0132 O   0  0  0  0  0  0  0  0  0  0  0  0
   -0.6535    3.2945   13.1773 N   0  0  0  0  0  0  0  0  0  0  0  0
   -1.0624    4.6723   13.3096 C   0  0  0  0  0  0  0  0  0  0  0  0
   -0.9915    5.0110   14.7943 C   0  0  0  0  0  0  0  0  0  0  0  0
    0.3213    4.6682   15.4227 C   0  0  0  0  0  0  0  0  0  0  0  0
    1.2723    4.0341   14.4205 C   0  0  0  0  0  0  0  0  0  0  0  0
    0.5223    2.9526   13.7320 C   0  0  0  0  0  0  0  0  0  0  0  0
    0.9578    1.6857   13.6430 N   0  0  0  0  0  0  0  0  0  0  0  0
   -1.7922    0.0854   11.6958 C   0  0  0  0  0  0  0  0  0  0  0  0
   -1.8059    0.3784   10.2157 C   0  0  0  0  0  0  0  0  0  0  0  0
   -0.6566   -0.0358    9.4983 N   0  0  0  0  0  0  0  0  0  0  0  0
   -0.2397   -1.3753    9.6171 C   0  0  0  0  0  0  0  0  0  0  0  0
    1.0467   -1.7365    8.9024 C   0  0  0  0  0  0  0  0  0  0  0  0
    1.1135   -1.1050    7.5408 C   0  0  0  0  0  0  0  0  0  0  0  0
   -0.2094   -0.4452    7.1912 C   0  0  0  0  0  0  0  0  0  0  0  0
   -0.4405    0.6136    8.2615 C   0  0  0  0  0  0  0  0  0  0  0  0
    1.6361   -1.9716    6.4729 C   0  0  0  0  0  0  0  0  0  0  0  0
    1.2776   -2.0613    5.1812 N   0  0  0  0  0  0  0  0  0  0  0  0
    1.9733   -2.9623    4.5640 O   0  0  0  0  0  0  0  0  0  0  0  0
    2.8319   -3.5361    5.3655 C   0  0  0  0  0  0  0  0  0  0  0  0
    2.6493   -2.9326    6.5946 C   0  0  0  0  0  0  0  0  0  0  0  0
    3.4227   -3.3293    7.6500 C   0  0  0  0  0  0  0  0  0  0  0  0
    4.3777   -4.3180    7.5109 C   0  0  0  0  0  0  0  0  0  0  0  0
    4.5361   -4.9027    6.2748 C   0  0  0  0  0  0  0  0  0  0  0  0
    3.7769   -4.5328    5.1799 C   0  0  0  0  0  0  0  0  0  0  0  0
    5.4901   -5.8801    6.1754 F   0  0  0  0  0  0  0  0  0  0  0  0
  1  2  1  0
  2  3  2  0
  3  4  1  0
  4  5  2  0
  4  6  1  0
  6  7  1  0
  7  8  1  0
  8  9  1  0
  9 10  1  0
 10 11  1  0
 11 12  2  0
  3 13  1  0
 13 14  1  0
 14 15  1  0
 15 16  1  0
 16 17  1  0
 17 18  1  0
 18 19  1  0
 19 20  1  0
 18 21  1  0
 21 22  2  0
 22 23  1  0
 23 24  1  0
 24 25  2  0
 25 26  1  0
 26 27  2  0
 27 28  1  0
 28 29  2  0
 28 30  1  0
 12  2  1  0
 11  6  1  0
 20 15  1  0
 25 21  1  0
 29 24  1  0
M  END
$$$$
