
     RDKit          3D

 30 34  0  0  0  0  0  0  0  0999 V2000
   -1.7113    4.1510   12.9806 C   0  0  0  0  0  0  0  0  0  0  0  0
   -0.7227    3.5243   13.8865 C   0  0  0  0  0  0  0  0  0  0  0  0
    0.2981    2.7488   13.3952 C   0  0  0  0  0  0  0  0  0  0  0  0
    1.2020    2.2037   14.2931 C   0  0  0  0  0  0  0  0  0  0  0  0
    2.1442    1.4917   13.8600 O   0  0  0  0  0  0  0  0  0  0  0  0
    1.0682    2.4373   15.6104 N   0  0  0  0  0  0  0  0  0  0  0  0
    1.9867    1.8886   16.5791 C   0  0  0  0  0  0  0  0  0  0  0  0
    2.4811    3.0559   17.4260 C   0  0  0  0  0  0  0  0  0  0  0  0
    1.3781    3.8933   17.9901 C   0  0  0  0  0  0  0  0  0  0  0  0
    0.0126    3.3851   17.5568 C   0  0  0  0  0  0  0  0  0  0  0  0
    0.0650    3.1961   16.0844 C   0  0  0  0  0  0  0  0  0  0  0  0
   -0.8225    3.7351   15.2333 N   0  0  0  0  0  0  0  0  0  0  0  0
    0.4297    2.4772   11.9525 C   0  0  0  0  0  0  0  0  0  0  0  0
   -0.6354    1.5172   11.4825 C   0  0  0  0  0  0  0  0  0  0  0  0
   -0.1953    0.4944   10.6066 N   0  0  0  0  0  0  0  0  0  0  0  0
    0.6547    0.8454    9.5406 C   0  0  0  0  0  0  0  0  0  0  0  0
    1.0170   -0.2724    8.5840 C   0  0  0  0  0  0  0  0  0  0  0  0
    1.3134   -1.5487    9.3192 C   0  0  0  0  0  0  0  0  0  0  0  0
    1.3555   -1.3058   10.8181 C   0  0  0  0  0  0  0  0  0  0  0  0
   -0.0245   -0.7809   11.1921 C   0  0  0  0  0  0  0  0  0  0  0  0
    2.4689   -2.3080    8.8162 C   0  0  0  0  0  0  0  0  0  0  0  0
    3.5647   -2.7407    9.4620 N   0  0  0  0  0  0  0  0  0  0  0  0
    4.3644   -3.3669    8.6590 O   0  0  0  0  0  0  0  0  0  0  0  0
    3.8872   -3.4061    7.4426 C   0  0  0  0  0  0  0  0  0  0  0  0
    2.6779   -2.7409    7.4994 C   0  0  0  0  0  0  0  0  0  0  0  0
    1.9321   -2.6213    6.3596 C   0  0  0  0  0  0  0  0  0  0  0  0
    2.3639   -3.1499    5.1584 C   0  0  0  0  0  0  0  0  0  0  0  0
    3.5739   -3.8058    5.1315 C   0  0  0  0  0  0  0  0  0  0  0  0
    4.3605   -3.9510    6.2595 C   0  0  0  0  0  0  0  0  0  0  0  0
    3.9703   -4.3142    3.9234 F   0  0  0  0  0  0  0  0  0  0  0  0
  1  2  1  0
  2  3  2  0
  3  4  1  0
  4  5  2  0
  4  6  1  0
  6  7  1  0
  7  8  1  0
  8  9  1  0
  9 10  1  0
 10 11  1  0
 11 12  2  0
  3 13  1  0
 13 14  1  0
 14 15  1  0
 15 16  1  0
 16 17  1  0
 17 18  1  0
 18 19  1  0
 19 20  1  0
 18 21  1  0
 21 22  2  0
 22 23  1  0
 23 24  1  0
 24 25  2  0
 25 26  1  0
 26 27  2  0
 27 28  1  0
 28 29  2  0
 28 30  1  0
 12  2  1  0
 11  6  1  0
 20 15  1  0
 25 21  1  0
 29 24  1  0
M  END
$$$$
