
     RDKit          3D

 30 34  0  0  0  0  0  0  0  0999 V2000
   -3.0392    3.7470   11.3990 C   0  0  0  0  0  0  0  0  0  0  0  0
   -2.2725    3.4310   12.6250 C   0  0  0  0  0  0  0  0  0  0  0  0
   -1.1114    2.7007   12.5671 C   0  0  0  0  0  0  0  0  0  0  0  0
   -0.4299    2.4525   13.7478 C   0  0  0  0  0  0  0  0  0  0  0  0
    0.6364    1.7861   13.7130 O   0  0  0  0  0  0  0  0  0  0  0  0
   -0.9076    2.9217   14.9137 N   0  0  0  0  0  0  0  0  0  0  0  0
   -0.2297    2.6857   16.1658 C   0  0  0  0  0  0  0  0  0  0  0  0
   -0.0443    4.0461   16.8283 C   0  0  0  0  0  0  0  0  0  0  0  0
   -1.3071    4.8413   16.9225 C   0  0  0  0  0  0  0  0  0  0  0  0
   -2.4818    4.1003   16.3045 C   0  0  0  0  0  0  0  0  0  0  0  0
   -2.0463    3.6345   14.9630 C   0  0  0  0  0  0  0  0  0  0  0  0
   -2.7234    3.8879   13.8317 N   0  0  0  0  0  0  0  0  0  0  0  0
   -0.6014    2.1696   11.2902 C   0  0  0  0  0  0  0  0  0  0  0  0
   -1.4480    1.0185   10.8053 C   0  0  0  0  0  0  0  0  0  0  0  0
   -0.7739    0.0491   10.0224 N   0  0  0  0  0  0  0  0  0  0  0  0
    0.0263    0.4915    8.9519 C   0  0  0  0  0  0  0  0  0  0  0  0
    0.6469   -0.5925    8.0942 C   0  0  0  0  0  0  0  0  0  0  0  0
    1.1705   -1.7233    8.9335 C   0  0  0  0  0  0  0  0  0  0  0  0
    1.1041   -1.3699   10.4094 C   0  0  0  0  0  0  0  0  0  0  0  0
   -0.3676   -1.1174   10.7096 C   0  0  0  0  0  0  0  0  0  0  0  0
    2.4758   -2.2601    8.5179 C   0  0  0  0  0  0  0  0  0  0  0  0
    3.6605   -2.2355    9.1512 N   0  0  0  0  0  0  0  0  0  0  0  0
    4.5812   -2.8086    8.4439 O   0  0  0  0  0  0  0  0  0  0  0  0
    4.1063   -3.2531    7.3099 C   0  0  0  0  0  0  0  0  0  0  0  0
    2.7650   -2.9232    7.3172 C   0  0  0  0  0  0  0  0  0  0  0  0
    1.9908   -3.2689    6.2446 C   0  0  0  0  0  0  0  0  0  0  0  0
    2.5226   -3.9377    5.1589 C   0  0  0  0  0  0  0  0  0  0  0  0
    3.8627   -4.2518    5.1787 C   0  0  0  0  0  0  0  0  0  0  0  0
    4.6830   -3.9224    6.2421 C   0  0  0  0  0  0  0  0  0  0  0  0
    4.3550   -4.9124    4.0848 F   0  0  0  0  0  0  0  0  0  0  0  0
  1  2  1  0
  2  3  2  0
  3  4  1  0
  4  5  2  0
  4  6  1  0
  6  7  1  0
  7  8  1  0
  8  9  1  0
  9 10  1  0
 10 11  1  0
 11 12  2  0
  3 13  1  0
 13 14  1  0
 14 15  1  0
 15 16  1  0
 16 17  1  0
 17 18  1  0
 18 19  1  0
 19 20  1  0
 18 21  1  0
 21 22  2  0
 22 23  1  0
 23 24  1  0
 24 25  2  0
 25 26  1  0
 26 27  2  0
 27 28  1  0
 28 29  2  0
 28 30  1  0
 12  2  1  0
 11  6  1  0
 20 15  1  0
 25 21  1  0
 29 24  1  0
M  END
$$$$
