
     RDKit          3D

 30 34  0  0  0  0  0  0  0  0999 V2000
   -3.8724    3.4721   10.8069 C   0  0  0  0  0  0  0  0  0  0  0  0
   -2.8824    3.1913   11.8707 C   0  0  0  0  0  0  0  0  0  0  0  0
   -1.7298    2.4957   11.6016 C   0  0  0  0  0  0  0  0  0  0  0  0
   -0.8339    2.2798   12.6364 C   0  0  0  0  0  0  0  0  0  0  0  0
    0.2279    1.6454   12.4072 O   0  0  0  0  0  0  0  0  0  0  0  0
   -1.1020    2.7458   13.8688 N   0  0  0  0  0  0  0  0  0  0  0  0
   -0.1968    2.5425   14.9744 C   0  0  0  0  0  0  0  0  0  0  0  0
    0.0653    3.9143   15.5855 C   0  0  0  0  0  0  0  0  0  0  0  0
   -1.1827    4.6720   15.9090 C   0  0  0  0  0  0  0  0  0  0  0  0
   -2.4276    3.8899   15.5225 C   0  0  0  0  0  0  0  0  0  0  0  0
   -2.2337    3.4244   14.1254 C   0  0  0  0  0  0  0  0  0  0  0  0
   -3.1162    3.6462   13.1382 N   0  0  0  0  0  0  0  0  0  0  0  0
   -1.4486    1.9678   10.2544 C   0  0  0  0  0  0  0  0  0  0  0  0
   -1.8738    0.5247   10.1383 C   0  0  0  0  0  0  0  0  0  0  0  0
   -1.0145   -0.3083    9.3802 N   0  0  0  0  0  0  0  0  0  0  0  0
   -0.1593    0.2931    8.4373 C   0  0  0  0  0  0  0  0  0  0  0  0
    0.6682   -0.6537    7.5919 C   0  0  0  0  0  0  0  0  0  0  0  0
    1.2231   -1.7813    8.4152 C   0  0  0  0  0  0  0  0  0  0  0  0
    0.9594   -1.5458    9.8925 C   0  0  0  0  0  0  0  0  0  0  0  0
   -0.5551   -1.4726   10.0370 C   0  0  0  0  0  0  0  0  0  0  0  0
    2.6176   -2.1457    8.1199 C   0  0  0  0  0  0  0  0  0  0  0  0
    3.7600   -1.7101    8.6770 N   0  0  0  0  0  0  0  0  0  0  0  0
    4.7912   -2.2667    8.1262 O   0  0  0  0  0  0  0  0  0  0  0  0
    4.4385   -3.0982    7.1811 C   0  0  0  0  0  0  0  0  0  0  0  0
    3.0584   -3.0506    7.1443 C   0  0  0  0  0  0  0  0  0  0  0  0
    2.3914   -3.8310    6.2412 C   0  0  0  0  0  0  0  0  0  0  0  0
    3.0686   -4.6611    5.3688 C   0  0  0  0  0  0  0  0  0  0  0  0
    4.4437   -4.6863    5.4270 C   0  0  0  0  0  0  0  0  0  0  0  0
    5.1593   -3.9149    6.3242 C   0  0  0  0  0  0  0  0  0  0  0  0
    5.0807   -5.5188    4.5458 F   0  0  0  0  0  0  0  0  0  0  0  0
  1  2  1  0
  2  3  2  0
  3  4  1  0
  4  5  2  0
  4  6  1  0
  6  7  1  0
  7  8  1  0
  8  9  1  0
  9 10  1  0
 10 11  1  0
 11 12  2  0
  3 13  1  0
 13 14  1  0
 14 15  1  0
 15 16  1  0
 16 17  1  0
 17 18  1  0
 18 19  1  0
 19 20  1  0
 18 21  1  0
 21 22  2  0
 22 23  1  0
 23 24  1  0
 24 25  2  0
 25 26  1  0
 26 27  2  0
 27 28  1  0
 28 29  2  0
 28 30  1  0
 12  2  1  0
 11  6  1  0
 20 15  1  0
 25 21  1  0
 29 24  1  0
M  END
$$$$
