
     RDKit          3D

 30 34  0  0  0  0  0  0  0  0999 V2000
    0.3466    3.3358   13.5165 C   0  0  0  0  0  0  0  0  0  0  0  0
   -1.1222    3.5050   13.5833 C   0  0  0  0  0  0  0  0  0  0  0  0
   -1.9282    3.1269   12.5381 C   0  0  0  0  0  0  0  0  0  0  0  0
   -3.2975    3.2949   12.6680 C   0  0  0  0  0  0  0  0  0  0  0  0
   -4.0508    2.9525   11.7206 O   0  0  0  0  0  0  0  0  0  0  0  0
   -3.8087    3.8178   13.7963 N   0  0  0  0  0  0  0  0  0  0  0  0
   -5.2282    4.0103   13.9724 C   0  0  0  0  0  0  0  0  0  0  0  0
   -5.6033    3.3357   15.2871 C   0  0  0  0  0  0  0  0  0  0  0  0
   -4.7504    3.7594   16.4400 C   0  0  0  0  0  0  0  0  0  0  0  0
   -3.6856    4.7560   16.0112 C   0  0  0  0  0  0  0  0  0  0  0  0
   -3.0133    4.1878   14.8148 C   0  0  0  0  0  0  0  0  0  0  0  0
   -1.6835    4.0338   14.7118 N   0  0  0  0  0  0  0  0  0  0  0  0
   -1.3631    2.5735   11.2943 C   0  0  0  0  0  0  0  0  0  0  0  0
   -1.3386    1.0653   11.3343 C   0  0  0  0  0  0  0  0  0  0  0  0
   -0.3560    0.4466   10.5227 N   0  0  0  0  0  0  0  0  0  0  0  0
   -0.2517   -0.9572   10.5501 C   0  0  0  0  0  0  0  0  0  0  0  0
    0.8764   -1.5556    9.7346 C   0  0  0  0  0  0  0  0  0  0  0  0
    1.0119   -0.8735    8.4028 C   0  0  0  0  0  0  0  0  0  0  0  0
   -0.1413    0.0885    8.1741 C   0  0  0  0  0  0  0  0  0  0  0  0
   -0.0644    1.1046    9.3061 C   0  0  0  0  0  0  0  0  0  0  0  0
    1.2626   -1.7689    7.2626 C   0  0  0  0  0  0  0  0  0  0  0  0
    0.6768   -1.8125    6.0542 N   0  0  0  0  0  0  0  0  0  0  0  0
    1.1732   -2.7622    5.3275 O   0  0  0  0  0  0  0  0  0  0  0  0
    2.1063   -3.4167    5.9677 C   0  0  0  0  0  0  0  0  0  0  0  0
    2.1947   -2.8144    7.2076 C   0  0  0  0  0  0  0  0  0  0  0  0
    3.1040   -3.2882    8.1122 C   0  0  0  0  0  0  0  0  0  0  0  0
    3.9310   -4.3531    7.8108 C   0  0  0  0  0  0  0  0  0  0  0  0
    3.8193   -4.9346    6.5681 C   0  0  0  0  0  0  0  0  0  0  0  0
    2.9147   -4.4882    5.6224 C   0  0  0  0  0  0  0  0  0  0  0  0
    4.6533   -5.9887    6.3060 F   0  0  0  0  0  0  0  0  0  0  0  0
  1  2  1  0
  2  3  2  0
  3  4  1  0
  4  5  2  0
  4  6  1  0
  6  7  1  0
  7  8  1  0
  8  9  1  0
  9 10  1  0
 10 11  1  0
 11 12  2  0
  3 13  1  0
 13 14  1  0
 14 15  1  0
 15 16  1  0
 16 17  1  0
 17 18  1  0
 18 19  1  0
 19 20  1  0
 18 21  1  0
 21 22  2  0
 22 23  1  0
 23 24  1  0
 24 25  2  0
 25 26  1  0
 26 27  2  0
 27 28  1  0
 28 29  2  0
 28 30  1  0
 12  2  1  0
 11  6  1  0
 20 15  1  0
 25 21  1  0
 29 24  1  0
M  END
$$$$
