
     RDKit          3D

 30 34  0  0  0  0  0  0  0  0999 V2000
   -4.2802    1.7798   11.6470 C   0  0  0  0  0  0  0  0  0  0  0  0
   -3.1487    2.2750   12.4626 C   0  0  0  0  0  0  0  0  0  0  0  0
   -1.8793    1.7821   12.2883 C   0  0  0  0  0  0  0  0  0  0  0  0
   -0.8589    2.2986   13.0707 C   0  0  0  0  0  0  0  0  0  0  0  0
    0.3105    1.8593   12.9233 O   0  0  0  0  0  0  0  0  0  0  0  0
   -1.1222    3.2584   13.9748 N   0  0  0  0  0  0  0  0  0  0  0  0
   -0.0894    3.8231   14.8099 C   0  0  0  0  0  0  0  0  0  0  0  0
   -0.1679    5.3364   14.6430 C   0  0  0  0  0  0  0  0  0  0  0  0
   -1.5403    5.8901   14.8571 C   0  0  0  0  0  0  0  0  0  0  0  0
   -2.5438    4.7919   15.1700 C   0  0  0  0  0  0  0  0  0  0  0  0
   -2.3680    3.7349   14.1413 C   0  0  0  0  0  0  0  0  0  0  0  0
   -3.3725    3.2499   13.3941 N   0  0  0  0  0  0  0  0  0  0  0  0
   -1.5977    0.7150   11.3112 C   0  0  0  0  0  0  0  0  0  0  0  0
   -1.2196    1.2942    9.9702 C   0  0  0  0  0  0  0  0  0  0  0  0
   -0.1637    0.6351    9.2936 N   0  0  0  0  0  0  0  0  0  0  0  0
    0.0566   -0.7288    9.5639 C   0  0  0  0  0  0  0  0  0  0  0  0
    1.2558   -1.3559    8.8823 C   0  0  0  0  0  0  0  0  0  0  0  0
    1.3755   -0.9011    7.4554 C   0  0  0  0  0  0  0  0  0  0  0  0
    0.1536   -0.0970    7.0456 C   0  0  0  0  0  0  0  0  0  0  0  0
    0.1097    1.0997    7.9868 C   0  0  0  0  0  0  0  0  0  0  0  0
    1.7358   -1.9519    6.4907 C   0  0  0  0  0  0  0  0  0  0  0  0
    1.2527   -2.1973    5.2613 N   0  0  0  0  0  0  0  0  0  0  0  0
    1.8247   -3.2311    4.7315 O   0  0  0  0  0  0  0  0  0  0  0  0
    2.7135   -3.7513    5.5367 C   0  0  0  0  0  0  0  0  0  0  0  0
    2.6882   -2.9643    6.6717 C   0  0  0  0  0  0  0  0  0  0  0  0
    3.5282   -3.2663    7.7074 C   0  0  0  0  0  0  0  0  0  0  0  0
    4.3966   -4.3388    7.6404 C   0  0  0  0  0  0  0  0  0  0  0  0
    4.3985   -5.1063    6.4976 C   0  0  0  0  0  0  0  0  0  0  0  0
    3.5670   -4.8375    5.4260 C   0  0  0  0  0  0  0  0  0  0  0  0
    5.2704   -6.1619    6.4682 F   0  0  0  0  0  0  0  0  0  0  0  0
  1  2  1  0
  2  3  2  0
  3  4  1  0
  4  5  2  0
  4  6  1  0
  6  7  1  0
  7  8  1  0
  8  9  1  0
  9 10  1  0
 10 11  1  0
 11 12  2  0
  3 13  1  0
 13 14  1  0
 14 15  1  0
 15 16  1  0
 16 17  1  0
 17 18  1  0
 18 19  1  0
 19 20  1  0
 18 21  1  0
 21 22  2  0
 22 23  1  0
 23 24  1  0
 24 25  2  0
 25 26  1  0
 26 27  2  0
 27 28  1  0
 28 29  2  0
 28 30  1  0
 12  2  1  0
 11  6  1  0
 20 15  1  0
 25 21  1  0
 29 24  1  0
M  END
$$$$
