
     RDKit          3D

 30 34  0  0  0  0  0  0  0  0999 V2000
   -3.8628    0.9816   11.4130 C   0  0  0  0  0  0  0  0  0  0  0  0
   -3.2389    1.9437   12.3489 C   0  0  0  0  0  0  0  0  0  0  0  0
   -1.9710    1.7404   12.8346 C   0  0  0  0  0  0  0  0  0  0  0  0
   -1.4353    2.6863   13.6940 C   0  0  0  0  0  0  0  0  0  0  0  0
   -0.2744    2.5166   14.1475 O   0  0  0  0  0  0  0  0  0  0  0  0
   -2.1531    3.7709   14.0350 N   0  0  0  0  0  0  0  0  0  0  0  0
   -1.6336    4.7794   14.9272 C   0  0  0  0  0  0  0  0  0  0  0  0
   -1.7903    6.1185   14.2156 C   0  0  0  0  0  0  0  0  0  0  0  0
   -3.1741    6.3648   13.7051 C   0  0  0  0  0  0  0  0  0  0  0  0
   -4.0964    5.1935   14.0024 C   0  0  0  0  0  0  0  0  0  0  0  0
   -3.3949    3.9623   13.5571 C   0  0  0  0  0  0  0  0  0  0  0  0
   -3.9342    3.0595   12.7224 N   0  0  0  0  0  0  0  0  0  0  0  0
   -1.1947    0.5399   12.4756 C   0  0  0  0  0  0  0  0  0  0  0  0
   -0.2297    0.8341   11.3535 C   0  0  0  0  0  0  0  0  0  0  0  0
   -0.1155   -0.1729   10.3636 N   0  0  0  0  0  0  0  0  0  0  0  0
   -0.6998    0.0574    9.1035 C   0  0  0  0  0  0  0  0  0  0  0  0
   -0.6265   -1.0907    8.1174 C   0  0  0  0  0  0  0  0  0  0  0  0
    0.7205   -1.7555    8.1490 C   0  0  0  0  0  0  0  0  0  0  0  0
    1.6862   -0.9675    9.0173 C   0  0  0  0  0  0  0  0  0  0  0  0
    1.0682   -0.9442   10.4092 C   0  0  0  0  0  0  0  0  0  0  0  0
    1.2739   -2.1133    6.8336 C   0  0  0  0  0  0  0  0  0  0  0  0
    0.9907   -1.6222    5.6155 N   0  0  0  0  0  0  0  0  0  0  0  0
    1.6882   -2.2134    4.6988 O   0  0  0  0  0  0  0  0  0  0  0  0
    2.4750   -3.1243    5.2090 C   0  0  0  0  0  0  0  0  0  0  0  0
    2.2414   -3.0929    6.5701 C   0  0  0  0  0  0  0  0  0  0  0  0
    2.9345   -3.9470    7.3822 C   0  0  0  0  0  0  0  0  0  0  0  0
    3.8586   -4.8367    6.8693 C   0  0  0  0  0  0  0  0  0  0  0  0
    4.0693   -4.8468    5.5090 C   0  0  0  0  0  0  0  0  0  0  0  0
    3.3917   -4.0008    4.6503 C   0  0  0  0  0  0  0  0  0  0  0  0
    4.9905   -5.7433    5.0367 F   0  0  0  0  0  0  0  0  0  0  0  0
  1  2  1  0
  2  3  2  0
  3  4  1  0
  4  5  2  0
  4  6  1  0
  6  7  1  0
  7  8  1  0
  8  9  1  0
  9 10  1  0
 10 11  1  0
 11 12  2  0
  3 13  1  0
 13 14  1  0
 14 15  1  0
 15 16  1  0
 16 17  1  0
 17 18  1  0
 18 19  1  0
 19 20  1  0
 18 21  1  0
 21 22  2  0
 22 23  1  0
 23 24  1  0
 24 25  2  0
 25 26  1  0
 26 27  2  0
 27 28  1  0
 28 29  2  0
 28 30  1  0
 12  2  1  0
 11  6  1  0
 20 15  1  0
 25 21  1  0
 29 24  1  0
M  END
$$$$
