
     RDKit          3D

 30 34  0  0  0  0  0  0  0  0999 V2000
   -2.3345    3.6683   11.1495 C   0  0  0  0  0  0  0  0  0  0  0  0
   -2.6235    2.2167   11.1562 C   0  0  0  0  0  0  0  0  0  0  0  0
   -1.6250    1.2937   10.9668 C   0  0  0  0  0  0  0  0  0  0  0  0
   -1.9563   -0.0514   11.0013 C   0  0  0  0  0  0  0  0  0  0  0  0
   -1.0536   -0.9108   10.8309 O   0  0  0  0  0  0  0  0  0  0  0  0
   -3.2294   -0.4272   11.2152 N   0  0  0  0  0  0  0  0  0  0  0  0
   -3.6173   -1.8166   11.2580 C   0  0  0  0  0  0  0  0  0  0  0  0
   -4.3761   -2.0208   12.5644 C   0  0  0  0  0  0  0  0  0  0  0  0
   -5.4846   -1.0386   12.7706 C   0  0  0  0  0  0  0  0  0  0  0  0
   -5.5723   -0.0454   11.6231 C   0  0  0  0  0  0  0  0  0  0  0  0
   -4.2023    0.4824   11.3978 C   0  0  0  0  0  0  0  0  0  0  0  0
   -3.9048    1.7913   11.3692 N   0  0  0  0  0  0  0  0  0  0  0  0
   -0.2340    1.7090   10.7115 C   0  0  0  0  0  0  0  0  0  0  0  0
   -0.0662    2.1987    9.2941 C   0  0  0  0  0  0  0  0  0  0  0  0
    0.6408    1.3310    8.4256 N   0  0  0  0  0  0  0  0  0  0  0  0
    1.4188    0.3038    8.9928 C   0  0  0  0  0  0  0  0  0  0  0  0
    2.2251   -0.5330    8.0204 C   0  0  0  0  0  0  0  0  0  0  0  0
    1.4294   -0.8617    6.7890 C   0  0  0  0  0  0  0  0  0  0  0  0
   -0.0170   -0.4279    6.9547 C   0  0  0  0  0  0  0  0  0  0  0  0
    0.0247    1.0781    7.1788 C   0  0  0  0  0  0  0  0  0  0  0  0
    1.5747   -2.2411    6.2985 C   0  0  0  0  0  0  0  0  0  0  0  0
    0.9116   -2.8848    5.3233 N   0  0  0  0  0  0  0  0  0  0  0  0
    1.3266   -4.1052    5.2020 O   0  0  0  0  0  0  0  0  0  0  0  0
    2.2751   -4.3757    6.0599 C   0  0  0  0  0  0  0  0  0  0  0  0
    2.4640   -3.2120    6.7798 C   0  0  0  0  0  0  0  0  0  0  0  0
    3.4121   -3.1875    7.7646 C   0  0  0  0  0  0  0  0  0  0  0  0
    4.1800   -4.2994    8.0521 C   0  0  0  0  0  0  0  0  0  0  0  0
    3.9684   -5.4455    7.3196 C   0  0  0  0  0  0  0  0  0  0  0  0
    3.0214   -5.5155    6.3146 C   0  0  0  0  0  0  0  0  0  0  0  0
    4.7462   -6.5279    7.6342 F   0  0  0  0  0  0  0  0  0  0  0  0
  1  2  1  0
  2  3  2  0
  3  4  1  0
  4  5  2  0
  4  6  1  0
  6  7  1  0
  7  8  1  0
  8  9  1  0
  9 10  1  0
 10 11  1  0
 11 12  2  0
  3 13  1  0
 13 14  1  0
 14 15  1  0
 15 16  1  0
 16 17  1  0
 17 18  1  0
 18 19  1  0
 19 20  1  0
 18 21  1  0
 21 22  2  0
 22 23  1  0
 23 24  1  0
 24 25  2  0
 25 26  1  0
 26 27  2  0
 27 28  1  0
 28 29  2  0
 28 30  1  0
 12  2  1  0
 11  6  1  0
 20 15  1  0
 25 21  1  0
 29 24  1  0
M  END
$$$$
