
     RDKit          3D

 30 34  0  0  0  0  0  0  0  0999 V2000
    1.0182    0.2224   12.5247 C   0  0  0  0  0  0  0  0  0  0  0  0
    0.3221    1.4319   13.0180 C   0  0  0  0  0  0  0  0  0  0  0  0
   -1.0170    1.6245   12.7849 C   0  0  0  0  0  0  0  0  0  0  0  0
   -1.6152    2.7690   13.2875 C   0  0  0  0  0  0  0  0  0  0  0  0
   -2.8417    2.9607   13.0844 O   0  0  0  0  0  0  0  0  0  0  0  0
   -0.8878    3.6599   13.9839 N   0  0  0  0  0  0  0  0  0  0  0  0
   -1.4710    4.8645   14.5240 C   0  0  0  0  0  0  0  0  0  0  0  0
   -1.1142    4.8992   16.0058 C   0  0  0  0  0  0  0  0  0  0  0  0
    0.3460    4.7178   16.2725 C   0  0  0  0  0  0  0  0  0  0  0  0
    1.1287    4.5159   14.9851 C   0  0  0  0  0  0  0  0  0  0  0  0
    0.4236    3.4657   14.2065 C   0  0  0  0  0  0  0  0  0  0  0  0
    1.0245    2.3638   13.7296 N   0  0  0  0  0  0  0  0  0  0  0  0
   -1.8071    0.6564   12.0031 C   0  0  0  0  0  0  0  0  0  0  0  0
   -1.7406    0.9681   10.5282 C   0  0  0  0  0  0  0  0  0  0  0  0
   -0.6686    0.3679    9.8228 N   0  0  0  0  0  0  0  0  0  0  0  0
   -0.6329   -1.0362    9.7268 C   0  0  0  0  0  0  0  0  0  0  0  0
    0.5841   -1.6246    9.0422 C   0  0  0  0  0  0  0  0  0  0  0  0
    0.9629   -0.8337    7.8222 C   0  0  0  0  0  0  0  0  0  0  0  0
   -0.0943    0.2123    7.5128 C   0  0  0  0  0  0  0  0  0  0  0  0
   -0.1557    1.1151    8.7380 C   0  0  0  0  0  0  0  0  0  0  0  0
    1.3538   -1.6353    6.6521 C   0  0  0  0  0  0  0  0  0  0  0  0
    0.9244   -1.5728    5.3805 N   0  0  0  0  0  0  0  0  0  0  0  0
    1.5072   -2.4652    4.6454 O   0  0  0  0  0  0  0  0  0  0  0  0
    2.3519   -3.1807    5.3408 C   0  0  0  0  0  0  0  0  0  0  0  0
    2.2845   -2.6833    6.6277 C   0  0  0  0  0  0  0  0  0  0  0  0
    3.0725   -3.2401    7.5964 C   0  0  0  0  0  0  0  0  0  0  0  0
    3.9298   -4.2860    7.3136 C   0  0  0  0  0  0  0  0  0  0  0  0
    3.9745   -4.7622    6.0228 C   0  0  0  0  0  0  0  0  0  0  0  0
    3.1962   -4.2294    5.0117 C   0  0  0  0  0  0  0  0  0  0  0  0
    4.8337   -5.8006    5.7806 F   0  0  0  0  0  0  0  0  0  0  0  0
  1  2  1  0
  2  3  2  0
  3  4  1  0
  4  5  2  0
  4  6  1  0
  6  7  1  0
  7  8  1  0
  8  9  1  0
  9 10  1  0
 10 11  1  0
 11 12  2  0
  3 13  1  0
 13 14  1  0
 14 15  1  0
 15 16  1  0
 16 17  1  0
 17 18  1  0
 18 19  1  0
 19 20  1  0
 18 21  1  0
 21 22  2  0
 22 23  1  0
 23 24  1  0
 24 25  2  0
 25 26  1  0
 26 27  2  0
 27 28  1  0
 28 29  2  0
 28 30  1  0
 12  2  1  0
 11  6  1  0
 20 15  1  0
 25 21  1  0
 29 24  1  0
M  END
$$$$
