
     RDKit          3D

 30 34  0  0  0  0  0  0  0  0999 V2000
   -3.2941    3.3521   11.7311 C   0  0  0  0  0  0  0  0  0  0  0  0
   -2.1692    2.8930   12.5763 C   0  0  0  0  0  0  0  0  0  0  0  0
   -1.6157    1.6483   12.4059 C   0  0  0  0  0  0  0  0  0  0  0  0
   -0.5531    1.2833   13.2171 C   0  0  0  0  0  0  0  0  0  0  0  0
   -0.0331    0.1469   13.0736 O   0  0  0  0  0  0  0  0  0  0  0  0
   -0.0877    2.1384   14.1444 N   0  0  0  0  0  0  0  0  0  0  0  0
    1.0160    1.7981   15.0098 C   0  0  0  0  0  0  0  0  0  0  0  0
    2.0356    2.9246   14.8851 C   0  0  0  0  0  0  0  0  0  0  0  0
    1.4511    4.2847   15.0955 C   0  0  0  0  0  0  0  0  0  0  0  0
   -0.0438    4.2156   15.3627 C   0  0  0  0  0  0  0  0  0  0  0  0
   -0.6360    3.3550   14.3069 C   0  0  0  0  0  0  0  0  0  0  0  0
   -1.6661    3.7307   13.5321 N   0  0  0  0  0  0  0  0  0  0  0  0
   -2.1417    0.7050   11.4028 C   0  0  0  0  0  0  0  0  0  0  0  0
   -1.7257    1.1080   10.0095 C   0  0  0  0  0  0  0  0  0  0  0  0
   -1.0105    0.1292    9.2763 N   0  0  0  0  0  0  0  0  0  0  0  0
   -0.3800    0.5176    8.0789 C   0  0  0  0  0  0  0  0  0  0  0  0
    0.2900   -0.5900    7.2913 C   0  0  0  0  0  0  0  0  0  0  0  0
    1.0326   -1.5333    8.1947 C   0  0  0  0  0  0  0  0  0  0  0  0
    1.0629   -1.0002    9.6168 C   0  0  0  0  0  0  0  0  0  0  0  0
   -0.3936   -0.8827   10.0468 C   0  0  0  0  0  0  0  0  0  0  0  0
    2.3503   -1.9652    7.7029 C   0  0  0  0  0  0  0  0  0  0  0  0
    3.5705   -1.4572    7.9440 N   0  0  0  0  0  0  0  0  0  0  0  0
    4.4859   -2.1172    7.3092 O   0  0  0  0  0  0  0  0  0  0  0  0
    3.9726   -3.0948    6.6093 C   0  0  0  0  0  0  0  0  0  0  0  0
    2.6109   -3.0328    6.8328 C   0  0  0  0  0  0  0  0  0  0  0  0
    1.7965   -3.9479    6.2254 C   0  0  0  0  0  0  0  0  0  0  0  0
    2.3076   -4.9276    5.3961 C   0  0  0  0  0  0  0  0  0  0  0  0
    3.6683   -4.9638    5.1905 C   0  0  0  0  0  0  0  0  0  0  0  0
    4.5293   -4.0593    5.7843 C   0  0  0  0  0  0  0  0  0  0  0  0
    4.1382   -5.9467    4.3609 F   0  0  0  0  0  0  0  0  0  0  0  0
  1  2  1  0
  2  3  2  0
  3  4  1  0
  4  5  2  0
  4  6  1  0
  6  7  1  0
  7  8  1  0
  8  9  1  0
  9 10  1  0
 10 11  1  0
 11 12  2  0
  3 13  1  0
 13 14  1  0
 14 15  1  0
 15 16  1  0
 16 17  1  0
 17 18  1  0
 18 19  1  0
 19 20  1  0
 18 21  1  0
 21 22  2  0
 22 23  1  0
 23 24  1  0
 24 25  2  0
 25 26  1  0
 26 27  2  0
 27 28  1  0
 28 29  2  0
 28 30  1  0
 12  2  1  0
 11  6  1  0
 20 15  1  0
 25 21  1  0
 29 24  1  0
M  END
$$$$
