
     RDKit          3D

 30 34  0  0  0  0  0  0  0  0999 V2000
   -3.4304    3.6362   11.7811 C   0  0  0  0  0  0  0  0  0  0  0  0
   -2.3529    3.3760   12.7619 C   0  0  0  0  0  0  0  0  0  0  0  0
   -1.1740    2.7848   12.3806 C   0  0  0  0  0  0  0  0  0  0  0  0
   -0.1968    2.5836   13.3422 C   0  0  0  0  0  0  0  0  0  0  0  0
    0.8900    2.0443   13.0100 O   0  0  0  0  0  0  0  0  0  0  0  0
   -0.4137    2.9631   14.6137 N   0  0  0  0  0  0  0  0  0  0  0  0
    0.5767    2.7715   15.6460 C   0  0  0  0  0  0  0  0  0  0  0  0
    0.7800    4.1255   16.3165 C   0  0  0  0  0  0  0  0  0  0  0  0
   -0.4946    4.7685   16.7615 C   0  0  0  0  0  0  0  0  0  0  0  0
   -1.7032    3.9157   16.4112 C   0  0  0  0  0  0  0  0  0  0  0  0
   -1.5713    3.5396   14.9803 C   0  0  0  0  0  0  0  0  0  0  0  0
   -2.5324    3.7452   14.0656 N   0  0  0  0  0  0  0  0  0  0  0  0
   -0.9475    2.3507   10.9903 C   0  0  0  0  0  0  0  0  0  0  0  0
   -1.8800    1.2251   10.6153 C   0  0  0  0  0  0  0  0  0  0  0  0
   -1.2910    0.1542    9.8990 N   0  0  0  0  0  0  0  0  0  0  0  0
   -0.3131    0.4534    8.9313 C   0  0  0  0  0  0  0  0  0  0  0  0
    0.2130   -0.7221    8.1330 C   0  0  0  0  0  0  0  0  0  0  0  0
    0.4448   -1.9203    9.0093 C   0  0  0  0  0  0  0  0  0  0  0  0
    0.2715   -1.5544   10.4734 C   0  0  0  0  0  0  0  0  0  0  0  0
   -1.1629   -1.0605   10.6105 C   0  0  0  0  0  0  0  0  0  0  0  0
    1.6821   -2.6676    8.7348 C   0  0  0  0  0  0  0  0  0  0  0  0
    2.6803   -3.0184    9.5630 N   0  0  0  0  0  0  0  0  0  0  0  0
    3.6072   -3.6649    8.9310 O   0  0  0  0  0  0  0  0  0  0  0  0
    3.3180   -3.7987    7.6632 C   0  0  0  0  0  0  0  0  0  0  0  0
    2.0966   -3.1755    7.4958 C   0  0  0  0  0  0  0  0  0  0  0  0
    1.5265   -3.1557    6.2532 C   0  0  0  0  0  0  0  0  0  0  0  0
    2.1466   -3.7436    5.1675 C   0  0  0  0  0  0  0  0  0  0  0  0
    3.3639   -4.3556    5.3639 C   0  0  0  0  0  0  0  0  0  0  0  0
    3.9769   -4.4002    6.6026 C   0  0  0  0  0  0  0  0  0  0  0  0
    3.9495   -4.9251    4.2648 F   0  0  0  0  0  0  0  0  0  0  0  0
  1  2  1  0
  2  3  2  0
  3  4  1  0
  4  5  2  0
  4  6  1  0
  6  7  1  0
  7  8  1  0
  8  9  1  0
  9 10  1  0
 10 11  1  0
 11 12  2  0
  3 13  1  0
 13 14  1  0
 14 15  1  0
 15 16  1  0
 16 17  1  0
 17 18  1  0
 18 19  1  0
 19 20  1  0
 18 21  1  0
 21 22  2  0
 22 23  1  0
 23 24  1  0
 24 25  2  0
 25 26  1  0
 26 27  2  0
 27 28  1  0
 28 29  2  0
 28 30  1  0
 12  2  1  0
 11  6  1  0
 20 15  1  0
 25 21  1  0
 29 24  1  0
M  END
$$$$
