
     RDKit          3D

 30 34  0  0  0  0  0  0  0  0999 V2000
   -3.1577    1.9655   11.7490 C   0  0  0  0  0  0  0  0  0  0  0  0
   -2.4885    2.3604   13.0087 C   0  0  0  0  0  0  0  0  0  0  0  0
   -1.2840    1.8124   13.3743 C   0  0  0  0  0  0  0  0  0  0  0  0
   -0.6995    2.2359   14.5571 C   0  0  0  0  0  0  0  0  0  0  0  0
    0.4047    1.7451   14.9066 O   0  0  0  0  0  0  0  0  0  0  0  0
   -1.3102    3.1614   15.3176 N   0  0  0  0  0  0  0  0  0  0  0  0
   -0.7366    3.6296   16.5564 C   0  0  0  0  0  0  0  0  0  0  0  0
   -0.6973    5.1514   16.4748 C   0  0  0  0  0  0  0  0  0  0  0  0
   -2.0103    5.7634   16.1040 C   0  0  0  0  0  0  0  0  0  0  0  0
   -3.0752    4.7038   15.8714 C   0  0  0  0  0  0  0  0  0  0  0  0
   -2.4906    3.6922   14.9543 C   0  0  0  0  0  0  0  0  0  0  0  0
   -3.0755    3.2975   13.8121 N   0  0  0  0  0  0  0  0  0  0  0  0
   -0.6272    0.7826   12.5491 C   0  0  0  0  0  0  0  0  0  0  0  0
    0.5147    1.3703   11.7568 C   0  0  0  0  0  0  0  0  0  0  0  0
    0.9267    0.6208   10.6275 N   0  0  0  0  0  0  0  0  0  0  0  0
    2.2328    0.8111   10.1375 C   0  0  0  0  0  0  0  0  0  0  0  0
    2.5854    0.0529    8.8740 C   0  0  0  0  0  0  0  0  0  0  0  0
    2.0539   -1.3519    8.9111 C   0  0  0  0  0  0  0  0  0  0  0  0
    1.4843   -1.6727   10.2823 C   0  0  0  0  0  0  0  0  0  0  0  0
    0.3612   -0.6694   10.5100 C   0  0  0  0  0  0  0  0  0  0  0  0
    2.9718   -2.3830    8.4022 C   0  0  0  0  0  0  0  0  0  0  0  0
    4.1786   -2.7633    8.8541 N   0  0  0  0  0  0  0  0  0  0  0  0
    4.6786   -3.7041    8.1184 O   0  0  0  0  0  0  0  0  0  0  0  0
    3.8736   -4.0251    7.1396 C   0  0  0  0  0  0  0  0  0  0  0  0
    2.7717   -3.2047    7.2843 C   0  0  0  0  0  0  0  0  0  0  0  0
    1.7411   -3.3144    6.3926 C   0  0  0  0  0  0  0  0  0  0  0  0
    1.7814   -4.2253    5.3546 C   0  0  0  0  0  0  0  0  0  0  0  0
    2.8929   -5.0284    5.2342 C   0  0  0  0  0  0  0  0  0  0  0  0
    3.9579   -4.9522    6.1129 C   0  0  0  0  0  0  0  0  0  0  0  0
    2.8987   -5.9171    4.1923 F   0  0  0  0  0  0  0  0  0  0  0  0
  1  2  1  0
  2  3  2  0
  3  4  1  0
  4  5  2  0
  4  6  1  0
  6  7  1  0
  7  8  1  0
  8  9  1  0
  9 10  1  0
 10 11  1  0
 11 12  2  0
  3 13  1  0
 13 14  1  0
 14 15  1  0
 15 16  1  0
 16 17  1  0
 17 18  1  0
 18 19  1  0
 19 20  1  0
 18 21  1  0
 21 22  2  0
 22 23  1  0
 23 24  1  0
 24 25  2  0
 25 26  1  0
 26 27  2  0
 27 28  1  0
 28 29  2  0
 28 30  1  0
 12  2  1  0
 11  6  1  0
 20 15  1  0
 25 21  1  0
 29 24  1  0
M  END
$$$$
