
     RDKit          3D

 30 34  0  0  0  0  0  0  0  0999 V2000
   -1.3029    4.3122   13.3489 C   0  0  0  0  0  0  0  0  0  0  0  0
   -2.2914    3.2328   13.5689 C   0  0  0  0  0  0  0  0  0  0  0  0
   -2.0404    1.9466   13.1596 C   0  0  0  0  0  0  0  0  0  0  0  0
   -2.9981    0.9769   13.4099 C   0  0  0  0  0  0  0  0  0  0  0  0
   -2.7839   -0.2070   13.0427 O   0  0  0  0  0  0  0  0  0  0  0  0
   -4.1407    1.3040   14.0386 N   0  0  0  0  0  0  0  0  0  0  0  0
   -5.1640    0.3255   14.3182 C   0  0  0  0  0  0  0  0  0  0  0  0
   -5.4728    0.4260   15.8078 C   0  0  0  0  0  0  0  0  0  0  0  0
   -5.7750    1.8182   16.2621 C   0  0  0  0  0  0  0  0  0  0  0  0
   -5.6762    2.8137   15.1175 C   0  0  0  0  0  0  0  0  0  0  0  0
   -4.3805    2.5659   14.4349 C   0  0  0  0  0  0  0  0  0  0  0  0
   -3.4668    3.5221   14.2037 N   0  0  0  0  0  0  0  0  0  0  0  0
   -0.7961    1.5954   12.4517 C   0  0  0  0  0  0  0  0  0  0  0  0
   -1.0152    1.5530   10.9593 C   0  0  0  0  0  0  0  0  0  0  0  0
   -0.4533    0.4386   10.2889 N   0  0  0  0  0  0  0  0  0  0  0  0
   -1.2114   -0.1893    9.2823 C   0  0  0  0  0  0  0  0  0  0  0  0
   -0.5986   -1.4305    8.6659 C   0  0  0  0  0  0  0  0  0  0  0  0
    0.8726   -1.2512    8.4196 C   0  0  0  0  0  0  0  0  0  0  0  0
    1.2872    0.1873    8.6771 C   0  0  0  0  0  0  0  0  0  0  0  0
    0.9519    0.4604   10.1376 C   0  0  0  0  0  0  0  0  0  0  0  0
    1.3626   -1.7814    7.1376 C   0  0  0  0  0  0  0  0  0  0  0  0
    1.1784   -1.3246    5.8876 N   0  0  0  0  0  0  0  0  0  0  0  0
    1.7666   -2.0848    5.0201 O   0  0  0  0  0  0  0  0  0  0  0  0
    2.3771   -3.0862    5.5974 C   0  0  0  0  0  0  0  0  0  0  0  0
    2.1439   -2.9301    6.9499 C   0  0  0  0  0  0  0  0  0  0  0  0
    2.6703   -3.8407    7.8235 C   0  0  0  0  0  0  0  0  0  0  0  0
    3.4264   -4.9089    7.3808 C   0  0  0  0  0  0  0  0  0  0  0  0
    3.6407   -5.0400    6.0274 C   0  0  0  0  0  0  0  0  0  0  0  0
    3.1284   -4.1431    5.1081 C   0  0  0  0  0  0  0  0  0  0  0  0
    4.3924   -6.1119    5.6255 F   0  0  0  0  0  0  0  0  0  0  0  0
  1  2  1  0
  2  3  2  0
  3  4  1  0
  4  5  2  0
  4  6  1  0
  6  7  1  0
  7  8  1  0
  8  9  1  0
  9 10  1  0
 10 11  1  0
 11 12  2  0
  3 13  1  0
 13 14  1  0
 14 15  1  0
 15 16  1  0
 16 17  1  0
 17 18  1  0
 18 19  1  0
 19 20  1  0
 18 21  1  0
 21 22  2  0
 22 23  1  0
 23 24  1  0
 24 25  2  0
 25 26  1  0
 26 27  2  0
 27 28  1  0
 28 29  2  0
 28 30  1  0
 12  2  1  0
 11  6  1  0
 20 15  1  0
 25 21  1  0
 29 24  1  0
M  END
$$$$
