
     RDKit          3D

 30 34  0  0  0  0  0  0  0  0999 V2000
   -2.3254    3.5545   12.8700 C   0  0  0  0  0  0  0  0  0  0  0  0
   -3.1136    2.3153   13.0541 C   0  0  0  0  0  0  0  0  0  0  0  0
   -2.5791    1.0847   12.7628 C   0  0  0  0  0  0  0  0  0  0  0  0
   -3.3615   -0.0396   12.9727 C   0  0  0  0  0  0  0  0  0  0  0  0
   -2.8872   -1.1751   12.7124 O   0  0  0  0  0  0  0  0  0  0  0  0
   -4.6120    0.0885   13.4498 N   0  0  0  0  0  0  0  0  0  0  0  0
   -5.4602   -1.0558   13.6823 C   0  0  0  0  0  0  0  0  0  0  0  0
   -5.9584   -0.9487   15.1191 C   0  0  0  0  0  0  0  0  0  0  0  0
   -6.5680    0.3779   15.4422 C   0  0  0  0  0  0  0  0  0  0  0  0
   -6.5209    1.3201   14.2502 C   0  0  0  0  0  0  0  0  0  0  0  0
   -5.1294    1.2969   13.7310 C   0  0  0  0  0  0  0  0  0  0  0  0
   -4.3898    2.4003   13.5361 N   0  0  0  0  0  0  0  0  0  0  0  0
   -1.2155    0.9491   12.2199 C   0  0  0  0  0  0  0  0  0  0  0  0
   -1.1602    1.3893   10.7777 C   0  0  0  0  0  0  0  0  0  0  0  0
   -0.6011    0.4538    9.8724 N   0  0  0  0  0  0  0  0  0  0  0  0
    0.6225    0.7708    9.2525 C   0  0  0  0  0  0  0  0  0  0  0  0
    1.1243   -0.2239    8.2256 C   0  0  0  0  0  0  0  0  0  0  0  0
    0.9254   -1.6389    8.6900 C   0  0  0  0  0  0  0  0  0  0  0  0
    0.4581   -1.6673   10.1351 C   0  0  0  0  0  0  0  0  0  0  0  0
   -0.8607   -0.9057   10.1596 C   0  0  0  0  0  0  0  0  0  0  0  0
    2.0476   -2.5510    8.4192 C   0  0  0  0  0  0  0  0  0  0  0  0
    2.9813   -3.0415    9.2515 N   0  0  0  0  0  0  0  0  0  0  0  0
    3.8127   -3.8089    8.6220 O   0  0  0  0  0  0  0  0  0  0  0  0
    3.5160   -3.8958    7.3518 C   0  0  0  0  0  0  0  0  0  0  0  0
    2.3951   -3.1070    7.1802 C   0  0  0  0  0  0  0  0  0  0  0  0
    1.8415   -3.0025    5.9344 C   0  0  0  0  0  0  0  0  0  0  0  0
    2.3803   -3.6670    4.8495 C   0  0  0  0  0  0  0  0  0  0  0  0
    3.4985   -4.4444    5.0501 C   0  0  0  0  0  0  0  0  0  0  0  0
    4.0911   -4.5793    6.2922 C   0  0  0  0  0  0  0  0  0  0  0  0
    4.0058   -5.0858    3.9517 F   0  0  0  0  0  0  0  0  0  0  0  0
  1  2  1  0
  2  3  2  0
  3  4  1  0
  4  5  2  0
  4  6  1  0
  6  7  1  0
  7  8  1  0
  8  9  1  0
  9 10  1  0
 10 11  1  0
 11 12  2  0
  3 13  1  0
 13 14  1  0
 14 15  1  0
 15 16  1  0
 16 17  1  0
 17 18  1  0
 18 19  1  0
 19 20  1  0
 18 21  1  0
 21 22  2  0
 22 23  1  0
 23 24  1  0
 24 25  2  0
 25 26  1  0
 26 27  2  0
 27 28  1  0
 28 29  2  0
 28 30  1  0
 12  2  1  0
 11  6  1  0
 20 15  1  0
 25 21  1  0
 29 24  1  0
M  END
$$$$
