
     RDKit          3D

 30 34  0  0  0  0  0  0  0  0999 V2000
    0.0208    1.7009   14.0184 C   0  0  0  0  0  0  0  0  0  0  0  0
   -1.1077    2.5893   13.6607 C   0  0  0  0  0  0  0  0  0  0  0  0
   -1.9823    2.2559   12.6563 C   0  0  0  0  0  0  0  0  0  0  0  0
   -3.0290    3.1210   12.3803 C   0  0  0  0  0  0  0  0  0  0  0  0
   -3.8405    2.8306   11.4641 O   0  0  0  0  0  0  0  0  0  0  0  0
   -3.1704    4.2558   13.0875 N   0  0  0  0  0  0  0  0  0  0  0  0
   -4.2455    5.1842   12.8323 C   0  0  0  0  0  0  0  0  0  0  0  0
   -4.9391    5.4311   14.1672 C   0  0  0  0  0  0  0  0  0  0  0  0
   -4.0008    5.8217   15.2641 C   0  0  0  0  0  0  0  0  0  0  0  0
   -2.5596    5.8552   14.7816 C   0  0  0  0  0  0  0  0  0  0  0  0
   -2.3090    4.5767   14.0683 C   0  0  0  0  0  0  0  0  0  0  0  0
   -1.2875    3.7535   14.3539 N   0  0  0  0  0  0  0  0  0  0  0  0
   -1.8124    1.0216   11.8687 C   0  0  0  0  0  0  0  0  0  0  0  0
   -0.5186    1.0478   11.0927 C   0  0  0  0  0  0  0  0  0  0  0  0
   -0.4056    0.0879   10.0570 N   0  0  0  0  0  0  0  0  0  0  0  0
   -0.5349    0.5224    8.7241 C   0  0  0  0  0  0  0  0  0  0  0  0
   -0.4981   -0.5611    7.6656 C   0  0  0  0  0  0  0  0  0  0  0  0
    0.5610   -1.5839    7.9644 C   0  0  0  0  0  0  0  0  0  0  0  0
    1.4211   -1.1379    9.1344 C   0  0  0  0  0  0  0  0  0  0  0  0
    0.4707   -0.9908   10.3155 C   0  0  0  0  0  0  0  0  0  0  0  0
    1.3418   -2.0357    6.8022 C   0  0  0  0  0  0  0  0  0  0  0  0
    1.1620   -1.7905    5.4935 N   0  0  0  0  0  0  0  0  0  0  0  0
    2.0630   -2.3844    4.7780 O   0  0  0  0  0  0  0  0  0  0  0  0
    2.8988   -3.0583    5.5239 C   0  0  0  0  0  0  0  0  0  0  0  0
    2.4737   -2.8623    6.8235 C   0  0  0  0  0  0  0  0  0  0  0  0
    3.1667   -3.4515    7.8443 C   0  0  0  0  0  0  0  0  0  0  0  0
    4.2778   -4.2358    7.6012 C   0  0  0  0  0  0  0  0  0  0  0  0
    4.6771   -4.4149    6.2960 C   0  0  0  0  0  0  0  0  0  0  0  0
    4.0070   -3.8380    5.2329 C   0  0  0  0  0  0  0  0  0  0  0  0
    5.7805   -5.2001    6.0935 F   0  0  0  0  0  0  0  0  0  0  0  0
  1  2  1  0
  2  3  2  0
  3  4  1  0
  4  5  2  0
  4  6  1  0
  6  7  1  0
  7  8  1  0
  8  9  1  0
  9 10  1  0
 10 11  1  0
 11 12  2  0
  3 13  1  0
 13 14  1  0
 14 15  1  0
 15 16  1  0
 16 17  1  0
 17 18  1  0
 18 19  1  0
 19 20  1  0
 18 21  1  0
 21 22  2  0
 22 23  1  0
 23 24  1  0
 24 25  2  0
 25 26  1  0
 26 27  2  0
 27 28  1  0
 28 29  2  0
 28 30  1  0
 12  2  1  0
 11  6  1  0
 20 15  1  0
 25 21  1  0
 29 24  1  0
M  END
$$$$
