
     RDKit          3D

 30 34  0  0  0  0  0  0  0  0999 V2000
   -4.1774    2.1603    9.8744 C   0  0  0  0  0  0  0  0  0  0  0  0
   -3.4503    2.5558   11.1014 C   0  0  0  0  0  0  0  0  0  0  0  0
   -2.0835    2.4535   11.1802 C   0  0  0  0  0  0  0  0  0  0  0  0
   -1.4592    2.8561   12.3500 C   0  0  0  0  0  0  0  0  0  0  0  0
   -0.2074    2.7704   12.4389 O   0  0  0  0  0  0  0  0  0  0  0  0
   -2.1886    3.3323   13.3742 N   0  0  0  0  0  0  0  0  0  0  0  0
   -1.5787    3.7617   14.6098 C   0  0  0  0  0  0  0  0  0  0  0  0
   -2.0862    5.1730   14.8831 C   0  0  0  0  0  0  0  0  0  0  0  0
   -3.5757    5.2929   14.8273 C   0  0  0  0  0  0  0  0  0  0  0  0
   -4.2310    3.9651   14.4829 C   0  0  0  0  0  0  0  0  0  0  0  0
   -3.5268    3.4277   13.2906 C   0  0  0  0  0  0  0  0  0  0  0  0
   -4.1535    3.0442   12.1669 N   0  0  0  0  0  0  0  0  0  0  0  0
   -1.2887    1.9113   10.0636 C   0  0  0  0  0  0  0  0  0  0  0  0
   -0.0251    1.2568   10.5656 C   0  0  0  0  0  0  0  0  0  0  0  0
    0.3914    0.1036    9.8558 N   0  0  0  0  0  0  0  0  0  0  0  0
    0.9365    0.2702    8.5684 C   0  0  0  0  0  0  0  0  0  0  0  0
    1.2774   -1.0032    7.8214 C   0  0  0  0  0  0  0  0  0  0  0  0
    1.9249   -2.0130    8.7261 C   0  0  0  0  0  0  0  0  0  0  0  0
    2.2299   -1.3994   10.0818 C   0  0  0  0  0  0  0  0  0  0  0  0
    0.8872   -0.9567   10.6483 C   0  0  0  0  0  0  0  0  0  0  0  0
    3.0638   -2.7386    8.1420 C   0  0  0  0  0  0  0  0  0  0  0  0
    4.3598   -2.7398    8.4963 N   0  0  0  0  0  0  0  0  0  0  0  0
    5.0566   -3.5059    7.7191 O   0  0  0  0  0  0  0  0  0  0  0  0
    4.3094   -4.0668    6.8047 C   0  0  0  0  0  0  0  0  0  0  0  0
    3.0295   -3.6032    7.0391 C   0  0  0  0  0  0  0  0  0  0  0  0
    2.0118   -4.0267    6.2302 C   0  0  0  0  0  0  0  0  0  0  0  0
    2.2389   -4.9045    5.1877 C   0  0  0  0  0  0  0  0  0  0  0  0
    3.5248   -5.3483    4.9769 C   0  0  0  0  0  0  0  0  0  0  0  0
    4.5840   -4.9469    5.7700 C   0  0  0  0  0  0  0  0  0  0  0  0
    3.7121   -6.2151    3.9334 F   0  0  0  0  0  0  0  0  0  0  0  0
  1  2  1  0
  2  3  2  0
  3  4  1  0
  4  5  2  0
  4  6  1  0
  6  7  1  0
  7  8  1  0
  8  9  1  0
  9 10  1  0
 10 11  1  0
 11 12  2  0
  3 13  1  0
 13 14  1  0
 14 15  1  0
 15 16  1  0
 16 17  1  0
 17 18  1  0
 18 19  1  0
 19 20  1  0
 18 21  1  0
 21 22  2  0
 22 23  1  0
 23 24  1  0
 24 25  2  0
 25 26  1  0
 26 27  2  0
 27 28  1  0
 28 29  2  0
 28 30  1  0
 12  2  1  0
 11  6  1  0
 20 15  1  0
 25 21  1  0
 29 24  1  0
M  END
$$$$
