
     RDKit          3D

 30 34  0  0  0  0  0  0  0  0999 V2000
   -3.6034    3.0172   10.7062 C   0  0  0  0  0  0  0  0  0  0  0  0
   -2.7883    3.1495   11.9346 C   0  0  0  0  0  0  0  0  0  0  0  0
   -1.8579    2.1988   12.2744 C   0  0  0  0  0  0  0  0  0  0  0  0
   -1.1138    2.3882   13.4279 C   0  0  0  0  0  0  0  0  0  0  0  0
   -0.2560    1.5277   13.7536 O   0  0  0  0  0  0  0  0  0  0  0  0
   -1.3107    3.4813   14.1856 N   0  0  0  0  0  0  0  0  0  0  0  0
   -0.5581    3.7168   15.3944 C   0  0  0  0  0  0  0  0  0  0  0  0
    0.0366    5.1155   15.2761 C   0  0  0  0  0  0  0  0  0  0  0  0
   -0.9712    6.1656   14.9330 C   0  0  0  0  0  0  0  0  0  0  0  0
   -2.3599    5.5721   14.7590 C   0  0  0  0  0  0  0  0  0  0  0  0
   -2.2250    4.4070   13.8477 C   0  0  0  0  0  0  0  0  0  0  0  0
   -2.9573    4.2451   12.7341 N   0  0  0  0  0  0  0  0  0  0  0  0
   -1.6592    0.9911   11.4530 C   0  0  0  0  0  0  0  0  0  0  0  0
   -1.0781    1.3420   10.1054 C   0  0  0  0  0  0  0  0  0  0  0  0
   -0.4840    0.2693    9.3960 N   0  0  0  0  0  0  0  0  0  0  0  0
    0.4288    0.5706    8.3674 C   0  0  0  0  0  0  0  0  0  0  0  0
    0.9602   -0.6120    7.5832 C   0  0  0  0  0  0  0  0  0  0  0  0
    1.2865   -1.7671    8.4868 C   0  0  0  0  0  0  0  0  0  0  0  0
    1.1751   -1.3546    9.9445 C   0  0  0  0  0  0  0  0  0  0  0  0
   -0.2692   -0.9125   10.1413 C   0  0  0  0  0  0  0  0  0  0  0  0
    2.5373   -2.4751    8.1724 C   0  0  0  0  0  0  0  0  0  0  0  0
    3.5236   -2.8876    8.9861 N   0  0  0  0  0  0  0  0  0  0  0  0
    4.4697   -3.4668    8.3183 O   0  0  0  0  0  0  0  0  0  0  0  0
    4.2061   -3.4912    7.0381 C   0  0  0  0  0  0  0  0  0  0  0  0
    2.9810   -2.8678    6.9020 C   0  0  0  0  0  0  0  0  0  0  0  0
    2.4343   -2.7443    5.6549 C   0  0  0  0  0  0  0  0  0  0  0  0
    3.0815   -3.2281    4.5342 C   0  0  0  0  0  0  0  0  0  0  0  0
    4.3018   -3.8430    4.7002 C   0  0  0  0  0  0  0  0  0  0  0  0
    4.8918   -3.9904    5.9421 C   0  0  0  0  0  0  0  0  0  0  0  0
    4.9147   -4.3076    3.5671 F   0  0  0  0  0  0  0  0  0  0  0  0
  1  2  1  0
  2  3  2  0
  3  4  1  0
  4  5  2  0
  4  6  1  0
  6  7  1  0
  7  8  1  0
  8  9  1  0
  9 10  1  0
 10 11  1  0
 11 12  2  0
  3 13  1  0
 13 14  1  0
 14 15  1  0
 15 16  1  0
 16 17  1  0
 17 18  1  0
 18 19  1  0
 19 20  1  0
 18 21  1  0
 21 22  2  0
 22 23  1  0
 23 24  1  0
 24 25  2  0
 25 26  1  0
 26 27  2  0
 27 28  1  0
 28 29  2  0
 28 30  1  0
 12  2  1  0
 11  6  1  0
 20 15  1  0
 25 21  1  0
 29 24  1  0
M  END
$$$$
