
     RDKit          3D

 30 34  0  0  0  0  0  0  0  0999 V2000
   -1.8832   -0.6266   12.8972 C   0  0  0  0  0  0  0  0  0  0  0  0
   -0.5008   -0.1289   13.0761 C   0  0  0  0  0  0  0  0  0  0  0  0
   -0.0505    0.9748   12.3950 C   0  0  0  0  0  0  0  0  0  0  0  0
    1.2487    1.4019   12.6185 C   0  0  0  0  0  0  0  0  0  0  0  0
    1.6773    2.4123   12.0038 O   0  0  0  0  0  0  0  0  0  0  0  0
    2.0367    0.7401   13.4838 N   0  0  0  0  0  0  0  0  0  0  0  0
    3.3954    1.1508   13.7452 C   0  0  0  0  0  0  0  0  0  0  0  0
    3.5292    1.2896   15.2574 C   0  0  0  0  0  0  0  0  0  0  0  0
    3.0674    0.0832   16.0107 C   0  0  0  0  0  0  0  0  0  0  0  0
    2.5467   -0.9952   15.0743 C   0  0  0  0  0  0  0  0  0  0  0  0
    1.5896   -0.3411   14.1457 C   0  0  0  0  0  0  0  0  0  0  0  0
    0.3342   -0.7729   13.9456 N   0  0  0  0  0  0  0  0  0  0  0  0
   -0.9099    1.6856   11.4312 C   0  0  0  0  0  0  0  0  0  0  0  0
   -1.3466    0.7684   10.3155 C   0  0  0  0  0  0  0  0  0  0  0  0
   -0.3440    0.4277    9.3743 N   0  0  0  0  0  0  0  0  0  0  0  0
    0.5127   -0.6499    9.6689 C   0  0  0  0  0  0  0  0  0  0  0  0
    1.6228   -0.9083    8.6705 C   0  0  0  0  0  0  0  0  0  0  0  0
    1.1306   -0.7769    7.2571 C   0  0  0  0  0  0  0  0  0  0  0  0
   -0.3796   -0.6147    7.2290 C   0  0  0  0  0  0  0  0  0  0  0  0
   -0.6753    0.6536    8.0188 C   0  0  0  0  0  0  0  0  0  0  0  0
    1.6274   -1.7990    6.3228 C   0  0  0  0  0  0  0  0  0  0  0  0
    1.2391   -2.0835    5.0684 N   0  0  0  0  0  0  0  0  0  0  0  0
    1.9193   -3.0714    4.5807 O   0  0  0  0  0  0  0  0  0  0  0  0
    2.7954   -3.5201    5.4410 C   0  0  0  0  0  0  0  0  0  0  0  0
    2.6419   -2.7350    6.5671 C   0  0  0  0  0  0  0  0  0  0  0  0
    3.4389   -2.9694    7.6531 C   0  0  0  0  0  0  0  0  0  0  0  0
    4.3892   -3.9722    7.6453 C   0  0  0  0  0  0  0  0  0  0  0  0
    4.5184   -4.7398    6.5099 C   0  0  0  0  0  0  0  0  0  0  0  0
    3.7346   -4.5379    5.3888 C   0  0  0  0  0  0  0  0  0  0  0  0
    5.4686   -5.7254    6.5397 F   0  0  0  0  0  0  0  0  0  0  0  0
  1  2  1  0
  2  3  2  0
  3  4  1  0
  4  5  2  0
  4  6  1  0
  6  7  1  0
  7  8  1  0
  8  9  1  0
  9 10  1  0
 10 11  1  0
 11 12  2  0
  3 13  1  0
 13 14  1  0
 14 15  1  0
 15 16  1  0
 16 17  1  0
 17 18  1  0
 18 19  1  0
 19 20  1  0
 18 21  1  0
 21 22  2  0
 22 23  1  0
 23 24  1  0
 24 25  2  0
 25 26  1  0
 26 27  2  0
 27 28  1  0
 28 29  2  0
 28 30  1  0
 12  2  1  0
 11  6  1  0
 20 15  1  0
 25 21  1  0
 29 24  1  0
M  END
$$$$
