
     RDKit          3D

 30 34  0  0  0  0  0  0  0  0999 V2000
   -0.9323    4.2588   10.9227 C   0  0  0  0  0  0  0  0  0  0  0  0
   -0.8845    3.9337   12.3658 C   0  0  0  0  0  0  0  0  0  0  0  0
   -1.4198    2.7649   12.8479 C   0  0  0  0  0  0  0  0  0  0  0  0
   -1.3282    2.5098   14.2068 C   0  0  0  0  0  0  0  0  0  0  0  0
   -1.8122    1.4431   14.6654 O   0  0  0  0  0  0  0  0  0  0  0  0
   -0.7274    3.3958   15.0204 N   0  0  0  0  0  0  0  0  0  0  0  0
   -0.6112    3.1694   16.4410 C   0  0  0  0  0  0  0  0  0  0  0  0
    0.8623    3.3388   16.7938 C   0  0  0  0  0  0  0  0  0  0  0  0
    1.4512    4.6207   16.2980 C   0  0  0  0  0  0  0  0  0  0  0  0
    0.4302    5.4453   15.5308 C   0  0  0  0  0  0  0  0  0  0  0  0
   -0.2073    4.5391   14.5416 C   0  0  0  0  0  0  0  0  0  0  0  0
   -0.2837    4.8074   13.2283 N   0  0  0  0  0  0  0  0  0  0  0  0
   -2.0965    1.8055   11.9567 C   0  0  0  0  0  0  0  0  0  0  0  0
   -1.5888    0.4030   12.1849 C   0  0  0  0  0  0  0  0  0  0  0  0
   -0.8993   -0.1841   11.0954 N   0  0  0  0  0  0  0  0  0  0  0  0
    0.2958    0.4172   10.6570 C   0  0  0  0  0  0  0  0  0  0  0  0
    0.9388   -0.1992    9.4312 C   0  0  0  0  0  0  0  0  0  0  0  0
    0.8936   -1.7000    9.4843 C   0  0  0  0  0  0  0  0  0  0  0  0
    0.3925   -2.1729   10.8382 C   0  0  0  0  0  0  0  0  0  0  0  0
   -1.0064   -1.5896   10.9895 C   0  0  0  0  0  0  0  0  0  0  0  0
    2.1217   -2.3800    9.0441 C   0  0  0  0  0  0  0  0  0  0  0  0
    3.1314   -2.8922    9.7676 N   0  0  0  0  0  0  0  0  0  0  0  0
    4.0439   -3.4011    9.0028 O   0  0  0  0  0  0  0  0  0  0  0  0
    3.7329   -3.2772    7.7391 C   0  0  0  0  0  0  0  0  0  0  0  0
    2.5126   -2.6302    7.7214 C   0  0  0  0  0  0  0  0  0  0  0  0
    1.9220   -2.3602    6.5181 C   0  0  0  0  0  0  0  0  0  0  0  0
    2.5205   -2.7199    5.3260 C   0  0  0  0  0  0  0  0  0  0  0  0
    3.7373   -3.3619    5.3744 C   0  0  0  0  0  0  0  0  0  0  0  0
    4.3705   -3.6554    6.5681 C   0  0  0  0  0  0  0  0  0  0  0  0
    4.3012   -3.7008    4.1734 F   0  0  0  0  0  0  0  0  0  0  0  0
  1  2  1  0
  2  3  2  0
  3  4  1  0
  4  5  2  0
  4  6  1  0
  6  7  1  0
  7  8  1  0
  8  9  1  0
  9 10  1  0
 10 11  1  0
 11 12  2  0
  3 13  1  0
 13 14  1  0
 14 15  1  0
 15 16  1  0
 16 17  1  0
 17 18  1  0
 18 19  1  0
 19 20  1  0
 18 21  1  0
 21 22  2  0
 22 23  1  0
 23 24  1  0
 24 25  2  0
 25 26  1  0
 26 27  2  0
 27 28  1  0
 28 29  2  0
 28 30  1  0
 12  2  1  0
 11  6  1  0
 20 15  1  0
 25 21  1  0
 29 24  1  0
M  END
$$$$
