
     RDKit          3D

 30 34  0  0  0  0  0  0  0  0999 V2000
   -4.0118    2.8984   10.7073 C   0  0  0  0  0  0  0  0  0  0  0  0
   -3.1014    3.0510   11.8642 C   0  0  0  0  0  0  0  0  0  0  0  0
   -2.1108    2.1337   12.1134 C   0  0  0  0  0  0  0  0  0  0  0  0
   -1.2795    2.3414   13.2024 C   0  0  0  0  0  0  0  0  0  0  0  0
   -0.3658    1.5115   13.4446 O   0  0  0  0  0  0  0  0  0  0  0  0
   -1.4525    3.4195   13.9870 N   0  0  0  0  0  0  0  0  0  0  0  0
   -0.6098    3.6731   15.1309 C   0  0  0  0  0  0  0  0  0  0  0  0
   -0.0798    5.0945   14.9797 C   0  0  0  0  0  0  0  0  0  0  0  0
   -1.1515    6.1083   14.7349 C   0  0  0  0  0  0  0  0  0  0  0  0
   -2.5268    5.4637   14.6713 C   0  0  0  0  0  0  0  0  0  0  0  0
   -2.4259    4.3126   13.7381 C   0  0  0  0  0  0  0  0  0  0  0  0
   -3.2430    4.1324   12.6881 N   0  0  0  0  0  0  0  0  0  0  0  0
   -1.9372    0.9417   11.2639 C   0  0  0  0  0  0  0  0  0  0  0  0
   -1.2299    1.2913    9.9777 C   0  0  0  0  0  0  0  0  0  0  0  0
   -0.6410    0.2036    9.2869 N   0  0  0  0  0  0  0  0  0  0  0  0
    0.3117    0.4814    8.2882 C   0  0  0  0  0  0  0  0  0  0  0  0
    0.8375   -0.7145    7.5206 C   0  0  0  0  0  0  0  0  0  0  0  0
    1.1049   -1.8775    8.4333 C   0  0  0  0  0  0  0  0  0  0  0  0
    0.9576   -1.4621    9.8871 C   0  0  0  0  0  0  0  0  0  0  0  0
   -0.4804   -0.9832   10.0378 C   0  0  0  0  0  0  0  0  0  0  0  0
    2.3467   -2.6173    8.1586 C   0  0  0  0  0  0  0  0  0  0  0  0
    3.2934   -3.0587    9.0036 N   0  0  0  0  0  0  0  0  0  0  0  0
    4.2461   -3.6604    8.3659 O   0  0  0  0  0  0  0  0  0  0  0  0
    4.0259   -3.6733    7.0773 C   0  0  0  0  0  0  0  0  0  0  0  0
    2.8230   -3.0171    6.9023 C   0  0  0  0  0  0  0  0  0  0  0  0
    2.3227   -2.8748    5.6379 C   0  0  0  0  0  0  0  0  0  0  0  0
    2.9948   -3.3716    4.5378 C   0  0  0  0  0  0  0  0  0  0  0  0
    4.1921   -4.0193    4.7425 C   0  0  0  0  0  0  0  0  0  0  0  0
    4.7352   -4.1867    6.0031 C   0  0  0  0  0  0  0  0  0  0  0  0
    4.8308   -4.4960    3.6289 F   0  0  0  0  0  0  0  0  0  0  0  0
  1  2  1  0
  2  3  2  0
  3  4  1  0
  4  5  2  0
  4  6  1  0
  6  7  1  0
  7  8  1  0
  8  9  1  0
  9 10  1  0
 10 11  1  0
 11 12  2  0
  3 13  1  0
 13 14  1  0
 14 15  1  0
 15 16  1  0
 16 17  1  0
 17 18  1  0
 18 19  1  0
 19 20  1  0
 18 21  1  0
 21 22  2  0
 22 23  1  0
 23 24  1  0
 24 25  2  0
 25 26  1  0
 26 27  2  0
 27 28  1  0
 28 29  2  0
 28 30  1  0
 12  2  1  0
 11  6  1  0
 20 15  1  0
 25 21  1  0
 29 24  1  0
M  END
$$$$
