
     RDKit          3D

 30 34  0  0  0  0  0  0  0  0999 V2000
   -3.4538    0.4464   11.8179 C   0  0  0  0  0  0  0  0  0  0  0  0
   -3.0432    1.5451   12.7206 C   0  0  0  0  0  0  0  0  0  0  0  0
   -1.7171    1.8259   12.9388 C   0  0  0  0  0  0  0  0  0  0  0  0
   -1.3967    2.8784   13.7813 C   0  0  0  0  0  0  0  0  0  0  0  0
   -0.1866    3.1503   13.9914 O   0  0  0  0  0  0  0  0  0  0  0  0
   -2.3723    3.5969   14.3641 N   0  0  0  0  0  0  0  0  0  0  0  0
   -2.0824    4.7000   15.2483 C   0  0  0  0  0  0  0  0  0  0  0  0
   -2.8663    5.8990   14.7266 C   0  0  0  0  0  0  0  0  0  0  0  0
   -4.3183    5.6146   14.5103 C   0  0  0  0  0  0  0  0  0  0  0  0
   -4.6613    4.1719   14.8448 C   0  0  0  0  0  0  0  0  0  0  0  0
   -3.6687    3.3149   14.1474 C   0  0  0  0  0  0  0  0  0  0  0  0
   -4.0031    2.3001   13.3343 N   0  0  0  0  0  0  0  0  0  0  0  0
   -0.6498    1.0231   12.3152 C   0  0  0  0  0  0  0  0  0  0  0  0
   -0.4562    1.4087   10.8692 C   0  0  0  0  0  0  0  0  0  0  0  0
   -0.2753    0.3318    9.9667 N   0  0  0  0  0  0  0  0  0  0  0  0
   -0.5961    0.5333    8.6108 C   0  0  0  0  0  0  0  0  0  0  0  0
   -0.4710   -0.6795    7.7112 C   0  0  0  0  0  0  0  0  0  0  0  0
    0.7692   -1.4680    8.0231 C   0  0  0  0  0  0  0  0  0  0  0  0
    1.6427   -0.7212    9.0166 C   0  0  0  0  0  0  0  0  0  0  0  0
    0.7913   -0.5457   10.2673 C   0  0  0  0  0  0  0  0  0  0  0  0
    1.5077   -1.9644    6.8514 C   0  0  0  0  0  0  0  0  0  0  0  0
    1.3961   -1.6289    5.5552 N   0  0  0  0  0  0  0  0  0  0  0  0
    2.2227   -2.3059    4.8238 O   0  0  0  0  0  0  0  0  0  0  0  0
    2.9376   -3.1284    5.5459 C   0  0  0  0  0  0  0  0  0  0  0  0
    2.5122   -2.9420    6.8468 C   0  0  0  0  0  0  0  0  0  0  0  0
    3.0908   -3.6750    7.8455 C   0  0  0  0  0  0  0  0  0  0  0  0
    4.0872   -4.5943    7.5789 C   0  0  0  0  0  0  0  0  0  0  0  0
    4.4895   -4.7599    6.2729 C   0  0  0  0  0  0  0  0  0  0  0  0
    3.9329   -4.0402    5.2316 C   0  0  0  0  0  0  0  0  0  0  0  0
    5.4771   -5.6811    6.0466 F   0  0  0  0  0  0  0  0  0  0  0  0
  1  2  1  0
  2  3  2  0
  3  4  1  0
  4  5  2  0
  4  6  1  0
  6  7  1  0
  7  8  1  0
  8  9  1  0
  9 10  1  0
 10 11  1  0
 11 12  2  0
  3 13  1  0
 13 14  1  0
 14 15  1  0
 15 16  1  0
 16 17  1  0
 17 18  1  0
 18 19  1  0
 19 20  1  0
 18 21  1  0
 21 22  2  0
 22 23  1  0
 23 24  1  0
 24 25  2  0
 25 26  1  0
 26 27  2  0
 27 28  1  0
 28 29  2  0
 28 30  1  0
 12  2  1  0
 11  6  1  0
 20 15  1  0
 25 21  1  0
 29 24  1  0
M  END
$$$$
