
     RDKit          3D

 27 29  0  0  0  0  0  0  0  0999 V2000
    3.2308   -2.4700   11.6564 N   0  0  0  0  0  0  0  0  0  0  0  0
    2.8932   -1.7666   12.5060 C   0  0  0  0  0  0  0  0  0  0  0  0
    2.4459   -0.8928   13.5701 C   0  0  0  0  0  0  0  0  0  0  0  0
    3.1038   -0.8714   14.7751 C   0  0  0  0  0  0  0  0  0  0  0  0
    2.6225   -0.0075   15.7478 C   0  0  0  0  0  0  0  0  0  0  0  0
    1.5339    0.7863   15.5003 C   0  0  0  0  0  0  0  0  0  0  0  0
    0.8862    0.7447   14.2693 C   0  0  0  0  0  0  0  0  0  0  0  0
    1.3272   -0.0904   13.2892 C   0  0  0  0  0  0  0  0  0  0  0  0
    0.7456   -0.1740   12.0796 O   0  0  0  0  0  0  0  0  0  0  0  0
   -0.4427    0.3297   11.6201 C   0  0  0  0  0  0  0  0  0  0  0  0
   -0.4512    0.8791   10.2139 C   0  0  2  0  0  0  0  0  0  0  0  0
   -0.0272   -0.2638    9.2703 C   0  0  0  0  0  0  0  0  0  0  0  0
   -0.2814    0.0709    7.9303 N   0  0  0  0  0  4  0  0  0  0  0  0
   -0.2658   -1.1119    7.0122 C   0  0  0  0  0  0  0  0  0  0  0  0
    0.7912   -1.9998    7.5254 C   0  0  0  0  0  0  0  0  0  0  0  0
    1.2907   -3.1606    6.8514 C   0  0  0  0  0  0  0  0  0  0  0  0
    0.9432   -3.3685    5.4940 C   0  0  0  0  0  0  0  0  0  0  0  0
    1.5027   -4.4815    5.0532 N   0  0  0  0  0  0  0  0  0  0  0  0
    2.1979   -5.0169    6.0426 C   0  0  0  0  0  0  0  0  0  0  0  0
    2.0842   -4.2130    7.1800 C   0  0  0  0  0  0  0  0  0  0  0  0
    2.7470   -4.6206    8.3133 C   0  0  0  0  0  0  0  0  0  0  0  0
    3.5042   -5.7694    8.3669 C   0  0  0  0  0  0  0  0  0  0  0  0
    3.6251   -6.5650    7.2643 C   0  0  0  0  0  0  0  0  0  0  0  0
    2.9699   -6.1756    6.1203 C   0  0  0  0  0  0  0  0  0  0  0  0
   -1.6289   -1.6659    6.8736 C   0  0  0  0  0  0  0  0  0  0  0  0
    0.1527   -0.4760    5.7047 C   0  0  0  0  0  0  0  0  0  0  0  0
    0.5335    1.8886   10.1856 O   0  0  0  0  0  0  0  0  0  0  0  0
  1  2  3  0
  2  3  1  0
  3  4  2  0
  4  5  1  0
  5  6  2  0
  6  7  1  0
  7  8  2  0
  8  9  1  0
  9 10  1  0
 10 11  1  0
 11 12  1  0
 12 13  1  0
 13 14  1  0
 14 15  1  0
 15 16  1  0
 16 17  2  0
 17 18  1  0
 18 19  1  0
 19 20  2  0
 20 21  1  0
 21 22  2  0
 22 23  1  0
 23 24  2  0
 14 25  1  0
 14 26  1  0
 11 27  1  1
  8  3  1  0
 20 16  1  0
 24 19  1  0
M  CHG  1  13   1
M  END
$$$$
