
     RDKit          3D

 27 29  0  0  0  0  0  0  0  0999 V2000
    3.6853   -6.0400    9.3800 N   0  0  0  0  0  0  0  0  0  0  0  0
    3.3726   -5.9002    8.2785 C   0  0  0  0  0  0  0  0  0  0  0  0
    2.9584   -5.7367    6.9010 C   0  0  0  0  0  0  0  0  0  0  0  0
    3.6608   -6.3403    5.8873 C   0  0  0  0  0  0  0  0  0  0  0  0
    3.2051   -6.1432    4.5921 C   0  0  0  0  0  0  0  0  0  0  0  0
    2.0969   -5.3750    4.3507 C   0  0  0  0  0  0  0  0  0  0  0  0
    1.4034   -4.7751    5.3974 C   0  0  0  0  0  0  0  0  0  0  0  0
    1.8194   -4.9434    6.6824 C   0  0  0  0  0  0  0  0  0  0  0  0
    1.1907   -4.3920    7.7355 O   0  0  0  0  0  0  0  0  0  0  0  0
   -0.1034   -3.9680    7.8849 C   0  0  0  0  0  0  0  0  0  0  0  0
   -0.4621   -3.3273    9.2041 C   0  0  2  0  0  0  0  0  0  0  0  0
   -0.3493   -1.8009    9.0205 C   0  0  0  0  0  0  0  0  0  0  0  0
   -1.3913   -1.1364    9.6876 N   0  0  0  0  0  4  0  0  0  0  0  0
   -1.3590    0.3492    9.5031 C   0  0  0  0  0  0  0  0  0  0  0  0
   -0.3828    0.8508   10.4852 C   0  0  0  0  0  0  0  0  0  0  0  0
   -0.5165    2.0651   11.2327 C   0  0  0  0  0  0  0  0  0  0  0  0
   -0.7405    3.2782   10.5365 C   0  0  0  0  0  0  0  0  0  0  0  0
   -0.8415    4.2766   11.3962 N   0  0  0  0  0  0  0  0  0  0  0  0
   -0.6970    3.7895   12.6172 C   0  0  0  0  0  0  0  0  0  0  0  0
   -0.4923    2.4090   12.5467 C   0  0  0  0  0  0  0  0  0  0  0  0
   -0.3202    1.7322   13.7307 C   0  0  0  0  0  0  0  0  0  0  0  0
   -0.3421    2.3532   14.9595 C   0  0  0  0  0  0  0  0  0  0  0  0
   -0.5412    3.7010   15.0449 C   0  0  0  0  0  0  0  0  0  0  0  0
   -0.7153    4.3968   13.8723 C   0  0  0  0  0  0  0  0  0  0  0  0
   -1.1414    0.6800    8.0793 C   0  0  0  0  0  0  0  0  0  0  0  0
   -2.7675    0.7350    9.8984 C   0  0  0  0  0  0  0  0  0  0  0  0
    0.5195   -3.7542   10.1226 O   0  0  0  0  0  0  0  0  0  0  0  0
  1  2  3  0
  2  3  1  0
  3  4  2  0
  4  5  1  0
  5  6  2  0
  6  7  1  0
  7  8  2  0
  8  9  1  0
  9 10  1  0
 10 11  1  0
 11 12  1  0
 12 13  1  0
 13 14  1  0
 14 15  1  0
 15 16  1  0
 16 17  2  0
 17 18  1  0
 18 19  1  0
 19 20  2  0
 20 21  1  0
 21 22  2  0
 22 23  1  0
 23 24  2  0
 14 25  1  0
 14 26  1  0
 11 27  1  1
  8  3  1  0
 20 16  1  0
 24 19  1  0
M  CHG  1  13   1
M  END
$$$$
