
     RDKit          3D

 27 29  0  0  0  0  0  0  0  0999 V2000
   -3.4071    4.2616    9.2599 N   0  0  0  0  0  0  0  0  0  0  0  0
   -3.1333    3.9021   10.3211 C   0  0  0  0  0  0  0  0  0  0  0  0
   -2.8141    3.4461   11.6576 C   0  0  0  0  0  0  0  0  0  0  0  0
   -3.0154    4.2675   12.7392 C   0  0  0  0  0  0  0  0  0  0  0  0
   -2.6907    3.7637   13.9902 C   0  0  0  0  0  0  0  0  0  0  0  0
   -2.1908    2.4954   14.1242 C   0  0  0  0  0  0  0  0  0  0  0  0
   -1.9971    1.6838   13.0105 C   0  0  0  0  0  0  0  0  0  0  0  0
   -2.3025    2.1419   11.7657 C   0  0  0  0  0  0  0  0  0  0  0  0
   -2.1400    1.4053   10.6524 O   0  0  0  0  0  0  0  0  0  0  0  0
   -1.6511    0.1371   10.4806 C   0  0  0  0  0  0  0  0  0  0  0  0
   -1.9985   -0.5571    9.1858 C   0  0  2  0  0  0  0  0  0  0  0  0
   -0.7877   -0.4073    8.2436 C   0  0  0  0  0  0  0  0  0  0  0  0
   -0.6343   -1.5473    7.4379 N   0  0  0  0  0  4  0  0  0  0  0  0
    0.3030   -1.3377    6.2891 C   0  0  0  0  0  0  0  0  0  0  0  0
    1.4685   -2.1946    6.5651 C   0  0  0  0  0  0  0  0  0  0  0  0
    1.4847   -3.6226    6.4566 C   0  0  0  0  0  0  0  0  0  0  0  0
    1.3996   -4.2141    5.1724 C   0  0  0  0  0  0  0  0  0  0  0  0
    1.4364   -5.5305    5.2815 N   0  0  0  0  0  0  0  0  0  0  0  0
    1.5411   -5.8381    6.5634 C   0  0  0  0  0  0  0  0  0  0  0  0
    1.5736   -4.6654    7.3226 C   0  0  0  0  0  0  0  0  0  0  0  0
    1.6797   -4.7961    8.6870 C   0  0  0  0  0  0  0  0  0  0  0  0
    1.7540   -6.0167    9.3199 C   0  0  0  0  0  0  0  0  0  0  0  0
    1.7236   -7.1712    8.5921 C   0  0  0  0  0  0  0  0  0  0  0  0
    1.6177   -7.0628    7.2259 C   0  0  0  0  0  0  0  0  0  0  0  0
   -0.4105   -1.5301    5.0092 C   0  0  0  0  0  0  0  0  0  0  0  0
    0.6589    0.1240    6.4503 C   0  0  0  0  0  0  0  0  0  0  0  0
   -3.0920    0.1521    8.6463 O   0  0  0  0  0  0  0  0  0  0  0  0
  1  2  3  0
  2  3  1  0
  3  4  2  0
  4  5  1  0
  5  6  2  0
  6  7  1  0
  7  8  2  0
  8  9  1  0
  9 10  1  0
 10 11  1  0
 11 12  1  0
 12 13  1  0
 13 14  1  0
 14 15  1  0
 15 16  1  0
 16 17  2  0
 17 18  1  0
 18 19  1  0
 19 20  2  0
 20 21  1  0
 21 22  2  0
 22 23  1  0
 23 24  2  0
 14 25  1  0
 14 26  1  0
 11 27  1  6
  8  3  1  0
 20 16  1  0
 24 19  1  0
M  CHG  1  13   1
M  END
$$$$
