
     RDKit          3D

 27 29  0  0  0  0  0  0  0  0999 V2000
   -4.2346   -0.6052   13.8429 N   0  0  0  0  0  0  0  0  0  0  0  0
   -3.9504    0.4991   13.6689 C   0  0  0  0  0  0  0  0  0  0  0  0
   -3.5846    1.8789   13.4279 C   0  0  0  0  0  0  0  0  0  0  0  0
   -4.0541    2.8761   14.2466 C   0  0  0  0  0  0  0  0  0  0  0  0
   -3.6602    4.1745   13.9586 C   0  0  0  0  0  0  0  0  0  0  0  0
   -2.8350    4.4349   12.8967 C   0  0  0  0  0  0  0  0  0  0  0  0
   -2.3732    3.4046   12.0831 C   0  0  0  0  0  0  0  0  0  0  0  0
   -2.7380    2.1171   12.3321 C   0  0  0  0  0  0  0  0  0  0  0  0
   -2.3232    1.0793   11.5842 O   0  0  0  0  0  0  0  0  0  0  0  0
   -1.5353    1.0403   10.4642 C   0  0  0  0  0  0  0  0  0  0  0  0
   -1.3404   -0.3089    9.8153 C   0  0  2  0  0  0  0  0  0  0  0  0
   -0.4882   -0.0922    8.5491 C   0  0  0  0  0  0  0  0  0  0  0  0
   -0.3235   -1.2948    7.8428 N   0  0  0  0  0  4  0  0  0  0  0  0
    0.5915   -1.1678    6.6643 C   0  0  0  0  0  0  0  0  0  0  0  0
    0.6410   -2.5067    6.0530 C   0  0  0  0  0  0  0  0  0  0  0  0
    1.1635   -3.6814    6.6841 C   0  0  0  0  0  0  0  0  0  0  0  0
    2.1230   -3.5366    7.7160 C   0  0  0  0  0  0  0  0  0  0  0  0
    2.4744   -4.7261    8.1719 N   0  0  0  0  0  0  0  0  0  0  0  0
    1.8010   -5.6441    7.4991 C   0  0  0  0  0  0  0  0  0  0  0  0
    0.9730   -5.0208    6.5617 C   0  0  0  0  0  0  0  0  0  0  0  0
    0.1948   -5.8284    5.7668 C   0  0  0  0  0  0  0  0  0  0  0  0
    0.2013   -7.2022    5.8594 C   0  0  0  0  0  0  0  0  0  0  0  0
    1.0045   -7.8259    6.7701 C   0  0  0  0  0  0  0  0  0  0  0  0
    1.7911   -7.0365    7.5749 C   0  0  0  0  0  0  0  0  0  0  0  0
    0.1720   -0.0336    5.8148 C   0  0  0  0  0  0  0  0  0  0  0  0
    1.9058   -0.8331    7.3350 C   0  0  0  0  0  0  0  0  0  0  0  0
   -2.6264   -0.7463    9.4353 O   0  0  0  0  0  0  0  0  0  0  0  0
  1  2  3  0
  2  3  1  0
  3  4  2  0
  4  5  1  0
  5  6  2  0
  6  7  1  0
  7  8  2  0
  8  9  1  0
  9 10  1  0
 10 11  1  0
 11 12  1  0
 12 13  1  0
 13 14  1  0
 14 15  1  0
 15 16  1  0
 16 17  2  0
 17 18  1  0
 18 19  1  0
 19 20  2  0
 20 21  1  0
 21 22  2  0
 22 23  1  0
 23 24  2  0
 14 25  1  0
 14 26  1  0
 11 27  1  6
  8  3  1  0
 20 16  1  0
 24 19  1  0
M  CHG  1  13   1
M  END
$$$$
