
     RDKit          3D

 27 29  0  0  0  0  0  0  0  0999 V2000
    0.5775   -0.7295   13.1350 N   0  0  0  0  0  0  0  0  0  0  0  0
    0.4465    0.4151   13.1897 C   0  0  0  0  0  0  0  0  0  0  0  0
    0.2570    1.8487   13.2600 C   0  0  0  0  0  0  0  0  0  0  0  0
    0.5835    2.5382   14.4016 C   0  0  0  0  0  0  0  0  0  0  0  0
    0.3790    3.9101   14.3970 C   0  0  0  0  0  0  0  0  0  0  0  0
   -0.1285    4.5371   13.2899 C   0  0  0  0  0  0  0  0  0  0  0  0
   -0.4505    3.8136   12.1455 C   0  0  0  0  0  0  0  0  0  0  0  0
   -0.2654    2.4656   12.1107 C   0  0  0  0  0  0  0  0  0  0  0  0
   -0.5549    1.7127   11.0347 O   0  0  0  0  0  0  0  0  0  0  0  0
   -1.0789    2.0554    9.8162 C   0  0  0  0  0  0  0  0  0  0  0  0
   -1.4734    0.9211    8.9012 C   0  0  2  0  0  0  0  0  0  0  0  0
   -0.6665   -0.3198    9.3317 C   0  0  0  0  0  0  0  0  0  0  0  0
   -0.9853   -1.4287    8.5311 N   0  0  0  0  0  4  0  0  0  0  0  0
   -0.3170   -2.6921    8.9776 C   0  0  0  0  0  0  0  0  0  0  0  0
   -0.2338   -3.5432    7.7786 C   0  0  0  0  0  0  0  0  0  0  0  0
    0.9417   -3.7315    6.9824 C   0  0  0  0  0  0  0  0  0  0  0  0
    1.5676   -2.5996    6.4049 C   0  0  0  0  0  0  0  0  0  0  0  0
    2.6314   -2.9770    5.7179 N   0  0  0  0  0  0  0  0  0  0  0  0
    2.7407   -4.2917    5.8107 C   0  0  0  0  0  0  0  0  0  0  0  0
    1.6980   -4.7915    6.5955 C   0  0  0  0  0  0  0  0  0  0  0  0
    1.6530   -6.1502    6.7995 C   0  0  0  0  0  0  0  0  0  0  0  0
    2.5801   -7.0192    6.2692 C   0  0  0  0  0  0  0  0  0  0  0  0
    3.6045   -6.5465    5.5008 C   0  0  0  0  0  0  0  0  0  0  0  0
    3.6678   -5.1905    5.2843 C   0  0  0  0  0  0  0  0  0  0  0  0
    0.9378   -2.3782    9.6925 C   0  0  0  0  0  0  0  0  0  0  0  0
   -1.3296   -3.2410    9.9586 C   0  0  0  0  0  0  0  0  0  0  0  0
   -1.0680    1.3076    7.6067 O   0  0  0  0  0  0  0  0  0  0  0  0
  1  2  3  0
  2  3  1  0
  3  4  2  0
  4  5  1  0
  5  6  2  0
  6  7  1  0
  7  8  2  0
  8  9  1  0
  9 10  1  0
 10 11  1  0
 11 12  1  0
 12 13  1  0
 13 14  1  0
 14 15  1  0
 15 16  1  0
 16 17  2  0
 17 18  1  0
 18 19  1  0
 19 20  2  0
 20 21  1  0
 21 22  2  0
 22 23  1  0
 23 24  2  0
 14 25  1  0
 14 26  1  0
 11 27  1  6
  8  3  1  0
 20 16  1  0
 24 19  1  0
M  CHG  1  13   1
M  END
$$$$
