
     RDKit          3D

 27 29  0  0  0  0  0  0  0  0999 V2000
   -0.6731   -6.3661    7.1301 N   0  0  0  0  0  0  0  0  0  0  0  0
    0.4659   -6.2201    7.2383 C   0  0  0  0  0  0  0  0  0  0  0  0
    1.8942   -6.0451    7.3979 C   0  0  0  0  0  0  0  0  0  0  0  0
    2.7253   -7.1360    7.4646 C   0  0  0  0  0  0  0  0  0  0  0  0
    4.0828   -6.8937    7.6143 C   0  0  0  0  0  0  0  0  0  0  0  0
    4.5594   -5.6117    7.6905 C   0  0  0  0  0  0  0  0  0  0  0  0
    3.6943   -4.5240    7.6196 C   0  0  0  0  0  0  0  0  0  0  0  0
    2.3553   -4.7200    7.4738 C   0  0  0  0  0  0  0  0  0  0  0  0
    1.4700   -3.7107    7.3969 O   0  0  0  0  0  0  0  0  0  0  0  0
    1.6440   -2.3561    7.5049 C   0  0  0  0  0  0  0  0  0  0  0  0
    0.6159   -1.4814    6.8286 C   0  0  2  0  0  0  0  0  0  0  0  0
   -0.3575   -0.9887    7.9176 C   0  0  0  0  0  0  0  0  0  0  0  0
    0.0054    0.2886    8.3749 N   0  0  0  0  0  4  0  0  0  0  0  0
   -0.9930    0.8845    9.3185 C   0  0  0  0  0  0  0  0  0  0  0  0
   -1.0296   -0.0185   10.4814 C   0  0  0  0  0  0  0  0  0  0  0  0
   -0.3800    0.2256   11.7342 C   0  0  0  0  0  0  0  0  0  0  0  0
   -1.0553    0.9856   12.7205 C   0  0  0  0  0  0  0  0  0  0  0  0
   -0.2993    1.0939   13.7989 N   0  0  0  0  0  0  0  0  0  0  0  0
    0.8337    0.4487   13.5782 C   0  0  0  0  0  0  0  0  0  0  0  0
    0.8122   -0.1048   12.2952 C   0  0  0  0  0  0  0  0  0  0  0  0
    1.9179   -0.8155   11.8926 C   0  0  0  0  0  0  0  0  0  0  0  0
    3.0239   -0.9983   12.6923 C   0  0  0  0  0  0  0  0  0  0  0  0
    3.0600   -0.4641   13.9480 C   0  0  0  0  0  0  0  0  0  0  0  0
    1.9643    0.2506   14.3701 C   0  0  0  0  0  0  0  0  0  0  0  0
   -0.6795    2.3089    9.5573 C   0  0  0  0  0  0  0  0  0  0  0  0
   -2.2706    0.7798    8.5149 C   0  0  0  0  0  0  0  0  0  0  0  0
   -0.0804   -2.3211    5.9344 O   0  0  0  0  0  0  0  0  0  0  0  0
  1  2  3  0
  2  3  1  0
  3  4  2  0
  4  5  1  0
  5  6  2  0
  6  7  1  0
  7  8  2  0
  8  9  1  0
  9 10  1  0
 10 11  1  0
 11 12  1  0
 12 13  1  0
 13 14  1  0
 14 15  1  0
 15 16  1  0
 16 17  2  0
 17 18  1  0
 18 19  1  0
 19 20  2  0
 20 21  1  0
 21 22  2  0
 22 23  1  0
 23 24  2  0
 14 25  1  0
 14 26  1  0
 11 27  1  6
  8  3  1  0
 20 16  1  0
 24 19  1  0
M  CHG  1  13   1
M  END
$$$$
