
     RDKit          3D

 27 29  0  0  0  0  0  0  0  0999 V2000
    3.6848   -0.7713   15.3452 N   0  0  0  0  0  0  0  0  0  0  0  0
    2.9903    0.1488   15.3065 C   0  0  0  0  0  0  0  0  0  0  0  0
    2.1370    1.3168   15.2468 C   0  0  0  0  0  0  0  0  0  0  0  0
    1.9831    2.1226   16.3478 C   0  0  0  0  0  0  0  0  0  0  0  0
    1.1532    3.2264   16.2178 C   0  0  0  0  0  0  0  0  0  0  0  0
    0.5203    3.4886   15.0316 C   0  0  0  0  0  0  0  0  0  0  0  0
    0.6945    2.6551   13.9309 C   0  0  0  0  0  0  0  0  0  0  0  0
    1.5000    1.5613   14.0185 C   0  0  0  0  0  0  0  0  0  0  0  0
    1.7099    0.7203   12.9904 O   0  0  0  0  0  0  0  0  0  0  0  0
    1.2636    0.7590   11.6958 C   0  0  0  0  0  0  0  0  0  0  0  0
    1.7185   -0.3558   10.7850 C   0  0  2  0  0  0  0  0  0  0  0  0
    0.9225   -0.2308    9.4709 C   0  0  0  0  0  0  0  0  0  0  0  0
    0.5248   -1.4937    9.0026 N   0  0  0  0  0  4  0  0  0  0  0  0
   -0.2400   -1.4335    7.7167 C   0  0  0  0  0  0  0  0  0  0  0  0
   -0.3344   -2.8253    7.2445 C   0  0  0  0  0  0  0  0  0  0  0  0
    0.6737   -3.8264    7.4255 C   0  0  0  0  0  0  0  0  0  0  0  0
    1.1212   -4.1201    8.7370 C   0  0  0  0  0  0  0  0  0  0  0  0
    2.0410   -5.0680    8.6954 N   0  0  0  0  0  0  0  0  0  0  0  0
    2.2235   -5.4142    7.4321 C   0  0  0  0  0  0  0  0  0  0  0  0
    1.3820   -4.6548    6.6148 C   0  0  0  0  0  0  0  0  0  0  0  0
    1.4391   -4.8826    5.2603 C   0  0  0  0  0  0  0  0  0  0  0  0
    2.2786   -5.8139    4.6912 C   0  0  0  0  0  0  0  0  0  0  0  0
    3.1064   -6.5636    5.4762 C   0  0  0  0  0  0  0  0  0  0  0  0
    3.0651   -6.3513    6.8337 C   0  0  0  0  0  0  0  0  0  0  0  0
   -1.4971   -0.6803    7.9077 C   0  0  0  0  0  0  0  0  0  0  0  0
    0.6981   -0.6306    6.8425 C   0  0  0  0  0  0  0  0  0  0  0  0
    1.3562   -1.5566   11.4303 O   0  0  0  0  0  0  0  0  0  0  0  0
  1  2  3  0
  2  3  1  0
  3  4  2  0
  4  5  1  0
  5  6  2  0
  6  7  1  0
  7  8  2  0
  8  9  1  0
  9 10  1  0
 10 11  1  0
 11 12  1  0
 12 13  1  0
 13 14  1  0
 14 15  1  0
 15 16  1  0
 16 17  2  0
 17 18  1  0
 18 19  1  0
 19 20  2  0
 20 21  1  0
 21 22  2  0
 22 23  1  0
 23 24  2  0
 14 25  1  0
 14 26  1  0
 11 27  1  1
  8  3  1  0
 20 16  1  0
 24 19  1  0
M  CHG  1  13   1
M  END
$$$$
