
     RDKit          3D

 27 29  0  0  0  0  0  0  0  0999 V2000
    4.0446   -1.9593   13.7773 N   0  0  0  0  0  0  0  0  0  0  0  0
    3.2932   -1.1140   14.0032 C   0  0  0  0  0  0  0  0  0  0  0  0
    2.3410   -0.0664   14.3061 C   0  0  0  0  0  0  0  0  0  0  0  0
    2.5987    0.8403   15.3044 C   0  0  0  0  0  0  0  0  0  0  0  0
    1.6438    1.8190   15.5376 C   0  0  0  0  0  0  0  0  0  0  0  0
    0.4952    1.8658   14.7926 C   0  0  0  0  0  0  0  0  0  0  0  0
    0.2596    0.9342   13.7861 C   0  0  0  0  0  0  0  0  0  0  0  0
    1.1717   -0.0424   13.5272 C   0  0  0  0  0  0  0  0  0  0  0  0
    1.0024   -0.9688   12.5673 O   0  0  0  0  0  0  0  0  0  0  0  0
   -0.1362   -1.5456   12.0696 C   0  0  0  0  0  0  0  0  0  0  0  0
   -0.1207   -1.9352   10.6111 C   0  0  2  0  0  0  0  0  0  0  0  0
    0.9552   -3.0254   10.4371 C   0  0  0  0  0  0  0  0  0  0  0  0
    0.9798   -3.5003    9.1157 N   0  0  0  0  0  4  0  0  0  0  0  0
    2.0805   -4.4829    8.8608 C   0  0  0  0  0  0  0  0  0  0  0  0
    1.7120   -5.1792    7.6165 C   0  0  0  0  0  0  0  0  0  0  0  0
    1.3694   -4.5362    6.3835 C   0  0  0  0  0  0  0  0  0  0  0  0
    1.1411   -3.1383    6.3791 C   0  0  0  0  0  0  0  0  0  0  0  0
    0.8461   -2.7358    5.1555 N   0  0  0  0  0  0  0  0  0  0  0  0
    0.8674   -3.7887    4.3556 C   0  0  0  0  0  0  0  0  0  0  0  0
    1.1918   -4.9291    5.0953 C   0  0  0  0  0  0  0  0  0  0  0  0
    1.2589   -6.1248    4.4205 C   0  0  0  0  0  0  0  0  0  0  0  0
    1.0229   -6.2371    3.0685 C   0  0  0  0  0  0  0  0  0  0  0  0
    0.7052   -5.1324    2.3322 C   0  0  0  0  0  0  0  0  0  0  0  0
    0.6327   -3.9265    2.9880 C   0  0  0  0  0  0  0  0  0  0  0  0
    3.3913   -3.8023    8.9114 C   0  0  0  0  0  0  0  0  0  0  0  0
    1.9473   -5.4043   10.0534 C   0  0  0  0  0  0  0  0  0  0  0  0
    0.2757   -0.7804    9.9050 O   0  0  0  0  0  0  0  0  0  0  0  0
  1  2  3  0
  2  3  1  0
  3  4  2  0
  4  5  1  0
  5  6  2  0
  6  7  1  0
  7  8  2  0
  8  9  1  0
  9 10  1  0
 10 11  1  0
 11 12  1  0
 12 13  1  0
 13 14  1  0
 14 15  1  0
 15 16  1  0
 16 17  2  0
 17 18  1  0
 18 19  1  0
 19 20  2  0
 20 21  1  0
 21 22  2  0
 22 23  1  0
 23 24  2  0
 14 25  1  0
 14 26  1  0
 11 27  1  6
  8  3  1  0
 20 16  1  0
 24 19  1  0
M  CHG  1  13   1
M  END
$$$$
