
     RDKit          3D

 27 29  0  0  0  0  0  0  0  0999 V2000
   -3.7913    4.8122   10.3619 N   0  0  0  0  0  0  0  0  0  0  0  0
   -3.1127    4.2964   11.1390 C   0  0  0  0  0  0  0  0  0  0  0  0
   -2.2782    3.6534   12.1320 C   0  0  0  0  0  0  0  0  0  0  0  0
   -1.8719    4.3404   13.2493 C   0  0  0  0  0  0  0  0  0  0  0  0
   -1.0768    3.6608   14.1603 C   0  0  0  0  0  0  0  0  0  0  0  0
   -0.7205    2.3566   13.9400 C   0  0  0  0  0  0  0  0  0  0  0  0
   -1.1470    1.6839   12.7988 C   0  0  0  0  0  0  0  0  0  0  0  0
   -1.9275    2.3163   11.8804 C   0  0  0  0  0  0  0  0  0  0  0  0
   -2.3727    1.7197   10.7604 O   0  0  0  0  0  0  0  0  0  0  0  0
   -2.7848    0.4330   10.5339 C   0  0  0  0  0  0  0  0  0  0  0  0
   -2.8203   -0.0276    9.0966 C   0  0  2  0  0  0  0  0  0  0  0  0
   -1.3866   -0.4421    8.7103 C   0  0  0  0  0  0  0  0  0  0  0  0
   -1.3955   -1.3155    7.6106 N   0  0  0  0  0  4  0  0  0  0  0  0
   -0.0335   -1.8176    7.2433 C   0  0  0  0  0  0  0  0  0  0  0  0
    0.1008   -3.1254    7.9071 C   0  0  0  0  0  0  0  0  0  0  0  0
    0.9127   -4.2077    7.4376 C   0  0  0  0  0  0  0  0  0  0  0  0
    0.7450   -4.6643    6.1073 C   0  0  0  0  0  0  0  0  0  0  0  0
    1.5832   -5.6566    5.8646 N   0  0  0  0  0  0  0  0  0  0  0  0
    2.2922   -5.8783    6.9587 C   0  0  0  0  0  0  0  0  0  0  0  0
    1.8952   -4.9873    7.9594 C   0  0  0  0  0  0  0  0  0  0  0  0
    2.5305   -5.0755    9.1753 C   0  0  0  0  0  0  0  0  0  0  0  0
    3.5244   -5.9916    9.4374 C   0  0  0  0  0  0  0  0  0  0  0  0
    3.9234   -6.8684    8.4702 C   0  0  0  0  0  0  0  0  0  0  0  0
    3.3007   -6.7972    7.2469 C   0  0  0  0  0  0  0  0  0  0  0  0
    0.1505   -1.7627    5.7779 C   0  0  0  0  0  0  0  0  0  0  0  0
    0.8577   -0.7863    7.8999 C   0  0  0  0  0  0  0  0  0  0  0  0
   -3.1940    1.1003    8.3366 O   0  0  0  0  0  0  0  0  0  0  0  0
  1  2  3  0
  2  3  1  0
  3  4  2  0
  4  5  1  0
  5  6  2  0
  6  7  1  0
  7  8  2  0
  8  9  1  0
  9 10  1  0
 10 11  1  0
 11 12  1  0
 12 13  1  0
 13 14  1  0
 14 15  1  0
 15 16  1  0
 16 17  2  0
 17 18  1  0
 18 19  1  0
 19 20  2  0
 20 21  1  0
 21 22  2  0
 22 23  1  0
 23 24  2  0
 14 25  1  0
 14 26  1  0
 11 27  1  6
  8  3  1  0
 20 16  1  0
 24 19  1  0
M  CHG  1  13   1
M  END
$$$$
