
     RDKit          3D

 27 29  0  0  0  0  0  0  0  0999 V2000
   -1.7169    4.0271    7.8319 N   0  0  0  0  0  0  0  0  0  0  0  0
   -1.9912    3.8533    8.9387 C   0  0  0  0  0  0  0  0  0  0  0  0
   -2.3567    3.6484   10.3245 C   0  0  0  0  0  0  0  0  0  0  0  0
   -3.2576    4.4841   10.9370 C   0  0  0  0  0  0  0  0  0  0  0  0
   -3.5637    4.2265   12.2651 C   0  0  0  0  0  0  0  0  0  0  0  0
   -2.9824    3.1762   12.9249 C   0  0  0  0  0  0  0  0  0  0  0  0
   -2.0725    2.3443   12.2795 C   0  0  0  0  0  0  0  0  0  0  0  0
   -1.7451    2.5646   10.9768 C   0  0  0  0  0  0  0  0  0  0  0  0
   -0.8753    1.7952   10.2985 O   0  0  0  0  0  0  0  0  0  0  0  0
   -0.1708    0.6854   10.6845 C   0  0  0  0  0  0  0  0  0  0  0  0
    0.8089    0.1192    9.6850 C   0  0  2  0  0  0  0  0  0  0  0  0
    0.0447   -0.9009    8.8181 C   0  0  0  0  0  0  0  0  0  0  0  0
    0.8154   -1.2984    7.7134 N   0  0  0  0  0  4  0  0  0  0  0  0
    0.1056   -2.2615    6.8130 C   0  0  0  0  0  0  0  0  0  0  0  0
    0.1788   -3.5672    7.4903 C   0  0  0  0  0  0  0  0  0  0  0  0
    1.3530   -4.3818    7.5836 C   0  0  0  0  0  0  0  0  0  0  0  0
    1.9194   -4.9074    6.3964 C   0  0  0  0  0  0  0  0  0  0  0  0
    2.9921   -5.6214    6.6891 N   0  0  0  0  0  0  0  0  0  0  0  0
    3.1633   -5.5951    8.0002 C   0  0  0  0  0  0  0  0  0  0  0  0
    2.1535   -4.8274    8.5865 C   0  0  0  0  0  0  0  0  0  0  0  0
    2.1738   -4.6911    9.9542 C   0  0  0  0  0  0  0  0  0  0  0  0
    3.1345   -5.2719   10.7515 C   0  0  0  0  0  0  0  0  0  0  0  0
    4.1275   -6.0245   10.1938 C   0  0  0  0  0  0  0  0  0  0  0  0
    4.1254   -6.1737    8.8273 C   0  0  0  0  0  0  0  0  0  0  0  0
   -1.2309   -1.7378    6.4611 C   0  0  0  0  0  0  0  0  0  0  0  0
    0.9916   -2.2403    5.5868 C   0  0  0  0  0  0  0  0  0  0  0  0
    1.7862   -0.5604   10.4417 O   0  0  0  0  0  0  0  0  0  0  0  0
  1  2  3  0
  2  3  1  0
  3  4  2  0
  4  5  1  0
  5  6  2  0
  6  7  1  0
  7  8  2  0
  8  9  1  0
  9 10  1  0
 10 11  1  0
 11 12  1  0
 12 13  1  0
 13 14  1  0
 14 15  1  0
 15 16  1  0
 16 17  2  0
 17 18  1  0
 18 19  1  0
 19 20  2  0
 20 21  1  0
 21 22  2  0
 22 23  1  0
 23 24  2  0
 14 25  1  0
 14 26  1  0
 11 27  1  1
  8  3  1  0
 20 16  1  0
 24 19  1  0
M  CHG  1  13   1
M  END
$$$$
