
     RDKit          3D

 27 29  0  0  0  0  0  0  0  0999 V2000
    2.8347   -4.6084    9.1120 N   0  0  0  0  0  0  0  0  0  0  0  0
    2.4129   -4.9019    8.0793 C   0  0  0  0  0  0  0  0  0  0  0  0
    1.8656   -5.2526    6.7857 C   0  0  0  0  0  0  0  0  0  0  0  0
    2.0875   -6.4976    6.2511 C   0  0  0  0  0  0  0  0  0  0  0  0
    1.5301   -6.7658    5.0095 C   0  0  0  0  0  0  0  0  0  0  0  0
    0.7901   -5.8161    4.3562 C   0  0  0  0  0  0  0  0  0  0  0  0
    0.5804   -4.5620    4.9216 C   0  0  0  0  0  0  0  0  0  0  0  0
    1.1115   -4.2596    6.1379 C   0  0  0  0  0  0  0  0  0  0  0  0
    0.9424   -3.0675    6.7366 O   0  0  0  0  0  0  0  0  0  0  0  0
    0.1062   -2.0246    6.4363 C   0  0  0  0  0  0  0  0  0  0  0  0
    0.2812   -0.7584    7.2396 C   0  0  2  0  0  0  0  0  0  0  0  0
   -0.0694   -1.0897    8.7037 C   0  0  0  0  0  0  0  0  0  0  0  0
    0.1323    0.0255    9.5331 N   0  0  0  0  0  4  0  0  0  0  0  0
   -0.1266   -0.2593   10.9802 C   0  0  0  0  0  0  0  0  0  0  0  0
   -1.3758    0.4485   11.3076 C   0  0  0  0  0  0  0  0  0  0  0  0
   -1.4631    1.8177   11.7187 C   0  0  0  0  0  0  0  0  0  0  0  0
   -0.7531    2.2345   12.8713 C   0  0  0  0  0  0  0  0  0  0  0  0
   -0.9547    3.5236   13.0806 N   0  0  0  0  0  0  0  0  0  0  0  0
   -1.7561    3.9779   12.1318 C   0  0  0  0  0  0  0  0  0  0  0  0
   -2.0908    2.9338   11.2653 C   0  0  0  0  0  0  0  0  0  0  0  0
   -2.9241    3.2265   10.2120 C   0  0  0  0  0  0  0  0  0  0  0  0
   -3.4307    4.4864    9.9841 C   0  0  0  0  0  0  0  0  0  0  0  0
   -3.1130    5.5167   10.8214 C   0  0  0  0  0  0  0  0  0  0  0  0
   -2.2809    5.2454   11.8814 C   0  0  0  0  0  0  0  0  0  0  0  0
   -0.0694   -1.7148   11.2300 C   0  0  0  0  0  0  0  0  0  0  0  0
    1.0600    0.4098   11.6385 C   0  0  0  0  0  0  0  0  0  0  0  0
   -0.6670    0.1557    6.7348 O   0  0  0  0  0  0  0  0  0  0  0  0
  1  2  3  0
  2  3  1  0
  3  4  2  0
  4  5  1  0
  5  6  2  0
  6  7  1  0
  7  8  2  0
  8  9  1  0
  9 10  1  0
 10 11  1  0
 11 12  1  0
 12 13  1  0
 13 14  1  0
 14 15  1  0
 15 16  1  0
 16 17  2  0
 17 18  1  0
 18 19  1  0
 19 20  2  0
 20 21  1  0
 21 22  2  0
 22 23  1  0
 23 24  2  0
 14 25  1  0
 14 26  1  0
 11 27  1  6
  8  3  1  0
 20 16  1  0
 24 19  1  0
M  CHG  1  13   1
M  END
$$$$
