
     RDKit          3D

 27 29  0  0  0  0  0  0  0  0999 V2000
   -0.1709    2.4496   13.7357 N   0  0  0  0  0  0  0  0  0  0  0  0
   -0.7627    3.1570   13.0430 C   0  0  0  0  0  0  0  0  0  0  0  0
   -1.5171    4.0545   12.1937 C   0  0  0  0  0  0  0  0  0  0  0  0
   -1.5167    5.4060   12.4362 C   0  0  0  0  0  0  0  0  0  0  0  0
   -2.2586    6.2065   11.5801 C   0  0  0  0  0  0  0  0  0  0  0  0
   -2.9577    5.6555   10.5389 C   0  0  0  0  0  0  0  0  0  0  0  0
   -2.9402    4.2820   10.3158 C   0  0  0  0  0  0  0  0  0  0  0  0
   -2.2250    3.4625   11.1342 C   0  0  0  0  0  0  0  0  0  0  0  0
   -2.1670    2.1292   10.9689 O   0  0  0  0  0  0  0  0  0  0  0  0
   -2.4550    1.3479    9.8810 C   0  0  0  0  0  0  0  0  0  0  0  0
   -2.3546   -0.1466   10.0701 C   0  0  2  0  0  0  0  0  0  0  0  0
   -0.9559   -0.5789    9.5873 C   0  0  0  0  0  0  0  0  0  0  0  0
   -0.4711   -1.6535   10.3506 N   0  0  0  0  0  4  0  0  0  0  0  0
    0.8212   -2.2083    9.8367 C   0  0  0  0  0  0  0  0  0  0  0  0
    0.4595   -3.0707    8.6990 C   0  0  0  0  0  0  0  0  0  0  0  0
    1.3367   -4.0087    8.0651 C   0  0  0  0  0  0  0  0  0  0  0  0
    2.3272   -4.6561    8.8437 C   0  0  0  0  0  0  0  0  0  0  0  0
    3.0258   -5.4819    8.0846 N   0  0  0  0  0  0  0  0  0  0  0  0
    2.5514   -5.4144    6.8520 C   0  0  0  0  0  0  0  0  0  0  0  0
    1.4944   -4.5013    6.8090 C   0  0  0  0  0  0  0  0  0  0  0  0
    0.8775   -4.3021    5.5968 C   0  0  0  0  0  0  0  0  0  0  0  0
    1.2558   -4.9571    4.4462 C   0  0  0  0  0  0  0  0  0  0  0  0
    2.2862   -5.8520    4.4720 C   0  0  0  0  0  0  0  0  0  0  0  0
    2.9170   -6.0659    5.6745 C   0  0  0  0  0  0  0  0  0  0  0  0
    1.7848   -1.1137    9.5970 C   0  0  0  0  0  0  0  0  0  0  0  0
    1.2858   -3.0369   11.0143 C   0  0  0  0  0  0  0  0  0  0  0  0
   -3.3294   -0.7116    9.2217 O   0  0  0  0  0  0  0  0  0  0  0  0
  1  2  3  0
  2  3  1  0
  3  4  2  0
  4  5  1  0
  5  6  2  0
  6  7  1  0
  7  8  2  0
  8  9  1  0
  9 10  1  0
 10 11  1  0
 11 12  1  0
 12 13  1  0
 13 14  1  0
 14 15  1  0
 15 16  1  0
 16 17  2  0
 17 18  1  0
 18 19  1  0
 19 20  2  0
 20 21  1  0
 21 22  2  0
 22 23  1  0
 23 24  2  0
 14 25  1  0
 14 26  1  0
 11 27  1  6
  8  3  1  0
 20 16  1  0
 24 19  1  0
M  CHG  1  13   1
M  END
$$$$
