
     RDKit          3D

 27 29  0  0  0  0  0  0  0  0999 V2000
    0.9168    2.0121   13.1520 N   0  0  0  0  0  0  0  0  0  0  0  0
   -0.0280    2.5855   12.8220 C   0  0  0  0  0  0  0  0  0  0  0  0
   -1.2255    3.2833   12.4036 C   0  0  0  0  0  0  0  0  0  0  0  0
   -1.4176    4.5998   12.7428 C   0  0  0  0  0  0  0  0  0  0  0  0
   -2.5860    5.2059   12.3051 C   0  0  0  0  0  0  0  0  0  0  0  0
   -3.5011    4.5056   11.5645 C   0  0  0  0  0  0  0  0  0  0  0  0
   -3.2807    3.1718   11.2344 C   0  0  0  0  0  0  0  0  0  0  0  0
   -2.1470    2.5410   11.6459 C   0  0  0  0  0  0  0  0  0  0  0  0
   -1.8763    1.2558   11.3572 O   0  0  0  0  0  0  0  0  0  0  0  0
   -2.6443    0.2905   10.7611 C   0  0  0  0  0  0  0  0  0  0  0  0
   -1.9563   -1.0068   10.4105 C   0  0  2  0  0  0  0  0  0  0  0  0
   -0.9638   -0.7080    9.2694 C   0  0  0  0  0  0  0  0  0  0  0  0
   -0.8130   -1.8238    8.4300 N   0  0  0  0  0  4  0  0  0  0  0  0
    0.1014   -1.5726    7.2711 C   0  0  0  0  0  0  0  0  0  0  0  0
    1.4079   -2.1239    7.6685 C   0  0  0  0  0  0  0  0  0  0  0  0
    1.6978   -3.5166    7.8349 C   0  0  0  0  0  0  0  0  0  0  0  0
    1.9112   -4.0216    9.1410 C   0  0  0  0  0  0  0  0  0  0  0  0
    2.1565   -5.3189    9.0857 N   0  0  0  0  0  0  0  0  0  0  0  0
    2.1165   -5.6954    7.8186 C   0  0  0  0  0  0  0  0  0  0  0  0
    1.8316   -4.5898    7.0129 C   0  0  0  0  0  0  0  0  0  0  0  0
    1.7520   -4.7974    5.6564 C   0  0  0  0  0  0  0  0  0  0  0  0
    1.9388   -6.0312    5.0743 C   0  0  0  0  0  0  0  0  0  0  0  0
    2.2175   -7.1209    5.8479 C   0  0  0  0  0  0  0  0  0  0  0  0
    2.3018   -6.9350    7.2072 C   0  0  0  0  0  0  0  0  0  0  0  0
   -0.5108   -2.0733    6.0227 C   0  0  0  0  0  0  0  0  0  0  0  0
    0.1422   -0.0605    7.2386 C   0  0  0  0  0  0  0  0  0  0  0  0
   -2.9671   -1.8644    9.9286 O   0  0  0  0  0  0  0  0  0  0  0  0
  1  2  3  0
  2  3  1  0
  3  4  2  0
  4  5  1  0
  5  6  2  0
  6  7  1  0
  7  8  2  0
  8  9  1  0
  9 10  1  0
 10 11  1  0
 11 12  1  0
 12 13  1  0
 13 14  1  0
 14 15  1  0
 15 16  1  0
 16 17  2  0
 17 18  1  0
 18 19  1  0
 19 20  2  0
 20 21  1  0
 21 22  2  0
 22 23  1  0
 23 24  2  0
 14 25  1  0
 14 26  1  0
 11 27  1  6
  8  3  1  0
 20 16  1  0
 24 19  1  0
M  CHG  1  13   1
M  END
$$$$
