
     RDKit          3D

 27 29  0  0  0  0  0  0  0  0999 V2000
    0.2250   -0.6047   12.1240 N   0  0  0  0  0  0  0  0  0  0  0  0
   -0.3348    0.4012   12.0504 C   0  0  0  0  0  0  0  0  0  0  0  0
   -1.0206    1.6738   11.9740 C   0  0  0  0  0  0  0  0  0  0  0  0
   -1.1821    2.4454   13.0982 C   0  0  0  0  0  0  0  0  0  0  0  0
   -1.8459    3.6544   12.9505 C   0  0  0  0  0  0  0  0  0  0  0  0
   -2.3149    4.0487   11.7253 C   0  0  0  0  0  0  0  0  0  0  0  0
   -2.1369    3.2470   10.6019 C   0  0  0  0  0  0  0  0  0  0  0  0
   -1.4916    2.0530   10.7056 C   0  0  0  0  0  0  0  0  0  0  0  0
   -1.2868    1.2360    9.6573 O   0  0  0  0  0  0  0  0  0  0  0  0
   -0.6237    1.4427    8.4765 C   0  0  0  0  0  0  0  0  0  0  0  0
   -0.9817    0.5329    7.3261 C   0  0  2  0  0  0  0  0  0  0  0  0
   -0.4086   -0.8619    7.6463 C   0  0  0  0  0  0  0  0  0  0  0  0
   -0.6713   -1.7644    6.6029 N   0  0  0  0  0  4  0  0  0  0  0  0
   -0.1455   -3.1415    6.8659 C   0  0  0  0  0  0  0  0  0  0  0  0
    1.3154   -2.9946    6.9798 C   0  0  0  0  0  0  0  0  0  0  0  0
    2.2166   -4.0259    7.3983 C   0  0  0  0  0  0  0  0  0  0  0  0
    2.6398   -4.9924    6.4531 C   0  0  0  0  0  0  0  0  0  0  0  0
    3.4672   -5.8484    7.0265 N   0  0  0  0  0  0  0  0  0  0  0  0
    3.6123   -5.5000    8.2940 C   0  0  0  0  0  0  0  0  0  0  0  0
    2.8422   -4.3637    8.5558 C   0  0  0  0  0  0  0  0  0  0  0  0
    2.8716   -3.8585    9.8340 C   0  0  0  0  0  0  0  0  0  0  0  0
    3.6179   -4.4206   10.8455 C   0  0  0  0  0  0  0  0  0  0  0  0
    4.3754   -5.5305   10.6054 C   0  0  0  0  0  0  0  0  0  0  0  0
    4.3600   -6.0519    9.3336 C   0  0  0  0  0  0  0  0  0  0  0  0
   -0.8703   -3.7546    7.9986 C   0  0  0  0  0  0  0  0  0  0  0  0
   -0.5166   -3.8579    5.5860 C   0  0  0  0  0  0  0  0  0  0  0  0
   -0.3175    1.0553    6.1968 O   0  0  0  0  0  0  0  0  0  0  0  0
  1  2  3  0
  2  3  1  0
  3  4  2  0
  4  5  1  0
  5  6  2  0
  6  7  1  0
  7  8  2  0
  8  9  1  0
  9 10  1  0
 10 11  1  0
 11 12  1  0
 12 13  1  0
 13 14  1  0
 14 15  1  0
 15 16  1  0
 16 17  2  0
 17 18  1  0
 18 19  1  0
 19 20  2  0
 20 21  1  0
 21 22  2  0
 22 23  1  0
 23 24  2  0
 14 25  1  0
 14 26  1  0
 11 27  1  6
  8  3  1  0
 20 16  1  0
 24 19  1  0
M  CHG  1  13   1
M  END
$$$$
