
     RDKit          3D

 27 29  0  0  0  0  0  0  0  0999 V2000
    2.1216   -5.2315    9.4044 N   0  0  0  0  0  0  0  0  0  0  0  0
    2.1561   -5.4117    8.2656 C   0  0  0  0  0  0  0  0  0  0  0  0
    2.1938   -5.6136    6.8325 C   0  0  0  0  0  0  0  0  0  0  0  0
    2.6735   -6.7883    6.3081 C   0  0  0  0  0  0  0  0  0  0  0  0
    2.6769   -6.9141    4.9267 C   0  0  0  0  0  0  0  0  0  0  0  0
    2.2162   -5.8983    4.1316 C   0  0  0  0  0  0  0  0  0  0  0  0
    1.7347   -4.7181    4.6899 C   0  0  0  0  0  0  0  0  0  0  0  0
    1.7158   -4.5554    6.0412 C   0  0  0  0  0  0  0  0  0  0  0  0
    1.2610   -3.4405    6.6398 O   0  0  0  0  0  0  0  0  0  0  0  0
    1.4423   -2.1187    6.3283 C   0  0  0  0  0  0  0  0  0  0  0  0
    0.3283   -1.1715    6.7042 C   0  0  2  0  0  0  0  0  0  0  0  0
   -0.0401   -1.4540    8.1742 C   0  0  0  0  0  0  0  0  0  0  0  0
   -0.5611   -0.3050    8.7910 N   0  0  0  0  0  4  0  0  0  0  0  0
   -1.2221   -0.5872   10.1046 C   0  0  0  0  0  0  0  0  0  0  0  0
   -0.1275   -0.8734   11.0474 C   0  0  0  0  0  0  0  0  0  0  0  0
    0.5892    0.1115   11.8007 C   0  0  0  0  0  0  0  0  0  0  0  0
    1.0348    1.2857   11.1459 C   0  0  0  0  0  0  0  0  0  0  0  0
    1.6649    2.0671   12.0054 N   0  0  0  0  0  0  0  0  0  0  0  0
    1.6588    1.4739   13.1873 C   0  0  0  0  0  0  0  0  0  0  0  0
    0.9931    0.2491   13.0904 C   0  0  0  0  0  0  0  0  0  0  0  0
    0.8913   -0.5094   14.2324 C   0  0  0  0  0  0  0  0  0  0  0  0
    1.4112   -0.1135   15.4444 C   0  0  0  0  0  0  0  0  0  0  0  0
    2.0640    1.0803   15.5552 C   0  0  0  0  0  0  0  0  0  0  0  0
    2.1770    1.8542   14.4248 C   0  0  0  0  0  0  0  0  0  0  0  0
   -2.1622    0.5012   10.4448 C   0  0  0  0  0  0  0  0  0  0  0  0
   -2.0028   -1.8439    9.7881 C   0  0  0  0  0  0  0  0  0  0  0  0
   -0.7656   -1.5129    5.8817 O   0  0  0  0  0  0  0  0  0  0  0  0
  1  2  3  0
  2  3  1  0
  3  4  2  0
  4  5  1  0
  5  6  2  0
  6  7  1  0
  7  8  2  0
  8  9  1  0
  9 10  1  0
 10 11  1  0
 11 12  1  0
 12 13  1  0
 13 14  1  0
 14 15  1  0
 15 16  1  0
 16 17  2  0
 17 18  1  0
 18 19  1  0
 19 20  2  0
 20 21  1  0
 21 22  2  0
 22 23  1  0
 23 24  2  0
 14 25  1  0
 14 26  1  0
 11 27  1  6
  8  3  1  0
 20 16  1  0
 24 19  1  0
M  CHG  1  13   1
M  END
$$$$
