
     RDKit          3D

 27 29  0  0  0  0  0  0  0  0999 V2000
    2.7954   -5.2534    9.1764 N   0  0  0  0  0  0  0  0  0  0  0  0
    2.5472   -5.3069    8.0512 C   0  0  0  0  0  0  0  0  0  0  0  0
    2.2601   -5.3776    6.6340 C   0  0  0  0  0  0  0  0  0  0  0  0
    2.6143   -6.4874    5.9072 C   0  0  0  0  0  0  0  0  0  0  0  0
    2.3051   -6.4880    4.5550 C   0  0  0  0  0  0  0  0  0  0  0  0
    1.6712   -5.4169    3.9829 C   0  0  0  0  0  0  0  0  0  0  0  0
    1.3230   -4.3048    4.7434 C   0  0  0  0  0  0  0  0  0  0  0  0
    1.6100   -4.2652    6.0733 C   0  0  0  0  0  0  0  0  0  0  0  0
    1.2973   -3.2210    6.8608 O   0  0  0  0  0  0  0  0  0  0  0  0
    0.5417   -2.1057    6.6118 C   0  0  0  0  0  0  0  0  0  0  0  0
    0.4302   -1.0954    7.7281 C   0  0  2  0  0  0  0  0  0  0  0  0
   -0.8047   -1.4736    8.5698 C   0  0  0  0  0  0  0  0  0  0  0  0
   -1.0556   -0.5060    9.5562 N   0  0  0  0  0  4  0  0  0  0  0  0
   -2.2547   -0.8164   10.3976 C   0  0  0  0  0  0  0  0  0  0  0  0
   -2.0545   -0.0856   11.6604 C   0  0  0  0  0  0  0  0  0  0  0  0
   -1.0417    0.9007   11.8895 C   0  0  0  0  0  0  0  0  0  0  0  0
    0.3086    0.4859   11.9944 C   0  0  0  0  0  0  0  0  0  0  0  0
    1.0857    1.5351   12.1975 N   0  0  0  0  0  0  0  0  0  0  0  0
    0.3239    2.6156   12.2320 C   0  0  0  0  0  0  0  0  0  0  0  0
   -1.0115    2.2501   12.0423 C   0  0  0  0  0  0  0  0  0  0  0  0
   -1.9507    3.2539   12.0494 C   0  0  0  0  0  0  0  0  0  0  0  0
   -1.6294    4.5802   12.2329 C   0  0  0  0  0  0  0  0  0  0  0  0
   -0.3295    4.9531   12.4194 C   0  0  0  0  0  0  0  0  0  0  0  0
    0.6256    3.9645   12.4158 C   0  0  0  0  0  0  0  0  0  0  0  0
   -3.4929   -0.5540    9.6344 C   0  0  0  0  0  0  0  0  0  0  0  0
   -2.1010   -2.3068   10.6075 C   0  0  0  0  0  0  0  0  0  0  0  0
    0.1988    0.1483    7.1045 O   0  0  0  0  0  0  0  0  0  0  0  0
  1  2  3  0
  2  3  1  0
  3  4  2  0
  4  5  1  0
  5  6  2  0
  6  7  1  0
  7  8  2  0
  8  9  1  0
  9 10  1  0
 10 11  1  0
 11 12  1  0
 12 13  1  0
 13 14  1  0
 14 15  1  0
 15 16  1  0
 16 17  2  0
 17 18  1  0
 18 19  1  0
 19 20  2  0
 20 21  1  0
 21 22  2  0
 22 23  1  0
 23 24  2  0
 14 25  1  0
 14 26  1  0
 11 27  1  6
  8  3  1  0
 20 16  1  0
 24 19  1  0
M  CHG  1  13   1
M  END
$$$$
