
     RDKit          3D

 27 29  0  0  0  0  0  0  0  0999 V2000
    2.8133   -2.1135   10.9501 N   0  0  0  0  0  0  0  0  0  0  0  0
    2.0475   -1.4038   11.4404 C   0  0  0  0  0  0  0  0  0  0  0  0
    1.0915   -0.4956   12.0381 C   0  0  0  0  0  0  0  0  0  0  0  0
    1.0115   -0.3696   13.4030 C   0  0  0  0  0  0  0  0  0  0  0  0
    0.0752    0.5216   13.9061 C   0  0  0  0  0  0  0  0  0  0  0  0
   -0.7294    1.2401   13.0619 C   0  0  0  0  0  0  0  0  0  0  0  0
   -0.6268    1.0931   11.6819 C   0  0  0  0  0  0  0  0  0  0  0  0
    0.2789    0.2279   11.1490 C   0  0  0  0  0  0  0  0  0  0  0  0
    0.4270    0.0437    9.8252 O   0  0  0  0  0  0  0  0  0  0  0  0
   -0.3295    0.4804    8.7698 C   0  0  0  0  0  0  0  0  0  0  0  0
    0.0995    0.0328    7.3932 C   0  0  2  0  0  0  0  0  0  0  0  0
    0.1105   -1.5087    7.3928 C   0  0  0  0  0  0  0  0  0  0  0  0
   -0.1730   -2.0126    6.1130 N   0  0  0  0  0  4  0  0  0  0  0  0
   -0.1345   -3.5079    6.0443 C   0  0  0  0  0  0  0  0  0  0  0  0
    1.2714   -3.8806    6.2757 C   0  0  0  0  0  0  0  0  0  0  0  0
    1.8558   -4.1338    7.5585 C   0  0  0  0  0  0  0  0  0  0  0  0
    1.2396   -3.5903    8.7124 C   0  0  0  0  0  0  0  0  0  0  0  0
    1.9199   -3.9386    9.7904 N   0  0  0  0  0  0  0  0  0  0  0  0
    2.9476   -4.6797    9.4114 C   0  0  0  0  0  0  0  0  0  0  0  0
    2.9336   -4.8191    8.0210 C   0  0  0  0  0  0  0  0  0  0  0  0
    3.9374   -5.5635    7.4482 C   0  0  0  0  0  0  0  0  0  0  0  0
    4.9362   -6.1651    8.1808 C   0  0  0  0  0  0  0  0  0  0  0  0
    4.9634   -6.0383    9.5397 C   0  0  0  0  0  0  0  0  0  0  0  0
    3.9686   -5.2977   10.1325 C   0  0  0  0  0  0  0  0  0  0  0  0
   -1.1600   -4.0845    6.9387 C   0  0  0  0  0  0  0  0  0  0  0  0
   -0.5275   -3.7561    4.6045 C   0  0  0  0  0  0  0  0  0  0  0  0
    1.4189    0.5026    7.2258 O   0  0  0  0  0  0  0  0  0  0  0  0
  1  2  3  0
  2  3  1  0
  3  4  2  0
  4  5  1  0
  5  6  2  0
  6  7  1  0
  7  8  2  0
  8  9  1  0
  9 10  1  0
 10 11  1  0
 11 12  1  0
 12 13  1  0
 13 14  1  0
 14 15  1  0
 15 16  1  0
 16 17  2  0
 17 18  1  0
 18 19  1  0
 19 20  2  0
 20 21  1  0
 21 22  2  0
 22 23  1  0
 23 24  2  0
 14 25  1  0
 14 26  1  0
 11 27  1  1
  8  3  1  0
 20 16  1  0
 24 19  1  0
M  CHG  1  13   1
M  END
$$$$
