
     RDKit          3D

 27 29  0  0  0  0  0  0  0  0999 V2000
   -2.9720    4.4073    9.0240 N   0  0  0  0  0  0  0  0  0  0  0  0
   -2.6560    4.3432   10.1315 C   0  0  0  0  0  0  0  0  0  0  0  0
   -2.2805    4.2747   11.5280 C   0  0  0  0  0  0  0  0  0  0  0  0
   -2.0249    5.4227   12.2365 C   0  0  0  0  0  0  0  0  0  0  0  0
   -1.6739    5.2822   13.5710 C   0  0  0  0  0  0  0  0  0  0  0  0
   -1.5906    4.0410   14.1445 C   0  0  0  0  0  0  0  0  0  0  0  0
   -1.8556    2.8937   13.4030 C   0  0  0  0  0  0  0  0  0  0  0  0
   -2.2022    2.9894   12.0902 C   0  0  0  0  0  0  0  0  0  0  0  0
   -2.4722    1.9188   11.3225 O   0  0  0  0  0  0  0  0  0  0  0  0
   -2.5621    0.5889   11.6394 C   0  0  0  0  0  0  0  0  0  0  0  0
   -2.6894   -0.3785   10.4873 C   0  0  2  0  0  0  0  0  0  0  0  0
   -1.3292   -0.4133    9.7627 C   0  0  0  0  0  0  0  0  0  0  0  0
   -1.1765   -1.6066    9.0382 N   0  0  0  0  0  4  0  0  0  0  0  0
    0.1960   -1.7788    8.4649 C   0  0  0  0  0  0  0  0  0  0  0  0
    0.2534   -3.1686    7.9809 C   0  0  0  0  0  0  0  0  0  0  0  0
    0.9652   -3.6068    6.8180 C   0  0  0  0  0  0  0  0  0  0  0  0
    0.8677   -2.8466    5.6268 C   0  0  0  0  0  0  0  0  0  0  0  0
    1.5954   -3.4064    4.6765 N   0  0  0  0  0  0  0  0  0  0  0  0
    2.1656   -4.4907    5.1745 C   0  0  0  0  0  0  0  0  0  0  0  0
    1.7901   -4.6418    6.5121 C   0  0  0  0  0  0  0  0  0  0  0  0
    2.2927   -5.7250    7.1932 C   0  0  0  0  0  0  0  0  0  0  0  0
    3.1363   -6.6479    6.6166 C   0  0  0  0  0  0  0  0  0  0  0  0
    3.5124   -6.5139    5.3112 C   0  0  0  0  0  0  0  0  0  0  0  0
    3.0208   -5.4375    4.6118 C   0  0  0  0  0  0  0  0  0  0  0  0
    0.4833   -0.6970    7.4999 C   0  0  0  0  0  0  0  0  0  0  0  0
    1.0625   -1.5996    9.6921 C   0  0  0  0  0  0  0  0  0  0  0  0
   -3.6576    0.1730    9.6225 O   0  0  0  0  0  0  0  0  0  0  0  0
  1  2  3  0
  2  3  1  0
  3  4  2  0
  4  5  1  0
  5  6  2  0
  6  7  1  0
  7  8  2  0
  8  9  1  0
  9 10  1  0
 10 11  1  0
 11 12  1  0
 12 13  1  0
 13 14  1  0
 14 15  1  0
 15 16  1  0
 16 17  2  0
 17 18  1  0
 18 19  1  0
 19 20  2  0
 20 21  1  0
 21 22  2  0
 22 23  1  0
 23 24  2  0
 14 25  1  0
 14 26  1  0
 11 27  1  6
  8  3  1  0
 20 16  1  0
 24 19  1  0
M  CHG  1  13   1
M  END
$$$$
