
     RDKit          3D

 27 29  0  0  0  0  0  0  0  0999 V2000
   -4.1547   -0.1806    9.4792 N   0  0  0  0  0  0  0  0  0  0  0  0
   -4.0477    0.5980   10.3235 C   0  0  0  0  0  0  0  0  0  0  0  0
   -3.8894    1.5793   11.3760 C   0  0  0  0  0  0  0  0  0  0  0  0
   -4.9832    2.0440   12.0637 C   0  0  0  0  0  0  0  0  0  0  0  0
   -4.7570    2.9807   13.0615 C   0  0  0  0  0  0  0  0  0  0  0  0
   -3.4873    3.4141   13.3379 C   0  0  0  0  0  0  0  0  0  0  0  0
   -2.3962    2.9258   12.6253 C   0  0  0  0  0  0  0  0  0  0  0  0
   -2.5767    2.0065   11.6379 C   0  0  0  0  0  0  0  0  0  0  0  0
   -1.5632    1.4958   10.9165 O   0  0  0  0  0  0  0  0  0  0  0  0
   -0.2125    1.7130   10.9902 C   0  0  0  0  0  0  0  0  0  0  0  0
    0.6477    1.0044    9.9717 C   0  0  2  0  0  0  0  0  0  0  0  0
    0.7516   -0.4717   10.4038 C   0  0  0  0  0  0  0  0  0  0  0  0
    1.3223   -1.2537    9.3864 N   0  0  0  0  0  4  0  0  0  0  0  0
    1.7431   -2.6135    9.8515 C   0  0  0  0  0  0  0  0  0  0  0  0
    2.6564   -3.1234    8.8147 C   0  0  0  0  0  0  0  0  0  0  0  0
    2.3828   -4.2308    7.9487 C   0  0  0  0  0  0  0  0  0  0  0  0
    2.8208   -5.5232    8.3284 C   0  0  0  0  0  0  0  0  0  0  0  0
    2.4698   -6.4042    7.4081 N   0  0  0  0  0  0  0  0  0  0  0  0
    1.8264   -5.7651    6.4455 C   0  0  0  0  0  0  0  0  0  0  0  0
    1.7564   -4.4043    6.7559 C   0  0  0  0  0  0  0  0  0  0  0  0
    1.1176   -3.5814    5.8589 C   0  0  0  0  0  0  0  0  0  0  0  0
    0.5552   -4.0406    4.6890 C   0  0  0  0  0  0  0  0  0  0  0  0
    0.6151   -5.3670    4.3718 C   0  0  0  0  0  0  0  0  0  0  0  0
    1.2498   -6.2073    5.2554 C   0  0  0  0  0  0  0  0  0  0  0  0
    2.2424   -2.5436   11.2407 C   0  0  0  0  0  0  0  0  0  0  0  0
    0.4290   -3.3628    9.8276 C   0  0  0  0  0  0  0  0  0  0  0  0
    1.9231    1.6005   10.0588 O   0  0  0  0  0  0  0  0  0  0  0  0
  1  2  3  0
  2  3  1  0
  3  4  2  0
  4  5  1  0
  5  6  2  0
  6  7  1  0
  7  8  2  0
  8  9  1  0
  9 10  1  0
 10 11  1  0
 11 12  1  0
 12 13  1  0
 13 14  1  0
 14 15  1  0
 15 16  1  0
 16 17  2  0
 17 18  1  0
 18 19  1  0
 19 20  2  0
 20 21  1  0
 21 22  2  0
 22 23  1  0
 23 24  2  0
 14 25  1  0
 14 26  1  0
 11 27  1  1
  8  3  1  0
 20 16  1  0
 24 19  1  0
M  CHG  1  13   1
M  END
$$$$
