
     RDKit          3D

 27 29  0  0  0  0  0  0  0  0999 V2000
   -4.2266    0.7378   14.1922 N   0  0  0  0  0  0  0  0  0  0  0  0
   -3.9983    1.6930   13.5872 C   0  0  0  0  0  0  0  0  0  0  0  0
   -3.7364    2.8970   12.8272 C   0  0  0  0  0  0  0  0  0  0  0  0
   -4.2599    4.1009   13.2295 C   0  0  0  0  0  0  0  0  0  0  0  0
   -3.9651    5.2137   12.4555 C   0  0  0  0  0  0  0  0  0  0  0  0
   -3.1812    5.0995   11.3380 C   0  0  0  0  0  0  0  0  0  0  0  0
   -2.6630    3.8666   10.9534 C   0  0  0  0  0  0  0  0  0  0  0  0
   -2.9302    2.7508   11.6857 C   0  0  0  0  0  0  0  0  0  0  0  0
   -2.4571    1.5330   11.3669 O   0  0  0  0  0  0  0  0  0  0  0  0
   -1.3301    1.1606   10.6829 C   0  0  0  0  0  0  0  0  0  0  0  0
   -1.2075   -0.2986   10.3155 C   0  0  2  0  0  0  0  0  0  0  0  0
   -0.9289   -0.3704    8.8011 C   0  0  0  0  0  0  0  0  0  0  0  0
   -0.0394   -1.4155    8.5031 N   0  0  0  0  0  4  0  0  0  0  0  0
    0.4014   -1.4269    7.0721 C   0  0  0  0  0  0  0  0  0  0  0  0
    1.5939   -2.2901    7.0300 C   0  0  0  0  0  0  0  0  0  0  0  0
    1.5890   -3.7106    7.2125 C   0  0  0  0  0  0  0  0  0  0  0  0
    1.8734   -4.2384    8.4959 C   0  0  0  0  0  0  0  0  0  0  0  0
    1.8142   -5.5581    8.4614 N   0  0  0  0  0  0  0  0  0  0  0  0
    1.5072   -5.9278    7.2293 C   0  0  0  0  0  0  0  0  0  0  0  0
    1.3600   -4.7941    6.4257 C   0  0  0  0  0  0  0  0  0  0  0  0
    1.0393   -4.9912    5.1036 C   0  0  0  0  0  0  0  0  0  0  0  0
    0.8609   -6.2409    4.5536 C   0  0  0  0  0  0  0  0  0  0  0  0
    1.0010   -7.3580    5.3255 C   0  0  0  0  0  0  0  0  0  0  0  0
    1.3218   -7.1829    6.6506 C   0  0  0  0  0  0  0  0  0  0  0  0
   -0.7351   -1.7724    6.1928 C   0  0  0  0  0  0  0  0  0  0  0  0
    0.7782    0.0228    6.8588 C   0  0  0  0  0  0  0  0  0  0  0  0
   -2.4686   -0.8726   10.5793 O   0  0  0  0  0  0  0  0  0  0  0  0
  1  2  3  0
  2  3  1  0
  3  4  2  0
  4  5  1  0
  5  6  2  0
  6  7  1  0
  7  8  2  0
  8  9  1  0
  9 10  1  0
 10 11  1  0
 11 12  1  0
 12 13  1  0
 13 14  1  0
 14 15  1  0
 15 16  1  0
 16 17  2  0
 17 18  1  0
 18 19  1  0
 19 20  2  0
 20 21  1  0
 21 22  2  0
 22 23  1  0
 23 24  2  0
 14 25  1  0
 14 26  1  0
 11 27  1  6
  8  3  1  0
 20 16  1  0
 24 19  1  0
M  CHG  1  13   1
M  END
$$$$
