
     RDKit          3D

 27 29  0  0  0  0  0  0  0  0999 V2000
   -2.9611   -2.3999   10.2511 N   0  0  0  0  0  0  0  0  0  0  0  0
   -2.4576   -1.4524   10.6742 C   0  0  0  0  0  0  0  0  0  0  0  0
   -1.8448   -0.2604   11.2216 C   0  0  0  0  0  0  0  0  0  0  0  0
   -2.0291    0.0733   12.5406 C   0  0  0  0  0  0  0  0  0  0  0  0
   -1.4095    1.2270   12.9979 C   0  0  0  0  0  0  0  0  0  0  0  0
   -0.6471    1.9916   12.1549 C   0  0  0  0  0  0  0  0  0  0  0  0
   -0.4766    1.6296   10.8221 C   0  0  0  0  0  0  0  0  0  0  0  0
   -1.0690    0.5052   10.3348 C   0  0  0  0  0  0  0  0  0  0  0  0
   -0.9400    0.1020    9.0584 O   0  0  0  0  0  0  0  0  0  0  0  0
   -0.2710    0.6657    8.0041 C   0  0  0  0  0  0  0  0  0  0  0  0
   -0.3879   -0.0336    6.6712 C   0  0  2  0  0  0  0  0  0  0  0  0
    0.1269   -1.4743    6.8602 C   0  0  0  0  0  0  0  0  0  0  0  0
    0.4599   -2.0547    5.6255 N   0  0  0  0  0  4  0  0  0  0  0  0
    0.9727   -3.4560    5.7499 C   0  0  0  0  0  0  0  0  0  0  0  0
    2.1735   -3.3664    6.5980 C   0  0  0  0  0  0  0  0  0  0  0  0
    2.7122   -4.4394    7.3787 C   0  0  0  0  0  0  0  0  0  0  0  0
    2.6808   -5.7540    6.8521 C   0  0  0  0  0  0  0  0  0  0  0  0
    3.2262   -6.5952    7.7130 N   0  0  0  0  0  0  0  0  0  0  0  0
    3.6144   -5.9090    8.7748 C   0  0  0  0  0  0  0  0  0  0  0  0
    3.3062   -4.5580    8.5946 C   0  0  0  0  0  0  0  0  0  0  0  0
    3.6402   -3.6908    9.6076 C   0  0  0  0  0  0  0  0  0  0  0  0
    4.2558   -4.0973   10.7702 C   0  0  0  0  0  0  0  0  0  0  0  0
    4.5635   -5.4135   10.9611 C   0  0  0  0  0  0  0  0  0  0  0  0
    4.2377   -6.2976    9.9602 C   0  0  0  0  0  0  0  0  0  0  0  0
   -0.1146   -4.3587    6.1823 C   0  0  0  0  0  0  0  0  0  0  0  0
    1.3468   -3.7708    4.3182 C   0  0  0  0  0  0  0  0  0  0  0  0
    0.4781    0.6534    5.7951 O   0  0  0  0  0  0  0  0  0  0  0  0
  1  2  3  0
  2  3  1  0
  3  4  2  0
  4  5  1  0
  5  6  2  0
  6  7  1  0
  7  8  2  0
  8  9  1  0
  9 10  1  0
 10 11  1  0
 11 12  1  0
 12 13  1  0
 13 14  1  0
 14 15  1  0
 15 16  1  0
 16 17  2  0
 17 18  1  0
 18 19  1  0
 19 20  2  0
 20 21  1  0
 21 22  2  0
 22 23  1  0
 23 24  2  0
 14 25  1  0
 14 26  1  0
 11 27  1  6
  8  3  1  0
 20 16  1  0
 24 19  1  0
M  CHG  1  13   1
M  END
$$$$
