
     RDKit          3D

 27 29  0  0  0  0  0  0  0  0999 V2000
    2.0231   -4.2823   11.6666 N   0  0  0  0  0  0  0  0  0  0  0  0
    1.1433   -4.9396   12.0193 C   0  0  0  0  0  0  0  0  0  0  0  0
    0.0538   -5.7849   12.4602 C   0  0  0  0  0  0  0  0  0  0  0  0
    0.3066   -6.9259   13.1809 C   0  0  0  0  0  0  0  0  0  0  0  0
   -0.7854   -7.6859   13.5733 C   0  0  0  0  0  0  0  0  0  0  0  0
   -2.0586   -7.2997   13.2476 C   0  0  0  0  0  0  0  0  0  0  0  0
   -2.2863   -6.1378   12.5164 C   0  0  0  0  0  0  0  0  0  0  0  0
   -1.2412   -5.3653   12.1117 C   0  0  0  0  0  0  0  0  0  0  0  0
   -1.3969   -4.2316   11.4056 O   0  0  0  0  0  0  0  0  0  0  0  0
   -2.5256   -3.6288   10.9161 C   0  0  0  0  0  0  0  0  0  0  0  0
   -2.3231   -2.4474    9.9982 C   0  0  2  0  0  0  0  0  0  0  0  0
   -0.8365   -2.4301    9.5908 C   0  0  0  0  0  0  0  0  0  0  0  0
   -0.6507   -1.7109    8.3990 N   0  0  0  0  0  4  0  0  0  0  0  0
    0.7847   -1.6161    7.9832 C   0  0  0  0  0  0  0  0  0  0  0  0
    0.9686   -2.6494    6.9501 C   0  0  0  0  0  0  0  0  0  0  0  0
    0.9469   -2.4146    5.5374 C   0  0  0  0  0  0  0  0  0  0  0  0
    0.6459   -1.1144    5.0627 C   0  0  0  0  0  0  0  0  0  0  0  0
    0.6815   -1.0998    3.7418 N   0  0  0  0  0  0  0  0  0  0  0  0
    0.9887   -2.3154    3.3213 C   0  0  0  0  0  0  0  0  0  0  0  0
    1.1607   -3.1594    4.4217 C   0  0  0  0  0  0  0  0  0  0  0  0
    1.4852   -4.4713    4.1701 C   0  0  0  0  0  0  0  0  0  0  0  0
    1.6440   -4.9738    2.8980 C   0  0  0  0  0  0  0  0  0  0  0  0
    1.4796   -4.1620    1.8129 C   0  0  0  0  0  0  0  0  0  0  0  0
    1.1546   -2.8463    2.0425 C   0  0  0  0  0  0  0  0  0  0  0  0
    1.1216   -0.2201    7.6341 C   0  0  0  0  0  0  0  0  0  0  0  0
    1.4972   -1.9997    9.2615 C   0  0  0  0  0  0  0  0  0  0  0  0
   -2.6016   -1.3019   10.7727 O   0  0  0  0  0  0  0  0  0  0  0  0
  1  2  3  0
  2  3  1  0
  3  4  2  0
  4  5  1  0
  5  6  2  0
  6  7  1  0
  7  8  2  0
  8  9  1  0
  9 10  1  0
 10 11  1  0
 11 12  1  0
 12 13  1  0
 13 14  1  0
 14 15  1  0
 15 16  1  0
 16 17  2  0
 17 18  1  0
 18 19  1  0
 19 20  2  0
 20 21  1  0
 21 22  2  0
 22 23  1  0
 23 24  2  0
 14 25  1  0
 14 26  1  0
 11 27  1  1
  8  3  1  0
 20 16  1  0
 24 19  1  0
M  CHG  1  13   1
M  END
$$$$
