
     RDKit          3D

 27 29  0  0  0  0  0  0  0  0999 V2000
   -1.2919    3.9191   10.7435 N   0  0  0  0  0  0  0  0  0  0  0  0
   -0.8633    3.0795   11.4082 C   0  0  0  0  0  0  0  0  0  0  0  0
   -0.3154    2.0432   12.2578 C   0  0  0  0  0  0  0  0  0  0  0  0
    0.1531    2.3476   13.5120 C   0  0  0  0  0  0  0  0  0  0  0  0
    0.6609    1.3045   14.2723 C   0  0  0  0  0  0  0  0  0  0  0  0
    0.6865    0.0274   13.7775 C   0  0  0  0  0  0  0  0  0  0  0  0
    0.2044   -0.2531   12.5025 C   0  0  0  0  0  0  0  0  0  0  0  0
   -0.3009    0.7432   11.7249 C   0  0  0  0  0  0  0  0  0  0  0  0
   -0.7832    0.5349   10.4870 O   0  0  0  0  0  0  0  0  0  0  0  0
   -1.1399   -0.6230    9.8475 C   0  0  0  0  0  0  0  0  0  0  0  0
   -1.4939   -0.5114    8.3841 C   0  0  2  0  0  0  0  0  0  0  0  0
   -0.2199   -0.8296    7.5765 C   0  0  0  0  0  0  0  0  0  0  0  0
   -0.3722   -2.0196    6.8466 N   0  0  0  0  0  4  0  0  0  0  0  0
    0.7628   -2.2864    5.9071 C   0  0  0  0  0  0  0  0  0  0  0  0
    1.8826   -2.7334    6.7528 C   0  0  0  0  0  0  0  0  0  0  0  0
    1.9079   -3.9480    7.5113 C   0  0  0  0  0  0  0  0  0  0  0  0
    0.7129   -4.6959    7.6491 C   0  0  0  0  0  0  0  0  0  0  0  0
    0.9416   -5.7775    8.3729 N   0  0  0  0  0  0  0  0  0  0  0  0
    2.2181   -5.7836    8.7185 C   0  0  0  0  0  0  0  0  0  0  0  0
    2.8480   -4.6518    8.1941 C   0  0  0  0  0  0  0  0  0  0  0  0
    4.1879   -4.4930    8.4569 C   0  0  0  0  0  0  0  0  0  0  0  0
    4.9174   -5.3912    9.2032 C   0  0  0  0  0  0  0  0  0  0  0  0
    4.3165   -6.5017    9.7221 C   0  0  0  0  0  0  0  0  0  0  0  0
    2.9767   -6.6794    9.4712 C   0  0  0  0  0  0  0  0  0  0  0  0
    0.3201   -3.1790    4.8155 C   0  0  0  0  0  0  0  0  0  0  0  0
    1.0269   -0.9049    5.3497 C   0  0  0  0  0  0  0  0  0  0  0  0
   -1.8484    0.8373    8.1722 O   0  0  0  0  0  0  0  0  0  0  0  0
  1  2  3  0
  2  3  1  0
  3  4  2  0
  4  5  1  0
  5  6  2  0
  6  7  1  0
  7  8  2  0
  8  9  1  0
  9 10  1  0
 10 11  1  0
 11 12  1  0
 12 13  1  0
 13 14  1  0
 14 15  1  0
 15 16  1  0
 16 17  2  0
 17 18  1  0
 18 19  1  0
 19 20  2  0
 20 21  1  0
 21 22  2  0
 22 23  1  0
 23 24  2  0
 14 25  1  0
 14 26  1  0
 11 27  1  1
  8  3  1  0
 20 16  1  0
 24 19  1  0
M  CHG  1  13   1
M  END
$$$$
