
     RDKit          3D

 27 29  0  0  0  0  0  0  0  0999 V2000
    2.6317   -4.8723    9.6463 N   0  0  0  0  0  0  0  0  0  0  0  0
    2.3779   -4.8693    8.5211 C   0  0  0  0  0  0  0  0  0  0  0  0
    2.0394   -4.8803    7.1135 C   0  0  0  0  0  0  0  0  0  0  0  0
    2.5103   -5.8752    6.2928 C   0  0  0  0  0  0  0  0  0  0  0  0
    2.1432   -5.8246    4.9561 C   0  0  0  0  0  0  0  0  0  0  0  0
    1.3420   -4.8163    4.4893 C   0  0  0  0  0  0  0  0  0  0  0  0
    0.8783   -3.8206    5.3437 C   0  0  0  0  0  0  0  0  0  0  0  0
    1.2170   -3.8343    6.6619 C   0  0  0  0  0  0  0  0  0  0  0  0
    0.7990   -2.9024    7.5367 O   0  0  0  0  0  0  0  0  0  0  0  0
    0.2604   -1.6594    7.3326 C   0  0  0  0  0  0  0  0  0  0  0  0
   -1.0138   -1.3388    8.0761 C   0  0  2  0  0  0  0  0  0  0  0  0
   -0.6941   -1.3946    9.5831 C   0  0  0  0  0  0  0  0  0  0  0  0
   -0.7796   -0.1180   10.1622 N   0  0  0  0  0  4  0  0  0  0  0  0
   -1.0951   -0.1524   11.6255 C   0  0  0  0  0  0  0  0  0  0  0  0
   -2.1389    0.8659   11.8314 C   0  0  0  0  0  0  0  0  0  0  0  0
   -1.8993    2.2670   12.0065 C   0  0  0  0  0  0  0  0  0  0  0  0
   -1.4536    2.7346   13.2671 C   0  0  0  0  0  0  0  0  0  0  0  0
   -1.2853    4.0446   13.2257 N   0  0  0  0  0  0  0  0  0  0  0  0
   -1.5944    4.4648   12.0105 C   0  0  0  0  0  0  0  0  0  0  0  0
   -1.9821    3.3755   11.2256 C   0  0  0  0  0  0  0  0  0  0  0  0
   -2.3417    3.6285    9.9232 C   0  0  0  0  0  0  0  0  0  0  0  0
   -2.3336    4.8915    9.3748 C   0  0  0  0  0  0  0  0  0  0  0  0
   -1.9573    5.9657   10.1285 C   0  0  0  0  0  0  0  0  0  0  0  0
   -1.5940    5.7345   11.4339 C   0  0  0  0  0  0  0  0  0  0  0  0
   -1.3858   -1.5377   12.0505 C   0  0  0  0  0  0  0  0  0  0  0  0
    0.2184    0.2927   12.2300 C   0  0  0  0  0  0  0  0  0  0  0  0
   -1.9190   -2.3730    7.7590 O   0  0  0  0  0  0  0  0  0  0  0  0
  1  2  3  0
  2  3  1  0
  3  4  2  0
  4  5  1  0
  5  6  2  0
  6  7  1  0
  7  8  2  0
  8  9  1  0
  9 10  1  0
 10 11  1  0
 11 12  1  0
 12 13  1  0
 13 14  1  0
 14 15  1  0
 15 16  1  0
 16 17  2  0
 17 18  1  0
 18 19  1  0
 19 20  2  0
 20 21  1  0
 21 22  2  0
 22 23  1  0
 23 24  2  0
 14 25  1  0
 14 26  1  0
 11 27  1  1
  8  3  1  0
 20 16  1  0
 24 19  1  0
M  CHG  1  13   1
M  END
$$$$
