
     RDKit          3D

 27 29  0  0  0  0  0  0  0  0999 V2000
    0.3753    0.4486   15.3401 N   0  0  0  0  0  0  0  0  0  0  0  0
    0.1663    1.3633   14.6692 C   0  0  0  0  0  0  0  0  0  0  0  0
   -0.0746    2.5220   13.8353 C   0  0  0  0  0  0  0  0  0  0  0  0
   -0.5825    3.6762   14.3783 C   0  0  0  0  0  0  0  0  0  0  0  0
   -0.7847    4.7477   13.5210 C   0  0  0  0  0  0  0  0  0  0  0  0
   -0.4841    4.6428   12.1887 C   0  0  0  0  0  0  0  0  0  0  0  0
    0.0303    3.4606   11.6647 C   0  0  0  0  0  0  0  0  0  0  0  0
    0.2420    2.3862   12.4730 C   0  0  0  0  0  0  0  0  0  0  0  0
    0.7384    1.2187   12.0269 O   0  0  0  0  0  0  0  0  0  0  0  0
    1.7193    0.9551   11.1076 C   0  0  0  0  0  0  0  0  0  0  0  0
    1.3195    0.1435    9.8989 C   0  0  2  0  0  0  0  0  0  0  0  0
    0.1605   -0.7787   10.3262 C   0  0  0  0  0  0  0  0  0  0  0  0
    0.3004   -2.0562    9.7601 N   0  0  0  0  0  4  0  0  0  0  0  0
   -1.0087   -2.7005    9.4237 C   0  0  0  0  0  0  0  0  0  0  0  0
   -0.6683   -3.9586    8.7380 C   0  0  0  0  0  0  0  0  0  0  0  0
    0.1727   -4.0659    7.5837 C   0  0  0  0  0  0  0  0  0  0  0  0
   -0.0739   -3.2205    6.4743 C   0  0  0  0  0  0  0  0  0  0  0  0
    0.8060   -3.4655    5.5193 N   0  0  0  0  0  0  0  0  0  0  0  0
    1.6166   -4.4231    5.9374 C   0  0  0  0  0  0  0  0  0  0  0  0
    1.2452   -4.8185    7.2252 C   0  0  0  0  0  0  0  0  0  0  0  0
    1.9837   -5.8133    7.8208 C   0  0  0  0  0  0  0  0  0  0  0  0
    3.0552   -6.4219    7.2065 C   0  0  0  0  0  0  0  0  0  0  0  0
    3.4305   -6.0466    5.9488 C   0  0  0  0  0  0  0  0  0  0  0  0
    2.7050   -5.0534    5.3351 C   0  0  0  0  0  0  0  0  0  0  0  0
   -1.8619   -2.7771   10.6281 C   0  0  0  0  0  0  0  0  0  0  0  0
   -1.5989   -1.7008    8.4535 C   0  0  0  0  0  0  0  0  0  0  0  0
    2.4413   -0.6474    9.5740 O   0  0  0  0  0  0  0  0  0  0  0  0
  1  2  3  0
  2  3  1  0
  3  4  2  0
  4  5  1  0
  5  6  2  0
  6  7  1  0
  7  8  2  0
  8  9  1  0
  9 10  1  0
 10 11  1  0
 11 12  1  0
 12 13  1  0
 13 14  1  0
 14 15  1  0
 15 16  1  0
 16 17  2  0
 17 18  1  0
 18 19  1  0
 19 20  2  0
 20 21  1  0
 21 22  2  0
 22 23  1  0
 23 24  2  0
 14 25  1  0
 14 26  1  0
 11 27  1  1
  8  3  1  0
 20 16  1  0
 24 19  1  0
M  CHG  1  13   1
M  END
$$$$
