
     RDKit          3D

 27 29  0  0  0  0  0  0  0  0999 V2000
   -2.5796    0.4245   12.7144 N   0  0  0  0  0  0  0  0  0  0  0  0
   -2.7098    1.5555   12.5292 C   0  0  0  0  0  0  0  0  0  0  0  0
   -2.8671    2.9716   12.2725 C   0  0  0  0  0  0  0  0  0  0  0  0
   -3.1473    3.8377   13.3004 C   0  0  0  0  0  0  0  0  0  0  0  0
   -3.2812    5.1811   12.9820 C   0  0  0  0  0  0  0  0  0  0  0  0
   -3.1362    5.6105   11.6894 C   0  0  0  0  0  0  0  0  0  0  0  0
   -2.8517    4.7107   10.6667 C   0  0  0  0  0  0  0  0  0  0  0  0
   -2.7138    3.3840   10.9381 C   0  0  0  0  0  0  0  0  0  0  0  0
   -2.4369    2.4669    9.9944 O   0  0  0  0  0  0  0  0  0  0  0  0
   -2.1052    2.6127    8.6732 C   0  0  0  0  0  0  0  0  0  0  0  0
   -1.9351    1.3458    7.8699 C   0  0  2  0  0  0  0  0  0  0  0  0
   -0.9368    0.4496    8.6292 C   0  0  0  0  0  0  0  0  0  0  0  0
   -0.2712   -0.4187    7.7487 N   0  0  0  0  0  4  0  0  0  0  0  0
    0.6685   -1.3567    8.4410 C   0  0  0  0  0  0  0  0  0  0  0  0
    0.0945   -2.7008    8.2593 C   0  0  0  0  0  0  0  0  0  0  0  0
    0.4606   -3.6194    7.2233 C   0  0  0  0  0  0  0  0  0  0  0  0
    0.1901   -3.2770    5.8757 C   0  0  0  0  0  0  0  0  0  0  0  0
    0.6047   -4.2434    5.0755 N   0  0  0  0  0  0  0  0  0  0  0  0
    1.1322   -5.2010    5.8195 C   0  0  0  0  0  0  0  0  0  0  0  0
    1.0564   -4.8389    7.1671 C   0  0  0  0  0  0  0  0  0  0  0  0
    1.5605   -5.7235    8.0907 C   0  0  0  0  0  0  0  0  0  0  0  0
    2.1267   -6.9295    7.7427 C   0  0  0  0  0  0  0  0  0  0  0  0
    2.2083   -7.2974    6.4307 C   0  0  0  0  0  0  0  0  0  0  0  0
    1.7097   -6.4270    5.4908 C   0  0  0  0  0  0  0  0  0  0  0  0
    2.0520   -1.1258    7.9754 C   0  0  0  0  0  0  0  0  0  0  0  0
    0.5416   -0.9068    9.8799 C   0  0  0  0  0  0  0  0  0  0  0  0
   -1.3605    1.7383    6.6430 O   0  0  0  0  0  0  0  0  0  0  0  0
  1  2  3  0
  2  3  1  0
  3  4  2  0
  4  5  1  0
  5  6  2  0
  6  7  1  0
  7  8  2  0
  8  9  1  0
  9 10  1  0
 10 11  1  0
 11 12  1  0
 12 13  1  0
 13 14  1  0
 14 15  1  0
 15 16  1  0
 16 17  2  0
 17 18  1  0
 18 19  1  0
 19 20  2  0
 20 21  1  0
 21 22  2  0
 22 23  1  0
 23 24  2  0
 14 25  1  0
 14 26  1  0
 11 27  1  6
  8  3  1  0
 20 16  1  0
 24 19  1  0
M  CHG  1  13   1
M  END
$$$$
