
     RDKit          3D

 27 29  0  0  0  0  0  0  0  0999 V2000
    5.0227   -4.6327    8.8685 N   0  0  0  0  0  0  0  0  0  0  0  0
    4.8513   -4.1723    9.9121 C   0  0  0  0  0  0  0  0  0  0  0  0
    4.6587   -3.5831   11.2204 C   0  0  0  0  0  0  0  0  0  0  0  0
    5.1333   -4.2138   12.3439 C   0  0  0  0  0  0  0  0  0  0  0  0
    4.9160   -3.5902   13.5637 C   0  0  0  0  0  0  0  0  0  0  0  0
    4.2533   -2.3931   13.6280 C   0  0  0  0  0  0  0  0  0  0  0  0
    3.7831   -1.7754   12.4730 C   0  0  0  0  0  0  0  0  0  0  0  0
    3.9755   -2.3559   11.2569 C   0  0  0  0  0  0  0  0  0  0  0  0
    3.5473   -1.8076   10.1061 O   0  0  0  0  0  0  0  0  0  0  0  0
    2.7525   -0.7159    9.8750 C   0  0  0  0  0  0  0  0  0  0  0  0
    2.1061   -0.6200    8.5140 C   0  0  2  0  0  0  0  0  0  0  0  0
    1.1033   -1.7849    8.3973 C   0  0  0  0  0  0  0  0  0  0  0  0
   -0.1131   -1.3474    7.8487 N   0  0  0  0  0  4  0  0  0  0  0  0
   -1.1494   -2.4256    7.7729 C   0  0  0  0  0  0  0  0  0  0  0  0
   -0.6517   -3.3861    6.7736 C   0  0  0  0  0  0  0  0  0  0  0  0
   -0.4993   -4.7937    6.9889 C   0  0  0  0  0  0  0  0  0  0  0  0
   -0.8395   -5.3352    8.2528 C   0  0  0  0  0  0  0  0  0  0  0  0
   -0.6368   -6.6410    8.2507 N   0  0  0  0  0  0  0  0  0  0  0  0
   -0.1832   -6.9888    7.0581 C   0  0  0  0  0  0  0  0  0  0  0  0
   -0.0868   -5.8546    6.2475 C   0  0  0  0  0  0  0  0  0  0  0  0
    0.3719   -6.0300    4.9635 C   0  0  0  0  0  0  0  0  0  0  0  0
    0.7323   -7.2587    4.4573 C   0  0  0  0  0  0  0  0  0  0  0  0
    0.6436   -8.3760    5.2365 C   0  0  0  0  0  0  0  0  0  0  0  0
    0.1873   -8.2225    6.5241 C   0  0  0  0  0  0  0  0  0  0  0  0
   -1.4564   -2.9317    9.1271 C   0  0  0  0  0  0  0  0  0  0  0  0
   -2.3425   -1.6632    7.2397 C   0  0  0  0  0  0  0  0  0  0  0  0
    3.1435   -0.8099    7.5774 O   0  0  0  0  0  0  0  0  0  0  0  0
  1  2  3  0
  2  3  1  0
  3  4  2  0
  4  5  1  0
  5  6  2  0
  6  7  1  0
  7  8  2  0
  8  9  1  0
  9 10  1  0
 10 11  1  0
 11 12  1  0
 12 13  1  0
 13 14  1  0
 14 15  1  0
 15 16  1  0
 16 17  2  0
 17 18  1  0
 18 19  1  0
 19 20  2  0
 20 21  1  0
 21 22  2  0
 22 23  1  0
 23 24  2  0
 14 25  1  0
 14 26  1  0
 11 27  1  6
  8  3  1  0
 20 16  1  0
 24 19  1  0
M  CHG  1  13   1
M  END
$$$$
