
     RDKit          3D

 27 29  0  0  0  0  0  0  0  0999 V2000
    1.0805    1.5169   13.1448 N   0  0  0  0  0  0  0  0  0  0  0  0
    0.2139    2.2352   12.8929 C   0  0  0  0  0  0  0  0  0  0  0  0
   -0.8598    3.1470   12.5584 C   0  0  0  0  0  0  0  0  0  0  0  0
   -0.8943    4.4088   13.0987 C   0  0  0  0  0  0  0  0  0  0  0  0
   -1.9502    5.2298   12.7313 C   0  0  0  0  0  0  0  0  0  0  0  0
   -2.9116    4.7850   11.8628 C   0  0  0  0  0  0  0  0  0  0  0  0
   -2.8517    3.5010   11.3295 C   0  0  0  0  0  0  0  0  0  0  0  0
   -1.8321    2.6645   11.6661 C   0  0  0  0  0  0  0  0  0  0  0  0
   -1.7182    1.4148   11.1828 O   0  0  0  0  0  0  0  0  0  0  0  0
   -2.6625    0.5594   10.6794 C   0  0  0  0  0  0  0  0  0  0  0  0
   -2.1583   -0.7150   10.0462 C   0  0  2  0  0  0  0  0  0  0  0  0
   -1.1839   -0.3157    8.9203 C   0  0  0  0  0  0  0  0  0  0  0  0
   -0.6978   -1.4506    8.2510 N   0  0  0  0  0  4  0  0  0  0  0  0
    0.0852   -1.1198    7.0182 C   0  0  0  0  0  0  0  0  0  0  0  0
    0.5973   -2.4058    6.5153 C   0  0  0  0  0  0  0  0  0  0  0  0
    1.2529   -3.3993    7.3117 C   0  0  0  0  0  0  0  0  0  0  0  0
    1.5487   -3.1076    8.6658 C   0  0  0  0  0  0  0  0  0  0  0  0
    2.1433   -4.1448    9.2286 N   0  0  0  0  0  0  0  0  0  0  0  0
    2.2552   -5.1014    8.3223 C   0  0  0  0  0  0  0  0  0  0  0  0
    1.7070   -4.6641    7.1135 C   0  0  0  0  0  0  0  0  0  0  0  0
    1.7377   -5.5361    6.0512 C   0  0  0  0  0  0  0  0  0  0  0  0
    2.2781   -6.7998    6.1337 C   0  0  0  0  0  0  0  0  0  0  0  0
    2.8171   -7.2416    7.3075 C   0  0  0  0  0  0  0  0  0  0  0  0
    2.7968   -6.3850    8.3823 C   0  0  0  0  0  0  0  0  0  0  0  0
   -0.7310   -0.2941    6.1038 C   0  0  0  0  0  0  0  0  0  0  0  0
    1.2068   -0.2789    7.5874 C   0  0  0  0  0  0  0  0  0  0  0  0
   -3.2881   -1.3392    9.4773 O   0  0  0  0  0  0  0  0  0  0  0  0
  1  2  3  0
  2  3  1  0
  3  4  2  0
  4  5  1  0
  5  6  2  0
  6  7  1  0
  7  8  2  0
  8  9  1  0
  9 10  1  0
 10 11  1  0
 11 12  1  0
 12 13  1  0
 13 14  1  0
 14 15  1  0
 15 16  1  0
 16 17  2  0
 17 18  1  0
 18 19  1  0
 19 20  2  0
 20 21  1  0
 21 22  2  0
 22 23  1  0
 23 24  2  0
 14 25  1  0
 14 26  1  0
 11 27  1  6
  8  3  1  0
 20 16  1  0
 24 19  1  0
M  CHG  1  13   1
M  END
$$$$
