
     RDKit          3D

 27 29  0  0  0  0  0  0  0  0999 V2000
    0.0111   -1.4972   12.2513 N   0  0  0  0  0  0  0  0  0  0  0  0
   -0.2439   -0.3729   12.2879 C   0  0  0  0  0  0  0  0  0  0  0  0
   -0.5549    1.0393   12.3573 C   0  0  0  0  0  0  0  0  0  0  0  0
   -0.5794    1.6874   13.5675 C   0  0  0  0  0  0  0  0  0  0  0  0
   -0.8815    3.0411   13.5586 C   0  0  0  0  0  0  0  0  0  0  0  0
   -1.1420    3.6910   12.3812 C   0  0  0  0  0  0  0  0  0  0  0  0
   -1.1100    3.0095   11.1683 C   0  0  0  0  0  0  0  0  0  0  0  0
   -0.8186    1.6804   11.1350 C   0  0  0  0  0  0  0  0  0  0  0  0
   -0.7700    0.9681    9.9954 O   0  0  0  0  0  0  0  0  0  0  0  0
   -1.0256    1.3322    8.6997 C   0  0  0  0  0  0  0  0  0  0  0  0
   -1.5263    0.2495    7.7742 C   0  0  2  0  0  0  0  0  0  0  0  0
   -0.4568   -0.8603    7.7427 C   0  0  0  0  0  0  0  0  0  0  0  0
   -0.4185   -1.4852    6.4856 N   0  0  0  0  0  4  0  0  0  0  0  0
    0.6435   -2.5354    6.3795 C   0  0  0  0  0  0  0  0  0  0  0  0
    1.0559   -2.8254    7.7633 C   0  0  0  0  0  0  0  0  0  0  0  0
    1.8031   -3.9754    8.1761 C   0  0  0  0  0  0  0  0  0  0  0  0
    3.1395   -3.8045    8.6132 C   0  0  0  0  0  0  0  0  0  0  0  0
    3.6526   -4.9734    8.9548 N   0  0  0  0  0  0  0  0  0  0  0  0
    2.7303   -5.9024    8.7674 C   0  0  0  0  0  0  0  0  0  0  0  0
    1.5628   -5.3083    8.2809 C   0  0  0  0  0  0  0  0  0  0  0  0
    0.4914   -6.1310    8.0261 C   0  0  0  0  0  0  0  0  0  0  0  0
    0.5263   -7.4924    8.2291 C   0  0  0  0  0  0  0  0  0  0  0  0
    1.6593   -8.0876    8.7040 C   0  0  0  0  0  0  0  0  0  0  0  0
    2.7426   -7.2827    8.9652 C   0  0  0  0  0  0  0  0  0  0  0  0
    0.1647   -3.6605    5.5494 C   0  0  0  0  0  0  0  0  0  0  0  0
    1.7326   -1.7923    5.6375 C   0  0  0  0  0  0  0  0  0  0  0  0
   -1.6139    0.8408    6.4966 O   0  0  0  0  0  0  0  0  0  0  0  0
  1  2  3  0
  2  3  1  0
  3  4  2  0
  4  5  1  0
  5  6  2  0
  6  7  1  0
  7  8  2  0
  8  9  1  0
  9 10  1  0
 10 11  1  0
 11 12  1  0
 12 13  1  0
 13 14  1  0
 14 15  1  0
 15 16  1  0
 16 17  2  0
 17 18  1  0
 18 19  1  0
 19 20  2  0
 20 21  1  0
 21 22  2  0
 22 23  1  0
 23 24  2  0
 14 25  1  0
 14 26  1  0
 11 27  1  6
  8  3  1  0
 20 16  1  0
 24 19  1  0
M  CHG  1  13   1
M  END
$$$$
