
     RDKit          3D

 27 29  0  0  0  0  0  0  0  0999 V2000
   -0.0687    0.4175   13.6861 N   0  0  0  0  0  0  0  0  0  0  0  0
   -1.0121    0.9958   13.3607 C   0  0  0  0  0  0  0  0  0  0  0  0
   -2.2103    1.7014   12.9578 C   0  0  0  0  0  0  0  0  0  0  0  0
   -3.1152    2.1286   13.8979 C   0  0  0  0  0  0  0  0  0  0  0  0
   -4.2388    2.8011   13.4405 C   0  0  0  0  0  0  0  0  0  0  0  0
   -4.4233    3.0227   12.1014 C   0  0  0  0  0  0  0  0  0  0  0  0
   -3.4896    2.5791   11.1698 C   0  0  0  0  0  0  0  0  0  0  0  0
   -2.3744    1.9143   11.5786 C   0  0  0  0  0  0  0  0  0  0  0  0
   -1.4356    1.4634   10.7278 O   0  0  0  0  0  0  0  0  0  0  0  0
   -1.4766    1.2618    9.3734 C   0  0  0  0  0  0  0  0  0  0  0  0
   -0.1505    1.1225    8.6652 C   0  0  2  0  0  0  0  0  0  0  0  0
    0.0061   -0.3587    8.2679 C   0  0  0  0  0  0  0  0  0  0  0  0
   -0.1694   -0.5289    6.8849 N   0  0  0  0  0  4  0  0  0  0  0  0
    0.1052   -1.9260    6.4216 C   0  0  0  0  0  0  0  0  0  0  0  0
    0.7840   -2.5919    7.5462 C   0  0  0  0  0  0  0  0  0  0  0  0
    1.4183   -3.8744    7.4824 C   0  0  0  0  0  0  0  0  0  0  0  0
    1.3197   -4.6299    6.2883 C   0  0  0  0  0  0  0  0  0  0  0  0
    1.9710   -5.7716    6.4247 N   0  0  0  0  0  0  0  0  0  0  0  0
    2.4919   -5.8097    7.6396 C   0  0  0  0  0  0  0  0  0  0  0  0
    2.1631   -4.6368    8.3245 C   0  0  0  0  0  0  0  0  0  0  0  0
    2.6242   -4.5043    9.6128 C   0  0  0  0  0  0  0  0  0  0  0  0
    3.3836   -5.4665   10.2401 C   0  0  0  0  0  0  0  0  0  0  0  0
    3.7133   -6.6175    9.5844 C   0  0  0  0  0  0  0  0  0  0  0  0
    3.2619   -6.7700    8.2950 C   0  0  0  0  0  0  0  0  0  0  0  0
   -1.1327   -2.5406    5.8981 C   0  0  0  0  0  0  0  0  0  0  0  0
    1.0670   -1.6836    5.2792 C   0  0  0  0  0  0  0  0  0  0  0  0
    0.8354    1.4499    9.6193 O   0  0  0  0  0  0  0  0  0  0  0  0
  1  2  3  0
  2  3  1  0
  3  4  2  0
  4  5  1  0
  5  6  2  0
  6  7  1  0
  7  8  2  0
  8  9  1  0
  9 10  1  0
 10 11  1  0
 11 12  1  0
 12 13  1  0
 13 14  1  0
 14 15  1  0
 15 16  1  0
 16 17  2  0
 17 18  1  0
 18 19  1  0
 19 20  2  0
 20 21  1  0
 21 22  2  0
 22 23  1  0
 23 24  2  0
 14 25  1  0
 14 26  1  0
 11 27  1  1
  8  3  1  0
 20 16  1  0
 24 19  1  0
M  CHG  1  13   1
M  END
$$$$
