
     RDKit          3D

 22 23  0  0  0  0  0  0  0  0999 V2000
    3.3956   -5.8997   13.9355 O   0  0  0  0  0  0  0  0  0  0  0  0
    2.9356   -4.8390   13.1768 C   0  0  0  0  0  0  0  0  0  0  0  0
    2.6962   -3.5903   13.7210 C   0  0  0  0  0  0  0  0  0  0  0  0
    2.2306   -2.5421   12.9188 C   0  0  0  0  0  0  0  0  0  0  0  0
    2.0065   -2.7481   11.5755 C   0  0  0  0  0  0  0  0  0  0  0  0
    2.2574   -4.0069   11.0727 C   0  0  0  0  0  0  0  0  0  0  0  0
    2.7111   -5.0489   11.8268 C   0  0  0  0  0  0  0  0  0  0  0  0
    1.5125   -1.6589   10.6937 C   0  0  0  0  0  0  0  0  0  0  0  0
    1.4221   -0.4145   11.4840 C   0  0  0  0  0  0  0  0  0  0  0  0
    0.7675    0.7447   10.8205 C   0  0  2  0  0  0  0  0  0  0  0  0
    0.8598    0.6151    9.3763 N   0  0  0  0  0  4  0  0  0  0  0  0
    0.3764    1.8578    8.8050 C   0  0  0  0  0  0  0  0  0  0  0  0
   -1.1181    1.9868    9.0170 C   0  0  0  0  0  0  0  0  0  0  0  0
   -1.6741    3.2186    8.4264 C   0  0  0  0  0  0  0  0  0  0  0  0
   -2.4300    4.0595    9.2440 C   0  0  0  0  0  0  0  0  0  0  0  0
   -2.9715    5.2220    8.7410 C   0  0  0  0  0  0  0  0  0  0  0  0
   -2.7975    5.6047    7.4323 C   0  0  0  0  0  0  0  0  0  0  0  0
   -2.0472    4.7719    6.6168 C   0  0  0  0  0  0  0  0  0  0  0  0
   -1.5041    3.6058    7.1217 C   0  0  0  0  0  0  0  0  0  0  0  0
   -1.8498    5.1296    5.2808 O   0  0  0  0  0  0  0  0  0  0  0  0
   -3.3607    6.7902    6.9548 O   0  0  0  0  0  0  0  0  0  0  0  0
    1.2907    2.0846   11.1808 C   0  0  0  0  0  0  0  0  0  0  0  0
  1  2  1  0
  2  3  2  0
  3  4  1  0
  4  5  2  0
  5  6  1  0
  6  7  2  0
  5  8  1  0
  8  9  1  0
  9 10  1  0
 10 11  1  0
 11 12  1  0
 12 13  1  0
 13 14  1  0
 14 15  2  0
 15 16  1  0
 16 17  2  0
 17 18  1  0
 18 19  2  0
 18 20  1  0
 17 21  1  0
 10 22  1  1
  7  2  1  0
 19 14  1  0
M  CHG  1  11   1
M  END
$$$$
