
     RDKit          3D

 22 23  0  0  0  0  0  0  0  0999 V2000
    1.9858   -6.3924   14.3241 O   0  0  0  0  0  0  0  0  0  0  0  0
    2.0855   -5.0753   13.9148 C   0  0  0  0  0  0  0  0  0  0  0  0
    1.1586   -4.1160   14.2801 C   0  0  0  0  0  0  0  0  0  0  0  0
    1.2952   -2.7928   13.8448 C   0  0  0  0  0  0  0  0  0  0  0  0
    2.3588   -2.4354   13.0458 C   0  0  0  0  0  0  0  0  0  0  0  0
    3.2598   -3.4212   12.7047 C   0  0  0  0  0  0  0  0  0  0  0  0
    3.1555   -4.7188   13.1119 C   0  0  0  0  0  0  0  0  0  0  0  0
    2.5357   -1.0405   12.5651 C   0  0  0  0  0  0  0  0  0  0  0  0
    1.4548   -0.7291   11.6080 C   0  0  0  0  0  0  0  0  0  0  0  0
    1.5977    0.5347   10.8368 C   0  0  2  0  0  0  0  0  0  0  0  0
    0.6705    0.5485    9.7182 N   0  0  0  0  0  4  0  0  0  0  0  0
    0.3390    1.9363    9.4564 C   0  0  0  0  0  0  0  0  0  0  0  0
   -1.1120    2.2033    9.8001 C   0  0  0  0  0  0  0  0  0  0  0  0
   -1.6477    3.4001    9.1248 C   0  0  0  0  0  0  0  0  0  0  0  0
   -1.2433    3.6545    7.8138 C   0  0  0  0  0  0  0  0  0  0  0  0
   -1.7145    4.7589    7.1386 C   0  0  0  0  0  0  0  0  0  0  0  0
   -2.5906    5.6493    7.7123 C   0  0  0  0  0  0  0  0  0  0  0  0
   -2.9946    5.4000    9.0146 C   0  0  0  0  0  0  0  0  0  0  0  0
   -2.5218    4.2921    9.6916 C   0  0  0  0  0  0  0  0  0  0  0  0
   -3.8847    6.2843    9.6292 O   0  0  0  0  0  0  0  0  0  0  0  0
   -3.0487    6.7594    6.9990 O   0  0  0  0  0  0  0  0  0  0  0  0
    2.9490    0.8215   10.2975 C   0  0  0  0  0  0  0  0  0  0  0  0
  1  2  1  0
  2  3  2  0
  3  4  1  0
  4  5  2  0
  5  6  1  0
  6  7  2  0
  5  8  1  0
  8  9  1  0
  9 10  1  0
 10 11  1  0
 11 12  1  0
 12 13  1  0
 13 14  1  0
 14 15  2  0
 15 16  1  0
 16 17  2  0
 17 18  1  0
 18 19  2  0
 18 20  1  0
 17 21  1  0
 10 22  1  6
  7  2  1  0
 19 14  1  0
M  CHG  1  11   1
M  END
$$$$
