
     RDKit          3D

 22 23  0  0  0  0  0  0  0  0999 V2000
    3.1397   -5.2672   15.1852 O   0  0  0  0  0  0  0  0  0  0  0  0
    2.8041   -4.5755   14.0357 C   0  0  0  0  0  0  0  0  0  0  0  0
    1.9371   -5.0913   13.0896 C   0  0  0  0  0  0  0  0  0  0  0  0
    1.6227   -4.3592   11.9388 C   0  0  0  0  0  0  0  0  0  0  0  0
    2.1774   -3.1142   11.7398 C   0  0  0  0  0  0  0  0  0  0  0  0
    3.0363   -2.6368   12.7064 C   0  0  0  0  0  0  0  0  0  0  0  0
    3.3631   -3.3244   13.8381 C   0  0  0  0  0  0  0  0  0  0  0  0
    1.8665   -2.3090   10.5303 C   0  0  0  0  0  0  0  0  0  0  0  0
    1.3118   -1.0085   10.9572 C   0  0  0  0  0  0  0  0  0  0  0  0
    0.6733   -0.1818    9.8983 C   0  0  2  0  0  0  0  0  0  0  0  0
    0.3057    1.1196   10.4299 N   0  0  0  0  0  4  0  0  0  0  0  0
    0.0092    1.9749    9.2963 C   0  0  0  0  0  0  0  0  0  0  0  0
   -0.0670    3.4224    9.7365 C   0  0  0  0  0  0  0  0  0  0  0  0
   -1.0609    4.1996    8.9728 C   0  0  0  0  0  0  0  0  0  0  0  0
   -0.8688    4.3473    7.5987 C   0  0  0  0  0  0  0  0  0  0  0  0
   -1.7680    5.0638    6.8400 C   0  0  0  0  0  0  0  0  0  0  0  0
   -2.8792    5.6583    7.3887 C   0  0  0  0  0  0  0  0  0  0  0  0
   -3.0736    5.5139    8.7535 C   0  0  0  0  0  0  0  0  0  0  0  0
   -2.1714    4.7951    9.5143 C   0  0  0  0  0  0  0  0  0  0  0  0
   -4.1928    6.1049    9.3452 O   0  0  0  0  0  0  0  0  0  0  0  0
   -3.7710    6.3779    6.5901 O   0  0  0  0  0  0  0  0  0  0  0  0
   -0.5343   -0.7579    9.2590 C   0  0  0  0  0  0  0  0  0  0  0  0
  1  2  1  0
  2  3  2  0
  3  4  1  0
  4  5  2  0
  5  6  1  0
  6  7  2  0
  5  8  1  0
  8  9  1  0
  9 10  1  0
 10 11  1  0
 11 12  1  0
 12 13  1  0
 13 14  1  0
 14 15  2  0
 15 16  1  0
 16 17  2  0
 17 18  1  0
 18 19  2  0
 18 20  1  0
 17 21  1  0
 10 22  1  1
  7  2  1  0
 19 14  1  0
M  CHG  1  11   1
M  END
$$$$
