
     RDKit          3D

 22 23  0  0  0  0  0  0  0  0999 V2000
    3.6137   -5.3823   14.1398 O   0  0  0  0  0  0  0  0  0  0  0  0
    2.9273   -4.3763   13.4849 C   0  0  0  0  0  0  0  0  0  0  0  0
    3.0426   -4.1691   12.1223 C   0  0  0  0  0  0  0  0  0  0  0  0
    2.3305   -3.1393   11.4966 C   0  0  0  0  0  0  0  0  0  0  0  0
    1.5061   -2.3213   12.2372 C   0  0  0  0  0  0  0  0  0  0  0  0
    1.4193   -2.5613   13.5919 C   0  0  0  0  0  0  0  0  0  0  0  0
    2.0994   -3.5555   14.2317 C   0  0  0  0  0  0  0  0  0  0  0  0
    0.7352   -1.2184   11.6069 C   0  0  0  0  0  0  0  0  0  0  0  0
    1.6615   -0.3887   10.8100 C   0  0  0  0  0  0  0  0  0  0  0  0
    1.0814    0.2997    9.6260 C   0  0  2  0  0  0  0  0  0  0  0  0
   -0.0645    1.1007   10.0217 N   0  0  0  0  0  4  0  0  0  0  0  0
   -0.3797    1.9738    8.9069 C   0  0  0  0  0  0  0  0  0  0  0  0
   -0.2891    3.4243    9.3341 C   0  0  0  0  0  0  0  0  0  0  0  0
   -1.2240    4.2957    8.5979 C   0  0  0  0  0  0  0  0  0  0  0  0
   -1.0095    4.4891    7.2327 C   0  0  0  0  0  0  0  0  0  0  0  0
   -1.8538    5.2936    6.4995 C   0  0  0  0  0  0  0  0  0  0  0  0
   -2.9301    5.9343    7.0657 C   0  0  0  0  0  0  0  0  0  0  0  0
   -3.1464    5.7446    8.4217 C   0  0  0  0  0  0  0  0  0  0  0  0
   -2.2993    4.9375    9.1569 C   0  0  0  0  0  0  0  0  0  0  0  0
   -4.2312    6.3805    9.0305 O   0  0  0  0  0  0  0  0  0  0  0  0
   -3.7663    6.7431    6.2928 O   0  0  0  0  0  0  0  0  0  0  0  0
    0.6481   -0.5746    8.5094 C   0  0  0  0  0  0  0  0  0  0  0  0
  1  2  1  0
  2  3  2  0
  3  4  1  0
  4  5  2  0
  5  6  1  0
  6  7  2  0
  5  8  1  0
  8  9  1  0
  9 10  1  0
 10 11  1  0
 11 12  1  0
 12 13  1  0
 13 14  1  0
 14 15  2  0
 15 16  1  0
 16 17  2  0
 17 18  1  0
 18 19  2  0
 18 20  1  0
 17 21  1  0
 10 22  1  6
  7  2  1  0
 19 14  1  0
M  CHG  1  11   1
M  END
$$$$
