
     RDKit          3D

 22 23  0  0  0  0  0  0  0  0999 V2000
    3.2560   -5.8020   13.7547 O   0  0  0  0  0  0  0  0  0  0  0  0
    2.5291   -4.7290   13.2727 C   0  0  0  0  0  0  0  0  0  0  0  0
    2.6546   -4.2761   11.9719 C   0  0  0  0  0  0  0  0  0  0  0  0
    1.9004   -3.1861   11.5223 C   0  0  0  0  0  0  0  0  0  0  0  0
    1.0239   -2.5541   12.3764 C   0  0  0  0  0  0  0  0  0  0  0  0
    0.9286   -3.0364   13.6642 C   0  0  0  0  0  0  0  0  0  0  0  0
    1.6488   -4.0955   14.1332 C   0  0  0  0  0  0  0  0  0  0  0  0
    0.2073   -1.3943   11.9337 C   0  0  0  0  0  0  0  0  0  0  0  0
    0.9681   -0.1545   12.1898 C   0  0  0  0  0  0  0  0  0  0  0  0
    1.1994    0.7335   11.0192 C   0  0  2  0  0  0  0  0  0  0  0  0
    0.0892    0.6360   10.0870 N   0  0  0  0  0  4  0  0  0  0  0  0
   -0.0332    1.9252    9.4333 C   0  0  0  0  0  0  0  0  0  0  0  0
   -1.2097    1.9204    8.4790 C   0  0  0  0  0  0  0  0  0  0  0  0
   -1.7774    3.2649    8.2661 C   0  0  0  0  0  0  0  0  0  0  0  0
   -2.5565    3.8206    9.2815 C   0  0  0  0  0  0  0  0  0  0  0  0
   -3.1097    5.0734    9.1322 C   0  0  0  0  0  0  0  0  0  0  0  0
   -2.9251    5.8248    7.9962 C   0  0  0  0  0  0  0  0  0  0  0  0
   -2.1517    5.2762    6.9851 C   0  0  0  0  0  0  0  0  0  0  0  0
   -1.5969    4.0195    7.1352 C   0  0  0  0  0  0  0  0  0  0  0  0
   -1.9430    6.0121    5.8160 O   0  0  0  0  0  0  0  0  0  0  0  0
   -3.5007    7.0919    7.8777 O   0  0  0  0  0  0  0  0  0  0  0  0
    2.4457    0.4926   10.2526 C   0  0  0  0  0  0  0  0  0  0  0  0
  1  2  1  0
  2  3  2  0
  3  4  1  0
  4  5  2  0
  5  6  1  0
  6  7  2  0
  5  8  1  0
  8  9  1  0
  9 10  1  0
 10 11  1  0
 11 12  1  0
 12 13  1  0
 13 14  1  0
 14 15  2  0
 15 16  1  0
 16 17  2  0
 17 18  1  0
 18 19  2  0
 18 20  1  0
 17 21  1  0
 10 22  1  6
  7  2  1  0
 19 14  1  0
M  CHG  1  11   1
M  END
$$$$
