
     RDKit          3D

 22 23  0  0  0  0  0  0  0  0999 V2000
    2.6117   -5.8908   14.5769 O   0  0  0  0  0  0  0  0  0  0  0  0
    2.3411   -4.9053   13.6453 C   0  0  0  0  0  0  0  0  0  0  0  0
    2.8184   -4.9634   12.3485 C   0  0  0  0  0  0  0  0  0  0  0  0
    2.5220   -3.9451   11.4352 C   0  0  0  0  0  0  0  0  0  0  0  0
    1.7492   -2.8730   11.8235 C   0  0  0  0  0  0  0  0  0  0  0  0
    1.2935   -2.8534   13.1243 C   0  0  0  0  0  0  0  0  0  0  0  0
    1.5641   -3.8289   14.0383 C   0  0  0  0  0  0  0  0  0  0  0  0
    1.4145   -1.7740   10.8811 C   0  0  0  0  0  0  0  0  0  0  0  0
    1.7796   -0.4868   11.5064 C   0  0  0  0  0  0  0  0  0  0  0  0
    0.8209    0.6350   11.3195 C   0  0  2  0  0  0  0  0  0  0  0  0
    0.5260    0.8144    9.9082 N   0  0  0  0  0  4  0  0  0  0  0  0
   -0.2110    2.0574    9.7812 C   0  0  0  0  0  0  0  0  0  0  0  0
   -0.6489    2.2639    8.3457 C   0  0  0  0  0  0  0  0  0  0  0  0
   -1.3710    3.5343    8.1464 C   0  0  0  0  0  0  0  0  0  0  0  0
   -1.2049    4.2045    6.9338 C   0  0  0  0  0  0  0  0  0  0  0  0
   -1.8570    5.3948    6.6978 C   0  0  0  0  0  0  0  0  0  0  0  0
   -2.6887    5.9712    7.6280 C   0  0  0  0  0  0  0  0  0  0  0  0
   -2.8563    5.3084    8.8339 C   0  0  0  0  0  0  0  0  0  0  0  0
   -2.2020    4.1145    9.0704 C   0  0  0  0  0  0  0  0  0  0  0  0
   -3.6947    5.8655    9.8028 O   0  0  0  0  0  0  0  0  0  0  0  0
   -3.3346    7.1793    7.3560 O   0  0  0  0  0  0  0  0  0  0  0  0
    1.2431    1.9514   11.8560 C   0  0  0  0  0  0  0  0  0  0  0  0
  1  2  1  0
  2  3  2  0
  3  4  1  0
  4  5  2  0
  5  6  1  0
  6  7  2  0
  5  8  1  0
  8  9  1  0
  9 10  1  0
 10 11  1  0
 11 12  1  0
 12 13  1  0
 13 14  1  0
 14 15  2  0
 15 16  1  0
 16 17  2  0
 17 18  1  0
 18 19  2  0
 18 20  1  0
 17 21  1  0
 10 22  1  6
  7  2  1  0
 19 14  1  0
M  CHG  1  11   1
M  END
$$$$
