
     RDKit          3D

 22 23  0  0  0  0  0  0  0  0999 V2000
    3.9214   -6.0114   13.6707 O   0  0  0  0  0  0  0  0  0  0  0  0
    3.3667   -4.7731   13.4043 C   0  0  0  0  0  0  0  0  0  0  0  0
    3.7944   -3.6203   14.0375 C   0  0  0  0  0  0  0  0  0  0  0  0
    3.2068   -2.3853   13.7396 C   0  0  0  0  0  0  0  0  0  0  0  0
    2.1938   -2.3094   12.8094 C   0  0  0  0  0  0  0  0  0  0  0  0
    1.7972   -3.4812   12.2014 C   0  0  0  0  0  0  0  0  0  0  0  0
    2.3487   -4.6996   12.4689 C   0  0  0  0  0  0  0  0  0  0  0  0
    1.5470   -1.0159   12.4682 C   0  0  0  0  0  0  0  0  0  0  0  0
    1.2263   -1.0129   11.0265 C   0  0  0  0  0  0  0  0  0  0  0  0
    0.1512   -0.0824   10.5898 C   0  0  2  0  0  0  0  0  0  0  0  0
    0.6923    1.2506   10.3858 N   0  0  0  0  0  4  0  0  0  0  0  0
   -0.1771    1.9235    9.4394 C   0  0  0  0  0  0  0  0  0  0  0  0
    0.3675    3.2986    9.1121 C   0  0  0  0  0  0  0  0  0  0  0  0
   -0.6573    4.2003    8.5535 C   0  0  0  0  0  0  0  0  0  0  0  0
   -0.6869    4.3898    7.1714 C   0  0  0  0  0  0  0  0  0  0  0  0
   -1.6242    5.2218    6.5996 C   0  0  0  0  0  0  0  0  0  0  0  0
   -2.5601    5.8946    7.3484 C   0  0  0  0  0  0  0  0  0  0  0  0
   -2.5340    5.7089    8.7219 C   0  0  0  0  0  0  0  0  0  0  0  0
   -1.5937    4.8742    9.2951 C   0  0  0  0  0  0  0  0  0  0  0  0
   -3.4709    6.3771    9.5142 O   0  0  0  0  0  0  0  0  0  0  0  0
   -3.4966    6.7307    6.7362 O   0  0  0  0  0  0  0  0  0  0  0  0
   -1.0123    0.0449   11.5004 C   0  0  0  0  0  0  0  0  0  0  0  0
  1  2  1  0
  2  3  2  0
  3  4  1  0
  4  5  2  0
  5  6  1  0
  6  7  2  0
  5  8  1  0
  8  9  1  0
  9 10  1  0
 10 11  1  0
 11 12  1  0
 12 13  1  0
 13 14  1  0
 14 15  2  0
 15 16  1  0
 16 17  2  0
 17 18  1  0
 18 19  2  0
 18 20  1  0
 17 21  1  0
 10 22  1  1
  7  2  1  0
 19 14  1  0
M  CHG  1  11   1
M  END
$$$$
