
     RDKit          3D

 22 23  0  0  0  0  0  0  0  0999 V2000
    2.9876   -5.8072   14.1792 O   0  0  0  0  0  0  0  0  0  0  0  0
    2.6941   -4.5736   13.6275 C   0  0  0  0  0  0  0  0  0  0  0  0
    1.7572   -3.7205   14.1816 C   0  0  0  0  0  0  0  0  0  0  0  0
    1.4887   -2.4795   13.5924 C   0  0  0  0  0  0  0  0  0  0  0  0
    2.1590   -2.0978   12.4513 C   0  0  0  0  0  0  0  0  0  0  0  0
    3.0846   -2.9769   11.9311 C   0  0  0  0  0  0  0  0  0  0  0  0
    3.3693   -4.1924   12.4805 C   0  0  0  0  0  0  0  0  0  0  0  0
    1.8999   -0.7882   11.7988 C   0  0  0  0  0  0  0  0  0  0  0  0
    0.4926   -0.7523   11.3520 C   0  0  0  0  0  0  0  0  0  0  0  0
    0.2349   -0.1287   10.0265 C   0  0  2  0  0  0  0  0  0  0  0  0
    0.5970    1.2781   10.0539 N   0  0  0  0  0  4  0  0  0  0  0  0
   -0.3074    1.9688    9.1542 C   0  0  0  0  0  0  0  0  0  0  0  0
    0.0681    3.4330    9.0543 C   0  0  0  0  0  0  0  0  0  0  0  0
   -1.0411    4.2748    8.5681 C   0  0  0  0  0  0  0  0  0  0  0  0
   -1.1116    4.5488    7.2018 C   0  0  0  0  0  0  0  0  0  0  0  0
   -2.1278    5.3299    6.6969 C   0  0  0  0  0  0  0  0  0  0  0  0
   -3.1053    5.8685    7.4992 C   0  0  0  0  0  0  0  0  0  0  0  0
   -3.0387    5.5985    8.8572 C   0  0  0  0  0  0  0  0  0  0  0  0
   -2.0192    4.8149    9.3634 C   0  0  0  0  0  0  0  0  0  0  0  0
   -4.0159    6.1297    9.7027 O   0  0  0  0  0  0  0  0  0  0  0  0
   -4.1217    6.6563    6.9542 O   0  0  0  0  0  0  0  0  0  0  0  0
   -1.1563   -0.2197    9.5211 C   0  0  0  0  0  0  0  0  0  0  0  0
  1  2  1  0
  2  3  2  0
  3  4  1  0
  4  5  2  0
  5  6  1  0
  6  7  2  0
  5  8  1  0
  8  9  1  0
  9 10  1  0
 10 11  1  0
 11 12  1  0
 12 13  1  0
 13 14  1  0
 14 15  2  0
 15 16  1  0
 16 17  2  0
 17 18  1  0
 18 19  2  0
 18 20  1  0
 17 21  1  0
 10 22  1  1
  7  2  1  0
 19 14  1  0
M  CHG  1  11   1
M  END
$$$$
