
     RDKit          3D

 22 23  0  0  0  0  0  0  0  0999 V2000
    4.3841   -4.6818   15.0756 O   0  0  0  0  0  0  0  0  0  0  0  0
    3.4816   -4.0467   14.2423 C   0  0  0  0  0  0  0  0  0  0  0  0
    2.6609   -3.0248   14.6838 C   0  0  0  0  0  0  0  0  0  0  0  0
    1.7602   -2.4072   13.8083 C   0  0  0  0  0  0  0  0  0  0  0  0
    1.6848   -2.8150   12.4949 C   0  0  0  0  0  0  0  0  0  0  0  0
    2.5198   -3.8363   12.0952 C   0  0  0  0  0  0  0  0  0  0  0  0
    3.4078   -4.4585   12.9225 C   0  0  0  0  0  0  0  0  0  0  0  0
    0.7407   -2.1824   11.5375 C   0  0  0  0  0  0  0  0  0  0  0  0
    1.2507   -0.8416   11.1859 C   0  0  0  0  0  0  0  0  0  0  0  0
    0.2297    0.1925   10.8689 C   0  0  2  0  0  0  0  0  0  0  0  0
    0.7938    1.2033    9.9908 N   0  0  0  0  0  4  0  0  0  0  0  0
   -0.3164    1.9576    9.4404 C   0  0  0  0  0  0  0  0  0  0  0  0
    0.1792    2.9308    8.3906 C   0  0  0  0  0  0  0  0  0  0  0  0
   -0.7556    4.0484    8.1617 C   0  0  0  0  0  0  0  0  0  0  0  0
   -0.7854    4.6350    6.8960 C   0  0  0  0  0  0  0  0  0  0  0  0
   -1.6405    5.6819    6.6306 C   0  0  0  0  0  0  0  0  0  0  0  0
   -2.4916    6.1917    7.5820 C   0  0  0  0  0  0  0  0  0  0  0  0
   -2.4649    5.6116    8.8407 C   0  0  0  0  0  0  0  0  0  0  0  0
   -1.6070    4.5614    9.1066 C   0  0  0  0  0  0  0  0  0  0  0  0
   -3.3166    6.1044    9.8324 O   0  0  0  0  0  0  0  0  0  0  0  0
   -3.3460    7.2542    7.2790 O   0  0  0  0  0  0  0  0  0  0  0  0
   -0.3697    0.8958   12.0287 C   0  0  0  0  0  0  0  0  0  0  0  0
  1  2  1  0
  2  3  2  0
  3  4  1  0
  4  5  2  0
  5  6  1  0
  6  7  2  0
  5  8  1  0
  8  9  1  0
  9 10  1  0
 10 11  1  0
 11 12  1  0
 12 13  1  0
 13 14  1  0
 14 15  2  0
 15 16  1  0
 16 17  2  0
 17 18  1  0
 18 19  2  0
 18 20  1  0
 17 21  1  0
 10 22  1  1
  7  2  1  0
 19 14  1  0
M  CHG  1  11   1
M  END
$$$$
