
     RDKit          3D

 22 23  0  0  0  0  0  0  0  0999 V2000
    1.5877   -5.2709   15.3397 O   0  0  0  0  0  0  0  0  0  0  0  0
    1.8443   -4.3946   14.3013 C   0  0  0  0  0  0  0  0  0  0  0  0
    3.0677   -4.3497   13.6576 C   0  0  0  0  0  0  0  0  0  0  0  0
    3.2877   -3.4477   12.6102 C   0  0  0  0  0  0  0  0  0  0  0  0
    2.2826   -2.5945   12.2115 C   0  0  0  0  0  0  0  0  0  0  0  0
    1.0788   -2.6712   12.8788 C   0  0  0  0  0  0  0  0  0  0  0  0
    0.8323   -3.5381   13.9025 C   0  0  0  0  0  0  0  0  0  0  0  0
    2.4804   -1.6242   11.1037 C   0  0  0  0  0  0  0  0  0  0  0  0
    1.4652   -0.5580   11.2215 C   0  0  0  0  0  0  0  0  0  0  0  0
    1.0986    0.1483    9.9648 C   0  0  2  0  0  0  0  0  0  0  0  0
    0.2005    1.2535   10.2530 N   0  0  0  0  0  4  0  0  0  0  0  0
    0.2049    2.1208    9.0902 C   0  0  0  0  0  0  0  0  0  0  0  0
    0.2173    3.5737    9.5189 C   0  0  0  0  0  0  0  0  0  0  0  0
   -0.9350    4.3325    8.9977 C   0  0  0  0  0  0  0  0  0  0  0  0
   -0.9585    4.6455    7.6381 C   0  0  0  0  0  0  0  0  0  0  0  0
   -2.0119    5.3525    7.1016 C   0  0  0  0  0  0  0  0  0  0  0  0
   -3.0733    5.7772    7.8648 C   0  0  0  0  0  0  0  0  0  0  0  0
   -3.0537    5.4682    9.2159 C   0  0  0  0  0  0  0  0  0  0  0  0
   -1.9967    4.7589    9.7539 C   0  0  0  0  0  0  0  0  0  0  0  0
   -4.1163    5.8841   10.0220 O   0  0  0  0  0  0  0  0  0  0  0  0
   -4.1256    6.4923    7.2884 O   0  0  0  0  0  0  0  0  0  0  0  0
    0.4612   -0.6794    8.9124 C   0  0  0  0  0  0  0  0  0  0  0  0
  1  2  1  0
  2  3  2  0
  3  4  1  0
  4  5  2  0
  5  6  1  0
  6  7  2  0
  5  8  1  0
  8  9  1  0
  9 10  1  0
 10 11  1  0
 11 12  1  0
 12 13  1  0
 13 14  1  0
 14 15  2  0
 15 16  1  0
 16 17  2  0
 17 18  1  0
 18 19  2  0
 18 20  1  0
 17 21  1  0
 10 22  1  6
  7  2  1  0
 19 14  1  0
M  CHG  1  11   1
M  END
$$$$
