
     RDKit          3D

 22 23  0  0  0  0  0  0  0  0999 V2000
    1.4646   -5.4206   15.0806 O   0  0  0  0  0  0  0  0  0  0  0  0
    1.4465   -4.1636   14.5044 C   0  0  0  0  0  0  0  0  0  0  0  0
    1.5779   -3.0068   15.2509 C   0  0  0  0  0  0  0  0  0  0  0  0
    1.5544   -1.7528   14.6294 C   0  0  0  0  0  0  0  0  0  0  0  0
    1.3994   -1.6621   13.2638 C   0  0  0  0  0  0  0  0  0  0  0  0
    1.2718   -2.8385   12.5569 C   0  0  0  0  0  0  0  0  0  0  0  0
    1.2906   -4.0753   13.1316 C   0  0  0  0  0  0  0  0  0  0  0  0
    1.3698   -0.3482   12.5704 C   0  0  0  0  0  0  0  0  0  0  0  0
    1.2038   -0.5814   11.1215 C   0  0  0  0  0  0  0  0  0  0  0  0
    1.1917    0.6268   10.2540 C   0  0  2  0  0  0  0  0  0  0  0  0
    0.0167    1.4345   10.5332 N   0  0  0  0  0  4  0  0  0  0  0  0
   -0.0128    2.4992    9.5484 C   0  0  0  0  0  0  0  0  0  0  0  0
   -1.2006    2.3267    8.6241 C   0  0  0  0  0  0  0  0  0  0  0  0
   -1.7439    3.6122    8.1470 C   0  0  0  0  0  0  0  0  0  0  0  0
   -1.4498    4.0093    6.8421 C   0  0  0  0  0  0  0  0  0  0  0  0
   -1.9329    5.2011    6.3483 C   0  0  0  0  0  0  0  0  0  0  0  0
   -2.7147    6.0432    7.1026 C   0  0  0  0  0  0  0  0  0  0  0  0
   -3.0091    5.6522    8.3995 C   0  0  0  0  0  0  0  0  0  0  0  0
   -2.5243    4.4566    8.8945 C   0  0  0  0  0  0  0  0  0  0  0  0
   -3.8013    6.4838    9.1950 O   0  0  0  0  0  0  0  0  0  0  0  0
   -3.1881    7.2447    6.5705 O   0  0  0  0  0  0  0  0  0  0  0  0
    1.2251    0.3815    8.7919 C   0  0  0  0  0  0  0  0  0  0  0  0
  1  2  1  0
  2  3  2  0
  3  4  1  0
  4  5  2  0
  5  6  1  0
  6  7  2  0
  5  8  1  0
  8  9  1  0
  9 10  1  0
 10 11  1  0
 11 12  1  0
 12 13  1  0
 13 14  1  0
 14 15  2  0
 15 16  1  0
 16 17  2  0
 17 18  1  0
 18 19  2  0
 18 20  1  0
 17 21  1  0
 10 22  1  6
  7  2  1  0
 19 14  1  0
M  CHG  1  11   1
M  END
$$$$
