
     RDKit          3D

 22 23  0  0  0  0  0  0  0  0999 V2000
   -0.3275   -4.8886   15.1797 O   0  0  0  0  0  0  0  0  0  0  0  0
    0.1466   -3.7347   14.5830 C   0  0  0  0  0  0  0  0  0  0  0  0
    1.3434   -3.6990   13.8907 C   0  0  0  0  0  0  0  0  0  0  0  0
    1.7886   -2.5104   13.3007 C   0  0  0  0  0  0  0  0  0  0  0  0
    1.0343   -1.3628   13.4060 C   0  0  0  0  0  0  0  0  0  0  0  0
   -0.1517   -1.4409   14.1042 C   0  0  0  0  0  0  0  0  0  0  0  0
   -0.6135   -2.5826   14.6904 C   0  0  0  0  0  0  0  0  0  0  0  0
    1.4757   -0.0834   12.7926 C   0  0  0  0  0  0  0  0  0  0  0  0
    0.6840    0.1523   11.5682 C   0  0  0  0  0  0  0  0  0  0  0  0
    1.1163    1.2869   10.7090 C   0  0  2  0  0  0  0  0  0  0  0  0
    0.4060    1.2569    9.4418 N   0  0  0  0  0  4  0  0  0  0  0  0
   -0.1288    2.5872    9.2211 C   0  0  0  0  0  0  0  0  0  0  0  0
   -0.7966    2.6661    7.8637 C   0  0  0  0  0  0  0  0  0  0  0  0
   -1.8363    3.7101    7.7989 C   0  0  0  0  0  0  0  0  0  0  0  0
   -3.1703    3.3088    7.7179 C   0  0  0  0  0  0  0  0  0  0  0  0
   -4.1793    4.2445    7.6551 C   0  0  0  0  0  0  0  0  0  0  0  0
   -3.9271    5.5957    7.6689 C   0  0  0  0  0  0  0  0  0  0  0  0
   -2.6031    5.9983    7.7493 C   0  0  0  0  0  0  0  0  0  0  0  0
   -1.5911    5.0594    7.8123 C   0  0  0  0  0  0  0  0  0  0  0  0
   -2.3097    7.3642    7.7655 O   0  0  0  0  0  0  0  0  0  0  0  0
   -4.9743    6.5175    7.6037 O   0  0  0  0  0  0  0  0  0  0  0  0
    2.5656    1.3604   10.4044 C   0  0  0  0  0  0  0  0  0  0  0  0
  1  2  1  0
  2  3  2  0
  3  4  1  0
  4  5  2  0
  5  6  1  0
  6  7  2  0
  5  8  1  0
  8  9  1  0
  9 10  1  0
 10 11  1  0
 11 12  1  0
 12 13  1  0
 13 14  1  0
 14 15  2  0
 15 16  1  0
 16 17  2  0
 17 18  1  0
 18 19  2  0
 18 20  1  0
 17 21  1  0
 10 22  1  6
  7  2  1  0
 19 14  1  0
M  CHG  1  11   1
M  END
$$$$
