
     RDKit          3D

 22 23  0  0  0  0  0  0  0  0999 V2000
    2.7623   -5.7217   13.2631 O   0  0  0  0  0  0  0  0  0  0  0  0
    2.4334   -4.3827   13.1577 C   0  0  0  0  0  0  0  0  0  0  0  0
    1.1891   -3.8971   13.5168 C   0  0  0  0  0  0  0  0  0  0  0  0
    0.8953   -2.5340   13.3950 C   0  0  0  0  0  0  0  0  0  0  0  0
    1.8479   -1.6629   12.9145 C   0  0  0  0  0  0  0  0  0  0  0  0
    3.0747   -2.1872   12.5679 C   0  0  0  0  0  0  0  0  0  0  0  0
    3.3927   -3.5092   12.6744 C   0  0  0  0  0  0  0  0  0  0  0  0
    1.5712   -0.2099   12.7717 C   0  0  0  0  0  0  0  0  0  0  0  0
    0.6769   -0.0099   11.6135 C   0  0  0  0  0  0  0  0  0  0  0  0
    1.2378    0.7570   10.4691 C   0  0  2  0  0  0  0  0  0  0  0  0
    0.2928    0.7763    9.3656 N   0  0  0  0  0  4  0  0  0  0  0  0
   -0.0512    2.1646    9.1232 C   0  0  0  0  0  0  0  0  0  0  0  0
   -1.1090    2.2626    8.0431 C   0  0  0  0  0  0  0  0  0  0  0  0
   -1.6202    3.6348    7.8677 C   0  0  0  0  0  0  0  0  0  0  0  0
   -1.2392    4.3399    6.7254 C   0  0  0  0  0  0  0  0  0  0  0  0
   -1.6891    5.6246    6.5142 C   0  0  0  0  0  0  0  0  0  0  0  0
   -2.5207    6.2646    7.4021 C   0  0  0  0  0  0  0  0  0  0  0  0
   -2.9014    5.5675    8.5382 C   0  0  0  0  0  0  0  0  0  0  0  0
   -2.4499    4.2787    8.7497 C   0  0  0  0  0  0  0  0  0  0  0  0
   -3.7460    6.1872    9.4625 O   0  0  0  0  0  0  0  0  0  0  0  0
   -2.9583    7.5682    7.1571 O   0  0  0  0  0  0  0  0  0  0  0  0
    2.5352    0.2775    9.9347 C   0  0  0  0  0  0  0  0  0  0  0  0
  1  2  1  0
  2  3  2  0
  3  4  1  0
  4  5  2  0
  5  6  1  0
  6  7  2  0
  5  8  1  0
  8  9  1  0
  9 10  1  0
 10 11  1  0
 11 12  1  0
 12 13  1  0
 13 14  1  0
 14 15  2  0
 15 16  1  0
 16 17  2  0
 17 18  1  0
 18 19  2  0
 18 20  1  0
 17 21  1  0
 10 22  1  6
  7  2  1  0
 19 14  1  0
M  CHG  1  11   1
M  END
$$$$
