
     RDKit          3D

 22 23  0  0  0  0  0  0  0  0999 V2000
    0.1567   -4.1064   16.7598 O   0  0  0  0  0  0  0  0  0  0  0  0
    0.2708   -3.4702   15.5373 C   0  0  0  0  0  0  0  0  0  0  0  0
    1.3722   -3.6370   14.7175 C   0  0  0  0  0  0  0  0  0  0  0  0
    1.4497   -2.9750   13.4868 C   0  0  0  0  0  0  0  0  0  0  0  0
    0.4246   -2.1489   13.0817 C   0  0  0  0  0  0  0  0  0  0  0  0
   -0.6547   -2.0099   13.9278 C   0  0  0  0  0  0  0  0  0  0  0  0
   -0.7609   -2.6404   15.1325 C   0  0  0  0  0  0  0  0  0  0  0  0
    0.4728   -1.4302   11.7820 C   0  0  0  0  0  0  0  0  0  0  0  0
    0.6714    0.0096   12.0444 C   0  0  0  0  0  0  0  0  0  0  0  0
    0.9805    0.8607   10.8644 C   0  0  2  0  0  0  0  0  0  0  0  0
   -0.1762    0.9459    9.9892 N   0  0  0  0  0  4  0  0  0  0  0  0
   -0.2240    2.3021    9.4765 C   0  0  0  0  0  0  0  0  0  0  0  0
   -0.7539    2.3084    8.0573 C   0  0  0  0  0  0  0  0  0  0  0  0
   -1.6199    3.4688    7.7766 C   0  0  0  0  0  0  0  0  0  0  0  0
   -1.6496    3.9705    6.4749 C   0  0  0  0  0  0  0  0  0  0  0  0
   -2.4418    5.0527    6.1606 C   0  0  0  0  0  0  0  0  0  0  0  0
   -3.2284    5.6810    7.0966 C   0  0  0  0  0  0  0  0  0  0  0  0
   -3.2016    5.1855    8.3909 C   0  0  0  0  0  0  0  0  0  0  0  0
   -2.4068    4.0999    8.7059 C   0  0  0  0  0  0  0  0  0  0  0  0
   -3.9888    5.7997    9.3683 O   0  0  0  0  0  0  0  0  0  0  0  0
   -4.0201    6.7763    6.7437 O   0  0  0  0  0  0  0  0  0  0  0  0
    2.1342    0.4347   10.0360 C   0  0  0  0  0  0  0  0  0  0  0  0
  1  2  1  0
  2  3  2  0
  3  4  1  0
  4  5  2  0
  5  6  1  0
  6  7  2  0
  5  8  1  0
  8  9  1  0
  9 10  1  0
 10 11  1  0
 11 12  1  0
 12 13  1  0
 13 14  1  0
 14 15  2  0
 15 16  1  0
 16 17  2  0
 17 18  1  0
 18 19  2  0
 18 20  1  0
 17 21  1  0
 10 22  1  6
  7  2  1  0
 19 14  1  0
M  CHG  1  11   1
M  END
$$$$
