
     RDKit          3D

 22 23  0  0  0  0  0  0  0  0999 V2000
    2.7471   -6.1957   12.6457 O   0  0  0  0  0  0  0  0  0  0  0  0
    2.6862   -4.8164   12.5682 C   0  0  0  0  0  0  0  0  0  0  0  0
    2.2992   -4.1576   11.4154 C   0  0  0  0  0  0  0  0  0  0  0  0
    2.2505   -2.7593   11.3776 C   0  0  0  0  0  0  0  0  0  0  0  0
    2.5892   -2.0264   12.4936 C   0  0  0  0  0  0  0  0  0  0  0  0
    2.9692   -2.7213   13.6218 C   0  0  0  0  0  0  0  0  0  0  0  0
    3.0271   -4.0822   13.6914 C   0  0  0  0  0  0  0  0  0  0  0  0
    2.5492   -0.5410   12.4898 C   0  0  0  0  0  0  0  0  0  0  0  0
    1.2363   -0.1043   11.9731 C   0  0  0  0  0  0  0  0  0  0  0  0
    1.1900    1.2381   11.3342 C   0  0  2  0  0  0  0  0  0  0  0  0
    1.1368    1.1051    9.8883 N   0  0  0  0  0  4  0  0  0  0  0  0
    0.5829    2.3402    9.3666 C   0  0  0  0  0  0  0  0  0  0  0  0
   -0.9013    2.1820    9.1079 C   0  0  0  0  0  0  0  0  0  0  0  0
   -1.5399    3.4348    8.6629 C   0  0  0  0  0  0  0  0  0  0  0  0
   -2.3195    4.1402    9.5802 C   0  0  0  0  0  0  0  0  0  0  0  0
   -2.9374    5.3158    9.2146 C   0  0  0  0  0  0  0  0  0  0  0  0
   -2.8190    5.8431    7.9507 C   0  0  0  0  0  0  0  0  0  0  0  0
   -2.0453    5.1452    7.0365 C   0  0  0  0  0  0  0  0  0  0  0  0
   -1.4256    3.9660    7.4036 C   0  0  0  0  0  0  0  0  0  0  0  0
   -1.9030    5.6520    5.7423 O   0  0  0  0  0  0  0  0  0  0  0  0
   -3.4593    7.0377    7.6133 O   0  0  0  0  0  0  0  0  0  0  0  0
    2.3116    2.1534   11.6553 C   0  0  0  0  0  0  0  0  0  0  0  0
  1  2  1  0
  2  3  2  0
  3  4  1  0
  4  5  2  0
  5  6  1  0
  6  7  2  0
  5  8  1  0
  8  9  1  0
  9 10  1  0
 10 11  1  0
 11 12  1  0
 12 13  1  0
 13 14  1  0
 14 15  2  0
 15 16  1  0
 16 17  2  0
 17 18  1  0
 18 19  2  0
 18 20  1  0
 17 21  1  0
 10 22  1  6
  7  2  1  0
 19 14  1  0
M  CHG  1  11   1
M  END
$$$$
