
     RDKit          3D

 22 23  0  0  0  0  0  0  0  0999 V2000
    2.4127   -6.1162   12.3568 O   0  0  0  0  0  0  0  0  0  0  0  0
    2.3992   -4.7339   12.3204 C   0  0  0  0  0  0  0  0  0  0  0  0
    2.1638   -3.9674   13.4474 C   0  0  0  0  0  0  0  0  0  0  0  0
    2.1585   -2.5700   13.3687 C   0  0  0  0  0  0  0  0  0  0  0  0
    2.3886   -1.9457   12.1628 C   0  0  0  0  0  0  0  0  0  0  0  0
    2.6189   -2.7457   11.0641 C   0  0  0  0  0  0  0  0  0  0  0  0
    2.6308   -4.1089   11.1070 C   0  0  0  0  0  0  0  0  0  0  0  0
    2.3904   -0.4647   12.0419 C   0  0  0  0  0  0  0  0  0  0  0  0
    1.0925    0.0510   12.5224 C   0  0  0  0  0  0  0  0  0  0  0  0
    0.0883    0.3909   11.4791 C   0  0  2  0  0  0  0  0  0  0  0  0
    0.6527    1.3306   10.5255 N   0  0  0  0  0  4  0  0  0  0  0  0
   -0.4493    1.8577    9.7431 C   0  0  0  0  0  0  0  0  0  0  0  0
    0.0624    2.8442    8.7135 C   0  0  0  0  0  0  0  0  0  0  0  0
   -0.9667    3.8119    8.2895 C   0  0  0  0  0  0  0  0  0  0  0  0
   -1.1604    4.0126    6.9223 C   0  0  0  0  0  0  0  0  0  0  0  0
   -2.1089    4.9054    6.4741 C   0  0  0  0  0  0  0  0  0  0  0  0
   -2.8976    5.6299    7.3357 C   0  0  0  0  0  0  0  0  0  0  0  0
   -2.7082    5.4334    8.6947 C   0  0  0  0  0  0  0  0  0  0  0  0
   -1.7567    4.5377    9.1439 C   0  0  0  0  0  0  0  0  0  0  0  0
   -3.4925    6.1532    9.5995 O   0  0  0  0  0  0  0  0  0  0  0  0
   -3.8502    6.5271    6.8472 O   0  0  0  0  0  0  0  0  0  0  0  0
   -1.1899    0.9645   11.9649 C   0  0  0  0  0  0  0  0  0  0  0  0
  1  2  1  0
  2  3  2  0
  3  4  1  0
  4  5  2  0
  5  6  1  0
  6  7  2  0
  5  8  1  0
  8  9  1  0
  9 10  1  0
 10 11  1  0
 11 12  1  0
 12 13  1  0
 13 14  1  0
 14 15  2  0
 15 16  1  0
 16 17  2  0
 17 18  1  0
 18 19  2  0
 18 20  1  0
 17 21  1  0
 10 22  1  1
  7  2  1  0
 19 14  1  0
M  CHG  1  11   1
M  END
$$$$
