
     RDKit          3D

 22 23  0  0  0  0  0  0  0  0999 V2000
    2.2936   -6.3056   14.5612 O   0  0  0  0  0  0  0  0  0  0  0  0
    2.1170   -5.0210   14.0807 C   0  0  0  0  0  0  0  0  0  0  0  0
    1.3863   -4.0690   14.7681 C   0  0  0  0  0  0  0  0  0  0  0  0
    1.2309   -2.7791   14.2475 C   0  0  0  0  0  0  0  0  0  0  0  0
    1.8073   -2.4475   13.0413 C   0  0  0  0  0  0  0  0  0  0  0  0
    2.5272   -3.4250   12.3883 C   0  0  0  0  0  0  0  0  0  0  0  0
    2.6975   -4.6904   12.8680 C   0  0  0  0  0  0  0  0  0  0  0  0
    1.6632   -1.0883   12.4584 C   0  0  0  0  0  0  0  0  0  0  0  0
    1.5283   -1.2137   10.9930 C   0  0  0  0  0  0  0  0  0  0  0  0
    1.3087    0.0491   10.2384 C   0  0  2  0  0  0  0  0  0  0  0  0
   -0.0762    0.4722   10.3585 N   0  0  0  0  0  4  0  0  0  0  0  0
   -0.1951    1.7429    9.6689 C   0  0  0  0  0  0  0  0  0  0  0  0
   -1.6198    2.2517    9.7479 C   0  0  0  0  0  0  0  0  0  0  0  0
   -1.8139    3.5205    9.0214 C   0  0  0  0  0  0  0  0  0  0  0  0
   -1.4544    4.7080    9.6597 C   0  0  0  0  0  0  0  0  0  0  0  0
   -1.6156    5.9198    9.0246 C   0  0  0  0  0  0  0  0  0  0  0  0
   -2.1293    6.0178    7.7535 C   0  0  0  0  0  0  0  0  0  0  0  0
   -2.4877    4.8402    7.1160 C   0  0  0  0  0  0  0  0  0  0  0  0
   -2.3258    3.6249    7.7533 C   0  0  0  0  0  0  0  0  0  0  0  0
   -3.0133    4.9022    5.8230 O   0  0  0  0  0  0  0  0  0  0  0  0
   -2.2794    7.2629    7.1387 O   0  0  0  0  0  0  0  0  0  0  0  0
    1.6382    0.0122    8.7930 C   0  0  0  0  0  0  0  0  0  0  0  0
  1  2  1  0
  2  3  2  0
  3  4  1  0
  4  5  2  0
  5  6  1  0
  6  7  2  0
  5  8  1  0
  8  9  1  0
  9 10  1  0
 10 11  1  0
 11 12  1  0
 12 13  1  0
 13 14  1  0
 14 15  2  0
 15 16  1  0
 16 17  2  0
 17 18  1  0
 18 19  2  0
 18 20  1  0
 17 21  1  0
 10 22  1  6
  7  2  1  0
 19 14  1  0
M  CHG  1  11   1
M  END
$$$$
