
     RDKit          3D

 22 23  0  0  0  0  0  0  0  0999 V2000
    2.5894   -5.3468   15.2262 O   0  0  0  0  0  0  0  0  0  0  0  0
    2.4751   -4.5389   14.1097 C   0  0  0  0  0  0  0  0  0  0  0  0
    1.9665   -5.0037   12.9104 C   0  0  0  0  0  0  0  0  0  0  0  0
    1.8672   -4.1537   11.8028 C   0  0  0  0  0  0  0  0  0  0  0  0
    2.2773   -2.8424   11.9002 C   0  0  0  0  0  0  0  0  0  0  0  0
    2.7781   -2.4191   13.1127 C   0  0  0  0  0  0  0  0  0  0  0  0
    2.8881   -3.2214   14.2103 C   0  0  0  0  0  0  0  0  0  0  0  0
    2.1867   -1.9117   10.7454 C   0  0  0  0  0  0  0  0  0  0  0  0
    1.1792   -0.8757   11.0504 C   0  0  0  0  0  0  0  0  0  0  0  0
    0.7998    0.0280    9.9315 C   0  0  2  0  0  0  0  0  0  0  0  0
    0.1867    1.2392   10.4494 N   0  0  0  0  0  4  0  0  0  0  0  0
   -0.2009    2.0434    9.3060 C   0  0  0  0  0  0  0  0  0  0  0  0
   -0.1663    3.5151    9.6633 C   0  0  0  0  0  0  0  0  0  0  0  0
   -1.2287    4.2898    8.9952 C   0  0  0  0  0  0  0  0  0  0  0  0
   -1.0912    4.5598    7.6331 C   0  0  0  0  0  0  0  0  0  0  0  0
   -2.0554    5.2794    6.9622 C   0  0  0  0  0  0  0  0  0  0  0  0
   -3.1806    5.7587    7.5895 C   0  0  0  0  0  0  0  0  0  0  0  0
   -3.3208    5.4925    8.9427 C   0  0  0  0  0  0  0  0  0  0  0  0
   -2.3535    4.7706    9.6154 C   0  0  0  0  0  0  0  0  0  0  0  0
   -4.4523    5.9644    9.6127 O   0  0  0  0  0  0  0  0  0  0  0  0
   -4.1389    6.4850    6.8789 O   0  0  0  0  0  0  0  0  0  0  0  0
   -0.1226   -0.5387    8.9182 C   0  0  0  0  0  0  0  0  0  0  0  0
  1  2  1  0
  2  3  2  0
  3  4  1  0
  4  5  2  0
  5  6  1  0
  6  7  2  0
  5  8  1  0
  8  9  1  0
  9 10  1  0
 10 11  1  0
 11 12  1  0
 12 13  1  0
 13 14  1  0
 14 15  2  0
 15 16  1  0
 16 17  2  0
 17 18  1  0
 18 19  2  0
 18 20  1  0
 17 21  1  0
 10 22  1  6
  7  2  1  0
 19 14  1  0
M  CHG  1  11   1
M  END
$$$$
