
     RDKit          3D

 22 23  0  0  0  0  0  0  0  0999 V2000
    2.0889   -5.8138   13.9060 O   0  0  0  0  0  0  0  0  0  0  0  0
    2.0627   -4.7729   12.9960 C   0  0  0  0  0  0  0  0  0  0  0  0
    2.6762   -4.8572   11.7593 C   0  0  0  0  0  0  0  0  0  0  0  0
    2.6268   -3.7807   10.8661 C   0  0  0  0  0  0  0  0  0  0  0  0
    1.9639   -2.6247   11.2143 C   0  0  0  0  0  0  0  0  0  0  0  0
    1.3661   -2.5816   12.4557 C   0  0  0  0  0  0  0  0  0  0  0  0
    1.3957   -3.6121   13.3486 C   0  0  0  0  0  0  0  0  0  0  0  0
    1.8911   -1.4623   10.2916 C   0  0  0  0  0  0  0  0  0  0  0  0
    2.2294   -0.2379   11.0452 C   0  0  0  0  0  0  0  0  0  0  0  0
    1.2354    0.8673   10.9925 C   0  0  2  0  0  0  0  0  0  0  0  0
    0.7097    1.0069    9.6451 N   0  0  0  0  0  4  0  0  0  0  0  0
   -0.1515    2.1742    9.6422 C   0  0  0  0  0  0  0  0  0  0  0  0
   -1.2026    2.0484    8.5586 C   0  0  0  0  0  0  0  0  0  0  0  0
   -1.5982    3.3519    7.9931 C   0  0  0  0  0  0  0  0  0  0  0  0
   -2.2560    4.2594    8.8242 C   0  0  0  0  0  0  0  0  0  0  0  0
   -2.6467    5.4903    8.3447 C   0  0  0  0  0  0  0  0  0  0  0  0
   -2.4122    5.8790    7.0473 C   0  0  0  0  0  0  0  0  0  0  0  0
   -1.7589    4.9801    6.2186 C   0  0  0  0  0  0  0  0  0  0  0  0
   -1.3672    3.7455    6.6998 C   0  0  0  0  0  0  0  0  0  0  0  0
   -1.5040    5.3419    4.8934 O   0  0  0  0  0  0  0  0  0  0  0  0
   -2.8219    7.1349    6.5937 O   0  0  0  0  0  0  0  0  0  0  0  0
    1.7191    2.2019   11.4211 C   0  0  0  0  0  0  0  0  0  0  0  0
  1  2  1  0
  2  3  2  0
  3  4  1  0
  4  5  2  0
  5  6  1  0
  6  7  2  0
  5  8  1  0
  8  9  1  0
  9 10  1  0
 10 11  1  0
 11 12  1  0
 12 13  1  0
 13 14  1  0
 14 15  2  0
 15 16  1  0
 16 17  2  0
 17 18  1  0
 18 19  2  0
 18 20  1  0
 17 21  1  0
 10 22  1  6
  7  2  1  0
 19 14  1  0
M  CHG  1  11   1
M  END
$$$$
