
     RDKit          3D

 22 23  0  0  0  0  0  0  0  0999 V2000
    2.6996   -5.7366   14.4049 O   0  0  0  0  0  0  0  0  0  0  0  0
    2.6482   -4.6141   13.5989 C   0  0  0  0  0  0  0  0  0  0  0  0
    3.2643   -4.5641   12.3617 C   0  0  0  0  0  0  0  0  0  0  0  0
    3.1889   -3.4084   11.5757 C   0  0  0  0  0  0  0  0  0  0  0  0
    2.4973   -2.3078   12.0312 C   0  0  0  0  0  0  0  0  0  0  0  0
    1.8978   -2.3988   13.2692 C   0  0  0  0  0  0  0  0  0  0  0  0
    1.9524   -3.5092   14.0592 C   0  0  0  0  0  0  0  0  0  0  0  0
    2.3963   -1.0643   11.2241 C   0  0  0  0  0  0  0  0  0  0  0  0
    1.2559   -1.1947   10.2947 C   0  0  0  0  0  0  0  0  0  0  0  0
    0.9795   -0.0250    9.4184 C   0  0  2  0  0  0  0  0  0  0  0  0
    0.1912    0.9639   10.1339 N   0  0  0  0  0  4  0  0  0  0  0  0
   -0.2232    1.9610    9.1651 C   0  0  0  0  0  0  0  0  0  0  0  0
   -0.6422    3.2351    9.8694 C   0  0  0  0  0  0  0  0  0  0  0  0
   -1.4286    4.1336    9.0038 C   0  0  0  0  0  0  0  0  0  0  0  0
   -1.0312    4.2840    7.6747 C   0  0  0  0  0  0  0  0  0  0  0  0
   -1.7318    5.1115    6.8248 C   0  0  0  0  0  0  0  0  0  0  0  0
   -2.8372    5.8174    7.2362 C   0  0  0  0  0  0  0  0  0  0  0  0
   -3.2351    5.6706    8.5559 C   0  0  0  0  0  0  0  0  0  0  0  0
   -2.5321    4.8405    9.4081 C   0  0  0  0  0  0  0  0  0  0  0  0
   -4.3546    6.3732    9.0085 O   0  0  0  0  0  0  0  0  0  0  0  0
   -3.5245    6.6478    6.3480 O   0  0  0  0  0  0  0  0  0  0  0  0
    0.2786   -0.3146    8.1441 C   0  0  0  0  0  0  0  0  0  0  0  0
  1  2  1  0
  2  3  2  0
  3  4  1  0
  4  5  2  0
  5  6  1  0
  6  7  2  0
  5  8  1  0
  8  9  1  0
  9 10  1  0
 10 11  1  0
 11 12  1  0
 12 13  1  0
 13 14  1  0
 14 15  2  0
 15 16  1  0
 16 17  2  0
 17 18  1  0
 18 19  2  0
 18 20  1  0
 17 21  1  0
 10 22  1  6
  7  2  1  0
 19 14  1  0
M  CHG  1  11   1
M  END
$$$$
