
     RDKit          3D

 22 23  0  0  0  0  0  0  0  0999 V2000
    3.8521   -6.4178   12.6490 O   0  0  0  0  0  0  0  0  0  0  0  0
    2.9636   -5.3599   12.5881 C   0  0  0  0  0  0  0  0  0  0  0  0
    1.6070   -5.5447   12.3921 C   0  0  0  0  0  0  0  0  0  0  0  0
    0.7404   -4.4471   12.3365 C   0  0  0  0  0  0  0  0  0  0  0  0
    1.2350   -3.1693   12.4774 C   0  0  0  0  0  0  0  0  0  0  0  0
    2.5925   -3.0286   12.6711 C   0  0  0  0  0  0  0  0  0  0  0  0
    3.4634   -4.0767   12.7301 C   0  0  0  0  0  0  0  0  0  0  0  0
    0.3447   -1.9808   12.4238 C   0  0  0  0  0  0  0  0  0  0  0  0
    0.9618   -0.9664   11.5454 C   0  0  0  0  0  0  0  0  0  0  0  0
    0.1662    0.2653   11.2964 C   0  0  2  0  0  0  0  0  0  0  0  0
    0.8738    1.1444   10.3813 N   0  0  0  0  0  4  0  0  0  0  0  0
   -0.1206    1.7459    9.5131 C   0  0  0  0  0  0  0  0  0  0  0  0
    0.4443    2.9830    8.8458 C   0  0  0  0  0  0  0  0  0  0  0  0
   -0.6047    3.8936    8.3501 C   0  0  0  0  0  0  0  0  0  0  0  0
   -0.8269    3.9573    6.9740 C   0  0  0  0  0  0  0  0  0  0  0  0
   -1.7949    4.7918    6.4600 C   0  0  0  0  0  0  0  0  0  0  0  0
   -2.5761    5.5889    7.2624 C   0  0  0  0  0  0  0  0  0  0  0  0
   -2.3584    5.5284    8.6300 C   0  0  0  0  0  0  0  0  0  0  0  0
   -1.3873    4.6912    9.1453 C   0  0  0  0  0  0  0  0  0  0  0  0
   -3.1342    6.3250    9.4758 O   0  0  0  0  0  0  0  0  0  0  0  0
   -3.5490    6.4237    6.7080 O   0  0  0  0  0  0  0  0  0  0  0  0
   -0.1919    1.0648   12.4929 C   0  0  0  0  0  0  0  0  0  0  0  0
  1  2  1  0
  2  3  2  0
  3  4  1  0
  4  5  2  0
  5  6  1  0
  6  7  2  0
  5  8  1  0
  8  9  1  0
  9 10  1  0
 10 11  1  0
 11 12  1  0
 12 13  1  0
 13 14  1  0
 14 15  2  0
 15 16  1  0
 16 17  2  0
 17 18  1  0
 18 19  2  0
 18 20  1  0
 17 21  1  0
 10 22  1  1
  7  2  1  0
 19 14  1  0
M  CHG  1  11   1
M  END
$$$$
