
     RDKit          3D

 22 23  0  0  0  0  0  0  0  0999 V2000
    0.6625   -3.5636   15.1952 O   0  0  0  0  0  0  0  0  0  0  0  0
    0.7900   -2.4211   14.4267 C   0  0  0  0  0  0  0  0  0  0  0  0
    2.0210   -1.8679   14.1239 C   0  0  0  0  0  0  0  0  0  0  0  0
    2.1075   -0.7099   13.3425 C   0  0  0  0  0  0  0  0  0  0  0  0
    0.9619   -0.1106   12.8674 C   0  0  0  0  0  0  0  0  0  0  0  0
   -0.2444   -0.6935   13.1918 C   0  0  0  0  0  0  0  0  0  0  0  0
   -0.3630   -1.8207   13.9505 C   0  0  0  0  0  0  0  0  0  0  0  0
    1.0157    1.1193   12.0352 C   0  0  0  0  0  0  0  0  0  0  0  0
    0.2307    0.8928   10.8048 C   0  0  0  0  0  0  0  0  0  0  0  0
    0.9683    0.3253    9.6445 C   0  0  2  0  0  0  0  0  0  0  0  0
    0.9676    1.2678    8.5387 N   0  0  0  0  0  4  0  0  0  0  0  0
   -0.2951    1.9802    8.5864 C   0  0  0  0  0  0  0  0  0  0  0  0
   -0.4797    2.8063    7.3300 C   0  0  0  0  0  0  0  0  0  0  0  0
   -1.4298    3.9194    7.5133 C   0  0  0  0  0  0  0  0  0  0  0  0
   -1.4534    4.9316    6.5531 C   0  0  0  0  0  0  0  0  0  0  0  0
   -2.3221    5.9934    6.6777 C   0  0  0  0  0  0  0  0  0  0  0  0
   -3.1933    6.1067    7.7349 C   0  0  0  0  0  0  0  0  0  0  0  0
   -3.1729    5.1031    8.6908 C   0  0  0  0  0  0  0  0  0  0  0  0
   -2.3013    4.0381    8.5655 C   0  0  0  0  0  0  0  0  0  0  0  0
   -4.0450    5.1857    9.7792 O   0  0  0  0  0  0  0  0  0  0  0  0
   -4.0612    7.1969    7.8304 O   0  0  0  0  0  0  0  0  0  0  0  0
    0.4697   -0.9707    9.1241 C   0  0  0  0  0  0  0  0  0  0  0  0
  1  2  1  0
  2  3  2  0
  3  4  1  0
  4  5  2  0
  5  6  1  0
  6  7  2  0
  5  8  1  0
  8  9  1  0
  9 10  1  0
 10 11  1  0
 11 12  1  0
 12 13  1  0
 13 14  1  0
 14 15  2  0
 15 16  1  0
 16 17  2  0
 17 18  1  0
 18 19  2  0
 18 20  1  0
 17 21  1  0
 10 22  1  6
  7  2  1  0
 19 14  1  0
M  CHG  1  11   1
M  END
$$$$
