
     RDKit          3D

 22 23  0  0  0  0  0  0  0  0999 V2000
    0.6376   -5.0193   15.7100 O   0  0  0  0  0  0  0  0  0  0  0  0
    0.8779   -3.8850   14.9564 C   0  0  0  0  0  0  0  0  0  0  0  0
    0.2818   -2.6697   15.2399 C   0  0  0  0  0  0  0  0  0  0  0  0
    0.5513   -1.5444   14.4524 C   0  0  0  0  0  0  0  0  0  0  0  0
    1.4162   -1.6402   13.3848 C   0  0  0  0  0  0  0  0  0  0  0  0
    1.9891   -2.8691   13.1363 C   0  0  0  0  0  0  0  0  0  0  0  0
    1.7477   -3.9841   13.8838 C   0  0  0  0  0  0  0  0  0  0  0  0
    1.7257   -0.4667   12.5273 C   0  0  0  0  0  0  0  0  0  0  0  0
    0.6864   -0.3558   11.4838 C   0  0  0  0  0  0  0  0  0  0  0  0
    0.7862    0.8156   10.5726 C   0  0  2  0  0  0  0  0  0  0  0  0
   -0.2431    0.7456    9.5494 N   0  0  0  0  0  4  0  0  0  0  0  0
   -0.4515    2.0956    9.0612 C   0  0  0  0  0  0  0  0  0  0  0  0
   -1.7154    2.1637    8.2288 C   0  0  0  0  0  0  0  0  0  0  0  0
   -2.0148    3.5283    7.7562 C   0  0  0  0  0  0  0  0  0  0  0  0
   -1.4853    3.9330    6.5303 C   0  0  0  0  0  0  0  0  0  0  0  0
   -1.7351    5.1974    6.0440 C   0  0  0  0  0  0  0  0  0  0  0  0
   -2.5044    6.1070    6.7297 C   0  0  0  0  0  0  0  0  0  0  0  0
   -3.0322    5.7087    7.9480 C   0  0  0  0  0  0  0  0  0  0  0  0
   -2.7814    4.4403    8.4355 C   0  0  0  0  0  0  0  0  0  0  0  0
   -3.8191    6.6077    8.6723 O   0  0  0  0  0  0  0  0  0  0  0  0
   -2.7378    7.3813    6.2075 O   0  0  0  0  0  0  0  0  0  0  0  0
    2.0863    0.9980    9.8831 C   0  0  0  0  0  0  0  0  0  0  0  0
  1  2  1  0
  2  3  2  0
  3  4  1  0
  4  5  2  0
  5  6  1  0
  6  7  2  0
  5  8  1  0
  8  9  1  0
  9 10  1  0
 10 11  1  0
 11 12  1  0
 12 13  1  0
 13 14  1  0
 14 15  2  0
 15 16  1  0
 16 17  2  0
 17 18  1  0
 18 19  2  0
 18 20  1  0
 17 21  1  0
 10 22  1  6
  7  2  1  0
 19 14  1  0
M  CHG  1  11   1
M  END
$$$$
