
     RDKit          3D

 22 23  0  0  0  0  0  0  0  0999 V2000
    2.9282   -6.6653   11.5382 O   0  0  0  0  0  0  0  0  0  0  0  0
    2.6033   -5.3357   11.7351 C   0  0  0  0  0  0  0  0  0  0  0  0
    2.8014   -4.3746   10.7604 C   0  0  0  0  0  0  0  0  0  0  0  0
    2.4591   -3.0385   10.9991 C   0  0  0  0  0  0  0  0  0  0  0  0
    1.9202   -2.6701   12.2119 C   0  0  0  0  0  0  0  0  0  0  0  0
    1.7391   -3.6582   13.1559 C   0  0  0  0  0  0  0  0  0  0  0  0
    2.0618   -4.9681   12.9550 C   0  0  0  0  0  0  0  0  0  0  0  0
    1.5451   -1.2615   12.5002 C   0  0  0  0  0  0  0  0  0  0  0  0
    0.9225   -0.6810   11.2933 C   0  0  0  0  0  0  0  0  0  0  0  0
    0.7897    0.8002   11.2645 C   0  0  2  0  0  0  0  0  0  0  0  0
    1.3556    1.3319   10.0364 N   0  0  0  0  0  4  0  0  0  0  0  0
    0.2588    1.8899    9.2682 C   0  0  0  0  0  0  0  0  0  0  0  0
    0.5412    3.3383    8.9259 C   0  0  0  0  0  0  0  0  0  0  0  0
   -0.6280    4.0264    8.3472 C   0  0  0  0  0  0  0  0  0  0  0  0
   -0.7583    4.0512    6.9582 C   0  0  0  0  0  0  0  0  0  0  0  0
   -1.8319    4.6808    6.3678 C   0  0  0  0  0  0  0  0  0  0  0  0
   -2.8107    5.3047    7.1041 C   0  0  0  0  0  0  0  0  0  0  0  0
   -2.6848    5.2822    8.4843 C   0  0  0  0  0  0  0  0  0  0  0  0
   -1.6077    4.6506    9.0763 C   0  0  0  0  0  0  0  0  0  0  0  0
   -3.6614    5.9065    9.2643 O   0  0  0  0  0  0  0  0  0  0  0  0
   -3.8862    5.9338    6.4730 O   0  0  0  0  0  0  0  0  0  0  0  0
    1.4105    1.5338   12.3939 C   0  0  0  0  0  0  0  0  0  0  0  0
  1  2  1  0
  2  3  2  0
  3  4  1  0
  4  5  2  0
  5  6  1  0
  6  7  2  0
  5  8  1  0
  8  9  1  0
  9 10  1  0
 10 11  1  0
 11 12  1  0
 12 13  1  0
 13 14  1  0
 14 15  2  0
 15 16  1  0
 16 17  2  0
 17 18  1  0
 18 19  2  0
 18 20  1  0
 17 21  1  0
 10 22  1  1
  7  2  1  0
 19 14  1  0
M  CHG  1  11   1
M  END
$$$$
