
     RDKit          3D

 22 23  0  0  0  0  0  0  0  0999 V2000
    3.0205   -6.1138   14.2237 O   0  0  0  0  0  0  0  0  0  0  0  0
    2.5303   -4.9477   13.6651 C   0  0  0  0  0  0  0  0  0  0  0  0
    2.8870   -4.5295   12.3960 C   0  0  0  0  0  0  0  0  0  0  0  0
    2.3684   -3.3423   11.8663 C   0  0  0  0  0  0  0  0  0  0  0  0
    1.4952   -2.5787   12.6089 C   0  0  0  0  0  0  0  0  0  0  0  0
    1.1654   -3.0307   13.8687 C   0  0  0  0  0  0  0  0  0  0  0  0
    1.6527   -4.1821   14.4137 C   0  0  0  0  0  0  0  0  0  0  0  0
    0.9250   -1.3130   12.0789 C   0  0  0  0  0  0  0  0  0  0  0  0
    2.0033   -0.3072   11.9941 C   0  0  0  0  0  0  0  0  0  0  0  0
    1.6492    0.9905   11.3593 C   0  0  2  0  0  0  0  0  0  0  0  0
    0.5303    0.8160   10.4489 N   0  0  0  0  0  4  0  0  0  0  0  0
    0.1403    2.1373    9.9944 C   0  0  0  0  0  0  0  0  0  0  0  0
   -1.0580    2.0429    9.0725 C   0  0  0  0  0  0  0  0  0  0  0  0
   -1.6765    3.3547    8.8043 C   0  0  0  0  0  0  0  0  0  0  0  0
   -2.5164    3.8993    9.7764 C   0  0  0  0  0  0  0  0  0  0  0  0
   -3.1188    5.1216    9.5747 C   0  0  0  0  0  0  0  0  0  0  0  0
   -2.9260    5.8526    8.4267 C   0  0  0  0  0  0  0  0  0  0  0  0
   -2.0923    5.3149    7.4586 C   0  0  0  0  0  0  0  0  0  0  0  0
   -1.4882    4.0887    7.6612 C   0  0  0  0  0  0  0  0  0  0  0  0
   -1.8735    6.0306    6.2788 O   0  0  0  0  0  0  0  0  0  0  0  0
   -3.5525    7.0890    8.2546 O   0  0  0  0  0  0  0  0  0  0  0  0
    2.7332    1.6667   10.6065 C   0  0  0  0  0  0  0  0  0  0  0  0
  1  2  1  0
  2  3  2  0
  3  4  1  0
  4  5  2  0
  5  6  1  0
  6  7  2  0
  5  8  1  0
  8  9  1  0
  9 10  1  0
 10 11  1  0
 11 12  1  0
 12 13  1  0
 13 14  1  0
 14 15  2  0
 15 16  1  0
 16 17  2  0
 17 18  1  0
 18 19  2  0
 18 20  1  0
 17 21  1  0
 10 22  1  6
  7  2  1  0
 19 14  1  0
M  CHG  1  11   1
M  END
$$$$
