
     RDKit          3D

 22 23  0  0  0  0  0  0  0  0999 V2000
    3.0118   -6.5916   12.7506 O   0  0  0  0  0  0  0  0  0  0  0  0
    2.7242   -5.2393   12.7796 C   0  0  0  0  0  0  0  0  0  0  0  0
    2.1676   -4.6259   13.8873 C   0  0  0  0  0  0  0  0  0  0  0  0
    1.8913   -3.2539   13.8768 C   0  0  0  0  0  0  0  0  0  0  0  0
    2.1732   -2.5016   12.7579 C   0  0  0  0  0  0  0  0  0  0  0  0
    2.7273   -3.1511   11.6757 C   0  0  0  0  0  0  0  0  0  0  0  0
    3.0085   -4.4855   11.6537 C   0  0  0  0  0  0  0  0  0  0  0  0
    1.8934   -1.0430   12.7111 C   0  0  0  0  0  0  0  0  0  0  0  0
    1.2533   -0.7251   11.4186 C   0  0  0  0  0  0  0  0  0  0  0  0
    0.9422    0.7078   11.1690 C   0  0  2  0  0  0  0  0  0  0  0  0
    0.8530    0.9616    9.7412 N   0  0  0  0  0  4  0  0  0  0  0  0
   -0.2823    1.8406    9.5345 C   0  0  0  0  0  0  0  0  0  0  0  0
   -0.2217    2.4607    8.1536 C   0  0  0  0  0  0  0  0  0  0  0  0
   -1.1377    3.6066    8.0017 C   0  0  0  0  0  0  0  0  0  0  0  0
   -1.3402    4.1244    6.7220 C   0  0  0  0  0  0  0  0  0  0  0  0
   -2.1859    5.1940    6.5262 C   0  0  0  0  0  0  0  0  0  0  0  0
   -2.8602    5.7938    7.5631 C   0  0  0  0  0  0  0  0  0  0  0  0
   -2.6617    5.2822    8.8360 C   0  0  0  0  0  0  0  0  0  0  0  0
   -1.8133    4.2092    9.0320 C   0  0  0  0  0  0  0  0  0  0  0  0
   -3.3311    5.8673    9.9137 O   0  0  0  0  0  0  0  0  0  0  0  0
   -3.7104    6.8770    7.3293 O   0  0  0  0  0  0  0  0  0  0  0  0
    1.8955    1.6917   11.7365 C   0  0  0  0  0  0  0  0  0  0  0  0
  1  2  1  0
  2  3  2  0
  3  4  1  0
  4  5  2  0
  5  6  1  0
  6  7  2  0
  5  8  1  0
  8  9  1  0
  9 10  1  0
 10 11  1  0
 11 12  1  0
 12 13  1  0
 13 14  1  0
 14 15  2  0
 15 16  1  0
 16 17  2  0
 17 18  1  0
 18 19  2  0
 18 20  1  0
 17 21  1  0
 10 22  1  6
  7  2  1  0
 19 14  1  0
M  CHG  1  11   1
M  END
$$$$
