
     RDKit          3D

 22 23  0  0  0  0  0  0  0  0999 V2000
    3.3312   -5.8853   14.1851 O   0  0  0  0  0  0  0  0  0  0  0  0
    2.8497   -4.8820   13.3642 C   0  0  0  0  0  0  0  0  0  0  0  0
    2.7556   -5.0312   11.9925 C   0  0  0  0  0  0  0  0  0  0  0  0
    2.2626   -3.9911   11.1961 C   0  0  0  0  0  0  0  0  0  0  0  0
    1.8659   -2.8064   11.7759 C   0  0  0  0  0  0  0  0  0  0  0  0
    1.9759   -2.6984   13.1457 C   0  0  0  0  0  0  0  0  0  0  0  0
    2.4517   -3.6922   13.9496 C   0  0  0  0  0  0  0  0  0  0  0  0
    1.3377   -1.6810   10.9619 C   0  0  0  0  0  0  0  0  0  0  0  0
    0.6399   -0.7360   11.8571 C   0  0  0  0  0  0  0  0  0  0  0  0
   -0.3114    0.2075   11.2111 C   0  0  2  0  0  0  0  0  0  0  0  0
    0.4138    1.2052   10.4431 N   0  0  0  0  0  4  0  0  0  0  0  0
   -0.5333    1.8064    9.5233 C   0  0  0  0  0  0  0  0  0  0  0  0
    0.0660    3.0437    8.8869 C   0  0  0  0  0  0  0  0  0  0  0  0
   -0.9572    3.9946    8.4135 C   0  0  0  0  0  0  0  0  0  0  0  0
   -1.1776    4.0969    7.0395 C   0  0  0  0  0  0  0  0  0  0  0  0
   -2.1219    4.9699    6.5459 C   0  0  0  0  0  0  0  0  0  0  0  0
   -2.8805    5.7695    7.3674 C   0  0  0  0  0  0  0  0  0  0  0  0
   -2.6645    5.6707    8.7330 C   0  0  0  0  0  0  0  0  0  0  0  0
   -1.7171    4.7948    9.2278 C   0  0  0  0  0  0  0  0  0  0  0  0
   -3.4177    6.4686    9.5979 O   0  0  0  0  0  0  0  0  0  0  0  0
   -3.8296    6.6440    6.8334 O   0  0  0  0  0  0  0  0  0  0  0  0
   -1.2332    0.9303   12.1204 C   0  0  0  0  0  0  0  0  0  0  0  0
  1  2  1  0
  2  3  2  0
  3  4  1  0
  4  5  2  0
  5  6  1  0
  6  7  2  0
  5  8  1  0
  8  9  1  0
  9 10  1  0
 10 11  1  0
 11 12  1  0
 12 13  1  0
 13 14  1  0
 14 15  2  0
 15 16  1  0
 16 17  2  0
 17 18  1  0
 18 19  2  0
 18 20  1  0
 17 21  1  0
 10 22  1  1
  7  2  1  0
 19 14  1  0
M  CHG  1  11   1
M  END
$$$$
