
     RDKit          3D

 22 23  0  0  0  0  0  0  0  0999 V2000
    2.6565   -6.0192   14.2112 O   0  0  0  0  0  0  0  0  0  0  0  0
    2.6299   -4.8242   13.5160 C   0  0  0  0  0  0  0  0  0  0  0  0
    3.3586   -3.7194   13.9175 C   0  0  0  0  0  0  0  0  0  0  0  0
    3.3045   -2.5274   13.1859 C   0  0  0  0  0  0  0  0  0  0  0  0
    2.5215   -2.4462   12.0557 C   0  0  0  0  0  0  0  0  0  0  0  0
    1.8112   -3.5695   11.6898 C   0  0  0  0  0  0  0  0  0  0  0  0
    1.8420   -4.7453   12.3803 C   0  0  0  0  0  0  0  0  0  0  0  0
    2.4398   -1.1974   11.2545 C   0  0  0  0  0  0  0  0  0  0  0  0
    1.3859   -0.3357   11.8273 C   0  0  0  0  0  0  0  0  0  0  0  0
    1.1581    0.9694   11.1511 C   0  0  2  0  0  0  0  0  0  0  0  0
    0.6281    0.7574    9.8149 N   0  0  0  0  0  4  0  0  0  0  0  0
    0.3501    2.0660    9.2540 C   0  0  0  0  0  0  0  0  0  0  0  0
   -0.8849    2.6618    9.8979 C   0  0  0  0  0  0  0  0  0  0  0  0
   -1.4571    3.7731    9.1151 C   0  0  0  0  0  0  0  0  0  0  0  0
   -1.0143    3.9534    7.8042 C   0  0  0  0  0  0  0  0  0  0  0  0
   -1.5171    4.9764    7.0308 C   0  0  0  0  0  0  0  0  0  0  0  0
   -2.4631    5.8548    7.5032 C   0  0  0  0  0  0  0  0  0  0  0  0
   -2.9056    5.6789    8.8050 C   0  0  0  0  0  0  0  0  0  0  0  0
   -2.4009    4.6525    9.5806 C   0  0  0  0  0  0  0  0  0  0  0  0
   -3.8668    6.5533    9.3183 O   0  0  0  0  0  0  0  0  0  0  0  0
   -2.9517    6.8813    6.6919 O   0  0  0  0  0  0  0  0  0  0  0  0
    2.3409    1.8548   11.0246 C   0  0  0  0  0  0  0  0  0  0  0  0
  1  2  1  0
  2  3  2  0
  3  4  1  0
  4  5  2  0
  5  6  1  0
  6  7  2  0
  5  8  1  0
  8  9  1  0
  9 10  1  0
 10 11  1  0
 11 12  1  0
 12 13  1  0
 13 14  1  0
 14 15  2  0
 15 16  1  0
 16 17  2  0
 17 18  1  0
 18 19  2  0
 18 20  1  0
 17 21  1  0
 10 22  1  6
  7  2  1  0
 19 14  1  0
M  CHG  1  11   1
M  END
$$$$
