
     RDKit          3D

 22 23  0  0  0  0  0  0  0  0999 V2000
    2.7591   -6.9076   12.4545 O   0  0  0  0  0  0  0  0  0  0  0  0
    2.6399   -5.5300   12.4402 C   0  0  0  0  0  0  0  0  0  0  0  0
    3.0573   -4.7634   11.3674 C   0  0  0  0  0  0  0  0  0  0  0  0
    2.9193   -3.3708   11.3918 C   0  0  0  0  0  0  0  0  0  0  0  0
    2.3641   -2.7514   12.4897 C   0  0  0  0  0  0  0  0  0  0  0  0
    1.9611   -3.5515   13.5374 C   0  0  0  0  0  0  0  0  0  0  0  0
    2.0815   -4.9100   13.5450 C   0  0  0  0  0  0  0  0  0  0  0  0
    2.2019   -1.2756   12.5504 C   0  0  0  0  0  0  0  0  0  0  0  0
    1.8733   -0.7796   11.1986 C   0  0  0  0  0  0  0  0  0  0  0  0
    0.7349    0.1729   11.1020 C   0  0  2  0  0  0  0  0  0  0  0  0
    1.1664    1.4098   10.4736 N   0  0  0  0  0  4  0  0  0  0  0  0
    0.0994    1.8319    9.5861 C   0  0  0  0  0  0  0  0  0  0  0  0
    0.4957    3.0972    8.8532 C   0  0  0  0  0  0  0  0  0  0  0  0
   -0.6673    3.8949    8.4217 C   0  0  0  0  0  0  0  0  0  0  0  0
   -0.9138    4.0154    7.0536 C   0  0  0  0  0  0  0  0  0  0  0  0
   -1.9870    4.7494    6.5985 C   0  0  0  0  0  0  0  0  0  0  0  0
   -2.8529    5.3882    7.4538 C   0  0  0  0  0  0  0  0  0  0  0  0
   -2.6114    5.2709    8.8137 C   0  0  0  0  0  0  0  0  0  0  0  0
   -1.5347    4.5345    9.2699 C   0  0  0  0  0  0  0  0  0  0  0  0
   -3.4713    5.9072    9.7123 O   0  0  0  0  0  0  0  0  0  0  0  0
   -3.9315    6.1244    6.9584 O   0  0  0  0  0  0  0  0  0  0  0  0
    0.0725    0.5309   12.3794 C   0  0  0  0  0  0  0  0  0  0  0  0
  1  2  1  0
  2  3  2  0
  3  4  1  0
  4  5  2  0
  5  6  1  0
  6  7  2  0
  5  8  1  0
  8  9  1  0
  9 10  1  0
 10 11  1  0
 11 12  1  0
 12 13  1  0
 13 14  1  0
 14 15  2  0
 15 16  1  0
 16 17  2  0
 17 18  1  0
 18 19  2  0
 18 20  1  0
 17 21  1  0
 10 22  1  1
  7  2  1  0
 19 14  1  0
M  CHG  1  11   1
M  END
$$$$
