
     RDKit          3D

 22 23  0  0  0  0  0  0  0  0999 V2000
    3.6339   -5.9303   13.6189 O   0  0  0  0  0  0  0  0  0  0  0  0
    3.1534   -4.7763   13.0276 C   0  0  0  0  0  0  0  0  0  0  0  0
    3.4136   -3.5191   13.5419 C   0  0  0  0  0  0  0  0  0  0  0  0
    2.9087   -2.3750   12.9134 C   0  0  0  0  0  0  0  0  0  0  0  0
    2.1455   -2.4939   11.7730 C   0  0  0  0  0  0  0  0  0  0  0  0
    1.9095   -3.7645   11.2932 C   0  0  0  0  0  0  0  0  0  0  0  0
    2.3865   -4.8987   11.8815 C   0  0  0  0  0  0  0  0  0  0  0  0
    1.5931   -1.3016   11.0794 C   0  0  0  0  0  0  0  0  0  0  0  0
    0.4168   -0.8194   11.8312 C   0  0  0  0  0  0  0  0  0  0  0  0
   -0.5104    0.0852   11.1002 C   0  0  2  0  0  0  0  0  0  0  0  0
    0.2064    1.2502   10.6099 N   0  0  0  0  0  4  0  0  0  0  0  0
   -0.7278    2.0204    9.8108 C   0  0  0  0  0  0  0  0  0  0  0  0
   -0.0652    3.2836    9.3006 C   0  0  0  0  0  0  0  0  0  0  0  0
   -0.9883    4.1439    8.5371 C   0  0  0  0  0  0  0  0  0  0  0  0
   -1.1043    3.9310    7.1629 C   0  0  0  0  0  0  0  0  0  0  0  0
   -1.9525    4.7073    6.4043 C   0  0  0  0  0  0  0  0  0  0  0  0
   -2.7132    5.7121    6.9531 C   0  0  0  0  0  0  0  0  0  0  0  0
   -2.6007    5.9267    8.3179 C   0  0  0  0  0  0  0  0  0  0  0  0
   -1.7497    5.1478    9.0786 C   0  0  0  0  0  0  0  0  0  0  0  0
   -3.3592    6.9398    8.9096 O   0  0  0  0  0  0  0  0  0  0  0  0
   -3.5633    6.4805    6.1546 O   0  0  0  0  0  0  0  0  0  0  0  0
   -1.6835    0.5743   11.8641 C   0  0  0  0  0  0  0  0  0  0  0  0
  1  2  1  0
  2  3  2  0
  3  4  1  0
  4  5  2  0
  5  6  1  0
  6  7  2  0
  5  8  1  0
  8  9  1  0
  9 10  1  0
 10 11  1  0
 11 12  1  0
 12 13  1  0
 13 14  1  0
 14 15  2  0
 15 16  1  0
 16 17  2  0
 17 18  1  0
 18 19  2  0
 18 20  1  0
 17 21  1  0
 10 22  1  1
  7  2  1  0
 19 14  1  0
M  CHG  1  11   1
M  END
$$$$
