
     RDKit          3D

 22 23  0  0  0  0  0  0  0  0999 V2000
    3.4378   -5.5766   14.4816 O   0  0  0  0  0  0  0  0  0  0  0  0
    2.7802   -4.6749   13.6650 C   0  0  0  0  0  0  0  0  0  0  0  0
    1.7092   -3.9207   14.1091 C   0  0  0  0  0  0  0  0  0  0  0  0
    1.0702   -3.0185   13.2508 C   0  0  0  0  0  0  0  0  0  0  0  0
    1.5056   -2.8749   11.9520 C   0  0  0  0  0  0  0  0  0  0  0  0
    2.5756   -3.6449   11.5492 C   0  0  0  0  0  0  0  0  0  0  0  0
    3.2198   -4.5326   12.3599 C   0  0  0  0  0  0  0  0  0  0  0  0
    0.8514   -1.9270   11.0131 C   0  0  0  0  0  0  0  0  0  0  0  0
    1.5739   -0.6397   11.0603 C   0  0  0  0  0  0  0  0  0  0  0  0
    0.7379    0.5900   11.0236 C   0  0  2  0  0  0  0  0  0  0  0  0
    0.9328    1.2931    9.7671 N   0  0  0  0  0  4  0  0  0  0  0  0
   -0.3338    1.9114    9.4236 C   0  0  0  0  0  0  0  0  0  0  0  0
   -0.2552    2.5393    8.0472 C   0  0  0  0  0  0  0  0  0  0  0  0
   -1.1191    3.7270    7.9116 C   0  0  0  0  0  0  0  0  0  0  0  0
   -1.1822    4.3586    6.6690 C   0  0  0  0  0  0  0  0  0  0  0  0
   -1.9740    5.4715    6.4898 C   0  0  0  0  0  0  0  0  0  0  0  0
   -2.7278    6.0057    7.5076 C   0  0  0  0  0  0  0  0  0  0  0  0
   -2.6678    5.3810    8.7436 C   0  0  0  0  0  0  0  0  0  0  0  0
   -1.8734    4.2646    8.9230 C   0  0  0  0  0  0  0  0  0  0  0  0
   -3.4210    5.8969    9.8011 O   0  0  0  0  0  0  0  0  0  0  0  0
   -3.5200    7.1355    7.2913 O   0  0  0  0  0  0  0  0  0  0  0  0
    0.9622    1.5652   12.1180 C   0  0  0  0  0  0  0  0  0  0  0  0
  1  2  1  0
  2  3  2  0
  3  4  1  0
  4  5  2  0
  5  6  1  0
  6  7  2  0
  5  8  1  0
  8  9  1  0
  9 10  1  0
 10 11  1  0
 11 12  1  0
 12 13  1  0
 13 14  1  0
 14 15  2  0
 15 16  1  0
 16 17  2  0
 17 18  1  0
 18 19  2  0
 18 20  1  0
 17 21  1  0
 10 22  1  1
  7  2  1  0
 19 14  1  0
M  CHG  1  11   1
M  END
$$$$
