
     RDKit          3D

 22 23  0  0  0  0  0  0  0  0999 V2000
    2.7402   -5.3354   14.3926 O   0  0  0  0  0  0  0  0  0  0  0  0
    2.1489   -4.2866   13.7126 C   0  0  0  0  0  0  0  0  0  0  0  0
    1.1297   -3.5305   14.2625 C   0  0  0  0  0  0  0  0  0  0  0  0
    0.5572   -2.4765   13.5412 C   0  0  0  0  0  0  0  0  0  0  0  0
    1.0070   -2.1837   12.2726 C   0  0  0  0  0  0  0  0  0  0  0  0
    2.0241   -2.9611   11.7614 C   0  0  0  0  0  0  0  0  0  0  0  0
    2.6029   -3.9945   12.4377 C   0  0  0  0  0  0  0  0  0  0  0  0
    0.4229   -1.0724   11.4778 C   0  0  0  0  0  0  0  0  0  0  0  0
    1.1640    0.1682   11.7829 C   0  0  0  0  0  0  0  0  0  0  0  0
    0.7484    1.3871   11.0387 C   0  0  2  0  0  0  0  0  0  0  0  0
    0.6255    1.0932    9.6211 N   0  0  0  0  0  4  0  0  0  0  0  0
    0.4187    2.3572    8.9400 C   0  0  0  0  0  0  0  0  0  0  0  0
   -0.8472    2.3051    8.1094 C   0  0  0  0  0  0  0  0  0  0  0  0
   -1.4589    3.6333    7.9174 C   0  0  0  0  0  0  0  0  0  0  0  0
   -1.2276    4.2984    6.7128 C   0  0  0  0  0  0  0  0  0  0  0  0
   -1.7759    5.5411    6.4837 C   0  0  0  0  0  0  0  0  0  0  0  0
   -2.5642    6.1765    7.4135 C   0  0  0  0  0  0  0  0  0  0  0  0
   -2.7964    5.5190    8.6115 C   0  0  0  0  0  0  0  0  0  0  0  0
   -2.2461    4.2723    8.8409 C   0  0  0  0  0  0  0  0  0  0  0  0
   -3.5931    6.1352    9.5797 O   0  0  0  0  0  0  0  0  0  0  0  0
   -3.1046    7.4369    7.1487 O   0  0  0  0  0  0  0  0  0  0  0  0
    1.6352    2.5682   11.1724 C   0  0  0  0  0  0  0  0  0  0  0  0
  1  2  1  0
  2  3  2  0
  3  4  1  0
  4  5  2  0
  5  6  1  0
  6  7  2  0
  5  8  1  0
  8  9  1  0
  9 10  1  0
 10 11  1  0
 11 12  1  0
 12 13  1  0
 13 14  1  0
 14 15  2  0
 15 16  1  0
 16 17  2  0
 17 18  1  0
 18 19  2  0
 18 20  1  0
 17 21  1  0
 10 22  1  6
  7  2  1  0
 19 14  1  0
M  CHG  1  11   1
M  END
$$$$
