
     RDKit          3D

 27 29  0  0  0  0  0  0  0  0999 V2000
   -5.7369   -1.9523   10.0203 C   0  0  0  0  0  0  0  0  0  0  0  0
   -4.8840   -2.3452   11.1787 C   0  0  0  0  0  0  0  0  0  0  0  0
   -5.4419   -2.9338   12.2997 C   0  0  0  0  0  0  0  0  0  0  0  0
   -4.6061   -3.2769   13.3417 C   0  0  0  0  0  0  0  0  0  0  0  0
   -3.2473   -3.0462   13.2844 C   0  0  0  0  0  0  0  0  0  0  0  0
   -2.6662   -2.4533   12.1620 C   0  0  0  0  0  0  0  0  0  0  0  0
   -3.5207   -2.1188   11.1324 C   0  0  0  0  0  0  0  0  0  0  0  0
   -1.2674   -2.2250   12.1232 N   0  0  0  0  0  0  0  0  0  0  0  0
   -0.3957   -2.8634   11.2080 C   0  0  0  0  0  0  0  0  0  0  0  0
   -0.8346   -3.8388   10.5630 O   0  0  0  0  0  0  0  0  0  0  0  0
    0.9592   -2.3876   11.0374 C   0  0  0  0  0  0  0  0  0  0  0  0
    1.1496   -0.8893   11.0908 C   0  0  0  0  0  0  0  0  0  0  0  0
    2.5897   -0.7923   10.5682 C   0  0  0  0  0  0  0  0  0  0  0  0
    2.9943   -2.1847   10.1871 C   0  0  0  0  0  0  0  0  0  0  0  0
    1.6770   -2.8000    9.8793 N   0  0  0  0  0  0  0  0  0  0  0  0
    1.0947   -2.2266    8.3857 S   0  0  0  0  0  6  0  0  0  0  0  0
    0.1657   -1.0513    8.4964 O   0  0  0  0  0  0  0  0  0  0  0  0
    0.3617   -3.3037    7.6746 O   0  0  0  0  0  0  0  0  0  0  0  0
    2.4515   -1.6651    7.4108 C   0  0  0  0  0  0  0  0  0  0  0  0
    3.3951   -2.5467    6.9498 C   0  0  0  0  0  0  0  0  0  0  0  0
    4.4442   -2.0563    6.1863 C   0  0  0  0  0  0  0  0  0  0  0  0
    4.5275   -0.7096    5.9026 C   0  0  0  0  0  0  0  0  0  0  0  0
    3.5893    0.1933    6.3565 C   0  0  0  0  0  0  0  0  0  0  0  0
    2.5554   -0.3308    7.1159 C   0  0  0  0  0  0  0  0  0  0  0  0
    5.5736   -0.1841    5.1351 O   0  0  0  0  0  0  0  0  0  0  0  0
    6.3860   -1.0085    4.3173 C   0  0  0  0  0  0  0  0  0  0  0  0
   -5.2115   -3.9086   14.5425 C   0  0  0  0  0  0  0  0  0  0  0  0
  1  2  1  0
  2  3  2  0
  3  4  1  0
  4  5  2  0
  5  6  1  0
  6  7  2  0
  6  8  1  0
  8  9  1  0
  9 10  2  0
  9 11  1  0
 11 12  1  0
 12 13  1  0
 13 14  1  0
 14 15  1  0
 15 16  1  0
 16 17  2  0
 16 18  2  0
 16 19  1  0
 19 20  2  0
 20 21  1  0
 21 22  2  0
 22 23  1  0
 23 24  2  0
 22 25  1  0
 25 26  1  0
  4 27  1  0
  7  2  1  0
 15 11  1  0
 24 19  1  0
M  END
$$$$
