
     RDKit          3D

 27 29  0  0  0  0  0  0  0  0999 V2000
    4.3629   -3.9883    5.2867 C   0  0  0  0  0  0  0  0  0  0  0  0
    4.3944   -2.8409    6.2386 C   0  0  0  0  0  0  0  0  0  0  0  0
    5.2425   -1.7687    6.0254 C   0  0  0  0  0  0  0  0  0  0  0  0
    5.2303   -0.7347    6.9379 C   0  0  0  0  0  0  0  0  0  0  0  0
    4.4005   -0.7529    8.0397 C   0  0  0  0  0  0  0  0  0  0  0  0
    3.5380   -1.8258    8.2717 C   0  0  0  0  0  0  0  0  0  0  0  0
    3.5671   -2.8483    7.3466 C   0  0  0  0  0  0  0  0  0  0  0  0
    2.6933   -1.8249    9.4104 N   0  0  0  0  0  0  0  0  0  0  0  0
    1.2980   -2.0587    9.3494 C   0  0  0  0  0  0  0  0  0  0  0  0
    0.7486   -2.0398    8.2278 O   0  0  0  0  0  0  0  0  0  0  0  0
    0.5467   -2.3104   10.5591 C   0  0  0  0  0  0  0  0  0  0  0  0
   -0.2963   -3.5647   10.5697 C   0  0  0  0  0  0  0  0  0  0  0  0
   -1.1359   -3.3021   11.8277 C   0  0  0  0  0  0  0  0  0  0  0  0
   -0.7647   -1.9294   12.3029 C   0  0  0  0  0  0  0  0  0  0  0  0
   -0.3226   -1.2892   11.0367 N   0  0  0  0  0  0  0  0  0  0  0  0
   -1.6691   -0.9257   10.0602 S   0  0  0  0  0  6  0  0  0  0  0  0
   -1.8748   -1.8763    8.9153 O   0  0  0  0  0  0  0  0  0  0  0  0
   -1.5313    0.4356    9.4848 O   0  0  0  0  0  0  0  0  0  0  0  0
   -3.1360   -1.0324   11.0313 C   0  0  0  0  0  0  0  0  0  0  0  0
   -3.9641   -2.1209   10.9323 C   0  0  0  0  0  0  0  0  0  0  0  0
   -5.1069   -2.1585   11.7175 C   0  0  0  0  0  0  0  0  0  0  0  0
   -5.3952   -1.1189   12.5759 C   0  0  0  0  0  0  0  0  0  0  0  0
   -4.5759   -0.0157   12.6905 C   0  0  0  0  0  0  0  0  0  0  0  0
   -3.4435   -0.0111   11.8918 C   0  0  0  0  0  0  0  0  0  0  0  0
   -6.5403   -1.1274   13.3811 O   0  0  0  0  0  0  0  0  0  0  0  0
   -7.4281   -2.2318   13.4040 C   0  0  0  0  0  0  0  0  0  0  0  0
    6.1433    0.4137    6.7031 C   0  0  0  0  0  0  0  0  0  0  0  0
  1  2  1  0
  2  3  2  0
  3  4  1  0
  4  5  2  0
  5  6  1  0
  6  7  2  0
  6  8  1  0
  8  9  1  0
  9 10  2  0
  9 11  1  0
 11 12  1  0
 12 13  1  0
 13 14  1  0
 14 15  1  0
 15 16  1  0
 16 17  2  0
 16 18  2  0
 16 19  1  0
 19 20  2  0
 20 21  1  0
 21 22  2  0
 22 23  1  0
 23 24  2  0
 22 25  1  0
 25 26  1  0
  4 27  1  0
  7  2  1  0
 15 11  1  0
 24 19  1  0
M  END
$$$$
