
     RDKit          3D

 27 29  0  0  0  0  0  0  0  0999 V2000
   -3.6497    0.2818   10.7673 C   0  0  0  0  0  0  0  0  0  0  0  0
   -3.1241   -1.0873   11.0373 C   0  0  0  0  0  0  0  0  0  0  0  0
   -3.9159   -2.0395   11.6541 C   0  0  0  0  0  0  0  0  0  0  0  0
   -3.3786   -3.2896   11.8794 C   0  0  0  0  0  0  0  0  0  0  0  0
   -2.0872   -3.5992   11.5058 C   0  0  0  0  0  0  0  0  0  0  0  0
   -1.2732   -2.6518   10.8824 C   0  0  0  0  0  0  0  0  0  0  0  0
   -1.8311   -1.4090   10.6673 C   0  0  0  0  0  0  0  0  0  0  0  0
    0.0512   -2.9904   10.5064 N   0  0  0  0  0  0  0  0  0  0  0  0
    1.1076   -2.0504   10.4312 C   0  0  0  0  0  0  0  0  0  0  0  0
    0.8600   -0.8644   10.7348 O   0  0  0  0  0  0  0  0  0  0  0  0
    2.4277   -2.4679   10.0137 C   0  0  0  0  0  0  0  0  0  0  0  0
    3.3742   -1.3649    9.5995 C   0  0  0  0  0  0  0  0  0  0  0  0
    4.4848   -2.2053    8.9540 C   0  0  0  0  0  0  0  0  0  0  0  0
    4.0050   -3.6256    8.9756 C   0  0  0  0  0  0  0  0  0  0  0  0
    2.5308   -3.4381    8.9771 N   0  0  0  0  0  0  0  0  0  0  0  0
    1.9979   -2.9543    7.4341 S   0  0  0  0  0  6  0  0  0  0  0  0
    0.6510   -3.4965    7.0490 O   0  0  0  0  0  0  0  0  0  0  0  0
    2.9645   -3.3952    6.3974 O   0  0  0  0  0  0  0  0  0  0  0  0
    1.8268   -1.2004    7.4028 C   0  0  0  0  0  0  0  0  0  0  0  0
    0.5895   -0.6156    7.4895 C   0  0  0  0  0  0  0  0  0  0  0  0
    0.5067    0.7687    7.4605 C   0  0  0  0  0  0  0  0  0  0  0  0
    1.6496    1.5314    7.3467 C   0  0  0  0  0  0  0  0  0  0  0  0
    2.9029    0.9632    7.2582 C   0  0  0  0  0  0  0  0  0  0  0  0
    2.9487   -0.4215    7.2903 C   0  0  0  0  0  0  0  0  0  0  0  0
    1.5989    2.9300    7.3147 O   0  0  0  0  0  0  0  0  0  0  0  0
    0.5969    3.6239    6.5917 C   0  0  0  0  0  0  0  0  0  0  0  0
   -4.2340   -4.3076   12.5421 C   0  0  0  0  0  0  0  0  0  0  0  0
  1  2  1  0
  2  3  2  0
  3  4  1  0
  4  5  2  0
  5  6  1  0
  6  7  2  0
  6  8  1  0
  8  9  1  0
  9 10  2  0
  9 11  1  0
 11 12  1  0
 12 13  1  0
 13 14  1  0
 14 15  1  0
 15 16  1  0
 16 17  2  0
 16 18  2  0
 16 19  1  0
 19 20  2  0
 20 21  1  0
 21 22  2  0
 22 23  1  0
 23 24  2  0
 22 25  1  0
 25 26  1  0
  4 27  1  0
  7  2  1  0
 15 11  1  0
 24 19  1  0
M  END
$$$$
