
     RDKit          3D

 27 29  0  0  0  0  0  0  0  0999 V2000
    6.5626   -0.7720    7.0722 C   0  0  0  0  0  0  0  0  0  0  0  0
    5.0743   -0.8537    7.1151 C   0  0  0  0  0  0  0  0  0  0  0  0
    4.3040   -0.2297    6.1499 C   0  0  0  0  0  0  0  0  0  0  0  0
    2.9320   -0.3380    6.2384 C   0  0  0  0  0  0  0  0  0  0  0  0
    2.3271   -1.0461    7.2560 C   0  0  0  0  0  0  0  0  0  0  0  0
    3.0874   -1.6824    8.2389 C   0  0  0  0  0  0  0  0  0  0  0  0
    4.4569   -1.5607    8.1305 C   0  0  0  0  0  0  0  0  0  0  0  0
    2.4459   -2.4051    9.2764 N   0  0  0  0  0  0  0  0  0  0  0  0
    1.0637   -2.2985    9.5649 C   0  0  0  0  0  0  0  0  0  0  0  0
    0.3143   -1.8320    8.6812 O   0  0  0  0  0  0  0  0  0  0  0  0
    0.5515   -2.7218   10.8493 C   0  0  0  0  0  0  0  0  0  0  0  0
   -0.3365   -3.9446   10.8411 C   0  0  0  0  0  0  0  0  0  0  0  0
   -0.8991   -3.8659   12.2672 C   0  0  0  0  0  0  0  0  0  0  0  0
   -0.3720   -2.5929   12.8584 C   0  0  0  0  0  0  0  0  0  0  0  0
   -0.1538   -1.7708   11.6398 N   0  0  0  0  0  0  0  0  0  0  0  0
   -1.6447   -1.2307   11.0199 S   0  0  0  0  0  6  0  0  0  0  0  0
   -2.6493   -2.3237   10.7908 O   0  0  0  0  0  0  0  0  0  0  0  0
   -1.4393   -0.5402    9.7221 O   0  0  0  0  0  0  0  0  0  0  0  0
   -2.3941   -0.1372   12.1814 C   0  0  0  0  0  0  0  0  0  0  0  0
   -3.2467   -0.6144   13.1436 C   0  0  0  0  0  0  0  0  0  0  0  0
   -3.8115    0.2860   14.0349 C   0  0  0  0  0  0  0  0  0  0  0  0
   -3.5157    1.6297   13.9470 C   0  0  0  0  0  0  0  0  0  0  0  0
   -2.6612    2.1298   12.9873 C   0  0  0  0  0  0  0  0  0  0  0  0
   -2.1152    1.2029   12.1138 C   0  0  0  0  0  0  0  0  0  0  0  0
   -4.0695    2.5629   14.8314 O   0  0  0  0  0  0  0  0  0  0  0  0
   -4.0345    3.9545   14.5659 C   0  0  0  0  0  0  0  0  0  0  0  0
    2.1106    0.3343    5.1988 C   0  0  0  0  0  0  0  0  0  0  0  0
  1  2  1  0
  2  3  2  0
  3  4  1  0
  4  5  2  0
  5  6  1  0
  6  7  2  0
  6  8  1  0
  8  9  1  0
  9 10  2  0
  9 11  1  0
 11 12  1  0
 12 13  1  0
 13 14  1  0
 14 15  1  0
 15 16  1  0
 16 17  2  0
 16 18  2  0
 16 19  1  0
 19 20  2  0
 20 21  1  0
 21 22  2  0
 22 23  1  0
 23 24  2  0
 22 25  1  0
 25 26  1  0
  4 27  1  0
  7  2  1  0
 15 11  1  0
 24 19  1  0
M  END
$$$$
