
     RDKit          3D

 27 29  0  0  0  0  0  0  0  0999 V2000
    5.2938    0.1510    5.1177 C   0  0  0  0  0  0  0  0  0  0  0  0
    4.0605    0.1527    5.9559 C   0  0  0  0  0  0  0  0  0  0  0  0
    3.1012    1.1375    5.8000 C   0  0  0  0  0  0  0  0  0  0  0  0
    1.9802    1.0903    6.6020 C   0  0  0  0  0  0  0  0  0  0  0  0
    1.8041    0.0944    7.5401 C   0  0  0  0  0  0  0  0  0  0  0  0
    2.7608   -0.9077    7.7120 C   0  0  0  0  0  0  0  0  0  0  0  0
    3.8732   -0.8406    6.8995 C   0  0  0  0  0  0  0  0  0  0  0  0
    2.5605   -1.9223    8.6818 N   0  0  0  0  0  0  0  0  0  0  0  0
    1.7838   -1.7432    9.8523 C   0  0  0  0  0  0  0  0  0  0  0  0
    1.6213   -0.5795   10.2759 O   0  0  0  0  0  0  0  0  0  0  0  0
    1.2033   -2.8843   10.5246 C   0  0  0  0  0  0  0  0  0  0  0  0
   -0.2902   -3.0577   10.3715 C   0  0  0  0  0  0  0  0  0  0  0  0
   -0.5379   -4.1290   11.4426 C   0  0  0  0  0  0  0  0  0  0  0  0
    0.7761   -4.3489   12.1303 C   0  0  0  0  0  0  0  0  0  0  0  0
    1.4416   -3.0369   11.9198 N   0  0  0  0  0  0  0  0  0  0  0  0
    0.7528   -1.8582   12.9371 S   0  0  0  0  0  6  0  0  0  0  0  0
    1.3528   -0.4891   12.7887 O   0  0  0  0  0  0  0  0  0  0  0  0
    0.9066   -2.2562   14.3588 O   0  0  0  0  0  0  0  0  0  0  0  0
   -0.9534   -1.6714   12.5366 C   0  0  0  0  0  0  0  0  0  0  0  0
   -1.8648   -2.6340   12.8875 C   0  0  0  0  0  0  0  0  0  0  0  0
   -3.1964   -2.4412   12.5500 C   0  0  0  0  0  0  0  0  0  0  0  0
   -3.5850   -1.3028   11.8762 C   0  0  0  0  0  0  0  0  0  0  0  0
   -2.6846   -0.3231   11.5143 C   0  0  0  0  0  0  0  0  0  0  0  0
   -1.3635   -0.5481   11.8671 C   0  0  0  0  0  0  0  0  0  0  0  0
   -4.9207   -1.0793   11.5216 O   0  0  0  0  0  0  0  0  0  0  0  0
   -5.2859   -0.0885   10.5765 C   0  0  0  0  0  0  0  0  0  0  0  0
    0.9540    2.1507    6.4295 C   0  0  0  0  0  0  0  0  0  0  0  0
  1  2  1  0
  2  3  2  0
  3  4  1  0
  4  5  2  0
  5  6  1  0
  6  7  2  0
  6  8  1  0
  8  9  1  0
  9 10  2  0
  9 11  1  0
 11 12  1  0
 12 13  1  0
 13 14  1  0
 14 15  1  0
 15 16  1  0
 16 17  2  0
 16 18  2  0
 16 19  1  0
 19 20  2  0
 20 21  1  0
 21 22  2  0
 22 23  1  0
 23 24  2  0
 22 25  1  0
 25 26  1  0
  4 27  1  0
  7  2  1  0
 15 11  1  0
 24 19  1  0
M  END
$$$$
