
     RDKit          3D

 27 29  0  0  0  0  0  0  0  0999 V2000
   -2.9269    3.0566    8.9059 C   0  0  0  0  0  0  0  0  0  0  0  0
   -2.4109    1.6626    8.7873 C   0  0  0  0  0  0  0  0  0  0  0  0
   -3.2509    0.5795    8.9758 C   0  0  0  0  0  0  0  0  0  0  0  0
   -2.7204   -0.6877    8.8540 C   0  0  0  0  0  0  0  0  0  0  0  0
   -1.3892   -0.8879    8.5528 C   0  0  0  0  0  0  0  0  0  0  0  0
   -0.5262    0.1922    8.3591 C   0  0  0  0  0  0  0  0  0  0  0  0
   -1.0783    1.4497    8.4857 C   0  0  0  0  0  0  0  0  0  0  0  0
    0.8386   -0.0355    8.0502 N   0  0  0  0  0  0  0  0  0  0  0  0
    1.4095   -1.3261    7.9334 C   0  0  0  0  0  0  0  0  0  0  0  0
    0.6654   -2.3143    8.1063 O   0  0  0  0  0  0  0  0  0  0  0  0
    2.8136   -1.4777    7.6225 C   0  0  0  0  0  0  0  0  0  0  0  0
    3.2141   -2.7823    6.9732 C   0  0  0  0  0  0  0  0  0  0  0  0
    4.7401   -2.6790    7.1038 C   0  0  0  0  0  0  0  0  0  0  0  0
    5.0125   -1.4277    7.8834 C   0  0  0  0  0  0  0  0  0  0  0  0
    3.7592   -1.2926    8.6705 N   0  0  0  0  0  0  0  0  0  0  0  0
    3.7276   -2.4404    9.9276 S   0  0  0  0  0  6  0  0  0  0  0  0
    4.8584   -2.3119   10.9081 O   0  0  0  0  0  0  0  0  0  0  0  0
    3.7822   -3.8140    9.3678 O   0  0  0  0  0  0  0  0  0  0  0  0
    2.2563   -2.2246   10.8736 C   0  0  0  0  0  0  0  0  0  0  0  0
    2.1430   -1.1903   11.7667 C   0  0  0  0  0  0  0  0  0  0  0  0
    0.9650   -1.0626   12.4878 C   0  0  0  0  0  0  0  0  0  0  0  0
   -0.0641   -1.9614   12.3033 C   0  0  0  0  0  0  0  0  0  0  0  0
    0.0296   -3.0081   11.4105 C   0  0  0  0  0  0  0  0  0  0  0  0
    1.2198   -3.1057   10.7074 C   0  0  0  0  0  0  0  0  0  0  0  0
   -1.2648   -1.8594   13.0156 O   0  0  0  0  0  0  0  0  0  0  0  0
   -2.3968   -2.6458   12.6863 C   0  0  0  0  0  0  0  0  0  0  0  0
   -3.6277   -1.8464    9.0576 C   0  0  0  0  0  0  0  0  0  0  0  0
  1  2  1  0
  2  3  2  0
  3  4  1  0
  4  5  2  0
  5  6  1  0
  6  7  2  0
  6  8  1  0
  8  9  1  0
  9 10  2  0
  9 11  1  0
 11 12  1  0
 12 13  1  0
 13 14  1  0
 14 15  1  0
 15 16  1  0
 16 17  2  0
 16 18  2  0
 16 19  1  0
 19 20  2  0
 20 21  1  0
 21 22  2  0
 22 23  1  0
 23 24  2  0
 22 25  1  0
 25 26  1  0
  4 27  1  0
  7  2  1  0
 15 11  1  0
 24 19  1  0
M  END
$$$$
