
     RDKit          3D

 27 29  0  0  0  0  0  0  0  0999 V2000
   -3.0020    0.5342   12.3005 C   0  0  0  0  0  0  0  0  0  0  0  0
   -2.9707   -0.8587   11.7689 C   0  0  0  0  0  0  0  0  0  0  0  0
   -4.0899   -1.6687   11.8424 C   0  0  0  0  0  0  0  0  0  0  0  0
   -4.0047   -2.9484   11.3351 C   0  0  0  0  0  0  0  0  0  0  0  0
   -2.8418   -3.4242   10.7660 C   0  0  0  0  0  0  0  0  0  0  0  0
   -1.7022   -2.6220   10.6828 C   0  0  0  0  0  0  0  0  0  0  0  0
   -1.8104   -1.3465   11.1963 C   0  0  0  0  0  0  0  0  0  0  0  0
   -0.5170   -3.1303   10.0940 N   0  0  0  0  0  0  0  0  0  0  0  0
    0.7660   -2.9973   10.6784 C   0  0  0  0  0  0  0  0  0  0  0  0
    0.8654   -2.3302   11.7296 O   0  0  0  0  0  0  0  0  0  0  0  0
    1.9163   -3.6217   10.0635 C   0  0  0  0  0  0  0  0  0  0  0  0
    3.0872   -3.9042   10.9763 C   0  0  0  0  0  0  0  0  0  0  0  0
    4.1564   -4.2443    9.9287 C   0  0  0  0  0  0  0  0  0  0  0  0
    3.5224   -4.0143    8.5897 C   0  0  0  0  0  0  0  0  0  0  0  0
    2.4931   -2.9954    8.9226 N   0  0  0  0  0  0  0  0  0  0  0  0
    3.2269   -1.4812    9.1824 S   0  0  0  0  0  6  0  0  0  0  0  0
    4.6847   -1.4329    8.8230 O   0  0  0  0  0  0  0  0  0  0  0  0
    3.1110   -1.0948   10.6108 O   0  0  0  0  0  0  0  0  0  0  0  0
    2.4487   -0.2759    8.1587 C   0  0  0  0  0  0  0  0  0  0  0  0
    2.9288   -0.0085    6.9024 C   0  0  0  0  0  0  0  0  0  0  0  0
    2.2818    0.9488    6.1349 C   0  0  0  0  0  0  0  0  0  0  0  0
    1.1804    1.6116    6.6335 C   0  0  0  0  0  0  0  0  0  0  0  0
    0.6819    1.3576    7.8938 C   0  0  0  0  0  0  0  0  0  0  0  0
    1.3523    0.3958    8.6328 C   0  0  0  0  0  0  0  0  0  0  0  0
    0.5060    2.5825    5.8838 O   0  0  0  0  0  0  0  0  0  0  0  0
   -0.8565    2.8934    6.1190 C   0  0  0  0  0  0  0  0  0  0  0  0
   -5.2102   -3.8130   11.4171 C   0  0  0  0  0  0  0  0  0  0  0  0
  1  2  1  0
  2  3  2  0
  3  4  1  0
  4  5  2  0
  5  6  1  0
  6  7  2  0
  6  8  1  0
  8  9  1  0
  9 10  2  0
  9 11  1  0
 11 12  1  0
 12 13  1  0
 13 14  1  0
 14 15  1  0
 15 16  1  0
 16 17  2  0
 16 18  2  0
 16 19  1  0
 19 20  2  0
 20 21  1  0
 21 22  2  0
 22 23  1  0
 23 24  2  0
 22 25  1  0
 25 26  1  0
  4 27  1  0
  7  2  1  0
 15 11  1  0
 24 19  1  0
M  END
$$$$
