
     RDKit          3D

 27 29  0  0  0  0  0  0  0  0999 V2000
   -2.8512    0.7131   12.4726 C   0  0  0  0  0  0  0  0  0  0  0  0
   -2.7248   -0.6831   11.9645 C   0  0  0  0  0  0  0  0  0  0  0  0
   -3.7426   -1.6003   12.1573 C   0  0  0  0  0  0  0  0  0  0  0  0
   -3.5724   -2.8778   11.6663 C   0  0  0  0  0  0  0  0  0  0  0  0
   -2.4238   -3.2482   10.9982 C   0  0  0  0  0  0  0  0  0  0  0  0
   -1.3861   -2.3369   10.7940 C   0  0  0  0  0  0  0  0  0  0  0  0
   -1.5780   -1.0657   11.2933 C   0  0  0  0  0  0  0  0  0  0  0  0
   -0.2138   -2.7379   10.1047 N   0  0  0  0  0  0  0  0  0  0  0  0
    1.0879   -2.6423   10.6539 C   0  0  0  0  0  0  0  0  0  0  0  0
    1.2253   -2.0300   11.7339 O   0  0  0  0  0  0  0  0  0  0  0  0
    2.2135   -3.2414    9.9719 C   0  0  0  0  0  0  0  0  0  0  0  0
    3.4880   -3.3662   10.7746 C   0  0  0  0  0  0  0  0  0  0  0  0
    4.4686   -3.7257    9.6497 C   0  0  0  0  0  0  0  0  0  0  0  0
    3.6879   -3.6551    8.3717 C   0  0  0  0  0  0  0  0  0  0  0  0
    2.6247   -2.6806    8.7298 N   0  0  0  0  0  0  0  0  0  0  0  0
    3.2668   -1.1048    8.7882 S   0  0  0  0  0  6  0  0  0  0  0  0
    4.5593   -0.9377    8.0411 O   0  0  0  0  0  0  0  0  0  0  0  0
    3.5154   -0.7054   10.1960 O   0  0  0  0  0  0  0  0  0  0  0  0
    2.1348    0.0117    8.0276 C   0  0  0  0  0  0  0  0  0  0  0  0
    2.2388    0.3149    6.6944 C   0  0  0  0  0  0  0  0  0  0  0  0
    1.3240    1.1991    6.1418 C   0  0  0  0  0  0  0  0  0  0  0  0
    0.3351    1.7558    6.9247 C   0  0  0  0  0  0  0  0  0  0  0  0
    0.2131    1.4643    8.2669 C   0  0  0  0  0  0  0  0  0  0  0  0
    1.1432    0.5776    8.7857 C   0  0  0  0  0  0  0  0  0  0  0  0
   -0.6026    2.6511    6.3967 O   0  0  0  0  0  0  0  0  0  0  0  0
   -1.7724    3.0132    7.1102 C   0  0  0  0  0  0  0  0  0  0  0  0
   -4.6691   -3.8578   11.8766 C   0  0  0  0  0  0  0  0  0  0  0  0
  1  2  1  0
  2  3  2  0
  3  4  1  0
  4  5  2  0
  5  6  1  0
  6  7  2  0
  6  8  1  0
  8  9  1  0
  9 10  2  0
  9 11  1  0
 11 12  1  0
 12 13  1  0
 13 14  1  0
 14 15  1  0
 15 16  1  0
 16 17  2  0
 16 18  2  0
 16 19  1  0
 19 20  2  0
 20 21  1  0
 21 22  2  0
 22 23  1  0
 23 24  2  0
 22 25  1  0
 25 26  1  0
  4 27  1  0
  7  2  1  0
 15 11  1  0
 24 19  1  0
M  END
$$$$
