
     RDKit          3D

 27 29  0  0  0  0  0  0  0  0999 V2000
   -3.9552   -3.7182   13.0921 C   0  0  0  0  0  0  0  0  0  0  0  0
   -3.1381   -2.6726   12.4118 C   0  0  0  0  0  0  0  0  0  0  0  0
   -3.6138   -1.3803   12.2774 C   0  0  0  0  0  0  0  0  0  0  0  0
   -2.8161   -0.4536   11.6395 C   0  0  0  0  0  0  0  0  0  0  0  0
   -1.5739   -0.7895   11.1425 C   0  0  0  0  0  0  0  0  0  0  0  0
   -1.0769   -2.0880   11.2685 C   0  0  0  0  0  0  0  0  0  0  0  0
   -1.8914   -2.9977   11.9097 C   0  0  0  0  0  0  0  0  0  0  0  0
    0.2024   -2.4125   10.7506 N   0  0  0  0  0  0  0  0  0  0  0  0
    1.3919   -1.7434   11.1283 C   0  0  0  0  0  0  0  0  0  0  0  0
    1.2926   -0.7480   11.8763 O   0  0  0  0  0  0  0  0  0  0  0  0
    2.6749   -2.2116   10.6532 C   0  0  0  0  0  0  0  0  0  0  0  0
    3.4557   -1.2491    9.7883 C   0  0  0  0  0  0  0  0  0  0  0  0
    4.5385   -2.1984    9.2566 C   0  0  0  0  0  0  0  0  0  0  0  0
    4.1931   -3.5629    9.7730 C   0  0  0  0  0  0  0  0  0  0  0  0
    2.7219   -3.4475    9.9482 N   0  0  0  0  0  0  0  0  0  0  0  0
    1.9447   -3.4832    8.4339 S   0  0  0  0  0  6  0  0  0  0  0  0
    0.6118   -4.1760    8.4413 O   0  0  0  0  0  0  0  0  0  0  0  0
    2.7978   -4.1774    7.4371 O   0  0  0  0  0  0  0  0  0  0  0  0
    1.6153   -1.8324    7.9115 C   0  0  0  0  0  0  0  0  0  0  0  0
    0.4047   -1.2435    8.1722 C   0  0  0  0  0  0  0  0  0  0  0  0
    0.1935    0.0577    7.7407 C   0  0  0  0  0  0  0  0  0  0  0  0
    1.1857    0.7359    7.0651 C   0  0  0  0  0  0  0  0  0  0  0  0
    2.4096    0.1620    6.7929 C   0  0  0  0  0  0  0  0  0  0  0  0
    2.5864   -1.1384    7.2382 C   0  0  0  0  0  0  0  0  0  0  0  0
    1.0031    2.0495    6.6169 O   0  0  0  0  0  0  0  0  0  0  0  0
    1.9211    2.6709    5.7341 C   0  0  0  0  0  0  0  0  0  0  0  0
   -3.3327    0.9322   11.4984 C   0  0  0  0  0  0  0  0  0  0  0  0
  1  2  1  0
  2  3  2  0
  3  4  1  0
  4  5  2  0
  5  6  1  0
  6  7  2  0
  6  8  1  0
  8  9  1  0
  9 10  2  0
  9 11  1  0
 11 12  1  0
 12 13  1  0
 13 14  1  0
 14 15  1  0
 15 16  1  0
 16 17  2  0
 16 18  2  0
 16 19  1  0
 19 20  2  0
 20 21  1  0
 21 22  2  0
 22 23  1  0
 23 24  2  0
 22 25  1  0
 25 26  1  0
  4 27  1  0
  7  2  1  0
 15 11  1  0
 24 19  1  0
M  END
$$$$
