
     RDKit          3D

 27 29  0  0  0  0  0  0  0  0999 V2000
    1.0716    1.1760    5.3579 C   0  0  0  0  0  0  0  0  0  0  0  0
    2.0909    0.3786    6.0986 C   0  0  0  0  0  0  0  0  0  0  0  0
    3.4422    0.5864    5.8860 C   0  0  0  0  0  0  0  0  0  0  0  0
    4.3411   -0.1795    6.5984 C   0  0  0  0  0  0  0  0  0  0  0  0
    3.9209   -1.1322    7.5032 C   0  0  0  0  0  0  0  0  0  0  0  0
    2.5620   -1.3564    7.7313 C   0  0  0  0  0  0  0  0  0  0  0  0
    1.6816   -0.5793    7.0081 C   0  0  0  0  0  0  0  0  0  0  0  0
    2.1514   -2.3405    8.6656 N   0  0  0  0  0  0  0  0  0  0  0  0
    1.9416   -2.0746   10.0405 C   0  0  0  0  0  0  0  0  0  0  0  0
    2.5240   -1.0906   10.5431 O   0  0  0  0  0  0  0  0  0  0  0  0
    1.0758   -2.9268   10.8249 C   0  0  0  0  0  0  0  0  0  0  0  0
   -0.3722   -2.9797   10.3953 C   0  0  0  0  0  0  0  0  0  0  0  0
   -0.9778   -3.6924   11.6126 C   0  0  0  0  0  0  0  0  0  0  0  0
    0.1359   -3.8540   12.6033 C   0  0  0  0  0  0  0  0  0  0  0  0
    1.0256   -2.7228   12.2329 N   0  0  0  0  0  0  0  0  0  0  0  0
    0.3539   -1.2495   12.7592 S   0  0  0  0  0  6  0  0  0  0  0  0
    1.3603   -0.2666   13.2863 O   0  0  0  0  0  0  0  0  0  0  0  0
   -0.6328   -1.4944   13.8406 O   0  0  0  0  0  0  0  0  0  0  0  0
   -0.4214   -0.4453   11.3958 C   0  0  0  0  0  0  0  0  0  0  0  0
    0.2443   -0.2816   10.2082 C   0  0  0  0  0  0  0  0  0  0  0  0
   -0.4086    0.3577    9.1646 C   0  0  0  0  0  0  0  0  0  0  0  0
   -1.6989    0.8150    9.3279 C   0  0  0  0  0  0  0  0  0  0  0  0
   -2.3857    0.6605   10.5135 C   0  0  0  0  0  0  0  0  0  0  0  0
   -1.7037    0.0178   11.5344 C   0  0  0  0  0  0  0  0  0  0  0  0
   -2.3844    1.4639    8.2940 O   0  0  0  0  0  0  0  0  0  0  0  0
   -2.4183    0.9402    6.9777 C   0  0  0  0  0  0  0  0  0  0  0  0
    5.7905    0.0488    6.3654 C   0  0  0  0  0  0  0  0  0  0  0  0
  1  2  1  0
  2  3  2  0
  3  4  1  0
  4  5  2  0
  5  6  1  0
  6  7  2  0
  6  8  1  0
  8  9  1  0
  9 10  2  0
  9 11  1  0
 11 12  1  0
 12 13  1  0
 13 14  1  0
 14 15  1  0
 15 16  1  0
 16 17  2  0
 16 18  2  0
 16 19  1  0
 19 20  2  0
 20 21  1  0
 21 22  2  0
 22 23  1  0
 23 24  2  0
 22 25  1  0
 25 26  1  0
  4 27  1  0
  7  2  1  0
 15 11  1  0
 24 19  1  0
M  END
$$$$
