
     RDKit          3D

 27 29  0  0  0  0  0  0  0  0999 V2000
    6.3755   -1.9395    9.1201 C   0  0  0  0  0  0  0  0  0  0  0  0
    5.2968   -1.8040    8.0994 C   0  0  0  0  0  0  0  0  0  0  0  0
    5.6026   -1.7447    6.7514 C   0  0  0  0  0  0  0  0  0  0  0  0
    4.5653   -1.6194    5.8511 C   0  0  0  0  0  0  0  0  0  0  0  0
    3.2517   -1.5534    6.2667 C   0  0  0  0  0  0  0  0  0  0  0  0
    2.9234   -1.6116    7.6224 C   0  0  0  0  0  0  0  0  0  0  0  0
    3.9763   -1.7370    8.5043 C   0  0  0  0  0  0  0  0  0  0  0  0
    1.5668   -1.5421    8.0285 N   0  0  0  0  0  0  0  0  0  0  0  0
    1.0815   -2.1041    9.2342 C   0  0  0  0  0  0  0  0  0  0  0  0
    1.9112   -2.3954   10.1212 O   0  0  0  0  0  0  0  0  0  0  0  0
   -0.3356   -2.3273    9.4168 C   0  0  0  0  0  0  0  0  0  0  0  0
   -1.2068   -1.0925    9.4333 C   0  0  0  0  0  0  0  0  0  0  0  0
   -2.5161   -1.7060    9.9487 C   0  0  0  0  0  0  0  0  0  0  0  0
   -2.2149   -3.1414   10.2601 C   0  0  0  0  0  0  0  0  0  0  0  0
   -0.7584   -3.0806   10.5484 N   0  0  0  0  0  0  0  0  0  0  0  0
   -0.4897   -2.3699   12.0721 S   0  0  0  0  0  6  0  0  0  0  0  0
    0.7861   -1.5827   12.1687 O   0  0  0  0  0  0  0  0  0  0  0  0
   -0.4439   -3.4163   13.1238 O   0  0  0  0  0  0  0  0  0  0  0  0
   -1.7808   -1.2192   12.4115 C   0  0  0  0  0  0  0  0  0  0  0  0
   -2.9913   -1.6465   12.8937 C   0  0  0  0  0  0  0  0  0  0  0  0
   -3.9758   -0.7024   13.1453 C   0  0  0  0  0  0  0  0  0  0  0  0
   -3.7327    0.6346   12.9123 C   0  0  0  0  0  0  0  0  0  0  0  0
   -2.5229    1.0850   12.4279 C   0  0  0  0  0  0  0  0  0  0  0  0
   -1.5625    0.1152   12.1878 C   0  0  0  0  0  0  0  0  0  0  0  0
   -4.7056    1.6112   13.1562 O   0  0  0  0  0  0  0  0  0  0  0  0
   -5.8475    1.3444   13.9519 C   0  0  0  0  0  0  0  0  0  0  0  0
    4.9005   -1.5563    4.4050 C   0  0  0  0  0  0  0  0  0  0  0  0
  1  2  1  0
  2  3  2  0
  3  4  1  0
  4  5  2  0
  5  6  1  0
  6  7  2  0
  6  8  1  0
  8  9  1  0
  9 10  2  0
  9 11  1  0
 11 12  1  0
 12 13  1  0
 13 14  1  0
 14 15  1  0
 15 16  1  0
 16 17  2  0
 16 18  2  0
 16 19  1  0
 19 20  2  0
 20 21  1  0
 21 22  2  0
 22 23  1  0
 23 24  2  0
 22 25  1  0
 25 26  1  0
  4 27  1  0
  7  2  1  0
 15 11  1  0
 24 19  1  0
M  END
$$$$
