
     RDKit          3D

 27 29  0  0  0  0  0  0  0  0999 V2000
   -4.6842   -1.8449    9.4997 C   0  0  0  0  0  0  0  0  0  0  0  0
   -3.5474   -2.3045   10.3482 C   0  0  0  0  0  0  0  0  0  0  0  0
   -3.7004   -2.4524   11.7153 C   0  0  0  0  0  0  0  0  0  0  0  0
   -2.6157   -2.8806   12.4516 C   0  0  0  0  0  0  0  0  0  0  0  0
   -1.4027   -3.1585   11.8565 C   0  0  0  0  0  0  0  0  0  0  0  0
   -1.2289   -3.0152   10.4787 C   0  0  0  0  0  0  0  0  0  0  0  0
   -2.3267   -2.5860    9.7627 C   0  0  0  0  0  0  0  0  0  0  0  0
    0.0261   -3.3061    9.8869 N   0  0  0  0  0  0  0  0  0  0  0  0
    1.2613   -2.8508   10.4086 C   0  0  0  0  0  0  0  0  0  0  0  0
    1.2338   -2.0531   11.3694 O   0  0  0  0  0  0  0  0  0  0  0  0
    2.5082   -3.3058    9.8346 C   0  0  0  0  0  0  0  0  0  0  0  0
    3.7278   -3.1949   10.7201 C   0  0  0  0  0  0  0  0  0  0  0  0
    4.8270   -3.4577    9.6813 C   0  0  0  0  0  0  0  0  0  0  0  0
    4.1356   -3.5712    8.3559 C   0  0  0  0  0  0  0  0  0  0  0  0
    2.9174   -2.7525    8.5884 N   0  0  0  0  0  0  0  0  0  0  0  0
    3.3133   -1.0966    8.5907 S   0  0  0  0  0  6  0  0  0  0  0  0
    4.2423   -0.6834    7.4850 O   0  0  0  0  0  0  0  0  0  0  0  0
    3.9619   -0.7274    9.8738 O   0  0  0  0  0  0  0  0  0  0  0  0
    1.8464   -0.1489    8.3532 C   0  0  0  0  0  0  0  0  0  0  0  0
    1.3467    0.0650    7.0943 C   0  0  0  0  0  0  0  0  0  0  0  0
    0.1894    0.8176    6.9591 C   0  0  0  0  0  0  0  0  0  0  0  0
   -0.4376    1.3350    8.0726 C   0  0  0  0  0  0  0  0  0  0  0  0
    0.0483    1.1316    9.3469 C   0  0  0  0  0  0  0  0  0  0  0  0
    1.2057    0.3756    9.4452 C   0  0  0  0  0  0  0  0  0  0  0  0
   -1.6066    2.0981    7.9690 O   0  0  0  0  0  0  0  0  0  0  0  0
   -1.7232    3.1618    7.0400 C   0  0  0  0  0  0  0  0  0  0  0  0
   -2.7867   -3.0374   13.9191 C   0  0  0  0  0  0  0  0  0  0  0  0
  1  2  1  0
  2  3  2  0
  3  4  1  0
  4  5  2  0
  5  6  1  0
  6  7  2  0
  6  8  1  0
  8  9  1  0
  9 10  2  0
  9 11  1  0
 11 12  1  0
 12 13  1  0
 13 14  1  0
 14 15  1  0
 15 16  1  0
 16 17  2  0
 16 18  2  0
 16 19  1  0
 19 20  2  0
 20 21  1  0
 21 22  2  0
 22 23  1  0
 23 24  2  0
 22 25  1  0
 25 26  1  0
  4 27  1  0
  7  2  1  0
 15 11  1  0
 24 19  1  0
M  END
$$$$
