
     RDKit          3D

 27 29  0  0  0  0  0  0  0  0999 V2000
   -3.8917   -1.1037    9.4123 C   0  0  0  0  0  0  0  0  0  0  0  0
   -3.0161   -1.9965   10.2245 C   0  0  0  0  0  0  0  0  0  0  0  0
   -3.3954   -2.3938   11.4944 C   0  0  0  0  0  0  0  0  0  0  0  0
   -2.5470   -3.2201   12.2011 C   0  0  0  0  0  0  0  0  0  0  0  0
   -1.3479   -3.6487   11.6707 C   0  0  0  0  0  0  0  0  0  0  0  0
   -0.9480   -3.2585   10.3912 C   0  0  0  0  0  0  0  0  0  0  0  0
   -1.8119   -2.4324    9.7032 C   0  0  0  0  0  0  0  0  0  0  0  0
    0.2884   -3.7103    9.8647 N   0  0  0  0  0  0  0  0  0  0  0  0
    1.4732   -2.9348    9.8754 C   0  0  0  0  0  0  0  0  0  0  0  0
    1.5143   -1.9371   10.6257 O   0  0  0  0  0  0  0  0  0  0  0  0
    2.5928   -3.3012    9.0367 C   0  0  0  0  0  0  0  0  0  0  0  0
    3.9574   -3.2359    9.6830 C   0  0  0  0  0  0  0  0  0  0  0  0
    4.8417   -3.3735    8.4357 C   0  0  0  0  0  0  0  0  0  0  0  0
    3.9119   -3.3871    7.2596 C   0  0  0  0  0  0  0  0  0  0  0  0
    2.7516   -2.6271    7.7930 N   0  0  0  0  0  0  0  0  0  0  0  0
    3.1231   -0.9676    7.8753 S   0  0  0  0  0  6  0  0  0  0  0  0
    3.8257   -0.4322    6.6603 O   0  0  0  0  0  0  0  0  0  0  0  0
    3.9950   -0.6959    9.0454 O   0  0  0  0  0  0  0  0  0  0  0  0
    1.6275   -0.0436    8.0007 C   0  0  0  0  0  0  0  0  0  0  0  0
    0.6433   -0.1720    7.0546 C   0  0  0  0  0  0  0  0  0  0  0  0
   -0.5157    0.5766    7.1973 C   0  0  0  0  0  0  0  0  0  0  0  0
   -0.6653    1.4285    8.2709 C   0  0  0  0  0  0  0  0  0  0  0  0
    0.3119    1.5722    9.2330 C   0  0  0  0  0  0  0  0  0  0  0  0
    1.4560    0.8097    9.0593 C   0  0  0  0  0  0  0  0  0  0  0  0
   -1.8227    2.1971    8.4428 O   0  0  0  0  0  0  0  0  0  0  0  0
   -1.8345    3.5929    8.1984 C   0  0  0  0  0  0  0  0  0  0  0  0
   -2.9602   -3.6430   13.5641 C   0  0  0  0  0  0  0  0  0  0  0  0
  1  2  1  0
  2  3  2  0
  3  4  1  0
  4  5  2  0
  5  6  1  0
  6  7  2  0
  6  8  1  0
  8  9  1  0
  9 10  2  0
  9 11  1  0
 11 12  1  0
 12 13  1  0
 13 14  1  0
 14 15  1  0
 15 16  1  0
 16 17  2  0
 16 18  2  0
 16 19  1  0
 19 20  2  0
 20 21  1  0
 21 22  2  0
 22 23  1  0
 23 24  2  0
 22 25  1  0
 25 26  1  0
  4 27  1  0
  7  2  1  0
 15 11  1  0
 24 19  1  0
M  END
$$$$
