
     RDKit          3D

 27 29  0  0  0  0  0  0  0  0999 V2000
   -3.2203   -3.7127   13.1769 C   0  0  0  0  0  0  0  0  0  0  0  0
   -2.5741   -2.7953   12.1948 C   0  0  0  0  0  0  0  0  0  0  0  0
   -3.3265   -1.8770   11.4843 C   0  0  0  0  0  0  0  0  0  0  0  0
   -2.6769   -1.0532   10.5890 C   0  0  0  0  0  0  0  0  0  0  0  0
   -1.3134   -1.1298   10.3947 C   0  0  0  0  0  0  0  0  0  0  0  0
   -0.5375   -2.0498   11.1021 C   0  0  0  0  0  0  0  0  0  0  0  0
   -1.2080   -2.8630   11.9917 C   0  0  0  0  0  0  0  0  0  0  0  0
    0.8625   -2.1121   10.8875 N   0  0  0  0  0  0  0  0  0  0  0  0
    1.4492   -2.5360    9.6704 C   0  0  0  0  0  0  0  0  0  0  0  0
    0.7068   -2.6609    8.6737 O   0  0  0  0  0  0  0  0  0  0  0  0
    2.8670   -2.8118    9.6007 C   0  0  0  0  0  0  0  0  0  0  0  0
    3.7609   -1.9114   10.4218 C   0  0  0  0  0  0  0  0  0  0  0  0
    5.1273   -2.3065    9.8444 C   0  0  0  0  0  0  0  0  0  0  0  0
    4.8507   -3.2668    8.7268 C   0  0  0  0  0  0  0  0  0  0  0  0
    3.4823   -2.8560    8.3178 N   0  0  0  0  0  0  0  0  0  0  0  0
    3.5415   -1.3880    7.4575 S   0  0  0  0  0  6  0  0  0  0  0  0
    3.8819   -1.5395    6.0023 O   0  0  0  0  0  0  0  0  0  0  0  0
    4.5553   -0.4843    8.0566 O   0  0  0  0  0  0  0  0  0  0  0  0
    1.9508   -0.6298    7.4933 C   0  0  0  0  0  0  0  0  0  0  0  0
    0.9176   -1.1338    6.7458 C   0  0  0  0  0  0  0  0  0  0  0  0
   -0.3157   -0.5020    6.8077 C   0  0  0  0  0  0  0  0  0  0  0  0
   -0.4888    0.6082    7.6067 C   0  0  0  0  0  0  0  0  0  0  0  0
    0.5369    1.1307    8.3659 C   0  0  0  0  0  0  0  0  0  0  0  0
    1.7547    0.4749    8.2802 C   0  0  0  0  0  0  0  0  0  0  0  0
   -1.7207    1.2678    7.6905 O   0  0  0  0  0  0  0  0  0  0  0  0
   -1.9170    2.3749    8.5531 C   0  0  0  0  0  0  0  0  0  0  0  0
   -3.4906   -0.0693    9.8293 C   0  0  0  0  0  0  0  0  0  0  0  0
  1  2  1  0
  2  3  2  0
  3  4  1  0
  4  5  2  0
  5  6  1  0
  6  7  2  0
  6  8  1  0
  8  9  1  0
  9 10  2  0
  9 11  1  0
 11 12  1  0
 12 13  1  0
 13 14  1  0
 14 15  1  0
 15 16  1  0
 16 17  2  0
 16 18  2  0
 16 19  1  0
 19 20  2  0
 20 21  1  0
 21 22  2  0
 22 23  1  0
 23 24  2  0
 22 25  1  0
 25 26  1  0
  4 27  1  0
  7  2  1  0
 15 11  1  0
 24 19  1  0
M  END
$$$$
