
     RDKit          3D

 27 29  0  0  0  0  0  0  0  0999 V2000
   -4.5900   -4.0417   11.7220 C   0  0  0  0  0  0  0  0  0  0  0  0
   -3.4861   -3.0499   11.8681 C   0  0  0  0  0  0  0  0  0  0  0  0
   -3.7557   -1.7382   12.2161 C   0  0  0  0  0  0  0  0  0  0  0  0
   -2.6964   -0.8635   12.3373 C   0  0  0  0  0  0  0  0  0  0  0  0
   -1.3958   -1.2691   12.1208 C   0  0  0  0  0  0  0  0  0  0  0  0
   -1.1040   -2.5882   11.7689 C   0  0  0  0  0  0  0  0  0  0  0  0
   -2.1785   -3.4451   11.6535 C   0  0  0  0  0  0  0  0  0  0  0  0
    0.2397   -2.9846   11.5509 N   0  0  0  0  0  0  0  0  0  0  0  0
    1.0922   -2.3705   10.6015 C   0  0  0  0  0  0  0  0  0  0  0  0
    0.8178   -1.2095   10.2314 O   0  0  0  0  0  0  0  0  0  0  0  0
    2.2418   -3.0803   10.0860 C   0  0  0  0  0  0  0  0  0  0  0  0
    3.5085   -2.9777   10.9039 C   0  0  0  0  0  0  0  0  0  0  0  0
    4.5127   -3.5623    9.9007 C   0  0  0  0  0  0  0  0  0  0  0  0
    3.7470   -3.8148    8.6367 C   0  0  0  0  0  0  0  0  0  0  0  0
    2.6542   -2.8141    8.7498 N   0  0  0  0  0  0  0  0  0  0  0  0
    3.2542   -1.2508    8.4418 S   0  0  0  0  0  6  0  0  0  0  0  0
    4.3111   -1.1951    7.3757 O   0  0  0  0  0  0  0  0  0  0  0  0
    3.8424   -0.6758    9.6773 O   0  0  0  0  0  0  0  0  0  0  0  0
    1.9414   -0.2299    7.8581 C   0  0  0  0  0  0  0  0  0  0  0  0
    1.4369    0.7776    8.6396 C   0  0  0  0  0  0  0  0  0  0  0  0
    0.4037    1.5539    8.1358 C   0  0  0  0  0  0  0  0  0  0  0  0
   -0.0983    1.3097    6.8751 C   0  0  0  0  0  0  0  0  0  0  0  0
    0.3946    0.3019    6.0735 C   0  0  0  0  0  0  0  0  0  0  0  0
    1.4260   -0.4536    6.6081 C   0  0  0  0  0  0  0  0  0  0  0  0
   -1.1404    2.0753    6.3387 O   0  0  0  0  0  0  0  0  0  0  0  0
   -2.0325    2.8037    7.1644 C   0  0  0  0  0  0  0  0  0  0  0  0
   -2.9928    0.5435   12.7112 C   0  0  0  0  0  0  0  0  0  0  0  0
  1  2  1  0
  2  3  2  0
  3  4  1  0
  4  5  2  0
  5  6  1  0
  6  7  2  0
  6  8  1  0
  8  9  1  0
  9 10  2  0
  9 11  1  0
 11 12  1  0
 12 13  1  0
 13 14  1  0
 14 15  1  0
 15 16  1  0
 16 17  2  0
 16 18  2  0
 16 19  1  0
 19 20  2  0
 20 21  1  0
 21 22  2  0
 22 23  1  0
 23 24  2  0
 22 25  1  0
 25 26  1  0
  4 27  1  0
  7  2  1  0
 15 11  1  0
 24 19  1  0
M  END
$$$$
