
     RDKit          3D

 27 29  0  0  0  0  0  0  0  0999 V2000
   -4.6274   -1.9589   10.0027 C   0  0  0  0  0  0  0  0  0  0  0  0
   -3.4130   -1.2534    9.5015 C   0  0  0  0  0  0  0  0  0  0  0  0
   -3.4738    0.0757    9.1219 C   0  0  0  0  0  0  0  0  0  0  0  0
   -2.3202    0.6783    8.6659 C   0  0  0  0  0  0  0  0  0  0  0  0
   -1.1284   -0.0114    8.5840 C   0  0  0  0  0  0  0  0  0  0  0  0
   -1.0472   -1.3527    8.9623 C   0  0  0  0  0  0  0  0  0  0  0  0
   -2.2128   -1.9346    9.4150 C   0  0  0  0  0  0  0  0  0  0  0  0
    0.1875   -2.0434    8.8703 N   0  0  0  0  0  0  0  0  0  0  0  0
    1.3240   -1.5281    8.2009 C   0  0  0  0  0  0  0  0  0  0  0  0
    1.3610   -0.3018    7.9670 O   0  0  0  0  0  0  0  0  0  0  0  0
    2.4009   -2.4093    7.8070 C   0  0  0  0  0  0  0  0  0  0  0  0
    2.4930   -3.7212    8.5516 C   0  0  0  0  0  0  0  0  0  0  0  0
    3.8802   -4.1861    8.0869 C   0  0  0  0  0  0  0  0  0  0  0  0
    4.4401   -3.0729    7.2531 C   0  0  0  0  0  0  0  0  0  0  0  0
    3.7288   -1.8963    7.8171 N   0  0  0  0  0  0  0  0  0  0  0  0
    4.3720   -1.4954    9.3416 S   0  0  0  0  0  6  0  0  0  0  0  0
    5.3543   -0.3592    9.3168 O   0  0  0  0  0  0  0  0  0  0  0  0
    5.0678   -2.6682    9.9279 O   0  0  0  0  0  0  0  0  0  0  0  0
    3.0667   -0.9673   10.4016 C   0  0  0  0  0  0  0  0  0  0  0  0
    2.6087    0.3245   10.3588 C   0  0  0  0  0  0  0  0  0  0  0  0
    1.5794    0.6920   11.2129 C   0  0  0  0  0  0  0  0  0  0  0  0
    1.0352   -0.2292   12.0825 C   0  0  0  0  0  0  0  0  0  0  0  0
    1.4812   -1.5326   12.1413 C   0  0  0  0  0  0  0  0  0  0  0  0
    2.5100   -1.8652   11.2745 C   0  0  0  0  0  0  0  0  0  0  0  0
   -0.0041    0.1108   12.9566 O   0  0  0  0  0  0  0  0  0  0  0  0
   -0.5494   -0.8274   13.8680 C   0  0  0  0  0  0  0  0  0  0  0  0
   -2.3923    2.1057    8.2600 C   0  0  0  0  0  0  0  0  0  0  0  0
  1  2  1  0
  2  3  2  0
  3  4  1  0
  4  5  2  0
  5  6  1  0
  6  7  2  0
  6  8  1  0
  8  9  1  0
  9 10  2  0
  9 11  1  0
 11 12  1  0
 12 13  1  0
 13 14  1  0
 14 15  1  0
 15 16  1  0
 16 17  2  0
 16 18  2  0
 16 19  1  0
 19 20  2  0
 20 21  1  0
 21 22  2  0
 22 23  1  0
 23 24  2  0
 22 25  1  0
 25 26  1  0
  4 27  1  0
  7  2  1  0
 15 11  1  0
 24 19  1  0
M  END
$$$$
