
     RDKit          3D

 27 29  0  0  0  0  0  0  0  0999 V2000
   -1.9359   -2.2419   14.0770 C   0  0  0  0  0  0  0  0  0  0  0  0
   -2.1402   -2.5366   12.6296 C   0  0  0  0  0  0  0  0  0  0  0  0
   -3.3985   -2.8396   12.1406 C   0  0  0  0  0  0  0  0  0  0  0  0
   -3.5297   -3.1038   10.7933 C   0  0  0  0  0  0  0  0  0  0  0  0
   -2.4451   -3.0711    9.9415 C   0  0  0  0  0  0  0  0  0  0  0  0
   -1.1678   -2.7673   10.4162 C   0  0  0  0  0  0  0  0  0  0  0  0
   -1.0604   -2.5067   11.7663 C   0  0  0  0  0  0  0  0  0  0  0  0
   -0.0665   -2.7390    9.5239 N   0  0  0  0  0  0  0  0  0  0  0  0
    1.2605   -3.0486    9.9091 C   0  0  0  0  0  0  0  0  0  0  0  0
    1.5254   -3.0773   11.1294 O   0  0  0  0  0  0  0  0  0  0  0  0
    2.2667   -3.3208    8.9068 C   0  0  0  0  0  0  0  0  0  0  0  0
    3.6819   -3.4827    9.4118 C   0  0  0  0  0  0  0  0  0  0  0  0
    4.4403   -3.4335    8.0780 C   0  0  0  0  0  0  0  0  0  0  0  0
    3.4159   -3.1472    7.0213 C   0  0  0  0  0  0  0  0  0  0  0  0
    2.3786   -2.4268    7.8046 N   0  0  0  0  0  0  0  0  0  0  0  0
    2.9037   -0.8475    8.1633 S   0  0  0  0  0  6  0  0  0  0  0  0
    3.8150   -0.2510    7.1288 O   0  0  0  0  0  0  0  0  0  0  0  0
    3.6328   -0.8319    9.4561 O   0  0  0  0  0  0  0  0  0  0  0  0
    1.5074    0.2256    8.2368 C   0  0  0  0  0  0  0  0  0  0  0  0
    0.8943    0.4965    9.4331 C   0  0  0  0  0  0  0  0  0  0  0  0
   -0.2011    1.3474    9.4393 C   0  0  0  0  0  0  0  0  0  0  0  0
   -0.6561    1.9036    8.2627 C   0  0  0  0  0  0  0  0  0  0  0  0
   -0.0540    1.6442    7.0496 C   0  0  0  0  0  0  0  0  0  0  0  0
    1.0371    0.7904    7.0801 C   0  0  0  0  0  0  0  0  0  0  0  0
   -1.7588    2.7657    8.2361 O   0  0  0  0  0  0  0  0  0  0  0  0
   -2.4737    3.0258    7.0405 C   0  0  0  0  0  0  0  0  0  0  0  0
   -4.8835   -3.4285   10.2747 C   0  0  0  0  0  0  0  0  0  0  0  0
  1  2  1  0
  2  3  2  0
  3  4  1  0
  4  5  2  0
  5  6  1  0
  6  7  2  0
  6  8  1  0
  8  9  1  0
  9 10  2  0
  9 11  1  0
 11 12  1  0
 12 13  1  0
 13 14  1  0
 14 15  1  0
 15 16  1  0
 16 17  2  0
 16 18  2  0
 16 19  1  0
 19 20  2  0
 20 21  1  0
 21 22  2  0
 22 23  1  0
 23 24  2  0
 22 25  1  0
 25 26  1  0
  4 27  1  0
  7  2  1  0
 15 11  1  0
 24 19  1  0
M  END
$$$$
