
     RDKit          3D

 27 29  0  0  0  0  0  0  0  0999 V2000
   -0.0589    2.4682    6.5366 C   0  0  0  0  0  0  0  0  0  0  0  0
    1.1385    1.6215    6.8071 C   0  0  0  0  0  0  0  0  0  0  0  0
    2.2458    1.6780    5.9795 C   0  0  0  0  0  0  0  0  0  0  0  0
    3.3254    0.8730    6.2769 C   0  0  0  0  0  0  0  0  0  0  0  0
    3.3180    0.0277    7.3669 C   0  0  0  0  0  0  0  0  0  0  0  0
    2.2101   -0.0433    8.2134 C   0  0  0  0  0  0  0  0  0  0  0  0
    1.1424    0.7704    7.8969 C   0  0  0  0  0  0  0  0  0  0  0  0
    2.2229   -0.9188    9.3285 N   0  0  0  0  0  0  0  0  0  0  0  0
    1.2404   -1.9134    9.5535 C   0  0  0  0  0  0  0  0  0  0  0  0
    0.1123   -1.7493    9.0431 O   0  0  0  0  0  0  0  0  0  0  0  0
    1.5505   -3.0780   10.3526 C   0  0  0  0  0  0  0  0  0  0  0  0
    0.4257   -4.0679   10.5501 C   0  0  0  0  0  0  0  0  0  0  0  0
    1.0359   -4.9355   11.6598 C   0  0  0  0  0  0  0  0  0  0  0  0
    2.3399   -4.2935   12.0275 C   0  0  0  0  0  0  0  0  0  0  0  0
    2.0855   -2.8771   11.6565 N   0  0  0  0  0  0  0  0  0  0  0  0
    1.0494   -2.1482   12.7940 S   0  0  0  0  0  6  0  0  0  0  0  0
    1.4677   -0.7676   13.2130 O   0  0  0  0  0  0  0  0  0  0  0  0
    0.9727   -2.9784   14.0220 O   0  0  0  0  0  0  0  0  0  0  0  0
   -0.5524   -1.9602   12.0831 C   0  0  0  0  0  0  0  0  0  0  0  0
   -1.4587   -2.9888   12.1163 C   0  0  0  0  0  0  0  0  0  0  0  0
   -2.7065   -2.7921   11.5433 C   0  0  0  0  0  0  0  0  0  0  0  0
   -3.0192   -1.5848   10.9555 C   0  0  0  0  0  0  0  0  0  0  0  0
   -2.1225   -0.5382   10.9115 C   0  0  0  0  0  0  0  0  0  0  0  0
   -0.8861   -0.7691   11.4931 C   0  0  0  0  0  0  0  0  0  0  0  0
   -4.2694   -1.3555   10.3690 O   0  0  0  0  0  0  0  0  0  0  0  0
   -5.3324   -2.2847   10.4912 C   0  0  0  0  0  0  0  0  0  0  0  0
    4.5113    0.9385    5.3842 C   0  0  0  0  0  0  0  0  0  0  0  0
  1  2  1  0
  2  3  2  0
  3  4  1  0
  4  5  2  0
  5  6  1  0
  6  7  2  0
  6  8  1  0
  8  9  1  0
  9 10  2  0
  9 11  1  0
 11 12  1  0
 12 13  1  0
 13 14  1  0
 14 15  1  0
 15 16  1  0
 16 17  2  0
 16 18  2  0
 16 19  1  0
 19 20  2  0
 20 21  1  0
 21 22  2  0
 22 23  1  0
 23 24  2  0
 22 25  1  0
 25 26  1  0
  4 27  1  0
  7  2  1  0
 15 11  1  0
 24 19  1  0
M  END
$$$$
