
     RDKit          3D

 27 29  0  0  0  0  0  0  0  0999 V2000
   -4.2491   -0.1610   10.8549 C   0  0  0  0  0  0  0  0  0  0  0  0
   -3.3996   -1.3462   11.1668 C   0  0  0  0  0  0  0  0  0  0  0  0
   -3.8056   -2.2801   12.1034 C   0  0  0  0  0  0  0  0  0  0  0  0
   -2.9805   -3.3568   12.3526 C   0  0  0  0  0  0  0  0  0  0  0  0
   -1.7786   -3.5138   11.6941 C   0  0  0  0  0  0  0  0  0  0  0  0
   -1.3519   -2.5821   10.7460 C   0  0  0  0  0  0  0  0  0  0  0  0
   -2.1927   -1.5140   10.5131 C   0  0  0  0  0  0  0  0  0  0  0  0
   -0.1131   -2.7622   10.0805 N   0  0  0  0  0  0  0  0  0  0  0  0
    1.0241   -3.3466   10.6892 C   0  0  0  0  0  0  0  0  0  0  0  0
    1.0410   -3.4375   11.9348 O   0  0  0  0  0  0  0  0  0  0  0  0
    2.1243   -3.8188    9.8781 C   0  0  0  0  0  0  0  0  0  0  0  0
    3.4103   -4.1206   10.6123 C   0  0  0  0  0  0  0  0  0  0  0  0
    4.3624   -4.2684    9.4173 C   0  0  0  0  0  0  0  0  0  0  0  0
    3.5600   -3.9347    8.1956 C   0  0  0  0  0  0  0  0  0  0  0  0
    2.5242   -3.0317    8.7614 N   0  0  0  0  0  0  0  0  0  0  0  0
    3.2001   -1.5093    9.1137 S   0  0  0  0  0  6  0  0  0  0  0  0
    4.6745   -1.4119    8.8429 O   0  0  0  0  0  0  0  0  0  0  0  0
    2.9908   -1.1753   10.5447 O   0  0  0  0  0  0  0  0  0  0  0  0
    2.4501   -0.2896    8.0860 C   0  0  0  0  0  0  0  0  0  0  0  0
    3.1092    0.2040    6.9895 C   0  0  0  0  0  0  0  0  0  0  0  0
    2.4770    1.1629    6.2117 C   0  0  0  0  0  0  0  0  0  0  0  0
    1.2132    1.6036    6.5423 C   0  0  0  0  0  0  0  0  0  0  0  0
    0.5334    1.1203    7.6403 C   0  0  0  0  0  0  0  0  0  0  0  0
    1.1943    0.1639    8.3947 C   0  0  0  0  0  0  0  0  0  0  0  0
    0.5490    2.5700    5.7776 O   0  0  0  0  0  0  0  0  0  0  0  0
   -0.7926    2.9400    6.0447 C   0  0  0  0  0  0  0  0  0  0  0  0
   -3.4223   -4.3560   13.3594 C   0  0  0  0  0  0  0  0  0  0  0  0
  1  2  1  0
  2  3  2  0
  3  4  1  0
  4  5  2  0
  5  6  1  0
  6  7  2  0
  6  8  1  0
  8  9  1  0
  9 10  2  0
  9 11  1  0
 11 12  1  0
 12 13  1  0
 13 14  1  0
 14 15  1  0
 15 16  1  0
 16 17  2  0
 16 18  2  0
 16 19  1  0
 19 20  2  0
 20 21  1  0
 21 22  2  0
 22 23  1  0
 23 24  2  0
 22 25  1  0
 25 26  1  0
  4 27  1  0
  7  2  1  0
 15 11  1  0
 24 19  1  0
M  END
$$$$
