
     RDKit          3D

 27 29  0  0  0  0  0  0  0  0999 V2000
   -4.6753   -3.0172    9.3063 C   0  0  0  0  0  0  0  0  0  0  0  0
   -3.5262   -2.9364   10.2534 C   0  0  0  0  0  0  0  0  0  0  0  0
   -3.7001   -3.2022   11.6000 C   0  0  0  0  0  0  0  0  0  0  0  0
   -2.6027   -3.1125   12.4306 C   0  0  0  0  0  0  0  0  0  0  0  0
   -1.3573   -2.7681   11.9479 C   0  0  0  0  0  0  0  0  0  0  0  0
   -1.1622   -2.4963   10.5925 C   0  0  0  0  0  0  0  0  0  0  0  0
   -2.2731   -2.5921    9.7809 C   0  0  0  0  0  0  0  0  0  0  0  0
    0.1261   -2.1441   10.1168 N   0  0  0  0  0  0  0  0  0  0  0  0
    1.2601   -2.9839   10.2348 C   0  0  0  0  0  0  0  0  0  0  0  0
    1.5530   -3.4181   11.3687 O   0  0  0  0  0  0  0  0  0  0  0  0
    2.0447   -3.3192    9.0671 C   0  0  0  0  0  0  0  0  0  0  0  0
    3.4855   -3.6984    9.3203 C   0  0  0  0  0  0  0  0  0  0  0  0
    4.0199   -3.6612    7.8817 C   0  0  0  0  0  0  0  0  0  0  0  0
    2.8901   -3.1738    7.0251 C   0  0  0  0  0  0  0  0  0  0  0  0
    2.1030   -2.3768    8.0017 N   0  0  0  0  0  0  0  0  0  0  0  0
    2.8951   -0.9072    8.3357 S   0  0  0  0  0  6  0  0  0  0  0  0
    3.9807   -0.5561    7.3585 O   0  0  0  0  0  0  0  0  0  0  0  0
    3.5131   -0.9540    9.6844 O   0  0  0  0  0  0  0  0  0  0  0  0
    1.7316    0.4134    8.2427 C   0  0  0  0  0  0  0  0  0  0  0  0
    1.2178    0.9758    9.3829 C   0  0  0  0  0  0  0  0  0  0  0  0
    0.3050    2.0128    9.2577 C   0  0  0  0  0  0  0  0  0  0  0  0
   -0.0710    2.4611    8.0093 C   0  0  0  0  0  0  0  0  0  0  0  0
    0.4337    1.9093    6.8508 C   0  0  0  0  0  0  0  0  0  0  0  0
    1.3428    0.8759    7.0127 C   0  0  0  0  0  0  0  0  0  0  0  0
   -0.9896    3.5053    7.8500 O   0  0  0  0  0  0  0  0  0  0  0  0
   -1.9222    3.8397    8.8633 C   0  0  0  0  0  0  0  0  0  0  0  0
   -2.7962   -3.3991   13.8755 C   0  0  0  0  0  0  0  0  0  0  0  0
  1  2  1  0
  2  3  2  0
  3  4  1  0
  4  5  2  0
  5  6  1  0
  6  7  2  0
  6  8  1  0
  8  9  1  0
  9 10  2  0
  9 11  1  0
 11 12  1  0
 12 13  1  0
 13 14  1  0
 14 15  1  0
 15 16  1  0
 16 17  2  0
 16 18  2  0
 16 19  1  0
 19 20  2  0
 20 21  1  0
 21 22  2  0
 22 23  1  0
 23 24  2  0
 22 25  1  0
 25 26  1  0
  4 27  1  0
  7  2  1  0
 15 11  1  0
 24 19  1  0
M  END
$$$$
