
     RDKit          3D

 27 29  0  0  0  0  0  0  0  0999 V2000
    4.2074    0.2984    5.7792 C   0  0  0  0  0  0  0  0  0  0  0  0
    4.2385   -0.8794    6.6933 C   0  0  0  0  0  0  0  0  0  0  0  0
    5.0387   -1.9722    6.4111 C   0  0  0  0  0  0  0  0  0  0  0  0
    5.0286   -3.0340    7.2912 C   0  0  0  0  0  0  0  0  0  0  0  0
    4.2469   -3.0232    8.4277 C   0  0  0  0  0  0  0  0  0  0  0  0
    3.4330   -1.9298    8.7293 C   0  0  0  0  0  0  0  0  0  0  0  0
    3.4591   -0.8798    7.8355 C   0  0  0  0  0  0  0  0  0  0  0  0
    2.6372   -1.9387    9.9026 N   0  0  0  0  0  0  0  0  0  0  0  0
    1.2262   -1.8186    9.8918 C   0  0  0  0  0  0  0  0  0  0  0  0
    0.6840   -1.3669    8.8613 O   0  0  0  0  0  0  0  0  0  0  0  0
    0.4514   -2.2120   11.0477 C   0  0  0  0  0  0  0  0  0  0  0  0
   -1.0286   -2.4146   10.8188 C   0  0  0  0  0  0  0  0  0  0  0  0
   -1.5072   -2.4970   12.2750 C   0  0  0  0  0  0  0  0  0  0  0  0
   -0.3047   -2.2289   13.1294 C   0  0  0  0  0  0  0  0  0  0  0  0
    0.5268   -1.4024   12.2163 N   0  0  0  0  0  0  0  0  0  0  0  0
   -0.1204    0.1673   12.0907 S   0  0  0  0  0  6  0  0  0  0  0  0
    0.8798    1.2168   11.6971 O   0  0  0  0  0  0  0  0  0  0  0  0
   -0.7097    0.5832   13.3880 O   0  0  0  0  0  0  0  0  0  0  0  0
   -1.3489    0.1892   10.8271 C   0  0  0  0  0  0  0  0  0  0  0  0
   -1.0984    0.7830    9.6167 C   0  0  0  0  0  0  0  0  0  0  0  0
   -2.0973    0.7742    8.6543 C   0  0  0  0  0  0  0  0  0  0  0  0
   -3.3123    0.1787    8.9187 C   0  0  0  0  0  0  0  0  0  0  0  0
   -3.5843   -0.4236   10.1289 C   0  0  0  0  0  0  0  0  0  0  0  0
   -2.5645   -0.3964   11.0668 C   0  0  0  0  0  0  0  0  0  0  0  0
   -4.3400    0.1535    7.9684 O   0  0  0  0  0  0  0  0  0  0  0  0
   -5.6993    0.0117    8.3432 C   0  0  0  0  0  0  0  0  0  0  0  0
    5.8901   -4.2043    6.9823 C   0  0  0  0  0  0  0  0  0  0  0  0
  1  2  1  0
  2  3  2  0
  3  4  1  0
  4  5  2  0
  5  6  1  0
  6  7  2  0
  6  8  1  0
  8  9  1  0
  9 10  2  0
  9 11  1  0
 11 12  1  0
 12 13  1  0
 13 14  1  0
 14 15  1  0
 15 16  1  0
 16 17  2  0
 16 18  2  0
 16 19  1  0
 19 20  2  0
 20 21  1  0
 21 22  2  0
 22 23  1  0
 23 24  2  0
 22 25  1  0
 25 26  1  0
  4 27  1  0
  7  2  1  0
 15 11  1  0
 24 19  1  0
M  END
$$$$
