
     RDKit          3D

 27 29  0  0  0  0  0  0  0  0999 V2000
   -3.8186    0.3922    9.3989 C   0  0  0  0  0  0  0  0  0  0  0  0
   -2.5306    0.8602    8.8110 C   0  0  0  0  0  0  0  0  0  0  0  0
   -2.3710    2.1764    8.4155 C   0  0  0  0  0  0  0  0  0  0  0  0
   -1.1585    2.5546    7.8780 C   0  0  0  0  0  0  0  0  0  0  0  0
   -0.1215    1.6569    7.7315 C   0  0  0  0  0  0  0  0  0  0  0  0
   -0.2635    0.3249    8.1246 C   0  0  0  0  0  0  0  0  0  0  0  0
   -1.4840   -0.0307    8.6593 C   0  0  0  0  0  0  0  0  0  0  0  0
    0.8149   -0.5816    7.9653 N   0  0  0  0  0  0  0  0  0  0  0  0
    1.7743   -0.8410    8.9741 C   0  0  0  0  0  0  0  0  0  0  0  0
    1.5116   -0.4790   10.1403 O   0  0  0  0  0  0  0  0  0  0  0  0
    3.0158   -1.5063    8.6467 C   0  0  0  0  0  0  0  0  0  0  0  0
    3.0466   -2.2466    7.3295 C   0  0  0  0  0  0  0  0  0  0  0  0
    4.3502   -3.0375    7.5072 C   0  0  0  0  0  0  0  0  0  0  0  0
    4.8307   -2.7508    8.8981 C   0  0  0  0  0  0  0  0  0  0  0  0
    3.5555   -2.4268    9.5890 N   0  0  0  0  0  0  0  0  0  0  0  0
    2.6554   -3.8467    9.8585 S   0  0  0  0  0  6  0  0  0  0  0  0
    3.2351   -4.7546   10.9055 O   0  0  0  0  0  0  0  0  0  0  0  0
    2.5493   -4.6313    8.6030 O   0  0  0  0  0  0  0  0  0  0  0  0
    1.0508   -3.4140   10.4455 C   0  0  0  0  0  0  0  0  0  0  0  0
    0.8561   -3.0605   11.7560 C   0  0  0  0  0  0  0  0  0  0  0  0
   -0.4254   -2.7282   12.1699 C   0  0  0  0  0  0  0  0  0  0  0  0
   -1.4741   -2.7558   11.2753 C   0  0  0  0  0  0  0  0  0  0  0  0
   -1.2997   -3.1084    9.9537 C   0  0  0  0  0  0  0  0  0  0  0  0
   -0.0072   -3.4342    9.5746 C   0  0  0  0  0  0  0  0  0  0  0  0
   -2.7784   -2.4260   11.6623 O   0  0  0  0  0  0  0  0  0  0  0  0
   -3.8210   -2.2710   10.7151 C   0  0  0  0  0  0  0  0  0  0  0  0
   -0.9937    3.9694    7.4554 C   0  0  0  0  0  0  0  0  0  0  0  0
  1  2  1  0
  2  3  2  0
  3  4  1  0
  4  5  2  0
  5  6  1  0
  6  7  2  0
  6  8  1  0
  8  9  1  0
  9 10  2  0
  9 11  1  0
 11 12  1  0
 12 13  1  0
 13 14  1  0
 14 15  1  0
 15 16  1  0
 16 17  2  0
 16 18  2  0
 16 19  1  0
 19 20  2  0
 20 21  1  0
 21 22  2  0
 22 23  1  0
 23 24  2  0
 22 25  1  0
 25 26  1  0
  4 27  1  0
  7  2  1  0
 15 11  1  0
 24 19  1  0
M  END
$$$$
