
     RDKit          3D

 27 29  0  0  0  0  0  0  0  0999 V2000
   -3.3661    0.5676   10.7720 C   0  0  0  0  0  0  0  0  0  0  0  0
   -2.8230   -0.7726   11.1362 C   0  0  0  0  0  0  0  0  0  0  0  0
   -3.5892   -1.6752   11.8520 C   0  0  0  0  0  0  0  0  0  0  0  0
   -3.0367   -2.9003   12.1616 C   0  0  0  0  0  0  0  0  0  0  0  0
   -1.7550   -3.2333   11.7753 C   0  0  0  0  0  0  0  0  0  0  0  0
   -0.9665   -2.3360   11.0526 C   0  0  0  0  0  0  0  0  0  0  0  0
   -1.5394   -1.1174   10.7544 C   0  0  0  0  0  0  0  0  0  0  0  0
    0.3484   -2.6980   10.6653 N   0  0  0  0  0  0  0  0  0  0  0  0
    1.4479   -1.8065   10.7015 C   0  0  0  0  0  0  0  0  0  0  0  0
    1.2409   -0.6351   11.0825 O   0  0  0  0  0  0  0  0  0  0  0  0
    2.7645   -2.2550   10.3058 C   0  0  0  0  0  0  0  0  0  0  0  0
    3.6989   -1.1909    9.7779 C   0  0  0  0  0  0  0  0  0  0  0  0
    4.8054   -2.0826    9.1973 C   0  0  0  0  0  0  0  0  0  0  0  0
    4.3340   -3.4968    9.3570 C   0  0  0  0  0  0  0  0  0  0  0  0
    2.8589   -3.3165    9.3620 N   0  0  0  0  0  0  0  0  0  0  0  0
    2.3023   -2.9800    7.7885 S   0  0  0  0  0  6  0  0  0  0  0  0
    1.0912   -3.7698    7.3810 O   0  0  0  0  0  0  0  0  0  0  0  0
    3.3693   -3.2641    6.7966 O   0  0  0  0  0  0  0  0  0  0  0  0
    1.8159   -1.2886    7.6944 C   0  0  0  0  0  0  0  0  0  0  0  0
    2.7358   -0.2850    7.8582 C   0  0  0  0  0  0  0  0  0  0  0  0
    2.3040    1.0306    7.7752 C   0  0  0  0  0  0  0  0  0  0  0  0
    0.9763    1.3126    7.5329 C   0  0  0  0  0  0  0  0  0  0  0  0
    0.0357    0.3185    7.3654 C   0  0  0  0  0  0  0  0  0  0  0  0
    0.5015   -0.9837    7.4545 C   0  0  0  0  0  0  0  0  0  0  0  0
    0.5098    2.6295    7.4437 O   0  0  0  0  0  0  0  0  0  0  0  0
   -0.3635    3.0429    6.4069 C   0  0  0  0  0  0  0  0  0  0  0  0
   -3.8648   -3.8649   12.9304 C   0  0  0  0  0  0  0  0  0  0  0  0
  1  2  1  0
  2  3  2  0
  3  4  1  0
  4  5  2  0
  5  6  1  0
  6  7  2  0
  6  8  1  0
  8  9  1  0
  9 10  2  0
  9 11  1  0
 11 12  1  0
 12 13  1  0
 13 14  1  0
 14 15  1  0
 15 16  1  0
 16 17  2  0
 16 18  2  0
 16 19  1  0
 19 20  2  0
 20 21  1  0
 21 22  2  0
 22 23  1  0
 23 24  2  0
 22 25  1  0
 25 26  1  0
  4 27  1  0
  7  2  1  0
 15 11  1  0
 24 19  1  0
M  END
$$$$
