
     RDKit          3D

 27 29  0  0  0  0  0  0  0  0999 V2000
    7.1758   -2.0673    7.6741 C   0  0  0  0  0  0  0  0  0  0  0  0
    5.6954   -1.9577    7.5319 C   0  0  0  0  0  0  0  0  0  0  0  0
    5.1351   -1.3451    6.4251 C   0  0  0  0  0  0  0  0  0  0  0  0
    3.7602   -1.2716    6.3452 C   0  0  0  0  0  0  0  0  0  0  0  0
    2.9501   -1.7902    7.3340 C   0  0  0  0  0  0  0  0  0  0  0  0
    3.4969   -2.4119    8.4580 C   0  0  0  0  0  0  0  0  0  0  0  0
    4.8734   -2.4739    8.5167 C   0  0  0  0  0  0  0  0  0  0  0  0
    2.6465   -2.9383    9.4629 N   0  0  0  0  0  0  0  0  0  0  0  0
    1.6940   -2.1623   10.1670 C   0  0  0  0  0  0  0  0  0  0  0  0
    1.7190   -0.9229   10.0142 O   0  0  0  0  0  0  0  0  0  0  0  0
    0.7283   -2.8016   11.0330 C   0  0  0  0  0  0  0  0  0  0  0  0
   -0.0452   -3.9522   10.4317 C   0  0  0  0  0  0  0  0  0  0  0  0
   -1.1290   -4.1249   11.5050 C   0  0  0  0  0  0  0  0  0  0  0  0
   -0.9192   -3.0206   12.4971 C   0  0  0  0  0  0  0  0  0  0  0  0
   -0.2617   -1.9885   11.6539 N   0  0  0  0  0  0  0  0  0  0  0  0
   -1.4010   -1.2623   10.6179 S   0  0  0  0  0  6  0  0  0  0  0  0
   -2.5531   -2.1524   10.2479 O   0  0  0  0  0  0  0  0  0  0  0  0
   -0.7468   -0.8383    9.3547 O   0  0  0  0  0  0  0  0  0  0  0  0
   -2.1202    0.1273   11.4293 C   0  0  0  0  0  0  0  0  0  0  0  0
   -1.4887    1.3445   11.4262 C   0  0  0  0  0  0  0  0  0  0  0  0
   -2.0949    2.4079   12.0787 C   0  0  0  0  0  0  0  0  0  0  0  0
   -3.3064    2.2345   12.7137 C   0  0  0  0  0  0  0  0  0  0  0  0
   -3.9577    1.0192   12.7285 C   0  0  0  0  0  0  0  0  0  0  0  0
   -3.3240   -0.0208   12.0673 C   0  0  0  0  0  0  0  0  0  0  0  0
   -3.9433    3.2878   13.3806 O   0  0  0  0  0  0  0  0  0  0  0  0
   -4.4722    3.1328   14.6861 C   0  0  0  0  0  0  0  0  0  0  0  0
    3.1649   -0.6125    5.1542 C   0  0  0  0  0  0  0  0  0  0  0  0
  1  2  1  0
  2  3  2  0
  3  4  1  0
  4  5  2  0
  5  6  1  0
  6  7  2  0
  6  8  1  0
  8  9  1  0
  9 10  2  0
  9 11  1  0
 11 12  1  0
 12 13  1  0
 13 14  1  0
 14 15  1  0
 15 16  1  0
 16 17  2  0
 16 18  2  0
 16 19  1  0
 19 20  2  0
 20 21  1  0
 21 22  2  0
 22 23  1  0
 23 24  2  0
 22 25  1  0
 25 26  1  0
  4 27  1  0
  7  2  1  0
 15 11  1  0
 24 19  1  0
M  END
$$$$
