
     RDKit          3D

 27 29  0  0  0  0  0  0  0  0999 V2000
    4.2078   -0.0236    4.6348 C   0  0  0  0  0  0  0  0  0  0  0  0
    3.2812    0.3317    5.7477 C   0  0  0  0  0  0  0  0  0  0  0  0
    2.3661    1.3596    5.6048 C   0  0  0  0  0  0  0  0  0  0  0  0
    1.5334    1.6453    6.6664 C   0  0  0  0  0  0  0  0  0  0  0  0
    1.5979    0.9348    7.8470 C   0  0  0  0  0  0  0  0  0  0  0  0
    2.5145   -0.1055    8.0102 C   0  0  0  0  0  0  0  0  0  0  0  0
    3.3368   -0.3735    6.9359 C   0  0  0  0  0  0  0  0  0  0  0  0
    2.5645   -0.8232    9.2318 N   0  0  0  0  0  0  0  0  0  0  0  0
    2.2610   -2.2020    9.3420 C   0  0  0  0  0  0  0  0  0  0  0  0
    1.9905   -2.8284    8.2958 O   0  0  0  0  0  0  0  0  0  0  0  0
    2.2686   -2.8498   10.6348 C   0  0  0  0  0  0  0  0  0  0  0  0
    2.3814   -4.3569   10.6230 C   0  0  0  0  0  0  0  0  0  0  0  0
    2.0410   -4.6538   12.0901 C   0  0  0  0  0  0  0  0  0  0  0  0
    1.6781   -3.3391   12.7127 C   0  0  0  0  0  0  0  0  0  0  0  0
    1.1969   -2.5768   11.5313 N   0  0  0  0  0  0  0  0  0  0  0  0
   -0.3420   -3.1320   11.0601 S   0  0  0  0  0  6  0  0  0  0  0  0
   -0.9754   -4.0891   12.0293 O   0  0  0  0  0  0  0  0  0  0  0  0
   -0.2576   -3.8223    9.7488 O   0  0  0  0  0  0  0  0  0  0  0  0
   -1.4471   -1.7627   10.9592 C   0  0  0  0  0  0  0  0  0  0  0  0
   -2.2895   -1.4642   11.9992 C   0  0  0  0  0  0  0  0  0  0  0  0
   -3.1408   -0.3764   11.8721 C   0  0  0  0  0  0  0  0  0  0  0  0
   -3.1325    0.3821   10.7208 C   0  0  0  0  0  0  0  0  0  0  0  0
   -2.2935    0.0990    9.6638 C   0  0  0  0  0  0  0  0  0  0  0  0
   -1.4569   -0.9940    9.8246 C   0  0  0  0  0  0  0  0  0  0  0  0
   -3.9792    1.4856   10.5623 O   0  0  0  0  0  0  0  0  0  0  0  0
   -4.8659    1.8989   11.5875 C   0  0  0  0  0  0  0  0  0  0  0  0
    0.5531    2.7501    6.5063 C   0  0  0  0  0  0  0  0  0  0  0  0
  1  2  1  0
  2  3  2  0
  3  4  1  0
  4  5  2  0
  5  6  1  0
  6  7  2  0
  6  8  1  0
  8  9  1  0
  9 10  2  0
  9 11  1  0
 11 12  1  0
 12 13  1  0
 13 14  1  0
 14 15  1  0
 15 16  1  0
 16 17  2  0
 16 18  2  0
 16 19  1  0
 19 20  2  0
 20 21  1  0
 21 22  2  0
 22 23  1  0
 23 24  2  0
 22 25  1  0
 25 26  1  0
  4 27  1  0
  7  2  1  0
 15 11  1  0
 24 19  1  0
M  END
$$$$
