
     RDKit          3D

 27 29  0  0  0  0  0  0  0  0999 V2000
   -1.7641    1.5964   16.8321 C   0  0  0  0  0  0  0  0  0  0  0  0
   -0.7730    0.5512   16.4461 C   0  0  0  0  0  0  0  0  0  0  0  0
    0.3203    0.2825   17.2502 C   0  0  0  0  0  0  0  0  0  0  0  0
    1.2052   -0.6945   16.8446 C   0  0  0  0  0  0  0  0  0  0  0  0
    1.0201   -1.3950   15.6708 C   0  0  0  0  0  0  0  0  0  0  0  0
   -0.0769   -1.1381   14.8463 C   0  0  0  0  0  0  0  0  0  0  0  0
   -0.9483   -0.1574   15.2716 C   0  0  0  0  0  0  0  0  0  0  0  0
   -0.2486   -1.8694   13.6440 N   0  0  0  0  0  0  0  0  0  0  0  0
    0.5195   -1.6454   12.4756 C   0  0  0  0  0  0  0  0  0  0  0  0
    1.5070   -0.8853   12.5598 O   0  0  0  0  0  0  0  0  0  0  0  0
    0.1575   -2.2856   11.2305 C   0  0  0  0  0  0  0  0  0  0  0  0
    1.2354   -2.3397   10.1725 C   0  0  0  0  0  0  0  0  0  0  0  0
    0.3925   -2.7754    8.9658 C   0  0  0  0  0  0  0  0  0  0  0  0
   -1.0309   -2.8073    9.4357 C   0  0  0  0  0  0  0  0  0  0  0  0
   -0.9975   -1.8167   10.5430 N   0  0  0  0  0  0  0  0  0  0  0  0
   -0.9135   -0.2361    9.9158 S   0  0  0  0  0  6  0  0  0  0  0  0
   -0.6449    0.8227   10.9469 O   0  0  0  0  0  0  0  0  0  0  0  0
   -2.1889    0.1158    9.2429 O   0  0  0  0  0  0  0  0  0  0  0  0
    0.4265   -0.1348    8.7755 C   0  0  0  0  0  0  0  0  0  0  0  0
    0.1938    0.0168    7.4326 C   0  0  0  0  0  0  0  0  0  0  0  0
    1.2816    0.0916    6.5752 C   0  0  0  0  0  0  0  0  0  0  0  0
    2.5653    0.0143    7.0723 C   0  0  0  0  0  0  0  0  0  0  0  0
    2.8209   -0.1380    8.4187 C   0  0  0  0  0  0  0  0  0  0  0  0
    1.7115   -0.2092    9.2461 C   0  0  0  0  0  0  0  0  0  0  0  0
    3.6833    0.0866    6.2330 O   0  0  0  0  0  0  0  0  0  0  0  0
    4.8614    0.7742    6.6172 C   0  0  0  0  0  0  0  0  0  0  0  0
    2.3771   -0.9781   17.7126 C   0  0  0  0  0  0  0  0  0  0  0  0
  1  2  1  0
  2  3  2  0
  3  4  1  0
  4  5  2  0
  5  6  1  0
  6  7  2  0
  6  8  1  0
  8  9  1  0
  9 10  2  0
  9 11  1  0
 11 12  1  0
 12 13  1  0
 13 14  1  0
 14 15  1  0
 15 16  1  0
 16 17  2  0
 16 18  2  0
 16 19  1  0
 19 20  2  0
 20 21  1  0
 21 22  2  0
 22 23  1  0
 23 24  2  0
 22 25  1  0
 25 26  1  0
  4 27  1  0
  7  2  1  0
 15 11  1  0
 24 19  1  0
M  END
$$$$
