
     RDKit          3D

 27 29  0  0  0  0  0  0  0  0999 V2000
   -3.5853   -0.6081    9.5473 C   0  0  0  0  0  0  0  0  0  0  0  0
   -2.8258   -1.5867   10.3773 C   0  0  0  0  0  0  0  0  0  0  0  0
   -3.4574   -2.3081   11.3747 C   0  0  0  0  0  0  0  0  0  0  0  0
   -2.7064   -3.1996   12.1118 C   0  0  0  0  0  0  0  0  0  0  0  0
   -1.3596   -3.3798   11.8738 C   0  0  0  0  0  0  0  0  0  0  0  0
   -0.7048   -2.6612   10.8718 C   0  0  0  0  0  0  0  0  0  0  0  0
   -1.4753   -1.7757   10.1478 C   0  0  0  0  0  0  0  0  0  0  0  0
    0.6801   -2.8614   10.6435 N   0  0  0  0  0  0  0  0  0  0  0  0
    1.3013   -2.6690    9.3856 C   0  0  0  0  0  0  0  0  0  0  0  0
    0.6550   -2.0751    8.4970 O   0  0  0  0  0  0  0  0  0  0  0  0
    2.6445   -3.1520    9.1536 C   0  0  0  0  0  0  0  0  0  0  0  0
    3.6671   -2.8079   10.2117 C   0  0  0  0  0  0  0  0  0  0  0  0
    4.9517   -3.1980    9.4672 C   0  0  0  0  0  0  0  0  0  0  0  0
    4.5323   -3.5971    8.0842 C   0  0  0  0  0  0  0  0  0  0  0  0
    3.2762   -2.8198    7.9218 N   0  0  0  0  0  0  0  0  0  0  0  0
    3.6312   -1.1731    7.6750 S   0  0  0  0  0  6  0  0  0  0  0  0
    3.9940   -0.8262    6.2591 O   0  0  0  0  0  0  0  0  0  0  0  0
    4.7675   -0.7600    8.5360 O   0  0  0  0  0  0  0  0  0  0  0  0
    2.2027   -0.2096    8.0455 C   0  0  0  0  0  0  0  0  0  0  0  0
    2.1088    0.4780    9.2282 C   0  0  0  0  0  0  0  0  0  0  0  0
    0.9644    1.2223    9.4737 C   0  0  0  0  0  0  0  0  0  0  0  0
   -0.0513    1.2635    8.5423 C   0  0  0  0  0  0  0  0  0  0  0  0
    0.0232    0.5796    7.3473 C   0  0  0  0  0  0  0  0  0  0  0  0
    1.1800   -0.1534    7.1349 C   0  0  0  0  0  0  0  0  0  0  0  0
   -1.2183    2.0052    8.7607 O   0  0  0  0  0  0  0  0  0  0  0  0
   -2.1835    2.1950    7.7406 C   0  0  0  0  0  0  0  0  0  0  0  0
   -3.3907   -3.9710   13.1813 C   0  0  0  0  0  0  0  0  0  0  0  0
  1  2  1  0
  2  3  2  0
  3  4  1  0
  4  5  2  0
  5  6  1  0
  6  7  2  0
  6  8  1  0
  8  9  1  0
  9 10  2  0
  9 11  1  0
 11 12  1  0
 12 13  1  0
 13 14  1  0
 14 15  1  0
 15 16  1  0
 16 17  2  0
 16 18  2  0
 16 19  1  0
 19 20  2  0
 20 21  1  0
 21 22  2  0
 22 23  1  0
 23 24  2  0
 22 25  1  0
 25 26  1  0
  4 27  1  0
  7  2  1  0
 15 11  1  0
 24 19  1  0
M  END
$$$$
