
     RDKit          3D

 24 25  0  0  0  0  0  0  0  0999 V2000
    6.7513    7.0507   10.2103 C   0  0  0  0  0  0  0  0  0  0  0  0
    5.4127    6.3417   10.3189 C   0  0  0  0  0  0  0  0  0  0  0  0
    4.8209    6.1528    9.0488 O   0  0  0  0  0  0  0  0  0  0  0  0
    3.6936    5.3585    8.9571 C   0  0  0  0  0  0  0  0  0  0  0  0
    3.1349    4.9908   10.0159 O   0  0  0  0  0  0  0  0  0  0  0  0
    3.1436    4.9419    7.6745 C   0  0  0  0  0  0  0  0  0  0  0  0
    3.4057    5.4734    6.5071 O   0  0  0  0  0  0  0  0  0  0  0  0
    2.7345    4.8533    5.5382 C   0  0  0  0  0  0  0  0  0  0  0  0
    1.9818    3.8511    6.0897 C   0  0  0  0  0  0  0  0  0  0  0  0
    2.2370    3.9028    7.4413 C   0  0  0  0  0  0  0  0  0  0  0  0
    1.6977    3.0567    8.5218 C   0  0  0  0  0  0  0  0  0  0  0  0
    1.1516    3.0022    5.3281 C   0  0  0  0  0  0  0  0  0  0  0  0
    0.4443    2.0327    5.9781 O   0  0  0  0  0  0  0  0  0  0  0  0
   -0.7554    1.4310    5.7878 C   0  0  0  0  0  0  0  0  0  0  0  0
   -1.0536    0.1798    6.5790 C   0  0  2  0  0  0  0  0  0  0  0  0
   -0.7946    0.3847    8.0497 C   0  0  0  0  0  0  0  0  0  0  0  0
   -1.4193   -0.5415    8.9229 N   0  0  0  0  0  4  0  0  0  0  0  0
   -1.1985   -0.3845   10.3205 C   0  0  0  0  0  0  0  0  0  0  0  0
   -0.3046   -1.5388   10.8064 C   0  0  0  0  0  0  0  0  0  0  0  0
   -2.5057   -0.5289   11.1047 C   0  0  0  0  0  0  0  0  0  0  0  0
   -0.1649   -0.7934    6.0564 O   0  0  0  0  0  0  0  0  0  0  0  0
    1.1196    3.2179    3.9661 C   0  0  0  0  0  0  0  0  0  0  0  0
    1.8796    4.2357    3.3806 C   0  0  0  0  0  0  0  0  0  0  0  0
    2.6675    5.0287    4.1738 C   0  0  0  0  0  0  0  0  0  0  0  0
  1  2  1  0
  2  3  1  0
  3  4  1  0
  4  5  2  0
  4  6  1  0
  6  7  1  0
  7  8  1  0
  8  9  2  0
  9 10  1  0
 10 11  1  0
  9 12  1  0
 12 13  1  0
 13 14  1  0
 14 15  1  0
 15 16  1  0
 16 17  1  0
 17 18  1  0
 18 19  1  0
 18 20  1  0
 15 21  1  6
 12 22  2  0
 22 23  1  0
 23 24  2  0
 10  6  2  0
 24  8  1  0
M  CHG  1  17   1
M  END
$$$$
