
     RDKit          3D

 24 25  0  0  0  0  0  0  0  0999 V2000
    0.6173    6.2769   12.2438 C   0  0  0  0  0  0  0  0  0  0  0  0
    1.4940    6.9850   11.2257 C   0  0  0  0  0  0  0  0  0  0  0  0
    1.6155    6.2341   10.0339 O   0  0  0  0  0  0  0  0  0  0  0  0
    2.3424    6.7694    8.9874 C   0  0  0  0  0  0  0  0  0  0  0  0
    2.8966    7.8802    9.1525 O   0  0  0  0  0  0  0  0  0  0  0  0
    2.4796    6.0827    7.7104 C   0  0  0  0  0  0  0  0  0  0  0  0
    3.1365    6.5137    6.6630 O   0  0  0  0  0  0  0  0  0  0  0  0
    3.0618    5.6409    5.6598 C   0  0  0  0  0  0  0  0  0  0  0  0
    2.3129    4.5665    6.0598 C   0  0  0  0  0  0  0  0  0  0  0  0
    1.9420    4.8410    7.3566 C   0  0  0  0  0  0  0  0  0  0  0  0
    1.1272    4.0315    8.2813 C   0  0  0  0  0  0  0  0  0  0  0  0
    2.0431    3.4614    5.2257 C   0  0  0  0  0  0  0  0  0  0  0  0
    1.2864    2.4411    5.7249 O   0  0  0  0  0  0  0  0  0  0  0  0
    1.1772    1.1145    5.4687 C   0  0  0  0  0  0  0  0  0  0  0  0
    0.0068    0.3715    6.0675 C   0  0  2  0  0  0  0  0  0  0  0  0
    0.0659    0.3754    7.5737 C   0  0  0  0  0  0  0  0  0  0  0  0
   -0.3661   -0.8144    8.2129 N   0  0  0  0  0  4  0  0  0  0  0  0
   -0.4240   -0.8169    9.6352 C   0  0  0  0  0  0  0  0  0  0  0  0
    0.9992   -1.0254   10.1817 C   0  0  0  0  0  0  0  0  0  0  0  0
   -1.2332   -2.0096   10.1519 C   0  0  0  0  0  0  0  0  0  0  0  0
    0.1350   -0.9522    5.5760 O   0  0  0  0  0  0  0  0  0  0  0  0
    2.5740    3.4954    3.9530 C   0  0  0  0  0  0  0  0  0  0  0  0
    3.3417    4.5824    3.5223 C   0  0  0  0  0  0  0  0  0  0  0  0
    3.5691    5.6276    4.3794 C   0  0  0  0  0  0  0  0  0  0  0  0
  1  2  1  0
  2  3  1  0
  3  4  1  0
  4  5  2  0
  4  6  1  0
  6  7  1  0
  7  8  1  0
  8  9  2  0
  9 10  1  0
 10 11  1  0
  9 12  1  0
 12 13  1  0
 13 14  1  0
 14 15  1  0
 15 16  1  0
 16 17  1  0
 17 18  1  0
 18 19  1  0
 18 20  1  0
 15 21  1  6
 12 22  2  0
 22 23  1  0
 23 24  2  0
 10  6  2  0
 24  8  1  0
M  CHG  1  17   1
M  END
$$$$
