
     RDKit          3D

 24 25  0  0  0  0  0  0  0  0999 V2000
    2.0247    9.7225   10.8784 C   0  0  0  0  0  0  0  0  0  0  0  0
    1.6255    8.2606   10.7787 C   0  0  0  0  0  0  0  0  0  0  0  0
    1.9532    7.7183    9.5147 O   0  0  0  0  0  0  0  0  0  0  0  0
    1.4223    6.4910    9.1651 C   0  0  0  0  0  0  0  0  0  0  0  0
    0.6916    5.8994    9.9923 O   0  0  0  0  0  0  0  0  0  0  0  0
    1.6875    5.8738    7.8729 C   0  0  0  0  0  0  0  0  0  0  0  0
    2.3988    6.3840    6.8994 O   0  0  0  0  0  0  0  0  0  0  0  0
    2.4416    5.5582    5.8553 C   0  0  0  0  0  0  0  0  0  0  0  0
    1.7181    4.4332    6.1481 C   0  0  0  0  0  0  0  0  0  0  0  0
    1.2387    4.6277    7.4237 C   0  0  0  0  0  0  0  0  0  0  0  0
    0.3975    3.7386    8.2459 C   0  0  0  0  0  0  0  0  0  0  0  0
    1.5653    3.3586    5.2471 C   0  0  0  0  0  0  0  0  0  0  0  0
    0.8239    2.2824    5.6406 O   0  0  0  0  0  0  0  0  0  0  0  0
    0.6270    1.0285    5.1647 C   0  0  0  0  0  0  0  0  0  0  0  0
   -0.3665    0.1464    5.8825 C   0  0  2  0  0  0  0  0  0  0  0  0
    0.0521   -0.1058    7.3084 C   0  0  0  0  0  0  0  0  0  0  0  0
   -0.5137   -1.2498    7.9263 N   0  0  0  0  0  4  0  0  0  0  0  0
   -0.3091   -1.4144    9.3254 C   0  0  0  0  0  0  0  0  0  0  0  0
    1.2003   -1.5633    9.5842 C   0  0  0  0  0  0  0  0  0  0  0  0
   -0.9346   -2.7201    9.8240 C   0  0  0  0  0  0  0  0  0  0  0  0
   -0.3619   -1.0670    5.1491 O   0  0  0  0  0  0  0  0  0  0  0  0
    2.1872    3.4781    4.0217 C   0  0  0  0  0  0  0  0  0  0  0  0
    2.9312    4.6180    3.7003 C   0  0  0  0  0  0  0  0  0  0  0  0
    3.0430    5.6298    4.6183 C   0  0  0  0  0  0  0  0  0  0  0  0
  1  2  1  0
  2  3  1  0
  3  4  1  0
  4  5  2  0
  4  6  1  0
  6  7  1  0
  7  8  1  0
  8  9  2  0
  9 10  1  0
 10 11  1  0
  9 12  1  0
 12 13  1  0
 13 14  1  0
 14 15  1  0
 15 16  1  0
 16 17  1  0
 17 18  1  0
 18 19  1  0
 18 20  1  0
 15 21  1  6
 12 22  2  0
 22 23  1  0
 23 24  2  0
 10  6  2  0
 24  8  1  0
M  CHG  1  17   1
M  END
$$$$
