
     RDKit          3D

 24 25  0  0  0  0  0  0  0  0999 V2000
    4.0705    6.2844    4.2358 C   0  0  0  0  0  0  0  0  0  0  0  0
    3.6994    7.0545    5.4910 C   0  0  0  0  0  0  0  0  0  0  0  0
    2.7558    6.3490    6.2727 O   0  0  0  0  0  0  0  0  0  0  0  0
    2.3593    6.8934    7.4797 C   0  0  0  0  0  0  0  0  0  0  0  0
    2.6491    8.0879    7.7195 O   0  0  0  0  0  0  0  0  0  0  0  0
    1.6206    6.1224    8.4700 C   0  0  0  0  0  0  0  0  0  0  0  0
    1.2950    6.5153    9.6758 O   0  0  0  0  0  0  0  0  0  0  0  0
    0.6208    5.5657   10.3219 C   0  0  0  0  0  0  0  0  0  0  0  0
    0.4886    4.4774    9.5015 C   0  0  0  0  0  0  0  0  0  0  0  0
    1.1195    4.8244    8.3284 C   0  0  0  0  0  0  0  0  0  0  0  0
    1.2860    4.0349    7.0942 C   0  0  0  0  0  0  0  0  0  0  0  0
   -0.1790    3.2966    9.8887 C   0  0  0  0  0  0  0  0  0  0  0  0
   -0.2554    2.2706    8.9919 O   0  0  0  0  0  0  0  0  0  0  0  0
   -0.5090    0.9416    9.0751 C   0  0  0  0  0  0  0  0  0  0  0  0
   -0.6038    0.1567    7.7885 C   0  0  2  0  0  0  0  0  0  0  0  0
    0.2469    0.7707    6.7062 C   0  0  0  0  0  0  0  0  0  0  0  0
    0.7242   -0.1220    5.7132 N   0  0  0  0  0  4  0  0  0  0  0  0
    1.3499    0.4403    4.5648 C   0  0  0  0  0  0  0  0  0  0  0  0
    0.4048    0.2727    3.3623 C   0  0  0  0  0  0  0  0  0  0  0  0
    2.6172   -0.3344    4.1928 C   0  0  0  0  0  0  0  0  0  0  0  0
   -1.9740    0.2223    7.4304 O   0  0  0  0  0  0  0  0  0  0  0  0
   -0.7132    3.2697   11.1601 C   0  0  0  0  0  0  0  0  0  0  0  0
   -0.5903    4.3692   12.0158 C   0  0  0  0  0  0  0  0  0  0  0  0
    0.0705    5.4891   11.5822 C   0  0  0  0  0  0  0  0  0  0  0  0
  1  2  1  0
  2  3  1  0
  3  4  1  0
  4  5  2  0
  4  6  1  0
  6  7  1  0
  7  8  1  0
  8  9  2  0
  9 10  1  0
 10 11  1  0
  9 12  1  0
 12 13  1  0
 13 14  1  0
 14 15  1  0
 15 16  1  0
 16 17  1  0
 17 18  1  0
 18 19  1  0
 18 20  1  0
 15 21  1  6
 12 22  2  0
 22 23  1  0
 23 24  2  0
 10  6  2  0
 24  8  1  0
M  CHG  1  17   1
M  END
$$$$
