
     RDKit          3D

 24 25  0  0  0  0  0  0  0  0999 V2000
    3.6416   10.0592    9.9287 C   0  0  0  0  0  0  0  0  0  0  0  0
    2.4789    9.0822    9.9367 C   0  0  0  0  0  0  0  0  0  0  0  0
    2.5492    8.1829    8.8478 O   0  0  0  0  0  0  0  0  0  0  0  0
    2.1062    6.8868    9.0322 C   0  0  0  0  0  0  0  0  0  0  0  0
    1.6539    6.5648   10.1547 O   0  0  0  0  0  0  0  0  0  0  0  0
    2.1512    5.8954    7.9664 C   0  0  0  0  0  0  0  0  0  0  0  0
    2.5336    6.0995    6.7309 O   0  0  0  0  0  0  0  0  0  0  0  0
    2.4530    4.9796    6.0147 C   0  0  0  0  0  0  0  0  0  0  0  0
    1.9907    3.9707    6.8169 C   0  0  0  0  0  0  0  0  0  0  0  0
    1.7981    4.5449    8.0530 C   0  0  0  0  0  0  0  0  0  0  0  0
    1.3113    3.9257    9.2995 C   0  0  0  0  0  0  0  0  0  0  0  0
    1.7919    2.6513    6.3592 C   0  0  0  0  0  0  0  0  0  0  0  0
    1.3288    1.7206    7.2435 O   0  0  0  0  0  0  0  0  0  0  0  0
    1.5830    0.4097    7.4763 C   0  0  0  0  0  0  0  0  0  0  0  0
    0.8555   -0.2612    8.6170 C   0  0  2  0  0  0  0  0  0  0  0  0
   -0.2661   -1.1345    8.1157 C   0  0  0  0  0  0  0  0  0  0  0  0
   -0.7799   -2.0753    9.0438 N   0  0  0  0  0  4  0  0  0  0  0  0
   -1.7652   -2.9917    8.5791 C   0  0  0  0  0  0  0  0  0  0  0  0
   -3.1374   -2.5462    9.1138 C   0  0  0  0  0  0  0  0  0  0  0  0
   -1.5383   -4.3884    9.1640 C   0  0  0  0  0  0  0  0  0  0  0  0
    0.3354    0.8093    9.3876 O   0  0  0  0  0  0  0  0  0  0  0  0
    2.0872    2.3985    5.0358 C   0  0  0  0  0  0  0  0  0  0  0  0
    2.5602    3.4132    4.1973 C   0  0  0  0  0  0  0  0  0  0  0  0
    2.7328    4.6764    4.7006 C   0  0  0  0  0  0  0  0  0  0  0  0
  1  2  1  0
  2  3  1  0
  3  4  1  0
  4  5  2  0
  4  6  1  0
  6  7  1  0
  7  8  1  0
  8  9  2  0
  9 10  1  0
 10 11  1  0
  9 12  1  0
 12 13  1  0
 13 14  1  0
 14 15  1  0
 15 16  1  0
 16 17  1  0
 17 18  1  0
 18 19  1  0
 18 20  1  0
 15 21  1  1
 12 22  2  0
 22 23  1  0
 23 24  2  0
 10  6  2  0
 24  8  1  0
M  CHG  1  17   1
M  END
$$$$
