
     RDKit          3D

 24 25  0  0  0  0  0  0  0  0999 V2000
    4.9139    8.5390   10.8688 C   0  0  0  0  0  0  0  0  0  0  0  0
    3.8150    7.4959   10.7650 C   0  0  0  0  0  0  0  0  0  0  0  0
    3.7182    6.9727    9.4550 O   0  0  0  0  0  0  0  0  0  0  0  0
    2.7462    6.0259    9.1922 C   0  0  0  0  0  0  0  0  0  0  0  0
    1.9808    5.6826   10.1220 O   0  0  0  0  0  0  0  0  0  0  0  0
    2.5902    5.4228    7.8758 C   0  0  0  0  0  0  0  0  0  0  0  0
    3.0266    5.9096    6.7415 O   0  0  0  0  0  0  0  0  0  0  0  0
    2.7148    5.1068    5.7256 C   0  0  0  0  0  0  0  0  0  0  0  0
    2.0317    4.0228    6.2087 C   0  0  0  0  0  0  0  0  0  0  0  0
    1.9501    4.2179    7.5688 C   0  0  0  0  0  0  0  0  0  0  0  0
    1.3211    3.3646    8.5938 C   0  0  0  0  0  0  0  0  0  0  0  0
    1.5571    2.9808    5.3849 C   0  0  0  0  0  0  0  0  0  0  0  0
    0.8888    1.9444    5.9698 O   0  0  0  0  0  0  0  0  0  0  0  0
    0.0292    0.9909    5.5348 C   0  0  0  0  0  0  0  0  0  0  0  0
   -0.2923   -0.1520    6.4681 C   0  0  2  0  0  0  0  0  0  0  0  0
   -0.3959    0.3176    7.8967 C   0  0  0  0  0  0  0  0  0  0  0  0
   -0.9718   -0.6017    8.8099 N   0  0  0  0  0  4  0  0  0  0  0  0
   -1.0487   -0.2142   10.1775 C   0  0  0  0  0  0  0  0  0  0  0  0
   -0.1627   -1.1623   11.0044 C   0  0  0  0  0  0  0  0  0  0  0  0
   -2.4655   -0.4054   10.7257 C   0  0  0  0  0  0  0  0  0  0  0  0
    0.7977   -1.0473    6.3248 O   0  0  0  0  0  0  0  0  0  0  0  0
    1.8102    3.0889    4.0333 C   0  0  0  0  0  0  0  0  0  0  0  0
    2.5057    4.1871    3.5169 C   0  0  0  0  0  0  0  0  0  0  0  0
    2.9417    5.1686    4.3685 C   0  0  0  0  0  0  0  0  0  0  0  0
  1  2  1  0
  2  3  1  0
  3  4  1  0
  4  5  2  0
  4  6  1  0
  6  7  1  0
  7  8  1  0
  8  9  2  0
  9 10  1  0
 10 11  1  0
  9 12  1  0
 12 13  1  0
 13 14  1  0
 14 15  1  0
 15 16  1  0
 16 17  1  0
 17 18  1  0
 18 19  1  0
 18 20  1  0
 15 21  1  1
 12 22  2  0
 22 23  1  0
 23 24  2  0
 10  6  2  0
 24  8  1  0
M  CHG  1  17   1
M  END
$$$$
