
     RDKit          3D

 24 25  0  0  0  0  0  0  0  0999 V2000
    4.1229    8.6609   10.9342 C   0  0  0  0  0  0  0  0  0  0  0  0
    3.1171    7.5426   10.7240 C   0  0  0  0  0  0  0  0  0  0  0  0
    3.1803    7.0283    9.4084 O   0  0  0  0  0  0  0  0  0  0  0  0
    2.3347    5.9909    9.0637 C   0  0  0  0  0  0  0  0  0  0  0  0
    1.5221    5.5735    9.9204 O   0  0  0  0  0  0  0  0  0  0  0  0
    2.3632    5.3763    7.7437 C   0  0  0  0  0  0  0  0  0  0  0  0
    2.9737    5.8413    6.6830 O   0  0  0  0  0  0  0  0  0  0  0  0
    2.7993    5.0335    5.6386 C   0  0  0  0  0  0  0  0  0  0  0  0
    2.0288    3.9689    6.0235 C   0  0  0  0  0  0  0  0  0  0  0  0
    1.7501    4.1809    7.3547 C   0  0  0  0  0  0  0  0  0  0  0  0
    0.9576    3.3520    8.2816 C   0  0  0  0  0  0  0  0  0  0  0  0
    1.6597    2.9274    5.1467 C   0  0  0  0  0  0  0  0  0  0  0  0
    0.8899    1.9112    5.6341 O   0  0  0  0  0  0  0  0  0  0  0  0
   -0.0280    1.0656    5.1052 C   0  0  0  0  0  0  0  0  0  0  0  0
   -0.2930   -0.2338    5.8276 C   0  0  2  0  0  0  0  0  0  0  0  0
   -0.1617   -0.0696    7.3202 C   0  0  0  0  0  0  0  0  0  0  0  0
   -0.8890   -0.9951    8.1108 N   0  0  0  0  0  4  0  0  0  0  0  0
   -0.6437   -1.0024    9.5130 C   0  0  0  0  0  0  0  0  0  0  0  0
   -1.2780   -2.2693   10.1133 C   0  0  0  0  0  0  0  0  0  0  0  0
   -1.3505    0.1679   10.2023 C   0  0  0  0  0  0  0  0  0  0  0  0
    0.7015   -1.1208    5.3433 O   0  0  0  0  0  0  0  0  0  0  0  0
    2.1133    3.0152    3.8470 C   0  0  0  0  0  0  0  0  0  0  0  0
    2.9012    4.0934    3.4310 C   0  0  0  0  0  0  0  0  0  0  0  0
    3.2267    5.0756    4.3300 C   0  0  0  0  0  0  0  0  0  0  0  0
  1  2  1  0
  2  3  1  0
  3  4  1  0
  4  5  2  0
  4  6  1  0
  6  7  1  0
  7  8  1  0
  8  9  2  0
  9 10  1  0
 10 11  1  0
  9 12  1  0
 12 13  1  0
 13 14  1  0
 14 15  1  0
 15 16  1  0
 16 17  1  0
 17 18  1  0
 18 19  1  0
 18 20  1  0
 15 21  1  6
 12 22  2  0
 22 23  1  0
 23 24  2  0
 10  6  2  0
 24  8  1  0
M  CHG  1  17   1
M  END
$$$$
