
     RDKit          3D

 24 25  0  0  0  0  0  0  0  0999 V2000
    2.8744    9.3580   10.8629 C   0  0  0  0  0  0  0  0  0  0  0  0
    2.0649    8.0930   10.6366 C   0  0  0  0  0  0  0  0  0  0  0  0
    2.4729    7.4189    9.4626 O   0  0  0  0  0  0  0  0  0  0  0  0
    1.7882    6.2798    9.0835 C   0  0  0  0  0  0  0  0  0  0  0  0
    0.9858    5.7673    9.8970 O   0  0  0  0  0  0  0  0  0  0  0  0
    1.9733    5.6657    7.7760 C   0  0  0  0  0  0  0  0  0  0  0  0
    2.6518    6.1632    6.7728 O   0  0  0  0  0  0  0  0  0  0  0  0
    2.6206    5.3450    5.7224 C   0  0  0  0  0  0  0  0  0  0  0  0
    1.8795    4.2388    6.0420 C   0  0  0  0  0  0  0  0  0  0  0  0
    1.4676    4.4367    7.3404 C   0  0  0  0  0  0  0  0  0  0  0  0
    0.6412    3.5654    8.1961 C   0  0  0  0  0  0  0  0  0  0  0  0
    1.6526    3.1765    5.1422 C   0  0  0  0  0  0  0  0  0  0  0  0
    0.9000    2.1187    5.5635 O   0  0  0  0  0  0  0  0  0  0  0  0
    0.5086    0.9422    5.0158 C   0  0  0  0  0  0  0  0  0  0  0  0
   -0.3978    0.0492    5.8291 C   0  0  2  0  0  0  0  0  0  0  0  0
    0.1832   -0.2288    7.1919 C   0  0  0  0  0  0  0  0  0  0  0  0
   -0.2313   -1.4377    7.8064 N   0  0  0  0  0  4  0  0  0  0  0  0
    0.3056   -1.7452    9.0884 C   0  0  0  0  0  0  0  0  0  0  0  0
   -0.2488   -3.1091    9.5358 C   0  0  0  0  0  0  0  0  0  0  0  0
   -0.1798   -0.7469   10.1431 C   0  0  0  0  0  0  0  0  0  0  0  0
   -0.4829   -1.1511    5.0791 O   0  0  0  0  0  0  0  0  0  0  0  0
    2.2185    3.2879    3.8892 C   0  0  0  0  0  0  0  0  0  0  0  0
    2.9790    4.4087    3.5401 C   0  0  0  0  0  0  0  0  0  0  0  0
    3.1639    5.4093    4.4584 C   0  0  0  0  0  0  0  0  0  0  0  0
  1  2  1  0
  2  3  1  0
  3  4  1  0
  4  5  2  0
  4  6  1  0
  6  7  1  0
  7  8  1  0
  8  9  2  0
  9 10  1  0
 10 11  1  0
  9 12  1  0
 12 13  1  0
 13 14  1  0
 14 15  1  0
 15 16  1  0
 16 17  1  0
 17 18  1  0
 18 19  1  0
 18 20  1  0
 15 21  1  6
 12 22  2  0
 22 23  1  0
 23 24  2  0
 10  6  2  0
 24  8  1  0
M  CHG  1  17   1
M  END
$$$$
