
     RDKit          3D

 24 25  0  0  0  0  0  0  0  0999 V2000
    4.0926    8.8373   10.9127 C   0  0  0  0  0  0  0  0  0  0  0  0
    2.9645    7.8322   10.7587 C   0  0  0  0  0  0  0  0  0  0  0  0
    2.8063    7.4319    9.4119 O   0  0  0  0  0  0  0  0  0  0  0  0
    2.0525    6.3054    9.1420 C   0  0  0  0  0  0  0  0  0  0  0  0
    1.3220    5.8448   10.0490 O   0  0  0  0  0  0  0  0  0  0  0  0
    2.0849    5.6462    7.8438 C   0  0  0  0  0  0  0  0  0  0  0  0
    2.6490    6.1030    6.7542 O   0  0  0  0  0  0  0  0  0  0  0  0
    2.4942    5.2508    5.7426 C   0  0  0  0  0  0  0  0  0  0  0  0
    1.7867    4.1635    6.1813 C   0  0  0  0  0  0  0  0  0  0  0  0
    1.5252    4.4087    7.5102 C   0  0  0  0  0  0  0  0  0  0  0  0
    0.7951    3.5749    8.4828 C   0  0  0  0  0  0  0  0  0  0  0  0
    1.4529    3.0742    5.3495 C   0  0  0  0  0  0  0  0  0  0  0  0
    0.7457    2.0389    5.8889 O   0  0  0  0  0  0  0  0  0  0  0  0
   -0.0010    1.0244    5.3882 C   0  0  0  0  0  0  0  0  0  0  0  0
   -0.1103   -0.2430    6.2018 C   0  0  2  0  0  0  0  0  0  0  0  0
   -0.3116    0.0587    7.6649 C   0  0  0  0  0  0  0  0  0  0  0  0
   -0.9854   -0.9381    8.4153 N   0  0  0  0  0  4  0  0  0  0  0  0
   -1.2856   -0.6503    9.7767 C   0  0  0  0  0  0  0  0  0  0  0  0
    0.0089   -0.7743   10.5992 C   0  0  0  0  0  0  0  0  0  0  0  0
   -2.2382   -1.6955   10.3638 C   0  0  0  0  0  0  0  0  0  0  0  0
    1.1292   -0.9024    6.0040 O   0  0  0  0  0  0  0  0  0  0  0  0
    1.8744    3.1381    4.0377 C   0  0  0  0  0  0  0  0  0  0  0  0
    2.5979    4.2387    3.5671 C   0  0  0  0  0  0  0  0  0  0  0  0
    2.8918    5.2674    4.4240 C   0  0  0  0  0  0  0  0  0  0  0  0
  1  2  1  0
  2  3  1  0
  3  4  1  0
  4  5  2  0
  4  6  1  0
  6  7  1  0
  7  8  1  0
  8  9  2  0
  9 10  1  0
 10 11  1  0
  9 12  1  0
 12 13  1  0
 13 14  1  0
 14 15  1  0
 15 16  1  0
 16 17  1  0
 17 18  1  0
 18 19  1  0
 18 20  1  0
 15 21  1  1
 12 22  2  0
 22 23  1  0
 23 24  2  0
 10  6  2  0
 24  8  1  0
M  CHG  1  17   1
M  END
$$$$
