
     RDKit          3D

 24 25  0  0  0  0  0  0  0  0999 V2000
    4.1572   10.4742    9.4748 C   0  0  0  0  0  0  0  0  0  0  0  0
    3.5489    9.1413    9.8745 C   0  0  0  0  0  0  0  0  0  0  0  0
    3.3364    8.3100    8.7506 O   0  0  0  0  0  0  0  0  0  0  0  0
    2.7832    7.0592    8.9497 C   0  0  0  0  0  0  0  0  0  0  0  0
    2.4531    6.7308   10.1123 O   0  0  0  0  0  0  0  0  0  0  0  0
    2.5759    6.1223    7.8542 C   0  0  0  0  0  0  0  0  0  0  0  0
    2.7891    6.3533    6.5832 O   0  0  0  0  0  0  0  0  0  0  0  0
    2.4978    5.2821    5.8475 C   0  0  0  0  0  0  0  0  0  0  0  0
    2.0658    4.2791    6.6736 C   0  0  0  0  0  0  0  0  0  0  0  0
    2.1133    4.8055    7.9445 C   0  0  0  0  0  0  0  0  0  0  0  0
    1.7596    4.1702    9.2273 C   0  0  0  0  0  0  0  0  0  0  0  0
    1.6774    3.0070    6.2039 C   0  0  0  0  0  0  0  0  0  0  0  0
    1.2640    2.0777    7.1140 O   0  0  0  0  0  0  0  0  0  0  0  0
    0.9148    0.7692    7.0568 C   0  0  0  0  0  0  0  0  0  0  0  0
    0.6557    0.0477    8.3579 C   0  0  2  0  0  0  0  0  0  0  0  0
    0.2028   -1.3700    8.1195 C   0  0  0  0  0  0  0  0  0  0  0  0
   -1.1553   -1.5309    7.7447 N   0  0  0  0  0  4  0  0  0  0  0  0
   -1.6380   -2.8578    7.5633 C   0  0  0  0  0  0  0  0  0  0  0  0
   -1.7192   -3.1461    6.0541 C   0  0  0  0  0  0  0  0  0  0  0  0
   -3.0731   -2.9974    8.0785 C   0  0  0  0  0  0  0  0  0  0  0  0
   -0.3772    0.7935    8.9801 O   0  0  0  0  0  0  0  0  0  0  0  0
    1.7485    2.7955    4.8427 C   0  0  0  0  0  0  0  0  0  0  0  0
    2.1864    3.8052    3.9794 C   0  0  0  0  0  0  0  0  0  0  0  0
    2.5503    5.0215    4.4960 C   0  0  0  0  0  0  0  0  0  0  0  0
  1  2  1  0
  2  3  1  0
  3  4  1  0
  4  5  2  0
  4  6  1  0
  6  7  1  0
  7  8  1  0
  8  9  2  0
  9 10  1  0
 10 11  1  0
  9 12  1  0
 12 13  1  0
 13 14  1  0
 14 15  1  0
 15 16  1  0
 16 17  1  0
 17 18  1  0
 18 19  1  0
 18 20  1  0
 15 21  1  6
 12 22  2  0
 22 23  1  0
 23 24  2  0
 10  6  2  0
 24  8  1  0
M  CHG  1  17   1
M  END
$$$$
