
     RDKit          3D

 24 25  0  0  0  0  0  0  0  0999 V2000
    1.6584    6.0254   12.3996 C   0  0  0  0  0  0  0  0  0  0  0  0
    2.0931    6.9664   11.2896 C   0  0  0  0  0  0  0  0  0  0  0  0
    1.7924    6.4375   10.0133 O   0  0  0  0  0  0  0  0  0  0  0  0
    2.3720    7.0219    8.9031 C   0  0  0  0  0  0  0  0  0  0  0  0
    2.8945    8.1531    9.0285 O   0  0  0  0  0  0  0  0  0  0  0  0
    2.3910    6.3637    7.6041 C   0  0  0  0  0  0  0  0  0  0  0  0
    3.0308    6.7698    6.5365 O   0  0  0  0  0  0  0  0  0  0  0  0
    2.8365    5.9355    5.5167 C   0  0  0  0  0  0  0  0  0  0  0  0
    2.0209    4.9146    5.9264 C   0  0  0  0  0  0  0  0  0  0  0  0
    1.7361    5.1808    7.2465 C   0  0  0  0  0  0  0  0  0  0  0  0
    0.9017    4.4140    8.1900 C   0  0  0  0  0  0  0  0  0  0  0  0
    1.6212    3.8599    5.0794 C   0  0  0  0  0  0  0  0  0  0  0  0
    0.8070    2.8907    5.5899 O   0  0  0  0  0  0  0  0  0  0  0  0
    0.2619    1.7461    5.1102 C   0  0  0  0  0  0  0  0  0  0  0  0
   -0.6475    0.9581    6.0226 C   0  0  2  0  0  0  0  0  0  0  0  0
    0.0405    0.6107    7.3180 C   0  0  0  0  0  0  0  0  0  0  0  0
   -0.6445   -0.3053    8.1561 N   0  0  0  0  0  4  0  0  0  0  0  0
   -0.0368   -0.6472    9.3972 C   0  0  0  0  0  0  0  0  0  0  0  0
    0.2112   -2.1656    9.4178 C   0  0  0  0  0  0  0  0  0  0  0  0
   -0.9856   -0.3774   10.5683 C   0  0  0  0  0  0  0  0  0  0  0  0
   -0.9472   -0.2218    5.2958 O   0  0  0  0  0  0  0  0  0  0  0  0
    2.0920    3.8874    3.7832 C   0  0  0  0  0  0  0  0  0  0  0  0
    2.9259    4.9201    3.3421 C   0  0  0  0  0  0  0  0  0  0  0  0
    3.2796    5.9180    4.2128 C   0  0  0  0  0  0  0  0  0  0  0  0
  1  2  1  0
  2  3  1  0
  3  4  1  0
  4  5  2  0
  4  6  1  0
  6  7  1  0
  7  8  1  0
  8  9  2  0
  9 10  1  0
 10 11  1  0
  9 12  1  0
 12 13  1  0
 13 14  1  0
 14 15  1  0
 15 16  1  0
 16 17  1  0
 17 18  1  0
 18 19  1  0
 18 20  1  0
 15 21  1  6
 12 22  2  0
 22 23  1  0
 23 24  2  0
 10  6  2  0
 24  8  1  0
M  CHG  1  17   1
M  END
$$$$
