
     RDKit          3D

 24 25  0  0  0  0  0  0  0  0999 V2000
    6.5631    7.6613   10.2031 C   0  0  0  0  0  0  0  0  0  0  0  0
    5.1738    7.0489   10.2380 C   0  0  0  0  0  0  0  0  0  0  0  0
    4.7840    6.5738    8.9647 O   0  0  0  0  0  0  0  0  0  0  0  0
    3.6438    5.7983    8.8699 C   0  0  0  0  0  0  0  0  0  0  0  0
    2.9782    5.5865    9.9093 O   0  0  0  0  0  0  0  0  0  0  0  0
    3.2005    5.2266    7.6060 C   0  0  0  0  0  0  0  0  0  0  0  0
    3.5999    5.5807    6.4104 O   0  0  0  0  0  0  0  0  0  0  0  0
    2.9958    4.8556    5.4707 C   0  0  0  0  0  0  0  0  0  0  0  0
    2.1450    3.9673    6.0726 C   0  0  0  0  0  0  0  0  0  0  0  0
    2.2707    4.1979    7.4237 C   0  0  0  0  0  0  0  0  0  0  0  0
    1.5888    3.5302    8.5477 C   0  0  0  0  0  0  0  0  0  0  0  0
    1.3516    3.0504    5.3518 C   0  0  0  0  0  0  0  0  0  0  0  0
    0.5381    2.2065    6.0510 O   0  0  0  0  0  0  0  0  0  0  0  0
   -0.5959    1.5182    5.7720 C   0  0  0  0  0  0  0  0  0  0  0  0
   -0.6552    0.0616    6.1659 C   0  0  2  0  0  0  0  0  0  0  0  0
   -1.4192   -0.1296    7.4511 C   0  0  0  0  0  0  0  0  0  0  0  0
   -0.8082   -0.9715    8.4148 N   0  0  0  0  0  4  0  0  0  0  0  0
   -1.5264   -1.2304    9.6163 C   0  0  0  0  0  0  0  0  0  0  0  0
   -0.9516   -0.3387   10.7307 C   0  0  0  0  0  0  0  0  0  0  0  0
   -1.3019   -2.6678   10.0937 C   0  0  0  0  0  0  0  0  0  0  0  0
    0.7000   -0.3164    6.3412 O   0  0  0  0  0  0  0  0  0  0  0  0
    1.4618    3.0751    3.9771 C   0  0  0  0  0  0  0  0  0  0  0  0
    2.3239    3.9739    3.3403 C   0  0  0  0  0  0  0  0  0  0  0  0
    3.0695    4.8414    4.0954 C   0  0  0  0  0  0  0  0  0  0  0  0
  1  2  1  0
  2  3  1  0
  3  4  1  0
  4  5  2  0
  4  6  1  0
  6  7  1  0
  7  8  1  0
  8  9  2  0
  9 10  1  0
 10 11  1  0
  9 12  1  0
 12 13  1  0
 13 14  1  0
 14 15  1  0
 15 16  1  0
 16 17  1  0
 17 18  1  0
 18 19  1  0
 18 20  1  0
 15 21  1  1
 12 22  2  0
 22 23  1  0
 23 24  2  0
 10  6  2  0
 24  8  1  0
M  CHG  1  17   1
M  END
$$$$
