
     RDKit          3D

 24 25  0  0  0  0  0  0  0  0999 V2000
    4.3685   10.1290    9.5752 C   0  0  0  0  0  0  0  0  0  0  0  0
    3.5575    8.8924    9.9211 C   0  0  0  0  0  0  0  0  0  0  0  0
    3.2925    8.1083    8.7748 O   0  0  0  0  0  0  0  0  0  0  0  0
    2.6094    6.9172    8.9330 C   0  0  0  0  0  0  0  0  0  0  0  0
    2.1065    6.6617   10.0510 O   0  0  0  0  0  0  0  0  0  0  0  0
    2.4606    5.9609    7.8447 C   0  0  0  0  0  0  0  0  0  0  0  0
    2.8922    6.1071    6.6173 O   0  0  0  0  0  0  0  0  0  0  0  0
    2.5896    5.0438    5.8746 C   0  0  0  0  0  0  0  0  0  0  0  0
    1.9180    4.1364    6.6497 C   0  0  0  0  0  0  0  0  0  0  0  0
    1.8337    4.7119    7.8973 C   0  0  0  0  0  0  0  0  0  0  0  0
    1.2135    4.1812    9.1253 C   0  0  0  0  0  0  0  0  0  0  0  0
    1.4550    2.8972    6.1599 C   0  0  0  0  0  0  0  0  0  0  0  0
    0.7978    2.0647    7.0188 O   0  0  0  0  0  0  0  0  0  0  0  0
    0.8295    0.7343    7.2766 C   0  0  0  0  0  0  0  0  0  0  0  0
   -0.3030    0.1416    8.0808 C   0  0  2  0  0  0  0  0  0  0  0  0
   -0.6113   -1.2668    7.6408 C   0  0  0  0  0  0  0  0  0  0  0  0
   -0.3869   -2.2800    8.6071 N   0  0  0  0  0  4  0  0  0  0  0  0
   -0.5028   -3.6342    8.1837 C   0  0  0  0  0  0  0  0  0  0  0  0
   -1.9944   -3.9602    7.9925 C   0  0  0  0  0  0  0  0  0  0  0  0
   -0.0161   -4.5954    9.2717 C   0  0  0  0  0  0  0  0  0  0  0  0
   -1.4088    0.9894    7.8189 O   0  0  0  0  0  0  0  0  0  0  0  0
    1.7076    2.6165    4.8333 C   0  0  0  0  0  0  0  0  0  0  0  0
    2.3914    3.5281    4.0223 C   0  0  0  0  0  0  0  0  0  0  0  0
    2.8164    4.7169    4.5561 C   0  0  0  0  0  0  0  0  0  0  0  0
  1  2  1  0
  2  3  1  0
  3  4  1  0
  4  5  2  0
  4  6  1  0
  6  7  1  0
  7  8  1  0
  8  9  2  0
  9 10  1  0
 10 11  1  0
  9 12  1  0
 12 13  1  0
 13 14  1  0
 14 15  1  0
 15 16  1  0
 16 17  1  0
 17 18  1  0
 18 19  1  0
 18 20  1  0
 15 21  1  6
 12 22  2  0
 22 23  1  0
 23 24  2  0
 10  6  2  0
 24  8  1  0
M  CHG  1  17   1
M  END
$$$$
