
     RDKit          3D

 24 25  0  0  0  0  0  0  0  0999 V2000
    2.8869    9.9089   10.7778 C   0  0  0  0  0  0  0  0  0  0  0  0
    2.1991    8.5605   10.6541 C   0  0  0  0  0  0  0  0  0  0  0  0
    2.3656    8.0096    9.3626 O   0  0  0  0  0  0  0  0  0  0  0  0
    1.8302    6.7621    9.1028 C   0  0  0  0  0  0  0  0  0  0  0  0
    1.1761    6.1935   10.0067 O   0  0  0  0  0  0  0  0  0  0  0  0
    2.0048    6.0981    7.8185 C   0  0  0  0  0  0  0  0  0  0  0  0
    2.6542    6.5673    6.7830 O   0  0  0  0  0  0  0  0  0  0  0  0
    2.6217    5.7057    5.7680 C   0  0  0  0  0  0  0  0  0  0  0  0
    1.9104    4.5986    6.1470 C   0  0  0  0  0  0  0  0  0  0  0  0
    1.5177    4.8418    7.4436 C   0  0  0  0  0  0  0  0  0  0  0  0
    0.7258    3.9900    8.3500 C   0  0  0  0  0  0  0  0  0  0  0  0
    1.6901    3.4952    5.2961 C   0  0  0  0  0  0  0  0  0  0  0  0
    0.9681    2.4407    5.7749 O   0  0  0  0  0  0  0  0  0  0  0  0
    0.5838    1.2386    5.2801 C   0  0  0  0  0  0  0  0  0  0  0  0
   -0.5868    0.5446    5.9348 C   0  0  2  0  0  0  0  0  0  0  0  0
   -0.3842    0.4104    7.4225 C   0  0  0  0  0  0  0  0  0  0  0  0
   -0.5592   -0.8918    7.9557 N   0  0  0  0  0  4  0  0  0  0  0  0
   -0.4447   -1.0493    9.3659 C   0  0  0  0  0  0  0  0  0  0  0  0
    1.0228   -0.8166    9.7657 C   0  0  0  0  0  0  0  0  0  0  0  0
   -0.7541   -2.4886    9.7867 C   0  0  0  0  0  0  0  0  0  0  0  0
   -0.6268   -0.7365    5.3287 O   0  0  0  0  0  0  0  0  0  0  0  0
    2.2308    3.5661    4.0291 C   0  0  0  0  0  0  0  0  0  0  0  0
    2.9607    4.6869    3.6198 C   0  0  0  0  0  0  0  0  0  0  0  0
    3.1406    5.7285    4.4924 C   0  0  0  0  0  0  0  0  0  0  0  0
  1  2  1  0
  2  3  1  0
  3  4  1  0
  4  5  2  0
  4  6  1  0
  6  7  1  0
  7  8  1  0
  8  9  2  0
  9 10  1  0
 10 11  1  0
  9 12  1  0
 12 13  1  0
 13 14  1  0
 14 15  1  0
 15 16  1  0
 16 17  1  0
 17 18  1  0
 18 19  1  0
 18 20  1  0
 15 21  1  6
 12 22  2  0
 22 23  1  0
 23 24  2  0
 10  6  2  0
 24  8  1  0
M  CHG  1  17   1
M  END
$$$$
