
     RDKit          3D

 24 25  0  0  0  0  0  0  0  0999 V2000
    1.2206    8.5350   10.9314 C   0  0  0  0  0  0  0  0  0  0  0  0
    2.4712    7.6810   10.8167 C   0  0  0  0  0  0  0  0  0  0  0  0
    2.6350    7.1739    9.5070 O   0  0  0  0  0  0  0  0  0  0  0  0
    2.1111    5.9299    9.2103 C   0  0  0  0  0  0  0  0  0  0  0  0
    1.5594    5.2804   10.1279 O   0  0  0  0  0  0  0  0  0  0  0  0
    2.1830    5.3599    7.8720 C   0  0  0  0  0  0  0  0  0  0  0  0
    2.7507    5.9039    6.8252 O   0  0  0  0  0  0  0  0  0  0  0  0
    2.6366    5.1170    5.7568 C   0  0  0  0  0  0  0  0  0  0  0  0
    1.9541    3.9837    6.1100 C   0  0  0  0  0  0  0  0  0  0  0  0
    1.6647    4.1323    7.4474 C   0  0  0  0  0  0  0  0  0  0  0  0
    0.9438    3.2155    8.3496 C   0  0  0  0  0  0  0  0  0  0  0  0
    1.6650    2.9434    5.2022 C   0  0  0  0  0  0  0  0  0  0  0  0
    0.9798    1.8551    5.6593 O   0  0  0  0  0  0  0  0  0  0  0  0
    0.2932    0.8411    5.0780 C   0  0  0  0  0  0  0  0  0  0  0  0
   -0.1373   -0.3141    5.9501 C   0  0  2  0  0  0  0  0  0  0  0  0
   -0.3969    0.1331    7.3660 C   0  0  0  0  0  0  0  0  0  0  0  0
   -0.8195   -0.8776    8.2664 N   0  0  0  0  0  4  0  0  0  0  0  0
   -1.1322   -0.4867    9.5990 C   0  0  0  0  0  0  0  0  0  0  0  0
    0.1529   -0.5555   10.4425 C   0  0  0  0  0  0  0  0  0  0  0  0
   -2.0974   -1.4796   10.2525 C   0  0  0  0  0  0  0  0  0  0  0  0
    0.9564   -1.2156    5.9142 O   0  0  0  0  0  0  0  0  0  0  0  0
    2.1051    3.1063    3.9051 C   0  0  0  0  0  0  0  0  0  0  0  0
    2.8038    4.2556    3.5212 C   0  0  0  0  0  0  0  0  0  0  0  0
    3.0542    5.2326    4.4494 C   0  0  0  0  0  0  0  0  0  0  0  0
  1  2  1  0
  2  3  1  0
  3  4  1  0
  4  5  2  0
  4  6  1  0
  6  7  1  0
  7  8  1  0
  8  9  2  0
  9 10  1  0
 10 11  1  0
  9 12  1  0
 12 13  1  0
 13 14  1  0
 14 15  1  0
 15 16  1  0
 16 17  1  0
 17 18  1  0
 18 19  1  0
 18 20  1  0
 15 21  1  1
 12 22  2  0
 22 23  1  0
 23 24  2  0
 10  6  2  0
 24  8  1  0
M  CHG  1  17   1
M  END
$$$$
