
     RDKit          3D

 24 25  0  0  0  0  0  0  0  0999 V2000
    2.7431    5.3296   12.5307 C   0  0  0  0  0  0  0  0  0  0  0  0
    3.1623    6.2194   11.3735 C   0  0  0  0  0  0  0  0  0  0  0  0
    2.4759    5.8820   10.1843 O   0  0  0  0  0  0  0  0  0  0  0  0
    2.8119    6.5427    9.0178 C   0  0  0  0  0  0  0  0  0  0  0  0
    3.2042    7.7294    9.0960 O   0  0  0  0  0  0  0  0  0  0  0  0
    2.7227    5.9018    7.7131 C   0  0  0  0  0  0  0  0  0  0  0  0
    3.2264    6.3503    6.5910 O   0  0  0  0  0  0  0  0  0  0  0  0
    2.9630    5.5202    5.5834 C   0  0  0  0  0  0  0  0  0  0  0  0
    2.2427    4.4573    6.0595 C   0  0  0  0  0  0  0  0  0  0  0  0
    2.0880    4.6939    7.4066 C   0  0  0  0  0  0  0  0  0  0  0  0
    1.3942    3.8774    8.4197 C   0  0  0  0  0  0  0  0  0  0  0  0
    1.8036    3.3953    5.2416 C   0  0  0  0  0  0  0  0  0  0  0  0
    1.0931    2.3829    5.8187 O   0  0  0  0  0  0  0  0  0  0  0  0
    0.7802    1.1111    5.4693 C   0  0  0  0  0  0  0  0  0  0  0  0
   -0.3066    0.4095    6.2485 C   0  0  2  0  0  0  0  0  0  0  0  0
    0.1557    0.0541    7.6384 C   0  0  0  0  0  0  0  0  0  0  0  0
   -0.6691   -0.8520    8.3521 N   0  0  0  0  0  4  0  0  0  0  0  0
   -0.0447   -1.7004    9.3096 C   0  0  0  0  0  0  0  0  0  0  0  0
   -1.0412   -2.8027    9.7090 C   0  0  0  0  0  0  0  0  0  0  0  0
    0.2574   -0.9413   10.6046 C   0  0  0  0  0  0  0  0  0  0  0  0
   -0.5751   -0.7680    5.5058 O   0  0  0  0  0  0  0  0  0  0  0  0
    2.1323    3.4605    3.9036 C   0  0  0  0  0  0  0  0  0  0  0  0
    2.8669    4.5365    3.3946 C   0  0  0  0  0  0  0  0  0  0  0  0
    3.2654    5.5393    4.2398 C   0  0  0  0  0  0  0  0  0  0  0  0
  1  2  1  0
  2  3  1  0
  3  4  1  0
  4  5  2  0
  4  6  1  0
  6  7  1  0
  7  8  1  0
  8  9  2  0
  9 10  1  0
 10 11  1  0
  9 12  1  0
 12 13  1  0
 13 14  1  0
 14 15  1  0
 15 16  1  0
 16 17  1  0
 17 18  1  0
 18 19  1  0
 18 20  1  0
 15 21  1  6
 12 22  2  0
 22 23  1  0
 23 24  2  0
 10  6  2  0
 24  8  1  0
M  CHG  1  17   1
M  END
$$$$
