
     RDKit          3D

 24 25  0  0  0  0  0  0  0  0999 V2000
    4.1366    8.9301   10.8991 C   0  0  0  0  0  0  0  0  0  0  0  0
    3.2328    7.7149   10.7854 C   0  0  0  0  0  0  0  0  0  0  0  0
    3.2108    7.2061    9.4664 O   0  0  0  0  0  0  0  0  0  0  0  0
    2.3910    6.1289    9.1877 C   0  0  0  0  0  0  0  0  0  0  0  0
    1.6701    5.6746   10.1055 O   0  0  0  0  0  0  0  0  0  0  0  0
    2.3438    5.5142    7.8683 C   0  0  0  0  0  0  0  0  0  0  0  0
    2.8546    6.0010    6.7655 O   0  0  0  0  0  0  0  0  0  0  0  0
    2.6332    5.1858    5.7359 C   0  0  0  0  0  0  0  0  0  0  0  0
    1.9353    4.0929    6.1758 C   0  0  0  0  0  0  0  0  0  0  0  0
    1.7496    4.2957    7.5245 C   0  0  0  0  0  0  0  0  0  0  0  0
    1.0614    3.4381    8.5070 C   0  0  0  0  0  0  0  0  0  0  0  0
    1.5416    3.0369    5.3276 C   0  0  0  0  0  0  0  0  0  0  0  0
    0.8502    1.9925    5.8697 O   0  0  0  0  0  0  0  0  0  0  0  0
    0.0067    1.0476    5.3869 C   0  0  0  0  0  0  0  0  0  0  0  0
   -0.2238   -0.1894    6.2219 C   0  0  2  0  0  0  0  0  0  0  0  0
   -0.5543    0.1647    7.6492 C   0  0  0  0  0  0  0  0  0  0  0  0
   -0.8229   -0.9284    8.5116 N   0  0  0  0  0  4  0  0  0  0  0  0
   -1.2235   -0.6347    9.8457 C   0  0  0  0  0  0  0  0  0  0  0  0
    0.0284   -0.6232   10.7403 C   0  0  0  0  0  0  0  0  0  0  0  0
   -2.1132   -1.7451   10.4111 C   0  0  0  0  0  0  0  0  0  0  0  0
    1.0057   -0.8932    6.1643 O   0  0  0  0  0  0  0  0  0  0  0  0
    1.8924    3.1404    3.9976 C   0  0  0  0  0  0  0  0  0  0  0  0
    2.6049    4.2475    3.5253 C   0  0  0  0  0  0  0  0  0  0  0  0
    2.9591    5.2426    4.3989 C   0  0  0  0  0  0  0  0  0  0  0  0
  1  2  1  0
  2  3  1  0
  3  4  1  0
  4  5  2  0
  4  6  1  0
  6  7  1  0
  7  8  1  0
  8  9  2  0
  9 10  1  0
 10 11  1  0
  9 12  1  0
 12 13  1  0
 13 14  1  0
 14 15  1  0
 15 16  1  0
 16 17  1  0
 17 18  1  0
 18 19  1  0
 18 20  1  0
 15 21  1  1
 12 22  2  0
 22 23  1  0
 23 24  2  0
 10  6  2  0
 24  8  1  0
M  CHG  1  17   1
M  END
$$$$
