
     RDKit          3D

 24 25  0  0  0  0  0  0  0  0999 V2000
   -2.8651    4.3549   15.4956 C   0  0  0  0  0  0  0  0  0  0  0  0
   -2.8318    4.8200   14.0502 C   0  0  0  0  0  0  0  0  0  0  0  0
   -2.8742    3.7284   13.1527 O   0  0  0  0  0  0  0  0  0  0  0  0
   -2.1476    3.8094   11.9798 C   0  0  0  0  0  0  0  0  0  0  0  0
   -1.7200    4.9297   11.6188 O   0  0  0  0  0  0  0  0  0  0  0  0
   -1.8687    2.6379   11.1606 C   0  0  0  0  0  0  0  0  0  0  0  0
   -2.1752    1.3979   11.4480 O   0  0  0  0  0  0  0  0  0  0  0  0
   -1.7767    0.5713   10.4829 C   0  0  0  0  0  0  0  0  0  0  0  0
   -1.1699    1.3003    9.4952 C   0  0  0  0  0  0  0  0  0  0  0  0
   -1.2254    2.6086    9.9191 C   0  0  0  0  0  0  0  0  0  0  0  0
   -0.7238    3.8238    9.2514 C   0  0  0  0  0  0  0  0  0  0  0  0
   -0.6343    0.7194    8.3267 C   0  0  0  0  0  0  0  0  0  0  0  0
   -0.0519    1.5385    7.4033 O   0  0  0  0  0  0  0  0  0  0  0  0
    0.4697    1.3675    6.1638 C   0  0  0  0  0  0  0  0  0  0  0  0
    0.7080    2.5970    5.3200 C   0  0  2  0  0  0  0  0  0  0  0  0
    1.5794    3.5958    6.0378 C   0  0  0  0  0  0  0  0  0  0  0  0
    2.2174    4.5616    5.2187 N   0  0  0  0  0  4  0  0  0  0  0  0
    3.0179    5.5479    5.8612 C   0  0  0  0  0  0  0  0  0  0  0  0
    3.3606    6.6427    4.8358 C   0  0  0  0  0  0  0  0  0  0  0  0
    4.3659    4.9662    6.2959 C   0  0  0  0  0  0  0  0  0  0  0  0
   -0.5844    3.1394    5.1062 O   0  0  0  0  0  0  0  0  0  0  0  0
   -0.7439   -0.6500    8.2034 C   0  0  0  0  0  0  0  0  0  0  0  0
   -1.3593   -1.4153    9.1995 C   0  0  0  0  0  0  0  0  0  0  0  0
   -1.8606   -0.7930   10.3131 C   0  0  0  0  0  0  0  0  0  0  0  0
  1  2  1  0
  2  3  1  0
  3  4  1  0
  4  5  2  0
  4  6  1  0
  6  7  1  0
  7  8  1  0
  8  9  2  0
  9 10  1  0
 10 11  1  0
  9 12  1  0
 12 13  1  0
 13 14  1  0
 14 15  1  0
 15 16  1  0
 16 17  1  0
 17 18  1  0
 18 19  1  0
 18 20  1  0
 15 21  1  1
 12 22  2  0
 22 23  1  0
 23 24  2  0
 10  6  2  0
 24  8  1  0
M  CHG  1  17   1
M  END
$$$$
