
     RDKit          3D

 24 25  0  0  0  0  0  0  0  0999 V2000
    3.6608    9.3152   10.5799 C   0  0  0  0  0  0  0  0  0  0  0  0
    3.3390    7.8311   10.5964 C   0  0  0  0  0  0  0  0  0  0  0  0
    3.2531    7.3041    9.2871 O   0  0  0  0  0  0  0  0  0  0  0  0
    2.4654    6.1886    9.0747 C   0  0  0  0  0  0  0  0  0  0  0  0
    1.7912    5.7432   10.0315 O   0  0  0  0  0  0  0  0  0  0  0  0
    2.3992    5.5238    7.7806 C   0  0  0  0  0  0  0  0  0  0  0  0
    2.9717    5.9218    6.6725 O   0  0  0  0  0  0  0  0  0  0  0  0
    2.7096    5.0833    5.6714 C   0  0  0  0  0  0  0  0  0  0  0  0
    1.9174    4.0682    6.1374 C   0  0  0  0  0  0  0  0  0  0  0  0
    1.7180    4.3422    7.4715 C   0  0  0  0  0  0  0  0  0  0  0  0
    0.9420    3.5838    8.4699 C   0  0  0  0  0  0  0  0  0  0  0  0
    1.4603    3.0111    5.3229 C   0  0  0  0  0  0  0  0  0  0  0  0
    0.6761    2.0482    5.8890 O   0  0  0  0  0  0  0  0  0  0  0  0
   -0.2906    1.2118    5.4381 C   0  0  0  0  0  0  0  0  0  0  0  0
   -0.1756   -0.2542    5.7818 C   0  0  2  0  0  0  0  0  0  0  0  0
    0.1678   -0.4526    7.2360 C   0  0  0  0  0  0  0  0  0  0  0  0
   -0.7485   -1.2313    7.9874 N   0  0  0  0  0  4  0  0  0  0  0  0
   -0.4328   -1.4902    9.3512 C   0  0  0  0  0  0  0  0  0  0  0  0
   -1.3434   -2.6226    9.8570 C   0  0  0  0  0  0  0  0  0  0  0  0
   -0.7636   -0.2825   10.2323 C   0  0  0  0  0  0  0  0  0  0  0  0
    0.8770   -0.7319    4.9607 O   0  0  0  0  0  0  0  0  0  0  0  0
    1.8480    3.0302    3.9993 C   0  0  0  0  0  0  0  0  0  0  0  0
    2.6566    4.0569    3.5009 C   0  0  0  0  0  0  0  0  0  0  0  0
    3.0689    5.0575    4.3421 C   0  0  0  0  0  0  0  0  0  0  0  0
  1  2  1  0
  2  3  1  0
  3  4  1  0
  4  5  2  0
  4  6  1  0
  6  7  1  0
  7  8  1  0
  8  9  2  0
  9 10  1  0
 10 11  1  0
  9 12  1  0
 12 13  1  0
 13 14  1  0
 14 15  1  0
 15 16  1  0
 16 17  1  0
 17 18  1  0
 18 19  1  0
 18 20  1  0
 15 21  1  6
 12 22  2  0
 22 23  1  0
 23 24  2  0
 10  6  2  0
 24  8  1  0
M  CHG  1  17   1
M  END
$$$$
