
     RDKit          3D

 24 25  0  0  0  0  0  0  0  0999 V2000
   -2.7021   -2.2664   10.9301 C   0  0  0  0  0  0  0  0  0  0  0  0
   -2.0779   -0.8825   10.8887 C   0  0  0  0  0  0  0  0  0  0  0  0
   -1.4843   -0.6183    9.6329 O   0  0  0  0  0  0  0  0  0  0  0  0
   -0.8767    0.6071    9.4345 C   0  0  0  0  0  0  0  0  0  0  0  0
   -0.8047    1.4008   10.4005 O   0  0  0  0  0  0  0  0  0  0  0  0
   -0.3236    0.9959    8.1446 C   0  0  0  0  0  0  0  0  0  0  0  0
   -0.3248    0.2775    7.0501 O   0  0  0  0  0  0  0  0  0  0  0  0
    0.2623    0.9308    6.0490 C   0  0  0  0  0  0  0  0  0  0  0  0
    0.6791    2.1546    6.5003 C   0  0  0  0  0  0  0  0  0  0  0  0
    0.3108    2.2009    7.8258 C   0  0  0  0  0  0  0  0  0  0  0  0
    0.5084    3.2829    8.8078 C   0  0  0  0  0  0  0  0  0  0  0  0
    1.3408    3.0937    5.6818 C   0  0  0  0  0  0  0  0  0  0  0  0
    1.7123    4.2861    6.2322 O   0  0  0  0  0  0  0  0  0  0  0  0
    2.4647    5.3372    5.8241 C   0  0  0  0  0  0  0  0  0  0  0  0
    2.6808    6.4731    6.7954 C   0  0  2  0  0  0  0  0  0  0  0  0
    3.5632    6.0541    7.9435 C   0  0  0  0  0  0  0  0  0  0  0  0
    4.4941    7.0241    8.3943 N   0  0  0  0  0  4  0  0  0  0  0  0
    5.4577    6.6166    9.3597 C   0  0  0  0  0  0  0  0  0  0  0  0
    4.9091    6.9343   10.7617 C   0  0  0  0  0  0  0  0  0  0  0  0
    6.7443    7.4372    9.2345 C   0  0  0  0  0  0  0  0  0  0  0  0
    1.3822    6.7915    7.2670 O   0  0  0  0  0  0  0  0  0  0  0  0
    1.5626    2.7314    4.3695 C   0  0  0  0  0  0  0  0  0  0  0  0
    1.1462    1.4867    3.8863 C   0  0  0  0  0  0  0  0  0  0  0  0
    0.5079    0.6160    4.7308 C   0  0  0  0  0  0  0  0  0  0  0  0
  1  2  1  0
  2  3  1  0
  3  4  1  0
  4  5  2  0
  4  6  1  0
  6  7  1  0
  7  8  1  0
  8  9  2  0
  9 10  1  0
 10 11  1  0
  9 12  1  0
 12 13  1  0
 13 14  1  0
 14 15  1  0
 15 16  1  0
 16 17  1  0
 17 18  1  0
 18 19  1  0
 18 20  1  0
 15 21  1  1
 12 22  2  0
 22 23  1  0
 23 24  2  0
 10  6  2  0
 24  8  1  0
M  CHG  1  17   1
M  END
$$$$
