
     RDKit          3D

 24 25  0  0  0  0  0  0  0  0999 V2000
    1.7190    9.9021   11.3798 C   0  0  0  0  0  0  0  0  0  0  0  0
    1.5508    8.3939   11.3189 C   0  0  0  0  0  0  0  0  0  0  0  0
    1.7171    7.9059   10.0024 O   0  0  0  0  0  0  0  0  0  0  0  0
    1.3453    6.6031    9.7292 C   0  0  0  0  0  0  0  0  0  0  0  0
    0.7434    5.9558   10.6164 O   0  0  0  0  0  0  0  0  0  0  0  0
    1.6321    5.9693    8.4497 C   0  0  0  0  0  0  0  0  0  0  0  0
    2.1991    6.5332    7.4131 O   0  0  0  0  0  0  0  0  0  0  0  0
    2.3132    5.6720    6.4036 C   0  0  0  0  0  0  0  0  0  0  0  0
    1.7931    4.4649    6.7878 C   0  0  0  0  0  0  0  0  0  0  0  0
    1.3607    4.6476    8.0817 C   0  0  0  0  0  0  0  0  0  0  0  0
    0.7168    3.6821    8.9913 C   0  0  0  0  0  0  0  0  0  0  0  0
    1.7614    3.3353    5.9435 C   0  0  0  0  0  0  0  0  0  0  0  0
    1.2215    2.1788    6.4271 O   0  0  0  0  0  0  0  0  0  0  0  0
    1.0918    0.9129    5.9602 C   0  0  0  0  0  0  0  0  0  0  0  0
    0.7662   -0.1781    6.9523 C   0  0  2  0  0  0  0  0  0  0  0  0
   -0.5478    0.0820    7.6436 C   0  0  0  0  0  0  0  0  0  0  0  0
   -1.3468   -1.0602    7.9036 N   0  0  0  0  0  4  0  0  0  0  0  0
   -2.5300   -0.8775    8.6737 C   0  0  0  0  0  0  0  0  0  0  0  0
   -2.6454   -2.0401    9.6751 C   0  0  0  0  0  0  0  0  0  0  0  0
   -3.7802   -0.9763    7.7952 C   0  0  0  0  0  0  0  0  0  0  0  0
    1.8291   -0.1370    7.8897 O   0  0  0  0  0  0  0  0  0  0  0  0
    2.2877    3.4870    4.6776 C   0  0  0  0  0  0  0  0  0  0  0  0
    2.8241    4.7104    4.2630 C   0  0  0  0  0  0  0  0  0  0  0  0
    2.8262    5.7726    5.1293 C   0  0  0  0  0  0  0  0  0  0  0  0
  1  2  1  0
  2  3  1  0
  3  4  1  0
  4  5  2  0
  4  6  1  0
  6  7  1  0
  7  8  1  0
  8  9  2  0
  9 10  1  0
 10 11  1  0
  9 12  1  0
 12 13  1  0
 13 14  1  0
 14 15  1  0
 15 16  1  0
 16 17  1  0
 17 18  1  0
 18 19  1  0
 18 20  1  0
 15 21  1  1
 12 22  2  0
 22 23  1  0
 23 24  2  0
 10  6  2  0
 24  8  1  0
M  CHG  1  17   1
M  END
$$$$
