
     RDKit          3D

 24 25  0  0  0  0  0  0  0  0999 V2000
    5.1317    8.7711   10.6840 C   0  0  0  0  0  0  0  0  0  0  0  0
    3.9342    7.8411   10.5966 C   0  0  0  0  0  0  0  0  0  0  0  0
    3.7858    7.3071    9.2959 O   0  0  0  0  0  0  0  0  0  0  0  0
    2.8135    6.3482    9.0827 C   0  0  0  0  0  0  0  0  0  0  0  0
    2.0785    6.0202   10.0421 O   0  0  0  0  0  0  0  0  0  0  0  0
    2.6231    5.7154    7.7850 C   0  0  0  0  0  0  0  0  0  0  0  0
    3.1204    6.1191    6.6431 O   0  0  0  0  0  0  0  0  0  0  0  0
    2.7517    5.3126    5.6495 C   0  0  0  0  0  0  0  0  0  0  0  0
    1.9637    4.3139    6.1563 C   0  0  0  0  0  0  0  0  0  0  0  0
    1.8791    4.5641    7.5072 C   0  0  0  0  0  0  0  0  0  0  0  0
    1.1579    3.8095    8.5486 C   0  0  0  0  0  0  0  0  0  0  0  0
    1.4077    3.2912    5.3597 C   0  0  0  0  0  0  0  0  0  0  0  0
    0.6374    2.3421    5.9668 O   0  0  0  0  0  0  0  0  0  0  0  0
   -0.4013    1.5607    5.5822 C   0  0  0  0  0  0  0  0  0  0  0  0
   -0.5367    0.1984    6.2196 C   0  0  2  0  0  0  0  0  0  0  0  0
   -0.2838    0.2587    7.7044 C   0  0  0  0  0  0  0  0  0  0  0  0
   -0.8738   -0.7751    8.4749 N   0  0  0  0  0  4  0  0  0  0  0  0
   -0.7511   -0.6961    9.8910 C   0  0  0  0  0  0  0  0  0  0  0  0
    0.6970   -1.0460   10.2761 C   0  0  0  0  0  0  0  0  0  0  0  0
   -1.6184   -1.7536   10.5793 C   0  0  0  0  0  0  0  0  0  0  0  0
    0.4549   -0.5925    5.5859 O   0  0  0  0  0  0  0  0  0  0  0  0
    1.6910    3.3272    4.0102 C   0  0  0  0  0  0  0  0  0  0  0  0
    2.4931    4.3377    3.4699 C   0  0  0  0  0  0  0  0  0  0  0  0
    3.0046    5.3048    4.2956 C   0  0  0  0  0  0  0  0  0  0  0  0
  1  2  1  0
  2  3  1  0
  3  4  1  0
  4  5  2  0
  4  6  1  0
  6  7  1  0
  7  8  1  0
  8  9  2  0
  9 10  1  0
 10 11  1  0
  9 12  1  0
 12 13  1  0
 13 14  1  0
 14 15  1  0
 15 16  1  0
 16 17  1  0
 17 18  1  0
 18 19  1  0
 18 20  1  0
 15 21  1  6
 12 22  2  0
 22 23  1  0
 23 24  2  0
 10  6  2  0
 24  8  1  0
M  CHG  1  17   1
M  END
$$$$
