
     RDKit          3D

 24 25  0  0  0  0  0  0  0  0999 V2000
    2.1736    9.2964   11.0992 C   0  0  0  0  0  0  0  0  0  0  0  0
    2.4063    7.7956   11.1068 C   0  0  0  0  0  0  0  0  0  0  0  0
    2.6196    7.2970    9.8010 O   0  0  0  0  0  0  0  0  0  0  0  0
    1.9053    6.1862    9.3935 C   0  0  0  0  0  0  0  0  0  0  0  0
    1.1365    5.6367   10.2153 O   0  0  0  0  0  0  0  0  0  0  0  0
    2.0219    5.6431    8.0473 C   0  0  0  0  0  0  0  0  0  0  0  0
    2.6626    6.1864    7.0430 O   0  0  0  0  0  0  0  0  0  0  0  0
    2.5714    5.4283    5.9518 C   0  0  0  0  0  0  0  0  0  0  0  0
    1.8278    4.3161    6.2438 C   0  0  0  0  0  0  0  0  0  0  0  0
    1.4776    4.4471    7.5685 C   0  0  0  0  0  0  0  0  0  0  0  0
    0.6766    3.5408    8.4118 C   0  0  0  0  0  0  0  0  0  0  0  0
    1.5440    3.3085    5.2983 C   0  0  0  0  0  0  0  0  0  0  0  0
    0.7942    2.2392    5.6949 O   0  0  0  0  0  0  0  0  0  0  0  0
    0.0247    1.3204    5.0616 C   0  0  0  0  0  0  0  0  0  0  0  0
   -0.2806    0.0314    5.7867 C   0  0  2  0  0  0  0  0  0  0  0  0
   -0.2616    0.2239    7.2816 C   0  0  0  0  0  0  0  0  0  0  0  0
   -0.6709   -0.8923    8.0544 N   0  0  0  0  0  4  0  0  0  0  0  0
   -0.7110   -0.7377    9.4689 C   0  0  0  0  0  0  0  0  0  0  0  0
    0.4218   -1.5777   10.0844 C   0  0  0  0  0  0  0  0  0  0  0  0
   -2.0039   -1.3165   10.0502 C   0  0  0  0  0  0  0  0  0  0  0  0
    0.7555   -0.8532    5.3939 O   0  0  0  0  0  0  0  0  0  0  0  0
    2.0549    3.4817    4.0288 C   0  0  0  0  0  0  0  0  0  0  0  0
    2.8168    4.6098    3.7074 C   0  0  0  0  0  0  0  0  0  0  0  0
    3.0586    5.5553    4.6698 C   0  0  0  0  0  0  0  0  0  0  0  0
  1  2  1  0
  2  3  1  0
  3  4  1  0
  4  5  2  0
  4  6  1  0
  6  7  1  0
  7  8  1  0
  8  9  2  0
  9 10  1  0
 10 11  1  0
  9 12  1  0
 12 13  1  0
 13 14  1  0
 14 15  1  0
 15 16  1  0
 16 17  1  0
 17 18  1  0
 18 19  1  0
 18 20  1  0
 15 21  1  1
 12 22  2  0
 22 23  1  0
 23 24  2  0
 10  6  2  0
 24  8  1  0
M  CHG  1  17   1
M  END
$$$$
