
     RDKit          3D

 24 25  0  0  0  0  0  0  0  0999 V2000
    4.6464    8.7262   10.5771 C   0  0  0  0  0  0  0  0  0  0  0  0
    3.3185    8.0237   10.3541 C   0  0  0  0  0  0  0  0  0  0  0  0
    3.2273    7.4888    9.0484 O   0  0  0  0  0  0  0  0  0  0  0  0
    2.4444    6.3677    8.8474 C   0  0  0  0  0  0  0  0  0  0  0  0
    1.7700    5.9308    9.8079 O   0  0  0  0  0  0  0  0  0  0  0  0
    2.3836    5.6878    7.5609 C   0  0  0  0  0  0  0  0  0  0  0  0
    2.8807    6.1199    6.4294 O   0  0  0  0  0  0  0  0  0  0  0  0
    2.6495    5.2539    5.4443 C   0  0  0  0  0  0  0  0  0  0  0  0
    1.9591    4.1832    5.9463 C   0  0  0  0  0  0  0  0  0  0  0  0
    1.7882    4.4527    7.2852 C   0  0  0  0  0  0  0  0  0  0  0  0
    1.1131    3.6442    8.3171 C   0  0  0  0  0  0  0  0  0  0  0  0
    1.5581    3.0854    5.1563 C   0  0  0  0  0  0  0  0  0  0  0  0
    0.8752    2.0683    5.7578 O   0  0  0  0  0  0  0  0  0  0  0  0
    0.0211    1.1048    5.3339 C   0  0  0  0  0  0  0  0  0  0  0  0
   -0.2122   -0.0824    6.2375 C   0  0  2  0  0  0  0  0  0  0  0  0
   -0.3962    0.3458    7.6710 C   0  0  0  0  0  0  0  0  0  0  0  0
   -0.5713   -0.7007    8.6117 N   0  0  0  0  0  4  0  0  0  0  0  0
   -0.6989   -0.3418    9.9833 C   0  0  0  0  0  0  0  0  0  0  0  0
   -0.5543   -1.6140   10.8366 C   0  0  0  0  0  0  0  0  0  0  0  0
   -2.1028    0.1893   10.2857 C   0  0  0  0  0  0  0  0  0  0  0  0
    0.9620   -0.8663    6.1076 O   0  0  0  0  0  0  0  0  0  0  0  0
    1.8936    3.1230    3.8189 C   0  0  0  0  0  0  0  0  0  0  0  0
    2.5982    4.2063    3.2838 C   0  0  0  0  0  0  0  0  0  0  0  0
    2.9601    5.2444    4.1025 C   0  0  0  0  0  0  0  0  0  0  0  0
  1  2  1  0
  2  3  1  0
  3  4  1  0
  4  5  2  0
  4  6  1  0
  6  7  1  0
  7  8  1  0
  8  9  2  0
  9 10  1  0
 10 11  1  0
  9 12  1  0
 12 13  1  0
 13 14  1  0
 14 15  1  0
 15 16  1  0
 16 17  1  0
 17 18  1  0
 18 19  1  0
 18 20  1  0
 15 21  1  1
 12 22  2  0
 22 23  1  0
 23 24  2  0
 10  6  2  0
 24  8  1  0
M  CHG  1  17   1
M  END
$$$$
