
     RDKit          3D

 24 25  0  0  0  0  0  0  0  0999 V2000
    4.4893   10.1956    9.3912 C   0  0  0  0  0  0  0  0  0  0  0  0
    3.8065    8.9059    9.8116 C   0  0  0  0  0  0  0  0  0  0  0  0
    3.2898    8.2052    8.6975 O   0  0  0  0  0  0  0  0  0  0  0  0
    2.6716    6.9878    8.9118 C   0  0  0  0  0  0  0  0  0  0  0  0
    2.2421    6.7306   10.0597 O   0  0  0  0  0  0  0  0  0  0  0  0
    2.5082    6.0059    7.8487 C   0  0  0  0  0  0  0  0  0  0  0  0
    2.8180    6.1679    6.5870 O   0  0  0  0  0  0  0  0  0  0  0  0
    2.5408    5.0722    5.8825 C   0  0  0  0  0  0  0  0  0  0  0  0
    2.0164    4.1251    6.7210 C   0  0  0  0  0  0  0  0  0  0  0  0
    1.9936    4.7108    7.9664 C   0  0  0  0  0  0  0  0  0  0  0  0
    1.5285    4.1503    9.2485 C   0  0  0  0  0  0  0  0  0  0  0  0
    1.6166    2.8449    6.2839 C   0  0  0  0  0  0  0  0  0  0  0  0
    1.1076    1.9748    7.2040 O   0  0  0  0  0  0  0  0  0  0  0  0
    0.8584    0.6426    7.2283 C   0  0  0  0  0  0  0  0  0  0  0  0
    0.4027    0.0309    8.5316 C   0  0  2  0  0  0  0  0  0  0  0  0
   -0.8618   -0.7694    8.3507 C   0  0  0  0  0  0  0  0  0  0  0  0
   -0.7170   -2.1784    8.4167 N   0  0  0  0  0  4  0  0  0  0  0  0
   -1.8907   -2.9708    8.2711 C   0  0  0  0  0  0  0  0  0  0  0  0
   -2.5557   -3.1169    9.6509 C   0  0  0  0  0  0  0  0  0  0  0  0
   -1.5422   -4.3976    7.8382 C   0  0  0  0  0  0  0  0  0  0  0  0
    0.1628    1.1398    9.3818 O   0  0  0  0  0  0  0  0  0  0  0  0
    1.7752    2.5653    4.9425 C   0  0  0  0  0  0  0  0  0  0  0  0
    2.3083    3.5171    4.0671 C   0  0  0  0  0  0  0  0  0  0  0  0
    2.6784    4.7447    4.5518 C   0  0  0  0  0  0  0  0  0  0  0  0
  1  2  1  0
  2  3  1  0
  3  4  1  0
  4  5  2  0
  4  6  1  0
  6  7  1  0
  7  8  1  0
  8  9  2  0
  9 10  1  0
 10 11  1  0
  9 12  1  0
 12 13  1  0
 13 14  1  0
 14 15  1  0
 15 16  1  0
 16 17  1  0
 17 18  1  0
 18 19  1  0
 18 20  1  0
 15 21  1  1
 12 22  2  0
 22 23  1  0
 23 24  2  0
 10  6  2  0
 24  8  1  0
M  CHG  1  17   1
M  END
$$$$
