
     RDKit          3D

 24 25  0  0  0  0  0  0  0  0999 V2000
    2.6478    9.9348   11.0951 C   0  0  0  0  0  0  0  0  0  0  0  0
    2.3650    8.4430   11.0600 C   0  0  0  0  0  0  0  0  0  0  0  0
    2.3733    7.9443    9.7370 O   0  0  0  0  0  0  0  0  0  0  0  0
    1.7730    6.7246    9.4873 C   0  0  0  0  0  0  0  0  0  0  0  0
    1.0184    6.2408   10.3618 O   0  0  0  0  0  0  0  0  0  0  0  0
    1.9927    5.9944    8.2466 C   0  0  0  0  0  0  0  0  0  0  0  0
    2.7412    6.3759    7.2424 O   0  0  0  0  0  0  0  0  0  0  0  0
    2.7232    5.4735    6.2631 C   0  0  0  0  0  0  0  0  0  0  0  0
    1.9173    4.4305    6.6342 C   0  0  0  0  0  0  0  0  0  0  0  0
    1.4525    4.7551    7.8884 C   0  0  0  0  0  0  0  0  0  0  0  0
    0.5463    3.9951    8.7690 C   0  0  0  0  0  0  0  0  0  0  0  0
    1.6855    3.3060    5.8147 C   0  0  0  0  0  0  0  0  0  0  0  0
    0.8653    2.3204    6.2824 O   0  0  0  0  0  0  0  0  0  0  0  0
    0.0602    1.3917    5.7106 C   0  0  0  0  0  0  0  0  0  0  0  0
    0.2447   -0.0513    6.1158 C   0  0  2  0  0  0  0  0  0  0  0  0
    0.1537   -0.2183    7.6111 C   0  0  0  0  0  0  0  0  0  0  0  0
   -0.8580   -1.0969    8.0751 N   0  0  0  0  0  4  0  0  0  0  0  0
   -1.0461   -1.2038    9.4821 C   0  0  0  0  0  0  0  0  0  0  0  0
   -0.4638   -2.5483    9.9520 C   0  0  0  0  0  0  0  0  0  0  0  0
   -2.5346   -1.2630    9.8363 C   0  0  0  0  0  0  0  0  0  0  0  0
    1.5465   -0.3854    5.6643 O   0  0  0  0  0  0  0  0  0  0  0  0
    2.3159    3.2867    4.5880 C   0  0  0  0  0  0  0  0  0  0  0  0
    3.1434    4.3409    4.1875 C   0  0  0  0  0  0  0  0  0  0  0  0
    3.3296    5.4073    5.0282 C   0  0  0  0  0  0  0  0  0  0  0  0
  1  2  1  0
  2  3  1  0
  3  4  1  0
  4  5  2  0
  4  6  1  0
  6  7  1  0
  7  8  1  0
  8  9  2  0
  9 10  1  0
 10 11  1  0
  9 12  1  0
 12 13  1  0
 13 14  1  0
 14 15  1  0
 15 16  1  0
 16 17  1  0
 17 18  1  0
 18 19  1  0
 18 20  1  0
 15 21  1  1
 12 22  2  0
 22 23  1  0
 23 24  2  0
 10  6  2  0
 24  8  1  0
M  CHG  1  17   1
M  END
$$$$
