
     RDKit          3D

 24 25  0  0  0  0  0  0  0  0999 V2000
   -2.4407    0.7635   14.8307 C   0  0  0  0  0  0  0  0  0  0  0  0
   -2.7451    1.6984   13.6731 C   0  0  0  0  0  0  0  0  0  0  0  0
   -2.4288    1.1046   12.4296 O   0  0  0  0  0  0  0  0  0  0  0  0
   -1.7611    1.8629   11.4866 C   0  0  0  0  0  0  0  0  0  0  0  0
   -1.4874    3.0533   11.7631 O   0  0  0  0  0  0  0  0  0  0  0  0
   -1.3711    1.3198   10.1928 C   0  0  0  0  0  0  0  0  0  0  0  0
   -1.5551    0.0916    9.7782 O   0  0  0  0  0  0  0  0  0  0  0  0
   -1.0798   -0.0727    8.5450 C   0  0  0  0  0  0  0  0  0  0  0  0
   -0.5484    1.1126    8.1116 C   0  0  0  0  0  0  0  0  0  0  0  0
   -0.7301    1.9970    9.1505 C   0  0  0  0  0  0  0  0  0  0  0  0
   -0.3500    3.4191    9.2374 C   0  0  0  0  0  0  0  0  0  0  0  0
    0.0391    1.2746    6.8394 C   0  0  0  0  0  0  0  0  0  0  0  0
    0.5376    2.5007    6.5064 O   0  0  0  0  0  0  0  0  0  0  0  0
    1.0497    3.0535    5.3796 C   0  0  0  0  0  0  0  0  0  0  0  0
    1.4612    4.5057    5.4269 C   0  0  2  0  0  0  0  0  0  0  0  0
    2.3969    4.7746    6.5777 C   0  0  0  0  0  0  0  0  0  0  0  0
    3.4431    5.6969    6.3218 N   0  0  0  0  0  4  0  0  0  0  0  0
    4.4481    5.8492    7.3185 C   0  0  0  0  0  0  0  0  0  0  0  0
    4.3877    7.2894    7.8568 C   0  0  0  0  0  0  0  0  0  0  0  0
    5.8482    5.7020    6.7164 C   0  0  0  0  0  0  0  0  0  0  0  0
    0.2469    5.2151    5.6072 O   0  0  0  0  0  0  0  0  0  0  0  0
    0.0629    0.1675    6.0170 C   0  0  0  0  0  0  0  0  0  0  0  0
   -0.4735   -1.0536    6.4384 C   0  0  0  0  0  0  0  0  0  0  0  0
   -1.0311   -1.1489    7.6869 C   0  0  0  0  0  0  0  0  0  0  0  0
  1  2  1  0
  2  3  1  0
  3  4  1  0
  4  5  2  0
  4  6  1  0
  6  7  1  0
  7  8  1  0
  8  9  2  0
  9 10  1  0
 10 11  1  0
  9 12  1  0
 12 13  1  0
 13 14  1  0
 14 15  1  0
 15 16  1  0
 16 17  1  0
 17 18  1  0
 18 19  1  0
 18 20  1  0
 15 21  1  1
 12 22  2  0
 22 23  1  0
 23 24  2  0
 10  6  2  0
 24  8  1  0
M  CHG  1  17   1
M  END
$$$$
