
     RDKit          3D

 24 25  0  0  0  0  0  0  0  0999 V2000
    0.7951    6.1192   12.3794 C   0  0  0  0  0  0  0  0  0  0  0  0
    1.1824    6.8478   11.1044 C   0  0  0  0  0  0  0  0  0  0  0  0
    1.5747    5.9449   10.0895 O   0  0  0  0  0  0  0  0  0  0  0  0
    2.3178    6.4266    9.0284 C   0  0  0  0  0  0  0  0  0  0  0  0
    2.9648    7.4873    9.1857 O   0  0  0  0  0  0  0  0  0  0  0  0
    2.3680    5.7402    7.7449 C   0  0  0  0  0  0  0  0  0  0  0  0
    2.9704    6.1614    6.6615 O   0  0  0  0  0  0  0  0  0  0  0  0
    2.8217    5.2921    5.6635 C   0  0  0  0  0  0  0  0  0  0  0  0
    2.0781    4.2305    6.1054 C   0  0  0  0  0  0  0  0  0  0  0  0
    1.7885    4.5090    7.4219 C   0  0  0  0  0  0  0  0  0  0  0  0
    1.0144    3.7124    8.3916 C   0  0  0  0  0  0  0  0  0  0  0  0
    1.7403    3.1321    5.2873 C   0  0  0  0  0  0  0  0  0  0  0  0
    0.9957    2.1246    5.8288 O   0  0  0  0  0  0  0  0  0  0  0  0
    0.0503    1.2733    5.3608 C   0  0  0  0  0  0  0  0  0  0  0  0
   -0.1602   -0.0268    6.0996 C   0  0  2  0  0  0  0  0  0  0  0  0
   -0.3058    0.2010    7.5825 C   0  0  0  0  0  0  0  0  0  0  0  0
   -0.9822   -0.8170    8.3014 N   0  0  0  0  0  4  0  0  0  0  0  0
   -1.2164   -0.6020    9.6889 C   0  0  0  0  0  0  0  0  0  0  0  0
    0.0678   -0.9519   10.4610 C   0  0  0  0  0  0  0  0  0  0  0  0
   -2.2826   -1.5623   10.2233 C   0  0  0  0  0  0  0  0  0  0  0  0
    1.0095   -0.7824    5.8330 O   0  0  0  0  0  0  0  0  0  0  0  0
    2.1967    3.1592    3.9859 C   0  0  0  0  0  0  0  0  0  0  0  0
    2.9575    4.2331    3.5123 C   0  0  0  0  0  0  0  0  0  0  0  0
    3.2532    5.2723    4.3557 C   0  0  0  0  0  0  0  0  0  0  0  0
  1  2  1  0
  2  3  1  0
  3  4  1  0
  4  5  2  0
  4  6  1  0
  6  7  1  0
  7  8  1  0
  8  9  2  0
  9 10  1  0
 10 11  1  0
  9 12  1  0
 12 13  1  0
 13 14  1  0
 14 15  1  0
 15 16  1  0
 16 17  1  0
 17 18  1  0
 18 19  1  0
 18 20  1  0
 15 21  1  1
 12 22  2  0
 22 23  1  0
 23 24  2  0
 10  6  2  0
 24  8  1  0
M  CHG  1  17   1
M  END
$$$$
