
     RDKit          3D

 37 40  0  0  0  0  0  0  0  0999 V2000
  -15.8022  -12.1613   -4.7482 C   0  0  0  0  0  0  0  0  0  0  0  0
  -15.7126  -11.6878   -3.3379 C   0  0  0  0  0  0  0  0  0  0  0  0
  -15.3817  -10.1922   -3.1975 C   0  0  0  0  0  0  0  0  0  0  0  0
  -14.5259  -10.5876   -2.0346 C   0  0  0  0  0  0  0  0  0  0  0  0
  -14.3320  -11.9216   -2.7071 C   0  0  0  0  0  0  0  0  0  0  0  0
  -13.2612   -9.7992   -1.8035 C   0  0  0  0  0  0  0  0  0  0  0  0
  -13.5395   -8.3669   -1.5559 C   0  0  0  0  0  0  0  0  0  0  0  0
  -13.5371   -7.7749   -0.2997 C   0  0  0  0  0  0  0  0  0  0  0  0
  -13.8079   -6.4411   -0.1207 C   0  0  0  0  0  0  0  0  0  0  0  0
  -14.1006   -5.6080   -1.1940 C   0  0  0  0  0  0  0  0  0  0  0  0
  -14.1087   -6.1730   -2.4471 C   0  0  0  0  0  0  0  0  0  0  0  0
  -13.8322   -7.5200   -2.5992 C   0  0  0  0  0  0  0  0  0  0  0  0
  -14.3834   -4.1955   -0.9674 C   0  0  0  0  0  0  0  0  0  0  0  0
  -14.5707   -3.4531   -1.9629 O   0  0  0  0  0  0  0  0  0  0  0  0
  -14.4546   -3.6332    0.3144 N   0  0  0  0  0  0  0  0  0  0  0  0
  -14.6887   -2.1995    0.5268 C   0  0  0  0  0  0  0  0  0  0  0  0
  -13.3631   -1.4763    0.4842 C   0  0  0  0  0  0  0  0  0  0  0  0
  -12.7416   -1.3884    1.8100 C   0  0  0  0  0  0  0  0  0  0  0  0
  -13.1225   -0.5377    2.6397 O   0  0  0  0  0  0  0  0  0  0  0  0
  -11.7230   -2.2503    2.1567 O   0  0  0  0  0  0  0  0  0  0  0  0
  -12.4416  -10.3960   -0.7690 N   0  0  0  0  0  0  0  0  0  0  0  0
  -11.1042  -10.8028   -0.9318 C   0  0  0  0  0  0  0  0  0  0  0  0
  -10.5057  -10.6176   -2.1808 C   0  0  0  0  0  0  0  0  0  0  0  0
   -9.2342  -10.9978   -2.3281 N   0  0  0  0  0  0  0  0  0  0  0  0
   -8.5132  -11.5440   -1.3404 C   0  0  0  0  0  0  0  0  0  0  0  0
   -9.0655  -11.7430   -0.0960 C   0  0  0  0  0  0  0  0  0  0  0  0
  -10.3780  -11.3650    0.1030 C   0  0  0  0  0  0  0  0  0  0  0  0
   -7.1702  -11.9002   -1.6436 N   0  0  0  0  0  0  0  0  0  0  0  0
   -6.5985  -11.6552   -2.8351 C   0  0  0  0  0  0  0  0  0  0  0  0
   -5.2929  -12.1462   -2.7431 C   0  0  0  0  0  0  0  0  0  0  0  0
   -5.1121  -12.6677   -1.5158 N   0  0  0  0  0  0  0  0  0  0  0  0
   -6.2799  -12.5078   -0.8503 C   0  0  0  0  0  0  0  0  0  0  0  0
   -4.2882  -12.0908   -3.8328 C   0  0  0  0  0  0  0  0  0  0  0  0
   -3.1922  -11.3781   -3.3855 F   0  0  0  0  0  0  0  0  0  0  0  0
   -3.9372  -13.4023   -4.1393 F   0  0  0  0  0  0  0  0  0  0  0  0
   -4.8494  -11.5118   -4.9696 F   0  0  0  0  0  0  0  0  0  0  0  0
  -16.8668  -12.0270   -2.4421 C   0  0  0  0  0  0  0  0  0  0  0  0
  1  2  1  0
  2  3  1  0
  3  4  1  0
  4  5  1  0
  4  6  1  0
  6  7  1  0
  7  8  2  0
  8  9  1  0
  9 10  2  0
 10 11  1  0
 11 12  2  0
 10 13  1  0
 13 14  2  0
 13 15  1  0
 15 16  1  0
 16 17  1  0
 17 18  1  0
 18 19  2  0
 18 20  1  0
  6 21  1  0
 21 22  1  0
 22 23  2  0
 23 24  1  0
 24 25  2  0
 25 26  1  0
 26 27  2  0
 25 28  1  0
 28 29  1  0
 29 30  2  0
 30 31  1  0
 31 32  2  0
 30 33  1  0
 33 34  1  0
 33 35  1  0
 33 36  1  0
  2 37  1  0
  5  2  1  0
 12  7  1  0
 27 22  1  0
 32 28  1  0
M  END
$$$$
