
     RDKit          3D

 37 40  0  0  0  0  0  0  0  0999 V2000
  -11.5918  -11.0869    3.2873 C   0  0  0  0  0  0  0  0  0  0  0  0
  -11.5071  -10.9138    1.8095 C   0  0  0  0  0  0  0  0  0  0  0  0
  -10.1632  -10.3486    1.3195 C   0  0  0  0  0  0  0  0  0  0  0  0
  -10.9634   -9.5588    0.3312 C   0  0  0  0  0  0  0  0  0  0  0  0
  -12.0992   -9.5838    1.3206 C   0  0  0  0  0  0  0  0  0  0  0  0
  -10.4603   -8.1834   -0.0287 C   0  0  0  0  0  0  0  0  0  0  0  0
   -9.8544   -8.1515   -1.3786 C   0  0  0  0  0  0  0  0  0  0  0  0
   -8.5298   -8.4681   -1.6495 C   0  0  0  0  0  0  0  0  0  0  0  0
   -8.0121   -8.4173   -2.9200 C   0  0  0  0  0  0  0  0  0  0  0  0
   -8.7916   -8.0440   -4.0084 C   0  0  0  0  0  0  0  0  0  0  0  0
  -10.1063   -7.7261   -3.7633 C   0  0  0  0  0  0  0  0  0  0  0  0
  -10.6023   -7.7856   -2.4732 C   0  0  0  0  0  0  0  0  0  0  0  0
   -8.2091   -8.0012   -5.3446 C   0  0  0  0  0  0  0  0  0  0  0  0
   -6.9584   -8.0287   -5.4559 O   0  0  0  0  0  0  0  0  0  0  0  0
   -8.9870   -7.9307   -6.5084 N   0  0  0  0  0  0  0  0  0  0  0  0
   -8.3961   -7.6831   -7.8293 C   0  0  0  0  0  0  0  0  0  0  0  0
   -7.7301   -8.9501   -8.3121 C   0  0  0  0  0  0  0  0  0  0  0  0
   -6.9029   -8.7180   -9.5011 C   0  0  0  0  0  0  0  0  0  0  0  0
   -6.8191   -9.5796  -10.3999 O   0  0  0  0  0  0  0  0  0  0  0  0
   -6.2043   -7.5377   -9.6400 O   0  0  0  0  0  0  0  0  0  0  0  0
  -11.4869   -7.1766    0.1467 N   0  0  0  0  0  0  0  0  0  0  0  0
  -11.2472   -5.8174    0.4221 C   0  0  0  0  0  0  0  0  0  0  0  0
   -9.9267   -5.4086    0.6258 C   0  0  0  0  0  0  0  0  0  0  0  0
   -9.7034   -4.1166    0.8788 N   0  0  0  0  0  0  0  0  0  0  0  0
  -10.6805   -3.2031    0.9454 C   0  0  0  0  0  0  0  0  0  0  0  0
  -11.9937   -3.5649    0.7507 C   0  0  0  0  0  0  0  0  0  0  0  0
  -12.2724   -4.8906    0.4860 C   0  0  0  0  0  0  0  0  0  0  0  0
  -10.2928   -1.8635    1.2235 N   0  0  0  0  0  0  0  0  0  0  0  0
   -9.0314   -1.5144    1.5294 C   0  0  0  0  0  0  0  0  0  0  0  0
   -9.0537   -0.1314    1.7318 C   0  0  0  0  0  0  0  0  0  0  0  0
  -10.3101    0.3130    1.5455 N   0  0  0  0  0  0  0  0  0  0  0  0
  -11.0619   -0.7682    1.2326 C   0  0  0  0  0  0  0  0  0  0  0  0
   -7.8733    0.6911    2.0923 C   0  0  0  0  0  0  0  0  0  0  0  0
   -7.1145   -0.0067    3.0122 F   0  0  0  0  0  0  0  0  0  0  0  0
   -7.1532    0.9168    0.9227 F   0  0  0  0  0  0  0  0  0  0  0  0
   -8.2867    1.9235    2.5952 F   0  0  0  0  0  0  0  0  0  0  0  0
  -11.8808  -12.1014    0.9729 C   0  0  0  0  0  0  0  0  0  0  0  0
  1  2  1  0
  2  3  1  0
  3  4  1  0
  4  5  1  0
  4  6  1  0
  6  7  1  0
  7  8  2  0
  8  9  1  0
  9 10  2  0
 10 11  1  0
 11 12  2  0
 10 13  1  0
 13 14  2  0
 13 15  1  0
 15 16  1  0
 16 17  1  0
 17 18  1  0
 18 19  2  0
 18 20  1  0
  6 21  1  0
 21 22  1  0
 22 23  2  0
 23 24  1  0
 24 25  2  0
 25 26  1  0
 26 27  2  0
 25 28  1  0
 28 29  1  0
 29 30  2  0
 30 31  1  0
 31 32  2  0
 30 33  1  0
 33 34  1  0
 33 35  1  0
 33 36  1  0
  2 37  1  0
  5  2  1  0
 12  7  1  0
 27 22  1  0
 32 28  1  0
M  END
$$$$
