
     RDKit          3D

 37 40  0  0  0  0  0  0  0  0999 V2000
  -13.8065  -12.6896   -1.9738 C   0  0  0  0  0  0  0  0  0  0  0  0
  -13.8958  -12.7873   -3.4582 C   0  0  0  0  0  0  0  0  0  0  0  0
  -12.6289  -12.3214   -4.1956 C   0  0  0  0  0  0  0  0  0  0  0  0
  -13.5535  -11.7231   -5.2096 C   0  0  0  0  0  0  0  0  0  0  0  0
  -14.5672  -11.5674   -4.1061 C   0  0  0  0  0  0  0  0  0  0  0  0
  -13.1232  -10.4362   -5.8677 C   0  0  0  0  0  0  0  0  0  0  0  0
  -12.7039   -9.4209   -4.8760 C   0  0  0  0  0  0  0  0  0  0  0  0
  -11.3941   -8.9956   -4.6973 C   0  0  0  0  0  0  0  0  0  0  0  0
  -11.0539   -8.0539   -3.7581 C   0  0  0  0  0  0  0  0  0  0  0  0
  -12.0086   -7.4732   -2.9317 C   0  0  0  0  0  0  0  0  0  0  0  0
  -13.3121   -7.8794   -3.0913 C   0  0  0  0  0  0  0  0  0  0  0  0
  -13.6273   -8.8303   -4.0455 C   0  0  0  0  0  0  0  0  0  0  0  0
  -11.6120   -6.4756   -1.9448 C   0  0  0  0  0  0  0  0  0  0  0  0
  -10.4224   -6.0729   -1.9422 O   0  0  0  0  0  0  0  0  0  0  0  0
  -12.5031   -5.9483   -1.0001 N   0  0  0  0  0  0  0  0  0  0  0  0
  -12.1472   -4.8147   -0.1379 C   0  0  0  0  0  0  0  0  0  0  0  0
  -11.9084   -3.5991   -1.0025 C   0  0  0  0  0  0  0  0  0  0  0  0
  -11.9382   -2.3561   -0.2242 C   0  0  0  0  0  0  0  0  0  0  0  0
  -10.8799   -1.7969    0.1286 O   0  0  0  0  0  0  0  0  0  0  0  0
  -13.1436   -1.7877    0.1286 O   0  0  0  0  0  0  0  0  0  0  0  0
  -12.1216  -10.6673   -6.8882 N   0  0  0  0  0  0  0  0  0  0  0  0
  -12.2545  -10.3176   -8.2449 C   0  0  0  0  0  0  0  0  0  0  0  0
  -13.4185   -9.6561   -8.6446 C   0  0  0  0  0  0  0  0  0  0  0  0
  -13.5366   -9.3191   -9.9313 N   0  0  0  0  0  0  0  0  0  0  0  0
  -12.5969   -9.5847  -10.8479 C   0  0  0  0  0  0  0  0  0  0  0  0
  -11.4363  -10.2341  -10.4949 C   0  0  0  0  0  0  0  0  0  0  0  0
  -11.2704  -10.6018   -9.1749 C   0  0  0  0  0  0  0  0  0  0  0  0
  -12.8602   -9.1661  -12.1812 N   0  0  0  0  0  0  0  0  0  0  0  0
  -13.9762   -8.5058  -12.5348 C   0  0  0  0  0  0  0  0  0  0  0  0
  -13.8669   -8.2746  -13.9091 C   0  0  0  0  0  0  0  0  0  0  0  0
  -12.7042   -8.7939  -14.3441 N   0  0  0  0  0  0  0  0  0  0  0  0
  -12.0954   -9.3401  -13.2656 C   0  0  0  0  0  0  0  0  0  0  0  0
  -14.8792   -7.5700  -14.7329 C   0  0  0  0  0  0  0  0  0  0  0  0
  -14.4713   -7.5996  -16.0526 F   0  0  0  0  0  0  0  0  0  0  0  0
  -16.0866   -8.2433  -14.5703 F   0  0  0  0  0  0  0  0  0  0  0  0
  -15.0422   -6.2641  -14.2739 F   0  0  0  0  0  0  0  0  0  0  0  0
  -14.3391  -14.1065   -4.0177 C   0  0  0  0  0  0  0  0  0  0  0  0
  1  2  1  0
  2  3  1  0
  3  4  1  0
  4  5  1  0
  4  6  1  0
  6  7  1  0
  7  8  2  0
  8  9  1  0
  9 10  2  0
 10 11  1  0
 11 12  2  0
 10 13  1  0
 13 14  2  0
 13 15  1  0
 15 16  1  0
 16 17  1  0
 17 18  1  0
 18 19  2  0
 18 20  1  0
  6 21  1  0
 21 22  1  0
 22 23  2  0
 23 24  1  0
 24 25  2  0
 25 26  1  0
 26 27  2  0
 25 28  1  0
 28 29  1  0
 29 30  2  0
 30 31  1  0
 31 32  2  0
 30 33  1  0
 33 34  1  0
 33 35  1  0
 33 36  1  0
  2 37  1  0
  5  2  1  0
 12  7  1  0
 27 22  1  0
 32 28  1  0
M  END
$$$$
