
     RDKit          3D

 37 40  0  0  0  0  0  0  0  0999 V2000
  -13.9911  -16.0428   -7.8453 C   0  0  0  0  0  0  0  0  0  0  0  0
  -14.5259  -14.6983   -7.4883 C   0  0  0  0  0  0  0  0  0  0  0  0
  -14.6661  -13.7406   -8.6836 C   0  0  0  0  0  0  0  0  0  0  0  0
  -14.1988  -12.6638   -7.7545 C   0  0  0  0  0  0  0  0  0  0  0  0
  -13.4424  -13.7257   -6.9997 C   0  0  0  0  0  0  0  0  0  0  0  0
  -13.3460  -11.5652   -8.3379 C   0  0  0  0  0  0  0  0  0  0  0  0
  -13.9503  -10.2294   -8.1364 C   0  0  0  0  0  0  0  0  0  0  0  0
  -15.2194   -9.8708   -8.5714 C   0  0  0  0  0  0  0  0  0  0  0  0
  -15.7339   -8.6149   -8.3655 C   0  0  0  0  0  0  0  0  0  0  0  0
  -15.0072   -7.6302   -7.7067 C   0  0  0  0  0  0  0  0  0  0  0  0
  -13.7479   -7.9633   -7.2674 C   0  0  0  0  0  0  0  0  0  0  0  0
  -13.2537   -9.2365   -7.4882 C   0  0  0  0  0  0  0  0  0  0  0  0
  -15.5849   -6.3066   -7.5050 C   0  0  0  0  0  0  0  0  0  0  0  0
  -14.8809   -5.4205   -6.9606 O   0  0  0  0  0  0  0  0  0  0  0  0
  -16.8922   -5.9833   -7.8934 N   0  0  0  0  0  0  0  0  0  0  0  0
  -17.4359   -4.6268   -7.7538 C   0  0  0  0  0  0  0  0  0  0  0  0
  -16.6565   -3.6933   -8.6500 C   0  0  0  0  0  0  0  0  0  0  0  0
  -16.8296   -4.0212  -10.0693 C   0  0  0  0  0  0  0  0  0  0  0  0
  -17.5227   -4.9978  -10.4201 O   0  0  0  0  0  0  0  0  0  0  0  0
  -16.2246   -3.2491  -11.0380 O   0  0  0  0  0  0  0  0  0  0  0  0
  -11.9805  -11.6385   -7.8600 N   0  0  0  0  0  0  0  0  0  0  0  0
  -11.5647  -11.3298   -6.5514 C   0  0  0  0  0  0  0  0  0  0  0  0
  -10.1934  -11.2985   -6.2851 C   0  0  0  0  0  0  0  0  0  0  0  0
   -9.8036  -10.9973   -5.0439 N   0  0  0  0  0  0  0  0  0  0  0  0
  -10.6611  -10.7262   -4.0516 C   0  0  0  0  0  0  0  0  0  0  0  0
  -12.0191  -10.7464   -4.2728 C   0  0  0  0  0  0  0  0  0  0  0  0
  -12.4687  -11.0528   -5.5413 C   0  0  0  0  0  0  0  0  0  0  0  0
  -10.1009  -10.4221   -2.7805 N   0  0  0  0  0  0  0  0  0  0  0  0
   -8.7765  -10.3593   -2.5596 C   0  0  0  0  0  0  0  0  0  0  0  0
   -8.6271  -10.0396   -1.2070 C   0  0  0  0  0  0  0  0  0  0  0  0
   -9.8477   -9.9192   -0.6535 N   0  0  0  0  0  0  0  0  0  0  0  0
  -10.7456  -10.1583   -1.6377 C   0  0  0  0  0  0  0  0  0  0  0  0
   -7.3262   -9.8664   -0.5161 C   0  0  0  0  0  0  0  0  0  0  0  0
   -6.3109  -10.0909   -1.4260 F   0  0  0  0  0  0  0  0  0  0  0  0
   -7.2834   -8.5609   -0.0354 F   0  0  0  0  0  0  0  0  0  0  0  0
   -7.2444  -10.7350    0.5708 F   0  0  0  0  0  0  0  0  0  0  0  0
  -15.7895  -14.6723   -6.6805 C   0  0  0  0  0  0  0  0  0  0  0  0
  1  2  1  0
  2  3  1  0
  3  4  1  0
  4  5  1  0
  4  6  1  0
  6  7  1  0
  7  8  2  0
  8  9  1  0
  9 10  2  0
 10 11  1  0
 11 12  2  0
 10 13  1  0
 13 14  2  0
 13 15  1  0
 15 16  1  0
 16 17  1  0
 17 18  1  0
 18 19  2  0
 18 20  1  0
  6 21  1  0
 21 22  1  0
 22 23  2  0
 23 24  1  0
 24 25  2  0
 25 26  1  0
 26 27  2  0
 25 28  1  0
 28 29  1  0
 29 30  2  0
 30 31  1  0
 31 32  2  0
 30 33  1  0
 33 34  1  0
 33 35  1  0
 33 36  1  0
  2 37  1  0
  5  2  1  0
 12  7  1  0
 27 22  1  0
 32 28  1  0
M  END
$$$$
