
     RDKit          3D

 37 40  0  0  0  0  0  0  0  0999 V2000
  -19.7452  -10.1389   -6.5771 C   0  0  0  0  0  0  0  0  0  0  0  0
  -18.4541  -10.8044   -6.9109 C   0  0  0  0  0  0  0  0  0  0  0  0
  -17.2089   -9.9828   -6.5364 C   0  0  0  0  0  0  0  0  0  0  0  0
  -16.6118  -10.4811   -7.8155 C   0  0  0  0  0  0  0  0  0  0  0  0
  -18.0120  -10.5743   -8.3635 C   0  0  0  0  0  0  0  0  0  0  0  0
  -15.6942   -9.5469   -8.5636 C   0  0  0  0  0  0  0  0  0  0  0  0
  -14.5803   -9.0681   -7.7150 C   0  0  0  0  0  0  0  0  0  0  0  0
  -13.2420   -9.3616   -7.9413 C   0  0  0  0  0  0  0  0  0  0  0  0
  -12.2440   -8.8981   -7.1204 C   0  0  0  0  0  0  0  0  0  0  0  0
  -12.5225   -8.1060   -6.0129 C   0  0  0  0  0  0  0  0  0  0  0  0
  -13.8411   -7.8030   -5.7697 C   0  0  0  0  0  0  0  0  0  0  0  0
  -14.8270   -8.2833   -6.6130 C   0  0  0  0  0  0  0  0  0  0  0  0
  -11.4375   -7.6307   -5.1624 C   0  0  0  0  0  0  0  0  0  0  0  0
  -10.2537   -7.8384   -5.5265 O   0  0  0  0  0  0  0  0  0  0  0  0
  -11.6617   -6.9522   -3.9566 N   0  0  0  0  0  0  0  0  0  0  0  0
  -10.7524   -5.9091   -3.4663 C   0  0  0  0  0  0  0  0  0  0  0  0
   -9.3869   -6.5158   -3.2443 C   0  0  0  0  0  0  0  0  0  0  0  0
   -8.3954   -6.0023   -4.1956 C   0  0  0  0  0  0  0  0  0  0  0  0
   -8.1767   -6.5933   -5.2727 O   0  0  0  0  0  0  0  0  0  0  0  0
   -7.6896   -4.8534   -3.9088 O   0  0  0  0  0  0  0  0  0  0  0  0
  -15.2374  -10.1304   -9.8083 N   0  0  0  0  0  0  0  0  0  0  0  0
  -14.9275   -9.4062  -10.9745 C   0  0  0  0  0  0  0  0  0  0  0  0
  -14.4093  -10.1060  -12.0673 C   0  0  0  0  0  0  0  0  0  0  0  0
  -14.1244   -9.4159  -13.1744 N   0  0  0  0  0  0  0  0  0  0  0  0
  -14.3117   -8.0942  -13.2830 C   0  0  0  0  0  0  0  0  0  0  0  0
  -14.8200   -7.3688  -12.2300 C   0  0  0  0  0  0  0  0  0  0  0  0
  -15.1294   -8.0405  -11.0646 C   0  0  0  0  0  0  0  0  0  0  0  0
  -13.9626   -7.4934  -14.5237 N   0  0  0  0  0  0  0  0  0  0  0  0
  -13.4951   -8.1941  -15.5711 C   0  0  0  0  0  0  0  0  0  0  0  0
  -13.2714   -7.2617  -16.5883 C   0  0  0  0  0  0  0  0  0  0  0  0
  -13.6048   -6.0391  -16.1356 N   0  0  0  0  0  0  0  0  0  0  0  0
  -14.0291   -6.1998  -14.8603 C   0  0  0  0  0  0  0  0  0  0  0  0
  -12.7512   -7.5889  -17.9382 C   0  0  0  0  0  0  0  0  0  0  0  0
  -13.7409   -7.3293  -18.8666 F   0  0  0  0  0  0  0  0  0  0  0  0
  -11.6381   -6.7830  -18.1594 F   0  0  0  0  0  0  0  0  0  0  0  0
  -12.3418   -8.9205  -17.9813 F   0  0  0  0  0  0  0  0  0  0  0  0
  -18.2823  -12.2142   -6.4285 C   0  0  0  0  0  0  0  0  0  0  0  0
  1  2  1  0
  2  3  1  0
  3  4  1  0
  4  5  1  0
  4  6  1  0
  6  7  1  0
  7  8  2  0
  8  9  1  0
  9 10  2  0
 10 11  1  0
 11 12  2  0
 10 13  1  0
 13 14  2  0
 13 15  1  0
 15 16  1  0
 16 17  1  0
 17 18  1  0
 18 19  2  0
 18 20  1  0
  6 21  1  0
 21 22  1  0
 22 23  2  0
 23 24  1  0
 24 25  2  0
 25 26  1  0
 26 27  2  0
 25 28  1  0
 28 29  1  0
 29 30  2  0
 30 31  1  0
 31 32  2  0
 30 33  1  0
 33 34  1  0
 33 35  1  0
 33 36  1  0
  2 37  1  0
  5  2  1  0
 12  7  1  0
 27 22  1  0
 32 28  1  0
M  END
$$$$
