
     RDKit          3D

 37 40  0  0  0  0  0  0  0  0999 V2000
   -3.3798    0.6319   -2.8689 C   0  0  0  0  0  0  0  0  0  0  0  0
   -3.7287   -0.2150   -1.6932 C   0  0  0  0  0  0  0  0  0  0  0  0
   -5.1393    0.0373   -1.1342 C   0  0  0  0  0  0  0  0  0  0  0  0
   -4.5301   -0.1368    0.2222 C   0  0  0  0  0  0  0  0  0  0  0  0
   -3.2351    0.3664   -0.3602 C   0  0  0  0  0  0  0  0  0  0  0  0
   -5.0907    0.6966    1.3472 C   0  0  0  0  0  0  0  0  0  0  0  0
   -6.5339    0.4446    1.5565 C   0  0  0  0  0  0  0  0  0  0  0  0
   -7.5258    1.4050    1.4070 C   0  0  0  0  0  0  0  0  0  0  0  0
   -8.8525    1.1233    1.6189 C   0  0  0  0  0  0  0  0  0  0  0  0
   -9.2753   -0.1457    1.9965 C   0  0  0  0  0  0  0  0  0  0  0  0
   -8.3100   -1.1122    2.1506 C   0  0  0  0  0  0  0  0  0  0  0  0
   -6.9800   -0.8013    1.9307 C   0  0  0  0  0  0  0  0  0  0  0  0
  -10.6930   -0.4099    2.2130 C   0  0  0  0  0  0  0  0  0  0  0  0
  -11.5107    0.5295    2.0511 O   0  0  0  0  0  0  0  0  0  0  0  0
  -11.1798   -1.6678    2.5939 N   0  0  0  0  0  0  0  0  0  0  0  0
  -12.6100   -1.9198    2.8088 C   0  0  0  0  0  0  0  0  0  0  0  0
  -13.3603   -1.5913    1.5395 C   0  0  0  0  0  0  0  0  0  0  0  0
  -13.4638   -2.7502    0.6461 C   0  0  0  0  0  0  0  0  0  0  0  0
  -14.2333   -3.6959    0.9120 O   0  0  0  0  0  0  0  0  0  0  0  0
  -12.7074   -2.8080   -0.5049 O   0  0  0  0  0  0  0  0  0  0  0  0
   -4.3154    0.5451    2.5614 N   0  0  0  0  0  0  0  0  0  0  0  0
   -4.2672    1.4807    3.6115 C   0  0  0  0  0  0  0  0  0  0  0  0
   -3.3405    1.2746    4.6368 C   0  0  0  0  0  0  0  0  0  0  0  0
   -3.2931    2.1694    5.6268 N   0  0  0  0  0  0  0  0  0  0  0  0
   -4.0874    3.2464    5.6803 C   0  0  0  0  0  0  0  0  0  0  0  0
   -5.0129    3.4854    4.6905 C   0  0  0  0  0  0  0  0  0  0  0  0
   -5.0977    2.5868    3.6463 C   0  0  0  0  0  0  0  0  0  0  0  0
   -3.9244    4.1129    6.7960 N   0  0  0  0  0  0  0  0  0  0  0  0
   -3.0537    3.8704    7.7908 C   0  0  0  0  0  0  0  0  0  0  0  0
   -3.1871    4.9353    8.6865 C   0  0  0  0  0  0  0  0  0  0  0  0
   -4.1218    5.7816    8.2164 N   0  0  0  0  0  0  0  0  0  0  0  0
   -4.5665    5.2595    7.0495 C   0  0  0  0  0  0  0  0  0  0  0  0
   -2.4145    5.0871    9.9435 C   0  0  0  0  0  0  0  0  0  0  0  0
   -1.1354    4.6081    9.7348 F   0  0  0  0  0  0  0  0  0  0  0  0
   -2.3929    6.4435   10.2549 F   0  0  0  0  0  0  0  0  0  0  0  0
   -3.0543    4.4109   10.9808 F   0  0  0  0  0  0  0  0  0  0  0  0
   -3.5105   -1.6915   -1.8422 C   0  0  0  0  0  0  0  0  0  0  0  0
  1  2  1  0
  2  3  1  0
  3  4  1  0
  4  5  1  0
  4  6  1  0
  6  7  1  0
  7  8  2  0
  8  9  1  0
  9 10  2  0
 10 11  1  0
 11 12  2  0
 10 13  1  0
 13 14  2  0
 13 15  1  0
 15 16  1  0
 16 17  1  0
 17 18  1  0
 18 19  2  0
 18 20  1  0
  6 21  1  0
 21 22  1  0
 22 23  2  0
 23 24  1  0
 24 25  2  0
 25 26  1  0
 26 27  2  0
 25 28  1  0
 28 29  1  0
 29 30  2  0
 30 31  1  0
 31 32  2  0
 30 33  1  0
 33 34  1  0
 33 35  1  0
 33 36  1  0
  2 37  1  0
  5  2  1  0
 12  7  1  0
 27 22  1  0
 32 28  1  0
M  END
$$$$
