
     RDKit          3D

 37 40  0  0  0  0  0  0  0  0999 V2000
  -11.4604    2.1625    7.0882 C   0  0  0  0  0  0  0  0  0  0  0  0
  -10.3266    1.2288    6.8350 C   0  0  0  0  0  0  0  0  0  0  0  0
   -9.5279    1.5426    5.5585 C   0  0  0  0  0  0  0  0  0  0  0  0
   -9.4430    0.0611    5.3610 C   0  0  0  0  0  0  0  0  0  0  0  0
  -10.7497   -0.0527    6.1019 C   0  0  0  0  0  0  0  0  0  0  0  0
   -9.4660   -0.4527    3.9433 C   0  0  0  0  0  0  0  0  0  0  0  0
   -8.3772    0.1282    3.1264 C   0  0  0  0  0  0  0  0  0  0  0  0
   -8.4196    1.3907    2.5496 C   0  0  0  0  0  0  0  0  0  0  0  0
   -7.3849    1.8832    1.7938 C   0  0  0  0  0  0  0  0  0  0  0  0
   -6.2334    1.1395    1.5648 C   0  0  0  0  0  0  0  0  0  0  0  0
   -6.1698   -0.1137    2.1263 C   0  0  0  0  0  0  0  0  0  0  0  0
   -7.2270   -0.5856    2.8836 C   0  0  0  0  0  0  0  0  0  0  0  0
   -5.1533    1.6940    0.7570 C   0  0  0  0  0  0  0  0  0  0  0  0
   -5.2227    2.8979    0.4062 O   0  0  0  0  0  0  0  0  0  0  0  0
   -4.0422    0.9392    0.3567 N   0  0  0  0  0  0  0  0  0  0  0  0
   -3.0201    1.4744   -0.5511 C   0  0  0  0  0  0  0  0  0  0  0  0
   -3.2996    0.9763   -1.9497 C   0  0  0  0  0  0  0  0  0  0  0  0
   -4.2087    1.8669   -2.6793 C   0  0  0  0  0  0  0  0  0  0  0  0
   -4.5678    2.9563   -2.1879 O   0  0  0  0  0  0  0  0  0  0  0  0
   -4.6797    1.5081   -3.9242 O   0  0  0  0  0  0  0  0  0  0  0  0
   -9.4850   -1.9005    3.9004 N   0  0  0  0  0  0  0  0  0  0  0  0
  -10.2445   -2.6724    3.0015 C   0  0  0  0  0  0  0  0  0  0  0  0
  -10.2087   -4.0630    3.1327 C   0  0  0  0  0  0  0  0  0  0  0  0
  -10.9373   -4.7909    2.2827 N   0  0  0  0  0  0  0  0  0  0  0  0
  -11.6943   -4.2519    1.3184 C   0  0  0  0  0  0  0  0  0  0  0  0
  -11.7569   -2.8869    1.1561 C   0  0  0  0  0  0  0  0  0  0  0  0
  -11.0200   -2.0940    2.0125 C   0  0  0  0  0  0  0  0  0  0  0  0
  -12.4163   -5.1516    0.4869 N   0  0  0  0  0  0  0  0  0  0  0  0
  -12.2594   -6.4854    0.5411 C   0  0  0  0  0  0  0  0  0  0  0  0
  -13.1302   -7.0141   -0.4162 C   0  0  0  0  0  0  0  0  0  0  0  0
  -13.7814   -6.0004   -1.0155 N   0  0  0  0  0  0  0  0  0  0  0  0
  -13.3293   -4.8584   -0.4467 C   0  0  0  0  0  0  0  0  0  0  0  0
  -13.2931   -8.4594   -0.7069 C   0  0  0  0  0  0  0  0  0  0  0  0
  -14.6020   -8.8164   -0.4455 F   0  0  0  0  0  0  0  0  0  0  0  0
  -12.9851   -8.6485   -2.0511 F   0  0  0  0  0  0  0  0  0  0  0  0
  -12.3947   -9.2033    0.0560 F   0  0  0  0  0  0  0  0  0  0  0  0
   -9.3758    1.0046    7.9731 C   0  0  0  0  0  0  0  0  0  0  0  0
  1  2  1  0
  2  3  1  0
  3  4  1  0
  4  5  1  0
  4  6  1  0
  6  7  1  0
  7  8  2  0
  8  9  1  0
  9 10  2  0
 10 11  1  0
 11 12  2  0
 10 13  1  0
 13 14  2  0
 13 15  1  0
 15 16  1  0
 16 17  1  0
 17 18  1  0
 18 19  2  0
 18 20  1  0
  6 21  1  0
 21 22  1  0
 22 23  2  0
 23 24  1  0
 24 25  2  0
 25 26  1  0
 26 27  2  0
 25 28  1  0
 28 29  1  0
 29 30  2  0
 30 31  1  0
 31 32  2  0
 30 33  1  0
 33 34  1  0
 33 35  1  0
 33 36  1  0
  2 37  1  0
  5  2  1  0
 12  7  1  0
 27 22  1  0
 32 28  1  0
M  END
$$$$
