
     RDKit          3D

 37 40  0  0  0  0  0  0  0  0999 V2000
   -6.4627   -9.0880  -10.5207 C   0  0  0  0  0  0  0  0  0  0  0  0
   -7.5188  -10.1185  -10.3113 C   0  0  0  0  0  0  0  0  0  0  0  0
   -7.6622  -11.1158  -11.4736 C   0  0  0  0  0  0  0  0  0  0  0  0
   -9.1377  -11.0389  -11.2328 C   0  0  0  0  0  0  0  0  0  0  0  0
   -8.9206   -9.6402  -10.7171 C   0  0  0  0  0  0  0  0  0  0  0  0
  -10.0436  -11.1431  -12.4341 C   0  0  0  0  0  0  0  0  0  0  0  0
  -10.2843  -12.5499  -12.8252 C   0  0  0  0  0  0  0  0  0  0  0  0
  -11.2773  -13.3544  -12.2820 C   0  0  0  0  0  0  0  0  0  0  0  0
  -11.4571  -14.6576  -12.6742 C   0  0  0  0  0  0  0  0  0  0  0  0
  -10.6495  -15.2439  -13.6416 C   0  0  0  0  0  0  0  0  0  0  0  0
   -9.6596  -14.4657  -14.1930 C   0  0  0  0  0  0  0  0  0  0  0  0
   -9.5003  -13.1552  -13.7794 C   0  0  0  0  0  0  0  0  0  0  0  0
  -10.8688  -16.6310  -14.0345 C   0  0  0  0  0  0  0  0  0  0  0  0
  -10.1732  -17.1091  -14.9645 O   0  0  0  0  0  0  0  0  0  0  0  0
  -11.8229  -17.4516  -13.4174 N   0  0  0  0  0  0  0  0  0  0  0  0
  -12.0047  -18.8586  -13.7948 C   0  0  0  0  0  0  0  0  0  0  0  0
  -10.9898  -19.6981  -13.0550 C   0  0  0  0  0  0  0  0  0  0  0  0
  -11.4073  -19.9782  -11.6769 C   0  0  0  0  0  0  0  0  0  0  0  0
  -12.6160  -20.0058  -11.3680 O   0  0  0  0  0  0  0  0  0  0  0  0
  -10.4629  -20.2158  -10.7011 O   0  0  0  0  0  0  0  0  0  0  0  0
  -11.2713  -10.3985  -12.2431 N   0  0  0  0  0  0  0  0  0  0  0  0
  -12.0255   -9.8057  -13.2729 C   0  0  0  0  0  0  0  0  0  0  0  0
  -13.1238   -9.0188  -12.9170 C   0  0  0  0  0  0  0  0  0  0  0  0
  -13.8315   -8.4519  -13.8973 N   0  0  0  0  0  0  0  0  0  0  0  0
  -13.5378   -8.6027  -15.1952 C   0  0  0  0  0  0  0  0  0  0  0  0
  -12.4645   -9.3693  -15.5871 C   0  0  0  0  0  0  0  0  0  0  0  0
  -11.7035   -9.9751  -14.6077 C   0  0  0  0  0  0  0  0  0  0  0  0
  -14.3810   -7.9391  -16.1284 N   0  0  0  0  0  0  0  0  0  0  0  0
  -15.4881   -7.2680  -15.7671 C   0  0  0  0  0  0  0  0  0  0  0  0
  -16.0357   -6.7645  -16.9506 C   0  0  0  0  0  0  0  0  0  0  0  0
  -15.2564   -7.1391  -17.9817 N   0  0  0  0  0  0  0  0  0  0  0  0
  -14.2401   -7.8630  -17.4571 C   0  0  0  0  0  0  0  0  0  0  0  0
  -17.2743   -5.9526  -17.0328 C   0  0  0  0  0  0  0  0  0  0  0  0
  -18.3583   -6.8074  -17.0894 F   0  0  0  0  0  0  0  0  0  0  0  0
  -17.3257   -5.1593  -15.8903 F   0  0  0  0  0  0  0  0  0  0  0  0
  -17.2216   -5.1141  -18.1448 F   0  0  0  0  0  0  0  0  0  0  0  0
   -7.4738  -10.8708   -9.0145 C   0  0  0  0  0  0  0  0  0  0  0  0
  1  2  1  0
  2  3  1  0
  3  4  1  0
  4  5  1  0
  4  6  1  0
  6  7  1  0
  7  8  2  0
  8  9  1  0
  9 10  2  0
 10 11  1  0
 11 12  2  0
 10 13  1  0
 13 14  2  0
 13 15  1  0
 15 16  1  0
 16 17  1  0
 17 18  1  0
 18 19  2  0
 18 20  1  0
  6 21  1  0
 21 22  1  0
 22 23  2  0
 23 24  1  0
 24 25  2  0
 25 26  1  0
 26 27  2  0
 25 28  1  0
 28 29  1  0
 29 30  2  0
 30 31  1  0
 31 32  2  0
 30 33  1  0
 33 34  1  0
 33 35  1  0
 33 36  1  0
  2 37  1  0
  5  2  1  0
 12  7  1  0
 27 22  1  0
 32 28  1  0
M  END
$$$$
