
     RDKit          3D

 37 40  0  0  0  0  0  0  0  0999 V2000
  -18.7969   -6.9282  -12.3039 C   0  0  0  0  0  0  0  0  0  0  0  0
  -17.8701   -7.1878  -13.4418 C   0  0  0  0  0  0  0  0  0  0  0  0
  -17.3244   -8.6250  -13.4918 C   0  0  0  0  0  0  0  0  0  0  0  0
  -16.0245   -8.0158  -13.9162 C   0  0  0  0  0  0  0  0  0  0  0  0
  -16.4186   -6.7831  -13.1452 C   0  0  0  0  0  0  0  0  0  0  0  0
  -14.7576   -8.6852  -13.4457 C   0  0  0  0  0  0  0  0  0  0  0  0
  -14.5558  -10.0024  -14.0895 C   0  0  0  0  0  0  0  0  0  0  0  0
  -15.5850  -10.8246  -14.5291 C   0  0  0  0  0  0  0  0  0  0  0  0
  -15.3465  -12.0426  -15.1156 C   0  0  0  0  0  0  0  0  0  0  0  0
  -14.0544  -12.5198  -15.3014 C   0  0  0  0  0  0  0  0  0  0  0  0
  -13.0198  -11.7222  -14.8735 C   0  0  0  0  0  0  0  0  0  0  0  0
  -13.2884  -10.4991  -14.2854 C   0  0  0  0  0  0  0  0  0  0  0  0
  -13.8376  -13.8184  -15.9284 C   0  0  0  0  0  0  0  0  0  0  0  0
  -14.6732  -14.2246  -16.7734 O   0  0  0  0  0  0  0  0  0  0  0  0
  -12.7360  -14.6308  -15.6269 N   0  0  0  0  0  0  0  0  0  0  0  0
  -12.3414  -15.7597  -16.4785 C   0  0  0  0  0  0  0  0  0  0  0  0
  -13.3558  -16.8681  -16.3218 C   0  0  0  0  0  0  0  0  0  0  0  0
  -13.2180  -17.8912  -17.3640 C   0  0  0  0  0  0  0  0  0  0  0  0
  -14.2241  -18.4347  -17.8636 O   0  0  0  0  0  0  0  0  0  0  0  0
  -11.9673  -18.2664  -17.8061 O   0  0  0  0  0  0  0  0  0  0  0  0
  -13.6093   -7.8133  -13.5857 N   0  0  0  0  0  0  0  0  0  0  0  0
  -12.4552   -7.8616  -12.7819 C   0  0  0  0  0  0  0  0  0  0  0  0
  -12.4198   -8.7843  -11.7332 C   0  0  0  0  0  0  0  0  0  0  0  0
  -11.3194   -8.8320  -10.9783 N   0  0  0  0  0  0  0  0  0  0  0  0
  -10.2573   -8.0415  -11.1799 C   0  0  0  0  0  0  0  0  0  0  0  0
  -10.2523   -7.1201  -12.2017 C   0  0  0  0  0  0  0  0  0  0  0  0
  -11.3690   -7.0352  -13.0086 C   0  0  0  0  0  0  0  0  0  0  0  0
   -9.1554   -8.2043  -10.2957 N   0  0  0  0  0  0  0  0  0  0  0  0
   -8.0209   -7.4912  -10.4001 C   0  0  0  0  0  0  0  0  0  0  0  0
   -7.1918   -7.9345   -9.3656 C   0  0  0  0  0  0  0  0  0  0  0  0
   -7.8376   -8.8903   -8.6728 N   0  0  0  0  0  0  0  0  0  0  0  0
   -9.0475   -9.0446   -9.2597 C   0  0  0  0  0  0  0  0  0  0  0  0
   -5.8269   -7.4210   -9.0947 C   0  0  0  0  0  0  0  0  0  0  0  0
   -4.9548   -8.4916   -9.0477 F   0  0  0  0  0  0  0  0  0  0  0  0
   -5.4964   -6.5556  -10.1336 F   0  0  0  0  0  0  0  0  0  0  0  0
   -5.8176   -6.6972   -7.9036 F   0  0  0  0  0  0  0  0  0  0  0  0
  -18.3555   -6.7934  -14.8051 C   0  0  0  0  0  0  0  0  0  0  0  0
  1  2  1  0
  2  3  1  0
  3  4  1  0
  4  5  1  0
  4  6  1  0
  6  7  1  0
  7  8  2  0
  8  9  1  0
  9 10  2  0
 10 11  1  0
 11 12  2  0
 10 13  1  0
 13 14  2  0
 13 15  1  0
 15 16  1  0
 16 17  1  0
 17 18  1  0
 18 19  2  0
 18 20  1  0
  6 21  1  0
 21 22  1  0
 22 23  2  0
 23 24  1  0
 24 25  2  0
 25 26  1  0
 26 27  2  0
 25 28  1  0
 28 29  1  0
 29 30  2  0
 30 31  1  0
 31 32  2  0
 30 33  1  0
 33 34  1  0
 33 35  1  0
 33 36  1  0
  2 37  1  0
  5  2  1  0
 12  7  1  0
 27 22  1  0
 32 28  1  0
M  END
$$$$
