
     RDKit          3D

 37 40  0  0  0  0  0  0  0  0999 V2000
   -0.1828    2.1953   11.8742 C   0  0  0  0  0  0  0  0  0  0  0  0
   -0.6249    1.1314   10.9288 C   0  0  0  0  0  0  0  0  0  0  0  0
   -0.6575    1.5739    9.4561 C   0  0  0  0  0  0  0  0  0  0  0  0
   -1.9093    0.7615    9.3381 C   0  0  0  0  0  0  0  0  0  0  0  0
   -2.1521    1.0322   10.8000 C   0  0  0  0  0  0  0  0  0  0  0  0
   -2.9819    1.2700    8.4078 C   0  0  0  0  0  0  0  0  0  0  0  0
   -3.5751    2.5380    8.8878 C   0  0  0  0  0  0  0  0  0  0  0  0
   -3.7333    3.6739    8.1048 C   0  0  0  0  0  0  0  0  0  0  0  0
   -4.2845    4.8301    8.5987 C   0  0  0  0  0  0  0  0  0  0  0  0
   -4.7159    4.9251    9.9164 C   0  0  0  0  0  0  0  0  0  0  0  0
   -4.5688    3.8123   10.7100 C   0  0  0  0  0  0  0  0  0  0  0  0
   -4.0100    2.6599   10.1868 C   0  0  0  0  0  0  0  0  0  0  0  0
   -5.2971    6.1689   10.4078 C   0  0  0  0  0  0  0  0  0  0  0  0
   -5.4615    6.3077   11.6451 O   0  0  0  0  0  0  0  0  0  0  0  0
   -5.6793    7.2148    9.5566 N   0  0  0  0  0  0  0  0  0  0  0  0
   -6.3727    8.4107   10.0508 C   0  0  0  0  0  0  0  0  0  0  0  0
   -5.3838    9.2761   10.7959 C   0  0  0  0  0  0  0  0  0  0  0  0
   -4.7659   10.2810    9.9240 C   0  0  0  0  0  0  0  0  0  0  0  0
   -3.5784   10.6273   10.0887 O   0  0  0  0  0  0  0  0  0  0  0  0
   -5.4949   10.8581    8.9062 O   0  0  0  0  0  0  0  0  0  0  0  0
   -2.5068    1.3573    7.0422 N   0  0  0  0  0  0  0  0  0  0  0  0
   -3.2748    1.0668    5.8992 C   0  0  0  0  0  0  0  0  0  0  0  0
   -2.6705    1.2016    4.6466 C   0  0  0  0  0  0  0  0  0  0  0  0
   -3.4008    0.9171    3.5655 N   0  0  0  0  0  0  0  0  0  0  0  0
   -4.6757    0.5117    3.6278 C   0  0  0  0  0  0  0  0  0  0  0  0
   -5.3071    0.3663    4.8417 C   0  0  0  0  0  0  0  0  0  0  0  0
   -4.5909    0.6491    5.9873 C   0  0  0  0  0  0  0  0  0  0  0  0
   -5.3285    0.2450    2.3930 N   0  0  0  0  0  0  0  0  0  0  0  0
   -4.7275    0.3924    1.1998 C   0  0  0  0  0  0  0  0  0  0  0  0
   -5.6823    0.0384    0.2422 C   0  0  0  0  0  0  0  0  0  0  0  0
   -6.8194   -0.3087    0.8725 N   0  0  0  0  0  0  0  0  0  0  0  0
   -6.5841   -0.1757    2.1988 C   0  0  0  0  0  0  0  0  0  0  0  0
   -5.4570    0.0510   -1.2238 C   0  0  0  0  0  0  0  0  0  0  0  0
   -5.8226   -1.1790   -1.7362 F   0  0  0  0  0  0  0  0  0  0  0  0
   -6.2473    1.0660   -1.7554 F   0  0  0  0  0  0  0  0  0  0  0  0
   -4.1230    0.3469   -1.4985 F   0  0  0  0  0  0  0  0  0  0  0  0
    0.0737   -0.1917   11.0343 C   0  0  0  0  0  0  0  0  0  0  0  0
  1  2  1  0
  2  3  1  0
  3  4  1  0
  4  5  1  0
  4  6  1  0
  6  7  1  0
  7  8  2  0
  8  9  1  0
  9 10  2  0
 10 11  1  0
 11 12  2  0
 10 13  1  0
 13 14  2  0
 13 15  1  0
 15 16  1  0
 16 17  1  0
 17 18  1  0
 18 19  2  0
 18 20  1  0
  6 21  1  0
 21 22  1  0
 22 23  2  0
 23 24  1  0
 24 25  2  0
 25 26  1  0
 26 27  2  0
 25 28  1  0
 28 29  1  0
 29 30  2  0
 30 31  1  0
 31 32  2  0
 30 33  1  0
 33 34  1  0
 33 35  1  0
 33 36  1  0
  2 37  1  0
  5  2  1  0
 12  7  1  0
 27 22  1  0
 32 28  1  0
M  END
$$$$
