
     RDKit          3D

 37 40  0  0  0  0  0  0  0  0999 V2000
   -6.0248    0.8419    9.6241 C   0  0  0  0  0  0  0  0  0  0  0  0
   -6.5167    0.6721    8.2276 C   0  0  0  0  0  0  0  0  0  0  0  0
   -5.3990    0.5813    7.1748 C   0  0  0  0  0  0  0  0  0  0  0  0
   -6.2913    1.3997    6.2945 C   0  0  0  0  0  0  0  0  0  0  0  0
   -6.8755    2.0009    7.5462 C   0  0  0  0  0  0  0  0  0  0  0  0
   -5.6323    2.3839    5.3609 C   0  0  0  0  0  0  0  0  0  0  0  0
   -5.6453    3.7591    5.9075 C   0  0  0  0  0  0  0  0  0  0  0  0
   -4.8031    4.2085    6.9159 C   0  0  0  0  0  0  0  0  0  0  0  0
   -4.8580    5.4941    7.3942 C   0  0  0  0  0  0  0  0  0  0  0  0
   -5.7651    6.4191    6.8911 C   0  0  0  0  0  0  0  0  0  0  0  0
   -6.6090    5.9957    5.8920 C   0  0  0  0  0  0  0  0  0  0  0  0
   -6.5324    4.6945    5.4285 C   0  0  0  0  0  0  0  0  0  0  0  0
   -5.7958    7.7767    7.4224 C   0  0  0  0  0  0  0  0  0  0  0  0
   -6.6689    8.5705    6.9925 O   0  0  0  0  0  0  0  0  0  0  0  0
   -4.8918    8.2314    8.3923 N   0  0  0  0  0  0  0  0  0  0  0  0
   -4.9534    9.5916    8.9411 C   0  0  0  0  0  0  0  0  0  0  0  0
   -6.2582    9.7605    9.6835 C   0  0  0  0  0  0  0  0  0  0  0  0
   -6.2425    9.0828   10.9845 C   0  0  0  0  0  0  0  0  0  0  0  0
   -7.3052    8.8399   11.5918 O   0  0  0  0  0  0  0  0  0  0  0  0
   -5.0458    8.7043   11.5546 O   0  0  0  0  0  0  0  0  0  0  0  0
   -4.3056    1.9483    4.9758 N   0  0  0  0  0  0  0  0  0  0  0  0
   -3.9917    1.2722    3.7821 C   0  0  0  0  0  0  0  0  0  0  0  0
   -4.9566    1.2342    2.7722 C   0  0  0  0  0  0  0  0  0  0  0  0
   -4.6512    0.5984    1.6384 N   0  0  0  0  0  0  0  0  0  0  0  0
   -3.4713    0.0007    1.4279 C   0  0  0  0  0  0  0  0  0  0  0  0
   -2.4945    0.0156    2.3970 C   0  0  0  0  0  0  0  0  0  0  0  0
   -2.7657    0.6616    3.5862 C   0  0  0  0  0  0  0  0  0  0  0  0
   -3.2874   -0.6383    0.1710 N   0  0  0  0  0  0  0  0  0  0  0  0
   -4.2566   -0.7234   -0.7564 C   0  0  0  0  0  0  0  0  0  0  0  0
   -3.6966   -1.4130   -1.8356 C   0  0  0  0  0  0  0  0  0  0  0  0
   -2.4216   -1.7225   -1.5367 N   0  0  0  0  0  0  0  0  0  0  0  0
   -2.1852   -1.2373   -0.2954 C   0  0  0  0  0  0  0  0  0  0  0  0
   -4.4098   -1.7394   -3.0945 C   0  0  0  0  0  0  0  0  0  0  0  0
   -5.6869   -1.2167   -3.0255 F   0  0  0  0  0  0  0  0  0  0  0  0
   -3.6921   -1.1626   -4.1383 F   0  0  0  0  0  0  0  0  0  0  0  0
   -4.4285   -3.1196   -3.2876 F   0  0  0  0  0  0  0  0  0  0  0  0
   -7.5082   -0.4291    7.9952 C   0  0  0  0  0  0  0  0  0  0  0  0
  1  2  1  0
  2  3  1  0
  3  4  1  0
  4  5  1  0
  4  6  1  0
  6  7  1  0
  7  8  2  0
  8  9  1  0
  9 10  2  0
 10 11  1  0
 11 12  2  0
 10 13  1  0
 13 14  2  0
 13 15  1  0
 15 16  1  0
 16 17  1  0
 17 18  1  0
 18 19  2  0
 18 20  1  0
  6 21  1  0
 21 22  1  0
 22 23  2  0
 23 24  1  0
 24 25  2  0
 25 26  1  0
 26 27  2  0
 25 28  1  0
 28 29  1  0
 29 30  2  0
 30 31  1  0
 31 32  2  0
 30 33  1  0
 33 34  1  0
 33 35  1  0
 33 36  1  0
  2 37  1  0
  5  2  1  0
 12  7  1  0
 27 22  1  0
 32 28  1  0
M  END
$$$$
