
     RDKit          3D

 37 40  0  0  0  0  0  0  0  0999 V2000
  -13.9904   -6.5471    5.6671 C   0  0  0  0  0  0  0  0  0  0  0  0
  -12.7041   -6.6020    4.9164 C   0  0  0  0  0  0  0  0  0  0  0  0
  -12.1702   -5.2258    4.4840 C   0  0  0  0  0  0  0  0  0  0  0  0
  -11.7529   -5.8932    3.2106 C   0  0  0  0  0  0  0  0  0  0  0  0
  -12.8904   -6.8597    3.4139 C   0  0  0  0  0  0  0  0  0  0  0  0
  -11.8259   -5.0785    1.9435 C   0  0  0  0  0  0  0  0  0  0  0  0
  -11.0185   -3.8416    2.0336 C   0  0  0  0  0  0  0  0  0  0  0  0
  -11.5384   -2.5871    2.3242 C   0  0  0  0  0  0  0  0  0  0  0  0
  -10.7478   -1.4667    2.3906 C   0  0  0  0  0  0  0  0  0  0  0  0
   -9.3772   -1.5296    2.1689 C   0  0  0  0  0  0  0  0  0  0  0  0
   -8.8410   -2.7617    1.8794 C   0  0  0  0  0  0  0  0  0  0  0  0
   -9.6606   -3.8747    1.8187 C   0  0  0  0  0  0  0  0  0  0  0  0
   -8.5675   -0.3194    2.2476 C   0  0  0  0  0  0  0  0  0  0  0  0
   -7.5893   -0.3012    3.0350 O   0  0  0  0  0  0  0  0  0  0  0  0
   -8.8360    0.8231    1.4813 N   0  0  0  0  0  0  0  0  0  0  0  0
   -8.9814    2.1530    2.0859 C   0  0  0  0  0  0  0  0  0  0  0  0
   -7.8984    2.3397    3.1223 C   0  0  0  0  0  0  0  0  0  0  0  0
   -7.7426    3.7466    3.5077 C   0  0  0  0  0  0  0  0  0  0  0  0
   -7.9786    4.1198    4.6749 O   0  0  0  0  0  0  0  0  0  0  0  0
   -7.3309    4.6783    2.5788 O   0  0  0  0  0  0  0  0  0  0  0  0
  -11.5004   -5.8743    0.7777 N   0  0  0  0  0  0  0  0  0  0  0  0
  -12.3630   -6.1042   -0.3103 C   0  0  0  0  0  0  0  0  0  0  0  0
  -11.9884   -7.0595   -1.2587 C   0  0  0  0  0  0  0  0  0  0  0  0
  -12.8139   -7.2799   -2.2849 N   0  0  0  0  0  0  0  0  0  0  0  0
  -13.9749   -6.6315   -2.4441 C   0  0  0  0  0  0  0  0  0  0  0  0
  -14.3800   -5.6837   -1.5326 C   0  0  0  0  0  0  0  0  0  0  0  0
  -13.5583   -5.4225   -0.4547 C   0  0  0  0  0  0  0  0  0  0  0  0
  -14.7513   -6.9705   -3.5863 N   0  0  0  0  0  0  0  0  0  0  0  0
  -14.3443   -7.8558   -4.5122 C   0  0  0  0  0  0  0  0  0  0  0  0
  -15.3675   -7.9155   -5.4628 C   0  0  0  0  0  0  0  0  0  0  0  0
  -16.3522   -7.0767   -5.0919 N   0  0  0  0  0  0  0  0  0  0  0  0
  -15.9561   -6.5018   -3.9323 C   0  0  0  0  0  0  0  0  0  0  0  0
  -15.3494   -8.7707   -6.6745 C   0  0  0  0  0  0  0  0  0  0  0  0
  -14.0620   -9.2338   -6.8676 F   0  0  0  0  0  0  0  0  0  0  0  0
  -16.2289   -9.8258   -6.4497 F   0  0  0  0  0  0  0  0  0  0  0  0
  -15.8066   -8.0479   -7.7750 F   0  0  0  0  0  0  0  0  0  0  0  0
  -11.5937   -7.3899    5.5457 C   0  0  0  0  0  0  0  0  0  0  0  0
  1  2  1  0
  2  3  1  0
  3  4  1  0
  4  5  1  0
  4  6  1  0
  6  7  1  0
  7  8  2  0
  8  9  1  0
  9 10  2  0
 10 11  1  0
 11 12  2  0
 10 13  1  0
 13 14  2  0
 13 15  1  0
 15 16  1  0
 16 17  1  0
 17 18  1  0
 18 19  2  0
 18 20  1  0
  6 21  1  0
 21 22  1  0
 22 23  2  0
 23 24  1  0
 24 25  2  0
 25 26  1  0
 26 27  2  0
 25 28  1  0
 28 29  1  0
 29 30  2  0
 30 31  1  0
 31 32  2  0
 30 33  1  0
 33 34  1  0
 33 35  1  0
 33 36  1  0
  2 37  1  0
  5  2  1  0
 12  7  1  0
 27 22  1  0
 32 28  1  0
M  END
$$$$
