
     RDKit          3D

 37 40  0  0  0  0  0  0  0  0999 V2000
  -10.0834  -16.0354  -10.9015 C   0  0  0  0  0  0  0  0  0  0  0  0
  -10.7220  -15.1303  -11.8985 C   0  0  0  0  0  0  0  0  0  0  0  0
   -9.7509  -14.1347  -12.5553 C   0  0  0  0  0  0  0  0  0  0  0  0
  -10.8648  -13.1381  -12.4712 C   0  0  0  0  0  0  0  0  0  0  0  0
  -11.3650  -13.8882  -11.2642 C   0  0  0  0  0  0  0  0  0  0  0  0
  -10.4912  -11.6989  -12.2189 C   0  0  0  0  0  0  0  0  0  0  0  0
   -9.1700  -11.3613  -12.7937 C   0  0  0  0  0  0  0  0  0  0  0  0
   -8.1075  -10.8451  -12.0635 C   0  0  0  0  0  0  0  0  0  0  0  0
   -6.9014  -10.5415  -12.6446 C   0  0  0  0  0  0  0  0  0  0  0  0
   -6.6789  -10.7362  -14.0026 C   0  0  0  0  0  0  0  0  0  0  0  0
   -7.7173  -11.2463  -14.7451 C   0  0  0  0  0  0  0  0  0  0  0  0
   -8.9225  -11.5434  -14.1342 C   0  0  0  0  0  0  0  0  0  0  0  0
   -5.3850  -10.4030  -14.5868 C   0  0  0  0  0  0  0  0  0  0  0  0
   -5.2356  -10.5292  -15.8273 O   0  0  0  0  0  0  0  0  0  0  0  0
   -4.3026   -9.9482  -13.8213 N   0  0  0  0  0  0  0  0  0  0  0  0
   -3.0512   -9.4864  -14.4345 C   0  0  0  0  0  0  0  0  0  0  0  0
   -3.1547   -9.6427  -15.9334 C   0  0  0  0  0  0  0  0  0  0  0  0
   -2.4855  -10.8592  -16.4072 C   0  0  0  0  0  0  0  0  0  0  0  0
   -3.1230  -11.9208  -16.5619 O   0  0  0  0  0  0  0  0  0  0  0  0
   -1.1361  -10.8433  -16.6887 O   0  0  0  0  0  0  0  0  0  0  0  0
  -11.5360  -10.7928  -12.6498 N   0  0  0  0  0  0  0  0  0  0  0  0
  -12.3657  -10.0489  -11.7903 C   0  0  0  0  0  0  0  0  0  0  0  0
  -12.0776  -10.0592  -10.4231 C   0  0  0  0  0  0  0  0  0  0  0  0
  -12.8628   -9.3455   -9.6125 N   0  0  0  0  0  0  0  0  0  0  0  0
  -13.9054   -8.6264  -10.0480 C   0  0  0  0  0  0  0  0  0  0  0  0
  -14.2223   -8.5899  -11.3865 C   0  0  0  0  0  0  0  0  0  0  0  0
  -13.4378   -9.3127  -12.2623 C   0  0  0  0  0  0  0  0  0  0  0  0
  -14.6527   -7.9160   -9.0687 N   0  0  0  0  0  0  0  0  0  0  0  0
  -14.3048   -7.8725   -7.7711 C   0  0  0  0  0  0  0  0  0  0  0  0
  -15.2740   -7.0878   -7.1394 C   0  0  0  0  0  0  0  0  0  0  0  0
  -16.1696   -6.6833   -8.0586 N   0  0  0  0  0  0  0  0  0  0  0  0
  -15.7716   -7.2029   -9.2434 C   0  0  0  0  0  0  0  0  0  0  0  0
  -15.2923   -6.7667   -5.6915 C   0  0  0  0  0  0  0  0  0  0  0  0
  -15.4714   -5.4046   -5.5446 F   0  0  0  0  0  0  0  0  0  0  0  0
  -16.3504   -7.4714   -5.1246 F   0  0  0  0  0  0  0  0  0  0  0  0
  -14.1099   -7.1977   -5.0927 F   0  0  0  0  0  0  0  0  0  0  0  0
  -11.5560  -15.7841  -12.9601 C   0  0  0  0  0  0  0  0  0  0  0  0
  1  2  1  0
  2  3  1  0
  3  4  1  0
  4  5  1  0
  4  6  1  0
  6  7  1  0
  7  8  2  0
  8  9  1  0
  9 10  2  0
 10 11  1  0
 11 12  2  0
 10 13  1  0
 13 14  2  0
 13 15  1  0
 15 16  1  0
 16 17  1  0
 17 18  1  0
 18 19  2  0
 18 20  1  0
  6 21  1  0
 21 22  1  0
 22 23  2  0
 23 24  1  0
 24 25  2  0
 25 26  1  0
 26 27  2  0
 25 28  1  0
 28 29  1  0
 29 30  2  0
 30 31  1  0
 31 32  2  0
 30 33  1  0
 33 34  1  0
 33 35  1  0
 33 36  1  0
  2 37  1  0
  5  2  1  0
 12  7  1  0
 27 22  1  0
 32 28  1  0
M  END
$$$$
