
     RDKit          3D

 37 40  0  0  0  0  0  0  0  0999 V2000
  -11.1601    1.5762    6.5327 C   0  0  0  0  0  0  0  0  0  0  0  0
  -10.6050    0.8457    5.3582 C   0  0  0  0  0  0  0  0  0  0  0  0
   -9.1581    0.3596    5.5477 C   0  0  0  0  0  0  0  0  0  0  0  0
   -8.9450    0.7332    4.1138 C   0  0  0  0  0  0  0  0  0  0  0  0
  -10.0167    1.7773    4.2883 C   0  0  0  0  0  0  0  0  0  0  0  0
   -7.5883    1.2687    3.7300 C   0  0  0  0  0  0  0  0  0  0  0  0
   -7.0673    2.2252    4.7319 C   0  0  0  0  0  0  0  0  0  0  0  0
   -6.4103    1.8565    5.8984 C   0  0  0  0  0  0  0  0  0  0  0  0
   -5.9502    2.7827    6.8012 C   0  0  0  0  0  0  0  0  0  0  0  0
   -6.1190    4.1466    6.5937 C   0  0  0  0  0  0  0  0  0  0  0  0
   -6.7671    4.5344    5.4452 C   0  0  0  0  0  0  0  0  0  0  0  0
   -7.2207    3.5800    4.5522 C   0  0  0  0  0  0  0  0  0  0  0  0
   -5.6174    5.1029    7.5737 C   0  0  0  0  0  0  0  0  0  0  0  0
   -5.6460    6.3257    7.2890 O   0  0  0  0  0  0  0  0  0  0  0  0
   -5.1052    4.7135    8.8189 N   0  0  0  0  0  0  0  0  0  0  0  0
   -4.6535    5.6899    9.8178 C   0  0  0  0  0  0  0  0  0  0  0  0
   -3.1459    5.7745    9.7717 C   0  0  0  0  0  0  0  0  0  0  0  0
   -2.6743    6.5724    8.6346 C   0  0  0  0  0  0  0  0  0  0  0  0
   -2.9278    7.7920    8.5603 O   0  0  0  0  0  0  0  0  0  0  0  0
   -1.9409    5.9800    7.6288 O   0  0  0  0  0  0  0  0  0  0  0  0
   -6.6548    0.1996    3.4402 N   0  0  0  0  0  0  0  0  0  0  0  0
   -5.9565    0.0430    2.2284 C   0  0  0  0  0  0  0  0  0  0  0  0
   -6.1726    0.9819    1.2164 C   0  0  0  0  0  0  0  0  0  0  0  0
   -5.5016    0.8336    0.0714 N   0  0  0  0  0  0  0  0  0  0  0  0
   -4.6383   -0.1663   -0.1482 C   0  0  0  0  0  0  0  0  0  0  0  0
   -4.3974   -1.1112    0.8227 C   0  0  0  0  0  0  0  0  0  0  0  0
   -5.0687   -0.9982    2.0234 C   0  0  0  0  0  0  0  0  0  0  0  0
   -3.9963   -0.1970   -1.4167 N   0  0  0  0  0  0  0  0  0  0  0  0
   -4.3114    0.6430   -2.4177 C   0  0  0  0  0  0  0  0  0  0  0  0
   -3.4732    0.3025   -3.4833 C   0  0  0  0  0  0  0  0  0  0  0  0
   -2.6846   -0.7198   -3.1041 N   0  0  0  0  0  0  0  0  0  0  0  0
   -3.0202   -1.0157   -1.8266 C   0  0  0  0  0  0  0  0  0  0  0  0
   -3.4709    0.9722   -4.8068 C   0  0  0  0  0  0  0  0  0  0  0  0
   -3.4389    0.0029   -5.7908 F   0  0  0  0  0  0  0  0  0  0  0  0
   -4.6369    1.7276   -4.8905 F   0  0  0  0  0  0  0  0  0  0  0  0
   -2.3823    1.8373   -4.9012 F   0  0  0  0  0  0  0  0  0  0  0  0
  -11.4378   -0.2755    4.8113 C   0  0  0  0  0  0  0  0  0  0  0  0
  1  2  1  0
  2  3  1  0
  3  4  1  0
  4  5  1  0
  4  6  1  0
  6  7  1  0
  7  8  2  0
  8  9  1  0
  9 10  2  0
 10 11  1  0
 11 12  2  0
 10 13  1  0
 13 14  2  0
 13 15  1  0
 15 16  1  0
 16 17  1  0
 17 18  1  0
 18 19  2  0
 18 20  1  0
  6 21  1  0
 21 22  1  0
 22 23  2  0
 23 24  1  0
 24 25  2  0
 25 26  1  0
 26 27  2  0
 25 28  1  0
 28 29  1  0
 29 30  2  0
 30 31  1  0
 31 32  2  0
 30 33  1  0
 33 34  1  0
 33 35  1  0
 33 36  1  0
  2 37  1  0
  5  2  1  0
 12  7  1  0
 27 22  1  0
 32 28  1  0
M  END
$$$$
