
     RDKit          3D

 37 40  0  0  0  0  0  0  0  0999 V2000
  -12.6676  -15.5049  -11.7724 C   0  0  0  0  0  0  0  0  0  0  0  0
  -11.6326  -14.4813  -12.0922 C   0  0  0  0  0  0  0  0  0  0  0  0
  -11.2429  -13.5891  -10.9015 C   0  0  0  0  0  0  0  0  0  0  0  0
  -11.1828  -12.4633  -11.8864 C   0  0  0  0  0  0  0  0  0  0  0  0
  -12.2177  -13.1973  -12.6985 C   0  0  0  0  0  0  0  0  0  0  0  0
  -11.6006  -11.0965  -11.4049 C   0  0  0  0  0  0  0  0  0  0  0  0
  -11.3152  -10.9058   -9.9654 C   0  0  0  0  0  0  0  0  0  0  0  0
  -12.2605  -11.0345   -8.9563 C   0  0  0  0  0  0  0  0  0  0  0  0
  -11.9476  -10.8412   -7.6337 C   0  0  0  0  0  0  0  0  0  0  0  0
  -10.6602  -10.5043   -7.2328 C   0  0  0  0  0  0  0  0  0  0  0  0
   -9.7081  -10.3714   -8.2153 C   0  0  0  0  0  0  0  0  0  0  0  0
  -10.0506  -10.5718   -9.5406 C   0  0  0  0  0  0  0  0  0  0  0  0
  -10.3629  -10.3065   -5.8189 C   0  0  0  0  0  0  0  0  0  0  0  0
   -9.2317   -9.8646   -5.4990 O   0  0  0  0  0  0  0  0  0  0  0  0
  -11.2869  -10.5891   -4.8036 N   0  0  0  0  0  0  0  0  0  0  0  0
  -11.0021  -10.3153   -3.3897 C   0  0  0  0  0  0  0  0  0  0  0  0
  -11.0053   -8.8206   -3.1709 C   0  0  0  0  0  0  0  0  0  0  0  0
  -12.3502   -8.3094   -2.8848 C   0  0  0  0  0  0  0  0  0  0  0  0
  -12.6076   -7.0929   -2.9895 O   0  0  0  0  0  0  0  0  0  0  0  0
  -13.3515   -9.1728   -2.4945 O   0  0  0  0  0  0  0  0  0  0  0  0
  -11.0402  -10.0456  -12.2295 N   0  0  0  0  0  0  0  0  0  0  0  0
  -11.7589   -9.2898  -13.1743 C   0  0  0  0  0  0  0  0  0  0  0  0
  -13.0376   -9.7248  -13.5323 C   0  0  0  0  0  0  0  0  0  0  0  0
  -13.7188   -8.9999  -14.4230 N   0  0  0  0  0  0  0  0  0  0  0  0
  -13.2352   -7.8840  -14.9838 C   0  0  0  0  0  0  0  0  0  0  0  0
  -11.9807   -7.4221  -14.6581 C   0  0  0  0  0  0  0  0  0  0  0  0
  -11.2394   -8.1394  -13.7409 C   0  0  0  0  0  0  0  0  0  0  0  0
  -14.0744   -7.2155  -15.9171 N   0  0  0  0  0  0  0  0  0  0  0  0
  -15.2900   -7.6706  -16.2662 C   0  0  0  0  0  0  0  0  0  0  0  0
  -15.7933   -6.7516  -17.1915 C   0  0  0  0  0  0  0  0  0  0  0  0
  -14.8818   -5.7788  -17.3748 N   0  0  0  0  0  0  0  0  0  0  0  0
  -13.8275   -6.0802  -16.5813 C   0  0  0  0  0  0  0  0  0  0  0  0
  -17.1181   -6.8523  -17.8507 C   0  0  0  0  0  0  0  0  0  0  0  0
  -17.7566   -5.6315  -17.7451 F   0  0  0  0  0  0  0  0  0  0  0  0
  -16.8930   -7.1819  -19.1842 F   0  0  0  0  0  0  0  0  0  0  0  0
  -17.8641   -7.8752  -17.2679 F   0  0  0  0  0  0  0  0  0  0  0  0
  -10.3892  -14.9745  -12.7709 C   0  0  0  0  0  0  0  0  0  0  0  0
  1  2  1  0
  2  3  1  0
  3  4  1  0
  4  5  1  0
  4  6  1  0
  6  7  1  0
  7  8  2  0
  8  9  1  0
  9 10  2  0
 10 11  1  0
 11 12  2  0
 10 13  1  0
 13 14  2  0
 13 15  1  0
 15 16  1  0
 16 17  1  0
 17 18  1  0
 18 19  2  0
 18 20  1  0
  6 21  1  0
 21 22  1  0
 22 23  2  0
 23 24  1  0
 24 25  2  0
 25 26  1  0
 26 27  2  0
 25 28  1  0
 28 29  1  0
 29 30  2  0
 30 31  1  0
 31 32  2  0
 30 33  1  0
 33 34  1  0
 33 35  1  0
 33 36  1  0
  2 37  1  0
  5  2  1  0
 12  7  1  0
 27 22  1  0
 32 28  1  0
M  END
$$$$
