
     RDKit          3D

 37 40  0  0  0  0  0  0  0  0999 V2000
  -10.6404  -12.5371   -6.3918 C   0  0  0  0  0  0  0  0  0  0  0  0
  -11.0105  -13.0923   -7.7244 C   0  0  0  0  0  0  0  0  0  0  0  0
   -9.9955  -12.7822   -8.8377 C   0  0  0  0  0  0  0  0  0  0  0  0
  -11.1793  -12.5948   -9.7347 C   0  0  0  0  0  0  0  0  0  0  0  0
  -11.9631  -12.1838   -8.5155 C   0  0  0  0  0  0  0  0  0  0  0  0
  -11.0753  -11.5437  -10.8112 C   0  0  0  0  0  0  0  0  0  0  0  0
   -9.7205  -11.4914  -11.4044 C   0  0  0  0  0  0  0  0  0  0  0  0
   -8.8797  -10.3881  -11.3394 C   0  0  0  0  0  0  0  0  0  0  0  0
   -7.6320  -10.3864  -11.9119 C   0  0  0  0  0  0  0  0  0  0  0  0
   -7.1419  -11.4956  -12.5909 C   0  0  0  0  0  0  0  0  0  0  0  0
   -7.9576  -12.5993  -12.6678 C   0  0  0  0  0  0  0  0  0  0  0  0
   -9.2106  -12.5742  -12.0819 C   0  0  0  0  0  0  0  0  0  0  0  0
   -5.8115  -11.4591  -13.1869 C   0  0  0  0  0  0  0  0  0  0  0  0
   -5.2329  -12.5465  -13.4319 O   0  0  0  0  0  0  0  0  0  0  0  0
   -5.1529  -10.2614  -13.4972 N   0  0  0  0  0  0  0  0  0  0  0  0
   -3.8116  -10.2392  -14.0938 C   0  0  0  0  0  0  0  0  0  0  0  0
   -3.9398   -9.9685  -15.5744 C   0  0  0  0  0  0  0  0  0  0  0  0
   -4.8679   -8.8674  -15.8540 C   0  0  0  0  0  0  0  0  0  0  0  0
   -4.6324   -7.7127  -15.4435 O   0  0  0  0  0  0  0  0  0  0  0  0
   -6.0181   -9.0972  -16.5783 O   0  0  0  0  0  0  0  0  0  0  0  0
  -12.1159  -11.6951  -11.8074 N   0  0  0  0  0  0  0  0  0  0  0  0
  -12.4623  -10.7264  -12.7678 C   0  0  0  0  0  0  0  0  0  0  0  0
  -13.0282  -11.1614  -13.9691 C   0  0  0  0  0  0  0  0  0  0  0  0
  -13.3626  -10.2380  -14.8739 N   0  0  0  0  0  0  0  0  0  0  0  0
  -13.1812   -8.9249  -14.6829 C   0  0  0  0  0  0  0  0  0  0  0  0
  -12.6273   -8.4560  -13.5138 C   0  0  0  0  0  0  0  0  0  0  0  0
  -12.2661   -9.3745  -12.5490 C   0  0  0  0  0  0  0  0  0  0  0  0
  -13.5853   -8.0585  -15.7355 N   0  0  0  0  0  0  0  0  0  0  0  0
  -13.7892   -8.4814  -16.9950 C   0  0  0  0  0  0  0  0  0  0  0  0
  -14.1701   -7.3506  -17.7232 C   0  0  0  0  0  0  0  0  0  0  0  0
  -14.1863   -6.2888  -16.8967 N   0  0  0  0  0  0  0  0  0  0  0  0
  -13.8231   -6.7428  -15.6744 C   0  0  0  0  0  0  0  0  0  0  0  0
  -14.4981   -7.3453  -19.1697 C   0  0  0  0  0  0  0  0  0  0  0  0
  -13.4293   -7.8767  -19.8656 F   0  0  0  0  0  0  0  0  0  0  0  0
  -15.6386   -8.1252  -19.3384 F   0  0  0  0  0  0  0  0  0  0  0  0
  -14.7903   -6.0481  -19.5874 F   0  0  0  0  0  0  0  0  0  0  0  0
  -11.3663  -14.5487   -7.7686 C   0  0  0  0  0  0  0  0  0  0  0  0
  1  2  1  0
  2  3  1  0
  3  4  1  0
  4  5  1  0
  4  6  1  0
  6  7  1  0
  7  8  2  0
  8  9  1  0
  9 10  2  0
 10 11  1  0
 11 12  2  0
 10 13  1  0
 13 14  2  0
 13 15  1  0
 15 16  1  0
 16 17  1  0
 17 18  1  0
 18 19  2  0
 18 20  1  0
  6 21  1  0
 21 22  1  0
 22 23  2  0
 23 24  1  0
 24 25  2  0
 25 26  1  0
 26 27  2  0
 25 28  1  0
 28 29  1  0
 29 30  2  0
 30 31  1  0
 31 32  2  0
 30 33  1  0
 33 34  1  0
 33 35  1  0
 33 36  1  0
  2 37  1  0
  5  2  1  0
 12  7  1  0
 27 22  1  0
 32 28  1  0
M  END
$$$$
