
     RDKit          3D

 37 40  0  0  0  0  0  0  0  0999 V2000
  -12.6895  -14.1488   -9.1786 C   0  0  0  0  0  0  0  0  0  0  0  0
  -13.4077  -13.1501  -10.0200 C   0  0  0  0  0  0  0  0  0  0  0  0
  -12.9176  -13.0879  -11.4766 C   0  0  0  0  0  0  0  0  0  0  0  0
  -13.1037  -11.6059  -11.3764 C   0  0  0  0  0  0  0  0  0  0  0  0
  -12.8320  -11.7314   -9.9000 C   0  0  0  0  0  0  0  0  0  0  0  0
  -12.1344  -10.7318  -12.1320 C   0  0  0  0  0  0  0  0  0  0  0  0
  -10.7285  -11.0338  -11.7823 C   0  0  0  0  0  0  0  0  0  0  0  0
  -10.0919  -10.5776  -10.6355 C   0  0  0  0  0  0  0  0  0  0  0  0
   -8.7819  -10.8804  -10.3582 C   0  0  0  0  0  0  0  0  0  0  0  0
   -8.0194  -11.6642  -11.2160 C   0  0  0  0  0  0  0  0  0  0  0  0
   -8.6295  -12.1267  -12.3578 C   0  0  0  0  0  0  0  0  0  0  0  0
   -9.9510  -11.8064  -12.6128 C   0  0  0  0  0  0  0  0  0  0  0  0
   -6.6306  -11.9664  -10.8900 C   0  0  0  0  0  0  0  0  0  0  0  0
   -6.2793  -11.9505   -9.6844 O   0  0  0  0  0  0  0  0  0  0  0  0
   -5.6728  -12.2737  -11.8661 N   0  0  0  0  0  0  0  0  0  0  0  0
   -4.5324  -13.1564  -11.5911 C   0  0  0  0  0  0  0  0  0  0  0  0
   -3.4728  -12.3709  -10.8547 C   0  0  0  0  0  0  0  0  0  0  0  0
   -3.4681  -12.6666   -9.4179 C   0  0  0  0  0  0  0  0  0  0  0  0
   -3.4587  -13.8451   -9.0075 O   0  0  0  0  0  0  0  0  0  0  0  0
   -3.4738  -11.6393   -8.4987 O   0  0  0  0  0  0  0  0  0  0  0  0
  -12.3769  -10.7757  -13.5594 N   0  0  0  0  0  0  0  0  0  0  0  0
  -13.1739   -9.8607  -14.2723 C   0  0  0  0  0  0  0  0  0  0  0  0
  -13.3536  -10.0699  -15.6421 C   0  0  0  0  0  0  0  0  0  0  0  0
  -14.1172   -9.2036  -16.3126 N   0  0  0  0  0  0  0  0  0  0  0  0
  -14.7133   -8.1523  -15.7355 C   0  0  0  0  0  0  0  0  0  0  0  0
  -14.5615   -7.9114  -14.3893 C   0  0  0  0  0  0  0  0  0  0  0  0
  -13.7805   -8.7811  -13.6553 C   0  0  0  0  0  0  0  0  0  0  0  0
  -15.4972   -7.3144  -16.5756 N   0  0  0  0  0  0  0  0  0  0  0  0
  -15.8957   -7.6781  -17.8066 C   0  0  0  0  0  0  0  0  0  0  0  0
  -16.6340   -6.6010  -18.3055 C   0  0  0  0  0  0  0  0  0  0  0  0
  -16.6620   -5.6282  -17.3762 N   0  0  0  0  0  0  0  0  0  0  0  0
  -15.9560   -6.0844  -16.3153 C   0  0  0  0  0  0  0  0  0  0  0  0
  -17.2730   -6.5591  -19.6434 C   0  0  0  0  0  0  0  0  0  0  0  0
  -18.6444   -6.5896  -19.4777 F   0  0  0  0  0  0  0  0  0  0  0  0
  -16.8724   -5.3756  -20.2566 F   0  0  0  0  0  0  0  0  0  0  0  0
  -16.8247   -7.6266  -20.4193 F   0  0  0  0  0  0  0  0  0  0  0  0
  -14.9062  -13.2127  -10.0026 C   0  0  0  0  0  0  0  0  0  0  0  0
  1  2  1  0
  2  3  1  0
  3  4  1  0
  4  5  1  0
  4  6  1  0
  6  7  1  0
  7  8  2  0
  8  9  1  0
  9 10  2  0
 10 11  1  0
 11 12  2  0
 10 13  1  0
 13 14  2  0
 13 15  1  0
 15 16  1  0
 16 17  1  0
 17 18  1  0
 18 19  2  0
 18 20  1  0
  6 21  1  0
 21 22  1  0
 22 23  2  0
 23 24  1  0
 24 25  2  0
 25 26  1  0
 26 27  2  0
 25 28  1  0
 28 29  1  0
 29 30  2  0
 30 31  1  0
 31 32  2  0
 30 33  1  0
 33 34  1  0
 33 35  1  0
 33 36  1  0
  2 37  1  0
  5  2  1  0
 12  7  1  0
 27 22  1  0
 32 28  1  0
M  END
$$$$
