
     RDKit          3D

 37 40  0  0  0  0  0  0  0  0999 V2000
   -1.5357   -0.3112   -1.7145 C   0  0  0  0  0  0  0  0  0  0  0  0
   -2.9839    0.0367   -1.6630 C   0  0  0  0  0  0  0  0  0  0  0  0
   -3.2887    1.3470   -0.9173 C   0  0  0  0  0  0  0  0  0  0  0  0
   -4.4939    0.6459   -0.3722 C   0  0  0  0  0  0  0  0  0  0  0  0
   -3.7299   -0.6455   -0.5068 C   0  0  0  0  0  0  0  0  0  0  0  0
   -4.9220    0.9911    1.0321 C   0  0  0  0  0  0  0  0  0  0  0  0
   -6.3699    0.7663    1.2402 C   0  0  0  0  0  0  0  0  0  0  0  0
   -7.3259    1.7735    1.2430 C   0  0  0  0  0  0  0  0  0  0  0  0
   -8.6585    1.5146    1.4470 C   0  0  0  0  0  0  0  0  0  0  0  0
   -9.1236    0.2228    1.6629 C   0  0  0  0  0  0  0  0  0  0  0  0
   -8.1944   -0.7901    1.6644 C   0  0  0  0  0  0  0  0  0  0  0  0
   -6.8575   -0.5013    1.4563 C   0  0  0  0  0  0  0  0  0  0  0  0
  -10.5463   -0.0160    1.8759 C   0  0  0  0  0  0  0  0  0  0  0  0
  -10.9384   -1.1970    2.0458 O   0  0  0  0  0  0  0  0  0  0  0  0
  -11.4930    1.0173    1.8988 N   0  0  0  0  0  0  0  0  0  0  0  0
  -12.9355    0.7539    1.9694 C   0  0  0  0  0  0  0  0  0  0  0  0
  -13.4965    0.7266    0.5671 C   0  0  0  0  0  0  0  0  0  0  0  0
  -13.7513    2.0757    0.0501 C   0  0  0  0  0  0  0  0  0  0  0  0
  -13.2361    3.0754    0.5907 O   0  0  0  0  0  0  0  0  0  0  0  0
  -14.5679    2.2553   -1.0459 O   0  0  0  0  0  0  0  0  0  0  0  0
   -4.1044    0.3178    2.0202 N   0  0  0  0  0  0  0  0  0  0  0  0
   -3.8656    0.7856    3.3259 C   0  0  0  0  0  0  0  0  0  0  0  0
   -3.0130    0.0431    4.1470 C   0  0  0  0  0  0  0  0  0  0  0  0
   -2.7831    0.4951    5.3822 N   0  0  0  0  0  0  0  0  0  0  0  0
   -3.3287    1.6189    5.8650 C   0  0  0  0  0  0  0  0  0  0  0  0
   -4.1733    2.3785    5.0885 C   0  0  0  0  0  0  0  0  0  0  0  0
   -4.4401    1.9499    3.8039 C   0  0  0  0  0  0  0  0  0  0  0  0
   -2.9930    1.9768    7.1997 N   0  0  0  0  0  0  0  0  0  0  0  0
   -2.1776    1.2393    7.9729 C   0  0  0  0  0  0  0  0  0  0  0  0
   -2.0962    1.9111    9.1960 C   0  0  0  0  0  0  0  0  0  0  0  0
   -2.8538    3.0214    9.1311 N   0  0  0  0  0  0  0  0  0  0  0  0
   -3.3999    3.0468    7.8929 C   0  0  0  0  0  0  0  0  0  0  0  0
   -1.2991    1.4561   10.3611 C   0  0  0  0  0  0  0  0  0  0  0  0
   -0.3226    2.3983   10.6217 F   0  0  0  0  0  0  0  0  0  0  0  0
   -2.1725    1.3342   11.4380 F   0  0  0  0  0  0  0  0  0  0  0  0
   -0.7482    0.2025   10.1015 F   0  0  0  0  0  0  0  0  0  0  0  0
   -3.7232    0.0247   -2.9680 C   0  0  0  0  0  0  0  0  0  0  0  0
  1  2  1  0
  2  3  1  0
  3  4  1  0
  4  5  1  0
  4  6  1  0
  6  7  1  0
  7  8  2  0
  8  9  1  0
  9 10  2  0
 10 11  1  0
 11 12  2  0
 10 13  1  0
 13 14  2  0
 13 15  1  0
 15 16  1  0
 16 17  1  0
 17 18  1  0
 18 19  2  0
 18 20  1  0
  6 21  1  0
 21 22  1  0
 22 23  2  0
 23 24  1  0
 24 25  2  0
 25 26  1  0
 26 27  2  0
 25 28  1  0
 28 29  1  0
 29 30  2  0
 30 31  1  0
 31 32  2  0
 30 33  1  0
 33 34  1  0
 33 35  1  0
 33 36  1  0
  2 37  1  0
  5  2  1  0
 12  7  1  0
 27 22  1  0
 32 28  1  0
M  END
$$$$
