
     RDKit          3D

 37 40  0  0  0  0  0  0  0  0999 V2000
    0.6203   -1.3017   10.6557 C   0  0  0  0  0  0  0  0  0  0  0  0
    0.3442    0.1291   10.3433 C   0  0  0  0  0  0  0  0  0  0  0  0
   -1.1517    0.4839   10.2950 C   0  0  0  0  0  0  0  0  0  0  0  0
   -0.8082    1.3659    9.1352 C   0  0  0  0  0  0  0  0  0  0  0  0
    0.3332    0.4289    8.8371 C   0  0  0  0  0  0  0  0  0  0  0  0
   -1.8314    1.4961    8.0350 C   0  0  0  0  0  0  0  0  0  0  0  0
   -2.6929    2.6854    8.2184 C   0  0  0  0  0  0  0  0  0  0  0  0
   -2.4780    3.9103    7.6004 C   0  0  0  0  0  0  0  0  0  0  0  0
   -3.3034    4.9874    7.8078 C   0  0  0  0  0  0  0  0  0  0  0  0
   -4.4043    4.9081    8.6524 C   0  0  0  0  0  0  0  0  0  0  0  0
   -4.6361    3.7046    9.2750 C   0  0  0  0  0  0  0  0  0  0  0  0
   -3.7883    2.6351    9.0483 C   0  0  0  0  0  0  0  0  0  0  0  0
   -5.2602    6.0721    8.8494 C   0  0  0  0  0  0  0  0  0  0  0  0
   -6.3281    5.9302    9.4949 O   0  0  0  0  0  0  0  0  0  0  0  0
   -4.9401    7.3414    8.3486 N   0  0  0  0  0  0  0  0  0  0  0  0
   -5.8286    8.4970    8.5229 C   0  0  0  0  0  0  0  0  0  0  0  0
   -7.0016    8.3580    7.5812 C   0  0  0  0  0  0  0  0  0  0  0  0
   -6.5849    8.3889    6.1750 C   0  0  0  0  0  0  0  0  0  0  0  0
   -7.3258    7.9369    5.2784 O   0  0  0  0  0  0  0  0  0  0  0  0
   -5.3621    8.9211    5.8259 O   0  0  0  0  0  0  0  0  0  0  0  0
   -1.2154    1.4492    6.7248 N   0  0  0  0  0  0  0  0  0  0  0  0
   -1.8695    1.0711    5.5374 C   0  0  0  0  0  0  0  0  0  0  0  0
   -1.1162    1.0020    4.3626 C   0  0  0  0  0  0  0  0  0  0  0  0
   -1.7394    0.6350    3.2401 N   0  0  0  0  0  0  0  0  0  0  0  0
   -3.0432    0.3327    3.1907 C   0  0  0  0  0  0  0  0  0  0  0  0
   -3.8197    0.3882    4.3253 C   0  0  0  0  0  0  0  0  0  0  0  0
   -3.2180    0.7628    5.5096 C   0  0  0  0  0  0  0  0  0  0  0  0
   -3.5707   -0.0418    1.9243 N   0  0  0  0  0  0  0  0  0  0  0  0
   -2.8038   -0.2194    0.8348 C   0  0  0  0  0  0  0  0  0  0  0  0
   -3.6776   -0.5766   -0.1962 C   0  0  0  0  0  0  0  0  0  0  0  0
   -4.9319   -0.6053    0.2902 N   0  0  0  0  0  0  0  0  0  0  0  0
   -4.8483   -0.2729    1.5996 C   0  0  0  0  0  0  0  0  0  0  0  0
   -3.2671   -0.8713   -1.5906 C   0  0  0  0  0  0  0  0  0  0  0  0
   -2.5089   -2.0264   -1.5918 F   0  0  0  0  0  0  0  0  0  0  0  0
   -4.4295   -1.0387   -2.3377 F   0  0  0  0  0  0  0  0  0  0  0  0
   -2.5607    0.2083   -2.1179 F   0  0  0  0  0  0  0  0  0  0  0  0
    1.0696    1.1481   11.1710 C   0  0  0  0  0  0  0  0  0  0  0  0
  1  2  1  0
  2  3  1  0
  3  4  1  0
  4  5  1  0
  4  6  1  0
  6  7  1  0
  7  8  2  0
  8  9  1  0
  9 10  2  0
 10 11  1  0
 11 12  2  0
 10 13  1  0
 13 14  2  0
 13 15  1  0
 15 16  1  0
 16 17  1  0
 17 18  1  0
 18 19  2  0
 18 20  1  0
  6 21  1  0
 21 22  1  0
 22 23  2  0
 23 24  1  0
 24 25  2  0
 25 26  1  0
 26 27  2  0
 25 28  1  0
 28 29  1  0
 29 30  2  0
 30 31  1  0
 31 32  2  0
 30 33  1  0
 33 34  1  0
 33 35  1  0
 33 36  1  0
  2 37  1  0
  5  2  1  0
 12  7  1  0
 27 22  1  0
 32 28  1  0
M  END
$$$$
