
     RDKit          3D

 37 40  0  0  0  0  0  0  0  0999 V2000
  -13.1037   -7.5529  -18.9216 C   0  0  0  0  0  0  0  0  0  0  0  0
  -13.7800   -7.1479  -17.6568 C   0  0  0  0  0  0  0  0  0  0  0  0
  -12.9208   -7.3407  -16.3957 C   0  0  0  0  0  0  0  0  0  0  0  0
  -14.1814   -7.7817  -15.7192 C   0  0  0  0  0  0  0  0  0  0  0  0
  -14.6688   -8.2517  -17.0649 C   0  0  0  0  0  0  0  0  0  0  0  0
  -14.0660   -8.8589  -14.6700 C   0  0  0  0  0  0  0  0  0  0  0  0
  -12.6552   -9.1782  -14.3575 C   0  0  0  0  0  0  0  0  0  0  0  0
  -11.9507  -10.2376  -14.9141 C   0  0  0  0  0  0  0  0  0  0  0  0
  -10.6429  -10.4969  -14.5869 C   0  0  0  0  0  0  0  0  0  0  0  0
   -9.9511   -9.7077  -13.6758 C   0  0  0  0  0  0  0  0  0  0  0  0
  -10.6292   -8.6531  -13.1122 C   0  0  0  0  0  0  0  0  0  0  0  0
  -11.9468   -8.4145  -13.4597 C   0  0  0  0  0  0  0  0  0  0  0  0
   -8.5622  -10.0118  -13.3516 C   0  0  0  0  0  0  0  0  0  0  0  0
   -8.0912   -9.5862  -12.2679 O   0  0  0  0  0  0  0  0  0  0  0  0
   -7.7324  -10.7587  -14.1989 N   0  0  0  0  0  0  0  0  0  0  0  0
   -6.5908  -11.5306  -13.6929 C   0  0  0  0  0  0  0  0  0  0  0  0
   -5.4651  -10.5789  -13.3627 C   0  0  0  0  0  0  0  0  0  0  0  0
   -4.6812  -10.2211  -14.5499 C   0  0  0  0  0  0  0  0  0  0  0  0
   -4.4332  -11.0685  -15.4317 O   0  0  0  0  0  0  0  0  0  0  0  0
   -4.2065   -8.9363  -14.7059 O   0  0  0  0  0  0  0  0  0  0  0  0
  -14.8412   -8.5389  -13.4889 N   0  0  0  0  0  0  0  0  0  0  0  0
  -15.4414   -9.4837  -12.6358 C   0  0  0  0  0  0  0  0  0  0  0  0
  -16.1269   -9.0158  -11.5117 C   0  0  0  0  0  0  0  0  0  0  0  0
  -16.7015   -9.9156  -10.7096 N   0  0  0  0  0  0  0  0  0  0  0  0
  -16.6506  -11.2351  -10.9328 C   0  0  0  0  0  0  0  0  0  0  0  0
  -15.9858  -11.7362  -12.0284 C   0  0  0  0  0  0  0  0  0  0  0  0
  -15.3762  -10.8429  -12.8861 C   0  0  0  0  0  0  0  0  0  0  0  0
  -17.3093  -12.0740   -9.9923 N   0  0  0  0  0  0  0  0  0  0  0  0
  -17.3471  -13.4128  -10.1053 C   0  0  0  0  0  0  0  0  0  0  0  0
  -18.0761  -13.8710   -9.0040 C   0  0  0  0  0  0  0  0  0  0  0  0
  -18.4544  -12.8122   -8.2646 N   0  0  0  0  0  0  0  0  0  0  0  0
  -17.9732  -11.7115   -8.8882 C   0  0  0  0  0  0  0  0  0  0  0  0
  -18.3720  -15.2958   -8.7174 C   0  0  0  0  0  0  0  0  0  0  0  0
  -17.8053  -15.6275   -7.5017 F   0  0  0  0  0  0  0  0  0  0  0  0
  -19.7567  -15.4303   -8.6737 F   0  0  0  0  0  0  0  0  0  0  0  0
  -17.8874  -16.0999   -9.7475 F   0  0  0  0  0  0  0  0  0  0  0  0
  -14.3954   -5.7802  -17.6339 C   0  0  0  0  0  0  0  0  0  0  0  0
  1  2  1  0
  2  3  1  0
  3  4  1  0
  4  5  1  0
  4  6  1  0
  6  7  1  0
  7  8  2  0
  8  9  1  0
  9 10  2  0
 10 11  1  0
 11 12  2  0
 10 13  1  0
 13 14  2  0
 13 15  1  0
 15 16  1  0
 16 17  1  0
 17 18  1  0
 18 19  2  0
 18 20  1  0
  6 21  1  0
 21 22  1  0
 22 23  2  0
 23 24  1  0
 24 25  2  0
 25 26  1  0
 26 27  2  0
 25 28  1  0
 28 29  1  0
 29 30  2  0
 30 31  1  0
 31 32  2  0
 30 33  1  0
 33 34  1  0
 33 35  1  0
 33 36  1  0
  2 37  1  0
  5  2  1  0
 12  7  1  0
 27 22  1  0
 32 28  1  0
M  END
$$$$
