
     RDKit          3D

 37 40  0  0  0  0  0  0  0  0999 V2000
  -15.4810  -12.6386   -3.9639 C   0  0  0  0  0  0  0  0  0  0  0  0
  -14.2115  -12.2024   -3.3164 C   0  0  0  0  0  0  0  0  0  0  0  0
  -13.8939  -10.7087   -3.5001 C   0  0  0  0  0  0  0  0  0  0  0  0
  -12.4655  -11.1285   -3.6559 C   0  0  0  0  0  0  0  0  0  0  0  0
  -12.9721  -12.4424   -4.1910 C   0  0  0  0  0  0  0  0  0  0  0  0
  -11.6095  -10.3369   -4.6125 C   0  0  0  0  0  0  0  0  0  0  0  0
  -11.2341   -9.0175   -4.0572 C   0  0  0  0  0  0  0  0  0  0  0  0
  -10.2185   -8.2161   -4.5620 C   0  0  0  0  0  0  0  0  0  0  0  0
   -9.9035   -7.0007   -4.0070 C   0  0  0  0  0  0  0  0  0  0  0  0
  -10.5887   -6.5053   -2.9039 C   0  0  0  0  0  0  0  0  0  0  0  0
  -11.5982   -7.2823   -2.3874 C   0  0  0  0  0  0  0  0  0  0  0  0
  -11.8949   -8.5034   -2.9662 C   0  0  0  0  0  0  0  0  0  0  0  0
  -10.2277   -5.2099   -2.3401 C   0  0  0  0  0  0  0  0  0  0  0  0
  -10.7781   -4.8453   -1.2717 O   0  0  0  0  0  0  0  0  0  0  0  0
   -9.2926   -4.3560   -2.9409 N   0  0  0  0  0  0  0  0  0  0  0  0
   -9.0974   -2.9718   -2.4926 C   0  0  0  0  0  0  0  0  0  0  0  0
   -8.2798   -2.9802   -1.2224 C   0  0  0  0  0  0  0  0  0  0  0  0
   -6.8530   -3.1937   -1.4880 C   0  0  0  0  0  0  0  0  0  0  0  0
   -6.1534   -2.2898   -1.9885 O   0  0  0  0  0  0  0  0  0  0  0  0
   -6.2651   -4.4034   -1.1855 O   0  0  0  0  0  0  0  0  0  0  0  0
  -10.4634  -11.1008   -5.0609 N   0  0  0  0  0  0  0  0  0  0  0  0
   -9.9079  -11.0415   -6.3526 C   0  0  0  0  0  0  0  0  0  0  0  0
   -8.7857  -11.8282   -6.6248 C   0  0  0  0  0  0  0  0  0  0  0  0
   -8.2670  -11.7747   -7.8541 N   0  0  0  0  0  0  0  0  0  0  0  0
   -8.7702  -11.0071   -8.8293 C   0  0  0  0  0  0  0  0  0  0  0  0
   -9.8743  -10.2180   -8.6020 C   0  0  0  0  0  0  0  0  0  0  0  0
  -10.4447  -10.2411   -7.3453 C   0  0  0  0  0  0  0  0  0  0  0  0
   -8.1125  -11.0519  -10.0893 N   0  0  0  0  0  0  0  0  0  0  0  0
   -7.0437  -11.8304  -10.3305 C   0  0  0  0  0  0  0  0  0  0  0  0
   -6.6912  -11.5973  -11.6630 C   0  0  0  0  0  0  0  0  0  0  0  0
   -7.5440  -10.6967  -12.1850 N   0  0  0  0  0  0  0  0  0  0  0  0
   -8.4144  -10.3707  -11.2011 C   0  0  0  0  0  0  0  0  0  0  0  0
   -5.5584  -12.2474  -12.3659 C   0  0  0  0  0  0  0  0  0  0  0  0
   -4.7594  -11.2642  -12.9171 F   0  0  0  0  0  0  0  0  0  0  0  0
   -4.8548  -12.9879  -11.4204 F   0  0  0  0  0  0  0  0  0  0  0  0
   -6.0398  -13.1237  -13.3369 F   0  0  0  0  0  0  0  0  0  0  0  0
  -14.0320  -12.5745   -1.8745 C   0  0  0  0  0  0  0  0  0  0  0  0
  1  2  1  0
  2  3  1  0
  3  4  1  0
  4  5  1  0
  4  6  1  0
  6  7  1  0
  7  8  2  0
  8  9  1  0
  9 10  2  0
 10 11  1  0
 11 12  2  0
 10 13  1  0
 13 14  2  0
 13 15  1  0
 15 16  1  0
 16 17  1  0
 17 18  1  0
 18 19  2  0
 18 20  1  0
  6 21  1  0
 21 22  1  0
 22 23  2  0
 23 24  1  0
 24 25  2  0
 25 26  1  0
 26 27  2  0
 25 28  1  0
 28 29  1  0
 29 30  2  0
 30 31  1  0
 31 32  2  0
 30 33  1  0
 33 34  1  0
 33 35  1  0
 33 36  1  0
  2 37  1  0
  5  2  1  0
 12  7  1  0
 27 22  1  0
 32 28  1  0
M  END
$$$$
