
     RDKit          3D

 37 40  0  0  0  0  0  0  0  0999 V2000
   -6.3893  -11.9647   -9.8068 C   0  0  0  0  0  0  0  0  0  0  0  0
   -7.2806  -11.4333  -10.8766 C   0  0  0  0  0  0  0  0  0  0  0  0
   -7.8712  -10.0465  -10.5705 C   0  0  0  0  0  0  0  0  0  0  0  0
   -9.1335  -10.5499  -11.1985 C   0  0  0  0  0  0  0  0  0  0  0  0
   -8.7281  -11.9338  -10.7628 C   0  0  0  0  0  0  0  0  0  0  0  0
  -10.4385  -10.0567  -10.6258 C   0  0  0  0  0  0  0  0  0  0  0  0
  -10.3576   -9.8494   -9.1627 C   0  0  0  0  0  0  0  0  0  0  0  0
  -10.1838  -10.8690   -8.2362 C   0  0  0  0  0  0  0  0  0  0  0  0
  -10.1210  -10.6261   -6.8865 C   0  0  0  0  0  0  0  0  0  0  0  0
  -10.2287   -9.3389   -6.3734 C   0  0  0  0  0  0  0  0  0  0  0  0
  -10.4015   -8.3138   -7.2729 C   0  0  0  0  0  0  0  0  0  0  0  0
  -10.4615   -8.5867   -8.6278 C   0  0  0  0  0  0  0  0  0  0  0  0
  -10.1574   -9.1172   -4.9339 C   0  0  0  0  0  0  0  0  0  0  0  0
   -9.8997  -10.0939   -4.1877 O   0  0  0  0  0  0  0  0  0  0  0  0
  -10.3644   -7.8600   -4.3498 N   0  0  0  0  0  0  0  0  0  0  0  0
  -10.2477   -7.6422   -2.9026 C   0  0  0  0  0  0  0  0  0  0  0  0
   -9.5245   -6.3380   -2.6615 C   0  0  0  0  0  0  0  0  0  0  0  0
   -8.2238   -6.5418   -2.0146 C   0  0  0  0  0  0  0  0  0  0  0  0
   -8.1498   -7.0159   -0.8626 O   0  0  0  0  0  0  0  0  0  0  0  0
   -7.0609   -6.2097   -2.6762 O   0  0  0  0  0  0  0  0  0  0  0  0
  -10.9224   -8.8869  -11.3299 N   0  0  0  0  0  0  0  0  0  0  0  0
  -11.7137   -8.9139  -12.4934 C   0  0  0  0  0  0  0  0  0  0  0  0
  -12.0198   -7.6986  -13.1113 C   0  0  0  0  0  0  0  0  0  0  0  0
  -12.7641   -7.7298  -14.2194 N   0  0  0  0  0  0  0  0  0  0  0  0
  -13.2264   -8.8645  -14.7603 C   0  0  0  0  0  0  0  0  0  0  0  0
  -12.9472  -10.0817  -14.1827 C   0  0  0  0  0  0  0  0  0  0  0  0
  -12.1805  -10.0983  -13.0350 C   0  0  0  0  0  0  0  0  0  0  0  0
  -14.0072   -8.7437  -15.9427 N   0  0  0  0  0  0  0  0  0  0  0  0
  -14.2464   -7.5664  -16.5455 C   0  0  0  0  0  0  0  0  0  0  0  0
  -15.0397   -7.8588  -17.6587 C   0  0  0  0  0  0  0  0  0  0  0  0
  -15.2562   -9.1863  -17.6991 N   0  0  0  0  0  0  0  0  0  0  0  0
  -14.6124   -9.7172  -16.6334 C   0  0  0  0  0  0  0  0  0  0  0  0
  -15.5483   -6.8541  -18.6240 C   0  0  0  0  0  0  0  0  0  0  0  0
  -15.1200   -7.2036  -19.8903 F   0  0  0  0  0  0  0  0  0  0  0  0
  -16.9380   -6.8721  -18.5466 F   0  0  0  0  0  0  0  0  0  0  0  0
  -15.1073   -5.5818  -18.2646 F   0  0  0  0  0  0  0  0  0  0  0  0
   -6.7316  -11.4421  -12.2724 C   0  0  0  0  0  0  0  0  0  0  0  0
  1  2  1  0
  2  3  1  0
  3  4  1  0
  4  5  1  0
  4  6  1  0
  6  7  1  0
  7  8  2  0
  8  9  1  0
  9 10  2  0
 10 11  1  0
 11 12  2  0
 10 13  1  0
 13 14  2  0
 13 15  1  0
 15 16  1  0
 16 17  1  0
 17 18  1  0
 18 19  2  0
 18 20  1  0
  6 21  1  0
 21 22  1  0
 22 23  2  0
 23 24  1  0
 24 25  2  0
 25 26  1  0
 26 27  2  0
 25 28  1  0
 28 29  1  0
 29 30  2  0
 30 31  1  0
 31 32  2  0
 30 33  1  0
 33 34  1  0
 33 35  1  0
 33 36  1  0
  2 37  1  0
  5  2  1  0
 12  7  1  0
 27 22  1  0
 32 28  1  0
M  END
$$$$
