
     RDKit          3D

 37 40  0  0  0  0  0  0  0  0999 V2000
  -10.8053  -11.4138   -6.5933 C   0  0  0  0  0  0  0  0  0  0  0  0
  -10.9063  -12.2327   -7.8344 C   0  0  0  0  0  0  0  0  0  0  0  0
   -9.9783  -11.7690   -8.9699 C   0  0  0  0  0  0  0  0  0  0  0  0
  -11.1081  -12.0915   -9.8975 C   0  0  0  0  0  0  0  0  0  0  0  0
  -12.0492  -11.7907   -8.7603 C   0  0  0  0  0  0  0  0  0  0  0  0
  -11.2780  -11.2177  -11.1150 C   0  0  0  0  0  0  0  0  0  0  0  0
  -10.0258  -11.1073  -11.8959 C   0  0  0  0  0  0  0  0  0  0  0  0
   -9.1966   -9.9934  -11.8920 C   0  0  0  0  0  0  0  0  0  0  0  0
   -8.0467   -9.9366  -12.6397 C   0  0  0  0  0  0  0  0  0  0  0  0
   -7.6496  -10.9976  -13.4448 C   0  0  0  0  0  0  0  0  0  0  0  0
   -8.4557  -12.1109  -13.4641 C   0  0  0  0  0  0  0  0  0  0  0  0
   -9.6092  -12.1416  -12.7009 C   0  0  0  0  0  0  0  0  0  0  0  0
   -6.4217  -10.9033  -14.2258 C   0  0  0  0  0  0  0  0  0  0  0  0
   -5.6760   -9.9073  -14.0550 O   0  0  0  0  0  0  0  0  0  0  0  0
   -6.0402  -11.8777  -15.1583 N   0  0  0  0  0  0  0  0  0  0  0  0
   -4.8784  -11.7039  -16.0389 C   0  0  0  0  0  0  0  0  0  0  0  0
   -3.6735  -12.3437  -15.3901 C   0  0  0  0  0  0  0  0  0  0  0  0
   -3.9397  -13.7262  -14.9781 C   0  0  0  0  0  0  0  0  0  0  0  0
   -4.8891  -13.9942  -14.2139 O   0  0  0  0  0  0  0  0  0  0  0  0
   -3.1388  -14.7517  -15.4335 O   0  0  0  0  0  0  0  0  0  0  0  0
  -12.4043  -11.6398  -11.9221 N   0  0  0  0  0  0  0  0  0  0  0  0
  -13.0214  -10.8608  -12.9186 C   0  0  0  0  0  0  0  0  0  0  0  0
  -12.5166   -9.5810  -13.1624 C   0  0  0  0  0  0  0  0  0  0  0  0
  -13.1003   -8.8488  -14.1144 N   0  0  0  0  0  0  0  0  0  0  0  0
  -14.1392   -9.2828  -14.8395 C   0  0  0  0  0  0  0  0  0  0  0  0
  -14.6656  -10.5368  -14.6304 C   0  0  0  0  0  0  0  0  0  0  0  0
  -14.0940  -11.3298  -13.6561 C   0  0  0  0  0  0  0  0  0  0  0  0
  -14.6584   -8.3924  -15.8193 N   0  0  0  0  0  0  0  0  0  0  0  0
  -14.1080   -7.1956  -16.0866 C   0  0  0  0  0  0  0  0  0  0  0  0
  -14.8938   -6.6275  -17.0935 C   0  0  0  0  0  0  0  0  0  0  0  0
  -15.8845   -7.4836  -17.4041 N   0  0  0  0  0  0  0  0  0  0  0  0
  -15.7247   -8.5672  -16.6089 C   0  0  0  0  0  0  0  0  0  0  0  0
  -14.6559   -5.2972  -17.7047 C   0  0  0  0  0  0  0  0  0  0  0  0
  -14.5519   -5.4536  -19.0735 F   0  0  0  0  0  0  0  0  0  0  0  0
  -15.7424   -4.4910  -17.3774 F   0  0  0  0  0  0  0  0  0  0  0  0
  -13.5071   -4.7227  -17.1637 F   0  0  0  0  0  0  0  0  0  0  0  0
  -10.7844  -13.7185   -7.6691 C   0  0  0  0  0  0  0  0  0  0  0  0
  1  2  1  0
  2  3  1  0
  3  4  1  0
  4  5  1  0
  4  6  1  0
  6  7  1  0
  7  8  2  0
  8  9  1  0
  9 10  2  0
 10 11  1  0
 11 12  2  0
 10 13  1  0
 13 14  2  0
 13 15  1  0
 15 16  1  0
 16 17  1  0
 17 18  1  0
 18 19  2  0
 18 20  1  0
  6 21  1  0
 21 22  1  0
 22 23  2  0
 23 24  1  0
 24 25  2  0
 25 26  1  0
 26 27  2  0
 25 28  1  0
 28 29  1  0
 29 30  2  0
 30 31  1  0
 31 32  2  0
 30 33  1  0
 33 34  1  0
 33 35  1  0
 33 36  1  0
  2 37  1  0
  5  2  1  0
 12  7  1  0
 27 22  1  0
 32 28  1  0
M  END
$$$$
