
     RDKit          3D

 37 40  0  0  0  0  0  0  0  0999 V2000
  -11.8818  -10.4527   -6.9408 C   0  0  0  0  0  0  0  0  0  0  0  0
  -12.3338  -11.3462   -8.0447 C   0  0  0  0  0  0  0  0  0  0  0  0
  -11.3041  -11.5190   -9.1741 C   0  0  0  0  0  0  0  0  0  0  0  0
  -12.4690  -11.4807  -10.1137 C   0  0  0  0  0  0  0  0  0  0  0  0
  -13.1812  -10.6222   -9.1012 C   0  0  0  0  0  0  0  0  0  0  0  0
  -12.2543  -10.8356  -11.4598 C   0  0  0  0  0  0  0  0  0  0  0  0
  -10.8360  -10.8890  -11.8792 C   0  0  0  0  0  0  0  0  0  0  0  0
   -9.8451  -10.0436  -11.3978 C   0  0  0  0  0  0  0  0  0  0  0  0
   -8.5427  -10.1287  -11.8232 C   0  0  0  0  0  0  0  0  0  0  0  0
   -8.1450  -11.0715  -12.7638 C   0  0  0  0  0  0  0  0  0  0  0  0
   -9.1098  -11.9190  -13.2542 C   0  0  0  0  0  0  0  0  0  0  0  0
  -10.4150  -11.8114  -12.8084 C   0  0  0  0  0  0  0  0  0  0  0  0
   -6.7528  -11.1340  -13.1930 C   0  0  0  0  0  0  0  0  0  0  0  0
   -6.4551  -11.8777  -14.1602 O   0  0  0  0  0  0  0  0  0  0  0  0
   -5.7344  -10.3989  -12.5709 N   0  0  0  0  0  0  0  0  0  0  0  0
   -4.6298   -9.7981  -13.3286 C   0  0  0  0  0  0  0  0  0  0  0  0
   -4.1318  -10.7998  -14.3438 C   0  0  0  0  0  0  0  0  0  0  0  0
   -4.2338  -10.2899  -15.7155 C   0  0  0  0  0  0  0  0  0  0  0  0
   -3.7700   -9.1717  -16.0182 O   0  0  0  0  0  0  0  0  0  0  0  0
   -4.8471  -11.0453  -16.6921 O   0  0  0  0  0  0  0  0  0  0  0  0
  -13.1531  -11.3747  -12.4597 N   0  0  0  0  0  0  0  0  0  0  0  0
  -13.6480  -10.6638  -13.5689 C   0  0  0  0  0  0  0  0  0  0  0  0
  -13.2893   -9.3203  -13.7048 C   0  0  0  0  0  0  0  0  0  0  0  0
  -13.7547   -8.6521  -14.7631 N   0  0  0  0  0  0  0  0  0  0  0  0
  -14.5434   -9.2078  -15.6921 C   0  0  0  0  0  0  0  0  0  0  0  0
  -14.9193  -10.5278  -15.5948 C   0  0  0  0  0  0  0  0  0  0  0  0
  -14.4617  -11.2584  -14.5168 C   0  0  0  0  0  0  0  0  0  0  0  0
  -14.9629   -8.3734  -16.7644 N   0  0  0  0  0  0  0  0  0  0  0  0
  -14.6292   -7.0746  -16.8559 C   0  0  0  0  0  0  0  0  0  0  0  0
  -15.2239   -6.6068  -18.0313 C   0  0  0  0  0  0  0  0  0  0  0  0
  -15.8920   -7.6206  -18.6113 N   0  0  0  0  0  0  0  0  0  0  0  0
  -15.7208   -8.7031  -17.8170 C   0  0  0  0  0  0  0  0  0  0  0  0
  -15.1218   -5.2162  -18.5370 C   0  0  0  0  0  0  0  0  0  0  0  0
  -16.0344   -5.0519  -19.5613 F   0  0  0  0  0  0  0  0  0  0  0  0
  -15.4103   -4.3665  -17.4729 F   0  0  0  0  0  0  0  0  0  0  0  0
  -13.8197   -4.9578  -18.9616 F   0  0  0  0  0  0  0  0  0  0  0  0
  -12.8622  -12.6917   -7.6445 C   0  0  0  0  0  0  0  0  0  0  0  0
  1  2  1  0
  2  3  1  0
  3  4  1  0
  4  5  1  0
  4  6  1  0
  6  7  1  0
  7  8  2  0
  8  9  1  0
  9 10  2  0
 10 11  1  0
 11 12  2  0
 10 13  1  0
 13 14  2  0
 13 15  1  0
 15 16  1  0
 16 17  1  0
 17 18  1  0
 18 19  2  0
 18 20  1  0
  6 21  1  0
 21 22  1  0
 22 23  2  0
 23 24  1  0
 24 25  2  0
 25 26  1  0
 26 27  2  0
 25 28  1  0
 28 29  1  0
 29 30  2  0
 30 31  1  0
 31 32  2  0
 30 33  1  0
 33 34  1  0
 33 35  1  0
 33 36  1  0
  2 37  1  0
  5  2  1  0
 12  7  1  0
 27 22  1  0
 32 28  1  0
M  END
$$$$
