
     RDKit          3D

 37 40  0  0  0  0  0  0  0  0999 V2000
   -9.8589  -11.4298   -0.0972 C   0  0  0  0  0  0  0  0  0  0  0  0
   -9.4628  -10.0653   -0.5469 C   0  0  0  0  0  0  0  0  0  0  0  0
  -10.2651   -8.9298    0.1108 C   0  0  0  0  0  0  0  0  0  0  0  0
  -10.2327   -8.2594   -1.2274 C   0  0  0  0  0  0  0  0  0  0  0  0
  -10.1567   -9.6307   -1.8463 C   0  0  0  0  0  0  0  0  0  0  0  0
  -11.4381   -7.4451   -1.6254 C   0  0  0  0  0  0  0  0  0  0  0  0
  -11.6830   -6.3253   -0.6894 C   0  0  0  0  0  0  0  0  0  0  0  0
  -12.7716   -6.2466    0.1691 C   0  0  0  0  0  0  0  0  0  0  0  0
  -12.9584   -5.1822    1.0157 C   0  0  0  0  0  0  0  0  0  0  0  0
  -12.0621   -4.1209    1.0583 C   0  0  0  0  0  0  0  0  0  0  0  0
  -10.9768   -4.1777    0.2165 C   0  0  0  0  0  0  0  0  0  0  0  0
  -10.8128   -5.2622   -0.6267 C   0  0  0  0  0  0  0  0  0  0  0  0
  -12.2913   -3.0063    1.9702 C   0  0  0  0  0  0  0  0  0  0  0  0
  -12.8732   -3.2317    3.0601 O   0  0  0  0  0  0  0  0  0  0  0  0
  -11.8893   -1.6952    1.6804 N   0  0  0  0  0  0  0  0  0  0  0  0
  -11.9249   -0.6266    2.6864 C   0  0  0  0  0  0  0  0  0  0  0  0
  -10.5146   -0.3413    3.1465 C   0  0  0  0  0  0  0  0  0  0  0  0
  -10.2367   -0.9258    4.4630 C   0  0  0  0  0  0  0  0  0  0  0  0
  -11.1514   -1.4331    5.1435 O   0  0  0  0  0  0  0  0  0  0  0  0
   -8.9534   -0.9214    4.9665 O   0  0  0  0  0  0  0  0  0  0  0  0
  -11.3579   -7.0123   -3.0055 N   0  0  0  0  0  0  0  0  0  0  0  0
  -12.1425   -7.5191   -4.0582 C   0  0  0  0  0  0  0  0  0  0  0  0
  -13.0216   -8.5688   -3.7795 C   0  0  0  0  0  0  0  0  0  0  0  0
  -13.7698   -9.0409   -4.7797 N   0  0  0  0  0  0  0  0  0  0  0  0
  -13.7154   -8.5572   -6.0274 C   0  0  0  0  0  0  0  0  0  0  0  0
  -12.8632   -7.5240   -6.3428 C   0  0  0  0  0  0  0  0  0  0  0  0
  -12.0701   -7.0037   -5.3401 C   0  0  0  0  0  0  0  0  0  0  0  0
  -14.5713   -9.1595   -6.9902 N   0  0  0  0  0  0  0  0  0  0  0  0
  -15.3272  -10.2389   -6.7251 C   0  0  0  0  0  0  0  0  0  0  0  0
  -16.0166  -10.5250   -7.9070 C   0  0  0  0  0  0  0  0  0  0  0  0
  -15.6645   -9.6239   -8.8423 N   0  0  0  0  0  0  0  0  0  0  0  0
  -14.7723   -8.7888   -8.2604 C   0  0  0  0  0  0  0  0  0  0  0  0
  -16.9747  -11.6440   -8.0792 C   0  0  0  0  0  0  0  0  0  0  0  0
  -18.0384  -11.1999   -8.8410 F   0  0  0  0  0  0  0  0  0  0  0  0
  -16.2965  -12.6740   -8.7248 F   0  0  0  0  0  0  0  0  0  0  0  0
  -17.3927  -12.1096   -6.8338 F   0  0  0  0  0  0  0  0  0  0  0  0
   -8.0001   -9.7384   -0.4882 C   0  0  0  0  0  0  0  0  0  0  0  0
  1  2  1  0
  2  3  1  0
  3  4  1  0
  4  5  1  0
  4  6  1  0
  6  7  1  0
  7  8  2  0
  8  9  1  0
  9 10  2  0
 10 11  1  0
 11 12  2  0
 10 13  1  0
 13 14  2  0
 13 15  1  0
 15 16  1  0
 16 17  1  0
 17 18  1  0
 18 19  2  0
 18 20  1  0
  6 21  1  0
 21 22  1  0
 22 23  2  0
 23 24  1  0
 24 25  2  0
 25 26  1  0
 26 27  2  0
 25 28  1  0
 28 29  1  0
 29 30  2  0
 30 31  1  0
 31 32  2  0
 30 33  1  0
 33 34  1  0
 33 35  1  0
 33 36  1  0
  2 37  1  0
  5  2  1  0
 12  7  1  0
 27 22  1  0
 32 28  1  0
M  END
$$$$
