
     RDKit          3D

 37 40  0  0  0  0  0  0  0  0999 V2000
  -12.5411  -12.7632   -8.0971 C   0  0  0  0  0  0  0  0  0  0  0  0
  -12.0832  -13.3791   -9.3746 C   0  0  0  0  0  0  0  0  0  0  0  0
  -10.8876  -12.6621  -10.0244 C   0  0  0  0  0  0  0  0  0  0  0  0
  -11.5611  -12.9284  -11.3345 C   0  0  0  0  0  0  0  0  0  0  0  0
  -12.8749  -12.8950  -10.5983 C   0  0  0  0  0  0  0  0  0  0  0  0
  -11.4092  -11.8895  -12.4171 C   0  0  0  0  0  0  0  0  0  0  0  0
   -9.9885  -11.5734  -12.6854 C   0  0  0  0  0  0  0  0  0  0  0  0
   -8.9418  -12.4702  -12.5162 C   0  0  0  0  0  0  0  0  0  0  0  0
   -7.6376  -12.1269  -12.7731 C   0  0  0  0  0  0  0  0  0  0  0  0
   -7.2944  -10.8559  -13.2186 C   0  0  0  0  0  0  0  0  0  0  0  0
   -8.3150   -9.9517  -13.3930 C   0  0  0  0  0  0  0  0  0  0  0  0
   -9.6205  -10.3240  -13.1266 C   0  0  0  0  0  0  0  0  0  0  0  0
   -5.8987  -10.5255  -13.4819 C   0  0  0  0  0  0  0  0  0  0  0  0
   -5.6138   -9.3518  -13.8259 O   0  0  0  0  0  0  0  0  0  0  0  0
   -4.8634  -11.4633  -13.3668 N   0  0  0  0  0  0  0  0  0  0  0  0
   -3.6860  -11.4387  -14.2434 C   0  0  0  0  0  0  0  0  0  0  0  0
   -2.7135  -10.4047  -13.7268 C   0  0  0  0  0  0  0  0  0  0  0  0
   -2.5989   -9.2563  -14.6324 C   0  0  0  0  0  0  0  0  0  0  0  0
   -1.8136   -9.2822  -15.6018 O   0  0  0  0  0  0  0  0  0  0  0  0
   -3.3626   -8.1282  -14.4213 O   0  0  0  0  0  0  0  0  0  0  0  0
  -12.1356  -12.2568  -13.6153 N   0  0  0  0  0  0  0  0  0  0  0  0
  -12.9046  -11.3743  -14.3966 C   0  0  0  0  0  0  0  0  0  0  0  0
  -13.0596  -10.0602  -13.9479 C   0  0  0  0  0  0  0  0  0  0  0  0
  -13.7835   -9.2244  -14.6967 N   0  0  0  0  0  0  0  0  0  0  0  0
  -14.3625   -9.5867  -15.8487 C   0  0  0  0  0  0  0  0  0  0  0  0
  -14.2338  -10.8711  -16.3251 C   0  0  0  0  0  0  0  0  0  0  0  0
  -13.4939  -11.7704  -15.5841 C   0  0  0  0  0  0  0  0  0  0  0  0
  -15.1040   -8.5889  -16.5392 N   0  0  0  0  0  0  0  0  0  0  0  0
  -15.4333   -7.4081  -15.9880 C   0  0  0  0  0  0  0  0  0  0  0  0
  -16.1495   -6.7133  -16.9671 C   0  0  0  0  0  0  0  0  0  0  0  0
  -16.2332   -7.4814  -18.0688 N   0  0  0  0  0  0  0  0  0  0  0  0
  -15.5830   -8.6350  -17.7880 C   0  0  0  0  0  0  0  0  0  0  0  0
  -16.7154   -5.3529  -16.7973 C   0  0  0  0  0  0  0  0  0  0  0  0
  -17.3578   -5.2924  -15.5755 F   0  0  0  0  0  0  0  0  0  0  0  0
  -15.6539   -4.4539  -16.8461 F   0  0  0  0  0  0  0  0  0  0  0  0
  -17.5824   -5.0626  -17.8493 F   0  0  0  0  0  0  0  0  0  0  0  0
  -11.8233  -14.8562   -9.3514 C   0  0  0  0  0  0  0  0  0  0  0  0
  1  2  1  0
  2  3  1  0
  3  4  1  0
  4  5  1  0
  4  6  1  0
  6  7  1  0
  7  8  2  0
  8  9  1  0
  9 10  2  0
 10 11  1  0
 11 12  2  0
 10 13  1  0
 13 14  2  0
 13 15  1  0
 15 16  1  0
 16 17  1  0
 17 18  1  0
 18 19  2  0
 18 20  1  0
  6 21  1  0
 21 22  1  0
 22 23  2  0
 23 24  1  0
 24 25  2  0
 25 26  1  0
 26 27  2  0
 25 28  1  0
 28 29  1  0
 29 30  2  0
 30 31  1  0
 31 32  2  0
 30 33  1  0
 33 34  1  0
 33 35  1  0
 33 36  1  0
  2 37  1  0
  5  2  1  0
 12  7  1  0
 27 22  1  0
 32 28  1  0
M  END
$$$$
