
     RDKit          3D

 37 40  0  0  0  0  0  0  0  0999 V2000
  -12.7077    1.9204    6.5807 C   0  0  0  0  0  0  0  0  0  0  0  0
  -11.4070    1.4932    7.1696 C   0  0  0  0  0  0  0  0  0  0  0  0
  -10.2572    2.4889    6.9413 C   0  0  0  0  0  0  0  0  0  0  0  0
   -9.3843    1.2894    6.7404 C   0  0  0  0  0  0  0  0  0  0  0  0
  -10.6066    0.5554    6.2539 C   0  0  0  0  0  0  0  0  0  0  0  0
   -8.2664    1.4048    5.7347 C   0  0  0  0  0  0  0  0  0  0  0  0
   -7.2936    2.4562    6.1069 C   0  0  0  0  0  0  0  0  0  0  0  0
   -5.9575    2.2177    6.4007 C   0  0  0  0  0  0  0  0  0  0  0  0
   -5.0946    3.2276    6.7473 C   0  0  0  0  0  0  0  0  0  0  0  0
   -5.5157    4.5499    6.8229 C   0  0  0  0  0  0  0  0  0  0  0  0
   -6.8349    4.8092    6.5362 C   0  0  0  0  0  0  0  0  0  0  0  0
   -7.6830    3.7726    6.1896 C   0  0  0  0  0  0  0  0  0  0  0  0
   -4.5720    5.5978    7.1942 C   0  0  0  0  0  0  0  0  0  0  0  0
   -3.3656    5.2893    7.3581 O   0  0  0  0  0  0  0  0  0  0  0  0
   -4.9556    6.9336    7.3753 N   0  0  0  0  0  0  0  0  0  0  0  0
   -3.9824    7.9935    7.6664 C   0  0  0  0  0  0  0  0  0  0  0  0
   -3.5159    8.5999    6.3639 C   0  0  0  0  0  0  0  0  0  0  0  0
   -4.6271    8.8264    5.4334 C   0  0  0  0  0  0  0  0  0  0  0  0
   -4.6286    8.3043    4.2999 O   0  0  0  0  0  0  0  0  0  0  0  0
   -5.6892    9.6236    5.8030 O   0  0  0  0  0  0  0  0  0  0  0  0
   -7.6370    0.1239    5.4868 N   0  0  0  0  0  0  0  0  0  0  0  0
   -7.0931   -0.2842    4.2547 C   0  0  0  0  0  0  0  0  0  0  0  0
   -7.0331    0.6507    3.2180 C   0  0  0  0  0  0  0  0  0  0  0  0
   -6.5089    0.2611    2.0533 N   0  0  0  0  0  0  0  0  0  0  0  0
   -6.0420   -0.9753    1.8366 C   0  0  0  0  0  0  0  0  0  0  0  0
   -6.0826   -1.9250    2.8314 C   0  0  0  0  0  0  0  0  0  0  0  0
   -6.6162   -1.5672    4.0530 C   0  0  0  0  0  0  0  0  0  0  0  0
   -5.5118   -1.2470    0.5453 N   0  0  0  0  0  0  0  0  0  0  0  0
   -5.5657   -0.3666   -0.4689 C   0  0  0  0  0  0  0  0  0  0  0  0
   -4.9487   -0.9936   -1.5553 C   0  0  0  0  0  0  0  0  0  0  0  0
   -4.5438   -2.2191   -1.1749 N   0  0  0  0  0  0  0  0  0  0  0  0
   -4.8989   -2.3595    0.1237 C   0  0  0  0  0  0  0  0  0  0  0  0
   -4.7793   -0.3880   -2.8986 C   0  0  0  0  0  0  0  0  0  0  0  0
   -3.4546   -0.0277   -3.0555 F   0  0  0  0  0  0  0  0  0  0  0  0
   -5.1474   -1.3493   -3.8355 F   0  0  0  0  0  0  0  0  0  0  0  0
   -5.6303    0.7068   -3.0387 F   0  0  0  0  0  0  0  0  0  0  0  0
  -11.4272    1.0803    8.6114 C   0  0  0  0  0  0  0  0  0  0  0  0
  1  2  1  0
  2  3  1  0
  3  4  1  0
  4  5  1  0
  4  6  1  0
  6  7  1  0
  7  8  2  0
  8  9  1  0
  9 10  2  0
 10 11  1  0
 11 12  2  0
 10 13  1  0
 13 14  2  0
 13 15  1  0
 15 16  1  0
 16 17  1  0
 17 18  1  0
 18 19  2  0
 18 20  1  0
  6 21  1  0
 21 22  1  0
 22 23  2  0
 23 24  1  0
 24 25  2  0
 25 26  1  0
 26 27  2  0
 25 28  1  0
 28 29  1  0
 29 30  2  0
 30 31  1  0
 31 32  2  0
 30 33  1  0
 33 34  1  0
 33 35  1  0
 33 36  1  0
  2 37  1  0
  5  2  1  0
 12  7  1  0
 27 22  1  0
 32 28  1  0
M  END
$$$$
