
     RDKit          3D

 37 40  0  0  0  0  0  0  0  0999 V2000
  -12.2693  -11.8099   -7.8659 C   0  0  0  0  0  0  0  0  0  0  0  0
  -12.3283  -12.5450   -9.1610 C   0  0  0  0  0  0  0  0  0  0  0  0
  -11.0664  -12.3933  -10.0272 C   0  0  0  0  0  0  0  0  0  0  0  0
  -11.9940  -12.3322  -11.2005 C   0  0  0  0  0  0  0  0  0  0  0  0
  -13.0323  -11.7552  -10.2741 C   0  0  0  0  0  0  0  0  0  0  0  0
  -11.5996  -11.4412  -12.3517 C   0  0  0  0  0  0  0  0  0  0  0  0
  -10.1325  -11.2686  -12.4405 C   0  0  0  0  0  0  0  0  0  0  0  0
   -9.3957  -10.4076  -11.6377 C   0  0  0  0  0  0  0  0  0  0  0  0
   -8.0348  -10.2780  -11.7628 C   0  0  0  0  0  0  0  0  0  0  0  0
   -7.3185  -11.0061  -12.7054 C   0  0  0  0  0  0  0  0  0  0  0  0
   -8.0278  -11.8647  -13.5112 C   0  0  0  0  0  0  0  0  0  0  0  0
   -9.3989  -11.9759  -13.3639 C   0  0  0  0  0  0  0  0  0  0  0  0
   -5.8732  -10.8436  -12.8107 C   0  0  0  0  0  0  0  0  0  0  0  0
   -5.2780  -10.1754  -11.9296 O   0  0  0  0  0  0  0  0  0  0  0  0
   -5.1220  -11.4022  -13.8539 N   0  0  0  0  0  0  0  0  0  0  0  0
   -3.6763  -11.1810  -13.9810 C   0  0  0  0  0  0  0  0  0  0  0  0
   -3.4268   -9.7126  -14.2328 C   0  0  0  0  0  0  0  0  0  0  0  0
   -3.7675   -9.3242  -15.6058 C   0  0  0  0  0  0  0  0  0  0  0  0
   -3.8851  -10.1836  -16.5030 O   0  0  0  0  0  0  0  0  0  0  0  0
   -3.9631   -7.9969  -15.9225 O   0  0  0  0  0  0  0  0  0  0  0  0
  -12.1858  -11.8888  -13.5984 N   0  0  0  0  0  0  0  0  0  0  0  0
  -12.7924  -11.0512  -14.5529 C   0  0  0  0  0  0  0  0  0  0  0  0
  -12.8514   -9.6810  -14.2856 C   0  0  0  0  0  0  0  0  0  0  0  0
  -13.4206   -8.8892  -15.1978 N   0  0  0  0  0  0  0  0  0  0  0  0
  -13.9330   -9.3461  -16.3477 C   0  0  0  0  0  0  0  0  0  0  0  0
  -13.8946  -10.6882  -16.6487 C   0  0  0  0  0  0  0  0  0  0  0  0
  -13.3152  -11.5451  -15.7348 C   0  0  0  0  0  0  0  0  0  0  0  0
  -14.5082   -8.3852  -17.2241 N   0  0  0  0  0  0  0  0  0  0  0  0
  -15.0200   -7.2180  -16.7970 C   0  0  0  0  0  0  0  0  0  0  0  0
  -15.4825   -6.5599  -17.9403 C   0  0  0  0  0  0  0  0  0  0  0  0
  -15.2415   -7.3354  -19.0133 N   0  0  0  0  0  0  0  0  0  0  0  0
  -14.6402   -8.4576  -18.5539 C   0  0  0  0  0  0  0  0  0  0  0  0
  -16.1298   -5.2253  -17.9461 C   0  0  0  0  0  0  0  0  0  0  0  0
  -16.9204   -5.1242  -19.0746 F   0  0  0  0  0  0  0  0  0  0  0  0
  -16.8993   -5.1335  -16.7899 F   0  0  0  0  0  0  0  0  0  0  0  0
  -15.1600   -4.2251  -17.9058 F   0  0  0  0  0  0  0  0  0  0  0  0
  -12.7125  -13.9933   -9.0929 C   0  0  0  0  0  0  0  0  0  0  0  0
  1  2  1  0
  2  3  1  0
  3  4  1  0
  4  5  1  0
  4  6  1  0
  6  7  1  0
  7  8  2  0
  8  9  1  0
  9 10  2  0
 10 11  1  0
 11 12  2  0
 10 13  1  0
 13 14  2  0
 13 15  1  0
 15 16  1  0
 16 17  1  0
 17 18  1  0
 18 19  2  0
 18 20  1  0
  6 21  1  0
 21 22  1  0
 22 23  2  0
 23 24  1  0
 24 25  2  0
 25 26  1  0
 26 27  2  0
 25 28  1  0
 28 29  1  0
 29 30  2  0
 30 31  1  0
 31 32  2  0
 30 33  1  0
 33 34  1  0
 33 35  1  0
 33 36  1  0
  2 37  1  0
  5  2  1  0
 12  7  1  0
 27 22  1  0
 32 28  1  0
M  END
$$$$
