
     RDKit          3D

 37 40  0  0  0  0  0  0  0  0999 V2000
  -11.5003    1.6219    6.9325 C   0  0  0  0  0  0  0  0  0  0  0  0
  -10.8047    0.7293    5.9627 C   0  0  0  0  0  0  0  0  0  0  0  0
   -9.3167    0.4991    6.2769 C   0  0  0  0  0  0  0  0  0  0  0  0
   -9.0913    0.5675    4.7985 C   0  0  0  0  0  0  0  0  0  0  0  0
  -10.2957    1.4688    4.7166 C   0  0  0  0  0  0  0  0  0  0  0  0
   -7.7999    1.1826    4.3208 C   0  0  0  0  0  0  0  0  0  0  0  0
   -7.3266    2.2510    5.2289 C   0  0  0  0  0  0  0  0  0  0  0  0
   -7.6282    3.5979    5.0770 C   0  0  0  0  0  0  0  0  0  0  0  0
   -7.1593    4.5535    5.9439 C   0  0  0  0  0  0  0  0  0  0  0  0
   -6.3529    4.2208    7.0259 C   0  0  0  0  0  0  0  0  0  0  0  0
   -6.0414    2.8927    7.1956 C   0  0  0  0  0  0  0  0  0  0  0  0
   -6.5274    1.9503    6.3070 C   0  0  0  0  0  0  0  0  0  0  0  0
   -5.8726    5.2616    7.9273 C   0  0  0  0  0  0  0  0  0  0  0  0
   -4.7741    5.0905    8.5114 O   0  0  0  0  0  0  0  0  0  0  0  0
   -6.5859    6.4439    8.1680 N   0  0  0  0  0  0  0  0  0  0  0  0
   -5.9587    7.7678    8.0735 C   0  0  0  0  0  0  0  0  0  0  0  0
   -5.0161    7.9465    9.2404 C   0  0  0  0  0  0  0  0  0  0  0  0
   -4.7526    9.3616    9.5230 C   0  0  0  0  0  0  0  0  0  0  0  0
   -3.8809    9.6969   10.3507 O   0  0  0  0  0  0  0  0  0  0  0  0
   -5.4695   10.3435    8.8732 O   0  0  0  0  0  0  0  0  0  0  0  0
   -6.7898    0.1753    4.0691 N   0  0  0  0  0  0  0  0  0  0  0  0
   -6.2609   -0.1403    2.8036 C   0  0  0  0  0  0  0  0  0  0  0  0
   -6.5180    0.7341    1.7445 C   0  0  0  0  0  0  0  0  0  0  0  0
   -6.0074    0.4346    0.5476 N   0  0  0  0  0  0  0  0  0  0  0  0
   -5.2661   -0.6571    0.3191 C   0  0  0  0  0  0  0  0  0  0  0  0
   -4.9900   -1.5429    1.3352 C   0  0  0  0  0  0  0  0  0  0  0  0
   -5.4972   -1.2741    2.5904 C   0  0  0  0  0  0  0  0  0  0  0  0
   -4.7892   -0.8466   -1.0071 N   0  0  0  0  0  0  0  0  0  0  0  0
   -5.1181   -0.0351   -2.0268 C   0  0  0  0  0  0  0  0  0  0  0  0
   -4.4609   -0.5443   -3.1506 C   0  0  0  0  0  0  0  0  0  0  0  0
   -3.7619   -1.6348   -2.7860 N   0  0  0  0  0  0  0  0  0  0  0  0
   -3.9753   -1.8074   -1.4606 C   0  0  0  0  0  0  0  0  0  0  0  0
   -4.5362    0.0384   -4.5125 C   0  0  0  0  0  0  0  0  0  0  0  0
   -5.7810    0.6152   -4.6766 F   0  0  0  0  0  0  0  0  0  0  0  0
   -3.5286    0.9937   -4.6103 F   0  0  0  0  0  0  0  0  0  0  0  0
   -4.2966   -0.9485   -5.4671 F   0  0  0  0  0  0  0  0  0  0  0  0
  -11.4609   -0.5883    5.6745 C   0  0  0  0  0  0  0  0  0  0  0  0
  1  2  1  0
  2  3  1  0
  3  4  1  0
  4  5  1  0
  4  6  1  0
  6  7  1  0
  7  8  2  0
  8  9  1  0
  9 10  2  0
 10 11  1  0
 11 12  2  0
 10 13  1  0
 13 14  2  0
 13 15  1  0
 15 16  1  0
 16 17  1  0
 17 18  1  0
 18 19  2  0
 18 20  1  0
  6 21  1  0
 21 22  1  0
 22 23  2  0
 23 24  1  0
 24 25  2  0
 25 26  1  0
 26 27  2  0
 25 28  1  0
 28 29  1  0
 29 30  2  0
 30 31  1  0
 31 32  2  0
 30 33  1  0
 33 34  1  0
 33 35  1  0
 33 36  1  0
  2 37  1  0
  5  2  1  0
 12  7  1  0
 27 22  1  0
 32 28  1  0
M  END
$$$$
