
     RDKit          3D

 37 40  0  0  0  0  0  0  0  0999 V2000
  -14.5174   -9.7260   -6.9170 C   0  0  0  0  0  0  0  0  0  0  0  0
  -14.2756  -10.6780   -8.0379 C   0  0  0  0  0  0  0  0  0  0  0  0
  -12.9007  -10.5212   -8.7094 C   0  0  0  0  0  0  0  0  0  0  0  0
  -13.6076  -10.7848  -10.0024 C   0  0  0  0  0  0  0  0  0  0  0  0
  -14.8439  -10.1912   -9.3790 C   0  0  0  0  0  0  0  0  0  0  0  0
  -13.1028  -10.0665  -11.2286 C   0  0  0  0  0  0  0  0  0  0  0  0
  -11.6424  -10.2297  -11.4037 C   0  0  0  0  0  0  0  0  0  0  0  0
  -10.7217   -9.1948  -11.3046 C   0  0  0  0  0  0  0  0  0  0  0  0
   -9.3753   -9.3960  -11.4818 C   0  0  0  0  0  0  0  0  0  0  0  0
   -8.8599  -10.6538  -11.7715 C   0  0  0  0  0  0  0  0  0  0  0  0
   -9.7535  -11.6933  -11.8743 C   0  0  0  0  0  0  0  0  0  0  0  0
  -11.1053  -11.4627  -11.6911 C   0  0  0  0  0  0  0  0  0  0  0  0
   -7.4240  -10.8315  -11.9532 C   0  0  0  0  0  0  0  0  0  0  0  0
   -6.6689   -9.8442  -11.7732 O   0  0  0  0  0  0  0  0  0  0  0  0
   -6.8527  -12.0576  -12.3203 N   0  0  0  0  0  0  0  0  0  0  0  0
   -5.4012  -12.2358  -12.4495 C   0  0  0  0  0  0  0  0  0  0  0  0
   -4.8944  -13.0028  -11.2508 C   0  0  0  0  0  0  0  0  0  0  0  0
   -5.5265  -14.3213  -11.1339 C   0  0  0  0  0  0  0  0  0  0  0  0
   -6.7274  -14.4285  -10.8120 O   0  0  0  0  0  0  0  0  0  0  0  0
   -4.7964  -15.4644  -11.3800 O   0  0  0  0  0  0  0  0  0  0  0  0
  -13.8522  -10.4379  -12.4113 N   0  0  0  0  0  0  0  0  0  0  0  0
  -14.0090   -9.6325  -13.5547 C   0  0  0  0  0  0  0  0  0  0  0  0
  -14.6825  -10.1715  -14.6539 C   0  0  0  0  0  0  0  0  0  0  0  0
  -14.8359   -9.4007  -15.7335 N   0  0  0  0  0  0  0  0  0  0  0  0
  -14.3769   -8.1448  -15.8088 C   0  0  0  0  0  0  0  0  0  0  0  0
  -13.7087   -7.5772  -14.7482 C   0  0  0  0  0  0  0  0  0  0  0  0
  -13.5266   -8.3370  -13.6103 C   0  0  0  0  0  0  0  0  0  0  0  0
  -14.6139   -7.4435  -17.0230 N   0  0  0  0  0  0  0  0  0  0  0  0
  -15.1487   -8.0231  -18.1113 C   0  0  0  0  0  0  0  0  0  0  0  0
  -15.2209   -7.0216  -19.0839 C   0  0  0  0  0  0  0  0  0  0  0  0
  -14.7347   -5.8790  -18.5654 N   0  0  0  0  0  0  0  0  0  0  0  0
  -14.3646   -6.1567  -17.2934 C   0  0  0  0  0  0  0  0  0  0  0  0
  -15.7505   -7.2102  -20.4565 C   0  0  0  0  0  0  0  0  0  0  0  0
  -14.7777   -6.8283  -21.3603 F   0  0  0  0  0  0  0  0  0  0  0  0
  -16.0595   -8.5598  -20.5992 F   0  0  0  0  0  0  0  0  0  0  0  0
  -16.9225   -6.4740  -20.6204 F   0  0  0  0  0  0  0  0  0  0  0  0
  -14.5254  -12.1288   -7.7509 C   0  0  0  0  0  0  0  0  0  0  0  0
  1  2  1  0
  2  3  1  0
  3  4  1  0
  4  5  1  0
  4  6  1  0
  6  7  1  0
  7  8  2  0
  8  9  1  0
  9 10  2  0
 10 11  1  0
 11 12  2  0
 10 13  1  0
 13 14  2  0
 13 15  1  0
 15 16  1  0
 16 17  1  0
 17 18  1  0
 18 19  2  0
 18 20  1  0
  6 21  1  0
 21 22  1  0
 22 23  2  0
 23 24  1  0
 24 25  2  0
 25 26  1  0
 26 27  2  0
 25 28  1  0
 28 29  1  0
 29 30  2  0
 30 31  1  0
 31 32  2  0
 30 33  1  0
 33 34  1  0
 33 35  1  0
 33 36  1  0
  2 37  1  0
  5  2  1  0
 12  7  1  0
 27 22  1  0
 32 28  1  0
M  END
$$$$
