
     RDKit          3D

 21 22  0  0  0  0  0  0  0  0999 V2000
   -1.2754   -1.9455    8.4475 O   0  0  0  0  0  0  0  0  0  0  0  0
   -1.2841   -2.1666    9.8063 C   0  0  1  0  0  0  0  0  0  0  0  0
   -1.8985   -0.9966   10.5447 C   0  0  0  0  0  0  0  0  0  0  0  0
   -1.1409    0.2035   10.4884 N   0  0  0  0  0  4  0  0  0  0  0  0
   -1.6844    1.2843   11.2794 C   0  0  0  0  0  0  0  0  0  0  0  0
   -3.0343    1.7479   10.7163 C   0  0  0  0  0  0  0  0  0  0  0  0
   -1.9036    0.9356   12.7124 C   0  0  0  0  0  0  0  0  0  0  0  0
   -0.7759    2.4989   11.2296 C   0  0  0  0  0  0  0  0  0  0  0  0
   -1.9126   -3.4672   10.1387 C   0  0  0  0  0  0  0  0  0  0  0  0
   -2.9108   -3.8804    9.3056 O   0  0  0  0  0  0  0  0  0  0  0  0
   -3.7724   -4.9289    9.3076 C   0  0  0  0  0  0  0  0  0  0  0  0
   -3.7329   -5.7832   10.4818 N   0  0  0  0  0  0  0  0  0  0  0  0
   -4.8833   -6.9958   10.2318 S   0  0  0  0  0  0  0  0  0  0  0  0
   -5.4252   -6.4288    8.6334 N   0  0  0  0  0  0  0  0  0  0  0  0
   -4.6255   -5.2572    8.3797 C   0  0  0  0  0  0  0  0  0  0  0  0
   -4.8668   -4.5738    7.1062 N   0  0  0  0  0  0  0  0  0  0  0  0
   -4.2475   -3.3393    6.7592 C   0  0  0  0  0  0  0  0  0  0  0  0
   -3.7209   -3.4847    5.3253 C   0  0  0  0  0  0  0  0  0  0  0  0
   -4.6901   -4.0234    4.4867 O   0  0  0  0  0  0  0  0  0  0  0  0
   -5.0526   -5.3143    4.8518 C   0  0  0  0  0  0  0  0  0  0  0  0
   -5.7688   -5.2054    6.2005 C   0  0  0  0  0  0  0  0  0  0  0  0
  2  1  1  6
  2  3  1  0
  3  4  1  0
  4  5  1  0
  5  6  1  0
  5  7  1  0
  5  8  1  0
  2  9  1  0
  9 10  1  0
 10 11  1  0
 11 12  2  0
 12 13  1  0
 13 14  1  0
 14 15  2  0
 15 16  1  0
 16 17  1  0
 17 18  1  0
 18 19  1  0
 19 20  1  0
 20 21  1  0
 15 11  1  0
 21 16  1  0
M  CHG  1   4   1
M  END
$$$$
