
     RDKit          3D

 21 22  0  0  0  0  0  0  0  0999 V2000
   -1.7329   -2.4290    7.8482 O   0  0  0  0  0  0  0  0  0  0  0  0
   -2.9261   -2.6112    8.5102 C   0  0  1  0  0  0  0  0  0  0  0  0
   -3.7849   -3.6434    7.8111 C   0  0  0  0  0  0  0  0  0  0  0  0
   -3.9522   -3.4290    6.4170 N   0  0  0  0  0  4  0  0  0  0  0  0
   -4.8521   -4.3626    5.7783 C   0  0  0  0  0  0  0  0  0  0  0  0
   -6.2104   -4.3867    6.4914 C   0  0  0  0  0  0  0  0  0  0  0  0
   -5.1162   -4.0632    4.3417 C   0  0  0  0  0  0  0  0  0  0  0  0
   -4.3126   -5.7784    5.8672 C   0  0  0  0  0  0  0  0  0  0  0  0
   -2.7084   -2.9032    9.9470 C   0  0  0  0  0  0  0  0  0  0  0  0
   -1.8044   -2.1087   10.5894 O   0  0  0  0  0  0  0  0  0  0  0  0
   -1.2604   -2.1073   11.8327 C   0  0  0  0  0  0  0  0  0  0  0  0
   -1.5121   -3.2889   12.6393 N   0  0  0  0  0  0  0  0  0  0  0  0
   -0.7388   -3.0328   14.1200 S   0  0  0  0  0  0  0  0  0  0  0  0
   -0.0885   -1.4224   13.7284 N   0  0  0  0  0  0  0  0  0  0  0  0
   -0.5434   -1.1702   12.3846 C   0  0  0  0  0  0  0  0  0  0  0  0
   -0.1456    0.1122   11.7978 N   0  0  0  0  0  0  0  0  0  0  0  0
   -0.4669    0.4867   10.4620 C   0  0  0  0  0  0  0  0  0  0  0  0
   -1.0038    1.9233   10.5117 C   0  0  0  0  0  0  0  0  0  0  0  0
   -0.1765    2.7424   11.2716 O   0  0  0  0  0  0  0  0  0  0  0  0
   -0.1182    2.3515   12.6039 C   0  0  0  0  0  0  0  0  0  0  0  0
    0.5955    0.9975   12.6344 C   0  0  0  0  0  0  0  0  0  0  0  0
  2  1  1  6
  2  3  1  0
  3  4  1  0
  4  5  1  0
  5  6  1  0
  5  7  1  0
  5  8  1  0
  2  9  1  0
  9 10  1  0
 10 11  1  0
 11 12  2  0
 12 13  1  0
 13 14  1  0
 14 15  2  0
 15 16  1  0
 16 17  1  0
 17 18  1  0
 18 19  1  0
 19 20  1  0
 20 21  1  0
 15 11  1  0
 21 16  1  0
M  CHG  1   4   1
M  END
$$$$
