
     RDKit          3D

 21 22  0  0  0  0  0  0  0  0999 V2000
   -1.0305   -2.3778    7.6376 O   0  0  0  0  0  0  0  0  0  0  0  0
   -2.3416   -2.0608    7.9129 C   0  0  1  0  0  0  0  0  0  0  0  0
   -3.2107   -3.3002    7.9253 C   0  0  0  0  0  0  0  0  0  0  0  0
   -3.6680   -3.7162    6.6466 N   0  0  0  0  0  4  0  0  0  0  0  0
   -4.6420   -4.7835    6.6846 C   0  0  0  0  0  0  0  0  0  0  0  0
   -3.9747   -6.1194    7.0370 C   0  0  0  0  0  0  0  0  0  0  0  0
   -5.7391   -4.5677    7.6709 C   0  0  0  0  0  0  0  0  0  0  0  0
   -5.2754   -4.9844    5.3202 C   0  0  0  0  0  0  0  0  0  0  0  0
   -2.4542   -1.2513    9.1494 C   0  0  0  0  0  0  0  0  0  0  0  0
   -1.2921   -1.0317    9.8294 O   0  0  0  0  0  0  0  0  0  0  0  0
   -0.8915   -0.1178   10.7493 C   0  0  0  0  0  0  0  0  0  0  0  0
   -0.8494    1.2626   10.2989 N   0  0  0  0  0  0  0  0  0  0  0  0
   -0.3227    2.1812   11.6160 S   0  0  0  0  0  0  0  0  0  0  0  0
   -0.1510    0.8204   12.7511 N   0  0  0  0  0  0  0  0  0  0  0  0
   -0.5393   -0.3360   11.9842 C   0  0  0  0  0  0  0  0  0  0  0  0
   -0.4912   -1.6219   12.6851 N   0  0  0  0  0  0  0  0  0  0  0  0
   -0.8704   -2.8519   12.0756 C   0  0  0  0  0  0  0  0  0  0  0  0
    0.2243   -3.8759   12.4041 C   0  0  0  0  0  0  0  0  0  0  0  0
    0.5438   -3.8526   13.7569 O   0  0  0  0  0  0  0  0  0  0  0  0
    1.0817   -2.6351   14.1563 C   0  0  0  0  0  0  0  0  0  0  0  0
   -0.0387   -1.5987   14.0369 C   0  0  0  0  0  0  0  0  0  0  0  0
  2  1  1  1
  2  3  1  0
  3  4  1  0
  4  5  1  0
  5  6  1  0
  5  7  1  0
  5  8  1  0
  2  9  1  0
  9 10  1  0
 10 11  1  0
 11 12  2  0
 12 13  1  0
 13 14  1  0
 14 15  2  0
 15 16  1  0
 16 17  1  0
 17 18  1  0
 18 19  1  0
 19 20  1  0
 20 21  1  0
 15 11  1  0
 21 16  1  0
M  CHG  1   4   1
M  END
$$$$
