
     RDKit          3D

 21 22  0  0  0  0  0  0  0  0999 V2000
   -1.6734   -2.4516    6.6568 O   0  0  0  0  0  0  0  0  0  0  0  0
   -2.4027   -2.5417    7.8210 C   0  0  1  0  0  0  0  0  0  0  0  0
   -3.5800   -3.4787    7.6551 C   0  0  0  0  0  0  0  0  0  0  0  0
   -3.9754   -3.7010    6.3092 N   0  0  0  0  0  4  0  0  0  0  0  0
   -5.1434   -4.5405    6.1663 C   0  0  0  0  0  0  0  0  0  0  0  0
   -6.3336   -3.9562    6.9384 C   0  0  0  0  0  0  0  0  0  0  0  0
   -5.5858   -4.7278    4.7548 C   0  0  0  0  0  0  0  0  0  0  0  0
   -4.8968   -5.9139    6.7630 C   0  0  0  0  0  0  0  0  0  0  0  0
   -1.5382   -2.8823    8.9758 C   0  0  0  0  0  0  0  0  0  0  0  0
   -1.4602   -1.9440    9.9630 O   0  0  0  0  0  0  0  0  0  0  0  0
   -1.3149   -1.9979   11.3113 C   0  0  0  0  0  0  0  0  0  0  0  0
   -1.4154   -3.3175   11.9102 N   0  0  0  0  0  0  0  0  0  0  0  0
   -1.2048   -3.1067   13.5737 S   0  0  0  0  0  0  0  0  0  0  0  0
   -0.9871   -1.3403   13.5240 N   0  0  0  0  0  0  0  0  0  0  0  0
   -1.0993   -1.0055   12.1269 C   0  0  0  0  0  0  0  0  0  0  0  0
   -0.9580    0.4133   11.7893 N   0  0  0  0  0  0  0  0  0  0  0  0
   -0.6575    1.4144   12.7566 C   0  0  0  0  0  0  0  0  0  0  0  0
    0.4566    2.2910   12.1692 C   0  0  0  0  0  0  0  0  0  0  0  0
    0.1634    2.6675   10.8634 O   0  0  0  0  0  0  0  0  0  0  0  0
    0.0899    1.5813    9.9997 C   0  0  0  0  0  0  0  0  0  0  0  0
   -1.1367    0.7673   10.4197 C   0  0  0  0  0  0  0  0  0  0  0  0
  2  1  1  6
  2  3  1  0
  3  4  1  0
  4  5  1  0
  5  6  1  0
  5  7  1  0
  5  8  1  0
  2  9  1  0
  9 10  1  0
 10 11  1  0
 11 12  2  0
 12 13  1  0
 13 14  1  0
 14 15  2  0
 15 16  1  0
 16 17  1  0
 17 18  1  0
 18 19  1  0
 19 20  1  0
 20 21  1  0
 15 11  1  0
 21 16  1  0
M  CHG  1   4   1
M  END
$$$$
