
     RDKit          3D

 21 22  0  0  0  0  0  0  0  0999 V2000
   -4.3279   -2.2130    9.4432 O   0  0  0  0  0  0  0  0  0  0  0  0
   -4.0823   -3.5601    9.5844 C   0  0  1  0  0  0  0  0  0  0  0  0
   -3.7918   -4.2042    8.2456 C   0  0  0  0  0  0  0  0  0  0  0  0
   -4.9433   -4.6234    7.5275 N   0  0  0  0  0  4  0  0  0  0  0  0
   -4.6516   -5.2995    6.2837 C   0  0  0  0  0  0  0  0  0  0  0  0
   -5.9457   -5.6850    5.5551 C   0  0  0  0  0  0  0  0  0  0  0  0
   -3.8364   -4.4918    5.3318 C   0  0  0  0  0  0  0  0  0  0  0  0
   -3.9158   -6.6023    6.5377 C   0  0  0  0  0  0  0  0  0  0  0  0
   -3.0327   -3.8151   10.5996 C   0  0  0  0  0  0  0  0  0  0  0  0
   -2.4293   -2.7113   11.1275 O   0  0  0  0  0  0  0  0  0  0  0  0
   -1.4542   -2.5158   12.0510 C   0  0  0  0  0  0  0  0  0  0  0  0
   -1.2804   -3.5769   13.0277 N   0  0  0  0  0  0  0  0  0  0  0  0
   -0.0246   -3.0887   14.0480 S   0  0  0  0  0  0  0  0  0  0  0  0
    0.2912   -1.5322   13.2434 N   0  0  0  0  0  0  0  0  0  0  0  0
   -0.6613   -1.4885   12.1630 C   0  0  0  0  0  0  0  0  0  0  0  0
   -0.6252   -0.2920   11.3179 N   0  0  0  0  0  0  0  0  0  0  0  0
    0.3427    0.7406   11.4767 C   0  0  0  0  0  0  0  0  0  0  0  0
    0.8816    1.0742   10.0792 C   0  0  0  0  0  0  0  0  0  0  0  0
   -0.1552    1.2424    9.1684 O   0  0  0  0  0  0  0  0  0  0  0  0
   -0.8948    0.0807    8.9827 C   0  0  0  0  0  0  0  0  0  0  0  0
   -1.6208   -0.1943   10.3021 C   0  0  0  0  0  0  0  0  0  0  0  0
  2  1  1  6
  2  3  1  0
  3  4  1  0
  4  5  1  0
  5  6  1  0
  5  7  1  0
  5  8  1  0
  2  9  1  0
  9 10  1  0
 10 11  1  0
 11 12  2  0
 12 13  1  0
 13 14  1  0
 14 15  2  0
 15 16  1  0
 16 17  1  0
 17 18  1  0
 18 19  1  0
 19 20  1  0
 20 21  1  0
 15 11  1  0
 21 16  1  0
M  CHG  1   4   1
M  END
$$$$
