
     RDKit          3D

 21 22  0  0  0  0  0  0  0  0999 V2000
   -1.5206   -1.5851    8.2191 O   0  0  0  0  0  0  0  0  0  0  0  0
   -1.3909   -1.6351    9.5888 C   0  0  1  0  0  0  0  0  0  0  0  0
   -1.5648   -0.2625   10.2029 C   0  0  0  0  0  0  0  0  0  0  0  0
   -0.4653    0.1801   10.9856 N   0  0  0  0  0  4  0  0  0  0  0  0
   -0.7012    1.4200   11.6901 C   0  0  0  0  0  0  0  0  0  0  0  0
   -0.6204    2.6161   10.7326 C   0  0  0  0  0  0  0  0  0  0  0  0
   -2.0278    1.4891   12.3672 C   0  0  0  0  0  0  0  0  0  0  0  0
    0.3697    1.6564   12.7392 C   0  0  0  0  0  0  0  0  0  0  0  0
   -2.2830   -2.6609   10.1794 C   0  0  0  0  0  0  0  0  0  0  0  0
   -2.7795   -3.5923    9.3151 O   0  0  0  0  0  0  0  0  0  0  0  0
   -3.5676   -4.6884    9.4544 C   0  0  0  0  0  0  0  0  0  0  0  0
   -3.8072   -5.1311   10.8170 N   0  0  0  0  0  0  0  0  0  0  0  0
   -4.7998   -6.4949   10.7108 S   0  0  0  0  0  0  0  0  0  0  0  0
   -4.9196   -6.5154    8.9345 N   0  0  0  0  0  0  0  0  0  0  0  0
   -4.1292   -5.3878    8.5099 C   0  0  0  0  0  0  0  0  0  0  0  0
   -4.0505   -5.1618    7.0643 N   0  0  0  0  0  0  0  0  0  0  0  0
   -4.7342   -5.9730    6.1143 C   0  0  0  0  0  0  0  0  0  0  0  0
   -5.4169   -5.0257    5.1187 C   0  0  0  0  0  0  0  0  0  0  0  0
   -4.5369   -4.0456    4.6741 O   0  0  0  0  0  0  0  0  0  0  0  0
   -4.1049   -3.2127    5.6992 C   0  0  0  0  0  0  0  0  0  0  0  0
   -3.2427   -4.0705    6.6291 C   0  0  0  0  0  0  0  0  0  0  0  0
  2  1  1  6
  2  3  1  0
  3  4  1  0
  4  5  1  0
  5  6  1  0
  5  7  1  0
  5  8  1  0
  2  9  1  0
  9 10  1  0
 10 11  1  0
 11 12  2  0
 12 13  1  0
 13 14  1  0
 14 15  2  0
 15 16  1  0
 16 17  1  0
 17 18  1  0
 18 19  1  0
 19 20  1  0
 20 21  1  0
 15 11  1  0
 21 16  1  0
M  CHG  1   4   1
M  END
$$$$
