
     RDKit          3D

 21 22  0  0  0  0  0  0  0  0999 V2000
   -2.5944   -2.0521    5.4461 O   0  0  0  0  0  0  0  0  0  0  0  0
   -2.4487   -2.5044    6.7381 C   0  0  1  0  0  0  0  0  0  0  0  0
   -2.3762   -1.3499    7.7146 C   0  0  0  0  0  0  0  0  0  0  0  0
   -1.3082   -0.4430    7.4817 N   0  0  0  0  0  4  0  0  0  0  0  0
   -1.0623    0.4744    8.5712 C   0  0  0  0  0  0  0  0  0  0  0  0
   -2.2499    1.4270    8.7616 C   0  0  0  0  0  0  0  0  0  0  0  0
   -0.8210   -0.1931    9.8825 C   0  0  0  0  0  0  0  0  0  0  0  0
    0.1340    1.3589    8.2720 C   0  0  0  0  0  0  0  0  0  0  0  0
   -3.4900   -3.5014    7.0827 C   0  0  0  0  0  0  0  0  0  0  0  0
   -3.4055   -4.0493    8.3293 O   0  0  0  0  0  0  0  0  0  0  0  0
   -4.0512   -5.0595    8.9653 C   0  0  0  0  0  0  0  0  0  0  0  0
   -4.9428   -5.8612    8.1453 N   0  0  0  0  0  0  0  0  0  0  0  0
   -5.6130   -7.0294    9.1663 S   0  0  0  0  0  0  0  0  0  0  0  0
   -4.7669   -6.5103   10.6443 N   0  0  0  0  0  0  0  0  0  0  0  0
   -3.9655   -5.3894   10.2225 C   0  0  0  0  0  0  0  0  0  0  0  0
   -3.1488   -4.7527   11.2591 N   0  0  0  0  0  0  0  0  0  0  0  0
   -2.9727   -5.3090   12.5581 C   0  0  0  0  0  0  0  0  0  0  0  0
   -1.4737   -5.2424   12.8793 C   0  0  0  0  0  0  0  0  0  0  0  0
   -0.9555   -3.9834   12.5983 O   0  0  0  0  0  0  0  0  0  0  0  0
   -1.0316   -3.6654   11.2476 C   0  0  0  0  0  0  0  0  0  0  0  0
   -2.5184   -3.5217   10.9125 C   0  0  0  0  0  0  0  0  0  0  0  0
  2  1  1  6
  2  3  1  0
  3  4  1  0
  4  5  1  0
  5  6  1  0
  5  7  1  0
  5  8  1  0
  2  9  1  0
  9 10  1  0
 10 11  1  0
 11 12  2  0
 12 13  1  0
 13 14  1  0
 14 15  2  0
 15 16  1  0
 16 17  1  0
 17 18  1  0
 18 19  1  0
 19 20  1  0
 20 21  1  0
 15 11  1  0
 21 16  1  0
M  CHG  1   4   1
M  END
$$$$
