
     RDKit          3D

 21 22  0  0  0  0  0  0  0  0999 V2000
   -1.6897   -2.5747    6.6314 O   0  0  0  0  0  0  0  0  0  0  0  0
   -2.4604   -2.7895    7.7517 C   0  0  1  0  0  0  0  0  0  0  0  0
   -3.5186   -3.8404    7.4917 C   0  0  0  0  0  0  0  0  0  0  0  0
   -4.0649   -3.8196    6.1808 N   0  0  0  0  0  4  0  0  0  0  0  0
   -5.1505   -4.7519    5.9771 C   0  0  0  0  0  0  0  0  0  0  0  0
   -5.5193   -4.8443    4.4906 C   0  0  0  0  0  0  0  0  0  0  0  0
   -4.8547   -6.1372    6.4424 C   0  0  0  0  0  0  0  0  0  0  0  0
   -6.4065   -4.2807    6.6867 C   0  0  0  0  0  0  0  0  0  0  0  0
   -1.6210   -3.0812    8.9379 C   0  0  0  0  0  0  0  0  0  0  0  0
   -1.7763   -2.2424   10.0026 O   0  0  0  0  0  0  0  0  0  0  0  0
   -1.4244   -2.2993   11.3120 C   0  0  0  0  0  0  0  0  0  0  0  0
   -1.7498   -3.5335   12.0057 N   0  0  0  0  0  0  0  0  0  0  0  0
   -1.2161   -3.3439   13.5980 S   0  0  0  0  0  0  0  0  0  0  0  0
   -0.5747   -1.6952   13.3975 N   0  0  0  0  0  0  0  0  0  0  0  0
   -0.8330   -1.3767   12.0161 C   0  0  0  0  0  0  0  0  0  0  0  0
   -0.3999   -0.0509   11.5669 N   0  0  0  0  0  0  0  0  0  0  0  0
   -0.4972    0.3791   10.2128 C   0  0  0  0  0  0  0  0  0  0  0  0
   -1.1030    1.7889   10.2284 C   0  0  0  0  0  0  0  0  0  0  0  0
   -0.4639    2.5997   11.1595 O   0  0  0  0  0  0  0  0  0  0  0  0
   -0.6237    2.1430   12.4622 C   0  0  0  0  0  0  0  0  0  0  0  0
    0.1378    0.8186   12.5607 C   0  0  0  0  0  0  0  0  0  0  0  0
  2  1  1  6
  2  3  1  0
  3  4  1  0
  4  5  1  0
  5  6  1  0
  5  7  1  0
  5  8  1  0
  2  9  1  0
  9 10  1  0
 10 11  1  0
 11 12  2  0
 12 13  1  0
 13 14  1  0
 14 15  2  0
 15 16  1  0
 16 17  1  0
 17 18  1  0
 18 19  1  0
 19 20  1  0
 20 21  1  0
 15 11  1  0
 21 16  1  0
M  CHG  1   4   1
M  END
$$$$
