
     RDKit          3D

 21 22  0  0  0  0  0  0  0  0999 V2000
    0.6318   -1.4162    9.5198 O   0  0  0  0  0  0  0  0  0  0  0  0
   -0.6282   -1.8881    9.8111 C   0  0  1  0  0  0  0  0  0  0  0  0
   -1.6778   -0.8244    9.5689 C   0  0  0  0  0  0  0  0  0  0  0  0
   -1.3328    0.4680   10.0465 N   0  0  0  0  0  4  0  0  0  0  0  0
   -2.3471    1.4728    9.8204 C   0  0  0  0  0  0  0  0  0  0  0  0
   -2.6329    1.6327    8.3215 C   0  0  0  0  0  0  0  0  0  0  0  0
   -3.6487    1.1802   10.4863 C   0  0  0  0  0  0  0  0  0  0  0  0
   -1.8746    2.8332   10.2992 C   0  0  0  0  0  0  0  0  0  0  0  0
   -0.9063   -3.1604    9.1033 C   0  0  0  0  0  0  0  0  0  0  0  0
   -2.1805   -3.6367    9.2057 O   0  0  0  0  0  0  0  0  0  0  0  0
   -2.7633   -4.6373    9.9136 C   0  0  0  0  0  0  0  0  0  0  0  0
   -2.3882   -4.7285   11.3140 N   0  0  0  0  0  0  0  0  0  0  0  0
   -3.2397   -6.0405   11.9542 S   0  0  0  0  0  0  0  0  0  0  0  0
   -4.0800   -6.4854   10.4490 N   0  0  0  0  0  0  0  0  0  0  0  0
   -3.6150   -5.5234    9.4822 C   0  0  0  0  0  0  0  0  0  0  0  0
   -4.1556   -5.6565    8.1268 N   0  0  0  0  0  0  0  0  0  0  0  0
   -5.1552   -6.6099    7.7809 C   0  0  0  0  0  0  0  0  0  0  0  0
   -6.2151   -5.8732    6.9511 C   0  0  0  0  0  0  0  0  0  0  0  0
   -5.6266   -5.1060    5.9522 O   0  0  0  0  0  0  0  0  0  0  0  0
   -4.8243   -4.0924    6.4621 C   0  0  0  0  0  0  0  0  0  0  0  0
   -3.6313   -4.7733    7.1379 C   0  0  0  0  0  0  0  0  0  0  0  0
  2  1  1  6
  2  3  1  0
  3  4  1  0
  4  5  1  0
  5  6  1  0
  5  7  1  0
  5  8  1  0
  2  9  1  0
  9 10  1  0
 10 11  1  0
 11 12  2  0
 12 13  1  0
 13 14  1  0
 14 15  2  0
 15 16  1  0
 16 17  1  0
 17 18  1  0
 18 19  1  0
 19 20  1  0
 20 21  1  0
 15 11  1  0
 21 16  1  0
M  CHG  1   4   1
M  END
$$$$
