
     RDKit          3D

 21 22  0  0  0  0  0  0  0  0999 V2000
   -1.6787   -1.7471    6.8235 O   0  0  0  0  0  0  0  0  0  0  0  0
   -2.2871   -2.5192    7.7872 C   0  0  1  0  0  0  0  0  0  0  0  0
   -3.1266   -3.6117    7.1600 C   0  0  0  0  0  0  0  0  0  0  0  0
   -4.1938   -3.1459    6.3468 N   0  0  0  0  0  4  0  0  0  0  0  0
   -5.0388   -4.1943    5.8212 C   0  0  0  0  0  0  0  0  0  0  0  0
   -4.1947   -5.3317    5.2314 C   0  0  0  0  0  0  0  0  0  0  0  0
   -5.9493   -4.8030    6.8329 C   0  0  0  0  0  0  0  0  0  0  0  0
   -5.8926   -3.6767    4.6782 C   0  0  0  0  0  0  0  0  0  0  0  0
   -1.3042   -3.0263    8.7740 C   0  0  0  0  0  0  0  0  0  0  0  0
   -1.1269   -2.2618    9.8900 O   0  0  0  0  0  0  0  0  0  0  0  0
   -1.0218   -2.5319   11.2158 C   0  0  0  0  0  0  0  0  0  0  0  0
   -1.1285   -3.9312   11.5909 N   0  0  0  0  0  0  0  0  0  0  0  0
   -0.9698   -3.9906   13.2724 S   0  0  0  0  0  0  0  0  0  0  0  0
   -0.7665   -2.2385   13.5146 N   0  0  0  0  0  0  0  0  0  0  0  0
   -0.8397   -1.6832   12.1870 C   0  0  0  0  0  0  0  0  0  0  0  0
   -0.7009   -0.2279   12.0868 N   0  0  0  0  0  0  0  0  0  0  0  0
   -0.1935    0.5773   13.1461 C   0  0  0  0  0  0  0  0  0  0  0  0
    0.8355    1.5361   12.5325 C   0  0  0  0  0  0  0  0  0  0  0  0
    0.3331    2.1469   11.3891 O   0  0  0  0  0  0  0  0  0  0  0  0
    0.0636    1.2370   10.3738 C   0  0  0  0  0  0  0  0  0  0  0  0
   -1.1028    0.3712   10.8571 C   0  0  0  0  0  0  0  0  0  0  0  0
  2  1  1  6
  2  3  1  0
  3  4  1  0
  4  5  1  0
  5  6  1  0
  5  7  1  0
  5  8  1  0
  2  9  1  0
  9 10  1  0
 10 11  1  0
 11 12  2  0
 12 13  1  0
 13 14  1  0
 14 15  2  0
 15 16  1  0
 16 17  1  0
 17 18  1  0
 18 19  1  0
 19 20  1  0
 20 21  1  0
 15 11  1  0
 21 16  1  0
M  CHG  1   4   1
M  END
$$$$
