
     RDKit          3D

 21 22  0  0  0  0  0  0  0  0999 V2000
   -1.9769   -0.0674    8.6412 O   0  0  0  0  0  0  0  0  0  0  0  0
   -2.0653   -1.1747    9.4544 C   0  0  1  0  0  0  0  0  0  0  0  0
   -1.5844   -0.8615   10.8553 C   0  0  0  0  0  0  0  0  0  0  0  0
   -0.4096   -0.0655   10.9144 N   0  0  0  0  0  4  0  0  0  0  0  0
    0.0323    0.2388   12.2566 C   0  0  0  0  0  0  0  0  0  0  0  0
   -1.0019    1.1036   12.9891 C   0  0  0  0  0  0  0  0  0  0  0  0
    0.2750   -0.9651   13.1021 C   0  0  0  0  0  0  0  0  0  0  0  0
    1.3113    1.0554   12.2311 C   0  0  0  0  0  0  0  0  0  0  0  0
   -3.4241   -1.7657    9.4175 C   0  0  0  0  0  0  0  0  0  0  0  0
   -3.4898   -3.0992    9.1372 O   0  0  0  0  0  0  0  0  0  0  0  0
   -4.4779   -4.0285    9.1814 C   0  0  0  0  0  0  0  0  0  0  0  0
   -5.0389   -4.2993   10.4937 N   0  0  0  0  0  0  0  0  0  0  0  0
   -6.2290   -5.4787   10.2726 S   0  0  0  0  0  0  0  0  0  0  0  0
   -6.0252   -5.6387    8.5112 N   0  0  0  0  0  0  0  0  0  0  0  0
   -4.9771   -4.7046    8.1863 C   0  0  0  0  0  0  0  0  0  0  0  0
   -4.5964   -4.6266    6.7735 N   0  0  0  0  0  0  0  0  0  0  0  0
   -3.5084   -3.8355    6.3062 C   0  0  0  0  0  0  0  0  0  0  0  0
   -2.6926   -4.7108    5.3454 C   0  0  0  0  0  0  0  0  0  0  0  0
   -3.5168   -5.3512    4.4272 O   0  0  0  0  0  0  0  0  0  0  0  0
   -4.4007   -6.2370    5.0318 C   0  0  0  0  0  0  0  0  0  0  0  0
   -5.3750   -5.3920    5.8565 C   0  0  0  0  0  0  0  0  0  0  0  0
  2  1  1  6
  2  3  1  0
  3  4  1  0
  4  5  1  0
  5  6  1  0
  5  7  1  0
  5  8  1  0
  2  9  1  0
  9 10  1  0
 10 11  1  0
 11 12  2  0
 12 13  1  0
 13 14  1  0
 14 15  2  0
 15 16  1  0
 16 17  1  0
 17 18  1  0
 18 19  1  0
 19 20  1  0
 20 21  1  0
 15 11  1  0
 21 16  1  0
M  CHG  1   4   1
M  END
$$$$
