
     RDKit          3D

 21 22  0  0  0  0  0  0  0  0999 V2000
   -1.1579   -1.8355    8.4009 O   0  0  0  0  0  0  0  0  0  0  0  0
   -1.1872   -2.0886    9.7538 C   0  0  1  0  0  0  0  0  0  0  0  0
   -1.9262   -0.9960   10.4966 C   0  0  0  0  0  0  0  0  0  0  0  0
   -1.3141    0.2840   10.4303 N   0  0  0  0  0  4  0  0  0  0  0  0
   -1.9775    1.2988   11.2172 C   0  0  0  0  0  0  0  0  0  0  0  0
   -1.2635    2.6499   11.0798 C   0  0  0  0  0  0  0  0  0  0  0  0
   -3.4047    1.5173   10.8451 C   0  0  0  0  0  0  0  0  0  0  0  0
   -1.9291    0.9533   12.6942 C   0  0  0  0  0  0  0  0  0  0  0  0
   -1.7059   -3.4476   10.0386 C   0  0  0  0  0  0  0  0  0  0  0  0
   -2.8408   -3.8074    9.3724 O   0  0  0  0  0  0  0  0  0  0  0  0
   -3.6740   -4.8771    9.4305 C   0  0  0  0  0  0  0  0  0  0  0  0
   -3.5485   -5.7187   10.6078 N   0  0  0  0  0  0  0  0  0  0  0  0
   -4.6795   -6.9620   10.4316 S   0  0  0  0  0  0  0  0  0  0  0  0
   -5.3223   -6.4245    8.8607 N   0  0  0  0  0  0  0  0  0  0  0  0
   -4.5678   -5.2358    8.5535 C   0  0  0  0  0  0  0  0  0  0  0  0
   -4.8957   -4.5712    7.2895 N   0  0  0  0  0  0  0  0  0  0  0  0
   -4.3092   -3.3375    6.8872 C   0  0  0  0  0  0  0  0  0  0  0  0
   -3.8750   -3.4988    5.4243 C   0  0  0  0  0  0  0  0  0  0  0  0
   -4.8923   -4.0550    4.6572 O   0  0  0  0  0  0  0  0  0  0  0  0
   -5.2209   -5.3432    5.0617 C   0  0  0  0  0  0  0  0  0  0  0  0
   -5.8495   -5.2209    6.4522 C   0  0  0  0  0  0  0  0  0  0  0  0
  2  1  1  6
  2  3  1  0
  3  4  1  0
  4  5  1  0
  5  6  1  0
  5  7  1  0
  5  8  1  0
  2  9  1  0
  9 10  1  0
 10 11  1  0
 11 12  2  0
 12 13  1  0
 13 14  1  0
 14 15  2  0
 15 16  1  0
 16 17  1  0
 17 18  1  0
 18 19  1  0
 19 20  1  0
 20 21  1  0
 15 11  1  0
 21 16  1  0
M  CHG  1   4   1
M  END
$$$$
