
     RDKit          3D

 21 22  0  0  0  0  0  0  0  0999 V2000
   -6.1113   -5.3295    8.7624 O   0  0  0  0  0  0  0  0  0  0  0  0
   -4.8213   -5.5597    8.3405 C   0  0  1  0  0  0  0  0  0  0  0  0
   -4.3611   -4.4821    7.3820 C   0  0  0  0  0  0  0  0  0  0  0  0
   -4.9863   -4.5167    6.1072 N   0  0  0  0  0  4  0  0  0  0  0  0
   -4.5156   -3.5041    5.1894 C   0  0  0  0  0  0  0  0  0  0  0  0
   -4.8962   -2.1016    5.6815 C   0  0  0  0  0  0  0  0  0  0  0  0
   -3.0387   -3.5113    4.9848 C   0  0  0  0  0  0  0  0  0  0  0  0
   -5.1744   -3.6592    3.8310 C   0  0  0  0  0  0  0  0  0  0  0  0
   -3.9040   -5.7567    9.4880 C   0  0  0  0  0  0  0  0  0  0  0  0
   -4.0501   -4.8859   10.5280 O   0  0  0  0  0  0  0  0  0  0  0  0
   -3.4663   -4.7600   11.7467 C   0  0  0  0  0  0  0  0  0  0  0  0
   -3.6317   -5.8846   12.6512 N   0  0  0  0  0  0  0  0  0  0  0  0
   -2.8240   -5.4754   14.0782 S   0  0  0  0  0  0  0  0  0  0  0  0
   -2.2686   -3.8720   13.5392 N   0  0  0  0  0  0  0  0  0  0  0  0
   -2.7796   -3.7491   12.1974 C   0  0  0  0  0  0  0  0  0  0  0  0
   -2.4662   -2.4998   11.4987 N   0  0  0  0  0  0  0  0  0  0  0  0
   -1.7622   -1.4242   12.1114 C   0  0  0  0  0  0  0  0  0  0  0  0
   -0.6819   -0.9685   11.1215 C   0  0  0  0  0  0  0  0  0  0  0  0
   -1.2081   -0.8029    9.8454 O   0  0  0  0  0  0  0  0  0  0  0  0
   -1.6865   -1.9919    9.3080 C   0  0  0  0  0  0  0  0  0  0  0  0
   -2.9029   -2.3953   10.1455 C   0  0  0  0  0  0  0  0  0  0  0  0
  2  1  1  1
  2  3  1  0
  3  4  1  0
  4  5  1  0
  5  6  1  0
  5  7  1  0
  5  8  1  0
  2  9  1  0
  9 10  1  0
 10 11  1  0
 11 12  2  0
 12 13  1  0
 13 14  1  0
 14 15  2  0
 15 16  1  0
 16 17  1  0
 17 18  1  0
 18 19  1  0
 19 20  1  0
 20 21  1  0
 15 11  1  0
 21 16  1  0
M  CHG  1   4   1
M  END
$$$$
