
     RDKit          3D

 21 22  0  0  0  0  0  0  0  0999 V2000
   -4.7555   -1.8860    9.1827 O   0  0  0  0  0  0  0  0  0  0  0  0
   -4.6709   -3.2323    9.4577 C   0  0  1  0  0  0  0  0  0  0  0  0
   -4.1470   -4.0004    8.2630 C   0  0  0  0  0  0  0  0  0  0  0  0
   -5.1517   -4.4912    7.3871 N   0  0  0  0  0  4  0  0  0  0  0  0
   -4.6401   -5.2223    6.2500 C   0  0  0  0  0  0  0  0  0  0  0  0
   -3.7818   -4.3151    5.3587 C   0  0  0  0  0  0  0  0  0  0  0  0
   -3.8012   -6.3998    6.6144 C   0  0  0  0  0  0  0  0  0  0  0  0
   -5.7747   -5.7136    5.3699 C   0  0  0  0  0  0  0  0  0  0  0  0
   -3.9033   -3.4833   10.7006 C   0  0  0  0  0  0  0  0  0  0  0  0
   -2.7413   -2.7820   10.8390 O   0  0  0  0  0  0  0  0  0  0  0  0
   -1.8278   -2.6500   11.8339 C   0  0  0  0  0  0  0  0  0  0  0  0
   -1.9519   -3.5833   12.9401 N   0  0  0  0  0  0  0  0  0  0  0  0
   -0.7142   -3.2061   14.0273 S   0  0  0  0  0  0  0  0  0  0  0  0
   -0.0275   -1.8593   13.0868 N   0  0  0  0  0  0  0  0  0  0  0  0
   -0.8580   -1.7839   11.9116 C   0  0  0  0  0  0  0  0  0  0  0  0
   -0.5129   -0.7404   10.9426 N   0  0  0  0  0  0  0  0  0  0  0  0
   -0.8739   -0.8099    9.5668 C   0  0  0  0  0  0  0  0  0  0  0  0
   -1.4543    0.5575    9.1818 C   0  0  0  0  0  0  0  0  0  0  0  0
   -0.6373    1.5919    9.6234 O   0  0  0  0  0  0  0  0  0  0  0  0
   -0.5387    1.6386   11.0088 C   0  0  0  0  0  0  0  0  0  0  0  0
    0.2175    0.3790   11.4388 C   0  0  0  0  0  0  0  0  0  0  0  0
  2  1  1  6
  2  3  1  0
  3  4  1  0
  4  5  1  0
  5  6  1  0
  5  7  1  0
  5  8  1  0
  2  9  1  0
  9 10  1  0
 10 11  1  0
 11 12  2  0
 12 13  1  0
 13 14  1  0
 14 15  2  0
 15 16  1  0
 16 17  1  0
 17 18  1  0
 18 19  1  0
 19 20  1  0
 20 21  1  0
 15 11  1  0
 21 16  1  0
M  CHG  1   4   1
M  END
$$$$
