
     RDKit          3D

 21 22  0  0  0  0  0  0  0  0999 V2000
   -1.6486   -2.7719    7.3989 O   0  0  0  0  0  0  0  0  0  0  0  0
   -2.6721   -2.9030    8.3101 C   0  0  1  0  0  0  0  0  0  0  0  0
   -3.6972   -3.9113    7.8366 C   0  0  0  0  0  0  0  0  0  0  0  0
   -4.1399   -3.7234    6.5002 N   0  0  0  0  0  4  0  0  0  0  0  0
   -5.1465   -4.6679    6.0716 C   0  0  0  0  0  0  0  0  0  0  0  0
   -6.4072   -4.5535    6.9387 C   0  0  0  0  0  0  0  0  0  0  0  0
   -5.5729   -4.4970    4.6531 C   0  0  0  0  0  0  0  0  0  0  0  0
   -4.6553   -6.0938    6.2414 C   0  0  0  0  0  0  0  0  0  0  0  0
   -2.1532   -3.1861    9.6693 C   0  0  0  0  0  0  0  0  0  0  0  0
   -1.9816   -2.1041   10.4824 O   0  0  0  0  0  0  0  0  0  0  0  0
   -1.5507   -1.9375   11.7584 C   0  0  0  0  0  0  0  0  0  0  0  0
   -1.7984   -3.0461   12.6639 N   0  0  0  0  0  0  0  0  0  0  0  0
   -1.1765   -2.5863   14.1666 S   0  0  0  0  0  0  0  0  0  0  0  0
   -0.5960   -0.9817   13.6587 N   0  0  0  0  0  0  0  0  0  0  0  0
   -0.9453   -0.9004   12.2630 C   0  0  0  0  0  0  0  0  0  0  0  0
   -0.5782    0.3409   11.5764 N   0  0  0  0  0  0  0  0  0  0  0  0
   -0.7553    0.5343   10.1767 C   0  0  0  0  0  0  0  0  0  0  0  0
   -1.4054    1.9115    9.9891 C   0  0  0  0  0  0  0  0  0  0  0  0
   -0.7487    2.8827   10.7363 O   0  0  0  0  0  0  0  0  0  0  0  0
   -0.8299    2.6482   12.1036 C   0  0  0  0  0  0  0  0  0  0  0  0
   -0.0216    1.3780   12.3810 C   0  0  0  0  0  0  0  0  0  0  0  0
  2  1  1  6
  2  3  1  0
  3  4  1  0
  4  5  1  0
  5  6  1  0
  5  7  1  0
  5  8  1  0
  2  9  1  0
  9 10  1  0
 10 11  1  0
 11 12  2  0
 12 13  1  0
 13 14  1  0
 14 15  2  0
 15 16  1  0
 16 17  1  0
 17 18  1  0
 18 19  1  0
 19 20  1  0
 20 21  1  0
 15 11  1  0
 21 16  1  0
M  CHG  1   4   1
M  END
$$$$
