
     RDKit          3D

 21 22  0  0  0  0  0  0  0  0999 V2000
   -1.3944   -0.8390    6.7188 O   0  0  0  0  0  0  0  0  0  0  0  0
   -2.1532   -1.3426    7.7511 C   0  0  1  0  0  0  0  0  0  0  0  0
   -2.7667   -2.6749    7.3767 C   0  0  0  0  0  0  0  0  0  0  0  0
   -3.4929   -2.6708    6.1561 N   0  0  0  0  0  4  0  0  0  0  0  0
   -4.2487   -3.8787    5.9129 C   0  0  0  0  0  0  0  0  0  0  0  0
   -3.3152   -5.0885    5.7746 C   0  0  0  0  0  0  0  0  0  0  0  0
   -5.2324   -4.2040    6.9851 C   0  0  0  0  0  0  0  0  0  0  0  0
   -5.0044   -3.7868    4.6000 C   0  0  0  0  0  0  0  0  0  0  0  0
   -1.3839   -1.3846    9.0174 C   0  0  0  0  0  0  0  0  0  0  0  0
   -1.8099   -2.2872    9.9475 O   0  0  0  0  0  0  0  0  0  0  0  0
   -1.4405   -2.5817   11.2197 C   0  0  0  0  0  0  0  0  0  0  0  0
   -0.3135   -1.8310   11.7454 N   0  0  0  0  0  0  0  0  0  0  0  0
   -0.0611   -2.3854   13.3218 S   0  0  0  0  0  0  0  0  0  0  0  0
   -1.3849   -3.5759   13.3279 N   0  0  0  0  0  0  0  0  0  0  0  0
   -1.9769   -3.4590   12.0193 C   0  0  0  0  0  0  0  0  0  0  0  0
   -3.1130   -4.3421   11.7429 N   0  0  0  0  0  0  0  0  0  0  0  0
   -3.9646   -4.1796   10.6132 C   0  0  0  0  0  0  0  0  0  0  0  0
   -4.1410   -5.5646    9.9767 C   0  0  0  0  0  0  0  0  0  0  0  0
   -4.4519   -6.5219   10.9358 O   0  0  0  0  0  0  0  0  0  0  0  0
   -3.4320   -6.6977   11.8631 C   0  0  0  0  0  0  0  0  0  0  0  0
   -3.3430   -5.4001   12.6706 C   0  0  0  0  0  0  0  0  0  0  0  0
  2  1  1  6
  2  3  1  0
  3  4  1  0
  4  5  1  0
  5  6  1  0
  5  7  1  0
  5  8  1  0
  2  9  1  0
  9 10  1  0
 10 11  1  0
 11 12  2  0
 12 13  1  0
 13 14  1  0
 14 15  2  0
 15 16  1  0
 16 17  1  0
 17 18  1  0
 18 19  1  0
 19 20  1  0
 20 21  1  0
 15 11  1  0
 21 16  1  0
M  CHG  1   4   1
M  END
$$$$
