
     RDKit          3D

 21 22  0  0  0  0  0  0  0  0999 V2000
   -5.3384   -2.3087    9.9733 O   0  0  0  0  0  0  0  0  0  0  0  0
   -4.6481   -3.4910   10.1176 C   0  0  1  0  0  0  0  0  0  0  0  0
   -4.1763   -4.0134    8.7773 C   0  0  0  0  0  0  0  0  0  0  0  0
   -5.1680   -4.6985    8.0260 N   0  0  0  0  0  4  0  0  0  0  0  0
   -4.7004   -5.2130    6.7588 C   0  0  0  0  0  0  0  0  0  0  0  0
   -3.2470   -5.6928    6.8670 C   0  0  0  0  0  0  0  0  0  0  0  0
   -5.5019   -6.3565    6.2362 C   0  0  0  0  0  0  0  0  0  0  0  0
   -4.6991   -4.1239    5.7019 C   0  0  0  0  0  0  0  0  0  0  0  0
   -3.5593   -3.3633   11.1152 C   0  0  0  0  0  0  0  0  0  0  0  0
   -2.9236   -2.1569   11.1570 O   0  0  0  0  0  0  0  0  0  0  0  0
   -2.0180   -1.5925   11.9955 C   0  0  0  0  0  0  0  0  0  0  0  0
   -2.2561   -1.7883   13.4150 N   0  0  0  0  0  0  0  0  0  0  0  0
   -1.0043   -0.9933   14.2256 S   0  0  0  0  0  0  0  0  0  0  0  0
   -0.1667   -0.4048   12.7689 N   0  0  0  0  0  0  0  0  0  0  0  0
   -0.9653   -0.8956   11.6745 C   0  0  0  0  0  0  0  0  0  0  0  0
   -0.4983   -0.5517   10.3289 N   0  0  0  0  0  0  0  0  0  0  0  0
   -1.0325   -1.1421    9.1482 C   0  0  0  0  0  0  0  0  0  0  0  0
   -1.3043   -0.0034    8.1562 C   0  0  0  0  0  0  0  0  0  0  0  0
   -0.2112    0.8501    8.0599 O   0  0  0  0  0  0  0  0  0  0  0  0
    0.0663    1.4975    9.2579 C   0  0  0  0  0  0  0  0  0  0  0  0
    0.5391    0.4224   10.2398 C   0  0  0  0  0  0  0  0  0  0  0  0
  2  1  1  6
  2  3  1  0
  3  4  1  0
  4  5  1  0
  5  6  1  0
  5  7  1  0
  5  8  1  0
  2  9  1  0
  9 10  1  0
 10 11  1  0
 11 12  2  0
 12 13  1  0
 13 14  1  0
 14 15  2  0
 15 16  1  0
 16 17  1  0
 17 18  1  0
 18 19  1  0
 19 20  1  0
 20 21  1  0
 15 11  1  0
 21 16  1  0
M  CHG  1   4   1
M  END
$$$$
