
     RDKit          3D

 21 22  0  0  0  0  0  0  0  0999 V2000
   -5.1064   -4.4887   12.1700 O   0  0  0  0  0  0  0  0  0  0  0  0
   -5.0705   -3.3357   11.4186 C   0  0  1  0  0  0  0  0  0  0  0  0
   -5.5949   -2.1549   12.2075 C   0  0  0  0  0  0  0  0  0  0  0  0
   -6.3981   -2.4999   13.3270 N   0  0  0  0  0  4  0  0  0  0  0  0
   -6.9926   -1.3674   14.0004 C   0  0  0  0  0  0  0  0  0  0  0  0
   -5.9111   -0.4602   14.6017 C   0  0  0  0  0  0  0  0  0  0  0  0
   -7.8399   -0.5145   13.1186 C   0  0  0  0  0  0  0  0  0  0  0  0
   -7.8476   -1.8227   15.1687 C   0  0  0  0  0  0  0  0  0  0  0  0
   -3.7238   -3.1070   10.8431 C   0  0  0  0  0  0  0  0  0  0  0  0
   -3.6819   -2.8327    9.5074 O   0  0  0  0  0  0  0  0  0  0  0  0
   -2.7892   -2.2111    8.6960 C   0  0  0  0  0  0  0  0  0  0  0  0
   -1.9886   -1.1671    9.3117 N   0  0  0  0  0  0  0  0  0  0  0  0
   -0.9763   -0.5619    8.1012 S   0  0  0  0  0  0  0  0  0  0  0  0
   -1.5606   -1.6294    6.8017 N   0  0  0  0  0  0  0  0  0  0  0  0
   -2.5707   -2.4407    7.4325 C   0  0  0  0  0  0  0  0  0  0  0  0
   -3.2333   -3.4285    6.5768 N   0  0  0  0  0  0  0  0  0  0  0  0
   -4.2795   -4.2771    7.0388 C   0  0  0  0  0  0  0  0  0  0  0  0
   -5.3941   -4.2358    5.9849 C   0  0  0  0  0  0  0  0  0  0  0  0
   -4.8818   -4.4159    4.7051 O   0  0  0  0  0  0  0  0  0  0  0  0
   -4.0162   -3.3957    4.3294 C   0  0  0  0  0  0  0  0  0  0  0  0
   -2.7817   -3.5132    5.2271 C   0  0  0  0  0  0  0  0  0  0  0  0
  2  1  1  1
  2  3  1  0
  3  4  1  0
  4  5  1  0
  5  6  1  0
  5  7  1  0
  5  8  1  0
  2  9  1  0
  9 10  1  0
 10 11  1  0
 11 12  2  0
 12 13  1  0
 13 14  1  0
 14 15  2  0
 15 16  1  0
 16 17  1  0
 17 18  1  0
 18 19  1  0
 19 20  1  0
 20 21  1  0
 15 11  1  0
 21 16  1  0
M  CHG  1   4   1
M  END
$$$$
