
     RDKit          3D

 21 22  0  0  0  0  0  0  0  0999 V2000
   -1.5392   -1.1192    7.7979 O   0  0  0  0  0  0  0  0  0  0  0  0
   -2.8357   -1.4212    8.1486 C   0  0  1  0  0  0  0  0  0  0  0  0
   -3.1958   -2.8335    7.7396 C   0  0  0  0  0  0  0  0  0  0  0  0
   -3.9472   -2.9291    6.5381 N   0  0  0  0  0  4  0  0  0  0  0  0
   -4.5392   -4.2282    6.3119 C   0  0  0  0  0  0  0  0  0  0  0  0
   -5.0311   -4.8411    7.6296 C   0  0  0  0  0  0  0  0  0  0  0  0
   -5.6999   -4.2105    5.3762 C   0  0  0  0  0  0  0  0  0  0  0  0
   -3.5121   -5.2004    5.7612 C   0  0  0  0  0  0  0  0  0  0  0  0
   -3.0871   -1.1421    9.5824 C   0  0  0  0  0  0  0  0  0  0  0  0
   -2.0103   -0.7259   10.3094 O   0  0  0  0  0  0  0  0  0  0  0  0
   -1.6465   -0.8388   11.6120 C   0  0  0  0  0  0  0  0  0  0  0  0
   -2.3707   -1.8274   12.3919 N   0  0  0  0  0  0  0  0  0  0  0  0
   -1.7352   -1.7636   13.9566 S   0  0  0  0  0  0  0  0  0  0  0  0
   -0.5436   -0.4805   13.6347 N   0  0  0  0  0  0  0  0  0  0  0  0
   -0.7277   -0.1631   12.2412 C   0  0  0  0  0  0  0  0  0  0  0  0
    0.1411    0.8838   11.6968 N   0  0  0  0  0  0  0  0  0  0  0  0
    0.1464    1.2490   10.3204 C   0  0  0  0  0  0  0  0  0  0  0  0
    0.1022    2.7816   10.2589 C   0  0  0  0  0  0  0  0  0  0  0  0
    1.0365    3.3457   11.1199 O   0  0  0  0  0  0  0  0  0  0  0  0
    0.7802    3.0482   12.4530 C   0  0  0  0  0  0  0  0  0  0  0  0
    1.0056    1.5432   12.6191 C   0  0  0  0  0  0  0  0  0  0  0  0
  2  1  1  1
  2  3  1  0
  3  4  1  0
  4  5  1  0
  5  6  1  0
  5  7  1  0
  5  8  1  0
  2  9  1  0
  9 10  1  0
 10 11  1  0
 11 12  2  0
 12 13  1  0
 13 14  1  0
 14 15  2  0
 15 16  1  0
 16 17  1  0
 17 18  1  0
 18 19  1  0
 19 20  1  0
 20 21  1  0
 15 11  1  0
 21 16  1  0
M  CHG  1   4   1
M  END
$$$$
