
     RDKit          3D

 21 22  0  0  0  0  0  0  0  0999 V2000
   -1.5215   -0.6670    6.6658 O   0  0  0  0  0  0  0  0  0  0  0  0
   -2.1841   -1.2420    7.7267 C   0  0  1  0  0  0  0  0  0  0  0  0
   -2.8780   -2.5204    7.3072 C   0  0  0  0  0  0  0  0  0  0  0  0
   -3.7009   -2.3977    6.1561 N   0  0  0  0  0  4  0  0  0  0  0  0
   -4.3818   -3.6168    5.7825 C   0  0  0  0  0  0  0  0  0  0  0  0
   -5.1586   -3.4290    4.4727 C   0  0  0  0  0  0  0  0  0  0  0  0
   -3.4735   -4.7835    5.5903 C   0  0  0  0  0  0  0  0  0  0  0  0
   -5.4156   -3.9985    6.8259 C   0  0  0  0  0  0  0  0  0  0  0  0
   -1.2878   -1.4154    8.8944 C   0  0  0  0  0  0  0  0  0  0  0  0
   -1.8787   -1.8538   10.0432 O   0  0  0  0  0  0  0  0  0  0  0  0
   -1.4131   -2.2748   11.2465 C   0  0  0  0  0  0  0  0  0  0  0  0
   -0.3157   -1.5067   11.8086 N   0  0  0  0  0  0  0  0  0  0  0  0
    0.0709   -2.2323   13.2851 S   0  0  0  0  0  0  0  0  0  0  0  0
   -1.1578   -3.5181   13.2022 N   0  0  0  0  0  0  0  0  0  0  0  0
   -1.8339   -3.2863   11.9510 C   0  0  0  0  0  0  0  0  0  0  0  0
   -2.9156   -4.2174   11.6190 N   0  0  0  0  0  0  0  0  0  0  0  0
   -3.7329   -4.0754   10.4615 C   0  0  0  0  0  0  0  0  0  0  0  0
   -3.8195   -5.4558    9.7969 C   0  0  0  0  0  0  0  0  0  0  0  0
   -4.1183   -6.4436   10.7284 O   0  0  0  0  0  0  0  0  0  0  0  0
   -3.1250   -6.5872   11.6897 C   0  0  0  0  0  0  0  0  0  0  0  0
   -3.1276   -5.3014   12.5205 C   0  0  0  0  0  0  0  0  0  0  0  0
  2  1  1  6
  2  3  1  0
  3  4  1  0
  4  5  1  0
  5  6  1  0
  5  7  1  0
  5  8  1  0
  2  9  1  0
  9 10  1  0
 10 11  1  0
 11 12  2  0
 12 13  1  0
 13 14  1  0
 14 15  2  0
 15 16  1  0
 16 17  1  0
 17 18  1  0
 18 19  1  0
 19 20  1  0
 20 21  1  0
 15 11  1  0
 21 16  1  0
M  CHG  1   4   1
M  END
$$$$
