
     RDKit          3D

 21 22  0  0  0  0  0  0  0  0999 V2000
   -0.9782   -1.9073    7.0025 O   0  0  0  0  0  0  0  0  0  0  0  0
   -2.2261   -1.5654    7.4726 C   0  0  1  0  0  0  0  0  0  0  0  0
   -3.1897   -2.7270    7.3547 C   0  0  0  0  0  0  0  0  0  0  0  0
   -3.7132   -2.9326    6.0504 N   0  0  0  0  0  4  0  0  0  0  0  0
   -4.6952   -3.9899    5.9666 C   0  0  0  0  0  0  0  0  0  0  0  0
   -5.6232   -3.9715    7.1883 C   0  0  0  0  0  0  0  0  0  0  0  0
   -5.5624   -3.9167    4.7559 C   0  0  0  0  0  0  0  0  0  0  0  0
   -4.0241   -5.3511    5.9769 C   0  0  0  0  0  0  0  0  0  0  0  0
   -2.1524   -0.9992    8.8404 C   0  0  0  0  0  0  0  0  0  0  0  0
   -1.6417   -1.8209    9.8022 O   0  0  0  0  0  0  0  0  0  0  0  0
   -1.4193   -1.6947   11.1350 C   0  0  0  0  0  0  0  0  0  0  0  0
   -0.9547   -0.3931   11.5825 N   0  0  0  0  0  0  0  0  0  0  0  0
   -0.7549   -0.5046   13.2569 S   0  0  0  0  0  0  0  0  0  0  0  0
   -1.2597   -2.2056   13.4043 N   0  0  0  0  0  0  0  0  0  0  0  0
   -1.5715   -2.6041   12.0551 C   0  0  0  0  0  0  0  0  0  0  0  0
   -2.0228   -3.9868   11.8778 N   0  0  0  0  0  0  0  0  0  0  0  0
   -1.9317   -4.9698   12.9042 C   0  0  0  0  0  0  0  0  0  0  0  0
   -3.2843   -5.6923   12.9599 C   0  0  0  0  0  0  0  0  0  0  0  0
   -3.7061   -6.0669   11.6893 O   0  0  0  0  0  0  0  0  0  0  0  0
   -3.9341   -4.9752   10.8603 C   0  0  0  0  0  0  0  0  0  0  0  0
   -2.5722   -4.3238   10.6060 C   0  0  0  0  0  0  0  0  0  0  0  0
  2  1  1  1
  2  3  1  0
  3  4  1  0
  4  5  1  0
  5  6  1  0
  5  7  1  0
  5  8  1  0
  2  9  1  0
  9 10  1  0
 10 11  1  0
 11 12  2  0
 12 13  1  0
 13 14  1  0
 14 15  2  0
 15 16  1  0
 16 17  1  0
 17 18  1  0
 18 19  1  0
 19 20  1  0
 20 21  1  0
 15 11  1  0
 21 16  1  0
M  CHG  1   4   1
M  END
$$$$
