
     RDKit          3D

 21 22  0  0  0  0  0  0  0  0999 V2000
   -4.3184   -6.2371    9.7831 O   0  0  0  0  0  0  0  0  0  0  0  0
   -3.8534   -4.9813    9.4640 C   0  0  1  0  0  0  0  0  0  0  0  0
   -4.6427   -4.3828    8.3192 C   0  0  0  0  0  0  0  0  0  0  0  0
   -4.8886   -5.2728    7.2399 N   0  0  0  0  0  4  0  0  0  0  0  0
   -5.6304   -4.6866    6.1466 C   0  0  0  0  0  0  0  0  0  0  0  0
   -4.8758   -3.4889    5.5548 C   0  0  0  0  0  0  0  0  0  0  0  0
   -5.9037   -5.6303    5.0251 C   0  0  0  0  0  0  0  0  0  0  0  0
   -6.9612   -4.1398    6.6296 C   0  0  0  0  0  0  0  0  0  0  0  0
   -3.7954   -4.1062   10.6589 C   0  0  0  0  0  0  0  0  0  0  0  0
   -2.9681   -3.0251   10.5701 O   0  0  0  0  0  0  0  0  0  0  0  0
   -2.6180   -2.0282   11.4218 C   0  0  0  0  0  0  0  0  0  0  0  0
   -3.2797   -2.0339   12.7150 N   0  0  0  0  0  0  0  0  0  0  0  0
   -2.6760   -0.7062   13.5687 S   0  0  0  0  0  0  0  0  0  0  0  0
   -1.5773   -0.1315   12.2910 N   0  0  0  0  0  0  0  0  0  0  0  0
   -1.7619   -1.0691   11.2125 C   0  0  0  0  0  0  0  0  0  0  0  0
   -0.9641   -0.8317   10.0065 N   0  0  0  0  0  0  0  0  0  0  0  0
   -1.0548   -1.6486    8.8436 C   0  0  0  0  0  0  0  0  0  0  0  0
   -1.1551   -0.7069    7.6361 C   0  0  0  0  0  0  0  0  0  0  0  0
   -0.1901    0.2920    7.6970 O   0  0  0  0  0  0  0  0  0  0  0  0
   -0.3548    1.1254    8.7968 C   0  0  0  0  0  0  0  0  0  0  0  0
   -0.0683    0.2770   10.0385 C   0  0  0  0  0  0  0  0  0  0  0  0
  2  1  1  1
  2  3  1  0
  3  4  1  0
  4  5  1  0
  5  6  1  0
  5  7  1  0
  5  8  1  0
  2  9  1  0
  9 10  1  0
 10 11  1  0
 11 12  2  0
 12 13  1  0
 13 14  1  0
 14 15  2  0
 15 16  1  0
 16 17  1  0
 17 18  1  0
 18 19  1  0
 19 20  1  0
 20 21  1  0
 15 11  1  0
 21 16  1  0
M  CHG  1   4   1
M  END
$$$$
