
     RDKit          3D

 21 22  0  0  0  0  0  0  0  0999 V2000
   -1.3910   -2.0030    7.3704 O   0  0  0  0  0  0  0  0  0  0  0  0
   -2.4276   -2.7308    7.9099 C   0  0  1  0  0  0  0  0  0  0  0  0
   -2.9054   -3.7955    6.9457 C   0  0  0  0  0  0  0  0  0  0  0  0
   -4.1012   -3.4721    6.2508 N   0  0  0  0  0  4  0  0  0  0  0  0
   -4.7581   -4.6072    5.6430 C   0  0  0  0  0  0  0  0  0  0  0  0
   -3.8660   -5.2438    4.5693 C   0  0  0  0  0  0  0  0  0  0  0  0
   -5.1210   -5.6850    6.6072 C   0  0  0  0  0  0  0  0  0  0  0  0
   -6.0251   -4.1771    4.9269 C   0  0  0  0  0  0  0  0  0  0  0  0
   -2.0754   -3.2641    9.2473 C   0  0  0  0  0  0  0  0  0  0  0  0
   -1.6505   -2.3480   10.1646 O   0  0  0  0  0  0  0  0  0  0  0  0
   -1.1574   -2.4300   11.4263 C   0  0  0  0  0  0  0  0  0  0  0  0
   -1.1374   -3.7569   12.0170 N   0  0  0  0  0  0  0  0  0  0  0  0
   -0.4901   -3.5818   13.5683 S   0  0  0  0  0  0  0  0  0  0  0  0
   -0.2388   -1.8214   13.4810 N   0  0  0  0  0  0  0  0  0  0  0  0
   -0.7042   -1.4586   12.1663 C   0  0  0  0  0  0  0  0  0  0  0  0
   -0.6129   -0.0383   11.8178 N   0  0  0  0  0  0  0  0  0  0  0  0
   -0.0044    0.9306   12.6657 C   0  0  0  0  0  0  0  0  0  0  0  0
    0.9225    1.7818   11.7875 C   0  0  0  0  0  0  0  0  0  0  0  0
    0.2752    2.1964   10.6291 O   0  0  0  0  0  0  0  0  0  0  0  0
   -0.0895    1.1325    9.8128 C   0  0  0  0  0  0  0  0  0  0  0  0
   -1.1702    0.3514   10.5647 C   0  0  0  0  0  0  0  0  0  0  0  0
  2  1  1  6
  2  3  1  0
  3  4  1  0
  4  5  1  0
  5  6  1  0
  5  7  1  0
  5  8  1  0
  2  9  1  0
  9 10  1  0
 10 11  1  0
 11 12  2  0
 12 13  1  0
 13 14  1  0
 14 15  2  0
 15 16  1  0
 16 17  1  0
 17 18  1  0
 18 19  1  0
 19 20  1  0
 20 21  1  0
 15 11  1  0
 21 16  1  0
M  CHG  1   4   1
M  END
$$$$
