
     RDKit          3D

 21 22  0  0  0  0  0  0  0  0999 V2000
   -1.7323    0.0852    6.7318 O   0  0  0  0  0  0  0  0  0  0  0  0
   -1.2078   -0.9990    7.3986 C   0  0  1  0  0  0  0  0  0  0  0  0
   -1.4544   -0.8939    8.8885 C   0  0  0  0  0  0  0  0  0  0  0  0
   -0.8132    0.2055    9.5191 N   0  0  0  0  0  4  0  0  0  0  0  0
   -1.0625    0.3008   10.9396 C   0  0  0  0  0  0  0  0  0  0  0  0
   -2.5322    0.6453   11.2143 C   0  0  0  0  0  0  0  0  0  0  0  0
   -0.7567   -0.9487   11.6936 C   0  0  0  0  0  0  0  0  0  0  0  0
   -0.2515    1.4262   11.5552 C   0  0  0  0  0  0  0  0  0  0  0  0
   -1.6819   -2.2754    6.8127 C   0  0  0  0  0  0  0  0  0  0  0  0
   -2.9883   -2.5924    7.0452 O   0  0  0  0  0  0  0  0  0  0  0  0
   -3.7714   -3.6594    6.7453 C   0  0  0  0  0  0  0  0  0  0  0  0
   -3.8551   -4.0125    5.3387 N   0  0  0  0  0  0  0  0  0  0  0  0
   -4.8806   -5.3522    5.2406 S   0  0  0  0  0  0  0  0  0  0  0  0
   -5.2127   -5.4764    6.9853 N   0  0  0  0  0  0  0  0  0  0  0  0
   -4.4562   -4.3987    7.5708 C   0  0  0  0  0  0  0  0  0  0  0  0
   -4.5475   -4.2617    9.0268 N   0  0  0  0  0  0  0  0  0  0  0  0
   -5.1095   -5.2654    9.8663 C   0  0  0  0  0  0  0  0  0  0  0  0
   -4.1454   -5.4621   11.0438 C   0  0  0  0  0  0  0  0  0  0  0  0
   -3.7693   -4.2419   11.5938 O   0  0  0  0  0  0  0  0  0  0  0  0
   -3.0605   -3.4499   10.6985 C   0  0  0  0  0  0  0  0  0  0  0  0
   -4.0397   -3.0545    9.5902 C   0  0  0  0  0  0  0  0  0  0  0  0
  2  1  1  6
  2  3  1  0
  3  4  1  0
  4  5  1  0
  5  6  1  0
  5  7  1  0
  5  8  1  0
  2  9  1  0
  9 10  1  0
 10 11  1  0
 11 12  2  0
 12 13  1  0
 13 14  1  0
 14 15  2  0
 15 16  1  0
 16 17  1  0
 17 18  1  0
 18 19  1  0
 19 20  1  0
 20 21  1  0
 15 11  1  0
 21 16  1  0
M  CHG  1   4   1
M  END
$$$$
