
     RDKit          3D

 21 22  0  0  0  0  0  0  0  0999 V2000
   -4.5360   -6.0339    8.1439 O   0  0  0  0  0  0  0  0  0  0  0  0
   -3.8612   -4.8353    8.2011 C   0  0  1  0  0  0  0  0  0  0  0  0
   -4.1470   -3.9903    6.9780 C   0  0  0  0  0  0  0  0  0  0  0  0
   -3.8145   -4.6056    5.7418 N   0  0  0  0  0  4  0  0  0  0  0  0
   -4.0113   -3.7585    4.5872 C   0  0  0  0  0  0  0  0  0  0  0  0
   -5.4408   -3.2021    4.5554 C   0  0  0  0  0  0  0  0  0  0  0  0
   -3.0851   -2.5917    4.5269 C   0  0  0  0  0  0  0  0  0  0  0  0
   -3.8466   -4.5504    3.3031 C   0  0  0  0  0  0  0  0  0  0  0  0
   -4.1211   -4.1286    9.4778 C   0  0  0  0  0  0  0  0  0  0  0  0
   -3.0384   -3.9298   10.2836 O   0  0  0  0  0  0  0  0  0  0  0  0
   -2.5270   -2.8540   10.9339 C   0  0  0  0  0  0  0  0  0  0  0  0
   -2.7632   -1.5626   10.3121 N   0  0  0  0  0  0  0  0  0  0  0  0
   -2.0300   -0.4098   11.3069 S   0  0  0  0  0  0  0  0  0  0  0  0
   -1.4166   -1.5574   12.5220 N   0  0  0  0  0  0  0  0  0  0  0  0
   -1.8488   -2.8470   12.0460 C   0  0  0  0  0  0  0  0  0  0  0  0
   -1.4733   -3.9989   12.8702 N   0  0  0  0  0  0  0  0  0  0  0  0
   -0.7565   -3.8757   14.0945 C   0  0  0  0  0  0  0  0  0  0  0  0
   -1.4702   -4.7581   15.1273 C   0  0  0  0  0  0  0  0  0  0  0  0
   -1.7320   -6.0225   14.6120 O   0  0  0  0  0  0  0  0  0  0  0  0
   -2.6035   -5.9869   13.5302 C   0  0  0  0  0  0  0  0  0  0  0  0
   -1.8615   -5.2842   12.3903 C   0  0  0  0  0  0  0  0  0  0  0  0
  2  1  1  6
  2  3  1  0
  3  4  1  0
  4  5  1  0
  5  6  1  0
  5  7  1  0
  5  8  1  0
  2  9  1  0
  9 10  1  0
 10 11  1  0
 11 12  2  0
 12 13  1  0
 13 14  1  0
 14 15  2  0
 15 16  1  0
 16 17  1  0
 17 18  1  0
 18 19  1  0
 19 20  1  0
 20 21  1  0
 15 11  1  0
 21 16  1  0
M  CHG  1   4   1
M  END
$$$$
