
     RDKit          3D

 21 22  0  0  0  0  0  0  0  0999 V2000
   -1.5393   -3.1084   10.8489 O   0  0  0  0  0  0  0  0  0  0  0  0
   -2.4487   -2.1375   11.2031 C   0  0  1  0  0  0  0  0  0  0  0  0
   -2.0825   -0.8003   10.5954 C   0  0  0  0  0  0  0  0  0  0  0  0
   -0.9282   -0.1910   11.1555 N   0  0  0  0  0  4  0  0  0  0  0  0
   -0.6682    1.1446   10.6678 C   0  0  0  0  0  0  0  0  0  0  0  0
   -1.8785    2.0575   10.9043 C   0  0  0  0  0  0  0  0  0  0  0  0
    0.5088    1.8032   11.3036 C   0  0  0  0  0  0  0  0  0  0  0  0
   -0.4428    1.1365    9.1671 C   0  0  0  0  0  0  0  0  0  0  0  0
   -3.8368   -2.5605   10.9007 C   0  0  0  0  0  0  0  0  0  0  0  0
   -3.9979   -3.3373    9.7909 O   0  0  0  0  0  0  0  0  0  0  0  0
   -4.5529   -4.5539    9.5592 C   0  0  0  0  0  0  0  0  0  0  0  0
   -5.0845   -5.2431   10.7221 N   0  0  0  0  0  0  0  0  0  0  0  0
   -5.7047   -6.7137   10.1663 S   0  0  0  0  0  0  0  0  0  0  0  0
   -5.2946   -6.4667    8.4515 N   0  0  0  0  0  0  0  0  0  0  0  0
   -4.6606   -5.1731    8.4183 C   0  0  0  0  0  0  0  0  0  0  0  0
   -4.2114   -4.7075    7.1036 N   0  0  0  0  0  0  0  0  0  0  0  0
   -4.4459   -5.4344    5.9017 C   0  0  0  0  0  0  0  0  0  0  0  0
   -4.9663   -4.4332    4.8618 C   0  0  0  0  0  0  0  0  0  0  0  0
   -4.1764   -3.2897    4.8267 O   0  0  0  0  0  0  0  0  0  0  0  0
   -4.2044   -2.5860    6.0246 C   0  0  0  0  0  0  0  0  0  0  0  0
   -3.5113   -3.4659    7.0681 C   0  0  0  0  0  0  0  0  0  0  0  0
  2  1  1  6
  2  3  1  0
  3  4  1  0
  4  5  1  0
  5  6  1  0
  5  7  1  0
  5  8  1  0
  2  9  1  0
  9 10  1  0
 10 11  1  0
 11 12  2  0
 12 13  1  0
 13 14  1  0
 14 15  2  0
 15 16  1  0
 16 17  1  0
 17 18  1  0
 18 19  1  0
 19 20  1  0
 20 21  1  0
 15 11  1  0
 21 16  1  0
M  CHG  1   4   1
M  END
$$$$
