
     RDKit          3D

 21 22  0  0  0  0  0  0  0  0999 V2000
   -1.6196   -1.9721    7.7276 O   0  0  0  0  0  0  0  0  0  0  0  0
   -2.9170   -2.0979    8.1704 C   0  0  1  0  0  0  0  0  0  0  0  0
   -3.5260   -3.4046    7.7086 C   0  0  0  0  0  0  0  0  0  0  0  0
   -3.9682   -3.4080    6.3589 N   0  0  0  0  0  4  0  0  0  0  0  0
   -4.6982   -4.5960    5.9782 C   0  0  0  0  0  0  0  0  0  0  0  0
   -4.9965   -4.5948    4.4731 C   0  0  0  0  0  0  0  0  0  0  0  0
   -3.9846   -5.8692    6.2828 C   0  0  0  0  0  0  0  0  0  0  0  0
   -6.0493   -4.6430    6.6680 C   0  0  0  0  0  0  0  0  0  0  0  0
   -3.0110   -1.8904    9.6350 C   0  0  0  0  0  0  0  0  0  0  0  0
   -1.8473   -1.5694   10.2705 O   0  0  0  0  0  0  0  0  0  0  0  0
   -1.3914   -1.7129   11.5407 C   0  0  0  0  0  0  0  0  0  0  0  0
   -1.8411   -2.8991   12.2484 N   0  0  0  0  0  0  0  0  0  0  0  0
   -1.1424   -2.8343   13.7859 S   0  0  0  0  0  0  0  0  0  0  0  0
   -0.2725   -1.2998   13.5440 N   0  0  0  0  0  0  0  0  0  0  0  0
   -0.6020   -0.9106   12.1963 C   0  0  0  0  0  0  0  0  0  0  0  0
   -0.0098    0.3433   11.7229 N   0  0  0  0  0  0  0  0  0  0  0  0
   -0.2616    0.8794   10.4279 C   0  0  0  0  0  0  0  0  0  0  0  0
   -0.5739    2.3709   10.6086 C   0  0  0  0  0  0  0  0  0  0  0  0
    0.3633    2.9838   11.4324 O   0  0  0  0  0  0  0  0  0  0  0  0
    0.3526    2.4719   12.7243 C   0  0  0  0  0  0  0  0  0  0  0  0
    0.8518    1.0278   12.6295 C   0  0  0  0  0  0  0  0  0  0  0  0
  2  1  1  1
  2  3  1  0
  3  4  1  0
  4  5  1  0
  5  6  1  0
  5  7  1  0
  5  8  1  0
  2  9  1  0
  9 10  1  0
 10 11  1  0
 11 12  2  0
 12 13  1  0
 13 14  1  0
 14 15  2  0
 15 16  1  0
 16 17  1  0
 17 18  1  0
 18 19  1  0
 19 20  1  0
 20 21  1  0
 15 11  1  0
 21 16  1  0
M  CHG  1   4   1
M  END
$$$$
