
     RDKit          3D

 21 22  0  0  0  0  0  0  0  0999 V2000
   -1.7258   -2.0886    7.0269 O   0  0  0  0  0  0  0  0  0  0  0  0
   -2.5198   -2.3331    8.1246 C   0  0  1  0  0  0  0  0  0  0  0  0
   -3.5300   -3.4226    7.8344 C   0  0  0  0  0  0  0  0  0  0  0  0
   -4.1818   -3.3070    6.5777 N   0  0  0  0  0  4  0  0  0  0  0  0
   -5.0369   -4.4251    6.2493 C   0  0  0  0  0  0  0  0  0  0  0  0
   -6.3891   -4.3071    6.9646 C   0  0  0  0  0  0  0  0  0  0  0  0
   -5.3221   -4.5622    4.7922 C   0  0  0  0  0  0  0  0  0  0  0  0
   -4.4272   -5.7295    6.7290 C   0  0  0  0  0  0  0  0  0  0  0  0
   -1.7045   -2.5944    9.3345 C   0  0  0  0  0  0  0  0  0  0  0  0
   -1.9199   -1.7616   10.3933 O   0  0  0  0  0  0  0  0  0  0  0  0
   -1.5319   -1.7636   11.6938 C   0  0  0  0  0  0  0  0  0  0  0  0
   -1.8392   -2.9664   12.4480 N   0  0  0  0  0  0  0  0  0  0  0  0
   -1.2615   -2.7106   14.0155 S   0  0  0  0  0  0  0  0  0  0  0  0
   -0.6242   -1.0733   13.7274 N   0  0  0  0  0  0  0  0  0  0  0  0
   -0.9204   -0.8131   12.3414 C   0  0  0  0  0  0  0  0  0  0  0  0
   -0.4985    0.4914   11.8245 N   0  0  0  0  0  0  0  0  0  0  0  0
   -0.5007    0.8134   10.4373 C   0  0  0  0  0  0  0  0  0  0  0  0
   -1.1543    2.1944   10.2945 C   0  0  0  0  0  0  0  0  0  0  0  0
   -0.6212    3.0987   11.2059 O   0  0  0  0  0  0  0  0  0  0  0  0
   -0.8700    2.7358   12.5241 C   0  0  0  0  0  0  0  0  0  0  0  0
   -0.0736    1.4549   12.7857 C   0  0  0  0  0  0  0  0  0  0  0  0
  2  1  1  6
  2  3  1  0
  3  4  1  0
  4  5  1  0
  5  6  1  0
  5  7  1  0
  5  8  1  0
  2  9  1  0
  9 10  1  0
 10 11  1  0
 11 12  2  0
 12 13  1  0
 13 14  1  0
 14 15  2  0
 15 16  1  0
 16 17  1  0
 17 18  1  0
 18 19  1  0
 19 20  1  0
 20 21  1  0
 15 11  1  0
 21 16  1  0
M  CHG  1   4   1
M  END
$$$$
