
     RDKit          3D

 21 22  0  0  0  0  0  0  0  0999 V2000
   -1.6511   -5.4088   11.0184 O   0  0  0  0  0  0  0  0  0  0  0  0
   -2.8673   -5.0339   11.5432 C   0  0  1  0  0  0  0  0  0  0  0  0
   -2.7553   -3.7264   12.2979 C   0  0  0  0  0  0  0  0  0  0  0  0
   -2.5824   -3.8649   13.7008 N   0  0  0  0  0  4  0  0  0  0  0  0
   -2.5725   -2.6126   14.4225 C   0  0  0  0  0  0  0  0  0  0  0  0
   -2.5880   -2.8552   15.9375 C   0  0  0  0  0  0  0  0  0  0  0  0
   -1.3904   -1.7530   14.1281 C   0  0  0  0  0  0  0  0  0  0  0  0
   -3.8218   -1.8058   14.1197 C   0  0  0  0  0  0  0  0  0  0  0  0
   -3.9248   -5.0246   10.5047 C   0  0  0  0  0  0  0  0  0  0  0  0
   -3.5721   -4.5010    9.2953 O   0  0  0  0  0  0  0  0  0  0  0  0
   -4.1331   -4.5100    8.0596 C   0  0  0  0  0  0  0  0  0  0  0  0
   -5.0593   -5.5959    7.7889 N   0  0  0  0  0  0  0  0  0  0  0  0
   -5.6039   -5.3781    6.2039 S   0  0  0  0  0  0  0  0  0  0  0  0
   -4.6602   -3.9056    5.8703 N   0  0  0  0  0  0  0  0  0  0  0  0
   -3.9350   -3.6615    7.0914 C   0  0  0  0  0  0  0  0  0  0  0  0
   -3.0594   -2.4866    7.0989 N   0  0  0  0  0  0  0  0  0  0  0  0
   -2.5706   -1.8915    8.2968 C   0  0  0  0  0  0  0  0  0  0  0  0
   -1.0682   -1.6485    8.1007 C   0  0  0  0  0  0  0  0  0  0  0  0
   -0.8141   -1.0354    6.8791 O   0  0  0  0  0  0  0  0  0  0  0  0
   -1.1771   -1.8303    5.7985 C   0  0  0  0  0  0  0  0  0  0  0  0
   -2.7035   -1.9443    5.8293 C   0  0  0  0  0  0  0  0  0  0  0  0
  2  1  1  6
  2  3  1  0
  3  4  1  0
  4  5  1  0
  5  6  1  0
  5  7  1  0
  5  8  1  0
  2  9  1  0
  9 10  1  0
 10 11  1  0
 11 12  2  0
 12 13  1  0
 13 14  1  0
 14 15  2  0
 15 16  1  0
 16 17  1  0
 17 18  1  0
 18 19  1  0
 19 20  1  0
 20 21  1  0
 15 11  1  0
 21 16  1  0
M  CHG  1   4   1
M  END
$$$$
