
     RDKit          3D

 21 22  0  0  0  0  0  0  0  0999 V2000
   -1.3941   -1.1806    7.7413 O   0  0  0  0  0  0  0  0  0  0  0  0
   -2.7141   -1.5185    7.9379 C   0  0  1  0  0  0  0  0  0  0  0  0
   -3.0528   -2.8196    7.2420 C   0  0  0  0  0  0  0  0  0  0  0  0
   -4.1277   -2.7349    6.3176 N   0  0  0  0  0  4  0  0  0  0  0  0
   -4.5598   -4.0108    5.7936 C   0  0  0  0  0  0  0  0  0  0  0  0
   -3.4412   -4.6739    4.9793 C   0  0  0  0  0  0  0  0  0  0  0  0
   -4.9768   -4.9862    6.8413 C   0  0  0  0  0  0  0  0  0  0  0  0
   -5.7217   -3.8339    4.8334 C   0  0  0  0  0  0  0  0  0  0  0  0
   -3.0651   -1.5132    9.3779 C   0  0  0  0  0  0  0  0  0  0  0  0
   -2.1552   -2.0850   10.2184 O   0  0  0  0  0  0  0  0  0  0  0  0
   -2.2475   -2.8818   11.3131 C   0  0  0  0  0  0  0  0  0  0  0  0
   -3.2792   -3.9037   11.2717 N   0  0  0  0  0  0  0  0  0  0  0  0
   -3.1837   -4.7414   12.7364 S   0  0  0  0  0  0  0  0  0  0  0  0
   -1.8325   -3.8015   13.4150 N   0  0  0  0  0  0  0  0  0  0  0  0
   -1.5216   -2.8338   12.3936 C   0  0  0  0  0  0  0  0  0  0  0  0
   -0.4249   -1.9090   12.6921 N   0  0  0  0  0  0  0  0  0  0  0  0
    0.2286   -1.1328   11.6929 C   0  0  0  0  0  0  0  0  0  0  0  0
    0.3321    0.3010   12.2298 C   0  0  0  0  0  0  0  0  0  0  0  0
    0.8165    0.3154   13.5328 O   0  0  0  0  0  0  0  0  0  0  0  0
   -0.0355   -0.3245   14.4249 C   0  0  0  0  0  0  0  0  0  0  0  0
   -0.0230   -1.8104   14.0565 C   0  0  0  0  0  0  0  0  0  0  0  0
  2  1  1  1
  2  3  1  0
  3  4  1  0
  4  5  1  0
  5  6  1  0
  5  7  1  0
  5  8  1  0
  2  9  1  0
  9 10  1  0
 10 11  1  0
 11 12  2  0
 12 13  1  0
 13 14  1  0
 14 15  2  0
 15 16  1  0
 16 17  1  0
 17 18  1  0
 18 19  1  0
 19 20  1  0
 20 21  1  0
 15 11  1  0
 21 16  1  0
M  CHG  1   4   1
M  END
$$$$
