
     RDKit          3D

 21 22  0  0  0  0  0  0  0  0999 V2000
   -1.9350   -1.0872    6.2836 O   0  0  0  0  0  0  0  0  0  0  0  0
   -2.1919   -1.5507    7.5542 C   0  0  1  0  0  0  0  0  0  0  0  0
   -2.8186   -2.9282    7.5153 C   0  0  0  0  0  0  0  0  0  0  0  0
   -3.7895   -3.1088    6.4945 N   0  0  0  0  0  4  0  0  0  0  0  0
   -4.3869   -4.4248    6.4720 C   0  0  0  0  0  0  0  0  0  0  0  0
   -3.3383   -5.4950    6.1414 C   0  0  0  0  0  0  0  0  0  0  0  0
   -5.0278   -4.8213    7.7585 C   0  0  0  0  0  0  0  0  0  0  0  0
   -5.4362   -4.5221    5.3798 C   0  0  0  0  0  0  0  0  0  0  0  0
   -0.9845   -1.4781    8.4109 C   0  0  0  0  0  0  0  0  0  0  0  0
   -1.1941   -1.6021    9.7532 O   0  0  0  0  0  0  0  0  0  0  0  0
   -0.7789   -0.9099   10.8443 C   0  0  0  0  0  0  0  0  0  0  0  0
   -0.6819    0.5307   10.6854 N   0  0  0  0  0  0  0  0  0  0  0  0
   -0.1474    1.1420   12.1676 S   0  0  0  0  0  0  0  0  0  0  0  0
   -0.0423   -0.4268   13.0030 N   0  0  0  0  0  0  0  0  0  0  0  0
   -0.4561   -1.3878   12.0122 C   0  0  0  0  0  0  0  0  0  0  0  0
   -0.4643   -2.7903   12.4365 N   0  0  0  0  0  0  0  0  0  0  0  0
   -0.2311   -3.1948   13.7818 C   0  0  0  0  0  0  0  0  0  0  0  0
   -1.3145   -4.2207   14.1400 C   0  0  0  0  0  0  0  0  0  0  0  0
   -1.4397   -5.1859   13.1473 O   0  0  0  0  0  0  0  0  0  0  0  0
   -1.8599   -4.6520   11.9351 C   0  0  0  0  0  0  0  0  0  0  0  0
   -0.7211   -3.7639   11.4271 C   0  0  0  0  0  0  0  0  0  0  0  0
  2  1  1  6
  2  3  1  0
  3  4  1  0
  4  5  1  0
  5  6  1  0
  5  7  1  0
  5  8  1  0
  2  9  1  0
  9 10  1  0
 10 11  1  0
 11 12  2  0
 12 13  1  0
 13 14  1  0
 14 15  2  0
 15 16  1  0
 16 17  1  0
 17 18  1  0
 18 19  1  0
 19 20  1  0
 20 21  1  0
 15 11  1  0
 21 16  1  0
M  CHG  1   4   1
M  END
$$$$
