
     RDKit          3D

 21 22  0  0  0  0  0  0  0  0999 V2000
   -2.4181   -6.3382    8.8086 O   0  0  0  0  0  0  0  0  0  0  0  0
   -2.6845   -5.0015    9.0024 C   0  0  1  0  0  0  0  0  0  0  0  0
   -3.9131   -4.5732    8.2286 C   0  0  0  0  0  0  0  0  0  0  0  0
   -4.0317   -5.1523    6.9371 N   0  0  0  0  0  4  0  0  0  0  0  0
   -5.1864   -4.7051    6.1916 C   0  0  0  0  0  0  0  0  0  0  0  0
   -5.3705   -5.5397    4.9173 C   0  0  0  0  0  0  0  0  0  0  0  0
   -6.4658   -4.7802    6.9536 C   0  0  0  0  0  0  0  0  0  0  0  0
   -5.0056   -3.2722    5.7255 C   0  0  0  0  0  0  0  0  0  0  0  0
   -2.7520   -4.6671   10.4449 C   0  0  0  0  0  0  0  0  0  0  0  0
   -2.3375   -3.4137   10.7892 O   0  0  0  0  0  0  0  0  0  0  0  0
   -1.7963   -2.8695   11.9084 C   0  0  0  0  0  0  0  0  0  0  0  0
   -1.7459   -3.7327   13.0757 N   0  0  0  0  0  0  0  0  0  0  0  0
   -1.0412   -2.8241   14.3142 S   0  0  0  0  0  0  0  0  0  0  0  0
   -0.8041   -1.3393   13.3609 N   0  0  0  0  0  0  0  0  0  0  0  0
   -1.3213   -1.6657   12.0562 C   0  0  0  0  0  0  0  0  0  0  0  0
   -1.2520   -0.6033   11.0494 N   0  0  0  0  0  0  0  0  0  0  0  0
   -0.6269    0.6534   11.2900 C   0  0  0  0  0  0  0  0  0  0  0  0
    0.2667    0.9533   10.0792 C   0  0  0  0  0  0  0  0  0  0  0  0
   -0.4175    0.7467    8.8868 O   0  0  0  0  0  0  0  0  0  0  0  0
   -0.7972   -0.5788    8.7133 C   0  0  0  0  0  0  0  0  0  0  0  0
   -1.8490   -0.8791    9.7843 C   0  0  0  0  0  0  0  0  0  0  0  0
  2  1  1  1
  2  3  1  0
  3  4  1  0
  4  5  1  0
  5  6  1  0
  5  7  1  0
  5  8  1  0
  2  9  1  0
  9 10  1  0
 10 11  1  0
 11 12  2  0
 12 13  1  0
 13 14  1  0
 14 15  2  0
 15 16  1  0
 16 17  1  0
 17 18  1  0
 18 19  1  0
 19 20  1  0
 20 21  1  0
 15 11  1  0
 21 16  1  0
M  CHG  1   4   1
M  END
$$$$
