
     RDKit          3D

 21 22  0  0  0  0  0  0  0  0999 V2000
   -1.3439   -2.1850    7.9881 O   0  0  0  0  0  0  0  0  0  0  0  0
   -2.6746   -1.8417    8.0703 C   0  0  1  0  0  0  0  0  0  0  0  0
   -3.5580   -3.0701    8.0231 C   0  0  0  0  0  0  0  0  0  0  0  0
   -3.8379   -3.5487    6.7154 N   0  0  0  0  0  4  0  0  0  0  0  0
   -4.8187   -4.6096    6.6707 C   0  0  0  0  0  0  0  0  0  0  0  0
   -5.1443   -4.9915    5.2208 C   0  0  0  0  0  0  0  0  0  0  0  0
   -4.3938   -5.8572    7.3680 C   0  0  0  0  0  0  0  0  0  0  0  0
   -6.1309   -4.1572    7.2844 C   0  0  0  0  0  0  0  0  0  0  0  0
   -2.9376   -0.9730    9.2421 C   0  0  0  0  0  0  0  0  0  0  0  0
   -1.8724   -0.7308   10.0594 O   0  0  0  0  0  0  0  0  0  0  0  0
   -1.6450    0.1210   11.0911 C   0  0  0  0  0  0  0  0  0  0  0  0
   -2.0268    1.5050   10.8700 N   0  0  0  0  0  0  0  0  0  0  0  0
   -1.6396    2.3416   12.2865 S   0  0  0  0  0  0  0  0  0  0  0  0
   -0.9892    0.9411   13.1727 N   0  0  0  0  0  0  0  0  0  0  0  0
   -1.1232   -0.1586   12.2513 C   0  0  0  0  0  0  0  0  0  0  0  0
   -0.6554   -1.4624   12.7292 N   0  0  0  0  0  0  0  0  0  0  0  0
   -0.9111   -2.6797   12.0358 C   0  0  0  0  0  0  0  0  0  0  0  0
    0.4129   -3.4533   11.9768 C   0  0  0  0  0  0  0  0  0  0  0  0
    1.0277   -3.4920   13.2231 O   0  0  0  0  0  0  0  0  0  0  0  0
    1.3878   -2.2295   13.6788 C   0  0  0  0  0  0  0  0  0  0  0  0
    0.0857   -1.4706   13.9472 C   0  0  0  0  0  0  0  0  0  0  0  0
  2  1  1  1
  2  3  1  0
  3  4  1  0
  4  5  1  0
  5  6  1  0
  5  7  1  0
  5  8  1  0
  2  9  1  0
  9 10  1  0
 10 11  1  0
 11 12  2  0
 12 13  1  0
 13 14  1  0
 14 15  2  0
 15 16  1  0
 16 17  1  0
 17 18  1  0
 18 19  1  0
 19 20  1  0
 20 21  1  0
 15 11  1  0
 21 16  1  0
M  CHG  1   4   1
M  END
$$$$
