
     RDKit          3D

 21 22  0  0  0  0  0  0  0  0999 V2000
   -1.4296   -1.6600    6.1118 O   0  0  0  0  0  0  0  0  0  0  0  0
   -2.2774   -1.6963    7.1959 C   0  0  1  0  0  0  0  0  0  0  0  0
   -3.1657   -2.9213    7.1521 C   0  0  0  0  0  0  0  0  0  0  0  0
   -3.9245   -3.0608    5.9596 N   0  0  0  0  0  4  0  0  0  0  0  0
   -4.8181   -4.1969    5.9560 C   0  0  0  0  0  0  0  0  0  0  0  0
   -6.2822   -3.7403    6.0003 C   0  0  0  0  0  0  0  0  0  0  0  0
   -4.6701   -5.0803    4.7640 C   0  0  0  0  0  0  0  0  0  0  0  0
   -4.6124   -5.0487    7.1951 C   0  0  0  0  0  0  0  0  0  0  0  0
   -1.5329   -1.5550    8.4697 C   0  0  0  0  0  0  0  0  0  0  0  0
   -2.2050   -1.9188    9.5999 O   0  0  0  0  0  0  0  0  0  0  0  0
   -1.8541   -2.5523   10.7476 C   0  0  0  0  0  0  0  0  0  0  0  0
   -1.9740   -4.0000   10.7380 N   0  0  0  0  0  0  0  0  0  0  0  0
   -1.4859   -4.5320   12.2660 S   0  0  0  0  0  0  0  0  0  0  0  0
   -1.1248   -2.9205   12.9313 N   0  0  0  0  0  0  0  0  0  0  0  0
   -1.4263   -2.0130   11.8534 C   0  0  0  0  0  0  0  0  0  0  0  0
   -1.2162   -0.5894   12.1296 N   0  0  0  0  0  0  0  0  0  0  0  0
   -0.8006   -0.0992   13.4004 C   0  0  0  0  0  0  0  0  0  0  0  0
    0.3312    0.9061   13.1493 C   0  0  0  0  0  0  0  0  0  0  0  0
   -0.0105    1.8068   12.1470 O   0  0  0  0  0  0  0  0  0  0  0  0
   -0.1995    1.1884   10.9169 C   0  0  0  0  0  0  0  0  0  0  0  0
   -1.4488    0.3140   11.0513 C   0  0  0  0  0  0  0  0  0  0  0  0
  2  1  1  6
  2  3  1  0
  3  4  1  0
  4  5  1  0
  5  6  1  0
  5  7  1  0
  5  8  1  0
  2  9  1  0
  9 10  1  0
 10 11  1  0
 11 12  2  0
 12 13  1  0
 13 14  1  0
 14 15  2  0
 15 16  1  0
 16 17  1  0
 17 18  1  0
 18 19  1  0
 19 20  1  0
 20 21  1  0
 15 11  1  0
 21 16  1  0
M  CHG  1   4   1
M  END
$$$$
