
     RDKit          3D

 21 22  0  0  0  0  0  0  0  0999 V2000
   -5.6990   -4.7323    9.9419 O   0  0  0  0  0  0  0  0  0  0  0  0
   -4.6168   -5.4609    9.5023 C   0  0  1  0  0  0  0  0  0  0  0  0
   -4.1880   -5.0190    8.1194 C   0  0  0  0  0  0  0  0  0  0  0  0
   -5.1243   -5.3028    7.0898 N   0  0  0  0  0  4  0  0  0  0  0  0
   -4.7008   -4.8843    5.7727 C   0  0  0  0  0  0  0  0  0  0  0  0
   -4.4218   -3.3758    5.7424 C   0  0  0  0  0  0  0  0  0  0  0  0
   -3.4680   -5.5680    5.2869 C   0  0  0  0  0  0  0  0  0  0  0  0
   -5.7983   -5.1229    4.7521 C   0  0  0  0  0  0  0  0  0  0  0  0
   -3.5146   -5.4435   10.4933 C   0  0  0  0  0  0  0  0  0  0  0  0
   -3.1395   -4.2141   10.9505 O   0  0  0  0  0  0  0  0  0  0  0  0
   -2.0896   -3.7540   11.6770 C   0  0  0  0  0  0  0  0  0  0  0  0
   -1.6355   -4.6148   12.7554 N   0  0  0  0  0  0  0  0  0  0  0  0
   -0.3402   -3.8178   13.4924 S   0  0  0  0  0  0  0  0  0  0  0  0
   -0.3634   -2.3837   12.4377 N   0  0  0  0  0  0  0  0  0  0  0  0
   -1.4467   -2.6320   11.5205 C   0  0  0  0  0  0  0  0  0  0  0  0
   -1.6972   -1.5914   10.5197 N   0  0  0  0  0  0  0  0  0  0  0  0
   -1.4520   -0.2094   10.7600 C   0  0  0  0  0  0  0  0  0  0  0  0
   -0.6984    0.3353    9.5393 C   0  0  0  0  0  0  0  0  0  0  0  0
   -1.3130   -0.0547    8.3549 O   0  0  0  0  0  0  0  0  0  0  0  0
   -1.3023   -1.4330    8.1779 C   0  0  0  0  0  0  0  0  0  0  0  0
   -2.2095   -2.0227    9.2609 C   0  0  0  0  0  0  0  0  0  0  0  0
  2  1  1  1
  2  3  1  0
  3  4  1  0
  4  5  1  0
  5  6  1  0
  5  7  1  0
  5  8  1  0
  2  9  1  0
  9 10  1  0
 10 11  1  0
 11 12  2  0
 12 13  1  0
 13 14  1  0
 14 15  2  0
 15 16  1  0
 16 17  1  0
 17 18  1  0
 18 19  1  0
 19 20  1  0
 20 21  1  0
 15 11  1  0
 21 16  1  0
M  CHG  1   4   1
M  END
$$$$
