
     RDKit          3D

 21 22  0  0  0  0  0  0  0  0999 V2000
   -1.4192   -1.1467    7.7744 O   0  0  0  0  0  0  0  0  0  0  0  0
   -2.6621   -1.5807    8.1772 C   0  0  1  0  0  0  0  0  0  0  0  0
   -2.9318   -2.9884    7.6900 C   0  0  0  0  0  0  0  0  0  0  0  0
   -3.7044   -3.0659    6.5007 N   0  0  0  0  0  4  0  0  0  0  0  0
   -4.1631   -4.3983    6.1786 C   0  0  0  0  0  0  0  0  0  0  0  0
   -3.0231   -5.4161    6.3142 C   0  0  0  0  0  0  0  0  0  0  0  0
   -5.2834   -4.8775    7.0379 C   0  0  0  0  0  0  0  0  0  0  0  0
   -4.6187   -4.4770    4.7331 C   0  0  0  0  0  0  0  0  0  0  0  0
   -2.8434   -1.4197    9.6395 C   0  0  0  0  0  0  0  0  0  0  0  0
   -1.7108   -1.1788   10.3606 O   0  0  0  0  0  0  0  0  0  0  0  0
   -1.3816   -1.2914   11.6724 C   0  0  0  0  0  0  0  0  0  0  0  0
   -2.0687   -2.3345   12.4139 N   0  0  0  0  0  0  0  0  0  0  0  0
   -1.4874   -2.2588   13.9990 S   0  0  0  0  0  0  0  0  0  0  0  0
   -0.3661   -0.9014   13.7346 N   0  0  0  0  0  0  0  0  0  0  0  0
   -0.5255   -0.5724   12.3408 C   0  0  0  0  0  0  0  0  0  0  0  0
    0.2950    0.5337   11.8402 N   0  0  0  0  0  0  0  0  0  0  0  0
    0.2861    0.9514   10.4788 C   0  0  0  0  0  0  0  0  0  0  0  0
    0.1711    2.4816   10.4758 C   0  0  0  0  0  0  0  0  0  0  0  0
    1.0767    3.0547   11.3614 O   0  0  0  0  0  0  0  0  0  0  0  0
    0.8319    2.6946   12.6811 C   0  0  0  0  0  0  0  0  0  0  0  0
    1.1263    1.1963   12.7902 C   0  0  0  0  0  0  0  0  0  0  0  0
  2  1  1  1
  2  3  1  0
  3  4  1  0
  4  5  1  0
  5  6  1  0
  5  7  1  0
  5  8  1  0
  2  9  1  0
  9 10  1  0
 10 11  1  0
 11 12  2  0
 12 13  1  0
 13 14  1  0
 14 15  2  0
 15 16  1  0
 16 17  1  0
 17 18  1  0
 18 19  1  0
 19 20  1  0
 20 21  1  0
 15 11  1  0
 21 16  1  0
M  CHG  1   4   1
M  END
$$$$
