
     RDKit          3D

 31 33  0  0  0  0  0  0  0  0999 V2000
   -2.2568    4.2489   11.2688 C   0  0  0  0  0  0  0  0  0  0  0  0
   -0.8689    4.8930   11.2739 C   0  0  0  0  0  0  0  0  0  0  0  0
   -0.3793    5.0143   12.6739 C   0  0  0  0  0  0  0  0  0  0  0  0
    0.4578    6.2754   12.7728 C   0  0  0  0  0  0  0  0  0  0  0  0
    0.9697    6.4978   14.1770 C   0  0  0  0  0  0  0  0  0  0  0  0
    1.3965    5.2391   14.8534 C   0  0  0  0  0  0  0  0  0  0  0  0
    1.6814    4.2018   13.7662 C   0  0  0  0  0  0  0  0  0  0  0  0
    0.3036    3.8156   13.2124 C   0  0  0  0  0  0  0  0  0  0  0  0
    0.5048    2.7318   12.2377 C   0  0  0  0  0  0  0  0  0  0  0  0
    0.8768    1.4967   12.7214 C   0  0  0  0  0  0  0  0  0  0  0  0
    1.0844    0.4276   11.8556 C   0  0  0  0  0  0  0  0  0  0  0  0
    0.9237    0.5787   10.5003 C   0  0  0  0  0  0  0  0  0  0  0  0
    0.5520    1.8148   10.0239 C   0  0  0  0  0  0  0  0  0  0  0  0
    0.3467    2.8688   10.8723 C   0  0  0  0  0  0  0  0  0  0  0  0
   -0.0309    4.1376   10.4260 O   0  0  0  0  0  0  0  0  0  0  0  0
    1.1273   -0.5048    9.5038 C   0  0  0  0  0  0  0  0  0  0  0  0
    2.3168   -0.3190    8.6248 C   0  0  0  0  0  0  0  0  0  0  0  0
   -0.1134   -0.5003    8.6109 C   0  0  0  0  0  0  0  0  0  0  0  0
    1.2249   -1.7928   10.2800 C   0  0  0  0  0  0  0  0  0  0  0  0
   -0.1705   -2.3816   10.3939 C   0  0  0  0  0  0  0  0  0  0  0  0
   -0.2049   -3.5406   11.3415 C   0  0  0  0  0  0  0  0  0  0  0  0
   -1.3105   -3.3512   12.3343 C   0  0  0  0  0  0  0  0  0  0  0  0
   -1.0207   -2.3208   13.3945 C   0  0  0  0  0  0  0  0  0  0  0  0
   -1.2725   -3.0126   14.7315 C   0  0  0  0  0  0  0  0  0  0  0  0
   -0.1762   -3.8839   15.0793 N   0  0  0  0  0  0  0  0  0  0  0  0
    0.4337   -3.7301   16.1927 C   0  0  0  0  0  0  0  0  0  0  0  0
    0.8164   -3.2609   17.6828 S   0  0  0  0  0  0  0  0  0  0  0  0
    1.0655    1.2380   14.0682 O   0  0  0  0  0  0  0  0  0  0  0  0
    2.5999    5.4247   15.7491 C   0  0  0  0  0  0  0  0  0  0  0  0
    2.2197    6.1222   16.8823 O   0  0  0  0  0  0  0  0  0  0  0  0
   -1.0462    6.2506   10.6034 C   0  0  0  0  0  0  0  0  0  0  0  0
  1  2  1  0
  2  3  1  0
  3  4  1  0
  4  5  1  0
  5  6  1  0
  6  7  1  0
  7  8  1  0
  8  9  1  0
  9 10  2  0
 10 11  1  0
 11 12  2  0
 12 13  1  0
 13 14  2  0
 14 15  1  0
 12 16  1  0
 16 17  1  0
 16 18  1  0
 16 19  1  0
 19 20  1  0
 20 21  1  0
 21 22  1  0
 22 23  1  0
 23 24  1  0
 24 25  1  0
 25 26  2  0
 26 27  2  0
 10 28  1  0
  6 29  1  0
 29 30  1  0
  2 31  1  0
 15  2  1  0
  8  3  1  0
 14  9  1  0
M  END
$$$$
