
     RDKit          3D

 31 33  0  0  0  0  0  0  0  0999 V2000
   -3.2375    4.2882   12.4843 C   0  0  0  0  0  0  0  0  0  0  0  0
   -1.8058    4.7167   12.1557 C   0  0  0  0  0  0  0  0  0  0  0  0
   -1.0245    4.8558   13.4145 C   0  0  0  0  0  0  0  0  0  0  0  0
   -0.0252    5.9815   13.2270 C   0  0  0  0  0  0  0  0  0  0  0  0
    0.7922    6.2172   14.4758 C   0  0  0  0  0  0  0  0  0  0  0  0
    1.1792    4.9564   15.1719 C   0  0  0  0  0  0  0  0  0  0  0  0
    1.0917    3.8186   14.1535 C   0  0  0  0  0  0  0  0  0  0  0  0
   -0.4099    3.6068   13.9201 C   0  0  0  0  0  0  0  0  0  0  0  0
   -0.5614    2.4431   13.0323 C   0  0  0  0  0  0  0  0  0  0  0  0
   -0.2644    1.2010   13.5488 C   0  0  0  0  0  0  0  0  0  0  0  0
   -0.3849    0.0580   12.7647 C   0  0  0  0  0  0  0  0  0  0  0  0
   -0.8022    0.1416   11.4591 C   0  0  0  0  0  0  0  0  0  0  0  0
   -1.0973    1.3851   10.9497 C   0  0  0  0  0  0  0  0  0  0  0  0
   -0.9800    2.5116   11.7178 C   0  0  0  0  0  0  0  0  0  0  0  0
   -1.2702    3.7904   11.2357 O   0  0  0  0  0  0  0  0  0  0  0  0
   -0.9558   -1.0237   10.5497 C   0  0  0  0  0  0  0  0  0  0  0  0
   -1.3821   -0.6735    9.1650 C   0  0  0  0  0  0  0  0  0  0  0  0
   -2.0476   -1.9007   11.1624 C   0  0  0  0  0  0  0  0  0  0  0  0
    0.3685   -1.7429   10.5417 C   0  0  0  0  0  0  0  0  0  0  0  0
    1.3970   -0.8300    9.8971 C   0  0  0  0  0  0  0  0  0  0  0  0
    2.7404   -1.4859    9.8113 C   0  0  0  0  0  0  0  0  0  0  0  0
    3.4089   -1.4497   11.1514 C   0  0  0  0  0  0  0  0  0  0  0  0
    4.8283   -1.9549   11.1490 C   0  0  0  0  0  0  0  0  0  0  0  0
    5.6998   -0.7580   11.5201 C   0  0  0  0  0  0  0  0  0  0  0  0
    7.0025   -1.1847   11.9705 N   0  0  0  0  0  0  0  0  0  0  0  0
    7.8712   -0.3166   12.3272 C   0  0  0  0  0  0  0  0  0  0  0  0
    9.2307    0.3785   12.8328 S   0  0  0  0  0  0  0  0  0  0  0  0
    0.1640    1.0065   14.8508 O   0  0  0  0  0  0  0  0  0  0  0  0
    2.5561    5.0189   15.7923 C   0  0  0  0  0  0  0  0  0  0  0  0
    2.4521    5.5146   17.0802 O   0  0  0  0  0  0  0  0  0  0  0  0
   -1.9367    6.0383   11.4071 C   0  0  0  0  0  0  0  0  0  0  0  0
  1  2  1  0
  2  3  1  0
  3  4  1  0
  4  5  1  0
  5  6  1  0
  6  7  1  0
  7  8  1  0
  8  9  1  0
  9 10  2  0
 10 11  1  0
 11 12  2  0
 12 13  1  0
 13 14  2  0
 14 15  1  0
 12 16  1  0
 16 17  1  0
 16 18  1  0
 16 19  1  0
 19 20  1  0
 20 21  1  0
 21 22  1  0
 22 23  1  0
 23 24  1  0
 24 25  1  0
 25 26  2  0
 26 27  2  0
 10 28  1  0
  6 29  1  0
 29 30  1  0
  2 31  1  0
 15  2  1  0
  8  3  1  0
 14  9  1  0
M  END
$$$$
