
     RDKit          3D

 31 33  0  0  0  0  0  0  0  0999 V2000
    1.6277   -0.6348    7.7683 C   0  0  0  0  0  0  0  0  0  0  0  0
    0.3656   -1.2487    8.3781 C   0  0  0  0  0  0  0  0  0  0  0  0
    0.7447   -2.2103    9.4486 C   0  0  0  0  0  0  0  0  0  0  0  0
   -0.2708   -3.3372    9.4510 C   0  0  0  0  0  0  0  0  0  0  0  0
    0.0582   -4.3839   10.4899 C   0  0  0  0  0  0  0  0  0  0  0  0
    0.5645   -3.8052   11.7677 C   0  0  0  0  0  0  0  0  0  0  0  0
    0.1062   -2.3473   11.8305 C   0  0  0  0  0  0  0  0  0  0  0  0
    0.9608   -1.6153   10.7874 C   0  0  0  0  0  0  0  0  0  0  0  0
    0.6448   -0.1813   10.8820 C   0  0  0  0  0  0  0  0  0  0  0  0
    1.0752    0.4966   12.0014 C   0  0  0  0  0  0  0  0  0  0  0  0
    0.8105    1.8538   12.1558 C   0  0  0  0  0  0  0  0  0  0  0  0
    0.1146    2.5481   11.1971 C   0  0  0  0  0  0  0  0  0  0  0  0
   -0.3123    1.8650   10.0817 C   0  0  0  0  0  0  0  0  0  0  0  0
   -0.0538    0.5302    9.9261 C   0  0  0  0  0  0  0  0  0  0  0  0
   -0.4709   -0.1966    8.8082 O   0  0  0  0  0  0  0  0  0  0  0  0
   -0.2155    3.9946   11.2806 C   0  0  0  0  0  0  0  0  0  0  0  0
   -1.6729    4.2998   11.2111 C   0  0  0  0  0  0  0  0  0  0  0  0
    0.4536    4.6541   10.0748 C   0  0  0  0  0  0  0  0  0  0  0  0
    0.3816    4.5003   12.5685 C   0  0  0  0  0  0  0  0  0  0  0  0
    1.7098    5.1622   12.2445 C   0  0  0  0  0  0  0  0  0  0  0  0
    2.7038    4.9743   13.3486 C   0  0  0  0  0  0  0  0  0  0  0  0
    2.6070    6.1128   14.3174 C   0  0  0  0  0  0  0  0  0  0  0  0
    2.4328    5.6907   15.7531 C   0  0  0  0  0  0  0  0  0  0  0  0
    1.4610    6.6931   16.3698 C   0  0  0  0  0  0  0  0  0  0  0  0
    1.1602    6.3495   17.7385 N   0  0  0  0  0  0  0  0  0  0  0  0
    0.3210    7.0489   18.4033 C   0  0  0  0  0  0  0  0  0  0  0  0
   -0.4399    8.2830   19.0997 S   0  0  0  0  0  0  0  0  0  0  0  0
    1.7834   -0.1083   13.0256 O   0  0  0  0  0  0  0  0  0  0  0  0
    0.1035   -4.5675   12.9888 C   0  0  0  0  0  0  0  0  0  0  0  0
    0.9404   -4.2731   14.0510 O   0  0  0  0  0  0  0  0  0  0  0  0
   -0.3587   -1.9271    7.2209 C   0  0  0  0  0  0  0  0  0  0  0  0
  1  2  1  0
  2  3  1  0
  3  4  1  0
  4  5  1  0
  5  6  1  0
  6  7  1  0
  7  8  1  0
  8  9  1  0
  9 10  2  0
 10 11  1  0
 11 12  2  0
 12 13  1  0
 13 14  2  0
 14 15  1  0
 12 16  1  0
 16 17  1  0
 16 18  1  0
 16 19  1  0
 19 20  1  0
 20 21  1  0
 21 22  1  0
 22 23  1  0
 23 24  1  0
 24 25  1  0
 25 26  2  0
 26 27  2  0
 10 28  1  0
  6 29  1  0
 29 30  1  0
  2 31  1  0
 15  2  1  0
  8  3  1  0
 14  9  1  0
M  END
$$$$
