
     RDKit          3D

 31 33  0  0  0  0  0  0  0  0999 V2000
   -3.2918    3.9492   12.3772 C   0  0  0  0  0  0  0  0  0  0  0  0
   -1.9105    4.5423   12.0914 C   0  0  0  0  0  0  0  0  0  0  0  0
   -1.1601    4.6985   13.3668 C   0  0  0  0  0  0  0  0  0  0  0  0
   -0.2839    5.9313   13.2501 C   0  0  0  0  0  0  0  0  0  0  0  0
    0.4922    6.1878   14.5209 C   0  0  0  0  0  0  0  0  0  0  0  0
    1.0040    4.9410   15.1591 C   0  0  0  0  0  0  0  0  0  0  0  0
    1.0470    3.8536   14.0843 C   0  0  0  0  0  0  0  0  0  0  0  0
   -0.4215    3.4971   13.8187 C   0  0  0  0  0  0  0  0  0  0  0  0
   -0.4405    2.3707   12.8721 C   0  0  0  0  0  0  0  0  0  0  0  0
   -0.0185    1.1420   13.3306 C   0  0  0  0  0  0  0  0  0  0  0  0
   -0.0100    0.0341   12.4889 C   0  0  0  0  0  0  0  0  0  0  0  0
   -0.4216    0.1397   11.1832 C   0  0  0  0  0  0  0  0  0  0  0  0
   -0.8419    1.3696   10.7319 C   0  0  0  0  0  0  0  0  0  0  0  0
   -0.8517    2.4615   11.5566 C   0  0  0  0  0  0  0  0  0  0  0  0
   -1.2713    3.7255   11.1344 O   0  0  0  0  0  0  0  0  0  0  0  0
   -0.4424   -0.9874   10.2148 C   0  0  0  0  0  0  0  0  0  0  0  0
   -1.3070   -0.7601    9.0221 C   0  0  0  0  0  0  0  0  0  0  0  0
   -1.0059   -2.1893   10.9729 C   0  0  0  0  0  0  0  0  0  0  0  0
    0.9874   -1.2329    9.8069 C   0  0  0  0  0  0  0  0  0  0  0  0
    1.6380   -2.1025   10.8686 C   0  0  0  0  0  0  0  0  0  0  0  0
    3.1247   -2.1606   10.6996 C   0  0  0  0  0  0  0  0  0  0  0  0
    3.7960   -1.8286   11.9970 C   0  0  0  0  0  0  0  0  0  0  0  0
    3.4865   -0.4496   12.5191 C   0  0  0  0  0  0  0  0  0  0  0  0
    4.5102   -0.1780   13.6180 C   0  0  0  0  0  0  0  0  0  0  0  0
    5.8060    0.1204   13.0576 N   0  0  0  0  0  0  0  0  0  0  0  0
    6.7567    0.5107   13.8186 C   0  0  0  0  0  0  0  0  0  0  0  0
    8.0769    0.5381   14.7370 S   0  0  0  0  0  0  0  0  0  0  0  0
    0.4159    0.9277   14.6274 O   0  0  0  0  0  0  0  0  0  0  0  0
    2.3608    5.1164   15.8020 C   0  0  0  0  0  0  0  0  0  0  0  0
    2.2352    4.9778   17.1732 O   0  0  0  0  0  0  0  0  0  0  0  0
   -2.1737    5.8792   11.4075 C   0  0  0  0  0  0  0  0  0  0  0  0
  1  2  1  0
  2  3  1  0
  3  4  1  0
  4  5  1  0
  5  6  1  0
  6  7  1  0
  7  8  1  0
  8  9  1  0
  9 10  2  0
 10 11  1  0
 11 12  2  0
 12 13  1  0
 13 14  2  0
 14 15  1  0
 12 16  1  0
 16 17  1  0
 16 18  1  0
 16 19  1  0
 19 20  1  0
 20 21  1  0
 21 22  1  0
 22 23  1  0
 23 24  1  0
 24 25  1  0
 25 26  2  0
 26 27  2  0
 10 28  1  0
  6 29  1  0
 29 30  1  0
  2 31  1  0
 15  2  1  0
  8  3  1  0
 14  9  1  0
M  END
$$$$
