
     RDKit          3D

 31 33  0  0  0  0  0  0  0  0999 V2000
    3.3448   -2.7595    8.3988 C   0  0  0  0  0  0  0  0  0  0  0  0
    2.3449   -2.0038    7.5210 C   0  0  0  0  0  0  0  0  0  0  0  0
    1.2213   -2.9071    7.1521 C   0  0  0  0  0  0  0  0  0  0  0  0
    0.7531   -2.5319    5.7589 C   0  0  0  0  0  0  0  0  0  0  0  0
   -0.3695   -3.4264    5.2868 C   0  0  0  0  0  0  0  0  0  0  0  0
   -1.3487   -3.7580    6.3615 C   0  0  0  0  0  0  0  0  0  0  0  0
   -1.2209   -2.6918    7.4507 C   0  0  0  0  0  0  0  0  0  0  0  0
    0.1194   -2.9830    8.1385 C   0  0  0  0  0  0  0  0  0  0  0  0
    0.2455   -2.0568    9.2749 C   0  0  0  0  0  0  0  0  0  0  0  0
   -0.5808   -2.2572   10.3589 C   0  0  0  0  0  0  0  0  0  0  0  0
   -0.5151   -1.4185   11.4671 C   0  0  0  0  0  0  0  0  0  0  0  0
    0.3740   -0.3728   11.5059 C   0  0  0  0  0  0  0  0  0  0  0  0
    1.1963   -0.1784   10.4201 C   0  0  0  0  0  0  0  0  0  0  0  0
    1.1347   -1.0011    9.3283 C   0  0  0  0  0  0  0  0  0  0  0  0
    1.9528   -0.8352    8.2080 O   0  0  0  0  0  0  0  0  0  0  0  0
    0.5098    0.5730   12.6442 C   0  0  0  0  0  0  0  0  0  0  0  0
    0.6978   -0.0809   13.9704 C   0  0  0  0  0  0  0  0  0  0  0  0
   -0.7974    1.3634   12.6988 C   0  0  0  0  0  0  0  0  0  0  0  0
    1.6703    1.4773   12.3183 C   0  0  0  0  0  0  0  0  0  0  0  0
    1.1382    2.8922   12.1695 C   0  0  0  0  0  0  0  0  0  0  0  0
    0.9588    3.5570   13.4992 C   0  0  0  0  0  0  0  0  0  0  0  0
    0.0856    4.7649   13.3486 C   0  0  0  0  0  0  0  0  0  0  0  0
    0.7732    6.0687   13.6603 C   0  0  0  0  0  0  0  0  0  0  0  0
   -0.1068    6.7707   14.6910 C   0  0  0  0  0  0  0  0  0  0  0  0
    0.6518    7.7357   15.4495 N   0  0  0  0  0  0  0  0  0  0  0  0
    0.0604    8.4917   16.2946 C   0  0  0  0  0  0  0  0  0  0  0  0
   -0.8358    9.6540   16.9526 S   0  0  0  0  0  0  0  0  0  0  0  0
   -1.5111   -3.2805   10.4211 O   0  0  0  0  0  0  0  0  0  0  0  0
   -2.7722   -3.8483    5.8610 C   0  0  0  0  0  0  0  0  0  0  0  0
   -2.8143   -4.6850    4.7594 O   0  0  0  0  0  0  0  0  0  0  0  0
    3.1382   -1.5406    6.3043 C   0  0  0  0  0  0  0  0  0  0  0  0
  1  2  1  0
  2  3  1  0
  3  4  1  0
  4  5  1  0
  5  6  1  0
  6  7  1  0
  7  8  1  0
  8  9  1  0
  9 10  2  0
 10 11  1  0
 11 12  2  0
 12 13  1  0
 13 14  2  0
 14 15  1  0
 12 16  1  0
 16 17  1  0
 16 18  1  0
 16 19  1  0
 19 20  1  0
 20 21  1  0
 21 22  1  0
 22 23  1  0
 23 24  1  0
 24 25  1  0
 25 26  2  0
 26 27  2  0
 10 28  1  0
  6 29  1  0
 29 30  1  0
  2 31  1  0
 15  2  1  0
  8  3  1  0
 14  9  1  0
M  END
$$$$
