
     RDKit          3D

 31 33  0  0  0  0  0  0  0  0999 V2000
    2.3189   -1.1565    7.4510 C   0  0  0  0  0  0  0  0  0  0  0  0
    0.9063   -1.2917    8.0235 C   0  0  0  0  0  0  0  0  0  0  0  0
    0.9610   -2.0128    9.3240 C   0  0  0  0  0  0  0  0  0  0  0  0
   -0.3036   -2.8397    9.4578 C   0  0  0  0  0  0  0  0  0  0  0  0
   -0.3167   -3.6373   10.7411 C   0  0  0  0  0  0  0  0  0  0  0  0
    0.2355   -2.8869   11.9055 C   0  0  0  0  0  0  0  0  0  0  0  0
    0.1563   -1.3954   11.5759 C   0  0  0  0  0  0  0  0  0  0  0  0
    1.2332   -1.1653   10.5075 C   0  0  0  0  0  0  0  0  0  0  0  0
    1.2833    0.2793   10.2318 C   0  0  0  0  0  0  0  0  0  0  0  0
    1.7975    1.1005   11.2111 C   0  0  0  0  0  0  0  0  0  0  0  0
    1.8738    2.4761   11.0171 C   0  0  0  0  0  0  0  0  0  0  0  0
    1.4387    3.0464    9.8462 C   0  0  0  0  0  0  0  0  0  0  0  0
    0.9264    2.2206    8.8724 C   0  0  0  0  0  0  0  0  0  0  0  0
    0.8497    0.8671    9.0594 C   0  0  0  0  0  0  0  0  0  0  0  0
    0.3360   -0.0028    8.0944 O   0  0  0  0  0  0  0  0  0  0  0  0
    1.4790    4.5032    9.5552 C   0  0  0  0  0  0  0  0  0  0  0  0
    0.2825    5.0213    8.8329 C   0  0  0  0  0  0  0  0  0  0  0  0
    2.6947    4.7238    8.6551 C   0  0  0  0  0  0  0  0  0  0  0  0
    1.6568    5.2032   10.8778 C   0  0  0  0  0  0  0  0  0  0  0  0
    0.3044    5.2598   11.5669 C   0  0  0  0  0  0  0  0  0  0  0  0
    0.3682    4.7004   12.9545 C   0  0  0  0  0  0  0  0  0  0  0  0
   -0.8362    3.8480   13.2135 C   0  0  0  0  0  0  0  0  0  0  0  0
   -0.5381    2.5572   13.9310 C   0  0  0  0  0  0  0  0  0  0  0  0
   -1.7269    1.6404   13.6556 C   0  0  0  0  0  0  0  0  0  0  0  0
   -1.6215    0.4138   14.4083 N   0  0  0  0  0  0  0  0  0  0  0  0
   -2.2810   -0.6189   14.0425 C   0  0  0  0  0  0  0  0  0  0  0  0
   -2.8131   -2.1297   13.8964 S   0  0  0  0  0  0  0  0  0  0  0  0
    2.2628    0.6279   12.4263 O   0  0  0  0  0  0  0  0  0  0  0  0
   -0.4804   -3.1906   13.2016 C   0  0  0  0  0  0  0  0  0  0  0  0
    0.0846   -2.4418   14.2191 O   0  0  0  0  0  0  0  0  0  0  0  0
    0.1107   -2.0558    6.9712 C   0  0  0  0  0  0  0  0  0  0  0  0
  1  2  1  0
  2  3  1  0
  3  4  1  0
  4  5  1  0
  5  6  1  0
  6  7  1  0
  7  8  1  0
  8  9  1  0
  9 10  2  0
 10 11  1  0
 11 12  2  0
 12 13  1  0
 13 14  2  0
 14 15  1  0
 12 16  1  0
 16 17  1  0
 16 18  1  0
 16 19  1  0
 19 20  1  0
 20 21  1  0
 21 22  1  0
 22 23  1  0
 23 24  1  0
 24 25  1  0
 25 26  2  0
 26 27  2  0
 10 28  1  0
  6 29  1  0
 29 30  1  0
  2 31  1  0
 15  2  1  0
  8  3  1  0
 14  9  1  0
M  END
$$$$
