
     RDKit          3D

 31 33  0  0  0  0  0  0  0  0999 V2000
   -2.8550    4.2531   14.7238 C   0  0  0  0  0  0  0  0  0  0  0  0
   -1.8100    4.9499   13.8498 C   0  0  0  0  0  0  0  0  0  0  0  0
   -0.5649    5.1656   14.6357 C   0  0  0  0  0  0  0  0  0  0  0  0
    0.0691    6.4618   14.1677 C   0  0  0  0  0  0  0  0  0  0  0  0
    1.3278    6.7795   14.9410 C   0  0  0  0  0  0  0  0  0  0  0  0
    2.1622    5.5769   15.2258 C   0  0  0  0  0  0  0  0  0  0  0  0
    1.7748    4.4940   14.2175 C   0  0  0  0  0  0  0  0  0  0  0  0
    0.3798    4.0253   14.6518 C   0  0  0  0  0  0  0  0  0  0  0  0
   -0.0000    2.8990   13.7845 C   0  0  0  0  0  0  0  0  0  0  0  0
    0.6704    1.7072   13.9525 C   0  0  0  0  0  0  0  0  0  0  0  0
    0.3623    0.6017   13.1659 C   0  0  0  0  0  0  0  0  0  0  0  0
   -0.6158    0.6729   12.2048 C   0  0  0  0  0  0  0  0  0  0  0  0
   -1.2814    1.8660   12.0424 C   0  0  0  0  0  0  0  0  0  0  0  0
   -0.9814    2.9556   12.8141 C   0  0  0  0  0  0  0  0  0  0  0  0
   -1.6351    4.1828   12.6782 O   0  0  0  0  0  0  0  0  0  0  0  0
   -1.0073   -0.4543   11.3190 C   0  0  0  0  0  0  0  0  0  0  0  0
   -2.1405   -0.1513   10.3993 C   0  0  0  0  0  0  0  0  0  0  0  0
   -1.4518   -1.5875   12.2436 C   0  0  0  0  0  0  0  0  0  0  0  0
    0.2261   -0.8449   10.5463 C   0  0  0  0  0  0  0  0  0  0  0  0
    0.0061   -2.2368    9.9794 C   0  0  0  0  0  0  0  0  0  0  0  0
    0.4610   -2.3311    8.5558 C   0  0  0  0  0  0  0  0  0  0  0  0
    1.9344   -2.5982    8.5108 C   0  0  0  0  0  0  0  0  0  0  0  0
    2.6885   -1.7440    7.5252 C   0  0  0  0  0  0  0  0  0  0  0  0
    3.0271   -2.6585    6.3511 C   0  0  0  0  0  0  0  0  0  0  0  0
    3.1990   -1.9001    5.1356 N   0  0  0  0  0  0  0  0  0  0  0  0
    3.4976   -2.4988    4.0458 C   0  0  0  0  0  0  0  0  0  0  0  0
    3.8137   -2.8075    2.4992 S   0  0  0  0  0  0  0  0  0  0  0  0
    1.6720    1.5293   14.8914 O   0  0  0  0  0  0  0  0  0  0  0  0
    3.6465    5.8572   15.1710 C   0  0  0  0  0  0  0  0  0  0  0  0
    4.3225    4.8623   15.8556 O   0  0  0  0  0  0  0  0  0  0  0  0
   -2.4525    6.2613   13.4122 C   0  0  0  0  0  0  0  0  0  0  0  0
  1  2  1  0
  2  3  1  0
  3  4  1  0
  4  5  1  0
  5  6  1  0
  6  7  1  0
  7  8  1  0
  8  9  1  0
  9 10  2  0
 10 11  1  0
 11 12  2  0
 12 13  1  0
 13 14  2  0
 14 15  1  0
 12 16  1  0
 16 17  1  0
 16 18  1  0
 16 19  1  0
 19 20  1  0
 20 21  1  0
 21 22  1  0
 22 23  1  0
 23 24  1  0
 24 25  1  0
 25 26  2  0
 26 27  2  0
 10 28  1  0
  6 29  1  0
 29 30  1  0
  2 31  1  0
 15  2  1  0
  8  3  1  0
 14  9  1  0
M  END
$$$$
