
     RDKit          3D

 31 33  0  0  0  0  0  0  0  0999 V2000
    1.9941    0.6688    8.2742 C   0  0  0  0  0  0  0  0  0  0  0  0
    0.8320   -0.2905    8.5397 C   0  0  0  0  0  0  0  0  0  0  0  0
    1.2762   -1.3704    9.4622 C   0  0  0  0  0  0  0  0  0  0  0  0
    0.5418   -2.6432    9.0860 C   0  0  0  0  0  0  0  0  0  0  0  0
    0.9602   -3.8073    9.9538 C   0  0  0  0  0  0  0  0  0  0  0  0
    1.1624   -3.4325   11.3829 C   0  0  0  0  0  0  0  0  0  0  0  0
    0.3901   -2.1368   11.6364 C   0  0  0  0  0  0  0  0  0  0  0  0
    1.1864   -1.0483   10.9048 C   0  0  0  0  0  0  0  0  0  0  0  0
    0.5531    0.2447   11.2085 C   0  0  0  0  0  0  0  0  0  0  0  0
    0.6798    0.7344   12.4899 C   0  0  0  0  0  0  0  0  0  0  0  0
    0.1055    1.9507   12.8459 C   0  0  0  0  0  0  0  0  0  0  0  0
   -0.6004    2.6902   11.9292 C   0  0  0  0  0  0  0  0  0  0  0  0
   -0.7230    2.1954   10.6513 C   0  0  0  0  0  0  0  0  0  0  0  0
   -0.1596    0.9996   10.2973 C   0  0  0  0  0  0  0  0  0  0  0  0
   -0.2628    0.4654    9.0105 O   0  0  0  0  0  0  0  0  0  0  0  0
   -1.2488    3.9949   12.2221 C   0  0  0  0  0  0  0  0  0  0  0  0
   -2.7150    4.0287   11.9558 C   0  0  0  0  0  0  0  0  0  0  0  0
   -0.5866    5.0162   11.2974 C   0  0  0  0  0  0  0  0  0  0  0  0
   -0.9546    4.3089   13.6663 C   0  0  0  0  0  0  0  0  0  0  0  0
   -1.7700    5.5287   14.0592 C   0  0  0  0  0  0  0  0  0  0  0  0
   -2.2550    5.4363   15.4730 C   0  0  0  0  0  0  0  0  0  0  0  0
   -1.4573    6.3578   16.3440 C   0  0  0  0  0  0  0  0  0  0  0  0
   -0.3105    5.6939   17.0608 C   0  0  0  0  0  0  0  0  0  0  0  0
    0.8496    6.6841   17.0028 C   0  0  0  0  0  0  0  0  0  0  0  0
    1.9473    6.1526   16.2317 N   0  0  0  0  0  0  0  0  0  0  0  0
    2.5284    5.0764   16.6051 C   0  0  0  0  0  0  0  0  0  0  0  0
    3.2317    3.9420   17.5026 S   0  0  0  0  0  0  0  0  0  0  0  0
    1.3696    0.0687   13.4886 O   0  0  0  0  0  0  0  0  0  0  0  0
    0.7312   -4.5136   12.3473 C   0  0  0  0  0  0  0  0  0  0  0  0
    1.8416   -5.2388   12.7430 O   0  0  0  0  0  0  0  0  0  0  0  0
    0.4258   -0.8284    7.1723 C   0  0  0  0  0  0  0  0  0  0  0  0
  1  2  1  0
  2  3  1  0
  3  4  1  0
  4  5  1  0
  5  6  1  0
  6  7  1  0
  7  8  1  0
  8  9  1  0
  9 10  2  0
 10 11  1  0
 11 12  2  0
 12 13  1  0
 13 14  2  0
 14 15  1  0
 12 16  1  0
 16 17  1  0
 16 18  1  0
 16 19  1  0
 19 20  1  0
 20 21  1  0
 21 22  1  0
 22 23  1  0
 23 24  1  0
 24 25  1  0
 25 26  2  0
 26 27  2  0
 10 28  1  0
  6 29  1  0
 29 30  1  0
  2 31  1  0
 15  2  1  0
  8  3  1  0
 14  9  1  0
M  END
$$$$
