
     RDKit          3D

 31 33  0  0  0  0  0  0  0  0999 V2000
   -0.6665    3.7390   13.4886 C   0  0  0  0  0  0  0  0  0  0  0  0
    0.7423    4.0788   12.9976 C   0  0  0  0  0  0  0  0  0  0  0  0
    1.7044    3.9739   14.1279 C   0  0  0  0  0  0  0  0  0  0  0  0
    2.7835    5.0210   13.9270 C   0  0  0  0  0  0  0  0  0  0  0  0
    3.7901    5.0096   15.0539 C   0  0  0  0  0  0  0  0  0  0  0  0
    4.1323    3.6359   15.5227 C   0  0  0  0  0  0  0  0  0  0  0  0
    3.7784    2.6606   14.3990 C   0  0  0  0  0  0  0  0  0  0  0  0
    2.2449    2.6177   14.3763 C   0  0  0  0  0  0  0  0  0  0  0  0
    1.8437    1.6047   13.3873 C   0  0  0  0  0  0  0  0  0  0  0  0
    2.0741    0.2820   13.6962 C   0  0  0  0  0  0  0  0  0  0  0  0
    1.7202   -0.7275   12.8066 C   0  0  0  0  0  0  0  0  0  0  0  0
    1.1339   -0.4291   11.6013 C   0  0  0  0  0  0  0  0  0  0  0  0
    0.9067    0.8938   11.2991 C   0  0  0  0  0  0  0  0  0  0  0  0
    1.2532    1.8895   12.1715 C   0  0  0  0  0  0  0  0  0  0  0  0
    1.0384    3.2430   11.8997 O   0  0  0  0  0  0  0  0  0  0  0  0
    0.7275   -1.4405   10.5912 C   0  0  0  0  0  0  0  0  0  0  0  0
    0.3519   -2.7655   11.1614 C   0  0  0  0  0  0  0  0  0  0  0  0
    1.9429   -1.6526    9.6886 C   0  0  0  0  0  0  0  0  0  0  0  0
   -0.4179   -0.8414    9.8165 C   0  0  0  0  0  0  0  0  0  0  0  0
   -1.4409   -0.3233   10.8125 C   0  0  0  0  0  0  0  0  0  0  0  0
   -2.6197    0.2916   10.1235 C   0  0  0  0  0  0  0  0  0  0  0  0
   -3.2213    1.3506   10.9957 C   0  0  0  0  0  0  0  0  0  0  0  0
   -3.6198    2.6044   10.2615 C   0  0  0  0  0  0  0  0  0  0  0  0
   -3.4214    3.7501   11.2503 C   0  0  0  0  0  0  0  0  0  0  0  0
   -3.2108    4.9999   10.5608 N   0  0  0  0  0  0  0  0  0  0  0  0
   -3.0201    6.0738   11.2284 C   0  0  0  0  0  0  0  0  0  0  0  0
   -3.2580    7.4561   12.0157 S   0  0  0  0  0  0  0  0  0  0  0  0
    2.6587   -0.1262   14.8828 O   0  0  0  0  0  0  0  0  0  0  0  0
    5.5818    3.4897   15.9258 C   0  0  0  0  0  0  0  0  0  0  0  0
    5.8698    4.4028   16.9252 O   0  0  0  0  0  0  0  0  0  0  0  0
    0.6512    5.4968   12.4451 C   0  0  0  0  0  0  0  0  0  0  0  0
  1  2  1  0
  2  3  1  0
  3  4  1  0
  4  5  1  0
  5  6  1  0
  6  7  1  0
  7  8  1  0
  8  9  1  0
  9 10  2  0
 10 11  1  0
 11 12  2  0
 12 13  1  0
 13 14  2  0
 14 15  1  0
 12 16  1  0
 16 17  1  0
 16 18  1  0
 16 19  1  0
 19 20  1  0
 20 21  1  0
 21 22  1  0
 22 23  1  0
 23 24  1  0
 24 25  1  0
 25 26  2  0
 26 27  2  0
 10 28  1  0
  6 29  1  0
 29 30  1  0
  2 31  1  0
 15  2  1  0
  8  3  1  0
 14  9  1  0
M  END
$$$$
