
     RDKit          3D

 31 33  0  0  0  0  0  0  0  0999 V2000
    2.1375   -1.6257    7.5811 C   0  0  0  0  0  0  0  0  0  0  0  0
    0.6142   -1.6377    7.4369 C   0  0  0  0  0  0  0  0  0  0  0  0
    0.0825   -2.9612    7.8613 C   0  0  0  0  0  0  0  0  0  0  0  0
   -1.1304   -3.2777    7.0072 C   0  0  0  0  0  0  0  0  0  0  0  0
   -1.7172   -4.6278    7.3480 C   0  0  0  0  0  0  0  0  0  0  0  0
   -1.7122   -4.9188    8.8106 C   0  0  0  0  0  0  0  0  0  0  0  0
   -1.6100   -3.5832    9.5490 C   0  0  0  0  0  0  0  0  0  0  0  0
   -0.1710   -3.1062    9.3132 C   0  0  0  0  0  0  0  0  0  0  0  0
    0.0232   -1.8766   10.0977 C   0  0  0  0  0  0  0  0  0  0  0  0
    0.0760   -1.9940   11.4694 C   0  0  0  0  0  0  0  0  0  0  0  0
    0.2568   -0.8721   12.2722 C   0  0  0  0  0  0  0  0  0  0  0  0
    0.3866    0.3768   11.7164 C   0  0  0  0  0  0  0  0  0  0  0  0
    0.3331    0.4870   10.3460 C   0  0  0  0  0  0  0  0  0  0  0  0
    0.1554   -0.6141    9.5531 C   0  0  0  0  0  0  0  0  0  0  0  0
    0.0959   -0.5417    8.1591 O   0  0  0  0  0  0  0  0  0  0  0  0
    0.5789    1.6275   12.4956 C   0  0  0  0  0  0  0  0  0  0  0  0
    1.8825    2.3094   12.2561 C   0  0  0  0  0  0  0  0  0  0  0  0
    0.5322    1.2224   13.9689 C   0  0  0  0  0  0  0  0  0  0  0  0
   -0.5757    2.5328   12.1515 C   0  0  0  0  0  0  0  0  0  0  0  0
   -0.4993    3.7561   13.0485 C   0  0  0  0  0  0  0  0  0  0  0  0
   -1.3036    4.8938   12.4998 C   0  0  0  0  0  0  0  0  0  0  0  0
   -0.4768    6.1430   12.4941 C   0  0  0  0  0  0  0  0  0  0  0  0
   -0.8272    7.1222   13.5842 C   0  0  0  0  0  0  0  0  0  0  0  0
    0.4944    7.5038   14.2455 C   0  0  0  0  0  0  0  0  0  0  0  0
    0.2897    8.4782   15.2898 N   0  0  0  0  0  0  0  0  0  0  0  0
    1.2777    8.8698   16.0010 C   0  0  0  0  0  0  0  0  0  0  0  0
    2.2254    9.2262   17.2508 S   0  0  0  0  0  0  0  0  0  0  0  0
   -0.0440   -3.2049   12.1294 O   0  0  0  0  0  0  0  0  0  0  0  0
   -2.9271   -5.6942    9.2661 C   0  0  0  0  0  0  0  0  0  0  0  0
   -3.2357   -6.6538    8.3178 O   0  0  0  0  0  0  0  0  0  0  0  0
    0.3411   -1.3495    5.9650 C   0  0  0  0  0  0  0  0  0  0  0  0
  1  2  1  0
  2  3  1  0
  3  4  1  0
  4  5  1  0
  5  6  1  0
  6  7  1  0
  7  8  1  0
  8  9  1  0
  9 10  2  0
 10 11  1  0
 11 12  2  0
 12 13  1  0
 13 14  2  0
 14 15  1  0
 12 16  1  0
 16 17  1  0
 16 18  1  0
 16 19  1  0
 19 20  1  0
 20 21  1  0
 21 22  1  0
 22 23  1  0
 23 24  1  0
 24 25  1  0
 25 26  2  0
 26 27  2  0
 10 28  1  0
  6 29  1  0
 29 30  1  0
  2 31  1  0
 15  2  1  0
  8  3  1  0
 14  9  1  0
M  END
$$$$
