
     RDKit          3D

 31 33  0  0  0  0  0  0  0  0999 V2000
   -1.2579    4.8679   10.1834 C   0  0  0  0  0  0  0  0  0  0  0  0
    0.2422    5.1329   10.3272 C   0  0  0  0  0  0  0  0  0  0  0  0
    0.5907    5.2642   11.7679 C   0  0  0  0  0  0  0  0  0  0  0  0
    1.7171    6.2727   11.8903 C   0  0  0  0  0  0  0  0  0  0  0  0
    2.1135    6.4959   13.3312 C   0  0  0  0  0  0  0  0  0  0  0  0
    2.1137    5.2441   14.1416 C   0  0  0  0  0  0  0  0  0  0  0  0
    2.2292    4.0651   13.1741 C   0  0  0  0  0  0  0  0  0  0  0  0
    0.8672    3.9908   12.4716 C   0  0  0  0  0  0  0  0  0  0  0  0
    0.8779    2.7998   11.6075 C   0  0  0  0  0  0  0  0  0  0  0  0
    0.8529    1.5654   12.2185 C   0  0  0  0  0  0  0  0  0  0  0  0
    0.8618    0.3977   11.4620 C   0  0  0  0  0  0  0  0  0  0  0  0
    0.8958    0.4488   10.0902 C   0  0  0  0  0  0  0  0  0  0  0  0
    0.9206    1.6848    9.4864 C   0  0  0  0  0  0  0  0  0  0  0  0
    0.9118    2.8355   10.2271 C   0  0  0  0  0  0  0  0  0  0  0  0
    0.9363    4.1076    9.6500 O   0  0  0  0  0  0  0  0  0  0  0  0
    0.9113   -0.7448    9.2049 C   0  0  0  0  0  0  0  0  0  0  0  0
    2.1924   -1.5067    9.2189 C   0  0  0  0  0  0  0  0  0  0  0  0
    0.6984   -0.2232    7.7839 C   0  0  0  0  0  0  0  0  0  0  0  0
   -0.2405   -1.6163    9.6346 C   0  0  0  0  0  0  0  0  0  0  0  0
    0.2959   -2.6709   10.5871 C   0  0  0  0  0  0  0  0  0  0  0  0
   -0.8056   -3.5057   11.1632 C   0  0  0  0  0  0  0  0  0  0  0  0
   -1.9077   -2.6198   11.6579 C   0  0  0  0  0  0  0  0  0  0  0  0
   -2.0845   -2.6286   13.1541 C   0  0  0  0  0  0  0  0  0  0  0  0
   -2.4341   -1.1947   13.5432 C   0  0  0  0  0  0  0  0  0  0  0  0
   -2.6666   -1.0845   14.9631 N   0  0  0  0  0  0  0  0  0  0  0  0
   -2.8270    0.0665   15.4968 C   0  0  0  0  0  0  0  0  0  0  0  0
   -2.9561    1.2581   16.5693 S   0  0  0  0  0  0  0  0  0  0  0  0
    0.8180    1.4029   13.5928 O   0  0  0  0  0  0  0  0  0  0  0  0
    3.2179    5.2043   15.1730 C   0  0  0  0  0  0  0  0  0  0  0  0
    2.7023    5.5667   16.4051 O   0  0  0  0  0  0  0  0  0  0  0  0
    0.5066    6.4167    9.5487 C   0  0  0  0  0  0  0  0  0  0  0  0
  1  2  1  0
  2  3  1  0
  3  4  1  0
  4  5  1  0
  5  6  1  0
  6  7  1  0
  7  8  1  0
  8  9  1  0
  9 10  2  0
 10 11  1  0
 11 12  2  0
 12 13  1  0
 13 14  2  0
 14 15  1  0
 12 16  1  0
 16 17  1  0
 16 18  1  0
 16 19  1  0
 19 20  1  0
 20 21  1  0
 21 22  1  0
 22 23  1  0
 23 24  1  0
 24 25  1  0
 25 26  2  0
 26 27  2  0
 10 28  1  0
  6 29  1  0
 29 30  1  0
  2 31  1  0
 15  2  1  0
  8  3  1  0
 14  9  1  0
M  END
$$$$
