
     RDKit          3D

 31 33  0  0  0  0  0  0  0  0999 V2000
   -1.9906    3.4127   11.0599 C   0  0  0  0  0  0  0  0  0  0  0  0
   -0.6067    4.0245   11.2878 C   0  0  0  0  0  0  0  0  0  0  0  0
   -0.5032    4.5187   12.6876 C   0  0  0  0  0  0  0  0  0  0  0  0
    0.3779    5.7535   12.6875 C   0  0  0  0  0  0  0  0  0  0  0  0
    0.5101    6.3459   14.0712 C   0  0  0  0  0  0  0  0  0  0  0  0
    0.6337    5.3159   15.1425 C   0  0  0  0  0  0  0  0  0  0  0  0
    1.1134    4.0200   14.4869 C   0  0  0  0  0  0  0  0  0  0  0  0
   -0.0919    3.5072   13.6880 C   0  0  0  0  0  0  0  0  0  0  0  0
    0.2735    2.1977   13.1249 C   0  0  0  0  0  0  0  0  0  0  0  0
    0.3983    1.1383   13.9966 C   0  0  0  0  0  0  0  0  0  0  0  0
    0.7419   -0.1274   13.5321 C   0  0  0  0  0  0  0  0  0  0  0  0
    0.9644   -0.3496   12.1954 C   0  0  0  0  0  0  0  0  0  0  0  0
    0.8380    0.7128   11.3304 C   0  0  0  0  0  0  0  0  0  0  0  0
    0.5002    1.9591   11.7833 C   0  0  0  0  0  0  0  0  0  0  0  0
    0.3628    3.0613   10.9358 O   0  0  0  0  0  0  0  0  0  0  0  0
    1.3380   -1.6647   11.6129 C   0  0  0  0  0  0  0  0  0  0  0  0
    0.8131   -2.8423   12.3609 C   0  0  0  0  0  0  0  0  0  0  0  0
    2.8645   -1.7313   11.6569 C   0  0  0  0  0  0  0  0  0  0  0  0
    0.8419   -1.6635   10.1899 C   0  0  0  0  0  0  0  0  0  0  0  0
   -0.6698   -1.8079   10.2175 C   0  0  0  0  0  0  0  0  0  0  0  0
   -1.2040   -2.2720    8.8978 C   0  0  0  0  0  0  0  0  0  0  0  0
   -1.2754   -1.1179    7.9453 C   0  0  0  0  0  0  0  0  0  0  0  0
   -0.2706   -1.1776    6.8242 C   0  0  0  0  0  0  0  0  0  0  0  0
   -1.0221   -1.7320    5.6170 C   0  0  0  0  0  0  0  0  0  0  0  0
   -0.1389   -1.8998    4.4884 N   0  0  0  0  0  0  0  0  0  0  0  0
   -0.5912   -2.3662    3.3869 C   0  0  0  0  0  0  0  0  0  0  0  0
   -0.8065   -3.2712    2.0748 S   0  0  0  0  0  0  0  0  0  0  0  0
    0.1960    1.2544   15.3611 O   0  0  0  0  0  0  0  0  0  0  0  0
    1.5631    5.7300   16.2603 C   0  0  0  0  0  0  0  0  0  0  0  0
    0.9611    6.7289   17.0054 O   0  0  0  0  0  0  0  0  0  0  0  0
   -0.4843    5.1497   10.2665 C   0  0  0  0  0  0  0  0  0  0  0  0
  1  2  1  0
  2  3  1  0
  3  4  1  0
  4  5  1  0
  5  6  1  0
  6  7  1  0
  7  8  1  0
  8  9  1  0
  9 10  2  0
 10 11  1  0
 11 12  2  0
 12 13  1  0
 13 14  2  0
 14 15  1  0
 12 16  1  0
 16 17  1  0
 16 18  1  0
 16 19  1  0
 19 20  1  0
 20 21  1  0
 21 22  1  0
 22 23  1  0
 23 24  1  0
 24 25  1  0
 25 26  2  0
 26 27  2  0
 10 28  1  0
  6 29  1  0
 29 30  1  0
  2 31  1  0
 15  2  1  0
  8  3  1  0
 14  9  1  0
M  END
$$$$
