
     RDKit          3D

 31 33  0  0  0  0  0  0  0  0999 V2000
    2.4708    0.8375    9.2126 C   0  0  0  0  0  0  0  0  0  0  0  0
    1.1981    0.0293    8.9510 C   0  0  0  0  0  0  0  0  0  0  0  0
    1.2963   -1.2912    9.6298 C   0  0  0  0  0  0  0  0  0  0  0  0
    0.5696   -2.3143    8.7777 C   0  0  0  0  0  0  0  0  0  0  0  0
    0.6492   -3.6990    9.3772 C   0  0  0  0  0  0  0  0  0  0  0  0
    0.5167   -3.7051   10.8626 C   0  0  0  0  0  0  0  0  0  0  0  0
   -0.1750   -2.4039   11.2720 C   0  0  0  0  0  0  0  0  0  0  0  0
    0.8744   -1.3071   11.0492 C   0  0  0  0  0  0  0  0  0  0  0  0
    0.3036   -0.0411   11.5359 C   0  0  0  0  0  0  0  0  0  0  0  0
    0.1461    0.1091   12.8962 C   0  0  0  0  0  0  0  0  0  0  0  0
   -0.3881    1.2801   13.4247 C   0  0  0  0  0  0  0  0  0  0  0  0
   -0.7703    2.3120   12.6034 C   0  0  0  0  0  0  0  0  0  0  0  0
   -0.6103    2.1554   11.2459 C   0  0  0  0  0  0  0  0  0  0  0  0
   -0.0852    1.0052   10.7223 C   0  0  0  0  0  0  0  0  0  0  0  0
    0.0922    0.8099    9.3503 O   0  0  0  0  0  0  0  0  0  0  0  0
   -1.3520    3.5939   13.0797 C   0  0  0  0  0  0  0  0  0  0  0  0
   -1.9202    3.5396   14.4566 C   0  0  0  0  0  0  0  0  0  0  0  0
   -2.4948    3.9251   12.1200 C   0  0  0  0  0  0  0  0  0  0  0  0
   -0.2576    4.6257   12.9870 C   0  0  0  0  0  0  0  0  0  0  0  0
   -0.4827    5.6516   14.0841 C   0  0  0  0  0  0  0  0  0  0  0  0
    0.2821    6.9129   13.8257 C   0  0  0  0  0  0  0  0  0  0  0  0
    1.7225    6.5894   13.5716 C   0  0  0  0  0  0  0  0  0  0  0  0
    2.6888    7.3244   14.4639 C   0  0  0  0  0  0  0  0  0  0  0  0
    4.0331    7.2928   13.7418 C   0  0  0  0  0  0  0  0  0  0  0  0
    4.1726    6.0897   12.9575 N   0  0  0  0  0  0  0  0  0  0  0  0
    5.2398    5.8870   12.2828 C   0  0  0  0  0  0  0  0  0  0  0  0
    6.3622    5.2123   11.3489 S   0  0  0  0  0  0  0  0  0  0  0  0
    0.4988   -0.8688   13.8104 O   0  0  0  0  0  0  0  0  0  0  0  0
   -0.2391   -4.9047   11.3866 C   0  0  0  0  0  0  0  0  0  0  0  0
    0.6644   -5.8888   11.7479 O   0  0  0  0  0  0  0  0  0  0  0  0
    1.1037   -0.1048    7.4353 C   0  0  0  0  0  0  0  0  0  0  0  0
  1  2  1  0
  2  3  1  0
  3  4  1  0
  4  5  1  0
  5  6  1  0
  6  7  1  0
  7  8  1  0
  8  9  1  0
  9 10  2  0
 10 11  1  0
 11 12  2  0
 12 13  1  0
 13 14  2  0
 14 15  1  0
 12 16  1  0
 16 17  1  0
 16 18  1  0
 16 19  1  0
 19 20  1  0
 20 21  1  0
 21 22  1  0
 22 23  1  0
 23 24  1  0
 24 25  1  0
 25 26  2  0
 26 27  2  0
 10 28  1  0
  6 29  1  0
 29 30  1  0
  2 31  1  0
 15  2  1  0
  8  3  1  0
 14  9  1  0
M  END
$$$$
