
     RDKit          3D

 31 33  0  0  0  0  0  0  0  0999 V2000
   -2.7251    4.1399   13.2798 C   0  0  0  0  0  0  0  0  0  0  0  0
   -1.5783    5.0744   12.8887 C   0  0  0  0  0  0  0  0  0  0  0  0
   -0.6200    5.1906   14.0212 C   0  0  0  0  0  0  0  0  0  0  0  0
   -0.0457    6.5945   14.0104 C   0  0  0  0  0  0  0  0  0  0  0  0
    0.9166    6.8136   15.1546 C   0  0  0  0  0  0  0  0  0  0  0  0
    1.7848    5.6321   15.4271 C   0  0  0  0  0  0  0  0  0  0  0  0
    1.8103    4.7734   14.1617 C   0  0  0  0  0  0  0  0  0  0  0  0
    0.4171    4.1353   14.0845 C   0  0  0  0  0  0  0  0  0  0  0  0
    0.4179    3.2039   12.9453 C   0  0  0  0  0  0  0  0  0  0  0  0
    1.1586    2.0484   13.0638 C   0  0  0  0  0  0  0  0  0  0  0  0
    1.2043    1.1241   12.0248 C   0  0  0  0  0  0  0  0  0  0  0  0
    0.5132    1.3423   10.8585 C   0  0  0  0  0  0  0  0  0  0  0  0
   -0.2245    2.4983   10.7469 C   0  0  0  0  0  0  0  0  0  0  0  0
   -0.2721    3.4097   11.7666 C   0  0  0  0  0  0  0  0  0  0  0  0
   -1.0095    4.5938   11.6899 O   0  0  0  0  0  0  0  0  0  0  0  0
    0.5079    0.4134    9.6984 C   0  0  0  0  0  0  0  0  0  0  0  0
    1.6871   -0.4957    9.6307 C   0  0  0  0  0  0  0  0  0  0  0  0
    0.5294    1.2934    8.4487 C   0  0  0  0  0  0  0  0  0  0  0  0
   -0.7758   -0.3718    9.7795 C   0  0  0  0  0  0  0  0  0  0  0  0
   -0.5258   -1.5962   10.6429 C   0  0  0  0  0  0  0  0  0  0  0  0
   -1.2833   -1.5261   11.9327 C   0  0  0  0  0  0  0  0  0  0  0  0
   -0.6341   -2.4126   12.9509 C   0  0  0  0  0  0  0  0  0  0  0  0
   -1.0971   -3.8457   12.9090 C   0  0  0  0  0  0  0  0  0  0  0  0
    0.1696   -4.6930   12.8236 C   0  0  0  0  0  0  0  0  0  0  0  0
    0.1532   -5.5337   11.6511 N   0  0  0  0  0  0  0  0  0  0  0  0
    1.1796   -6.2365   11.3544 C   0  0  0  0  0  0  0  0  0  0  0  0
    2.1799   -7.2632   10.6248 S   0  0  0  0  0  0  0  0  0  0  0  0
    1.8908    1.7326   14.1953 O   0  0  0  0  0  0  0  0  0  0  0  0
    3.1861    6.0095   15.8499 C   0  0  0  0  0  0  0  0  0  0  0  0
    3.1173    6.9441   16.8684 O   0  0  0  0  0  0  0  0  0  0  0  0
   -2.2355    6.4071   12.5479 C   0  0  0  0  0  0  0  0  0  0  0  0
  1  2  1  0
  2  3  1  0
  3  4  1  0
  4  5  1  0
  5  6  1  0
  6  7  1  0
  7  8  1  0
  8  9  1  0
  9 10  2  0
 10 11  1  0
 11 12  2  0
 12 13  1  0
 13 14  2  0
 14 15  1  0
 12 16  1  0
 16 17  1  0
 16 18  1  0
 16 19  1  0
 19 20  1  0
 20 21  1  0
 21 22  1  0
 22 23  1  0
 23 24  1  0
 24 25  1  0
 25 26  2  0
 26 27  2  0
 10 28  1  0
  6 29  1  0
 29 30  1  0
  2 31  1  0
 15  2  1  0
  8  3  1  0
 14  9  1  0
M  END
$$$$
