
     RDKit          3D

 31 33  0  0  0  0  0  0  0  0999 V2000
    2.2596    0.1906    9.1073 C   0  0  0  0  0  0  0  0  0  0  0  0
    0.8665   -0.4090    8.9046 C   0  0  0  0  0  0  0  0  0  0  0  0
    0.7134   -1.6176    9.7591 C   0  0  0  0  0  0  0  0  0  0  0  0
   -0.1717   -2.6058    9.0235 C   0  0  0  0  0  0  0  0  0  0  0  0
   -0.3533   -3.8847    9.8074 C   0  0  0  0  0  0  0  0  0  0  0  0
   -0.5096   -3.6588   11.2731 C   0  0  0  0  0  0  0  0  0  0  0  0
   -0.9619   -2.2116   11.4738 C   0  0  0  0  0  0  0  0  0  0  0  0
    0.2719   -1.3593   11.1488 C   0  0  0  0  0  0  0  0  0  0  0  0
   -0.0693    0.0430   11.4357 C   0  0  0  0  0  0  0  0  0  0  0  0
   -0.2198    0.4081   12.7555 C   0  0  0  0  0  0  0  0  0  0  0  0
   -0.5427    1.7174   13.0982 C   0  0  0  0  0  0  0  0  0  0  0  0
   -0.7186    2.6749   12.1297 C   0  0  0  0  0  0  0  0  0  0  0  0
   -0.5666    2.3035   10.8137 C   0  0  0  0  0  0  0  0  0  0  0  0
   -0.2491    1.0168   10.4727 C   0  0  0  0  0  0  0  0  0  0  0  0
   -0.0868    0.6026    9.1483 O   0  0  0  0  0  0  0  0  0  0  0  0
   -1.0672    4.0933   12.4038 C   0  0  0  0  0  0  0  0  0  0  0  0
   -2.1939    4.2775   13.3621 C   0  0  0  0  0  0  0  0  0  0  0  0
   -1.4961    4.6923   11.0644 C   0  0  0  0  0  0  0  0  0  0  0  0
    0.1874    4.7563   12.9108 C   0  0  0  0  0  0  0  0  0  0  0  0
   -0.0959    6.2397   13.0733 C   0  0  0  0  0  0  0  0  0  0  0  0
    0.8048    6.8651   14.0932 C   0  0  0  0  0  0  0  0  0  0  0  0
    2.0913    6.1015   14.1699 C   0  0  0  0  0  0  0  0  0  0  0  0
    3.3248    6.9665   14.1812 C   0  0  0  0  0  0  0  0  0  0  0  0
    4.4875    6.0343   14.5107 C   0  0  0  0  0  0  0  0  0  0  0  0
    5.2117    6.4977   15.6695 N   0  0  0  0  0  0  0  0  0  0  0  0
    6.0905    5.7467   16.2162 C   0  0  0  0  0  0  0  0  0  0  0  0
    7.1018    4.5324   16.5161 S   0  0  0  0  0  0  0  0  0  0  0  0
   -0.0648   -0.4784   13.8073 O   0  0  0  0  0  0  0  0  0  0  0  0
   -1.4782   -4.6205   11.9225 C   0  0  0  0  0  0  0  0  0  0  0  0
   -0.9022   -5.8777   11.9775 O   0  0  0  0  0  0  0  0  0  0  0  0
    0.7750   -0.7359    7.4183 C   0  0  0  0  0  0  0  0  0  0  0  0
  1  2  1  0
  2  3  1  0
  3  4  1  0
  4  5  1  0
  5  6  1  0
  6  7  1  0
  7  8  1  0
  8  9  1  0
  9 10  2  0
 10 11  1  0
 11 12  2  0
 12 13  1  0
 13 14  2  0
 14 15  1  0
 12 16  1  0
 16 17  1  0
 16 18  1  0
 16 19  1  0
 19 20  1  0
 20 21  1  0
 21 22  1  0
 22 23  1  0
 23 24  1  0
 24 25  1  0
 25 26  2  0
 26 27  2  0
 10 28  1  0
  6 29  1  0
 29 30  1  0
  2 31  1  0
 15  2  1  0
  8  3  1  0
 14  9  1  0
M  END
$$$$
