
     RDKit          3D

 31 33  0  0  0  0  0  0  0  0999 V2000
    2.0360    4.0172   11.0950 C   0  0  0  0  0  0  0  0  0  0  0  0
    2.3793    3.9292   12.5836 C   0  0  0  0  0  0  0  0  0  0  0  0
    1.4808    4.8279   13.3577 C   0  0  0  0  0  0  0  0  0  0  0  0
    2.2634    5.3755   14.5361 C   0  0  0  0  0  0  0  0  0  0  0  0
    1.4342    6.3311   15.3622 C   0  0  0  0  0  0  0  0  0  0  0  0
    0.0167    5.8952   15.5191 C   0  0  0  0  0  0  0  0  0  0  0  0
   -0.0375    4.3895   15.2556 C   0  0  0  0  0  0  0  0  0  0  0  0
    0.1770    4.2412   13.7436 C   0  0  0  0  0  0  0  0  0  0  0  0
    0.0205    2.8164   13.4108 C   0  0  0  0  0  0  0  0  0  0  0  0
   -1.2449    2.2770   13.4849 C   0  0  0  0  0  0  0  0  0  0  0  0
   -1.4646    0.9363   13.1844 C   0  0  0  0  0  0  0  0  0  0  0  0
   -0.4261    0.1208   12.8075 C   0  0  0  0  0  0  0  0  0  0  0  0
    0.8350    0.6660   12.7355 C   0  0  0  0  0  0  0  0  0  0  0  0
    1.0551    1.9841   13.0302 C   0  0  0  0  0  0  0  0  0  0  0  0
    2.3206    2.5727   12.9685 O   0  0  0  0  0  0  0  0  0  0  0  0
   -0.5680   -1.3201   12.4727 C   0  0  0  0  0  0  0  0  0  0  0  0
   -1.8431   -1.9383   12.9353 C   0  0  0  0  0  0  0  0  0  0  0  0
    0.5791   -2.0372   13.1845 C   0  0  0  0  0  0  0  0  0  0  0  0
   -0.4247   -1.4322   10.9768 C   0  0  0  0  0  0  0  0  0  0  0  0
    1.0115   -1.8183   10.6684 C   0  0  0  0  0  0  0  0  0  0  0  0
    1.1085   -2.6229    9.4092 C   0  0  0  0  0  0  0  0  0  0  0  0
    2.1020   -1.9943    8.4809 C   0  0  0  0  0  0  0  0  0  0  0  0
    1.4862   -1.1594    7.3883 C   0  0  0  0  0  0  0  0  0  0  0  0
    2.4529   -1.2328    6.2094 C   0  0  0  0  0  0  0  0  0  0  0  0
    1.9756   -0.4469    5.0974 N   0  0  0  0  0  0  0  0  0  0  0  0
    2.7168   -0.2787    4.0690 C   0  0  0  0  0  0  0  0  0  0  0  0
    3.4870   -0.5097    2.6760 S   0  0  0  0  0  0  0  0  0  0  0  0
   -2.3590    3.0111   13.8540 O   0  0  0  0  0  0  0  0  0  0  0  0
   -0.5595    6.2253   16.8769 C   0  0  0  0  0  0  0  0  0  0  0  0
   -1.9412    6.1967   16.8034 O   0  0  0  0  0  0  0  0  0  0  0  0
    3.8429    4.3425   12.6902 C   0  0  0  0  0  0  0  0  0  0  0  0
  1  2  1  0
  2  3  1  0
  3  4  1  0
  4  5  1  0
  5  6  1  0
  6  7  1  0
  7  8  1  0
  8  9  1  0
  9 10  2  0
 10 11  1  0
 11 12  2  0
 12 13  1  0
 13 14  2  0
 14 15  1  0
 12 16  1  0
 16 17  1  0
 16 18  1  0
 16 19  1  0
 19 20  1  0
 20 21  1  0
 21 22  1  0
 22 23  1  0
 23 24  1  0
 24 25  1  0
 25 26  2  0
 26 27  2  0
 10 28  1  0
  6 29  1  0
 29 30  1  0
  2 31  1  0
 15  2  1  0
  8  3  1  0
 14  9  1  0
M  END
$$$$
