
     RDKit          3D

 31 33  0  0  0  0  0  0  0  0999 V2000
    2.7816   -3.7838   10.2021 C   0  0  0  0  0  0  0  0  0  0  0  0
    2.6802   -2.6020    9.2354 C   0  0  0  0  0  0  0  0  0  0  0  0
    1.6899   -2.9123    8.1689 C   0  0  0  0  0  0  0  0  0  0  0  0
    2.1562   -2.2509    6.8859 C   0  0  0  0  0  0  0  0  0  0  0  0
    1.2228   -2.5443    5.7345 C   0  0  0  0  0  0  0  0  0  0  0  0
   -0.2162   -2.5296    6.1257 C   0  0  0  0  0  0  0  0  0  0  0  0
   -0.3376   -1.7190    7.4171 C   0  0  0  0  0  0  0  0  0  0  0  0
    0.2803   -2.6071    8.5050 C   0  0  0  0  0  0  0  0  0  0  0  0
    0.0886   -1.9265    9.7955 C   0  0  0  0  0  0  0  0  0  0  0  0
   -1.1918   -1.8583   10.2993 C   0  0  0  0  0  0  0  0  0  0  0  0
   -1.4448   -1.2288   11.5140 C   0  0  0  0  0  0  0  0  0  0  0  0
   -0.4252   -0.6615   12.2379 C   0  0  0  0  0  0  0  0  0  0  0  0
    0.8511   -0.7332   11.7290 C   0  0  0  0  0  0  0  0  0  0  0  0
    1.1040   -1.3516   10.5347 C   0  0  0  0  0  0  0  0  0  0  0  0
    2.3856   -1.4441    9.9864 O   0  0  0  0  0  0  0  0  0  0  0  0
   -0.6039    0.0326   13.5398 C   0  0  0  0  0  0  0  0  0  0  0  0
    0.6679    0.3484   14.2502 C   0  0  0  0  0  0  0  0  0  0  0  0
   -1.4037   -0.9231   14.4251 C   0  0  0  0  0  0  0  0  0  0  0  0
   -1.3903    1.2864   13.2566 C   0  0  0  0  0  0  0  0  0  0  0  0
   -0.4355    2.3249   12.6938 C   0  0  0  0  0  0  0  0  0  0  0  0
   -1.0988    3.6586   12.5398 C   0  0  0  0  0  0  0  0  0  0  0  0
   -0.1063    4.7512   12.7954 C   0  0  0  0  0  0  0  0  0  0  0  0
    0.7829    4.5131   13.9882 C   0  0  0  0  0  0  0  0  0  0  0  0
    1.8351    5.6181   13.9537 C   0  0  0  0  0  0  0  0  0  0  0  0
    2.6840    5.4902   12.7939 N   0  0  0  0  0  0  0  0  0  0  0  0
    3.7850    6.1378   12.7333 C   0  0  0  0  0  0  0  0  0  0  0  0
    5.0903    6.9010   12.1850 S   0  0  0  0  0  0  0  0  0  0  0  0
   -2.2892   -2.3971    9.6499 O   0  0  0  0  0  0  0  0  0  0  0  0
   -1.1183   -1.9679    5.0508 C   0  0  0  0  0  0  0  0  0  0  0  0
   -1.0982   -2.8118    3.9540 O   0  0  0  0  0  0  0  0  0  0  0  0
    4.0865   -2.4070    8.6800 C   0  0  0  0  0  0  0  0  0  0  0  0
  1  2  1  0
  2  3  1  0
  3  4  1  0
  4  5  1  0
  5  6  1  0
  6  7  1  0
  7  8  1  0
  8  9  1  0
  9 10  2  0
 10 11  1  0
 11 12  2  0
 12 13  1  0
 13 14  2  0
 14 15  1  0
 12 16  1  0
 16 17  1  0
 16 18  1  0
 16 19  1  0
 19 20  1  0
 20 21  1  0
 21 22  1  0
 22 23  1  0
 23 24  1  0
 24 25  1  0
 25 26  2  0
 26 27  2  0
 10 28  1  0
  6 29  1  0
 29 30  1  0
  2 31  1  0
 15  2  1  0
  8  3  1  0
 14  9  1  0
M  END
$$$$
