
     RDKit          3D

 31 33  0  0  0  0  0  0  0  0999 V2000
   -2.2797    3.9640   15.8490 C   0  0  0  0  0  0  0  0  0  0  0  0
   -1.6533    4.9218   14.8333 C   0  0  0  0  0  0  0  0  0  0  0  0
   -0.2900    5.3093   15.2867 C   0  0  0  0  0  0  0  0  0  0  0  0
   -0.0358    6.7387   14.8472 C   0  0  0  0  0  0  0  0  0  0  0  0
    1.3201    7.2296   15.2987 C   0  0  0  0  0  0  0  0  0  0  0  0
    2.3867    6.1930   15.1906 C   0  0  0  0  0  0  0  0  0  0  0  0
    1.9134    5.1438   14.1833 C   0  0  0  0  0  0  0  0  0  0  0  0
    0.7947    4.3776   14.9013 C   0  0  0  0  0  0  0  0  0  0  0  0
    0.3756    3.2756   14.0209 C   0  0  0  0  0  0  0  0  0  0  0  0
    1.2523    2.2274   13.8457 C   0  0  0  0  0  0  0  0  0  0  0  0
    0.9206    1.1530   13.0263 C   0  0  0  0  0  0  0  0  0  0  0  0
   -0.2871    1.1126   12.3740 C   0  0  0  0  0  0  0  0  0  0  0  0
   -1.1579    2.1625   12.5535 C   0  0  0  0  0  0  0  0  0  0  0  0
   -0.8353    3.2211   13.3585 C   0  0  0  0  0  0  0  0  0  0  0  0
   -1.6929    4.3044   13.5649 O   0  0  0  0  0  0  0  0  0  0  0  0
   -0.7222    0.0090   11.4789 C   0  0  0  0  0  0  0  0  0  0  0  0
   -1.7712    0.3926   10.4918 C   0  0  0  0  0  0  0  0  0  0  0  0
   -1.3137   -1.0681   12.3880 C   0  0  0  0  0  0  0  0  0  0  0  0
    0.5153   -0.4964   10.7832 C   0  0  0  0  0  0  0  0  0  0  0  0
    0.3689   -1.9959   10.5909 C   0  0  0  0  0  0  0  0  0  0  0  0
    0.3401   -2.3660    9.1402 C   0  0  0  0  0  0  0  0  0  0  0  0
    1.6022   -3.0858    8.7753 C   0  0  0  0  0  0  0  0  0  0  0  0
    2.5692   -3.2577    9.9177 C   0  0  0  0  0  0  0  0  0  0  0  0
    3.9333   -2.8343    9.3796 C   0  0  0  0  0  0  0  0  0  0  0  0
    4.2719   -1.5011    9.8153 N   0  0  0  0  0  0  0  0  0  0  0  0
    5.3451   -0.9455    9.3973 C   0  0  0  0  0  0  0  0  0  0  0  0
    6.8799   -0.4892    9.2443 S   0  0  0  0  0  0  0  0  0  0  0  0
    2.4934    2.1700   14.4563 O   0  0  0  0  0  0  0  0  0  0  0  0
    3.7280    6.7607   14.7866 C   0  0  0  0  0  0  0  0  0  0  0  0
    4.7339    5.9809   15.3303 O   0  0  0  0  0  0  0  0  0  0  0  0
   -2.5994    6.1149   14.7596 C   0  0  0  0  0  0  0  0  0  0  0  0
  1  2  1  0
  2  3  1  0
  3  4  1  0
  4  5  1  0
  5  6  1  0
  6  7  1  0
  7  8  1  0
  8  9  1  0
  9 10  2  0
 10 11  1  0
 11 12  2  0
 12 13  1  0
 13 14  2  0
 14 15  1  0
 12 16  1  0
 16 17  1  0
 16 18  1  0
 16 19  1  0
 19 20  1  0
 20 21  1  0
 21 22  1  0
 22 23  1  0
 23 24  1  0
 24 25  1  0
 25 26  2  0
 26 27  2  0
 10 28  1  0
  6 29  1  0
 29 30  1  0
  2 31  1  0
 15  2  1  0
  8  3  1  0
 14  9  1  0
M  END
$$$$
