
     RDKit          3D

 31 33  0  0  0  0  0  0  0  0999 V2000
    3.5511   -1.9858    8.8279 C   0  0  0  0  0  0  0  0  0  0  0  0
    2.5847   -1.3727    7.8124 C   0  0  0  0  0  0  0  0  0  0  0  0
    1.6282   -2.4113    7.3425 C   0  0  0  0  0  0  0  0  0  0  0  0
    1.2933   -2.1217    5.8917 C   0  0  0  0  0  0  0  0  0  0  0  0
    0.3495   -3.1535    5.3192 C   0  0  0  0  0  0  0  0  0  0  0  0
   -0.7083   -3.5800    6.2799 C   0  0  0  0  0  0  0  0  0  0  0  0
   -0.8405   -2.4858    7.3403 C   0  0  0  0  0  0  0  0  0  0  0  0
    0.4303   -2.6006    8.1924 C   0  0  0  0  0  0  0  0  0  0  0  0
    0.3071   -1.6445    9.3042 C   0  0  0  0  0  0  0  0  0  0  0  0
   -0.6164   -1.9223   10.2879 C   0  0  0  0  0  0  0  0  0  0  0  0
   -0.7855   -1.0609   11.3675 C   0  0  0  0  0  0  0  0  0  0  0  0
   -0.0365    0.0848   11.4771 C   0  0  0  0  0  0  0  0  0  0  0  0
    0.8840    0.3560   10.4912 C   0  0  0  0  0  0  0  0  0  0  0  0
    1.0533   -0.4887    9.4279 C   0  0  0  0  0  0  0  0  0  0  0  0
    1.9773   -0.2468    8.4083 O   0  0  0  0  0  0  0  0  0  0  0  0
   -0.1527    1.0614   12.5912 C   0  0  0  0  0  0  0  0  0  0  0  0
    0.6174    0.6966   13.8141 C   0  0  0  0  0  0  0  0  0  0  0  0
   -1.6330    1.0998   12.9706 C   0  0  0  0  0  0  0  0  0  0  0  0
    0.2963    2.3930   12.0470 C   0  0  0  0  0  0  0  0  0  0  0  0
   -0.4516    3.4839   12.7936 C   0  0  0  0  0  0  0  0  0  0  0  0
    0.0462    3.6325   14.1980 C   0  0  0  0  0  0  0  0  0  0  0  0
   -0.6466    4.7824   14.8627 C   0  0  0  0  0  0  0  0  0  0  0  0
    0.2224    5.5618   15.8152 C   0  0  0  0  0  0  0  0  0  0  0  0
    0.6995    6.7871   15.0402 C   0  0  0  0  0  0  0  0  0  0  0  0
    1.3027    7.7565   15.9225 N   0  0  0  0  0  0  0  0  0  0  0  0
    2.1761    8.5745   15.4714 C   0  0  0  0  0  0  0  0  0  0  0  0
    2.8776    9.8411   14.7710 S   0  0  0  0  0  0  0  0  0  0  0  0
   -1.4211   -3.0486   10.2730 O   0  0  0  0  0  0  0  0  0  0  0  0
   -2.0393   -3.8503    5.6165 C   0  0  0  0  0  0  0  0  0  0  0  0
   -2.2008   -5.2161    5.4616 O   0  0  0  0  0  0  0  0  0  0  0  0
    3.4612   -0.8405    6.6842 C   0  0  0  0  0  0  0  0  0  0  0  0
  1  2  1  0
  2  3  1  0
  3  4  1  0
  4  5  1  0
  5  6  1  0
  6  7  1  0
  7  8  1  0
  8  9  1  0
  9 10  2  0
 10 11  1  0
 11 12  2  0
 12 13  1  0
 13 14  2  0
 14 15  1  0
 12 16  1  0
 16 17  1  0
 16 18  1  0
 16 19  1  0
 19 20  1  0
 20 21  1  0
 21 22  1  0
 22 23  1  0
 23 24  1  0
 24 25  1  0
 25 26  2  0
 26 27  2  0
 10 28  1  0
  6 29  1  0
 29 30  1  0
  2 31  1  0
 15  2  1  0
  8  3  1  0
 14  9  1  0
M  END
$$$$
