
     RDKit          3D

 31 33  0  0  0  0  0  0  0  0999 V2000
    2.3085   -0.1868    8.4975 C   0  0  0  0  0  0  0  0  0  0  0  0
    1.1649   -1.1558    8.8047 C   0  0  0  0  0  0  0  0  0  0  0  0
    1.5979   -2.1255    9.8471 C   0  0  0  0  0  0  0  0  0  0  0  0
    0.9209   -3.4534    9.5657 C   0  0  0  0  0  0  0  0  0  0  0  0
    1.3333   -4.5130   10.5609 C   0  0  0  0  0  0  0  0  0  0  0  0
    1.4567   -3.9952   11.9539 C   0  0  0  0  0  0  0  0  0  0  0  0
    0.6345   -2.7087   12.0451 C   0  0  0  0  0  0  0  0  0  0  0  0
    1.4308   -1.6689   11.2459 C   0  0  0  0  0  0  0  0  0  0  0  0
    0.7449   -0.3754   11.3934 C   0  0  0  0  0  0  0  0  0  0  0  0
    0.7966    0.2398   12.6250 C   0  0  0  0  0  0  0  0  0  0  0  0
    0.1695    1.4640   12.8346 C   0  0  0  0  0  0  0  0  0  0  0  0
   -0.5147    2.0866   11.8198 C   0  0  0  0  0  0  0  0  0  0  0  0
   -0.5622    1.4668   10.5924 C   0  0  0  0  0  0  0  0  0  0  0  0
    0.0533    0.2628   10.3823 C   0  0  0  0  0  0  0  0  0  0  0  0
    0.0267   -0.3965    9.1508 O   0  0  0  0  0  0  0  0  0  0  0  0
   -1.2154    3.3901   11.9548 C   0  0  0  0  0  0  0  0  0  0  0  0
   -2.6994    3.2860   12.0490 C   0  0  0  0  0  0  0  0  0  0  0  0
   -0.8863    4.1831   10.6900 C   0  0  0  0  0  0  0  0  0  0  0  0
   -0.6426    4.0642   13.1748 C   0  0  0  0  0  0  0  0  0  0  0  0
    0.7521    4.5571   12.8300 C   0  0  0  0  0  0  0  0  0  0  0  0
    1.3850    5.2734   13.9827 C   0  0  0  0  0  0  0  0  0  0  0  0
    0.5427    6.4489   14.3735 C   0  0  0  0  0  0  0  0  0  0  0  0
    1.1814    7.3568   15.3922 C   0  0  0  0  0  0  0  0  0  0  0  0
    0.7706    6.8101   16.7567 C   0  0  0  0  0  0  0  0  0  0  0  0
    1.4638    7.4959   17.8204 N   0  0  0  0  0  0  0  0  0  0  0  0
    1.2794    7.1422   19.0354 C   0  0  0  0  0  0  0  0  0  0  0  0
    0.5988    6.8388   20.4607 S   0  0  0  0  0  0  0  0  0  0  0  0
    1.4587   -0.3020   13.7133 O   0  0  0  0  0  0  0  0  0  0  0  0
    1.0138   -4.9925   12.9998 C   0  0  0  0  0  0  0  0  0  0  0  0
    1.8505   -6.0942   12.9604 O   0  0  0  0  0  0  0  0  0  0  0  0
    0.8398   -1.8370    7.4801 C   0  0  0  0  0  0  0  0  0  0  0  0
  1  2  1  0
  2  3  1  0
  3  4  1  0
  4  5  1  0
  5  6  1  0
  6  7  1  0
  7  8  1  0
  8  9  1  0
  9 10  2  0
 10 11  1  0
 11 12  2  0
 12 13  1  0
 13 14  2  0
 14 15  1  0
 12 16  1  0
 16 17  1  0
 16 18  1  0
 16 19  1  0
 19 20  1  0
 20 21  1  0
 21 22  1  0
 22 23  1  0
 23 24  1  0
 24 25  1  0
 25 26  2  0
 26 27  2  0
 10 28  1  0
  6 29  1  0
 29 30  1  0
  2 31  1  0
 15  2  1  0
  8  3  1  0
 14  9  1  0
M  END
$$$$
