
     RDKit          3D

 31 33  0  0  0  0  0  0  0  0999 V2000
    2.4599    1.8981   14.8464 C   0  0  0  0  0  0  0  0  0  0  0  0
    1.0941    2.2799   15.4211 C   0  0  0  0  0  0  0  0  0  0  0  0
    0.8186    3.7156   15.1432 C   0  0  0  0  0  0  0  0  0  0  0  0
    0.0173    4.2749   16.3034 C   0  0  0  0  0  0  0  0  0  0  0  0
   -0.2787    5.7453   16.1209 C   0  0  0  0  0  0  0  0  0  0  0  0
   -0.6124    6.1077   14.7133 C   0  0  0  0  0  0  0  0  0  0  0  0
   -1.0650    4.8322   14.0008 C   0  0  0  0  0  0  0  0  0  0  0  0
    0.2118    4.0003   13.8226 C   0  0  0  0  0  0  0  0  0  0  0  0
   -0.1418    2.8070   13.0376 C   0  0  0  0  0  0  0  0  0  0  0  0
   -0.4496    2.9845   11.7066 C   0  0  0  0  0  0  0  0  0  0  0  0
   -0.7934    1.8997   10.9060 C   0  0  0  0  0  0  0  0  0  0  0  0
   -0.8338    0.6285   11.4235 C   0  0  0  0  0  0  0  0  0  0  0  0
   -0.5252    0.4584   12.7535 C   0  0  0  0  0  0  0  0  0  0  0  0
   -0.1866    1.5227   13.5441 C   0  0  0  0  0  0  0  0  0  0  0  0
    0.1327    1.3892   14.8977 O   0  0  0  0  0  0  0  0  0  0  0  0
   -1.1931   -0.5850   10.6446 C   0  0  0  0  0  0  0  0  0  0  0  0
   -2.3292   -0.3966    9.6982 C   0  0  0  0  0  0  0  0  0  0  0  0
   -1.6137   -1.6389   11.6688 C   0  0  0  0  0  0  0  0  0  0  0  0
    0.0532   -1.0141    9.9141 C   0  0  0  0  0  0  0  0  0  0  0  0
    1.0892   -1.4205   10.9478 C   0  0  0  0  0  0  0  0  0  0  0  0
    2.4690   -1.4444   10.3664 C   0  0  0  0  0  0  0  0  0  0  0  0
    2.5723   -2.5404    9.3504 C   0  0  0  0  0  0  0  0  0  0  0  0
    3.5142   -2.2431    8.2127 C   0  0  0  0  0  0  0  0  0  0  0  0
    2.9176   -1.0467    7.4763 C   0  0  0  0  0  0  0  0  0  0  0  0
    3.7028    0.1433    7.6982 N   0  0  0  0  0  0  0  0  0  0  0  0
    3.3256    1.2596    7.2012 C   0  0  0  0  0  0  0  0  0  0  0  0
    3.0363    2.8275    6.9893 S   0  0  0  0  0  0  0  0  0  0  0  0
   -0.4391    4.2224   11.0869 O   0  0  0  0  0  0  0  0  0  0  0  0
   -1.6679    7.1848   14.6114 C   0  0  0  0  0  0  0  0  0  0  0  0
   -1.5202    8.0672   15.6673 O   0  0  0  0  0  0  0  0  0  0  0  0
    1.1829    1.9864   16.9145 C   0  0  0  0  0  0  0  0  0  0  0  0
  1  2  1  0
  2  3  1  0
  3  4  1  0
  4  5  1  0
  5  6  1  0
  6  7  1  0
  7  8  1  0
  8  9  1  0
  9 10  2  0
 10 11  1  0
 11 12  2  0
 12 13  1  0
 13 14  2  0
 14 15  1  0
 12 16  1  0
 16 17  1  0
 16 18  1  0
 16 19  1  0
 19 20  1  0
 20 21  1  0
 21 22  1  0
 22 23  1  0
 23 24  1  0
 24 25  1  0
 25 26  2  0
 26 27  2  0
 10 28  1  0
  6 29  1  0
 29 30  1  0
  2 31  1  0
 15  2  1  0
  8  3  1  0
 14  9  1  0
M  END
$$$$
