
     RDKit          3D

 31 33  0  0  0  0  0  0  0  0999 V2000
   -0.5160    0.1514    6.5379 C   0  0  0  0  0  0  0  0  0  0  0  0
   -0.4094   -1.3750    6.5420 C   0  0  0  0  0  0  0  0  0  0  0  0
    1.0102   -1.7774    6.3493 C   0  0  0  0  0  0  0  0  0  0  0  0
    1.0299   -3.0718    5.5585 C   0  0  0  0  0  0  0  0  0  0  0  0
    2.4409   -3.5380    5.2847 C   0  0  0  0  0  0  0  0  0  0  0  0
    3.3632   -3.3298    6.4379 C   0  0  0  0  0  0  0  0  0  0  0  0
    2.5075   -3.2039    7.6994 C   0  0  0  0  0  0  0  0  0  0  0  0
    1.8259   -1.8342    7.5839 C   0  0  0  0  0  0  0  0  0  0  0  0
    1.0752   -1.6057    8.8287 C   0  0  0  0  0  0  0  0  0  0  0  0
    1.7976   -1.3709    9.9780 C   0  0  0  0  0  0  0  0  0  0  0  0
    1.1518   -1.1477   11.1900 C   0  0  0  0  0  0  0  0  0  0  0  0
   -0.2191   -1.1562   11.2685 C   0  0  0  0  0  0  0  0  0  0  0  0
   -0.9344   -1.3912   10.1170 C   0  0  0  0  0  0  0  0  0  0  0  0
   -0.3029   -1.6112    8.9230 C   0  0  0  0  0  0  0  0  0  0  0  0
   -0.9949   -1.8531    7.7337 O   0  0  0  0  0  0  0  0  0  0  0  0
   -0.9907   -0.9314   12.5186 C   0  0  0  0  0  0  0  0  0  0  0  0
   -0.2530   -1.2711   13.7684 C   0  0  0  0  0  0  0  0  0  0  0  0
   -2.2101   -1.8496   12.4367 C   0  0  0  0  0  0  0  0  0  0  0  0
   -1.4082    0.5165   12.5141 C   0  0  0  0  0  0  0  0  0  0  0  0
   -0.2424    1.3450   13.0253 C   0  0  0  0  0  0  0  0  0  0  0  0
   -0.5503    2.8101   12.9931 C   0  0  0  0  0  0  0  0  0  0  0  0
   -0.8735    3.2909   14.3746 C   0  0  0  0  0  0  0  0  0  0  0  0
   -1.2663    4.7435   14.4484 C   0  0  0  0  0  0  0  0  0  0  0  0
    0.0412    5.5289   14.5046 C   0  0  0  0  0  0  0  0  0  0  0  0
   -0.2067    6.9345   14.7164 N   0  0  0  0  0  0  0  0  0  0  0  0
    0.7738    7.7520   14.7916 C   0  0  0  0  0  0  0  0  0  0  0  0
    1.6772    9.0798   14.7037 S   0  0  0  0  0  0  0  0  0  0  0  0
    3.1812   -1.3413   10.0082 O   0  0  0  0  0  0  0  0  0  0  0  0
    4.3848   -4.4336    6.5883 C   0  0  0  0  0  0  0  0  0  0  0  0
    5.4114   -3.9944    7.4059 O   0  0  0  0  0  0  0  0  0  0  0  0
   -1.3051   -1.8499    5.4033 C   0  0  0  0  0  0  0  0  0  0  0  0
  1  2  1  0
  2  3  1  0
  3  4  1  0
  4  5  1  0
  5  6  1  0
  6  7  1  0
  7  8  1  0
  8  9  1  0
  9 10  2  0
 10 11  1  0
 11 12  2  0
 12 13  1  0
 13 14  2  0
 14 15  1  0
 12 16  1  0
 16 17  1  0
 16 18  1  0
 16 19  1  0
 19 20  1  0
 20 21  1  0
 21 22  1  0
 22 23  1  0
 23 24  1  0
 24 25  1  0
 25 26  2  0
 26 27  2  0
 10 28  1  0
  6 29  1  0
 29 30  1  0
  2 31  1  0
 15  2  1  0
  8  3  1  0
 14  9  1  0
M  END
$$$$
