
     RDKit          3D

 31 33  0  0  0  0  0  0  0  0999 V2000
    3.7754    5.3070   11.8713 C   0  0  0  0  0  0  0  0  0  0  0  0
    3.7642    4.1423   10.8788 C   0  0  0  0  0  0  0  0  0  0  0  0
    4.6219    3.0400   11.3922 C   0  0  0  0  0  0  0  0  0  0  0  0
    5.2652    2.3510   10.2038 C   0  0  0  0  0  0  0  0  0  0  0  0
    6.1864    1.2341   10.6366 C   0  0  0  0  0  0  0  0  0  0  0  0
    5.6548    0.4452   11.7850 C   0  0  0  0  0  0  0  0  0  0  0  0
    4.1409    0.6579   11.8328 C   0  0  0  0  0  0  0  0  0  0  0  0
    3.9561    2.1000   12.3229 C   0  0  0  0  0  0  0  0  0  0  0  0
    2.5130    2.3273   12.4995 C   0  0  0  0  0  0  0  0  0  0  0  0
    1.8863    1.6819   13.5429 C   0  0  0  0  0  0  0  0  0  0  0  0
    0.5236    1.8512   13.7674 C   0  0  0  0  0  0  0  0  0  0  0  0
   -0.2272    2.6647   12.9549 C   0  0  0  0  0  0  0  0  0  0  0  0
    0.4050    3.3063   11.9149 C   0  0  0  0  0  0  0  0  0  0  0  0
    1.7450    3.1423   11.6909 C   0  0  0  0  0  0  0  0  0  0  0  0
    2.4212    3.7767   10.6458 O   0  0  0  0  0  0  0  0  0  0  0  0
   -1.6854    2.9005   13.1182 C   0  0  0  0  0  0  0  0  0  0  0  0
   -2.2600    3.8940   12.1671 C   0  0  0  0  0  0  0  0  0  0  0  0
   -1.8716    3.4516   14.5318 C   0  0  0  0  0  0  0  0  0  0  0  0
   -2.3587    1.5603   12.9719 C   0  0  0  0  0  0  0  0  0  0  0  0
   -2.1146    1.0618   11.5581 C   0  0  0  0  0  0  0  0  0  0  0  0
   -3.2608    0.2382   11.0577 C   0  0  0  0  0  0  0  0  0  0  0  0
   -3.4487    0.4697    9.5896 C   0  0  0  0  0  0  0  0  0  0  0  0
   -2.4220   -0.2080    8.7197 C   0  0  0  0  0  0  0  0  0  0  0  0
   -3.1464   -1.3686    8.0431 C   0  0  0  0  0  0  0  0  0  0  0  0
   -2.2144   -2.2386    7.3675 N   0  0  0  0  0  0  0  0  0  0  0  0
   -2.4011   -3.5037    7.3744 C   0  0  0  0  0  0  0  0  0  0  0  0
   -2.7443   -5.0085    6.9218 S   0  0  0  0  0  0  0  0  0  0  0  0
    2.5502    0.8408   14.4194 O   0  0  0  0  0  0  0  0  0  0  0  0
    5.9892   -1.0265   11.7002 C   0  0  0  0  0  0  0  0  0  0  0  0
    7.2209   -1.2474   12.2912 O   0  0  0  0  0  0  0  0  0  0  0  0
    4.2858    4.7184    9.5673 C   0  0  0  0  0  0  0  0  0  0  0  0
  1  2  1  0
  2  3  1  0
  3  4  1  0
  4  5  1  0
  5  6  1  0
  6  7  1  0
  7  8  1  0
  8  9  1  0
  9 10  2  0
 10 11  1  0
 11 12  2  0
 12 13  1  0
 13 14  2  0
 14 15  1  0
 12 16  1  0
 16 17  1  0
 16 18  1  0
 16 19  1  0
 19 20  1  0
 20 21  1  0
 21 22  1  0
 22 23  1  0
 23 24  1  0
 24 25  1  0
 25 26  2  0
 26 27  2  0
 10 28  1  0
  6 29  1  0
 29 30  1  0
  2 31  1  0
 15  2  1  0
  8  3  1  0
 14  9  1  0
M  END
$$$$
