
     RDKit          3D

 31 33  0  0  0  0  0  0  0  0999 V2000
    2.7131   -3.1153   10.6267 C   0  0  0  0  0  0  0  0  0  0  0  0
    1.2116   -3.3149   10.4095 C   0  0  0  0  0  0  0  0  0  0  0  0
    0.5497   -3.5865   11.7143 C   0  0  0  0  0  0  0  0  0  0  0  0
   -0.6029   -4.5414   11.4682 C   0  0  0  0  0  0  0  0  0  0  0  0
   -1.3141   -4.9017   12.7518 C   0  0  0  0  0  0  0  0  0  0  0  0
   -1.4594   -3.7492   13.6869 C   0  0  0  0  0  0  0  0  0  0  0  0
   -1.3259   -2.4658   12.8657 C   0  0  0  0  0  0  0  0  0  0  0  0
    0.1592   -2.3862   12.4887 C   0  0  0  0  0  0  0  0  0  0  0  0
    0.3723   -1.1078   11.7918 C   0  0  0  0  0  0  0  0  0  0  0  0
    0.2951    0.0482   12.5371 C   0  0  0  0  0  0  0  0  0  0  0  0
    0.4855    1.2914   11.9419 C   0  0  0  0  0  0  0  0  0  0  0  0
    0.7544    1.3946   10.5993 C   0  0  0  0  0  0  0  0  0  0  0  0
    0.8301    0.2362    9.8610 C   0  0  0  0  0  0  0  0  0  0  0  0
    0.6435   -0.9884   10.4427 C   0  0  0  0  0  0  0  0  0  0  0  0
    0.7127   -2.1856    9.7259 O   0  0  0  0  0  0  0  0  0  0  0  0
    0.9675    2.6780    9.8812 C   0  0  0  0  0  0  0  0  0  0  0  0
    2.3695    2.9068    9.4295 C   0  0  0  0  0  0  0  0  0  0  0  0
    0.6148    3.7851   10.8745 C   0  0  0  0  0  0  0  0  0  0  0  0
    0.0159    2.6825    8.7128 C   0  0  0  0  0  0  0  0  0  0  0  0
    0.8043    3.0372    7.4639 C   0  0  0  0  0  0  0  0  0  0  0  0
   -0.0528    3.7255    6.4471 C   0  0  0  0  0  0  0  0  0  0  0  0
   -0.0005    5.2075    6.6594 C   0  0  0  0  0  0  0  0  0  0  0  0
    0.4933    5.9865    5.4680 C   0  0  0  0  0  0  0  0  0  0  0  0
   -0.2632    7.3119    5.4910 C   0  0  0  0  0  0  0  0  0  0  0  0
    0.4111    8.3080    4.6940 N   0  0  0  0  0  0  0  0  0  0  0  0
    0.0109    9.5223    4.7165 C   0  0  0  0  0  0  0  0  0  0  0  0
   -0.1766   11.0711    5.1077 S   0  0  0  0  0  0  0  0  0  0  0  0
    0.0296    0.0553   13.8957 O   0  0  0  0  0  0  0  0  0  0  0  0
   -2.7629   -3.7657   14.4520 C   0  0  0  0  0  0  0  0  0  0  0  0
   -2.6383   -4.6064   15.5442 O   0  0  0  0  0  0  0  0  0  0  0  0
    1.0911   -4.4888    9.4442 C   0  0  0  0  0  0  0  0  0  0  0  0
  1  2  1  0
  2  3  1  0
  3  4  1  0
  4  5  1  0
  5  6  1  0
  6  7  1  0
  7  8  1  0
  8  9  1  0
  9 10  2  0
 10 11  1  0
 11 12  2  0
 12 13  1  0
 13 14  2  0
 14 15  1  0
 12 16  1  0
 16 17  1  0
 16 18  1  0
 16 19  1  0
 19 20  1  0
 20 21  1  0
 21 22  1  0
 22 23  1  0
 23 24  1  0
 24 25  1  0
 25 26  2  0
 26 27  2  0
 10 28  1  0
  6 29  1  0
 29 30  1  0
  2 31  1  0
 15  2  1  0
  8  3  1  0
 14  9  1  0
M  END
$$$$
