
     RDKit          3D

 31 33  0  0  0  0  0  0  0  0999 V2000
    2.1919   -0.8144    8.3698 C   0  0  0  0  0  0  0  0  0  0  0  0
    0.6998   -0.8652    8.7052 C   0  0  0  0  0  0  0  0  0  0  0  0
    0.4206   -2.0479    9.5641 C   0  0  0  0  0  0  0  0  0  0  0  0
   -0.9629   -2.5651    9.2186 C   0  0  0  0  0  0  0  0  0  0  0  0
   -1.3172   -3.7941   10.0231 C   0  0  0  0  0  0  0  0  0  0  0  0
   -0.8572   -3.7222   11.4398 C   0  0  0  0  0  0  0  0  0  0  0  0
   -0.6435   -2.2473   11.7840 C   0  0  0  0  0  0  0  0  0  0  0  0
    0.6203   -1.8377   11.0163 C   0  0  0  0  0  0  0  0  0  0  0  0
    0.9434   -0.4541   11.3993 C   0  0  0  0  0  0  0  0  0  0  0  0
    1.4087   -0.2358   12.6775 C   0  0  0  0  0  0  0  0  0  0  0  0
    1.7327    1.0476   13.1061 C   0  0  0  0  0  0  0  0  0  0  0  0
    1.5961    2.1251   12.2660 C   0  0  0  0  0  0  0  0  0  0  0  0
    1.1309    1.9000   10.9910 C   0  0  0  0  0  0  0  0  0  0  0  0
    0.8113    0.6392   10.5656 C   0  0  0  0  0  0  0  0  0  0  0  0
    0.3363    0.3717    9.2793 O   0  0  0  0  0  0  0  0  0  0  0  0
    1.9141    3.5279   12.6398 C   0  0  0  0  0  0  0  0  0  0  0  0
    2.9439    4.1772   11.7797 C   0  0  0  0  0  0  0  0  0  0  0  0
    2.4675    3.4737   14.0637 C   0  0  0  0  0  0  0  0  0  0  0  0
    0.6155    4.2912   12.5977 C   0  0  0  0  0  0  0  0  0  0  0  0
    0.3978    4.9268   13.9599 C   0  0  0  0  0  0  0  0  0  0  0  0
   -1.0564    5.1505   14.2386 C   0  0  0  0  0  0  0  0  0  0  0  0
   -1.3248    6.6169   14.3863 C   0  0  0  0  0  0  0  0  0  0  0  0
   -2.4794    6.9463   15.2963 C   0  0  0  0  0  0  0  0  0  0  0  0
   -3.5261    7.6246   14.4165 C   0  0  0  0  0  0  0  0  0  0  0  0
   -4.6636    6.7624   14.2051 N   0  0  0  0  0  0  0  0  0  0  0  0
   -5.8033    7.2669   13.9187 C   0  0  0  0  0  0  0  0  0  0  0  0
   -7.3642    7.4373   13.5702 S   0  0  0  0  0  0  0  0  0  0  0  0
    1.5827   -1.2511   13.6022 O   0  0  0  0  0  0  0  0  0  0  0  0
   -1.8196   -4.3675   12.4104 C   0  0  0  0  0  0  0  0  0  0  0  0
   -1.5744   -3.8829   13.6834 O   0  0  0  0  0  0  0  0  0  0  0  0
   -0.0182   -0.9427    7.3626 C   0  0  0  0  0  0  0  0  0  0  0  0
  1  2  1  0
  2  3  1  0
  3  4  1  0
  4  5  1  0
  5  6  1  0
  6  7  1  0
  7  8  1  0
  8  9  1  0
  9 10  2  0
 10 11  1  0
 11 12  2  0
 12 13  1  0
 13 14  2  0
 14 15  1  0
 12 16  1  0
 16 17  1  0
 16 18  1  0
 16 19  1  0
 19 20  1  0
 20 21  1  0
 21 22  1  0
 22 23  1  0
 23 24  1  0
 24 25  1  0
 25 26  2  0
 26 27  2  0
 10 28  1  0
  6 29  1  0
 29 30  1  0
  2 31  1  0
 15  2  1  0
  8  3  1  0
 14  9  1  0
M  END
$$$$
