
     RDKit          3D

 31 33  0  0  0  0  0  0  0  0999 V2000
   -3.2914    3.9944   11.7846 C   0  0  0  0  0  0  0  0  0  0  0  0
   -1.9061    4.6243   11.6251 C   0  0  0  0  0  0  0  0  0  0  0  0
   -1.2494    4.7309   12.9561 C   0  0  0  0  0  0  0  0  0  0  0  0
   -0.3927    5.9828   12.9600 C   0  0  0  0  0  0  0  0  0  0  0  0
    0.2879    6.1903   14.2930 C   0  0  0  0  0  0  0  0  0  0  0  0
    0.7796    4.9227   14.9057 C   0  0  0  0  0  0  0  0  0  0  0  0
    0.9194    3.8900   13.7862 C   0  0  0  0  0  0  0  0  0  0  0  0
   -0.5195    3.5218   13.4013 C   0  0  0  0  0  0  0  0  0  0  0  0
   -0.4496    2.4427   12.4033 C   0  0  0  0  0  0  0  0  0  0  0  0
   -0.0353    1.2005   12.8315 C   0  0  0  0  0  0  0  0  0  0  0  0
    0.0543    0.1353   11.9409 C   0  0  0  0  0  0  0  0  0  0  0  0
   -0.2677    0.2974   10.6160 C   0  0  0  0  0  0  0  0  0  0  0  0
   -0.6808    1.5404   10.1951 C   0  0  0  0  0  0  0  0  0  0  0  0
   -0.7703    2.5906   11.0679 C   0  0  0  0  0  0  0  0  0  0  0  0
   -1.1853    3.8662   10.6777 O   0  0  0  0  0  0  0  0  0  0  0  0
   -0.1980   -0.7813    9.5962 C   0  0  0  0  0  0  0  0  0  0  0  0
   -0.6448   -0.3724    8.2341 C   0  0  0  0  0  0  0  0  0  0  0  0
   -1.1383   -1.8853   10.0797 C   0  0  0  0  0  0  0  0  0  0  0  0
    1.2294   -1.2638    9.5744 C   0  0  0  0  0  0  0  0  0  0  0  0
    1.4181   -2.2304   10.7307 C   0  0  0  0  0  0  0  0  0  0  0  0
    2.8476   -2.2900   11.1726 C   0  0  0  0  0  0  0  0  0  0  0  0
    3.2447   -0.9810   11.7833 C   0  0  0  0  0  0  0  0  0  0  0  0
    3.5527   -1.0533   13.2563 C   0  0  0  0  0  0  0  0  0  0  0  0
    4.7795   -0.1711   13.4718 C   0  0  0  0  0  0  0  0  0  0  0  0
    4.7058    0.5199   14.7364 N   0  0  0  0  0  0  0  0  0  0  0  0
    5.4589    1.5295   14.9575 C   0  0  0  0  0  0  0  0  0  0  0  0
    6.1797    2.7838   15.6605 S   0  0  0  0  0  0  0  0  0  0  0  0
    0.3123    0.9307   14.1441 O   0  0  0  0  0  0  0  0  0  0  0  0
    2.0845    5.0899   15.6500 C   0  0  0  0  0  0  0  0  0  0  0  0
    1.9920    6.1868   16.4887 O   0  0  0  0  0  0  0  0  0  0  0  0
   -2.1485    5.9882   10.9885 C   0  0  0  0  0  0  0  0  0  0  0  0
  1  2  1  0
  2  3  1  0
  3  4  1  0
  4  5  1  0
  5  6  1  0
  6  7  1  0
  7  8  1  0
  8  9  1  0
  9 10  2  0
 10 11  1  0
 11 12  2  0
 12 13  1  0
 13 14  2  0
 14 15  1  0
 12 16  1  0
 16 17  1  0
 16 18  1  0
 16 19  1  0
 19 20  1  0
 20 21  1  0
 21 22  1  0
 22 23  1  0
 23 24  1  0
 24 25  1  0
 25 26  2  0
 26 27  2  0
 10 28  1  0
  6 29  1  0
 29 30  1  0
  2 31  1  0
 15  2  1  0
  8  3  1  0
 14  9  1  0
M  END
$$$$
