
     RDKit          3D

 31 33  0  0  0  0  0  0  0  0999 V2000
   -2.5883    4.3190   15.2562 C   0  0  0  0  0  0  0  0  0  0  0  0
   -1.6357    5.1834   14.4275 C   0  0  0  0  0  0  0  0  0  0  0  0
   -0.3763    5.4087   15.1875 C   0  0  0  0  0  0  0  0  0  0  0  0
    0.1411    6.7923   14.8426 C   0  0  0  0  0  0  0  0  0  0  0  0
    1.4061    7.1211   15.6008 C   0  0  0  0  0  0  0  0  0  0  0  0
    2.3371    5.9624   15.7217 C   0  0  0  0  0  0  0  0  0  0  0  0
    1.9853    4.9672   14.6149 C   0  0  0  0  0  0  0  0  0  0  0  0
    0.6483    4.3491   15.0445 C   0  0  0  0  0  0  0  0  0  0  0  0
    0.3134    3.2962   14.0726 C   0  0  0  0  0  0  0  0  0  0  0  0
    1.0749    2.1482   14.0846 C   0  0  0  0  0  0  0  0  0  0  0  0
    0.8136    1.1129   13.1927 C   0  0  0  0  0  0  0  0  0  0  0  0
   -0.2082    1.2112   12.2807 C   0  0  0  0  0  0  0  0  0  0  0  0
   -0.9649    2.3603   12.2743 C   0  0  0  0  0  0  0  0  0  0  0  0
   -0.7111    3.3808   13.1499 C   0  0  0  0  0  0  0  0  0  0  0  0
   -1.4571    4.5618   13.1732 O   0  0  0  0  0  0  0  0  0  0  0  0
   -0.5555    0.1586   11.2908 C   0  0  0  0  0  0  0  0  0  0  0  0
   -1.9635   -0.3237   11.3715 C   0  0  0  0  0  0  0  0  0  0  0  0
    0.3586   -1.0285   11.5939 C   0  0  0  0  0  0  0  0  0  0  0  0
   -0.2576    0.7311    9.9291 C   0  0  0  0  0  0  0  0  0  0  0  0
    1.2294    1.0332    9.8596 C   0  0  0  0  0  0  0  0  0  0  0  0
    1.7536    0.9061    8.4626 C   0  0  0  0  0  0  0  0  0  0  0  0
    2.5250   -0.3706    8.3247 C   0  0  0  0  0  0  0  0  0  0  0  0
    1.8514   -1.4113    7.4684 C   0  0  0  0  0  0  0  0  0  0  0  0
    1.7954   -2.6793    8.3161 C   0  0  0  0  0  0  0  0  0  0  0  0
    1.0885   -3.7325    7.6282 N   0  0  0  0  0  0  0  0  0  0  0  0
    0.8911   -4.8546    8.2088 C   0  0  0  0  0  0  0  0  0  0  0  0
    0.2564   -6.0307    9.1038 S   0  0  0  0  0  0  0  0  0  0  0  0
    2.1269    1.9483   14.9619 O   0  0  0  0  0  0  0  0  0  0  0  0
    3.7934    6.3600   15.6452 C   0  0  0  0  0  0  0  0  0  0  0  0
    4.3245    6.3882   16.9229 O   0  0  0  0  0  0  0  0  0  0  0  0
   -2.3900    6.4810   14.1599 C   0  0  0  0  0  0  0  0  0  0  0  0
  1  2  1  0
  2  3  1  0
  3  4  1  0
  4  5  1  0
  5  6  1  0
  6  7  1  0
  7  8  1  0
  8  9  1  0
  9 10  2  0
 10 11  1  0
 11 12  2  0
 12 13  1  0
 13 14  2  0
 14 15  1  0
 12 16  1  0
 16 17  1  0
 16 18  1  0
 16 19  1  0
 19 20  1  0
 20 21  1  0
 21 22  1  0
 22 23  1  0
 23 24  1  0
 24 25  1  0
 25 26  2  0
 26 27  2  0
 10 28  1  0
  6 29  1  0
 29 30  1  0
  2 31  1  0
 15  2  1  0
  8  3  1  0
 14  9  1  0
M  END
$$$$
