
     RDKit          3D

 31 33  0  0  0  0  0  0  0  0999 V2000
   -2.1775    5.0046   11.9333 C   0  0  0  0  0  0  0  0  0  0  0  0
   -0.7934    5.6090   12.1793 C   0  0  0  0  0  0  0  0  0  0  0  0
   -0.5950    5.8261   13.6380 C   0  0  0  0  0  0  0  0  0  0  0  0
    0.2576    7.0678   13.8179 C   0  0  0  0  0  0  0  0  0  0  0  0
    0.4815    7.3854   15.2781 C   0  0  0  0  0  0  0  0  0  0  0  0
    0.7070    6.1725   16.1158 C   0  0  0  0  0  0  0  0  0  0  0  0
    1.1629    5.0457   15.1874 C   0  0  0  0  0  0  0  0  0  0  0  0
   -0.0883    4.6552   14.3898 C   0  0  0  0  0  0  0  0  0  0  0  0
    0.2609    3.4932   13.5572 C   0  0  0  0  0  0  0  0  0  0  0  0
    0.4731    2.2901   14.1939 C   0  0  0  0  0  0  0  0  0  0  0  0
    0.8070    1.1511   13.4679 C   0  0  0  0  0  0  0  0  0  0  0  0
    0.9327    1.2000   12.1013 C   0  0  0  0  0  0  0  0  0  0  0  0
    0.7193    2.4046   11.4719 C   0  0  0  0  0  0  0  0  0  0  0  0
    0.3907    3.5270   12.1825 C   0  0  0  0  0  0  0  0  0  0  0  0
    0.1667    4.7668   11.5787 O   0  0  0  0  0  0  0  0  0  0  0  0
    1.2887    0.0365   11.2480 C   0  0  0  0  0  0  0  0  0  0  0  0
    2.3788   -0.8198   11.7960 C   0  0  0  0  0  0  0  0  0  0  0  0
    1.7780    0.6162    9.9209 C   0  0  0  0  0  0  0  0  0  0  0  0
    0.0237   -0.7587   11.0521 C   0  0  0  0  0  0  0  0  0  0  0  0
    0.0039   -1.2683    9.6214 C   0  0  0  0  0  0  0  0  0  0  0  0
   -1.0875   -2.2710    9.4078 C   0  0  0  0  0  0  0  0  0  0  0  0
   -0.6894   -3.5880   10.0004 C   0  0  0  0  0  0  0  0  0  0  0  0
   -1.5407   -4.0259   11.1638 C   0  0  0  0  0  0  0  0  0  0  0  0
   -2.3183   -5.2462   10.6783 C   0  0  0  0  0  0  0  0  0  0  0  0
   -1.9533   -6.4251   11.4260 N   0  0  0  0  0  0  0  0  0  0  0  0
   -1.1735   -7.2954   10.9063 C   0  0  0  0  0  0  0  0  0  0  0  0
   -0.2465   -8.5913   10.6867 S   0  0  0  0  0  0  0  0  0  0  0  0
    0.3720    2.1327   15.5655 O   0  0  0  0  0  0  0  0  0  0  0  0
    1.7092    6.3947   17.2253 C   0  0  0  0  0  0  0  0  0  0  0  0
    2.2226    5.1733   17.6252 O   0  0  0  0  0  0  0  0  0  0  0  0
   -0.7719    6.9142   11.3918 C   0  0  0  0  0  0  0  0  0  0  0  0
  1  2  1  0
  2  3  1  0
  3  4  1  0
  4  5  1  0
  5  6  1  0
  6  7  1  0
  7  8  1  0
  8  9  1  0
  9 10  2  0
 10 11  1  0
 11 12  2  0
 12 13  1  0
 13 14  2  0
 14 15  1  0
 12 16  1  0
 16 17  1  0
 16 18  1  0
 16 19  1  0
 19 20  1  0
 20 21  1  0
 21 22  1  0
 22 23  1  0
 23 24  1  0
 24 25  1  0
 25 26  2  0
 26 27  2  0
 10 28  1  0
  6 29  1  0
 29 30  1  0
  2 31  1  0
 15  2  1  0
  8  3  1  0
 14  9  1  0
M  END
$$$$
