
     RDKit          3D

 31 33  0  0  0  0  0  0  0  0999 V2000
    1.9032   -2.2163    8.0346 C   0  0  0  0  0  0  0  0  0  0  0  0
    0.3737   -2.1811    8.0644 C   0  0  0  0  0  0  0  0  0  0  0  0
   -0.1318   -3.2168    9.0058 C   0  0  0  0  0  0  0  0  0  0  0  0
   -1.4456   -3.7459    8.4629 C   0  0  0  0  0  0  0  0  0  0  0  0
   -2.0165   -4.8336    9.3428 C   0  0  0  0  0  0  0  0  0  0  0  0
   -1.8414   -4.5643   10.7991 C   0  0  0  0  0  0  0  0  0  0  0  0
   -1.6215   -3.0603   10.9695 C   0  0  0  0  0  0  0  0  0  0  0  0
   -0.2112   -2.7991   10.4243 C   0  0  0  0  0  0  0  0  0  0  0  0
    0.1032   -1.3823   10.6674 C   0  0  0  0  0  0  0  0  0  0  0  0
    0.3186   -0.9887   11.9699 C   0  0  0  0  0  0  0  0  0  0  0  0
    0.6197    0.3358   12.2714 C   0  0  0  0  0  0  0  0  0  0  0  0
    0.7089    1.2803   11.2786 C   0  0  0  0  0  0  0  0  0  0  0  0
    0.4927    0.8804    9.9801 C   0  0  0  0  0  0  0  0  0  0  0  0
    0.1964   -0.4214    9.6795 C   0  0  0  0  0  0  0  0  0  0  0  0
   -0.0294   -0.8645    8.3739 O   0  0  0  0  0  0  0  0  0  0  0  0
    1.0212    2.7148   11.5090 C   0  0  0  0  0  0  0  0  0  0  0  0
   -0.0240    3.6596   11.0227 C   0  0  0  0  0  0  0  0  0  0  0  0
    2.3039    3.0016   10.7285 C   0  0  0  0  0  0  0  0  0  0  0  0
    1.2475    2.8752   12.9902 C   0  0  0  0  0  0  0  0  0  0  0  0
    1.4630    4.3510   13.2772 C   0  0  0  0  0  0  0  0  0  0  0  0
    0.2333    4.9877   13.8472 C   0  0  0  0  0  0  0  0  0  0  0  0
    0.5415    5.5724   15.1915 C   0  0  0  0  0  0  0  0  0  0  0  0
    0.7635    7.0626   15.1823 C   0  0  0  0  0  0  0  0  0  0  0  0
   -0.5552    7.6856   15.6323 C   0  0  0  0  0  0  0  0  0  0  0  0
   -0.3305    8.7371   16.5945 N   0  0  0  0  0  0  0  0  0  0  0  0
   -1.1241    9.7386   16.6435 C   0  0  0  0  0  0  0  0  0  0  0  0
   -1.7200   11.2178   16.8530 S   0  0  0  0  0  0  0  0  0  0  0  0
    0.2526   -1.8601   13.0435 O   0  0  0  0  0  0  0  0  0  0  0  0
   -3.0092   -5.0357   11.6350 C   0  0  0  0  0  0  0  0  0  0  0  0
   -2.6575   -6.2034   12.2894 O   0  0  0  0  0  0  0  0  0  0  0  0
   -0.0687   -2.4390    6.6285 C   0  0  0  0  0  0  0  0  0  0  0  0
  1  2  1  0
  2  3  1  0
  3  4  1  0
  4  5  1  0
  5  6  1  0
  6  7  1  0
  7  8  1  0
  8  9  1  0
  9 10  2  0
 10 11  1  0
 11 12  2  0
 12 13  1  0
 13 14  2  0
 14 15  1  0
 12 16  1  0
 16 17  1  0
 16 18  1  0
 16 19  1  0
 19 20  1  0
 20 21  1  0
 21 22  1  0
 22 23  1  0
 23 24  1  0
 24 25  1  0
 25 26  2  0
 26 27  2  0
 10 28  1  0
  6 29  1  0
 29 30  1  0
  2 31  1  0
 15  2  1  0
  8  3  1  0
 14  9  1  0
M  END
$$$$
