
     RDKit          3D

 31 33  0  0  0  0  0  0  0  0999 V2000
    2.0262    2.0537    9.0000 C   0  0  0  0  0  0  0  0  0  0  0  0
    2.3311    0.6111    8.5910 C   0  0  0  0  0  0  0  0  0  0  0  0
    3.5593    0.1428    9.2887 C   0  0  0  0  0  0  0  0  0  0  0  0
    4.2935   -0.8083    8.3629 C   0  0  0  0  0  0  0  0  0  0  0  0
    5.5788   -1.3085    8.9802 C   0  0  0  0  0  0  0  0  0  0  0  0
    5.4571   -1.5984   10.4379 C   0  0  0  0  0  0  0  0  0  0  0  0
    3.9738   -1.8067   10.7472 C   0  0  0  0  0  0  0  0  0  0  0  0
    3.3452   -0.4107   10.6455 C   0  0  0  0  0  0  0  0  0  0  0  0
    1.9344   -0.5289   11.0466 C   0  0  0  0  0  0  0  0  0  0  0  0
    1.6649   -0.7708   12.3758 C   0  0  0  0  0  0  0  0  0  0  0  0
    0.3534   -0.8944   12.8238 C   0  0  0  0  0  0  0  0  0  0  0  0
   -0.7014   -0.7783   11.9523 C   0  0  0  0  0  0  0  0  0  0  0  0
   -0.4251   -0.5366   10.6264 C   0  0  0  0  0  0  0  0  0  0  0  0
    0.8634   -0.4144   10.1818 C   0  0  0  0  0  0  0  0  0  0  0  0
    1.1828   -0.1692    8.8440 O   0  0  0  0  0  0  0  0  0  0  0  0
   -2.1304   -0.8994   12.3417 C   0  0  0  0  0  0  0  0  0  0  0  0
   -2.3783   -1.7927   13.5089 C   0  0  0  0  0  0  0  0  0  0  0  0
   -2.8503   -1.5028   11.1358 C   0  0  0  0  0  0  0  0  0  0  0  0
   -2.6232    0.4980   12.6165 C   0  0  0  0  0  0  0  0  0  0  0  0
   -1.5667    1.2177   13.4368 C   0  0  0  0  0  0  0  0  0  0  0  0
   -1.5032    2.6750   13.0983 C   0  0  0  0  0  0  0  0  0  0  0  0
   -1.3431    3.4802   14.3514 C   0  0  0  0  0  0  0  0  0  0  0  0
   -2.5045    4.3909   14.6546 C   0  0  0  0  0  0  0  0  0  0  0  0
   -2.0076    5.8083   14.3831 C   0  0  0  0  0  0  0  0  0  0  0  0
   -0.6701    5.9954   14.8913 N   0  0  0  0  0  0  0  0  0  0  0  0
   -0.1541    7.1652   14.9165 C   0  0  0  0  0  0  0  0  0  0  0  0
    0.5255    8.5340   15.4178 S   0  0  0  0  0  0  0  0  0  0  0  0
    2.6537   -0.9046   13.3353 O   0  0  0  0  0  0  0  0  0  0  0  0
    6.2714   -2.7942   10.8758 C   0  0  0  0  0  0  0  0  0  0  0  0
    7.3422   -2.3605   11.6378 O   0  0  0  0  0  0  0  0  0  0  0  0
    2.5028    0.6435    7.0766 C   0  0  0  0  0  0  0  0  0  0  0  0
  1  2  1  0
  2  3  1  0
  3  4  1  0
  4  5  1  0
  5  6  1  0
  6  7  1  0
  7  8  1  0
  8  9  1  0
  9 10  2  0
 10 11  1  0
 11 12  2  0
 12 13  1  0
 13 14  2  0
 14 15  1  0
 12 16  1  0
 16 17  1  0
 16 18  1  0
 16 19  1  0
 19 20  1  0
 20 21  1  0
 21 22  1  0
 22 23  1  0
 23 24  1  0
 24 25  1  0
 25 26  2  0
 26 27  2  0
 10 28  1  0
  6 29  1  0
 29 30  1  0
  2 31  1  0
 15  2  1  0
  8  3  1  0
 14  9  1  0
M  END
$$$$
