
     RDKit          3D

 31 33  0  0  0  0  0  0  0  0999 V2000
    1.1102    4.0556   10.7351 C   0  0  0  0  0  0  0  0  0  0  0  0
    1.5061    4.0040   12.2123 C   0  0  0  0  0  0  0  0  0  0  0  0
    0.4538    4.6598   13.0349 C   0  0  0  0  0  0  0  0  0  0  0  0
    1.1292    5.3336   14.2142 C   0  0  0  0  0  0  0  0  0  0  0  0
    0.1334    6.0587   15.0893 C   0  0  0  0  0  0  0  0  0  0  0  0
   -1.1483    5.3161   15.2614 C   0  0  0  0  0  0  0  0  0  0  0  0
   -0.8769    3.8437   14.9488 C   0  0  0  0  0  0  0  0  0  0  0  0
   -0.6774    3.7888   13.4285 C   0  0  0  0  0  0  0  0  0  0  0  0
   -0.5255    2.3746   13.0515 C   0  0  0  0  0  0  0  0  0  0  0  0
   -1.6384    1.5669   13.1343 C   0  0  0  0  0  0  0  0  0  0  0  0
   -1.5657    0.2199   12.7937 C   0  0  0  0  0  0  0  0  0  0  0  0
   -0.3841   -0.3351   12.3678 C   0  0  0  0  0  0  0  0  0  0  0  0
    0.7235    0.4772   12.2874 C   0  0  0  0  0  0  0  0  0  0  0  0
    0.6559    1.8025   12.6214 C   0  0  0  0  0  0  0  0  0  0  0  0
    1.7585    2.6579   12.5526 O   0  0  0  0  0  0  0  0  0  0  0  0
   -0.2144   -1.7618   11.9879 C   0  0  0  0  0  0  0  0  0  0  0  0
   -1.4696   -2.4378   11.5528 C   0  0  0  0  0  0  0  0  0  0  0  0
    0.2871   -2.4790   13.2412 C   0  0  0  0  0  0  0  0  0  0  0  0
    0.8248   -1.7978   10.8972 C   0  0  0  0  0  0  0  0  0  0  0  0
    0.1632   -1.3626    9.6011 C   0  0  0  0  0  0  0  0  0  0  0  0
    1.1759   -1.0276    8.5500 C   0  0  0  0  0  0  0  0  0  0  0  0
    1.8763    0.2471    8.9087 C   0  0  0  0  0  0  0  0  0  0  0  0
    1.9453    1.2519    7.7881 C   0  0  0  0  0  0  0  0  0  0  0  0
    3.4074    1.6811    7.6995 C   0  0  0  0  0  0  0  0  0  0  0  0
    3.6093    2.9669    8.3223 N   0  0  0  0  0  0  0  0  0  0  0  0
    3.9631    3.9713    7.6142 C   0  0  0  0  0  0  0  0  0  0  0  0
    4.7172    5.2911    7.0885 S   0  0  0  0  0  0  0  0  0  0  0  0
   -2.8761    2.0259   13.5512 O   0  0  0  0  0  0  0  0  0  0  0  0
   -1.7448    5.4724   16.6414 C   0  0  0  0  0  0  0  0  0  0  0  0
   -2.9644    4.8198   16.6860 O   0  0  0  0  0  0  0  0  0  0  0  0
    2.8451    4.7275   12.3017 C   0  0  0  0  0  0  0  0  0  0  0  0
  1  2  1  0
  2  3  1  0
  3  4  1  0
  4  5  1  0
  5  6  1  0
  6  7  1  0
  7  8  1  0
  8  9  1  0
  9 10  2  0
 10 11  1  0
 11 12  2  0
 12 13  1  0
 13 14  2  0
 14 15  1  0
 12 16  1  0
 16 17  1  0
 16 18  1  0
 16 19  1  0
 19 20  1  0
 20 21  1  0
 21 22  1  0
 22 23  1  0
 23 24  1  0
 24 25  1  0
 25 26  2  0
 26 27  2  0
 10 28  1  0
  6 29  1  0
 29 30  1  0
  2 31  1  0
 15  2  1  0
  8  3  1  0
 14  9  1  0
M  END
$$$$
