
     RDKit          3D

 24 27  0  0  0  0  0  0  0  0999 V2000
    2.9233   -5.1726    5.4762 C   0  0  0  0  0  0  0  0  0  0  0  0
    2.0053   -4.7822    6.5644 C   0  0  0  0  0  0  0  0  0  0  0  0
    1.0110   -5.5696    7.0193 N   0  0  0  0  0  0  0  0  0  0  0  0
    0.3874   -4.8964    8.0025 C   0  0  0  0  0  0  0  0  0  0  0  0
    1.0416   -3.6772    8.1226 C   0  0  0  0  0  0  0  0  0  0  0  0
    2.0031   -3.6684    7.2326 O   0  0  0  0  0  0  0  0  0  0  0  0
    0.5786   -2.8074    9.0739 C   0  0  0  0  0  0  0  0  0  0  0  0
   -0.5005   -3.0768    9.9175 C   0  0  0  0  0  0  0  0  0  0  0  0
   -1.1273   -4.2832    9.7796 C   0  0  0  0  0  0  0  0  0  0  0  0
   -0.6817   -5.2044    8.8138 C   0  0  0  0  0  0  0  0  0  0  0  0
   -0.9180   -2.1295   10.8728 N   0  0  0  0  0  0  0  0  0  0  0  0
   -1.3705   -0.8193   10.6244 C   0  0  0  0  0  0  0  0  0  0  0  0
   -2.2699   -0.5849    9.8232 O   0  0  0  0  0  0  0  0  0  0  0  0
   -0.7812    0.3009   11.3146 N   0  0  0  0  0  0  0  0  0  0  0  0
   -1.0324    1.6331   10.8866 C   0  0  0  0  0  0  0  0  0  0  0  0
   -1.2803    2.6202   11.8179 C   0  0  0  0  0  0  0  0  0  0  0  0
   -1.5188    3.9000   11.3517 C   0  0  0  0  0  0  0  0  0  0  0  0
   -1.5075    4.1641   10.0323 N   0  0  0  0  0  0  0  0  0  0  0  0
   -1.2643    3.1954    9.1231 C   0  0  0  0  0  0  0  0  0  0  0  0
   -1.0175    1.8894    9.5307 C   0  0  0  0  0  0  0  0  0  0  0  0
   -1.7732    4.9219   12.2687 C   0  0  0  0  0  0  0  0  0  0  0  0
   -1.7901    4.6749   13.6283 C   0  0  0  0  0  0  0  0  0  0  0  0
   -1.5449    3.3758   14.0389 C   0  0  0  0  0  0  0  0  0  0  0  0
   -1.2982    2.3875   13.1378 N   0  0  0  0  0  0  0  0  0  0  0  0
  1  2  1  0
  2  3  2  0
  3  4  1  0
  4  5  2  0
  5  6  1  0
  5  7  1  0
  7  8  2  0
  8  9  1  0
  9 10  2  0
  8 11  1  0
 11 12  1  0
 12 13  2  0
 12 14  1  0
 14 15  1  0
 15 16  2  0
 16 17  1  0
 17 18  2  0
 18 19  1  0
 19 20  2  0
 17 21  1  0
 21 22  2  0
 22 23  1  0
 23 24  2  0
  6  2  1  0
 10  4  1  0
 20 15  1  0
 24 16  1  0
M  END
$$$$
