
     RDKit          3D

 24 27  0  0  0  0  0  0  0  0999 V2000
    2.4948   -6.8559    7.2989 C   0  0  0  0  0  0  0  0  0  0  0  0
    1.6655   -5.6886    7.6581 C   0  0  0  0  0  0  0  0  0  0  0  0
    1.2976   -4.7365    6.7784 N   0  0  0  0  0  0  0  0  0  0  0  0
    0.5556   -3.8382    7.4501 C   0  0  0  0  0  0  0  0  0  0  0  0
    0.4904   -4.2837    8.7640 C   0  0  0  0  0  0  0  0  0  0  0  0
    1.1759   -5.3985    8.8256 O   0  0  0  0  0  0  0  0  0  0  0  0
   -0.2227   -3.5212    9.6505 C   0  0  0  0  0  0  0  0  0  0  0  0
   -0.8784   -2.3370    9.3093 C   0  0  0  0  0  0  0  0  0  0  0  0
   -0.7992   -1.9201    8.0103 C   0  0  0  0  0  0  0  0  0  0  0  0
   -0.0761   -2.6756    7.0689 C   0  0  0  0  0  0  0  0  0  0  0  0
   -1.5928   -1.6074   10.2796 N   0  0  0  0  0  0  0  0  0  0  0  0
   -2.5254   -0.5779   10.0480 C   0  0  0  0  0  0  0  0  0  0  0  0
   -3.1515   -0.4946    8.9960 O   0  0  0  0  0  0  0  0  0  0  0  0
   -2.7750    0.4226   11.0555 N   0  0  0  0  0  0  0  0  0  0  0  0
   -2.6148    1.8048   10.7638 C   0  0  0  0  0  0  0  0  0  0  0  0
   -1.9266    2.6182   11.6400 C   0  0  0  0  0  0  0  0  0  0  0  0
   -1.7979    3.9552   11.3115 C   0  0  0  0  0  0  0  0  0  0  0  0
   -2.3292    4.4375   10.1733 N   0  0  0  0  0  0  0  0  0  0  0  0
   -3.0024    3.6385    9.3174 C   0  0  0  0  0  0  0  0  0  0  0  0
   -3.1649    2.2856    9.5930 C   0  0  0  0  0  0  0  0  0  0  0  0
   -1.1069    4.8052   12.1776 C   0  0  0  0  0  0  0  0  0  0  0  0
   -0.5526    4.3329   13.3520 C   0  0  0  0  0  0  0  0  0  0  0  0
   -0.7119    2.9863   13.6307 C   0  0  0  0  0  0  0  0  0  0  0  0
   -1.3866    2.1666   12.7808 N   0  0  0  0  0  0  0  0  0  0  0  0
  1  2  1  0
  2  3  2  0
  3  4  1  0
  4  5  2  0
  5  6  1  0
  5  7  1  0
  7  8  2  0
  8  9  1  0
  9 10  2  0
  8 11  1  0
 11 12  1  0
 12 13  2  0
 12 14  1  0
 14 15  1  0
 15 16  2  0
 16 17  1  0
 17 18  2  0
 18 19  1  0
 19 20  2  0
 17 21  1  0
 21 22  2  0
 22 23  1  0
 23 24  2  0
  6  2  1  0
 10  4  1  0
 20 15  1  0
 24 16  1  0
M  END
$$$$
