
     RDKit          3D

 24 27  0  0  0  0  0  0  0  0999 V2000
   -5.7418    4.8225   12.3937 C   0  0  0  0  0  0  0  0  0  0  0  0
   -5.1619    3.5125   12.0371 C   0  0  0  0  0  0  0  0  0  0  0  0
   -5.2904    2.4083   12.7986 N   0  0  0  0  0  0  0  0  0  0  0  0
   -4.6416    1.4123   12.1696 C   0  0  0  0  0  0  0  0  0  0  0  0
   -4.1187    1.9565   11.0036 C   0  0  0  0  0  0  0  0  0  0  0  0
   -4.4649    3.2199   10.9809 O   0  0  0  0  0  0  0  0  0  0  0  0
   -3.4057    1.1207   10.1857 C   0  0  0  0  0  0  0  0  0  0  0  0
   -3.1794   -0.2297   10.4573 C   0  0  0  0  0  0  0  0  0  0  0  0
   -3.7042   -0.7411   11.6107 C   0  0  0  0  0  0  0  0  0  0  0  0
   -4.4430    0.0850   12.4776 C   0  0  0  0  0  0  0  0  0  0  0  0
   -2.4345   -1.0257    9.5652 N   0  0  0  0  0  0  0  0  0  0  0  0
   -1.9705   -2.3370    9.7856 C   0  0  0  0  0  0  0  0  0  0  0  0
   -1.9746   -2.8473   10.9015 O   0  0  0  0  0  0  0  0  0  0  0  0
   -1.4701   -3.1292    8.6899 N   0  0  0  0  0  0  0  0  0  0  0  0
   -0.4898   -2.6068    7.8026 C   0  0  0  0  0  0  0  0  0  0  0  0
    0.5978   -3.3774    7.4473 C   0  0  0  0  0  0  0  0  0  0  0  0
    1.5235   -2.8245    6.5817 C   0  0  0  0  0  0  0  0  0  0  0  0
    1.3606   -1.5760    6.1070 N   0  0  0  0  0  0  0  0  0  0  0  0
    0.2946   -0.8241    6.4568 C   0  0  0  0  0  0  0  0  0  0  0  0
   -0.6698   -1.3251    7.3237 C   0  0  0  0  0  0  0  0  0  0  0  0
    2.6359   -3.5787    6.2024 C   0  0  0  0  0  0  0  0  0  0  0  0
    2.8246   -4.8629    6.6768 C   0  0  0  0  0  0  0  0  0  0  0  0
    1.8669   -5.3661    7.5403 C   0  0  0  0  0  0  0  0  0  0  0  0
    0.7869   -4.6235    7.9037 N   0  0  0  0  0  0  0  0  0  0  0  0
  1  2  1  0
  2  3  2  0
  3  4  1  0
  4  5  2  0
  5  6  1  0
  5  7  1  0
  7  8  2  0
  8  9  1  0
  9 10  2  0
  8 11  1  0
 11 12  1  0
 12 13  2  0
 12 14  1  0
 14 15  1  0
 15 16  2  0
 16 17  1  0
 17 18  2  0
 18 19  1  0
 19 20  2  0
 17 21  1  0
 21 22  2  0
 22 23  1  0
 23 24  2  0
  6  2  1  0
 10  4  1  0
 20 15  1  0
 24 16  1  0
M  END
$$$$
