
     RDKit          3D

 24 27  0  0  0  0  0  0  0  0999 V2000
   -6.7594   -4.9524   13.7046 C   0  0  0  0  0  0  0  0  0  0  0  0
   -5.8432   -3.9857   13.0678 C   0  0  0  0  0  0  0  0  0  0  0  0
   -5.6900   -2.7150   13.4893 N   0  0  0  0  0  0  0  0  0  0  0  0
   -4.7848   -2.1336   12.6822 C   0  0  0  0  0  0  0  0  0  0  0  0
   -4.3995   -3.0991   11.7612 C   0  0  0  0  0  0  0  0  0  0  0  0
   -5.0694   -4.1888   12.0446 O   0  0  0  0  0  0  0  0  0  0  0  0
   -3.4708   -2.7357   10.8224 C   0  0  0  0  0  0  0  0  0  0  0  0
   -2.8989   -1.4649   10.7425 C   0  0  0  0  0  0  0  0  0  0  0  0
   -3.2946   -0.5327   11.6600 C   0  0  0  0  0  0  0  0  0  0  0  0
   -4.2466   -0.8668   12.6408 C   0  0  0  0  0  0  0  0  0  0  0  0
   -1.9485   -1.1673    9.7463 N   0  0  0  0  0  0  0  0  0  0  0  0
   -0.7504   -0.4450    9.9077 C   0  0  0  0  0  0  0  0  0  0  0  0
   -0.7242    0.6540   10.4528 O   0  0  0  0  0  0  0  0  0  0  0  0
    0.4984   -0.9843    9.4301 N   0  0  0  0  0  0  0  0  0  0  0  0
    1.0250   -0.5930    8.1688 C   0  0  0  0  0  0  0  0  0  0  0  0
    1.6694   -1.5186    7.3746 C   0  0  0  0  0  0  0  0  0  0  0  0
    2.1640   -1.0890    6.1569 C   0  0  0  0  0  0  0  0  0  0  0  0
    2.0169    0.1908    5.7682 N   0  0  0  0  0  0  0  0  0  0  0  0
    1.3854    1.0947    6.5482 C   0  0  0  0  0  0  0  0  0  0  0  0
    0.8668    0.7226    7.7832 C   0  0  0  0  0  0  0  0  0  0  0  0
    2.8217   -2.0015    5.3293 C   0  0  0  0  0  0  0  0  0  0  0  0
    2.9848   -3.3207    5.7069 C   0  0  0  0  0  0  0  0  0  0  0  0
    2.4700   -3.6959    6.9359 C   0  0  0  0  0  0  0  0  0  0  0  0
    1.8311   -2.7996    7.7347 N   0  0  0  0  0  0  0  0  0  0  0  0
  1  2  1  0
  2  3  2  0
  3  4  1  0
  4  5  2  0
  5  6  1  0
  5  7  1  0
  7  8  2  0
  8  9  1  0
  9 10  2  0
  8 11  1  0
 11 12  1  0
 12 13  2  0
 12 14  1  0
 14 15  1  0
 15 16  2  0
 16 17  1  0
 17 18  2  0
 18 19  1  0
 19 20  2  0
 17 21  1  0
 21 22  2  0
 22 23  1  0
 23 24  2  0
  6  2  1  0
 10  4  1  0
 20 15  1  0
 24 16  1  0
M  END
$$$$
