
     RDKit          3D

 24 27  0  0  0  0  0  0  0  0999 V2000
   -5.3831    2.1338   13.4259 C   0  0  0  0  0  0  0  0  0  0  0  0
   -4.7259    1.0730   12.6371 C   0  0  0  0  0  0  0  0  0  0  0  0
   -4.8938    0.9192   11.3090 N   0  0  0  0  0  0  0  0  0  0  0  0
   -4.1508   -0.1369   10.9328 C   0  0  0  0  0  0  0  0  0  0  0  0
   -3.5307   -0.6122   12.0810 C   0  0  0  0  0  0  0  0  0  0  0  0
   -3.9153    0.1554   13.0707 O   0  0  0  0  0  0  0  0  0  0  0  0
   -2.7101   -1.7005   11.9465 C   0  0  0  0  0  0  0  0  0  0  0  0
   -2.4670   -2.3485   10.7342 C   0  0  0  0  0  0  0  0  0  0  0  0
   -3.0890   -1.8617    9.6191 C   0  0  0  0  0  0  0  0  0  0  0  0
   -3.9399   -0.7452    9.7157 C   0  0  0  0  0  0  0  0  0  0  0  0
   -1.6086   -3.4639   10.6767 N   0  0  0  0  0  0  0  0  0  0  0  0
   -0.8279   -3.8758    9.5793 C   0  0  0  0  0  0  0  0  0  0  0  0
   -1.2824   -4.5918    8.6925 O   0  0  0  0  0  0  0  0  0  0  0  0
    0.5483   -3.4618    9.4648 N   0  0  0  0  0  0  0  0  0  0  0  0
    1.1710   -3.3500    8.1917 C   0  0  0  0  0  0  0  0  0  0  0  0
    1.4117   -2.1043    7.6501 C   0  0  0  0  0  0  0  0  0  0  0  0
    2.0195   -2.0482    6.4093 C   0  0  0  0  0  0  0  0  0  0  0  0
    2.3611   -3.1759    5.7597 N   0  0  0  0  0  0  0  0  0  0  0  0
    2.1241   -4.3940    6.2927 C   0  0  0  0  0  0  0  0  0  0  0  0
    1.5158   -4.5148    7.5370 C   0  0  0  0  0  0  0  0  0  0  0  0
    2.2770   -0.8023    5.8334 C   0  0  0  0  0  0  0  0  0  0  0  0
    1.9353    0.3694    6.4814 C   0  0  0  0  0  0  0  0  0  0  0  0
    1.3294    0.2542    7.7207 C   0  0  0  0  0  0  0  0  0  0  0  0
    1.0828   -0.9639    8.2732 N   0  0  0  0  0  0  0  0  0  0  0  0
  1  2  1  0
  2  3  2  0
  3  4  1  0
  4  5  2  0
  5  6  1  0
  5  7  1  0
  7  8  2  0
  8  9  1  0
  9 10  2  0
  8 11  1  0
 11 12  1  0
 12 13  2  0
 12 14  1  0
 14 15  1  0
 15 16  2  0
 16 17  1  0
 17 18  2  0
 18 19  1  0
 19 20  2  0
 17 21  1  0
 21 22  2  0
 22 23  1  0
 23 24  2  0
  6  2  1  0
 10  4  1  0
 20 15  1  0
 24 16  1  0
M  END
$$$$
