
     RDKit          3D

 24 27  0  0  0  0  0  0  0  0999 V2000
   -4.2895    3.7140   13.1958 C   0  0  0  0  0  0  0  0  0  0  0  0
   -3.9993    2.3229   12.7958 C   0  0  0  0  0  0  0  0  0  0  0  0
   -4.8236    1.2873   13.0485 N   0  0  0  0  0  0  0  0  0  0  0  0
   -4.2427    0.1834   12.5457 C   0  0  0  0  0  0  0  0  0  0  0  0
   -3.0408    0.5917   11.9821 C   0  0  0  0  0  0  0  0  0  0  0  0
   -2.9518    1.8861   12.1642 O   0  0  0  0  0  0  0  0  0  0  0  0
   -2.2616   -0.3720   11.3991 C   0  0  0  0  0  0  0  0  0  0  0  0
   -2.6056   -1.7236   11.3417 C   0  0  0  0  0  0  0  0  0  0  0  0
   -3.7932   -2.0999   11.9034 C   0  0  0  0  0  0  0  0  0  0  0  0
   -4.6223   -1.1398   12.5121 C   0  0  0  0  0  0  0  0  0  0  0  0
   -1.7496   -2.6561   10.7236 N   0  0  0  0  0  0  0  0  0  0  0  0
   -1.1186   -2.5259    9.4714 C   0  0  0  0  0  0  0  0  0  0  0  0
   -0.5723   -1.4829    9.1259 O   0  0  0  0  0  0  0  0  0  0  0  0
   -1.0961   -3.6309    8.5457 N   0  0  0  0  0  0  0  0  0  0  0  0
    0.1001   -3.9846    7.8637 C   0  0  0  0  0  0  0  0  0  0  0  0
    0.5448   -3.2144    6.8092 C   0  0  0  0  0  0  0  0  0  0  0  0
    1.7134   -3.5997    6.1784 C   0  0  0  0  0  0  0  0  0  0  0  0
    2.3873   -4.6906    6.5864 N   0  0  0  0  0  0  0  0  0  0  0  0
    1.9492   -5.4425    7.6192 C   0  0  0  0  0  0  0  0  0  0  0  0
    0.7807   -5.1057    8.2930 C   0  0  0  0  0  0  0  0  0  0  0  0
    2.1905   -2.8413    5.1073 C   0  0  0  0  0  0  0  0  0  0  0  0
    1.5159   -1.7172    4.6704 C   0  0  0  0  0  0  0  0  0  0  0  0
    0.3518   -1.3778    5.3383 C   0  0  0  0  0  0  0  0  0  0  0  0
   -0.1046   -2.1230    6.3804 N   0  0  0  0  0  0  0  0  0  0  0  0
  1  2  1  0
  2  3  2  0
  3  4  1  0
  4  5  2  0
  5  6  1  0
  5  7  1  0
  7  8  2  0
  8  9  1  0
  9 10  2  0
  8 11  1  0
 11 12  1  0
 12 13  2  0
 12 14  1  0
 14 15  1  0
 15 16  2  0
 16 17  1  0
 17 18  2  0
 18 19  1  0
 19 20  2  0
 17 21  1  0
 21 22  2  0
 22 23  1  0
 23 24  2  0
  6  2  1  0
 10  4  1  0
 20 15  1  0
 24 16  1  0
M  END
$$$$
