
     RDKit          3D

 24 27  0  0  0  0  0  0  0  0999 V2000
   -6.2428    3.9236   10.7065 C   0  0  0  0  0  0  0  0  0  0  0  0
   -5.4626    2.7346   11.1027 C   0  0  0  0  0  0  0  0  0  0  0  0
   -5.7145    2.0139   12.2131 N   0  0  0  0  0  0  0  0  0  0  0  0
   -4.8148    1.0151   12.2527 C   0  0  0  0  0  0  0  0  0  0  0  0
   -4.0136    1.1607   11.1276 C   0  0  0  0  0  0  0  0  0  0  0  0
   -4.4522    2.2102   10.4775 O   0  0  0  0  0  0  0  0  0  0  0  0
   -3.0103    0.2456   10.9489 C   0  0  0  0  0  0  0  0  0  0  0  0
   -2.7533   -0.8107   11.8246 C   0  0  0  0  0  0  0  0  0  0  0  0
   -3.5556   -0.9322   12.9241 C   0  0  0  0  0  0  0  0  0  0  0  0
   -4.5974   -0.0122   13.1435 C   0  0  0  0  0  0  0  0  0  0  0  0
   -1.7009   -1.7122   11.5717 N   0  0  0  0  0  0  0  0  0  0  0  0
   -1.5225   -2.5042   10.4210 C   0  0  0  0  0  0  0  0  0  0  0  0
   -2.4731   -2.9134    9.7617 O   0  0  0  0  0  0  0  0  0  0  0  0
   -0.1981   -2.8622    9.9781 N   0  0  0  0  0  0  0  0  0  0  0  0
    0.1154   -2.9184    8.5925 C   0  0  0  0  0  0  0  0  0  0  0  0
    0.9463   -1.9685    8.0356 C   0  0  0  0  0  0  0  0  0  0  0  0
    1.2210   -2.0662    6.6838 C   0  0  0  0  0  0  0  0  0  0  0  0
    0.6910   -3.0579    5.9448 N   0  0  0  0  0  0  0  0  0  0  0  0
   -0.1222   -3.9864    6.4931 C   0  0  0  0  0  0  0  0  0  0  0  0
   -0.4352   -3.9408    7.8469 C   0  0  0  0  0  0  0  0  0  0  0  0
    2.0587   -1.1202    6.0895 C   0  0  0  0  0  0  0  0  0  0  0  0
    2.6146   -0.0929    6.8280 C   0  0  0  0  0  0  0  0  0  0  0  0
    2.3058   -0.0434    8.1765 C   0  0  0  0  0  0  0  0  0  0  0  0
    1.4888   -0.9696    8.7460 N   0  0  0  0  0  0  0  0  0  0  0  0
  1  2  1  0
  2  3  2  0
  3  4  1  0
  4  5  2  0
  5  6  1  0
  5  7  1  0
  7  8  2  0
  8  9  1  0
  9 10  2  0
  8 11  1  0
 11 12  1  0
 12 13  2  0
 12 14  1  0
 14 15  1  0
 15 16  2  0
 16 17  1  0
 17 18  2  0
 18 19  1  0
 19 20  2  0
 17 21  1  0
 21 22  2  0
 22 23  1  0
 23 24  2  0
  6  2  1  0
 10  4  1  0
 20 15  1  0
 24 16  1  0
M  END
$$$$
