
     RDKit          3D

 24 27  0  0  0  0  0  0  0  0999 V2000
   -6.5801    4.0818   12.1510 C   0  0  0  0  0  0  0  0  0  0  0  0
   -5.7056    2.8999   12.0179 C   0  0  0  0  0  0  0  0  0  0  0  0
   -6.0229    1.6803   12.4949 N   0  0  0  0  0  0  0  0  0  0  0  0
   -5.0026    0.8570   12.1951 C   0  0  0  0  0  0  0  0  0  0  0  0
   -4.0612    1.6244   11.5214 C   0  0  0  0  0  0  0  0  0  0  0  0
   -4.5407    2.8413   11.4464 O   0  0  0  0  0  0  0  0  0  0  0  0
   -2.9170    0.9945   11.1089 C   0  0  0  0  0  0  0  0  0  0  0  0
   -2.6500   -0.3583   11.3263 C   0  0  0  0  0  0  0  0  0  0  0  0
   -3.5919   -1.0915   11.9914 C   0  0  0  0  0  0  0  0  0  0  0  0
   -4.7809   -0.4813   12.4316 C   0  0  0  0  0  0  0  0  0  0  0  0
   -1.4480   -0.9344   10.8707 N   0  0  0  0  0  0  0  0  0  0  0  0
   -1.2908   -2.1933   10.2594 C   0  0  0  0  0  0  0  0  0  0  0  0
   -2.2490   -2.9200   10.0158 O   0  0  0  0  0  0  0  0  0  0  0  0
    0.0201   -2.6713    9.8968 N   0  0  0  0  0  0  0  0  0  0  0  0
    0.3263   -3.0037    8.5489 C   0  0  0  0  0  0  0  0  0  0  0  0
    1.1649   -2.1923    7.8132 C   0  0  0  0  0  0  0  0  0  0  0  0
    1.4320   -2.5583    6.5067 C   0  0  0  0  0  0  0  0  0  0  0  0
    0.8877   -3.6702    5.9794 N   0  0  0  0  0  0  0  0  0  0  0  0
    0.0669   -4.4625    6.7025 C   0  0  0  0  0  0  0  0  0  0  0  0
   -0.2390   -4.1467    8.0214 C   0  0  0  0  0  0  0  0  0  0  0  0
    2.2772   -1.7582    5.7351 C   0  0  0  0  0  0  0  0  0  0  0  0
    2.8479   -0.6119    6.2546 C   0  0  0  0  0  0  0  0  0  0  0  0
    2.5461   -0.2934    7.5676 C   0  0  0  0  0  0  0  0  0  0  0  0
    1.7218   -1.0792    8.3109 N   0  0  0  0  0  0  0  0  0  0  0  0
  1  2  1  0
  2  3  2  0
  3  4  1  0
  4  5  2  0
  5  6  1  0
  5  7  1  0
  7  8  2  0
  8  9  1  0
  9 10  2  0
  8 11  1  0
 11 12  1  0
 12 13  2  0
 12 14  1  0
 14 15  1  0
 15 16  2  0
 16 17  1  0
 17 18  2  0
 18 19  1  0
 19 20  2  0
 17 21  1  0
 21 22  2  0
 22 23  1  0
 23 24  2  0
  6  2  1  0
 10  4  1  0
 20 15  1  0
 24 16  1  0
M  END
$$$$
