
     RDKit          3D

 24 27  0  0  0  0  0  0  0  0999 V2000
   -6.8102    3.4689   13.0290 C   0  0  0  0  0  0  0  0  0  0  0  0
   -5.6755    2.7662   12.3980 C   0  0  0  0  0  0  0  0  0  0  0  0
   -4.5641    3.3889   11.9591 N   0  0  0  0  0  0  0  0  0  0  0  0
   -3.7537    2.4451   11.4481 C   0  0  0  0  0  0  0  0  0  0  0  0
   -4.4168    1.2337   11.5952 C   0  0  0  0  0  0  0  0  0  0  0  0
   -5.5646    1.4920   12.1716 O   0  0  0  0  0  0  0  0  0  0  0  0
   -3.7790    0.1099   11.1409 C   0  0  0  0  0  0  0  0  0  0  0  0
   -2.5160    0.1167   10.5464 C   0  0  0  0  0  0  0  0  0  0  0  0
   -1.8844    1.3211   10.4132 C   0  0  0  0  0  0  0  0  0  0  0  0
   -2.5063    2.4988   10.8673 C   0  0  0  0  0  0  0  0  0  0  0  0
   -1.9251   -1.0830   10.1039 N   0  0  0  0  0  0  0  0  0  0  0  0
   -1.0174   -1.2370    9.0383 C   0  0  0  0  0  0  0  0  0  0  0  0
   -0.1280   -0.4201    8.8208 O   0  0  0  0  0  0  0  0  0  0  0  0
   -1.1086   -2.3761    8.1592 N   0  0  0  0  0  0  0  0  0  0  0  0
    0.0607   -2.9538    7.5932 C   0  0  0  0  0  0  0  0  0  0  0  0
    0.3233   -4.2956    7.7761 C   0  0  0  0  0  0  0  0  0  0  0  0
    1.4731   -4.8102    7.2059 C   0  0  0  0  0  0  0  0  0  0  0  0
    2.3019   -4.0210    6.4982 N   0  0  0  0  0  0  0  0  0  0  0  0
    2.0420   -2.7076    6.3210 C   0  0  0  0  0  0  0  0  0  0  0  0
    0.9015   -2.1326    6.8701 C   0  0  0  0  0  0  0  0  0  0  0  0
    1.7678   -6.1650    7.3725 C   0  0  0  0  0  0  0  0  0  0  0  0
    0.9319   -6.9951    8.0949 C   0  0  0  0  0  0  0  0  0  0  0  0
   -0.2050   -6.4269    8.6435 C   0  0  0  0  0  0  0  0  0  0  0  0
   -0.4832   -5.1063    8.4756 N   0  0  0  0  0  0  0  0  0  0  0  0
  1  2  1  0
  2  3  2  0
  3  4  1  0
  4  5  2  0
  5  6  1  0
  5  7  1  0
  7  8  2  0
  8  9  1  0
  9 10  2  0
  8 11  1  0
 11 12  1  0
 12 13  2  0
 12 14  1  0
 14 15  1  0
 15 16  2  0
 16 17  1  0
 17 18  2  0
 18 19  1  0
 19 20  2  0
 17 21  1  0
 21 22  2  0
 22 23  1  0
 23 24  2  0
  6  2  1  0
 10  4  1  0
 20 15  1  0
 24 16  1  0
M  END
$$$$
