
     RDKit          3D

 24 27  0  0  0  0  0  0  0  0999 V2000
   -5.8252    4.6946   12.1477 C   0  0  0  0  0  0  0  0  0  0  0  0
   -5.1950    3.3739   11.9525 C   0  0  0  0  0  0  0  0  0  0  0  0
   -5.6316    2.2449   12.5445 N   0  0  0  0  0  0  0  0  0  0  0  0
   -4.8263    1.2461   12.1411 C   0  0  0  0  0  0  0  0  0  0  0  0
   -3.8908    1.8142   11.2861 C   0  0  0  0  0  0  0  0  0  0  0  0
   -4.1646    3.0934   11.2133 O   0  0  0  0  0  0  0  0  0  0  0  0
   -2.9509    0.9804   10.7411 C   0  0  0  0  0  0  0  0  0  0  0  0
   -2.8836   -0.3906   10.9951 C   0  0  0  0  0  0  0  0  0  0  0  0
   -3.8153   -0.9253   11.8397 C   0  0  0  0  0  0  0  0  0  0  0  0
   -4.7977   -0.1020   12.4201 C   0  0  0  0  0  0  0  0  0  0  0  0
   -1.8853   -1.1831   10.3954 N   0  0  0  0  0  0  0  0  0  0  0  0
   -2.0541   -2.4445    9.7925 C   0  0  0  0  0  0  0  0  0  0  0  0
   -2.5425   -3.3929   10.3988 O   0  0  0  0  0  0  0  0  0  0  0  0
   -1.6519   -2.6609    8.4250 N   0  0  0  0  0  0  0  0  0  0  0  0
   -0.7806   -3.7311    8.0836 C   0  0  0  0  0  0  0  0  0  0  0  0
    0.3663   -3.4807    7.3591 C   0  0  0  0  0  0  0  0  0  0  0  0
    1.1811   -4.5548    7.0518 C   0  0  0  0  0  0  0  0  0  0  0  0
    0.8581   -5.7988    7.4504 N   0  0  0  0  0  0  0  0  0  0  0  0
   -0.2656   -6.0405    8.1597 C   0  0  0  0  0  0  0  0  0  0  0  0
   -1.1245   -5.0013    8.4989 C   0  0  0  0  0  0  0  0  0  0  0  0
    2.3496   -4.3350    6.3195 C   0  0  0  0  0  0  0  0  0  0  0  0
    2.7023   -3.0666    5.8993 C   0  0  0  0  0  0  0  0  0  0  0  0
    1.8500   -2.0286    6.2348 C   0  0  0  0  0  0  0  0  0  0  0  0
    0.7142   -2.2531    6.9484 N   0  0  0  0  0  0  0  0  0  0  0  0
  1  2  1  0
  2  3  2  0
  3  4  1  0
  4  5  2  0
  5  6  1  0
  5  7  1  0
  7  8  2  0
  8  9  1  0
  9 10  2  0
  8 11  1  0
 11 12  1  0
 12 13  2  0
 12 14  1  0
 14 15  1  0
 15 16  2  0
 16 17  1  0
 17 18  2  0
 18 19  1  0
 19 20  2  0
 17 21  1  0
 21 22  2  0
 22 23  1  0
 23 24  2  0
  6  2  1  0
 10  4  1  0
 20 15  1  0
 24 16  1  0
M  END
$$$$
