
     RDKit          3D

 24 27  0  0  0  0  0  0  0  0999 V2000
   -4.8728    4.5030   12.1770 C   0  0  0  0  0  0  0  0  0  0  0  0
   -4.5172    3.0900   11.9396 C   0  0  0  0  0  0  0  0  0  0  0  0
   -5.3513    2.1967   11.3720 N   0  0  0  0  0  0  0  0  0  0  0  0
   -4.6989    1.0221   11.3153 C   0  0  0  0  0  0  0  0  0  0  0  0
   -3.4438    1.2406   11.8685 C   0  0  0  0  0  0  0  0  0  0  0  0
   -3.3954    2.5006   12.2243 O   0  0  0  0  0  0  0  0  0  0  0  0
   -2.5867    0.1735   11.9212 C   0  0  0  0  0  0  0  0  0  0  0  0
   -2.9025   -1.1039   11.4553 C   0  0  0  0  0  0  0  0  0  0  0  0
   -4.1435   -1.2931   10.9155 C   0  0  0  0  0  0  0  0  0  0  0  0
   -5.0531   -0.2220   10.8431 C   0  0  0  0  0  0  0  0  0  0  0  0
   -1.9654   -2.1519   11.5446 N   0  0  0  0  0  0  0  0  0  0  0  0
   -1.7854   -3.2071   10.6295 C   0  0  0  0  0  0  0  0  0  0  0  0
   -2.6746   -4.0188   10.3927 O   0  0  0  0  0  0  0  0  0  0  0  0
   -0.5324   -3.3661    9.9343 N   0  0  0  0  0  0  0  0  0  0  0  0
   -0.4513   -4.1497    8.7509 C   0  0  0  0  0  0  0  0  0  0  0  0
    0.5405   -3.8986    7.8255 C   0  0  0  0  0  0  0  0  0  0  0  0
    0.5773   -4.6880    6.6909 C   0  0  0  0  0  0  0  0  0  0  0  0
   -0.3279   -5.6659    6.5043 N   0  0  0  0  0  0  0  0  0  0  0  0
   -1.2977   -5.9093    7.4123 C   0  0  0  0  0  0  0  0  0  0  0  0
   -1.3862   -5.1490    8.5728 C   0  0  0  0  0  0  0  0  0  0  0  0
    1.5690   -4.4594    5.7346 C   0  0  0  0  0  0  0  0  0  0  0  0
    2.5094   -3.4611    5.9042 C   0  0  0  0  0  0  0  0  0  0  0  0
    2.4253   -2.7014    7.0584 C   0  0  0  0  0  0  0  0  0  0  0  0
    1.4557   -2.9320    7.9838 N   0  0  0  0  0  0  0  0  0  0  0  0
  1  2  1  0
  2  3  2  0
  3  4  1  0
  4  5  2  0
  5  6  1  0
  5  7  1  0
  7  8  2  0
  8  9  1  0
  9 10  2  0
  8 11  1  0
 11 12  1  0
 12 13  2  0
 12 14  1  0
 14 15  1  0
 15 16  2  0
 16 17  1  0
 17 18  2  0
 18 19  1  0
 19 20  2  0
 17 21  1  0
 21 22  2  0
 22 23  1  0
 23 24  2  0
  6  2  1  0
 10  4  1  0
 20 15  1  0
 24 16  1  0
M  END
$$$$
