
     RDKit          3D

 24 27  0  0  0  0  0  0  0  0999 V2000
    2.5422   -5.4493    5.1738 C   0  0  0  0  0  0  0  0  0  0  0  0
    1.6633   -4.8105    6.1732 C   0  0  0  0  0  0  0  0  0  0  0  0
    0.5942   -5.4190    6.7231 N   0  0  0  0  0  0  0  0  0  0  0  0
    0.0366   -4.5467    7.5816 C   0  0  0  0  0  0  0  0  0  0  0  0
    0.8078   -3.3929    7.5283 C   0  0  0  0  0  0  0  0  0  0  0  0
    1.7688   -3.6131    6.6653 O   0  0  0  0  0  0  0  0  0  0  0  0
    0.4296   -2.3477    8.3285 C   0  0  0  0  0  0  0  0  0  0  0  0
   -0.6740   -2.3794    9.1828 C   0  0  0  0  0  0  0  0  0  0  0  0
   -1.4166   -3.5260    9.2170 C   0  0  0  0  0  0  0  0  0  0  0  0
   -1.0607   -4.6223    8.4099 C   0  0  0  0  0  0  0  0  0  0  0  0
   -0.9993   -1.2617    9.9761 N   0  0  0  0  0  0  0  0  0  0  0  0
   -2.1251   -1.1134   10.8091 C   0  0  0  0  0  0  0  0  0  0  0  0
   -2.1472   -1.5544   11.9539 O   0  0  0  0  0  0  0  0  0  0  0  0
   -3.3014   -0.4291   10.3333 N   0  0  0  0  0  0  0  0  0  0  0  0
   -3.7237    0.7913   10.9280 C   0  0  0  0  0  0  0  0  0  0  0  0
   -2.8626    1.8679   10.9759 C   0  0  0  0  0  0  0  0  0  0  0  0
   -3.3201    3.0326   11.5645 C   0  0  0  0  0  0  0  0  0  0  0  0
   -4.5647    3.1039   12.0707 N   0  0  0  0  0  0  0  0  0  0  0  0
   -5.4054    2.0479   12.0222 C   0  0  0  0  0  0  0  0  0  0  0  0
   -5.0026    0.8499   11.4430 C   0  0  0  0  0  0  0  0  0  0  0  0
   -2.4728    4.1408   11.6289 C   0  0  0  0  0  0  0  0  0  0  0  0
   -1.1906    4.0915   11.1159 C   0  0  0  0  0  0  0  0  0  0  0  0
   -0.7851    2.9006   10.5381 C   0  0  0  0  0  0  0  0  0  0  0  0
   -1.6178    1.8269   10.4803 N   0  0  0  0  0  0  0  0  0  0  0  0
  1  2  1  0
  2  3  2  0
  3  4  1  0
  4  5  2  0
  5  6  1  0
  5  7  1  0
  7  8  2  0
  8  9  1  0
  9 10  2  0
  8 11  1  0
 11 12  1  0
 12 13  2  0
 12 14  1  0
 14 15  1  0
 15 16  2  0
 16 17  1  0
 17 18  2  0
 18 19  1  0
 19 20  2  0
 17 21  1  0
 21 22  2  0
 22 23  1  0
 23 24  2  0
  6  2  1  0
 10  4  1  0
 20 15  1  0
 24 16  1  0
M  END
$$$$
