
     RDKit          3D

 24 27  0  0  0  0  0  0  0  0999 V2000
   -5.1346    4.3725   12.9150 C   0  0  0  0  0  0  0  0  0  0  0  0
   -4.6929    3.0804   12.3540 C   0  0  0  0  0  0  0  0  0  0  0  0
   -5.5337    2.0697   12.0584 N   0  0  0  0  0  0  0  0  0  0  0  0
   -4.7891    1.0609   11.5721 C   0  0  0  0  0  0  0  0  0  0  0  0
   -3.4717    1.5005   11.5858 C   0  0  0  0  0  0  0  0  0  0  0  0
   -3.4790    2.7196   12.0657 O   0  0  0  0  0  0  0  0  0  0  0  0
   -2.5156    0.6325   11.1293 C   0  0  0  0  0  0  0  0  0  0  0  0
   -2.7903   -0.6522   10.6576 C   0  0  0  0  0  0  0  0  0  0  0  0
   -4.0941   -1.0612   10.6543 C   0  0  0  0  0  0  0  0  0  0  0  0
   -5.1060   -0.1989   11.1153 C   0  0  0  0  0  0  0  0  0  0  0  0
   -1.7505   -1.4873   10.2039 N   0  0  0  0  0  0  0  0  0  0  0  0
   -1.6610   -2.8849   10.3523 C   0  0  0  0  0  0  0  0  0  0  0  0
   -2.5945   -3.5518   10.7875 O   0  0  0  0  0  0  0  0  0  0  0  0
   -0.4519   -3.5824    9.9918 N   0  0  0  0  0  0  0  0  0  0  0  0
   -0.3082   -4.1728    8.7065 C   0  0  0  0  0  0  0  0  0  0  0  0
    0.7109   -3.7645    7.8713 C   0  0  0  0  0  0  0  0  0  0  0  0
    0.8086   -4.3691    6.6315 C   0  0  0  0  0  0  0  0  0  0  0  0
   -0.0656   -5.3226    6.2610 N   0  0  0  0  0  0  0  0  0  0  0  0
   -1.0623   -5.7201    7.0811 C   0  0  0  0  0  0  0  0  0  0  0  0
   -1.2118   -5.1493    8.3399 C   0  0  0  0  0  0  0  0  0  0  0  0
    1.8293   -3.9783    5.7624 C   0  0  0  0  0  0  0  0  0  0  0  0
    2.7387   -3.0014    6.1207 C   0  0  0  0  0  0  0  0  0  0  0  0
    2.5938   -2.4302    7.3733 C   0  0  0  0  0  0  0  0  0  0  0  0
    1.5963   -2.8177    8.2125 N   0  0  0  0  0  0  0  0  0  0  0  0
  1  2  1  0
  2  3  2  0
  3  4  1  0
  4  5  2  0
  5  6  1  0
  5  7  1  0
  7  8  2  0
  8  9  1  0
  9 10  2  0
  8 11  1  0
 11 12  1  0
 12 13  2  0
 12 14  1  0
 14 15  1  0
 15 16  2  0
 16 17  1  0
 17 18  2  0
 18 19  1  0
 19 20  2  0
 17 21  1  0
 21 22  2  0
 22 23  1  0
 23 24  2  0
  6  2  1  0
 10  4  1  0
 20 15  1  0
 24 16  1  0
M  END
$$$$
