
     RDKit          3D

 24 27  0  0  0  0  0  0  0  0999 V2000
   -6.6878    4.0666   12.4169 C   0  0  0  0  0  0  0  0  0  0  0  0
   -5.9187    2.8457   12.1047 C   0  0  0  0  0  0  0  0  0  0  0  0
   -6.2355    1.6241   12.5770 N   0  0  0  0  0  0  0  0  0  0  0  0
   -5.3255    0.7608   12.0918 C   0  0  0  0  0  0  0  0  0  0  0  0
   -4.4510    1.5062   11.3117 C   0  0  0  0  0  0  0  0  0  0  0  0
   -4.8597    2.7501   11.3589 O   0  0  0  0  0  0  0  0  0  0  0  0
   -3.4239    0.8343   10.7037 C   0  0  0  0  0  0  0  0  0  0  0  0
   -3.2118   -0.5401   10.8245 C   0  0  0  0  0  0  0  0  0  0  0  0
   -4.0860   -1.2511   11.5976 C   0  0  0  0  0  0  0  0  0  0  0  0
   -5.1543   -0.5975   12.2390 C   0  0  0  0  0  0  0  0  0  0  0  0
   -2.1308   -1.1595   10.1671 N   0  0  0  0  0  0  0  0  0  0  0  0
   -0.7959   -1.2262   10.6108 C   0  0  0  0  0  0  0  0  0  0  0  0
   -0.4297   -0.6839   11.6488 O   0  0  0  0  0  0  0  0  0  0  0  0
    0.1934   -1.9444    9.8465 N   0  0  0  0  0  0  0  0  0  0  0  0
    0.6747   -1.4286    8.6123 C   0  0  0  0  0  0  0  0  0  0  0  0
    1.0206   -2.2918    7.5934 C   0  0  0  0  0  0  0  0  0  0  0  0
    1.4834   -1.7413    6.4124 C   0  0  0  0  0  0  0  0  0  0  0  0
    1.5895   -0.4074    6.2710 N   0  0  0  0  0  0  0  0  0  0  0  0
    1.2499    0.4351    7.2705 C   0  0  0  0  0  0  0  0  0  0  0  0
    0.7782   -0.0587    8.4815 C   0  0  0  0  0  0  0  0  0  0  0  0
    1.8420   -2.5880    5.3614 C   0  0  0  0  0  0  0  0  0  0  0  0
    1.7417   -3.9609    5.4832 C   0  0  0  0  0  0  0  0  0  0  0  0
    1.2725   -4.4573    6.6872 C   0  0  0  0  0  0  0  0  0  0  0  0
    0.9258   -3.6242    7.7048 N   0  0  0  0  0  0  0  0  0  0  0  0
  1  2  1  0
  2  3  2  0
  3  4  1  0
  4  5  2  0
  5  6  1  0
  5  7  1  0
  7  8  2  0
  8  9  1  0
  9 10  2  0
  8 11  1  0
 11 12  1  0
 12 13  2  0
 12 14  1  0
 14 15  1  0
 15 16  2  0
 16 17  1  0
 17 18  2  0
 18 19  1  0
 19 20  2  0
 17 21  1  0
 21 22  2  0
 22 23  1  0
 23 24  2  0
  6  2  1  0
 10  4  1  0
 20 15  1  0
 24 16  1  0
M  END
$$$$
