
     RDKit          3D

 24 27  0  0  0  0  0  0  0  0999 V2000
   -5.6658    2.4042   14.2689 C   0  0  0  0  0  0  0  0  0  0  0  0
   -4.8497    1.5453   13.3881 C   0  0  0  0  0  0  0  0  0  0  0  0
   -3.6936    1.9433   12.8218 N   0  0  0  0  0  0  0  0  0  0  0  0
   -3.2309    0.9122   12.0929 C   0  0  0  0  0  0  0  0  0  0  0  0
   -4.1492   -0.1193   12.2409 C   0  0  0  0  0  0  0  0  0  0  0  0
   -5.0978    0.3218   13.0295 O   0  0  0  0  0  0  0  0  0  0  0  0
   -3.8887   -1.2909   11.5811 C   0  0  0  0  0  0  0  0  0  0  0  0
   -2.7657   -1.5011   10.7792 C   0  0  0  0  0  0  0  0  0  0  0  0
   -1.8773   -0.4710   10.6496 C   0  0  0  0  0  0  0  0  0  0  0  0
   -2.1089    0.7489   11.3114 C   0  0  0  0  0  0  0  0  0  0  0  0
   -2.5675   -2.7366   10.1320 N   0  0  0  0  0  0  0  0  0  0  0  0
   -1.3473   -3.2610    9.6637 C   0  0  0  0  0  0  0  0  0  0  0  0
   -0.5174   -3.7501   10.4239 O   0  0  0  0  0  0  0  0  0  0  0  0
   -1.0336   -3.2379    8.2568 N   0  0  0  0  0  0  0  0  0  0  0  0
    0.2184   -3.7162    7.7825 C   0  0  0  0  0  0  0  0  0  0  0  0
    0.8606   -3.0602    6.7529 C   0  0  0  0  0  0  0  0  0  0  0  0
    2.0759   -3.5642    6.3272 C   0  0  0  0  0  0  0  0  0  0  0  0
    2.6063   -4.6582    6.9040 N   0  0  0  0  0  0  0  0  0  0  0  0
    1.9749   -5.2981    7.9119 C   0  0  0  0  0  0  0  0  0  0  0  0
    0.7503   -4.8389    8.3833 C   0  0  0  0  0  0  0  0  0  0  0  0
    2.7516   -2.9232    5.2868 C   0  0  0  0  0  0  0  0  0  0  0  0
    2.2269   -1.7985    4.6791 C   0  0  0  0  0  0  0  0  0  0  0  0
    1.0077   -1.3375    5.1452 C   0  0  0  0  0  0  0  0  0  0  0  0
    0.3574   -1.9689    6.1591 N   0  0  0  0  0  0  0  0  0  0  0  0
  1  2  1  0
  2  3  2  0
  3  4  1  0
  4  5  2  0
  5  6  1  0
  5  7  1  0
  7  8  2  0
  8  9  1  0
  9 10  2  0
  8 11  1  0
 11 12  1  0
 12 13  2  0
 12 14  1  0
 14 15  1  0
 15 16  2  0
 16 17  1  0
 17 18  2  0
 18 19  1  0
 19 20  2  0
 17 21  1  0
 21 22  2  0
 22 23  1  0
 23 24  2  0
  6  2  1  0
 10  4  1  0
 20 15  1  0
 24 16  1  0
M  END
$$$$
