
     RDKit          3D

 24 27  0  0  0  0  0  0  0  0999 V2000
    2.5959   -6.1960    5.1937 C   0  0  0  0  0  0  0  0  0  0  0  0
    1.6406   -5.4753    6.0583 C   0  0  0  0  0  0  0  0  0  0  0  0
    0.6453   -6.0803    6.7357 N   0  0  0  0  0  0  0  0  0  0  0  0
   -0.0169   -5.1237    7.4103 C   0  0  0  0  0  0  0  0  0  0  0  0
    0.6152   -3.9229    7.1147 C   0  0  0  0  0  0  0  0  0  0  0  0
    1.6021   -4.1994    6.2986 O   0  0  0  0  0  0  0  0  0  0  0  0
    0.1114   -2.7891    7.6949 C   0  0  0  0  0  0  0  0  0  0  0  0
   -0.9878   -2.7758    8.5552 C   0  0  0  0  0  0  0  0  0  0  0  0
   -1.5921   -3.9701    8.8302 C   0  0  0  0  0  0  0  0  0  0  0  0
   -1.1047   -5.1576    8.2539 C   0  0  0  0  0  0  0  0  0  0  0  0
   -1.4473   -1.5668    9.1132 N   0  0  0  0  0  0  0  0  0  0  0  0
   -2.0068   -1.3833   10.3926 C   0  0  0  0  0  0  0  0  0  0  0  0
   -2.7120   -2.2375   10.9205 O   0  0  0  0  0  0  0  0  0  0  0  0
   -1.7632   -0.1685   11.1296 N   0  0  0  0  0  0  0  0  0  0  0  0
   -2.8172    0.7502   11.3868 C   0  0  0  0  0  0  0  0  0  0  0  0
   -2.5384    2.0925   11.5406 C   0  0  0  0  0  0  0  0  0  0  0  0
   -3.5977    2.9458   11.7893 C   0  0  0  0  0  0  0  0  0  0  0  0
   -4.8547    2.4736   11.8766 N   0  0  0  0  0  0  0  0  0  0  0  0
   -5.1244    1.1589   11.7254 C   0  0  0  0  0  0  0  0  0  0  0  0
   -4.1012    0.2520   11.4737 C   0  0  0  0  0  0  0  0  0  0  0  0
   -3.3490    4.3104   11.9500 C   0  0  0  0  0  0  0  0  0  0  0  0
   -2.0668    4.8186   11.8647 C   0  0  0  0  0  0  0  0  0  0  0  0
   -1.0446    3.9193   11.6141 C   0  0  0  0  0  0  0  0  0  0  0  0
   -1.2972    2.5919   11.4591 N   0  0  0  0  0  0  0  0  0  0  0  0
  1  2  1  0
  2  3  2  0
  3  4  1  0
  4  5  2  0
  5  6  1  0
  5  7  1  0
  7  8  2  0
  8  9  1  0
  9 10  2  0
  8 11  1  0
 11 12  1  0
 12 13  2  0
 12 14  1  0
 14 15  1  0
 15 16  2  0
 16 17  1  0
 17 18  2  0
 18 19  1  0
 19 20  2  0
 17 21  1  0
 21 22  2  0
 22 23  1  0
 23 24  2  0
  6  2  1  0
 10  4  1  0
 20 15  1  0
 24 16  1  0
M  END
$$$$
