
     RDKit          3D

 24 27  0  0  0  0  0  0  0  0999 V2000
   -6.4340    2.7124   13.3018 C   0  0  0  0  0  0  0  0  0  0  0  0
   -5.3461    2.0430   12.5617 C   0  0  0  0  0  0  0  0  0  0  0  0
   -4.2905    2.6955   12.0365 N   0  0  0  0  0  0  0  0  0  0  0  0
   -3.5100    1.7765   11.4406 C   0  0  0  0  0  0  0  0  0  0  0  0
   -4.1333    0.5493   11.6261 C   0  0  0  0  0  0  0  0  0  0  0  0
   -5.2303    0.7749   12.3058 O   0  0  0  0  0  0  0  0  0  0  0  0
   -3.5161   -0.5540   11.0991 C   0  0  0  0  0  0  0  0  0  0  0  0
   -2.3112   -0.5119   10.3955 C   0  0  0  0  0  0  0  0  0  0  0  0
   -1.7180    0.7075   10.2265 C   0  0  0  0  0  0  0  0  0  0  0  0
   -2.3204    1.8650   10.7528 C   0  0  0  0  0  0  0  0  0  0  0  0
   -1.7381   -1.6923    9.8831 N   0  0  0  0  0  0  0  0  0  0  0  0
   -0.6346   -1.7896    9.0136 C   0  0  0  0  0  0  0  0  0  0  0  0
    0.4367   -1.2455    9.2621 O   0  0  0  0  0  0  0  0  0  0  0  0
   -0.7337   -2.5426    7.7882 N   0  0  0  0  0  0  0  0  0  0  0  0
    0.3940   -3.2320    7.2647 C   0  0  0  0  0  0  0  0  0  0  0  0
    0.2254   -4.4446    6.6289 C   0  0  0  0  0  0  0  0  0  0  0  0
    1.3531   -5.0759    6.1370 C   0  0  0  0  0  0  0  0  0  0  0  0
    2.5696   -4.5186    6.2783 N   0  0  0  0  0  0  0  0  0  0  0  0
    2.7312   -3.3312    6.9013 C   0  0  0  0  0  0  0  0  0  0  0  0
    1.6353   -2.6486    7.4168 C   0  0  0  0  0  0  0  0  0  0  0  0
    1.2164   -6.3049    5.4881 C   0  0  0  0  0  0  0  0  0  0  0  0
   -0.0224   -6.8968    5.3310 C   0  0  0  0  0  0  0  0  0  0  0  0
   -1.1166   -6.2208    5.8428 C   0  0  0  0  0  0  0  0  0  0  0  0
   -0.9731   -5.0243    6.4731 N   0  0  0  0  0  0  0  0  0  0  0  0
  1  2  1  0
  2  3  2  0
  3  4  1  0
  4  5  2  0
  5  6  1  0
  5  7  1  0
  7  8  2  0
  8  9  1  0
  9 10  2  0
  8 11  1  0
 11 12  1  0
 12 13  2  0
 12 14  1  0
 14 15  1  0
 15 16  2  0
 16 17  1  0
 17 18  2  0
 18 19  1  0
 19 20  2  0
 17 21  1  0
 21 22  2  0
 22 23  1  0
 23 24  2  0
  6  2  1  0
 10  4  1  0
 20 15  1  0
 24 16  1  0
M  END
$$$$
