
     RDKit          3D

 24 27  0  0  0  0  0  0  0  0999 V2000
   -6.9630    0.2410   14.0363 C   0  0  0  0  0  0  0  0  0  0  0  0
   -5.8123   -0.4203   13.3898 C   0  0  0  0  0  0  0  0  0  0  0  0
   -4.8883   -1.1341   14.0624 N   0  0  0  0  0  0  0  0  0  0  0  0
   -3.9980   -1.5842   13.1605 C   0  0  0  0  0  0  0  0  0  0  0  0
   -4.4192   -1.1160   11.9226 C   0  0  0  0  0  0  0  0  0  0  0  0
   -5.5131   -0.4243   12.1259 O   0  0  0  0  0  0  0  0  0  0  0  0
   -3.6595   -1.4510   10.8333 C   0  0  0  0  0  0  0  0  0  0  0  0
   -2.5009   -2.2268   10.8995 C   0  0  0  0  0  0  0  0  0  0  0  0
   -2.1076   -2.6753   12.1289 C   0  0  0  0  0  0  0  0  0  0  0  0
   -2.8610   -2.3528   13.2727 C   0  0  0  0  0  0  0  0  0  0  0  0
   -1.7725   -2.5292    9.7323 N   0  0  0  0  0  0  0  0  0  0  0  0
   -0.5928   -1.9038    9.2846 C   0  0  0  0  0  0  0  0  0  0  0  0
    0.4734   -2.0293    9.8789 O   0  0  0  0  0  0  0  0  0  0  0  0
   -0.6043   -1.0861    8.0973 N   0  0  0  0  0  0  0  0  0  0  0  0
    0.5440   -0.9972    7.2639 C   0  0  0  0  0  0  0  0  0  0  0  0
    1.1069   -2.1438    6.7429 C   0  0  0  0  0  0  0  0  0  0  0  0
    2.2227   -2.0049    5.9380 C   0  0  0  0  0  0  0  0  0  0  0  0
    2.7351   -0.7883    5.6774 N   0  0  0  0  0  0  0  0  0  0  0  0
    2.1815    0.3324    6.1891 C   0  0  0  0  0  0  0  0  0  0  0  0
    1.0586    0.2568    7.0052 C   0  0  0  0  0  0  0  0  0  0  0  0
    2.8164   -3.1463    5.3950 C   0  0  0  0  0  0  0  0  0  0  0  0
    2.3083   -4.4061    5.6485 C   0  0  0  0  0  0  0  0  0  0  0  0
    1.1901   -4.4863    6.4606 C   0  0  0  0  0  0  0  0  0  0  0  0
    0.6192   -3.3687    6.9847 N   0  0  0  0  0  0  0  0  0  0  0  0
  1  2  1  0
  2  3  2  0
  3  4  1  0
  4  5  2  0
  5  6  1  0
  5  7  1  0
  7  8  2  0
  8  9  1  0
  9 10  2  0
  8 11  1  0
 11 12  1  0
 12 13  2  0
 12 14  1  0
 14 15  1  0
 15 16  2  0
 16 17  1  0
 17 18  2  0
 18 19  1  0
 19 20  2  0
 17 21  1  0
 21 22  2  0
 22 23  1  0
 23 24  2  0
  6  2  1  0
 10  4  1  0
 20 15  1  0
 24 16  1  0
M  END
$$$$
