
     RDKit          3D

 24 27  0  0  0  0  0  0  0  0999 V2000
   -7.1699    2.7411   14.0906 C   0  0  0  0  0  0  0  0  0  0  0  0
   -6.2718    2.0935   13.1142 C   0  0  0  0  0  0  0  0  0  0  0  0
   -5.8047    2.7077   12.0095 N   0  0  0  0  0  0  0  0  0  0  0  0
   -5.0242    1.8243   11.3621 C   0  0  0  0  0  0  0  0  0  0  0  0
   -5.0386    0.6580   12.1161 C   0  0  0  0  0  0  0  0  0  0  0  0
   -5.8047    0.8823   13.1550 O   0  0  0  0  0  0  0  0  0  0  0  0
   -4.3045   -0.4000   11.6497 C   0  0  0  0  0  0  0  0  0  0  0  0
   -3.5531   -0.3695   10.4737 C   0  0  0  0  0  0  0  0  0  0  0  0
   -3.5552    0.7894    9.7498 C   0  0  0  0  0  0  0  0  0  0  0  0
   -4.2968    1.8991   10.1953 C   0  0  0  0  0  0  0  0  0  0  0  0
   -2.8230   -1.5008   10.0595 N   0  0  0  0  0  0  0  0  0  0  0  0
   -1.4736   -1.5373    9.6580 C   0  0  0  0  0  0  0  0  0  0  0  0
   -0.8812   -0.5303    9.2831 O   0  0  0  0  0  0  0  0  0  0  0  0
   -0.7388   -2.7776    9.6764 N   0  0  0  0  0  0  0  0  0  0  0  0
   -0.0800   -3.2503    8.5086 C   0  0  0  0  0  0  0  0  0  0  0  0
    0.7859   -2.4230    7.8240 C   0  0  0  0  0  0  0  0  0  0  0  0
    1.4020   -2.9291    6.6943 C   0  0  0  0  0  0  0  0  0  0  0  0
    1.1589   -4.1873    6.2841 N   0  0  0  0  0  0  0  0  0  0  0  0
    0.3105   -4.9948    6.9566 C   0  0  0  0  0  0  0  0  0  0  0  0
   -0.3389   -4.5426    8.0997 C   0  0  0  0  0  0  0  0  0  0  0  0
    2.2843   -2.1169    5.9787 C   0  0  0  0  0  0  0  0  0  0  0  0
    2.5497   -0.8216    6.3805 C   0  0  0  0  0  0  0  0  0  0  0  0
    1.9054   -0.3669    7.5182 C   0  0  0  0  0  0  0  0  0  0  0  0
    1.0478   -1.1657    8.2082 N   0  0  0  0  0  0  0  0  0  0  0  0
  1  2  1  0
  2  3  2  0
  3  4  1  0
  4  5  2  0
  5  6  1  0
  5  7  1  0
  7  8  2  0
  8  9  1  0
  9 10  2  0
  8 11  1  0
 11 12  1  0
 12 13  2  0
 12 14  1  0
 14 15  1  0
 15 16  2  0
 16 17  1  0
 17 18  2  0
 18 19  1  0
 19 20  2  0
 17 21  1  0
 21 22  2  0
 22 23  1  0
 23 24  2  0
  6  2  1  0
 10  4  1  0
 20 15  1  0
 24 16  1  0
M  END
$$$$
