
     RDKit          3D

 24 27  0  0  0  0  0  0  0  0999 V2000
    2.0665   -6.3799    3.8740 C   0  0  0  0  0  0  0  0  0  0  0  0
    1.4121   -5.6735    4.9929 C   0  0  0  0  0  0  0  0  0  0  0  0
    0.4239   -6.2089    5.7364 N   0  0  0  0  0  0  0  0  0  0  0  0
    0.0735   -5.2907    6.6545 C   0  0  0  0  0  0  0  0  0  0  0  0
    0.8854   -4.1851    6.4368 C   0  0  0  0  0  0  0  0  0  0  0  0
    1.6672   -4.4761    5.4266 O   0  0  0  0  0  0  0  0  0  0  0  0
    0.7105   -3.1059    7.2618 C   0  0  0  0  0  0  0  0  0  0  0  0
   -0.2268   -3.0582    8.2951 C   0  0  0  0  0  0  0  0  0  0  0  0
   -1.0135   -4.1586    8.4888 C   0  0  0  0  0  0  0  0  0  0  0  0
   -0.8647   -5.2876    7.6624 C   0  0  0  0  0  0  0  0  0  0  0  0
   -0.3469   -1.9098    9.1021 N   0  0  0  0  0  0  0  0  0  0  0  0
   -1.2765   -1.6965   10.1382 C   0  0  0  0  0  0  0  0  0  0  0  0
   -1.4383   -2.5105   11.0421 O   0  0  0  0  0  0  0  0  0  0  0  0
   -2.0768   -0.4976   10.1670 N   0  0  0  0  0  0  0  0  0  0  0  0
   -1.4931    0.7731    9.9106 C   0  0  0  0  0  0  0  0  0  0  0  0
   -1.8262    1.8553   10.6984 C   0  0  0  0  0  0  0  0  0  0  0  0
   -1.2317    3.0698   10.4089 C   0  0  0  0  0  0  0  0  0  0  0  0
   -0.3588    3.1824    9.3910 N   0  0  0  0  0  0  0  0  0  0  0  0
   -0.0348    2.1208    8.6216 C   0  0  0  0  0  0  0  0  0  0  0  0
   -0.5997    0.8738    8.8636 C   0  0  0  0  0  0  0  0  0  0  0  0
   -1.5478    4.1850   11.1876 C   0  0  0  0  0  0  0  0  0  0  0  0
   -2.4412    4.0938   12.2379 C   0  0  0  0  0  0  0  0  0  0  0  0
   -3.0063    2.8540   12.4828 C   0  0  0  0  0  0  0  0  0  0  0  0
   -2.6919    1.7738   11.7185 N   0  0  0  0  0  0  0  0  0  0  0  0
  1  2  1  0
  2  3  2  0
  3  4  1  0
  4  5  2  0
  5  6  1  0
  5  7  1  0
  7  8  2  0
  8  9  1  0
  9 10  2  0
  8 11  1  0
 11 12  1  0
 12 13  2  0
 12 14  1  0
 14 15  1  0
 15 16  2  0
 16 17  1  0
 17 18  2  0
 18 19  1  0
 19 20  2  0
 17 21  1  0
 21 22  2  0
 22 23  1  0
 23 24  2  0
  6  2  1  0
 10  4  1  0
 20 15  1  0
 24 16  1  0
M  END
$$$$
