
     RDKit          3D

 24 27  0  0  0  0  0  0  0  0999 V2000
   -6.6857    2.1739   13.3110 C   0  0  0  0  0  0  0  0  0  0  0  0
   -5.5712    1.3891   12.7441 C   0  0  0  0  0  0  0  0  0  0  0  0
   -4.2724    1.6863   12.9449 N   0  0  0  0  0  0  0  0  0  0  0  0
   -3.5462    0.7665   12.2851 C   0  0  0  0  0  0  0  0  0  0  0  0
   -4.4539   -0.0938   11.6810 C   0  0  0  0  0  0  0  0  0  0  0  0
   -5.6528    0.3322   11.9935 O   0  0  0  0  0  0  0  0  0  0  0  0
   -3.9426   -1.1275   10.9420 C   0  0  0  0  0  0  0  0  0  0  0  0
   -2.5774   -1.3595   10.7660 C   0  0  0  0  0  0  0  0  0  0  0  0
   -1.7049   -0.4990   11.3706 C   0  0  0  0  0  0  0  0  0  0  0  0
   -2.1905    0.5755   12.1383 C   0  0  0  0  0  0  0  0  0  0  0  0
   -2.1288   -2.4462    9.9899 N   0  0  0  0  0  0  0  0  0  0  0  0
   -0.8678   -3.0698   10.0552 C   0  0  0  0  0  0  0  0  0  0  0  0
   -0.7070   -4.1505   10.6136 O   0  0  0  0  0  0  0  0  0  0  0  0
    0.2875   -2.4470    9.4588 N   0  0  0  0  0  0  0  0  0  0  0  0
    0.8392   -2.9462    8.2474 C   0  0  0  0  0  0  0  0  0  0  0  0
    1.3341   -2.0701    7.3037 C   0  0  0  0  0  0  0  0  0  0  0  0
    1.8603   -2.6046    6.1421 C   0  0  0  0  0  0  0  0  0  0  0  0
    1.8845   -3.9359    5.9475 N   0  0  0  0  0  0  0  0  0  0  0  0
    1.3991   -4.7910    6.8734 C   0  0  0  0  0  0  0  0  0  0  0  0
    0.8574   -4.3135    8.0614 C   0  0  0  0  0  0  0  0  0  0  0  0
    2.3694   -1.7445    5.1668 C   0  0  0  0  0  0  0  0  0  0  0  0
    2.3555   -0.3741    5.3442 C   0  0  0  0  0  0  0  0  0  0  0  0
    1.8171    0.1060    6.5257 C   0  0  0  0  0  0  0  0  0  0  0  0
    1.3237   -0.7399    7.4694 N   0  0  0  0  0  0  0  0  0  0  0  0
  1  2  1  0
  2  3  2  0
  3  4  1  0
  4  5  2  0
  5  6  1  0
  5  7  1  0
  7  8  2  0
  8  9  1  0
  9 10  2  0
  8 11  1  0
 11 12  1  0
 12 13  2  0
 12 14  1  0
 14 15  1  0
 15 16  2  0
 16 17  1  0
 17 18  2  0
 18 19  1  0
 19 20  2  0
 17 21  1  0
 21 22  2  0
 22 23  1  0
 23 24  2  0
  6  2  1  0
 10  4  1  0
 20 15  1  0
 24 16  1  0
M  END
$$$$
