
     RDKit          3D

 24 27  0  0  0  0  0  0  0  0999 V2000
   -6.0490    4.2969   12.0256 C   0  0  0  0  0  0  0  0  0  0  0  0
   -5.2449    3.0657   11.8960 C   0  0  0  0  0  0  0  0  0  0  0  0
   -5.3508    2.0147   12.7326 N   0  0  0  0  0  0  0  0  0  0  0  0
   -4.4753    1.0830   12.3153 C   0  0  0  0  0  0  0  0  0  0  0  0
   -3.8396    1.6107   11.1989 C   0  0  0  0  0  0  0  0  0  0  0  0
   -4.3446    2.8027   10.9975 O   0  0  0  0  0  0  0  0  0  0  0  0
   -2.8909    0.8325   10.5905 C   0  0  0  0  0  0  0  0  0  0  0  0
   -2.5336   -0.4447   11.0261 C   0  0  0  0  0  0  0  0  0  0  0  0
   -3.1735   -0.9414   12.1266 C   0  0  0  0  0  0  0  0  0  0  0  0
   -4.1545   -0.1728   12.7801 C   0  0  0  0  0  0  0  0  0  0  0  0
   -1.5465   -1.1845   10.3459 N   0  0  0  0  0  0  0  0  0  0  0  0
   -1.5095   -2.5806   10.1646 C   0  0  0  0  0  0  0  0  0  0  0  0
   -2.4934   -3.2865   10.3624 O   0  0  0  0  0  0  0  0  0  0  0  0
   -0.2962   -3.2300    9.7349 N   0  0  0  0  0  0  0  0  0  0  0  0
   -0.2936   -4.0929    8.6050 C   0  0  0  0  0  0  0  0  0  0  0  0
    0.6014   -3.8789    7.5773 C   0  0  0  0  0  0  0  0  0  0  0  0
    0.5644   -4.7454    6.5004 C   0  0  0  0  0  0  0  0  0  0  0  0
   -0.3183   -5.7604    6.4649 N   0  0  0  0  0  0  0  0  0  0  0  0
   -1.1932   -5.9672    7.4728 C   0  0  0  0  0  0  0  0  0  0  0  0
   -1.2043   -5.1295    8.5822 C   0  0  0  0  0  0  0  0  0  0  0  0
    1.4573   -4.5560    5.4436 C   0  0  0  0  0  0  0  0  0  0  0  0
    2.3727   -3.5209    5.4576 C   0  0  0  0  0  0  0  0  0  0  0  0
    2.3655   -2.6840    6.5603 C   0  0  0  0  0  0  0  0  0  0  0  0
    1.4918   -2.8769    7.5845 N   0  0  0  0  0  0  0  0  0  0  0  0
  1  2  1  0
  2  3  2  0
  3  4  1  0
  4  5  2  0
  5  6  1  0
  5  7  1  0
  7  8  2  0
  8  9  1  0
  9 10  2  0
  8 11  1  0
 11 12  1  0
 12 13  2  0
 12 14  1  0
 14 15  1  0
 15 16  2  0
 16 17  1  0
 17 18  2  0
 18 19  1  0
 19 20  2  0
 17 21  1  0
 21 22  2  0
 22 23  1  0
 23 24  2  0
  6  2  1  0
 10  4  1  0
 20 15  1  0
 24 16  1  0
M  END
$$$$
