
     RDKit          3D

 24 27  0  0  0  0  0  0  0  0999 V2000
    2.5465   -5.4743    5.3652 C   0  0  0  0  0  0  0  0  0  0  0  0
    1.6325   -4.9865    6.4169 C   0  0  0  0  0  0  0  0  0  0  0  0
    0.6723   -5.7454    6.9807 N   0  0  0  0  0  0  0  0  0  0  0  0
    0.0413   -4.9803    7.8891 C   0  0  0  0  0  0  0  0  0  0  0  0
    0.6558   -3.7353    7.8515 C   0  0  0  0  0  0  0  0  0  0  0  0
    1.6028   -3.8019    6.9486 O   0  0  0  0  0  0  0  0  0  0  0  0
    0.1781   -2.7737    8.7019 C   0  0  0  0  0  0  0  0  0  0  0  0
   -0.8783   -2.9750    9.5919 C   0  0  0  0  0  0  0  0  0  0  0  0
   -1.4661   -4.2085    9.6097 C   0  0  0  0  0  0  0  0  0  0  0  0
   -1.0044   -5.2234    8.7513 C   0  0  0  0  0  0  0  0  0  0  0  0
   -1.3130   -1.9346   10.4362 N   0  0  0  0  0  0  0  0  0  0  0  0
   -2.6387   -1.6523   10.8184 C   0  0  0  0  0  0  0  0  0  0  0  0
   -3.3028   -2.4393   11.4856 O   0  0  0  0  0  0  0  0  0  0  0  0
   -3.2628   -0.4118   10.4309 N   0  0  0  0  0  0  0  0  0  0  0  0
   -3.5743    0.5801   11.4006 C   0  0  0  0  0  0  0  0  0  0  0  0
   -2.9476    1.8081   11.3551 C   0  0  0  0  0  0  0  0  0  0  0  0
   -3.2846    2.7392   12.3203 C   0  0  0  0  0  0  0  0  0  0  0  0
   -4.1943    2.4481   13.2681 N   0  0  0  0  0  0  0  0  0  0  0  0
   -4.8061    1.2447   13.3099 C   0  0  0  0  0  0  0  0  0  0  0  0
   -4.5090    0.2677   12.3665 C   0  0  0  0  0  0  0  0  0  0  0  0
   -2.6681    3.9920   12.3020 C   0  0  0  0  0  0  0  0  0  0  0  0
   -1.7310    4.3139   11.3387 C   0  0  0  0  0  0  0  0  0  0  0  0
   -1.4319    3.3441   10.3972 C   0  0  0  0  0  0  0  0  0  0  0  0
   -2.0379    2.1269   10.4236 N   0  0  0  0  0  0  0  0  0  0  0  0
  1  2  1  0
  2  3  2  0
  3  4  1  0
  4  5  2  0
  5  6  1  0
  5  7  1  0
  7  8  2  0
  8  9  1  0
  9 10  2  0
  8 11  1  0
 11 12  1  0
 12 13  2  0
 12 14  1  0
 14 15  1  0
 15 16  2  0
 16 17  1  0
 17 18  2  0
 18 19  1  0
 19 20  2  0
 17 21  1  0
 21 22  2  0
 22 23  1  0
 23 24  2  0
  6  2  1  0
 10  4  1  0
 20 15  1  0
 24 16  1  0
M  END
$$$$
