
     RDKit          3D

 24 27  0  0  0  0  0  0  0  0999 V2000
    2.0775   -6.5087    4.5856 C   0  0  0  0  0  0  0  0  0  0  0  0
    1.3774   -5.9321    5.7504 C   0  0  0  0  0  0  0  0  0  0  0  0
    0.3320   -6.5247    6.3601 N   0  0  0  0  0  0  0  0  0  0  0  0
   -0.0468   -5.7228    7.3712 C   0  0  0  0  0  0  0  0  0  0  0  0
    0.8074   -4.6279    7.3478 C   0  0  0  0  0  0  0  0  0  0  0  0
    1.6397   -4.8118    6.3529 O   0  0  0  0  0  0  0  0  0  0  0  0
    0.6139   -3.6606    8.2979 C   0  0  0  0  0  0  0  0  0  0  0  0
   -0.3818   -3.7152    9.2747 C   0  0  0  0  0  0  0  0  0  0  0  0
   -1.2093   -4.8027    9.2765 C   0  0  0  0  0  0  0  0  0  0  0  0
   -1.0431   -5.8182    8.3169 C   0  0  0  0  0  0  0  0  0  0  0  0
   -0.5176   -2.6790   10.2193 N   0  0  0  0  0  0  0  0  0  0  0  0
   -1.4106   -1.5916   10.1608 C   0  0  0  0  0  0  0  0  0  0  0  0
   -2.3719   -1.5823    9.3982 O   0  0  0  0  0  0  0  0  0  0  0  0
   -1.2178   -0.4410   11.0078 N   0  0  0  0  0  0  0  0  0  0  0  0
   -2.1806    0.6043   11.0453 C   0  0  0  0  0  0  0  0  0  0  0  0
   -1.8106    1.8931   10.7208 C   0  0  0  0  0  0  0  0  0  0  0  0
   -2.7833    2.8745   10.7724 C   0  0  0  0  0  0  0  0  0  0  0  0
   -4.0456    2.5732   11.1281 N   0  0  0  0  0  0  0  0  0  0  0  0
   -4.4046    1.3104   11.4452 C   0  0  0  0  0  0  0  0  0  0  0  0
   -3.4711    0.2808   11.4118 C   0  0  0  0  0  0  0  0  0  0  0  0
   -2.4411    4.1894   10.4498 C   0  0  0  0  0  0  0  0  0  0  0  0
   -1.1516    4.5229   10.0817 C   0  0  0  0  0  0  0  0  0  0  0  0
   -0.2185    3.5009   10.0470 C   0  0  0  0  0  0  0  0  0  0  0  0
   -0.5618    2.2234   10.3630 N   0  0  0  0  0  0  0  0  0  0  0  0
  1  2  1  0
  2  3  2  0
  3  4  1  0
  4  5  2  0
  5  6  1  0
  5  7  1  0
  7  8  2  0
  8  9  1  0
  9 10  2  0
  8 11  1  0
 11 12  1  0
 12 13  2  0
 12 14  1  0
 14 15  1  0
 15 16  2  0
 16 17  1  0
 17 18  2  0
 18 19  1  0
 19 20  2  0
 17 21  1  0
 21 22  2  0
 22 23  1  0
 23 24  2  0
  6  2  1  0
 10  4  1  0
 20 15  1  0
 24 16  1  0
M  END
$$$$
