
     RDKit          3D

 24 27  0  0  0  0  0  0  0  0999 V2000
   -6.3782    4.1393   11.5797 C   0  0  0  0  0  0  0  0  0  0  0  0
   -5.6250    2.8717   11.5073 C   0  0  0  0  0  0  0  0  0  0  0  0
   -6.0227    1.7330   12.1082 N   0  0  0  0  0  0  0  0  0  0  0  0
   -5.1021    0.7929   11.8301 C   0  0  0  0  0  0  0  0  0  0  0  0
   -4.1375    1.4062   11.0413 C   0  0  0  0  0  0  0  0  0  0  0  0
   -4.5075    2.6530   10.8826 O   0  0  0  0  0  0  0  0  0  0  0  0
   -3.0831    0.6364   10.6272 C   0  0  0  0  0  0  0  0  0  0  0  0
   -2.9280   -0.7126   10.9509 C   0  0  0  0  0  0  0  0  0  0  0  0
   -3.8906   -1.2928   11.7281 C   0  0  0  0  0  0  0  0  0  0  0  0
   -4.9897   -0.5358   12.1738 C   0  0  0  0  0  0  0  0  0  0  0  0
   -1.8138   -1.4383   10.4860 N   0  0  0  0  0  0  0  0  0  0  0  0
   -1.4832   -2.7720   10.7946 C   0  0  0  0  0  0  0  0  0  0  0  0
   -1.8936   -3.3232   11.8112 O   0  0  0  0  0  0  0  0  0  0  0  0
   -0.6405   -3.5393    9.9117 N   0  0  0  0  0  0  0  0  0  0  0  0
    0.2466   -2.8927    9.0083 C   0  0  0  0  0  0  0  0  0  0  0  0
    0.5555   -3.4873    7.8025 C   0  0  0  0  0  0  0  0  0  0  0  0
    1.4231   -2.8187    6.9585 C   0  0  0  0  0  0  0  0  0  0  0  0
    1.9435   -1.6287    7.3100 N   0  0  0  0  0  0  0  0  0  0  0  0
    1.6390   -1.0492    8.4913 C   0  0  0  0  0  0  0  0  0  0  0  0
    0.7727   -1.6728    9.3820 C   0  0  0  0  0  0  0  0  0  0  0  0
    1.7560   -3.3938    5.7303 C   0  0  0  0  0  0  0  0  0  0  0  0
    1.2343   -4.6149    5.3475 C   0  0  0  0  0  0  0  0  0  0  0  0
    0.3711   -5.2397    6.2312 C   0  0  0  0  0  0  0  0  0  0  0  0
    0.0531   -4.6713    7.4251 N   0  0  0  0  0  0  0  0  0  0  0  0
  1  2  1  0
  2  3  2  0
  3  4  1  0
  4  5  2  0
  5  6  1  0
  5  7  1  0
  7  8  2  0
  8  9  1  0
  9 10  2  0
  8 11  1  0
 11 12  1  0
 12 13  2  0
 12 14  1  0
 14 15  1  0
 15 16  2  0
 16 17  1  0
 17 18  2  0
 18 19  1  0
 19 20  2  0
 17 21  1  0
 21 22  2  0
 22 23  1  0
 23 24  2  0
  6  2  1  0
 10  4  1  0
 20 15  1  0
 24 16  1  0
M  END
$$$$
