
     RDKit          3D

 24 27  0  0  0  0  0  0  0  0999 V2000
   -5.9865    3.9451   12.9117 C   0  0  0  0  0  0  0  0  0  0  0  0
   -5.2952    2.7287   12.4406 C   0  0  0  0  0  0  0  0  0  0  0  0
   -5.4292    1.5218   13.0247 N   0  0  0  0  0  0  0  0  0  0  0  0
   -4.6621    0.6582   12.3359 C   0  0  0  0  0  0  0  0  0  0  0  0
   -4.0625    1.3882   11.3177 C   0  0  0  0  0  0  0  0  0  0  0  0
   -4.4819    2.6240   11.4334 O   0  0  0  0  0  0  0  0  0  0  0  0
   -3.2231    0.7130   10.4719 C   0  0  0  0  0  0  0  0  0  0  0  0
   -2.9417   -0.6502   10.5767 C   0  0  0  0  0  0  0  0  0  0  0  0
   -3.5440   -1.3461   11.5868 C   0  0  0  0  0  0  0  0  0  0  0  0
   -4.4132   -0.6888   12.4769 C   0  0  0  0  0  0  0  0  0  0  0  0
   -2.0659   -1.2739    9.6666 N   0  0  0  0  0  0  0  0  0  0  0  0
   -1.2520   -2.3973    9.9090 C   0  0  0  0  0  0  0  0  0  0  0  0
   -1.7184   -3.4648   10.2944 O   0  0  0  0  0  0  0  0  0  0  0  0
    0.1737   -2.3241    9.7084 N   0  0  0  0  0  0  0  0  0  0  0  0
    0.7480   -2.6388    8.4465 C   0  0  0  0  0  0  0  0  0  0  0  0
    1.2734   -1.6350    7.6596 C   0  0  0  0  0  0  0  0  0  0  0  0
    1.8207   -1.9920    6.4409 C   0  0  0  0  0  0  0  0  0  0  0  0
    1.8357   -3.2777    6.0444 N   0  0  0  0  0  0  0  0  0  0  0  0
    1.3205   -4.2582    6.8173 C   0  0  0  0  0  0  0  0  0  0  0  0
    0.7566   -3.9615    8.0529 C   0  0  0  0  0  0  0  0  0  0  0  0
    2.3608   -0.9994    5.6206 C   0  0  0  0  0  0  0  0  0  0  0  0
    2.3568    0.3276    6.0063 C   0  0  0  0  0  0  0  0  0  0  0  0
    1.7963    0.6280    7.2359 C   0  0  0  0  0  0  0  0  0  0  0  0
    1.2727   -0.3461    8.0276 N   0  0  0  0  0  0  0  0  0  0  0  0
  1  2  1  0
  2  3  2  0
  3  4  1  0
  4  5  2  0
  5  6  1  0
  5  7  1  0
  7  8  2  0
  8  9  1  0
  9 10  2  0
  8 11  1  0
 11 12  1  0
 12 13  2  0
 12 14  1  0
 14 15  1  0
 15 16  2  0
 16 17  1  0
 17 18  2  0
 18 19  1  0
 19 20  2  0
 17 21  1  0
 21 22  2  0
 22 23  1  0
 23 24  2  0
  6  2  1  0
 10  4  1  0
 20 15  1  0
 24 16  1  0
M  END
$$$$
