
     RDKit          3D

 24 27  0  0  0  0  0  0  0  0999 V2000
   -5.6820    4.6169   12.5476 C   0  0  0  0  0  0  0  0  0  0  0  0
   -4.9562    3.3915   12.1590 C   0  0  0  0  0  0  0  0  0  0  0  0
   -3.6619    3.1654   12.4579 N   0  0  0  0  0  0  0  0  0  0  0  0
   -3.3401    1.9619   11.9513 C   0  0  0  0  0  0  0  0  0  0  0  0
   -4.4859    1.4728   11.3376 C   0  0  0  0  0  0  0  0  0  0  0  0
   -5.4215    2.3761   11.4961 O   0  0  0  0  0  0  0  0  0  0  0  0
   -4.4022    0.2425   10.7413 C   0  0  0  0  0  0  0  0  0  0  0  0
   -3.2433   -0.5352   10.7177 C   0  0  0  0  0  0  0  0  0  0  0  0
   -2.1293   -0.0318   11.3285 C   0  0  0  0  0  0  0  0  0  0  0  0
   -2.1745    1.2286   11.9523 C   0  0  0  0  0  0  0  0  0  0  0  0
   -3.2362   -1.7928   10.0832 N   0  0  0  0  0  0  0  0  0  0  0  0
   -2.1719   -2.7140   10.0411 C   0  0  0  0  0  0  0  0  0  0  0  0
   -1.4982   -2.9723   11.0336 O   0  0  0  0  0  0  0  0  0  0  0  0
   -1.8384   -3.3901    8.8122 N   0  0  0  0  0  0  0  0  0  0  0  0
   -0.5873   -4.0479    8.6600 C   0  0  0  0  0  0  0  0  0  0  0  0
    0.2212   -3.7490    7.5830 C   0  0  0  0  0  0  0  0  0  0  0  0
    1.4283   -4.4156    7.4793 C   0  0  0  0  0  0  0  0  0  0  0  0
    1.7935   -5.3236    8.4028 N   0  0  0  0  0  0  0  0  0  0  0  0
    0.9996   -5.6139    9.4562 C   0  0  0  0  0  0  0  0  0  0  0  0
   -0.2258   -4.9766    9.6145 C   0  0  0  0  0  0  0  0  0  0  0  0
    2.2698   -4.1357    6.4006 C   0  0  0  0  0  0  0  0  0  0  0  0
    1.9163   -3.2074    5.4400 C   0  0  0  0  0  0  0  0  0  0  0  0
    0.6970   -2.5702    5.5935 C   0  0  0  0  0  0  0  0  0  0  0  0
   -0.1155   -2.8497    6.6477 N   0  0  0  0  0  0  0  0  0  0  0  0
  1  2  1  0
  2  3  2  0
  3  4  1  0
  4  5  2  0
  5  6  1  0
  5  7  1  0
  7  8  2  0
  8  9  1  0
  9 10  2  0
  8 11  1  0
 11 12  1  0
 12 13  2  0
 12 14  1  0
 14 15  1  0
 15 16  2  0
 16 17  1  0
 17 18  2  0
 18 19  1  0
 19 20  2  0
 17 21  1  0
 21 22  2  0
 22 23  1  0
 23 24  2  0
  6  2  1  0
 10  4  1  0
 20 15  1  0
 24 16  1  0
M  END
$$$$
