
     RDKit          3D

 24 27  0  0  0  0  0  0  0  0999 V2000
   -6.6273    4.3861   12.7226 C   0  0  0  0  0  0  0  0  0  0  0  0
   -5.8649    3.1662   12.3911 C   0  0  0  0  0  0  0  0  0  0  0  0
   -6.0340    1.9873   13.0214 N   0  0  0  0  0  0  0  0  0  0  0  0
   -5.1808    1.1105   12.4628 C   0  0  0  0  0  0  0  0  0  0  0  0
   -4.4933    1.8035   11.4749 C   0  0  0  0  0  0  0  0  0  0  0  0
   -4.9484    3.0321   11.4806 O   0  0  0  0  0  0  0  0  0  0  0  0
   -3.5557    1.1089   10.7577 C   0  0  0  0  0  0  0  0  0  0  0  0
   -3.2583   -0.2393   10.9634 C   0  0  0  0  0  0  0  0  0  0  0  0
   -3.9484   -0.8989   11.9412 C   0  0  0  0  0  0  0  0  0  0  0  0
   -4.9198   -0.2205   12.7002 C   0  0  0  0  0  0  0  0  0  0  0  0
   -2.2789   -0.8849   10.1834 N   0  0  0  0  0  0  0  0  0  0  0  0
   -0.8831   -0.7188   10.2693 C   0  0  0  0  0  0  0  0  0  0  0  0
   -0.3779    0.2168   10.8818 O   0  0  0  0  0  0  0  0  0  0  0  0
    0.0055   -1.6573    9.6305 N   0  0  0  0  0  0  0  0  0  0  0  0
    0.6720   -1.3206    8.4208 C   0  0  0  0  0  0  0  0  0  0  0  0
    1.0613   -2.3163    7.5490 C   0  0  0  0  0  0  0  0  0  0  0  0
    1.7062   -1.9378    6.3858 C   0  0  0  0  0  0  0  0  0  0  0  0
    1.9416   -0.6396    6.1217 N   0  0  0  0  0  0  0  0  0  0  0  0
    1.5591    0.3329    6.9773 C   0  0  0  0  0  0  0  0  0  0  0  0
    0.9067    0.0147    8.1630 C   0  0  0  0  0  0  0  0  0  0  0  0
    2.1132   -2.9217    5.4824 C   0  0  0  0  0  0  0  0  0  0  0  0
    1.8825   -4.2612    5.7319 C   0  0  0  0  0  0  0  0  0  0  0  0
    1.2332   -4.5830    6.9114 C   0  0  0  0  0  0  0  0  0  0  0  0
    0.8407   -3.6172    7.7849 N   0  0  0  0  0  0  0  0  0  0  0  0
  1  2  1  0
  2  3  2  0
  3  4  1  0
  4  5  2  0
  5  6  1  0
  5  7  1  0
  7  8  2  0
  8  9  1  0
  9 10  2  0
  8 11  1  0
 11 12  1  0
 12 13  2  0
 12 14  1  0
 14 15  1  0
 15 16  2  0
 16 17  1  0
 17 18  2  0
 18 19  1  0
 19 20  2  0
 17 21  1  0
 21 22  2  0
 22 23  1  0
 23 24  2  0
  6  2  1  0
 10  4  1  0
 20 15  1  0
 24 16  1  0
M  END
$$$$
