
     RDKit          3D

 24 27  0  0  0  0  0  0  0  0999 V2000
   -6.6698    4.1872   13.1544 C   0  0  0  0  0  0  0  0  0  0  0  0
   -5.7019    3.1818   12.6728 C   0  0  0  0  0  0  0  0  0  0  0  0
   -4.6768    2.7189   13.4148 N   0  0  0  0  0  0  0  0  0  0  0  0
   -4.0114    1.8250   12.6618 C   0  0  0  0  0  0  0  0  0  0  0  0
   -4.6724    1.7669   11.4417 C   0  0  0  0  0  0  0  0  0  0  0  0
   -5.6781    2.6038   11.5099 O   0  0  0  0  0  0  0  0  0  0  0  0
   -4.1712    0.9118   10.4964 C   0  0  0  0  0  0  0  0  0  0  0  0
   -3.0475    0.1068   10.6907 C   0  0  0  0  0  0  0  0  0  0  0  0
   -2.4149    0.1822   11.8996 C   0  0  0  0  0  0  0  0  0  0  0  0
   -2.8988    1.0486   12.8972 C   0  0  0  0  0  0  0  0  0  0  0  0
   -2.5925   -0.7485    9.6682 N   0  0  0  0  0  0  0  0  0  0  0  0
   -1.3625   -1.4328    9.6214 C   0  0  0  0  0  0  0  0  0  0  0  0
   -0.5027   -1.2808   10.4836 O   0  0  0  0  0  0  0  0  0  0  0  0
   -1.0740   -2.3451    8.5430 N   0  0  0  0  0  0  0  0  0  0  0  0
   -0.1073   -3.3756    8.7007 C   0  0  0  0  0  0  0  0  0  0  0  0
    0.7813   -3.6478    7.6813 C   0  0  0  0  0  0  0  0  0  0  0  0
    1.7022   -4.6594    7.8829 C   0  0  0  0  0  0  0  0  0  0  0  0
    1.7234   -5.3495    9.0378 N   0  0  0  0  0  0  0  0  0  0  0  0
    0.8520   -5.0804   10.0340 C   0  0  0  0  0  0  0  0  0  0  0  0
   -0.0973   -4.0749    9.8903 C   0  0  0  0  0  0  0  0  0  0  0  0
    2.6157   -4.9598    6.8703 C   0  0  0  0  0  0  0  0  0  0  0  0
    2.6133   -4.2649    5.6758 C   0  0  0  0  0  0  0  0  0  0  0  0
    1.6698   -3.2628    5.5280 C   0  0  0  0  0  0  0  0  0  0  0  0
    0.7844   -2.9778    6.5203 N   0  0  0  0  0  0  0  0  0  0  0  0
  1  2  1  0
  2  3  2  0
  3  4  1  0
  4  5  2  0
  5  6  1  0
  5  7  1  0
  7  8  2  0
  8  9  1  0
  9 10  2  0
  8 11  1  0
 11 12  1  0
 12 13  2  0
 12 14  1  0
 14 15  1  0
 15 16  2  0
 16 17  1  0
 17 18  2  0
 18 19  1  0
 19 20  2  0
 17 21  1  0
 21 22  2  0
 22 23  1  0
 23 24  2  0
  6  2  1  0
 10  4  1  0
 20 15  1  0
 24 16  1  0
M  END
$$$$
