
     RDKit          3D

 24 27  0  0  0  0  0  0  0  0999 V2000
   -3.8328   -8.2605   13.7126 C   0  0  0  0  0  0  0  0  0  0  0  0
   -3.3771   -6.9525   13.2020 C   0  0  0  0  0  0  0  0  0  0  0  0
   -4.0719   -5.8084   13.3576 N   0  0  0  0  0  0  0  0  0  0  0  0
   -3.3619   -4.8279   12.7719 C   0  0  0  0  0  0  0  0  0  0  0  0
   -2.2163   -5.4225   12.2590 C   0  0  0  0  0  0  0  0  0  0  0  0
   -2.2834   -6.6983   12.5492 O   0  0  0  0  0  0  0  0  0  0  0  0
   -1.3259   -4.6109   11.6075 C   0  0  0  0  0  0  0  0  0  0  0  0
   -1.5054   -3.2376   11.4337 C   0  0  0  0  0  0  0  0  0  0  0  0
   -2.6405   -2.6765   11.9476 C   0  0  0  0  0  0  0  0  0  0  0  0
   -3.5800   -3.4764   12.6238 C   0  0  0  0  0  0  0  0  0  0  0  0
   -0.5424   -2.4690   10.7508 N   0  0  0  0  0  0  0  0  0  0  0  0
   -0.7782   -1.5318    9.7265 C   0  0  0  0  0  0  0  0  0  0  0  0
   -1.9099   -1.1504    9.4445 O   0  0  0  0  0  0  0  0  0  0  0  0
    0.3198   -0.9854    8.9687 N   0  0  0  0  0  0  0  0  0  0  0  0
    0.3095    0.3729    8.5489 C   0  0  0  0  0  0  0  0  0  0  0  0
    1.0928    0.7707    7.4854 C   0  0  0  0  0  0  0  0  0  0  0  0
    1.0480    2.1023    7.1153 C   0  0  0  0  0  0  0  0  0  0  0  0
    0.2637    2.9733    7.7762 N   0  0  0  0  0  0  0  0  0  0  0  0
   -0.5021    2.5806    8.8171 C   0  0  0  0  0  0  0  0  0  0  0  0
   -0.4995    1.2549    9.2359 C   0  0  0  0  0  0  0  0  0  0  0  0
    1.8291    2.5372    6.0426 C   0  0  0  0  0  0  0  0  0  0  0  0
    2.6422    1.6613    5.3487 C   0  0  0  0  0  0  0  0  0  0  0  0
    2.6481    0.3402    5.7621 C   0  0  0  0  0  0  0  0  0  0  0  0
    1.8836   -0.0735    6.8081 N   0  0  0  0  0  0  0  0  0  0  0  0
  1  2  1  0
  2  3  2  0
  3  4  1  0
  4  5  2  0
  5  6  1  0
  5  7  1  0
  7  8  2  0
  8  9  1  0
  9 10  2  0
  8 11  1  0
 11 12  1  0
 12 13  2  0
 12 14  1  0
 14 15  1  0
 15 16  2  0
 16 17  1  0
 17 18  2  0
 18 19  1  0
 19 20  2  0
 17 21  1  0
 21 22  2  0
 22 23  1  0
 23 24  2  0
  6  2  1  0
 10  4  1  0
 20 15  1  0
 24 16  1  0
M  END
$$$$
