
     RDKit          3D

 24 27  0  0  0  0  0  0  0  0999 V2000
    0.5500   -8.0040    4.9743 C   0  0  0  0  0  0  0  0  0  0  0  0
    0.2959   -6.9563    5.9828 C   0  0  0  0  0  0  0  0  0  0  0  0
    0.1296   -7.2101    7.2957 N   0  0  0  0  0  0  0  0  0  0  0  0
   -0.0798   -6.0304    7.9065 C   0  0  0  0  0  0  0  0  0  0  0  0
   -0.0334   -5.0589    6.9151 C   0  0  0  0  0  0  0  0  0  0  0  0
    0.1951   -5.6769    5.7827 O   0  0  0  0  0  0  0  0  0  0  0  0
   -0.2222   -3.7585    7.3013 C   0  0  0  0  0  0  0  0  0  0  0  0
   -0.4553   -3.3626    8.6195 C   0  0  0  0  0  0  0  0  0  0  0  0
   -0.4963   -4.3373    9.5764 C   0  0  0  0  0  0  0  0  0  0  0  0
   -0.3071   -5.6853    9.2201 C   0  0  0  0  0  0  0  0  0  0  0  0
   -0.6402   -2.0030    8.9381 N   0  0  0  0  0  0  0  0  0  0  0  0
   -0.9676   -1.4654   10.1979 C   0  0  0  0  0  0  0  0  0  0  0  0
   -0.5722   -1.9737   11.2424 O   0  0  0  0  0  0  0  0  0  0  0  0
   -1.7889   -0.2849   10.2978 N   0  0  0  0  0  0  0  0  0  0  0  0
   -1.2528    1.0008   10.0134 C   0  0  0  0  0  0  0  0  0  0  0  0
   -1.7911    2.1196   10.6146 C   0  0  0  0  0  0  0  0  0  0  0  0
   -1.2347    3.3472   10.3055 C   0  0  0  0  0  0  0  0  0  0  0  0
   -0.2032    3.4376    9.4461 N   0  0  0  0  0  0  0  0  0  0  0  0
    0.3215    2.3402    8.8592 C   0  0  0  0  0  0  0  0  0  0  0  0
   -0.1952    1.0783    9.1303 C   0  0  0  0  0  0  0  0  0  0  0  0
   -1.7567    4.4993   10.8973 C   0  0  0  0  0  0  0  0  0  0  0  0
   -2.8156    4.4315   11.7827 C   0  0  0  0  0  0  0  0  0  0  0  0
   -3.3334    3.1771   12.0558 C   0  0  0  0  0  0  0  0  0  0  0  0
   -2.8179    2.0609   11.4742 N   0  0  0  0  0  0  0  0  0  0  0  0
  1  2  1  0
  2  3  2  0
  3  4  1  0
  4  5  2  0
  5  6  1  0
  5  7  1  0
  7  8  2  0
  8  9  1  0
  9 10  2  0
  8 11  1  0
 11 12  1  0
 12 13  2  0
 12 14  1  0
 14 15  1  0
 15 16  2  0
 16 17  1  0
 17 18  2  0
 18 19  1  0
 19 20  2  0
 17 21  1  0
 21 22  2  0
 22 23  1  0
 23 24  2  0
  6  2  1  0
 10  4  1  0
 20 15  1  0
 24 16  1  0
M  END
$$$$
