
     RDKit          3D

 24 27  0  0  0  0  0  0  0  0999 V2000
   -6.6800    4.2139   13.0803 C   0  0  0  0  0  0  0  0  0  0  0  0
   -5.8764    3.0942   12.5511 C   0  0  0  0  0  0  0  0  0  0  0  0
   -6.1647    1.7975   12.7776 N   0  0  0  0  0  0  0  0  0  0  0  0
   -5.2284    1.0652   12.1486 C   0  0  0  0  0  0  0  0  0  0  0  0
   -4.3675    1.9668   11.5365 C   0  0  0  0  0  0  0  0  0  0  0  0
   -4.8091    3.1685   11.8147 O   0  0  0  0  0  0  0  0  0  0  0  0
   -3.3180    1.4486   10.8251 C   0  0  0  0  0  0  0  0  0  0  0  0
   -3.0708    0.0820   10.6843 C   0  0  0  0  0  0  0  0  0  0  0  0
   -3.9322   -0.7846   11.2961 C   0  0  0  0  0  0  0  0  0  0  0  0
   -5.0227   -0.2917   12.0363 C   0  0  0  0  0  0  0  0  0  0  0  0
   -1.9684   -0.3740    9.9351 N   0  0  0  0  0  0  0  0  0  0  0  0
   -1.5477   -1.7083    9.7743 C   0  0  0  0  0  0  0  0  0  0  0  0
   -2.3172   -2.6529    9.9200 O   0  0  0  0  0  0  0  0  0  0  0  0
   -0.1803   -2.0070    9.4287 N   0  0  0  0  0  0  0  0  0  0  0  0
    0.2778   -1.8724    8.0895 C   0  0  0  0  0  0  0  0  0  0  0  0
    0.9675   -2.9061    7.4906 C   0  0  0  0  0  0  0  0  0  0  0  0
    1.3921   -2.7267    6.1869 C   0  0  0  0  0  0  0  0  0  0  0  0
    1.1363   -1.5791    5.5325 N   0  0  0  0  0  0  0  0  0  0  0  0
    0.4607   -0.5689    6.1218 C   0  0  0  0  0  0  0  0  0  0  0  0
    0.0083   -0.6901    7.4308 C   0  0  0  0  0  0  0  0  0  0  0  0
    2.0930   -3.7541    5.5520 C   0  0  0  0  0  0  0  0  0  0  0  0
    2.3674   -4.9415    6.2036 C   0  0  0  0  0  0  0  0  0  0  0  0
    1.9190   -5.0668    7.5072 C   0  0  0  0  0  0  0  0  0  0  0  0
    1.2371   -4.0602    8.1168 N   0  0  0  0  0  0  0  0  0  0  0  0
  1  2  1  0
  2  3  2  0
  3  4  1  0
  4  5  2  0
  5  6  1  0
  5  7  1  0
  7  8  2  0
  8  9  1  0
  9 10  2  0
  8 11  1  0
 11 12  1  0
 12 13  2  0
 12 14  1  0
 14 15  1  0
 15 16  2  0
 16 17  1  0
 17 18  2  0
 18 19  1  0
 19 20  2  0
 17 21  1  0
 21 22  2  0
 22 23  1  0
 23 24  2  0
  6  2  1  0
 10  4  1  0
 20 15  1  0
 24 16  1  0
M  END
$$$$
