
     RDKit          3D

 30 33  0  0  0  0  0  0  0  0999 V2000
    0.1166   -2.9767   14.8549 C   0  0  0  0  0  0  0  0  0  0  0  0
    1.3152   -2.1320   14.5758 C   0  0  0  0  0  0  0  0  0  0  0  0
    2.0585   -1.6357   15.5736 N   0  0  0  0  0  0  0  0  0  0  0  0
    3.1437   -0.8715   15.3526 C   0  0  0  0  0  0  0  0  0  0  0  0
    3.5057   -0.5891   14.1059 N   0  0  0  0  0  0  0  0  0  0  0  0
    2.7675   -1.0808   13.0611 C   0  0  0  0  0  0  0  0  0  0  0  0
    1.6627   -1.8574   13.2360 C   0  0  0  0  0  0  0  0  0  0  0  0
    0.9074   -2.3635   12.2852 O   0  0  0  0  0  0  0  0  0  0  0  0
   -0.0982   -2.1093   11.4254 C   0  0  0  0  0  0  0  0  0  0  0  0
    0.0635   -2.8236   10.1192 C   0  0  0  0  0  0  0  0  0  0  0  0
   -1.1239   -3.4474    9.4984 C   0  0  0  0  0  0  0  0  0  0  0  0
   -0.6499   -2.2104    8.9297 C   0  0  0  0  0  0  0  0  0  0  0  0
   -1.4175   -0.9475    9.0341 C   0  0  0  0  0  0  0  0  0  0  0  0
   -0.9255    0.0664    9.6540 O   0  0  0  0  0  0  0  0  0  0  0  0
   -2.7070   -0.7201    8.4871 N   0  0  0  0  0  0  0  0  0  0  0  0
   -2.9897    0.4195    7.6647 C   0  0  0  0  0  0  0  0  0  0  0  0
   -4.2234    0.8294    7.3606 N   0  0  0  0  0  0  0  0  0  0  0  0
   -4.4470    1.9181    6.5752 C   0  0  0  0  0  0  0  0  0  0  0  0
   -3.4055    2.6556    6.0518 C   0  0  0  0  0  0  0  0  0  0  0  0
   -2.1209    2.2534    6.3507 C   0  0  0  0  0  0  0  0  0  0  0  0
   -1.9389    1.1448    7.1502 C   0  0  0  0  0  0  0  0  0  0  0  0
   -3.6364    3.7505    5.2618 F   0  0  0  0  0  0  0  0  0  0  0  0
    1.4301   -3.2924    9.7229 C   0  0  0  0  0  0  0  0  0  0  0  0
    1.9461   -4.4418   10.2779 C   0  0  0  0  0  0  0  0  0  0  0  0
    3.2022   -4.9320    9.9198 C   0  0  0  0  0  0  0  0  0  0  0  0
    3.9614   -4.2720    8.9951 C   0  0  0  0  0  0  0  0  0  0  0  0
    3.4614   -3.1263    8.4337 C   0  0  0  0  0  0  0  0  0  0  0  0
    2.1965   -2.6454    8.8039 C   0  0  0  0  0  0  0  0  0  0  0  0
    3.7039   -6.0640   10.4701 F   0  0  0  0  0  0  0  0  0  0  0  0
    3.9022   -0.3687   16.5261 C   0  0  0  0  0  0  0  0  0  0  0  0
  1  2  1  0
  2  3  2  0
  3  4  1  0
  4  5  2  0
  5  6  1  0
  6  7  2  0
  7  8  1  0
  8  9  1  0
  9 10  1  0
 10 11  1  0
 11 12  1  0
 12 13  1  0
 13 14  2  0
 13 15  1  0
 15 16  1  0
 16 17  2  0
 17 18  1  0
 18 19  2  0
 19 20  1  0
 20 21  2  0
 19 22  1  0
 10 23  1  0
 23 24  2  0
 24 25  1  0
 25 26  2  0
 26 27  1  0
 27 28  2  0
 25 29  1  0
  4 30  1  0
  7  2  1  0
 12 10  1  0
 21 16  1  0
 28 23  1  0
M  END
$$$$
