
     RDKit          3D

 30 33  0  0  0  0  0  0  0  0999 V2000
    0.8661   -3.9785    9.7635 C   0  0  0  0  0  0  0  0  0  0  0  0
    1.3636   -3.7848   11.1575 C   0  0  0  0  0  0  0  0  0  0  0  0
    2.2823   -4.6056   11.6837 N   0  0  0  0  0  0  0  0  0  0  0  0
    2.7493   -4.4558   12.9367 C   0  0  0  0  0  0  0  0  0  0  0  0
    2.2939   -3.4633   13.6934 N   0  0  0  0  0  0  0  0  0  0  0  0
    1.3535   -2.6049   13.1863 C   0  0  0  0  0  0  0  0  0  0  0  0
    0.8520   -2.7172   11.9253 C   0  0  0  0  0  0  0  0  0  0  0  0
   -0.0485   -1.9338   11.3721 O   0  0  0  0  0  0  0  0  0  0  0  0
   -0.4402   -0.6562   11.2006 C   0  0  0  0  0  0  0  0  0  0  0  0
   -1.7540   -0.5445   10.4906 C   0  0  0  0  0  0  0  0  0  0  0  0
   -2.1500    0.7645    9.9303 C   0  0  0  0  0  0  0  0  0  0  0  0
   -1.6875   -0.2409    9.0064 C   0  0  0  0  0  0  0  0  0  0  0  0
   -0.4009   -0.1165    8.2824 C   0  0  0  0  0  0  0  0  0  0  0  0
    0.3411    0.9218    8.4427 O   0  0  0  0  0  0  0  0  0  0  0  0
    0.1355   -1.0768    7.3856 N   0  0  0  0  0  0  0  0  0  0  0  0
    1.3401   -0.8329    6.6479 C   0  0  0  0  0  0  0  0  0  0  0  0
    1.9665    0.3457    6.6153 N   0  0  0  0  0  0  0  0  0  0  0  0
    3.1094    0.5340    5.9009 C   0  0  0  0  0  0  0  0  0  0  0  0
    3.6803   -0.4882    5.1715 C   0  0  0  0  0  0  0  0  0  0  0  0
    3.0531   -1.7160    5.1883 C   0  0  0  0  0  0  0  0  0  0  0  0
    1.8970   -1.8637    5.9251 C   0  0  0  0  0  0  0  0  0  0  0  0
    4.8308   -0.2932    4.4543 F   0  0  0  0  0  0  0  0  0  0  0  0
   -2.8072   -1.5738   10.7659 C   0  0  0  0  0  0  0  0  0  0  0  0
   -3.4222   -1.6101   11.9971 C   0  0  0  0  0  0  0  0  0  0  0  0
   -4.4271   -2.5323   12.2905 C   0  0  0  0  0  0  0  0  0  0  0  0
   -4.8305   -3.4351   11.3475 C   0  0  0  0  0  0  0  0  0  0  0  0
   -4.2278   -3.4114   10.1172 C   0  0  0  0  0  0  0  0  0  0  0  0
   -3.2185   -2.4782    9.8367 C   0  0  0  0  0  0  0  0  0  0  0  0
   -5.0282   -2.5624   13.5045 F   0  0  0  0  0  0  0  0  0  0  0  0
    3.7676   -5.4181   13.4288 C   0  0  0  0  0  0  0  0  0  0  0  0
  1  2  1  0
  2  3  2  0
  3  4  1  0
  4  5  2  0
  5  6  1  0
  6  7  2  0
  7  8  1  0
  8  9  1  0
  9 10  1  0
 10 11  1  0
 11 12  1  0
 12 13  1  0
 13 14  2  0
 13 15  1  0
 15 16  1  0
 16 17  2  0
 17 18  1  0
 18 19  2  0
 19 20  1  0
 20 21  2  0
 19 22  1  0
 10 23  1  0
 23 24  2  0
 24 25  1  0
 25 26  2  0
 26 27  1  0
 27 28  2  0
 25 29  1  0
  4 30  1  0
  7  2  1  0
 12 10  1  0
 21 16  1  0
 28 23  1  0
M  END
$$$$
