
     RDKit          3D

 30 33  0  0  0  0  0  0  0  0999 V2000
   -1.4178   -0.4825   14.2470 C   0  0  0  0  0  0  0  0  0  0  0  0
   -1.8918    0.9151   14.0229 C   0  0  0  0  0  0  0  0  0  0  0  0
   -2.0084    1.7770   15.0417 N   0  0  0  0  0  0  0  0  0  0  0  0
   -2.4328    3.0423   14.8702 C   0  0  0  0  0  0  0  0  0  0  0  0
   -2.7519    3.4691   13.6532 N   0  0  0  0  0  0  0  0  0  0  0  0
   -2.6442    2.6134   12.5882 C   0  0  0  0  0  0  0  0  0  0  0  0
   -2.2199    1.3255   12.7133 C   0  0  0  0  0  0  0  0  0  0  0  0
   -2.0915    0.4493   11.7404 O   0  0  0  0  0  0  0  0  0  0  0  0
   -1.2292   -0.1111   10.8701 C   0  0  0  0  0  0  0  0  0  0  0  0
   -1.8973   -1.0619    9.9255 C   0  0  0  0  0  0  0  0  0  0  0  0
   -2.1312   -0.6316    8.5310 C   0  0  0  0  0  0  0  0  0  0  0  0
   -1.0523   -1.5578    8.7680 C   0  0  0  0  0  0  0  0  0  0  0  0
    0.3692   -1.1730    8.6061 C   0  0  0  0  0  0  0  0  0  0  0  0
    1.1015   -0.9304    9.6353 O   0  0  0  0  0  0  0  0  0  0  0  0
    1.0511   -1.0425    7.3684 N   0  0  0  0  0  0  0  0  0  0  0  0
    2.3718   -1.5646    7.1735 C   0  0  0  0  0  0  0  0  0  0  0  0
    3.2742   -1.6878    8.1498 N   0  0  0  0  0  0  0  0  0  0  0  0
    4.5185   -2.1892    7.9207 C   0  0  0  0  0  0  0  0  0  0  0  0
    4.9111   -2.5969    6.6628 C   0  0  0  0  0  0  0  0  0  0  0  0
    3.9978   -2.4802    5.6365 C   0  0  0  0  0  0  0  0  0  0  0  0
    2.7479   -1.9670    5.9119 C   0  0  0  0  0  0  0  0  0  0  0  0
    6.1648   -3.1009    6.4380 F   0  0  0  0  0  0  0  0  0  0  0  0
   -2.7126   -2.1829   10.4940 C   0  0  0  0  0  0  0  0  0  0  0  0
   -4.0865   -2.1340   10.4213 C   0  0  0  0  0  0  0  0  0  0  0  0
   -4.8864   -3.1663   10.9121 C   0  0  0  0  0  0  0  0  0  0  0  0
   -4.3153   -4.2673   11.4855 C   0  0  0  0  0  0  0  0  0  0  0  0
   -2.9488   -4.3306   11.5652 C   0  0  0  0  0  0  0  0  0  0  0  0
   -2.1575   -3.2846   11.0673 C   0  0  0  0  0  0  0  0  0  0  0  0
   -6.2382   -3.1116   10.8373 F   0  0  0  0  0  0  0  0  0  0  0  0
   -2.5284    3.9213   16.0634 C   0  0  0  0  0  0  0  0  0  0  0  0
  1  2  1  0
  2  3  2  0
  3  4  1  0
  4  5  2  0
  5  6  1  0
  6  7  2  0
  7  8  1  0
  8  9  1  0
  9 10  1  0
 10 11  1  0
 11 12  1  0
 12 13  1  0
 13 14  2  0
 13 15  1  0
 15 16  1  0
 16 17  2  0
 17 18  1  0
 18 19  2  0
 19 20  1  0
 20 21  2  0
 19 22  1  0
 10 23  1  0
 23 24  2  0
 24 25  1  0
 25 26  2  0
 26 27  1  0
 27 28  2  0
 25 29  1  0
  4 30  1  0
  7  2  1  0
 12 10  1  0
 21 16  1  0
 28 23  1  0
M  END
$$$$
