
     RDKit          3D

 30 33  0  0  0  0  0  0  0  0999 V2000
   -2.3862   -3.1373   13.7738 C   0  0  0  0  0  0  0  0  0  0  0  0
   -1.6795   -2.0223   14.4705 C   0  0  0  0  0  0  0  0  0  0  0  0
   -1.8228   -1.8297   15.7884 N   0  0  0  0  0  0  0  0  0  0  0  0
   -1.1986   -0.8336   16.4433 C   0  0  0  0  0  0  0  0  0  0  0  0
   -0.4079   -0.0017   15.7742 N   0  0  0  0  0  0  0  0  0  0  0  0
   -0.2388   -0.1700   14.4246 C   0  0  0  0  0  0  0  0  0  0  0  0
   -0.8493   -1.1626   13.7202 C   0  0  0  0  0  0  0  0  0  0  0  0
   -0.7350   -1.3854   12.4287 O   0  0  0  0  0  0  0  0  0  0  0  0
   -0.1087   -1.0073   11.2974 C   0  0  0  0  0  0  0  0  0  0  0  0
   -1.0229   -0.9812   10.1115 C   0  0  0  0  0  0  0  0  0  0  0  0
   -0.7806    0.0174    9.0492 C   0  0  0  0  0  0  0  0  0  0  0  0
   -0.3986   -1.3460    8.7786 C   0  0  0  0  0  0  0  0  0  0  0  0
    1.0188   -1.7602    8.6572 C   0  0  0  0  0  0  0  0  0  0  0  0
    1.3802   -2.9529    8.9753 O   0  0  0  0  0  0  0  0  0  0  0  0
    2.0799   -0.9390    8.1951 N   0  0  0  0  0  0  0  0  0  0  0  0
    2.9178   -1.3307    7.0999 C   0  0  0  0  0  0  0  0  0  0  0  0
    3.4392   -0.4736    6.2190 N   0  0  0  0  0  0  0  0  0  0  0  0
    4.2307   -0.8887    5.1927 C   0  0  0  0  0  0  0  0  0  0  0  0
    4.5349   -2.2218    5.0106 C   0  0  0  0  0  0  0  0  0  0  0  0
    4.0089   -3.1281    5.9068 C   0  0  0  0  0  0  0  0  0  0  0  0
    3.2118   -2.6650    6.9323 C   0  0  0  0  0  0  0  0  0  0  0  0
    5.3321   -2.6341    3.9758 F   0  0  0  0  0  0  0  0  0  0  0  0
   -2.3804   -1.6019   10.2391 C   0  0  0  0  0  0  0  0  0  0  0  0
   -2.6223   -2.8371    9.6815 C   0  0  0  0  0  0  0  0  0  0  0  0
   -3.8619   -3.4668    9.7978 C   0  0  0  0  0  0  0  0  0  0  0  0
   -4.8806   -2.8622   10.4788 C   0  0  0  0  0  0  0  0  0  0  0  0
   -4.6552   -1.6323   11.0395 C   0  0  0  0  0  0  0  0  0  0  0  0
   -3.4033   -1.0114   10.9141 C   0  0  0  0  0  0  0  0  0  0  0  0
   -4.0931   -4.6827    9.2465 F   0  0  0  0  0  0  0  0  0  0  0  0
   -1.4220   -0.7032   17.9056 C   0  0  0  0  0  0  0  0  0  0  0  0
  1  2  1  0
  2  3  2  0
  3  4  1  0
  4  5  2  0
  5  6  1  0
  6  7  2  0
  7  8  1  0
  8  9  1  0
  9 10  1  0
 10 11  1  0
 11 12  1  0
 12 13  1  0
 13 14  2  0
 13 15  1  0
 15 16  1  0
 16 17  2  0
 17 18  1  0
 18 19  2  0
 19 20  1  0
 20 21  2  0
 19 22  1  0
 10 23  1  0
 23 24  2  0
 24 25  1  0
 25 26  2  0
 26 27  1  0
 27 28  2  0
 25 29  1  0
  4 30  1  0
  7  2  1  0
 12 10  1  0
 21 16  1  0
 28 23  1  0
M  END
$$$$
