
     RDKit          3D

 30 33  0  0  0  0  0  0  0  0999 V2000
   -3.9039   -0.3355    9.3544 C   0  0  0  0  0  0  0  0  0  0  0  0
   -2.9644    0.8102    9.5352 C   0  0  0  0  0  0  0  0  0  0  0  0
   -3.4005    2.0759    9.4857 N   0  0  0  0  0  0  0  0  0  0  0  0
   -2.5775    3.1285    9.6449 C   0  0  0  0  0  0  0  0  0  0  0  0
   -1.2825    2.9233    9.8599 N   0  0  0  0  0  0  0  0  0  0  0  0
   -0.8027    1.6409    9.9166 C   0  0  0  0  0  0  0  0  0  0  0  0
   -1.5969    0.5458    9.7613 C   0  0  0  0  0  0  0  0  0  0  0  0
   -1.2089   -0.7106    9.8030 O   0  0  0  0  0  0  0  0  0  0  0  0
   -0.8852   -1.7882    9.0620 C   0  0  0  0  0  0  0  0  0  0  0  0
   -0.7152   -3.0268    9.8863 C   0  0  0  0  0  0  0  0  0  0  0  0
   -0.0452   -4.1969    9.2810 C   0  0  0  0  0  0  0  0  0  0  0  0
    0.7115   -3.4132   10.2251 C   0  0  0  0  0  0  0  0  0  0  0  0
    1.8718   -2.5876    9.8161 C   0  0  0  0  0  0  0  0  0  0  0  0
    1.8180   -1.3045    9.8878 O   0  0  0  0  0  0  0  0  0  0  0  0
    3.1088   -3.0877    9.3330 N   0  0  0  0  0  0  0  0  0  0  0  0
    3.8166   -2.4493    8.2622 C   0  0  0  0  0  0  0  0  0  0  0  0
    4.4172   -1.2619    8.3716 N   0  0  0  0  0  0  0  0  0  0  0  0
    5.0791   -0.6913    7.3284 C   0  0  0  0  0  0  0  0  0  0  0  0
    5.1629   -1.3141    6.1004 C   0  0  0  0  0  0  0  0  0  0  0  0
    4.5510   -2.5418    5.9607 C   0  0  0  0  0  0  0  0  0  0  0  0
    3.8909   -3.0843    7.0431 C   0  0  0  0  0  0  0  0  0  0  0  0
    5.8304   -0.7352    5.0538 F   0  0  0  0  0  0  0  0  0  0  0  0
   -1.6056   -3.2247   11.0748 C   0  0  0  0  0  0  0  0  0  0  0  0
   -2.3181   -2.1605   11.5797 C   0  0  0  0  0  0  0  0  0  0  0  0
   -3.1804   -2.3022   12.6673 C   0  0  0  0  0  0  0  0  0  0  0  0
   -3.3399   -3.5201   13.2660 C   0  0  0  0  0  0  0  0  0  0  0  0
   -2.6372   -4.5890   12.7748 C   0  0  0  0  0  0  0  0  0  0  0  0
   -1.7738   -4.4312   11.6804 C   0  0  0  0  0  0  0  0  0  0  0  0
   -3.8787   -1.2504   13.1592 F   0  0  0  0  0  0  0  0  0  0  0  0
   -3.1575    4.4936    9.5729 C   0  0  0  0  0  0  0  0  0  0  0  0
  1  2  1  0
  2  3  2  0
  3  4  1  0
  4  5  2  0
  5  6  1  0
  6  7  2  0
  7  8  1  0
  8  9  1  0
  9 10  1  0
 10 11  1  0
 11 12  1  0
 12 13  1  0
 13 14  2  0
 13 15  1  0
 15 16  1  0
 16 17  2  0
 17 18  1  0
 18 19  2  0
 19 20  1  0
 20 21  2  0
 19 22  1  0
 10 23  1  0
 23 24  2  0
 24 25  1  0
 25 26  2  0
 26 27  1  0
 27 28  2  0
 25 29  1  0
  4 30  1  0
  7  2  1  0
 12 10  1  0
 21 16  1  0
 28 23  1  0
M  END
$$$$
