
     RDKit          3D

 30 33  0  0  0  0  0  0  0  0999 V2000
   -1.7046   -0.0894   11.5343 C   0  0  0  0  0  0  0  0  0  0  0  0
   -1.5877    0.5507   10.1909 C   0  0  0  0  0  0  0  0  0  0  0  0
   -1.3619    1.8655   10.0692 N   0  0  0  0  0  0  0  0  0  0  0  0
   -1.2519    2.4701    8.8721 C   0  0  0  0  0  0  0  0  0  0  0  0
   -1.3688    1.7523    7.7603 N   0  0  0  0  0  0  0  0  0  0  0  0
   -1.6000    0.4043    7.8485 C   0  0  0  0  0  0  0  0  0  0  0  0
   -1.7186   -0.2503    9.0366 C   0  0  0  0  0  0  0  0  0  0  0  0
   -1.9396   -1.5370    9.1988 O   0  0  0  0  0  0  0  0  0  0  0  0
   -1.4798   -2.7751    8.9332 C   0  0  0  0  0  0  0  0  0  0  0  0
   -1.1471   -3.5467   10.1729 C   0  0  0  0  0  0  0  0  0  0  0  0
   -0.3696   -4.7970   10.0446 C   0  0  0  0  0  0  0  0  0  0  0  0
    0.3236   -3.6311   10.5326 C   0  0  0  0  0  0  0  0  0  0  0  0
    1.3712   -2.9455    9.7403 C   0  0  0  0  0  0  0  0  0  0  0  0
    1.2036   -2.7306    8.4833 O   0  0  0  0  0  0  0  0  0  0  0  0
    2.6067   -2.4668   10.2484 N   0  0  0  0  0  0  0  0  0  0  0  0
    3.5648   -1.8076    9.4104 C   0  0  0  0  0  0  0  0  0  0  0  0
    3.2604   -1.2261    8.2477 N   0  0  0  0  0  0  0  0  0  0  0  0
    4.2024   -0.6105    7.4823 C   0  0  0  0  0  0  0  0  0  0  0  0
    5.5246   -0.5563    7.8714 C   0  0  0  0  0  0  0  0  0  0  0  0
    5.8659   -1.1494    9.0685 C   0  0  0  0  0  0  0  0  0  0  0  0
    4.8804   -1.7624    9.8132 C   0  0  0  0  0  0  0  0  0  0  0  0
    6.4686    0.0646    7.0971 F   0  0  0  0  0  0  0  0  0  0  0  0
   -1.9727   -3.3188   11.4021 C   0  0  0  0  0  0  0  0  0  0  0  0
   -3.3256   -3.0930   11.2847 C   0  0  0  0  0  0  0  0  0  0  0  0
   -4.1393   -2.9028   12.4019 C   0  0  0  0  0  0  0  0  0  0  0  0
   -3.6036   -2.9369   13.6584 C   0  0  0  0  0  0  0  0  0  0  0  0
   -2.2582   -3.1607   13.7915 C   0  0  0  0  0  0  0  0  0  0  0  0
   -1.4525   -3.3501   12.6587 C   0  0  0  0  0  0  0  0  0  0  0  0
   -5.4704   -2.6810   12.2790 F   0  0  0  0  0  0  0  0  0  0  0  0
   -1.0012    3.9335    8.8422 C   0  0  0  0  0  0  0  0  0  0  0  0
  1  2  1  0
  2  3  2  0
  3  4  1  0
  4  5  2  0
  5  6  1  0
  6  7  2  0
  7  8  1  0
  8  9  1  0
  9 10  1  0
 10 11  1  0
 11 12  1  0
 12 13  1  0
 13 14  2  0
 13 15  1  0
 15 16  1  0
 16 17  2  0
 17 18  1  0
 18 19  2  0
 19 20  1  0
 20 21  2  0
 19 22  1  0
 10 23  1  0
 23 24  2  0
 24 25  1  0
 25 26  2  0
 26 27  1  0
 27 28  2  0
 25 29  1  0
  4 30  1  0
  7  2  1  0
 12 10  1  0
 21 16  1  0
 28 23  1  0
M  END
$$$$
