
     RDKit          3D

 30 33  0  0  0  0  0  0  0  0999 V2000
   -3.9367    0.5898    8.6845 C   0  0  0  0  0  0  0  0  0  0  0  0
   -2.8873    1.3800    9.3934 C   0  0  0  0  0  0  0  0  0  0  0  0
   -3.1145    2.6433    9.7768 N   0  0  0  0  0  0  0  0  0  0  0  0
   -2.1882    3.3798   10.4172 C   0  0  0  0  0  0  0  0  0  0  0  0
   -0.9997    2.8507   10.6871 N   0  0  0  0  0  0  0  0  0  0  0  0
   -0.7337    1.5605   10.3090 C   0  0  0  0  0  0  0  0  0  0  0  0
   -1.6392    0.7779    9.6595 C   0  0  0  0  0  0  0  0  0  0  0  0
   -1.4558   -0.4643    9.2669 O   0  0  0  0  0  0  0  0  0  0  0  0
   -0.8153   -1.2575    8.3863 C   0  0  0  0  0  0  0  0  0  0  0  0
   -0.5702   -2.6348    8.9206 C   0  0  0  0  0  0  0  0  0  0  0  0
   -0.0231   -3.6632    8.0109 C   0  0  0  0  0  0  0  0  0  0  0  0
    0.8777   -3.0824    8.9749 C   0  0  0  0  0  0  0  0  0  0  0  0
    1.9946   -2.1938    8.5774 C   0  0  0  0  0  0  0  0  0  0  0  0
    1.7589   -1.0409    8.0581 O   0  0  0  0  0  0  0  0  0  0  0  0
    3.3747   -2.4908    8.7221 N   0  0  0  0  0  0  0  0  0  0  0  0
    3.8994   -3.0853    9.9164 C   0  0  0  0  0  0  0  0  0  0  0  0
    3.2139   -3.9313   10.6890 N   0  0  0  0  0  0  0  0  0  0  0  0
    3.7510   -4.4733   11.8159 C   0  0  0  0  0  0  0  0  0  0  0  0
    5.0362   -4.1743   12.2178 C   0  0  0  0  0  0  0  0  0  0  0  0
    5.7660   -3.3028   11.4373 C   0  0  0  0  0  0  0  0  0  0  0  0
    5.1838   -2.7764   10.3036 C   0  0  0  0  0  0  0  0  0  0  0  0
    5.5718   -4.7227   13.3529 F   0  0  0  0  0  0  0  0  0  0  0  0
   -1.2952   -3.0624   10.1600 C   0  0  0  0  0  0  0  0  0  0  0  0
   -2.6330   -2.7712   10.3040 C   0  0  0  0  0  0  0  0  0  0  0  0
   -3.3564   -3.1725   11.4275 C   0  0  0  0  0  0  0  0  0  0  0  0
   -2.7438   -3.8750   12.4266 C   0  0  0  0  0  0  0  0  0  0  0  0
   -1.4125   -4.1725   12.2977 C   0  0  0  0  0  0  0  0  0  0  0  0
   -0.6980   -3.7622   11.1621 C   0  0  0  0  0  0  0  0  0  0  0  0
   -4.6730   -2.8824   11.5628 F   0  0  0  0  0  0  0  0  0  0  0  0
   -2.5364    4.7714   10.8010 C   0  0  0  0  0  0  0  0  0  0  0  0
  1  2  1  0
  2  3  2  0
  3  4  1  0
  4  5  2  0
  5  6  1  0
  6  7  2  0
  7  8  1  0
  8  9  1  0
  9 10  1  0
 10 11  1  0
 11 12  1  0
 12 13  1  0
 13 14  2  0
 13 15  1  0
 15 16  1  0
 16 17  2  0
 17 18  1  0
 18 19  2  0
 19 20  1  0
 20 21  2  0
 19 22  1  0
 10 23  1  0
 23 24  2  0
 24 25  1  0
 25 26  2  0
 26 27  1  0
 27 28  2  0
 25 29  1  0
  4 30  1  0
  7  2  1  0
 12 10  1  0
 21 16  1  0
 28 23  1  0
M  END
$$$$
