
     RDKit          3D

 30 33  0  0  0  0  0  0  0  0999 V2000
   -2.8197    0.1923   11.6805 C   0  0  0  0  0  0  0  0  0  0  0  0
   -2.6194    0.8698   10.3656 C   0  0  0  0  0  0  0  0  0  0  0  0
   -2.9530    2.1556   10.1927 N   0  0  0  0  0  0  0  0  0  0  0  0
   -2.7840    2.7926    9.0196 C   0  0  0  0  0  0  0  0  0  0  0  0
   -2.2688    2.1378    7.9847 N   0  0  0  0  0  0  0  0  0  0  0  0
   -1.9164    0.8210    8.1268 C   0  0  0  0  0  0  0  0  0  0  0  0
   -2.0690    0.1357    9.2936 C   0  0  0  0  0  0  0  0  0  0  0  0
   -1.7544   -1.1243    9.5041 O   0  0  0  0  0  0  0  0  0  0  0  0
   -1.1981   -2.2255    8.9629 C   0  0  0  0  0  0  0  0  0  0  0  0
   -0.7592   -3.2182    9.9946 C   0  0  0  0  0  0  0  0  0  0  0  0
   -0.0365   -4.4295    9.5533 C   0  0  0  0  0  0  0  0  0  0  0  0
    0.7382   -3.3817   10.1699 C   0  0  0  0  0  0  0  0  0  0  0  0
    1.7159   -2.5695    9.4086 C   0  0  0  0  0  0  0  0  0  0  0  0
    1.3627   -1.9634    8.3306 O   0  0  0  0  0  0  0  0  0  0  0  0
    3.0753   -2.3709    9.7641 N   0  0  0  0  0  0  0  0  0  0  0  0
    4.0557   -1.9573    8.8035 C   0  0  0  0  0  0  0  0  0  0  0  0
    5.1283   -1.2218    9.1052 N   0  0  0  0  0  0  0  0  0  0  0  0
    6.0354   -0.8506    8.1609 C   0  0  0  0  0  0  0  0  0  0  0  0
    5.8911   -1.2176    6.8391 C   0  0  0  0  0  0  0  0  0  0  0  0
    4.7916   -1.9776    6.5007 C   0  0  0  0  0  0  0  0  0  0  0  0
    3.8969   -2.3319    7.4884 C   0  0  0  0  0  0  0  0  0  0  0  0
    6.8072   -0.8412    5.8928 F   0  0  0  0  0  0  0  0  0  0  0  0
   -1.4434   -3.2168   11.3274 C   0  0  0  0  0  0  0  0  0  0  0  0
   -2.8187   -3.2252   11.3898 C   0  0  0  0  0  0  0  0  0  0  0  0
   -3.4997   -3.2517   12.6071 C   0  0  0  0  0  0  0  0  0  0  0  0
   -2.8063   -3.2704   13.7843 C   0  0  0  0  0  0  0  0  0  0  0  0
   -1.4368   -3.2623   13.7386 C   0  0  0  0  0  0  0  0  0  0  0  0
   -0.7658   -3.2355   12.5068 C   0  0  0  0  0  0  0  0  0  0  0  0
   -4.8536   -3.2598   12.6611 F   0  0  0  0  0  0  0  0  0  0  0  0
   -3.1852    4.2194    8.9283 C   0  0  0  0  0  0  0  0  0  0  0  0
  1  2  1  0
  2  3  2  0
  3  4  1  0
  4  5  2  0
  5  6  1  0
  6  7  2  0
  7  8  1  0
  8  9  1  0
  9 10  1  0
 10 11  1  0
 11 12  1  0
 12 13  1  0
 13 14  2  0
 13 15  1  0
 15 16  1  0
 16 17  2  0
 17 18  1  0
 18 19  2  0
 19 20  1  0
 20 21  2  0
 19 22  1  0
 10 23  1  0
 23 24  2  0
 24 25  1  0
 25 26  2  0
 26 27  1  0
 27 28  2  0
 25 29  1  0
  4 30  1  0
  7  2  1  0
 12 10  1  0
 21 16  1  0
 28 23  1  0
M  END
$$$$
