
     RDKit          3D

 30 33  0  0  0  0  0  0  0  0999 V2000
10792.6621 6392.504417595.0586 C   0  0  0  0  0  0  0  0  0  0  0  0
10791.6787 6391.875517595.9941 C   0  0  0  0  0  0  0  0  0  0  0  0
10792.0801 6391.027317596.9434 N   0  0  0  0  0  0  0  0  0  0  0  0
10791.2129 6390.445317597.8066 C   0  0  0  0  0  0  0  0  0  0  0  0
10789.9209 6390.729017597.7148 N   0  0  0  0  0  0  0  0  0  0  0  0
10789.4805 6391.601617596.7559 C   0  0  0  0  0  0  0  0  0  0  0  0
10790.3135 6392.207517595.8730 C   0  0  0  0  0  0  0  0  0  0  0  0
10789.9609 6393.050317594.9258 O   0  0  0  0  0  0  0  0  0  0  0  0
10789.8311 6393.222217593.5996 C   0  0  0  0  0  0  0  0  0  0  0  0
10788.6504 6394.077117593.2324 C   0  0  0  0  0  0  0  0  0  0  0  0
10788.1992 6395.104517594.1973 C   0  0  0  0  0  0  0  0  0  0  0  0
10788.9346 6395.556217593.0410 C   0  0  0  0  0  0  0  0  0  0  0  0
10790.2969 6396.116717593.1406 C   0  0  0  0  0  0  0  0  0  0  0  0
10791.2725 6395.402817593.5879 O   0  0  0  0  0  0  0  0  0  0  0  0
10790.6719 6397.439017592.7773 N   0  0  0  0  0  0  0  0  0  0  0  0
10792.0020 6397.926317592.9531 C   0  0  0  0  0  0  0  0  0  0  0  0
10792.2998 6399.193417593.2422 N   0  0  0  0  0  0  0  0  0  0  0  0
10793.5869 6399.617717593.4023 C   0  0  0  0  0  0  0  0  0  0  0  0
10794.6455 6398.749017593.2871 C   0  0  0  0  0  0  0  0  0  0  0  0
10794.3740 6397.431217593.0039 C   0  0  0  0  0  0  0  0  0  0  0  0
10793.0566 6397.043917592.8438 C   0  0  0  0  0  0  0  0  0  0  0  0
10795.9355 6399.173817593.4590 F   0  0  0  0  0  0  0  0  0  0  0  0
10787.6953 6393.585017592.1875 C   0  0  0  0  0  0  0  0  0  0  0  0
10787.5889 6392.232917591.9492 C   0  0  0  0  0  0  0  0  0  0  0  0
10786.7012 6391.726617591.0020 C   0  0  0  0  0  0  0  0  0  0  0  0
10785.9023 6392.567417590.2852 C   0  0  0  0  0  0  0  0  0  0  0  0
10785.9941 6393.915517590.5098 C   0  0  0  0  0  0  0  0  0  0  0  0
10786.8975 6394.412617591.4668 C   0  0  0  0  0  0  0  0  0  0  0  0
10786.5986 6390.392117590.7695 F   0  0  0  0  0  0  0  0  0  0  0  0
10791.7578 6389.511717598.8242 C   0  0  0  0  0  0  0  0  0  0  0  0
  1  2  1  0
  2  3  2  0
  3  4  1  0
  4  5  2  0
  5  6  1  0
  6  7  2  0
  7  8  1  0
  8  9  1  0
  9 10  1  0
 10 11  1  0
 11 12  1  0
 12 13  1  0
 13 14  2  0
 13 15  1  0
 15 16  1  0
 16 17  2  0
 17 18  1  0
 18 19  2  0
 19 20  1  0
 20 21  2  0
 19 22  1  0
 10 23  1  0
 23 24  2  0
 24 25  1  0
 25 26  2  0
 26 27  1  0
 27 28  2  0
 25 29  1  0
  4 30  1  0
  7  2  1  0
 12 10  1  0
 21 16  1  0
 28 23  1  0
M  END
$$$$
