
     RDKit          3D

 30 33  0  0  0  0  0  0  0  0999 V2000
   -4.2339   -0.2142   10.4633 C   0  0  0  0  0  0  0  0  0  0  0  0
   -3.5012    0.8052    9.6557 C   0  0  0  0  0  0  0  0  0  0  0  0
   -4.0862    1.9571    9.3017 N   0  0  0  0  0  0  0  0  0  0  0  0
   -3.4510    2.8942    8.5744 C   0  0  0  0  0  0  0  0  0  0  0  0
   -2.1980    2.6860    8.1849 N   0  0  0  0  0  0  0  0  0  0  0  0
   -1.5692    1.5181    8.5298 C   0  0  0  0  0  0  0  0  0  0  0  0
   -2.1715    0.5420    9.2637 C   0  0  0  0  0  0  0  0  0  0  0  0
   -1.6331   -0.6006    9.6317 O   0  0  0  0  0  0  0  0  0  0  0  0
   -0.4801   -1.2261    9.9388 C   0  0  0  0  0  0  0  0  0  0  0  0
   -0.6780   -2.6727   10.2718 C   0  0  0  0  0  0  0  0  0  0  0  0
   -0.6545   -3.6639    9.1758 C   0  0  0  0  0  0  0  0  0  0  0  0
    0.5087   -3.5837   10.0236 C   0  0  0  0  0  0  0  0  0  0  0  0
    1.8095   -3.0707    9.5339 C   0  0  0  0  0  0  0  0  0  0  0  0
    2.3649   -2.0560   10.0963 O   0  0  0  0  0  0  0  0  0  0  0  0
    2.5547   -3.6126    8.4546 N   0  0  0  0  0  0  0  0  0  0  0  0
    3.4513   -2.8097    7.6759 C   0  0  0  0  0  0  0  0  0  0  0  0
    3.9400   -1.6350    8.0808 N   0  0  0  0  0  0  0  0  0  0  0  0
    4.7897   -0.9042    7.3087 C   0  0  0  0  0  0  0  0  0  0  0  0
    5.1902   -1.3427    6.0637 C   0  0  0  0  0  0  0  0  0  0  0  0
    4.6998   -2.5532    5.6216 C   0  0  0  0  0  0  0  0  0  0  0  0
    3.8412   -3.2616    6.4354 C   0  0  0  0  0  0  0  0  0  0  0  0
    6.0456   -0.6031    5.2908 F   0  0  0  0  0  0  0  0  0  0  0  0
   -1.3449   -3.0256   11.5661 C   0  0  0  0  0  0  0  0  0  0  0  0
   -1.7926   -4.3104   11.7763 C   0  0  0  0  0  0  0  0  0  0  0  0
   -2.3948   -4.6927   12.9753 C   0  0  0  0  0  0  0  0  0  0  0  0
   -2.5567   -3.7861   13.9847 C   0  0  0  0  0  0  0  0  0  0  0  0
   -2.1162   -2.5032   13.7905 C   0  0  0  0  0  0  0  0  0  0  0  0
   -1.5126   -2.1334   12.5792 C   0  0  0  0  0  0  0  0  0  0  0  0
   -2.8331   -5.9591   13.1754 F   0  0  0  0  0  0  0  0  0  0  0  0
   -4.1857    4.1386    8.2325 C   0  0  0  0  0  0  0  0  0  0  0  0
  1  2  1  0
  2  3  2  0
  3  4  1  0
  4  5  2  0
  5  6  1  0
  6  7  2  0
  7  8  1  0
  8  9  1  0
  9 10  1  0
 10 11  1  0
 11 12  1  0
 12 13  1  0
 13 14  2  0
 13 15  1  0
 15 16  1  0
 16 17  2  0
 17 18  1  0
 18 19  2  0
 19 20  1  0
 20 21  2  0
 19 22  1  0
 10 23  1  0
 23 24  2  0
 24 25  1  0
 25 26  2  0
 26 27  1  0
 27 28  2  0
 25 29  1  0
  4 30  1  0
  7  2  1  0
 12 10  1  0
 21 16  1  0
 28 23  1  0
M  END
$$$$
