
     RDKit          3D

 30 33  0  0  0  0  0  0  0  0999 V2000
   -2.6383    0.0623   13.2678 C   0  0  0  0  0  0  0  0  0  0  0  0
   -2.4906    1.4264   12.6800 C   0  0  0  0  0  0  0  0  0  0  0  0
   -2.7955    2.5212   13.3892 N   0  0  0  0  0  0  0  0  0  0  0  0
   -2.6726    3.7632   12.8861 C   0  0  0  0  0  0  0  0  0  0  0  0
   -2.2343    3.9280   11.6428 N   0  0  0  0  0  0  0  0  0  0  0  0
   -1.9132    2.8293   10.8892 C   0  0  0  0  0  0  0  0  0  0  0  0
   -2.0215    1.5545   11.3554 C   0  0  0  0  0  0  0  0  0  0  0  0
   -1.7329    0.4552   10.6928 O   0  0  0  0  0  0  0  0  0  0  0  0
   -0.9923   -0.0671    9.6959 C   0  0  0  0  0  0  0  0  0  0  0  0
   -1.4207   -1.4525    9.3221 C   0  0  0  0  0  0  0  0  0  0  0  0
   -1.3791   -1.8497    7.8992 C   0  0  0  0  0  0  0  0  0  0  0  0
   -0.3406   -2.3571    8.7609 C   0  0  0  0  0  0  0  0  0  0  0  0
    1.0701   -1.9213    8.6391 C   0  0  0  0  0  0  0  0  0  0  0  0
    1.4606   -0.8167    9.1699 O   0  0  0  0  0  0  0  0  0  0  0  0
    2.0972   -2.6345    7.9680 N   0  0  0  0  0  0  0  0  0  0  0  0
    3.4525   -2.6271    8.4350 C   0  0  0  0  0  0  0  0  0  0  0  0
    4.1326   -3.7287    8.7615 N   0  0  0  0  0  0  0  0  0  0  0  0
    5.4194   -3.6765    9.2011 C   0  0  0  0  0  0  0  0  0  0  0  0
    6.0885   -2.4773    9.3318 C   0  0  0  0  0  0  0  0  0  0  0  0
    5.4087   -1.3241    9.0010 C   0  0  0  0  0  0  0  0  0  0  0  0
    4.1059   -1.4219    8.5598 C   0  0  0  0  0  0  0  0  0  0  0  0
    7.3837   -2.4305    9.7747 F   0  0  0  0  0  0  0  0  0  0  0  0
   -2.2966   -2.2124   10.2708 C   0  0  0  0  0  0  0  0  0  0  0  0
   -3.6553   -1.9911   10.2728 C   0  0  0  0  0  0  0  0  0  0  0  0
   -4.5139   -2.6939   11.1186 C   0  0  0  0  0  0  0  0  0  0  0  0
   -4.0178   -3.6332   11.9781 C   0  0  0  0  0  0  0  0  0  0  0  0
   -2.6673   -3.8648   11.9877 C   0  0  0  0  0  0  0  0  0  0  0  0
   -1.8163   -3.1500   11.1314 C   0  0  0  0  0  0  0  0  0  0  0  0
   -5.8504   -2.4710   11.1154 F   0  0  0  0  0  0  0  0  0  0  0  0
   -3.0364    4.9134   13.7521 C   0  0  0  0  0  0  0  0  0  0  0  0
  1  2  1  0
  2  3  2  0
  3  4  1  0
  4  5  2  0
  5  6  1  0
  6  7  2  0
  7  8  1  0
  8  9  1  0
  9 10  1  0
 10 11  1  0
 11 12  1  0
 12 13  1  0
 13 14  2  0
 13 15  1  0
 15 16  1  0
 16 17  2  0
 17 18  1  0
 18 19  2  0
 19 20  1  0
 20 21  2  0
 19 22  1  0
 10 23  1  0
 23 24  2  0
 24 25  1  0
 25 26  2  0
 26 27  1  0
 27 28  2  0
 25 29  1  0
  4 30  1  0
  7  2  1  0
 12 10  1  0
 21 16  1  0
 28 23  1  0
M  END
$$$$
