
     RDKit          3D

 30 33  0  0  0  0  0  0  0  0999 V2000
    1.3300   -3.8162    8.4819 C   0  0  0  0  0  0  0  0  0  0  0  0
    1.7339   -2.5470    7.8081 C   0  0  0  0  0  0  0  0  0  0  0  0
    2.6714   -2.5406    6.8512 N   0  0  0  0  0  0  0  0  0  0  0  0
    3.0558   -1.4125    6.2265 C   0  0  0  0  0  0  0  0  0  0  0  0
    2.4958   -0.2543    6.5581 N   0  0  0  0  0  0  0  0  0  0  0  0
    1.5331   -0.2248    7.5332 C   0  0  0  0  0  0  0  0  0  0  0  0
    1.1126   -1.3397    8.1921 C   0  0  0  0  0  0  0  0  0  0  0  0
    0.1968   -1.3885    9.1354 O   0  0  0  0  0  0  0  0  0  0  0  0
   -0.1948   -0.8743   10.3174 C   0  0  0  0  0  0  0  0  0  0  0  0
   -0.8692   -1.8851   11.1927 C   0  0  0  0  0  0  0  0  0  0  0  0
   -0.0394   -2.7095   12.0961 C   0  0  0  0  0  0  0  0  0  0  0  0
   -0.7938   -1.6319   12.6860 C   0  0  0  0  0  0  0  0  0  0  0  0
   -0.1417   -0.4276   13.2511 C   0  0  0  0  0  0  0  0  0  0  0  0
    1.0953   -0.1774   13.0026 O   0  0  0  0  0  0  0  0  0  0  0  0
   -0.7715    0.5384   14.0781 N   0  0  0  0  0  0  0  0  0  0  0  0
   -0.0837    1.1642   15.1690 C   0  0  0  0  0  0  0  0  0  0  0  0
    1.2185    1.0047   15.4166 N   0  0  0  0  0  0  0  0  0  0  0  0
    1.8324    1.6183   16.4648 C   0  0  0  0  0  0  0  0  0  0  0  0
    1.1366    2.4394   17.3276 C   0  0  0  0  0  0  0  0  0  0  0  0
   -0.2102    2.6211   17.0942 C   0  0  0  0  0  0  0  0  0  0  0  0
   -0.7927    1.9807   16.0209 C   0  0  0  0  0  0  0  0  0  0  0  0
    1.7595    3.0545   18.3810 F   0  0  0  0  0  0  0  0  0  0  0  0
   -2.2374   -2.3630   10.8130 C   0  0  0  0  0  0  0  0  0  0  0  0
   -3.1540   -2.6623   11.7955 C   0  0  0  0  0  0  0  0  0  0  0  0
   -4.4482   -3.0845   11.4903 C   0  0  0  0  0  0  0  0  0  0  0  0
   -4.8421   -3.2125   10.1882 C   0  0  0  0  0  0  0  0  0  0  0  0
   -3.9409   -2.9183    9.1988 C   0  0  0  0  0  0  0  0  0  0  0  0
   -2.6427   -2.4949    9.5211 C   0  0  0  0  0  0  0  0  0  0  0  0
   -5.3454   -3.3775   12.4625 F   0  0  0  0  0  0  0  0  0  0  0  0
    4.1036   -1.5094    5.1786 C   0  0  0  0  0  0  0  0  0  0  0  0
  1  2  1  0
  2  3  2  0
  3  4  1  0
  4  5  2  0
  5  6  1  0
  6  7  2  0
  7  8  1  0
  8  9  1  0
  9 10  1  0
 10 11  1  0
 11 12  1  0
 12 13  1  0
 13 14  2  0
 13 15  1  0
 15 16  1  0
 16 17  2  0
 17 18  1  0
 18 19  2  0
 19 20  1  0
 20 21  2  0
 19 22  1  0
 10 23  1  0
 23 24  2  0
 24 25  1  0
 25 26  2  0
 26 27  1  0
 27 28  2  0
 25 29  1  0
  4 30  1  0
  7  2  1  0
 12 10  1  0
 21 16  1  0
 28 23  1  0
M  END
$$$$
