
     RDKit          3D

 30 33  0  0  0  0  0  0  0  0999 V2000
    0.7454   -3.2280    8.1405 C   0  0  0  0  0  0  0  0  0  0  0  0
    1.8584   -2.2966    8.4894 C   0  0  0  0  0  0  0  0  0  0  0  0
    2.9781   -2.2520    7.7553 N   0  0  0  0  0  0  0  0  0  0  0  0
    3.9976   -1.4231    8.0454 C   0  0  0  0  0  0  0  0  0  0  0  0
    3.9074   -0.6127    9.0943 N   0  0  0  0  0  0  0  0  0  0  0  0
    2.7757   -0.6325    9.8671 C   0  0  0  0  0  0  0  0  0  0  0  0
    1.7197   -1.4535    9.6124 C   0  0  0  0  0  0  0  0  0  0  0  0
    0.6049   -1.5275   10.3070 O   0  0  0  0  0  0  0  0  0  0  0  0
    0.0592   -1.3902   11.5311 C   0  0  0  0  0  0  0  0  0  0  0  0
   -1.4381   -1.3983   11.5009 C   0  0  0  0  0  0  0  0  0  0  0  0
   -2.1647   -0.1963   11.9607 C   0  0  0  0  0  0  0  0  0  0  0  0
   -2.0920   -0.4251   10.5393 C   0  0  0  0  0  0  0  0  0  0  0  0
   -1.3021    0.4462    9.6382 C   0  0  0  0  0  0  0  0  0  0  0  0
   -1.0526    1.6656    9.9621 O   0  0  0  0  0  0  0  0  0  0  0  0
   -0.7538    0.0568    8.3885 N   0  0  0  0  0  0  0  0  0  0  0  0
   -0.1639    1.0072    7.4921 C   0  0  0  0  0  0  0  0  0  0  0  0
    0.0539    2.2872    7.8033 N   0  0  0  0  0  0  0  0  0  0  0  0
    0.6171    3.1568    6.9210 C   0  0  0  0  0  0  0  0  0  0  0  0
    0.9928    2.7573    5.6553 C   0  0  0  0  0  0  0  0  0  0  0  0
    0.7788    1.4401    5.3083 C   0  0  0  0  0  0  0  0  0  0  0  0
    0.2054    0.5924    6.2325 C   0  0  0  0  0  0  0  0  0  0  0  0
    1.5593    3.6368    4.7711 F   0  0  0  0  0  0  0  0  0  0  0  0
   -2.1473   -2.7177   11.4706 C   0  0  0  0  0  0  0  0  0  0  0  0
   -1.4508   -3.8744   11.7391 C   0  0  0  0  0  0  0  0  0  0  0  0
   -2.0738   -5.1226   11.7495 C   0  0  0  0  0  0  0  0  0  0  0  0
   -3.4111   -5.2274   11.4893 C   0  0  0  0  0  0  0  0  0  0  0  0
   -4.1180   -4.0848   11.2201 C   0  0  0  0  0  0  0  0  0  0  0  0
   -3.4777   -2.8365   11.2132 C   0  0  0  0  0  0  0  0  0  0  0  0
   -1.3821   -6.2572   12.0146 F   0  0  0  0  0  0  0  0  0  0  0  0
    5.1970   -1.4483    7.1702 C   0  0  0  0  0  0  0  0  0  0  0  0
  1  2  1  0
  2  3  2  0
  3  4  1  0
  4  5  2  0
  5  6  1  0
  6  7  2  0
  7  8  1  0
  8  9  1  0
  9 10  1  0
 10 11  1  0
 11 12  1  0
 12 13  1  0
 13 14  2  0
 13 15  1  0
 15 16  1  0
 16 17  2  0
 17 18  1  0
 18 19  2  0
 19 20  1  0
 20 21  2  0
 19 22  1  0
 10 23  1  0
 23 24  2  0
 24 25  1  0
 25 26  2  0
 26 27  1  0
 27 28  2  0
 25 29  1  0
  4 30  1  0
  7  2  1  0
 12 10  1  0
 21 16  1  0
 28 23  1  0
M  END
$$$$
