
     RDKit          3D

 30 33  0  0  0  0  0  0  0  0999 V2000
   -4.4408   -0.1348    9.4225 C   0  0  0  0  0  0  0  0  0  0  0  0
   -3.4730    0.8752    8.9016 C   0  0  0  0  0  0  0  0  0  0  0  0
   -3.8958    1.9597    8.2385 N   0  0  0  0  0  0  0  0  0  0  0  0
   -3.0473    2.8867    7.7576 C   0  0  0  0  0  0  0  0  0  0  0  0
   -1.7396    2.7369    7.9378 N   0  0  0  0  0  0  0  0  0  0  0  0
   -1.2727    1.6389    8.6120 C   0  0  0  0  0  0  0  0  0  0  0  0
   -2.0927    0.6757    9.1160 C   0  0  0  0  0  0  0  0  0  0  0  0
   -1.7183   -0.4017    9.7717 O   0  0  0  0  0  0  0  0  0  0  0  0
   -0.6613   -1.1308   10.1793 C   0  0  0  0  0  0  0  0  0  0  0  0
   -0.9736   -2.5913   10.2879 C   0  0  0  0  0  0  0  0  0  0  0  0
   -0.7718   -3.4513    9.1029 C   0  0  0  0  0  0  0  0  0  0  0  0
    0.2044   -3.5377   10.1601 C   0  0  0  0  0  0  0  0  0  0  0  0
    1.5940   -3.0512    9.9941 C   0  0  0  0  0  0  0  0  0  0  0  0
    2.5055   -3.3766   10.8412 O   0  0  0  0  0  0  0  0  0  0  0  0
    2.0560   -2.2239    8.9377 N   0  0  0  0  0  0  0  0  0  0  0  0
    3.4015   -2.3013    8.4494 C   0  0  0  0  0  0  0  0  0  0  0  0
    4.4134   -2.8335    9.1389 N   0  0  0  0  0  0  0  0  0  0  0  0
    5.6772   -2.8868    8.6369 C   0  0  0  0  0  0  0  0  0  0  0  0
    5.9771   -2.3914    7.3849 C   0  0  0  0  0  0  0  0  0  0  0  0
    4.9498   -1.8362    6.6517 C   0  0  0  0  0  0  0  0  0  0  0  0
    3.6841   -1.8023    7.1979 C   0  0  0  0  0  0  0  0  0  0  0  0
    7.2509   -2.4477    6.8846 F   0  0  0  0  0  0  0  0  0  0  0  0
   -1.8942   -3.0484   11.3780 C   0  0  0  0  0  0  0  0  0  0  0  0
   -3.1017   -2.4140   11.5636 C   0  0  0  0  0  0  0  0  0  0  0  0
   -4.0032   -2.8214   12.5473 C   0  0  0  0  0  0  0  0  0  0  0  0
   -3.7034   -3.8764   13.3623 C   0  0  0  0  0  0  0  0  0  0  0  0
   -2.5050   -4.5181   13.1897 C   0  0  0  0  0  0  0  0  0  0  0  0
   -1.6085   -4.0969   12.1962 C   0  0  0  0  0  0  0  0  0  0  0  0
   -5.1901   -2.1923   12.7246 F   0  0  0  0  0  0  0  0  0  0  0  0
   -3.6144    4.0541    7.0358 C   0  0  0  0  0  0  0  0  0  0  0  0
  1  2  1  0
  2  3  2  0
  3  4  1  0
  4  5  2  0
  5  6  1  0
  6  7  2  0
  7  8  1  0
  8  9  1  0
  9 10  1  0
 10 11  1  0
 11 12  1  0
 12 13  1  0
 13 14  2  0
 13 15  1  0
 15 16  1  0
 16 17  2  0
 17 18  1  0
 18 19  2  0
 19 20  1  0
 20 21  2  0
 19 22  1  0
 10 23  1  0
 23 24  2  0
 24 25  1  0
 25 26  2  0
 26 27  1  0
 27 28  2  0
 25 29  1  0
  4 30  1  0
  7  2  1  0
 12 10  1  0
 21 16  1  0
 28 23  1  0
M  END
$$$$
