
     RDKit          3D

 41 44  0  0  0  0  0  0  0  0999 V2000
    1.8018    0.7798    8.2707 C   0  0  0  0  0  0  0  0  0  0  0  0
    3.2725    1.0544    8.1795 C   0  0  0  0  0  0  0  0  0  0  0  0
    3.5815    2.2428    7.5038 C   0  0  0  0  0  0  0  0  0  0  0  0
    4.9076    2.5709    7.3571 C   0  0  0  0  0  0  0  0  0  0  0  0
    5.8976    1.7538    7.8603 C   0  0  0  0  0  0  0  0  0  0  0  0
    5.5693    0.5952    8.5186 C   0  0  0  0  0  0  0  0  0  0  0  0
    4.2420    0.2190    8.6934 C   0  0  0  0  0  0  0  0  0  0  0  0
    3.8473   -0.9699    9.3834 C   0  0  0  0  0  0  0  0  0  0  0  0
    3.4043   -0.8513   10.7003 C   0  0  0  0  0  0  0  0  0  0  0  0
    3.0040   -1.9603   11.4426 C   0  0  0  0  0  0  0  0  0  0  0  0
    3.0528   -3.1706   10.8575 N   0  0  0  0  0  0  0  0  0  0  0  0
    3.4643   -3.3469    9.6096 C   0  0  0  0  0  0  0  0  0  0  0  0
    3.8579   -2.2422    8.8845 C   0  0  0  0  0  0  0  0  0  0  0  0
    4.2624   -2.4654    7.5398 N   0  0  0  0  0  0  0  0  0  0  0  0
    5.6156   -2.8303    7.2600 C   0  0  0  0  0  0  0  0  0  0  0  0
    3.2897   -2.3647    6.5295 C   0  0  0  0  0  0  0  0  0  0  0  0
    3.6895   -2.1566    5.3004 O   0  0  0  0  0  0  0  0  0  0  0  0
    1.8344   -2.4577    6.6403 C   0  0  0  0  0  0  0  0  0  0  0  0
    1.5021   -3.4885    7.7302 C   0  0  0  0  0  0  0  0  0  0  0  0
    1.1176   -2.9577    5.4069 C   0  0  0  0  0  0  0  0  0  0  0  0
    1.1995   -1.1643    6.9981 C   0  0  0  0  0  0  0  0  0  0  0  0
    1.0061   -0.1545    6.0939 C   0  0  0  0  0  0  0  0  0  0  0  0
    0.3850    1.0553    6.4411 C   0  0  0  0  0  0  0  0  0  0  0  0
   -0.0428    1.2333    7.7319 C   0  0  0  0  0  0  0  0  0  0  0  0
    0.1368    0.2452    8.6554 C   0  0  0  0  0  0  0  0  0  0  0  0
    0.7458   -0.9270    8.2909 C   0  0  0  0  0  0  0  0  0  0  0  0
   -0.3527    0.4967   10.0552 C   0  0  0  0  0  0  0  0  0  0  0  0
   -1.3695    1.4406    9.9769 F   0  0  0  0  0  0  0  0  0  0  0  0
   -0.8285   -0.7246   10.5113 F   0  0  0  0  0  0  0  0  0  0  0  0
    0.6952    0.9514   10.8332 F   0  0  0  0  0  0  0  0  0  0  0  0
    0.1825    2.1376    5.4504 C   0  0  0  0  0  0  0  0  0  0  0  0
   -1.1736    2.3766    5.2344 F   0  0  0  0  0  0  0  0  0  0  0  0
    0.8304    3.2980    5.8243 F   0  0  0  0  0  0  0  0  0  0  0  0
    0.7179    1.7500    4.2202 F   0  0  0  0  0  0  0  0  0  0  0  0
    2.5577   -1.8308   12.7662 N   0  0  0  0  0  0  0  0  0  0  0  0
    2.6788   -0.5812   13.4683 C   0  0  0  0  0  0  0  0  0  0  0  0
    2.1667   -0.8413   14.8898 C   0  0  0  0  0  0  0  0  0  0  0  0
    0.8624   -1.4145   14.9167 N   0  0  0  0  0  0  0  0  0  0  0  0
    0.6268   -2.4723   13.9623 C   0  0  0  0  0  0  0  0  0  0  0  0
    1.9664   -2.9495   13.4471 C   0  0  0  0  0  0  0  0  0  0  0  0
    0.5698   -1.9551   16.2303 C   0  0  0  0  0  0  0  0  0  0  0  0
  1  2  1  0
  2  3  2  0
  3  4  1  0
  4  5  2  0
  5  6  1  0
  6  7  2  0
  7  8  1  0
  8  9  2  0
  9 10  1  0
 10 11  2  0
 11 12  1  0
 12 13  2  0
 13 14  1  0
 14 15  1  0
 14 16  1  0
 16 17  2  0
 16 18  1  0
 18 19  1  0
 18 20  1  0
 18 21  1  0
 21 22  2  0
 22 23  1  0
 23 24  2  0
 24 25  1  0
 25 26  2  0
 25 27  1  0
 27 28  1  0
 27 29  1  0
 27 30  1  0
 23 31  1  0
 31 32  1  0
 31 33  1  0
 31 34  1  0
 10 35  1  0
 35 36  1  0
 36 37  1  0
 37 38  1  0
 38 39  1  0
 39 40  1  0
 38 41  1  0
  7  2  1  0
 13  8  1  0
 26 21  1  0
 40 35  1  0
M  END
$$$$
