
     RDKit          3D

 41 44  0  0  0  0  0  0  0  0999 V2000
    2.8910   -2.6247    7.5278 C   0  0  0  0  0  0  0  0  0  0  0  0
    2.7692   -3.4013    8.8040 C   0  0  0  0  0  0  0  0  0  0  0  0
    2.8116   -4.7904    8.6229 C   0  0  0  0  0  0  0  0  0  0  0  0
    2.6918   -5.5863    9.7364 C   0  0  0  0  0  0  0  0  0  0  0  0
    2.5354   -5.0308   10.9886 C   0  0  0  0  0  0  0  0  0  0  0  0
    2.4973   -3.6673   11.1399 C   0  0  0  0  0  0  0  0  0  0  0  0
    2.6143   -2.8188   10.0444 C   0  0  0  0  0  0  0  0  0  0  0  0
    2.5949   -1.3926   10.1504 C   0  0  0  0  0  0  0  0  0  0  0  0
    2.1714   -0.8268   11.3524 C   0  0  0  0  0  0  0  0  0  0  0  0
    2.1212    0.5533   11.5364 C   0  0  0  0  0  0  0  0  0  0  0  0
    2.4949    1.3466   10.5163 N   0  0  0  0  0  0  0  0  0  0  0  0
    2.9065    0.8680    9.3504 C   0  0  0  0  0  0  0  0  0  0  0  0
    2.9522   -0.4993    9.1798 C   0  0  0  0  0  0  0  0  0  0  0  0
    3.4291   -0.9764    7.9281 N   0  0  0  0  0  0  0  0  0  0  0  0
    4.8350   -1.0083    7.6729 C   0  0  0  0  0  0  0  0  0  0  0  0
    2.4880   -1.4503    6.9971 C   0  0  0  0  0  0  0  0  0  0  0  0
    2.8814   -2.3250    6.1061 O   0  0  0  0  0  0  0  0  0  0  0  0
    1.0742   -1.1025    6.8590 C   0  0  0  0  0  0  0  0  0  0  0  0
    0.2674   -2.4066    6.7641 C   0  0  0  0  0  0  0  0  0  0  0  0
    0.7114   -0.3340    5.6088 C   0  0  0  0  0  0  0  0  0  0  0  0
    0.5616   -0.3071    8.0029 C   0  0  0  0  0  0  0  0  0  0  0  0
    0.1283    0.9855    7.8762 C   0  0  0  0  0  0  0  0  0  0  0  0
   -0.3740    1.7188    8.9625 C   0  0  0  0  0  0  0  0  0  0  0  0
   -0.4323    1.1201   10.1950 C   0  0  0  0  0  0  0  0  0  0  0  0
   -0.0070   -0.1666   10.3522 C   0  0  0  0  0  0  0  0  0  0  0  0
    0.4788   -0.8611    9.2755 C   0  0  0  0  0  0  0  0  0  0  0  0
   -0.0949   -0.7708   11.7268 C   0  0  0  0  0  0  0  0  0  0  0  0
   -1.3580   -1.3362   11.8527 F   0  0  0  0  0  0  0  0  0  0  0  0
    0.9004   -1.7367   11.7764 F   0  0  0  0  0  0  0  0  0  0  0  0
    0.1109    0.2135   12.6749 F   0  0  0  0  0  0  0  0  0  0  0  0
   -0.8397    3.1164    8.8082 C   0  0  0  0  0  0  0  0  0  0  0  0
    0.1124    4.0201    9.2771 F   0  0  0  0  0  0  0  0  0  0  0  0
   -1.1795    3.3984    7.5001 F   0  0  0  0  0  0  0  0  0  0  0  0
   -1.9873    3.3134    9.5791 F   0  0  0  0  0  0  0  0  0  0  0  0
    1.6959    1.1134   12.7503 N   0  0  0  0  0  0  0  0  0  0  0  0
    1.8097    0.3804   13.9827 C   0  0  0  0  0  0  0  0  0  0  0  0
    1.1809    1.2671   15.0639 C   0  0  0  0  0  0  0  0  0  0  0  0
    1.7337    2.5801   15.0995 N   0  0  0  0  0  0  0  0  0  0  0  0
    1.9351    3.2066   13.8142 C   0  0  0  0  0  0  0  0  0  0  0  0
    1.1379    2.4370   12.7845 C   0  0  0  0  0  0  0  0  0  0  0  0
    0.8901    3.4676   15.8768 C   0  0  0  0  0  0  0  0  0  0  0  0
  1  2  1  0
  2  3  2  0
  3  4  1  0
  4  5  2  0
  5  6  1  0
  6  7  2  0
  7  8  1  0
  8  9  2  0
  9 10  1  0
 10 11  2  0
 11 12  1  0
 12 13  2  0
 13 14  1  0
 14 15  1  0
 14 16  1  0
 16 17  2  0
 16 18  1  0
 18 19  1  0
 18 20  1  0
 18 21  1  0
 21 22  2  0
 22 23  1  0
 23 24  2  0
 24 25  1  0
 25 26  2  0
 25 27  1  0
 27 28  1  0
 27 29  1  0
 27 30  1  0
 23 31  1  0
 31 32  1  0
 31 33  1  0
 31 34  1  0
 10 35  1  0
 35 36  1  0
 36 37  1  0
 37 38  1  0
 38 39  1  0
 39 40  1  0
 38 41  1  0
  7  2  1  0
 13  8  1  0
 26 21  1  0
 40 35  1  0
M  END
$$$$
