
     RDKit          3D

 41 44  0  0  0  0  0  0  0  0999 V2000
    4.8612   -1.5774    7.7923 C   0  0  0  0  0  0  0  0  0  0  0  0
    3.6666   -0.7993    7.3295 C   0  0  0  0  0  0  0  0  0  0  0  0
    3.3507   -1.0044    5.9795 C   0  0  0  0  0  0  0  0  0  0  0  0
    2.2782   -0.3202    5.4607 C   0  0  0  0  0  0  0  0  0  0  0  0
    1.5404    0.5388    6.2473 C   0  0  0  0  0  0  0  0  0  0  0  0
    1.8697    0.7225    7.5669 C   0  0  0  0  0  0  0  0  0  0  0  0
    2.9459    0.0532    8.1392 C   0  0  0  0  0  0  0  0  0  0  0  0
    3.3212    0.1991    9.5116 C   0  0  0  0  0  0  0  0  0  0  0  0
    3.1682    1.4506   10.1072 C   0  0  0  0  0  0  0  0  0  0  0  0
    3.5119    1.6768   11.4383 C   0  0  0  0  0  0  0  0  0  0  0  0
    4.0032    0.6489   12.1535 N   0  0  0  0  0  0  0  0  0  0  0  0
    4.1715   -0.5631   11.6432 C   0  0  0  0  0  0  0  0  0  0  0  0
    3.8278   -0.7754   10.3250 C   0  0  0  0  0  0  0  0  0  0  0  0
    3.9916   -2.0949    9.8212 N   0  0  0  0  0  0  0  0  0  0  0  0
    5.2228   -2.4654    9.1972 C   0  0  0  0  0  0  0  0  0  0  0  0
    2.9394   -3.0095   10.0037 C   0  0  0  0  0  0  0  0  0  0  0  0
    3.0731   -4.2163    9.5141 O   0  0  0  0  0  0  0  0  0  0  0  0
    1.6589   -2.8160   10.6832 C   0  0  0  0  0  0  0  0  0  0  0  0
    1.9450   -2.3852   12.1301 C   0  0  0  0  0  0  0  0  0  0  0  0
    0.7970   -4.0510   10.8130 C   0  0  0  0  0  0  0  0  0  0  0  0
    0.8133   -1.7814   10.0363 C   0  0  0  0  0  0  0  0  0  0  0  0
    0.6504   -1.6945    8.6796 C   0  0  0  0  0  0  0  0  0  0  0  0
   -0.1693   -0.7241    8.0826 C   0  0  0  0  0  0  0  0  0  0  0  0
   -0.8301    0.1695    8.8860 C   0  0  0  0  0  0  0  0  0  0  0  0
   -0.6867    0.1081   10.2414 C   0  0  0  0  0  0  0  0  0  0  0  0
    0.1193   -0.8491   10.7996 C   0  0  0  0  0  0  0  0  0  0  0  0
   -1.4357    1.1141   11.0717 C   0  0  0  0  0  0  0  0  0  0  0  0
   -0.6886    2.2857   11.0797 F   0  0  0  0  0  0  0  0  0  0  0  0
   -2.6547    1.2943   10.4332 F   0  0  0  0  0  0  0  0  0  0  0  0
   -1.6054    0.6185   12.3506 F   0  0  0  0  0  0  0  0  0  0  0  0
   -0.3355   -0.6444    6.6129 C   0  0  0  0  0  0  0  0  0  0  0  0
   -1.2421   -1.5991    6.1551 F   0  0  0  0  0  0  0  0  0  0  0  0
   -0.7134    0.6214    6.2112 F   0  0  0  0  0  0  0  0  0  0  0  0
    0.8828   -0.9231    5.9899 F   0  0  0  0  0  0  0  0  0  0  0  0
    3.3523    2.9389   12.0296 N   0  0  0  0  0  0  0  0  0  0  0  0
    3.8426    3.2011   13.3562 C   0  0  0  0  0  0  0  0  0  0  0  0
    3.4220    4.6376   13.6883 C   0  0  0  0  0  0  0  0  0  0  0  0
    3.8353    5.5816   12.7041 N   0  0  0  0  0  0  0  0  0  0  0  0
    3.6457    5.1744   11.3317 C   0  0  0  0  0  0  0  0  0  0  0  0
    2.6946    3.9985   11.3159 C   0  0  0  0  0  0  0  0  0  0  0  0
    3.1315    6.8381   12.8751 C   0  0  0  0  0  0  0  0  0  0  0  0
  1  2  1  0
  2  3  2  0
  3  4  1  0
  4  5  2  0
  5  6  1  0
  6  7  2  0
  7  8  1  0
  8  9  2  0
  9 10  1  0
 10 11  2  0
 11 12  1  0
 12 13  2  0
 13 14  1  0
 14 15  1  0
 14 16  1  0
 16 17  2  0
 16 18  1  0
 18 19  1  0
 18 20  1  0
 18 21  1  0
 21 22  2  0
 22 23  1  0
 23 24  2  0
 24 25  1  0
 25 26  2  0
 25 27  1  0
 27 28  1  0
 27 29  1  0
 27 30  1  0
 23 31  1  0
 31 32  1  0
 31 33  1  0
 31 34  1  0
 10 35  1  0
 35 36  1  0
 36 37  1  0
 37 38  1  0
 38 39  1  0
 39 40  1  0
 38 41  1  0
  7  2  1  0
 13  8  1  0
 26 21  1  0
 40 35  1  0
M  END
$$$$
