
     RDKit          3D

 41 44  0  0  0  0  0  0  0  0999 V2000
   -0.5812    0.4506    8.8964 C   0  0  0  0  0  0  0  0  0  0  0  0
   -0.6086    1.5382    9.9274 C   0  0  0  0  0  0  0  0  0  0  0  0
   -1.8238    2.2347    9.9775 C   0  0  0  0  0  0  0  0  0  0  0  0
   -1.9377    3.2614   10.8833 C   0  0  0  0  0  0  0  0  0  0  0  0
   -0.8873    3.5913   11.7133 C   0  0  0  0  0  0  0  0  0  0  0  0
    0.2927    2.8938   11.6452 C   0  0  0  0  0  0  0  0  0  0  0  0
    0.4578    1.8463   10.7458 C   0  0  0  0  0  0  0  0  0  0  0  0
    1.6612    1.0799   10.6454 C   0  0  0  0  0  0  0  0  0  0  0  0
    1.9548    0.1772   11.6669 C   0  0  0  0  0  0  0  0  0  0  0  0
    3.1073   -0.6053   11.6460 C   0  0  0  0  0  0  0  0  0  0  0  0
    3.9487   -0.4735   10.6047 N   0  0  0  0  0  0  0  0  0  0  0  0
    3.7241    0.3670    9.6042 C   0  0  0  0  0  0  0  0  0  0  0  0
    2.5803    1.1362    9.6355 C   0  0  0  0  0  0  0  0  0  0  0  0
    2.3565    2.0024    8.5304 N   0  0  0  0  0  0  0  0  0  0  0  0
    2.8512    3.3426    8.5713 C   0  0  0  0  0  0  0  0  0  0  0  0
    1.6909    1.4837    7.4057 C   0  0  0  0  0  0  0  0  0  0  0  0
    0.8557    2.2615    6.7643 O   0  0  0  0  0  0  0  0  0  0  0  0
    1.7868    0.1501    6.8131 C   0  0  0  0  0  0  0  0  0  0  0  0
    3.1611    0.0241    6.1376 C   0  0  0  0  0  0  0  0  0  0  0  0
    0.7903   -0.1489    5.7164 C   0  0  0  0  0  0  0  0  0  0  0  0
    1.6464   -0.9372    7.8142 C   0  0  0  0  0  0  0  0  0  0  0  0
    2.7005   -1.7039    8.2336 C   0  0  0  0  0  0  0  0  0  0  0  0
    2.5573   -2.7146    9.1967 C   0  0  0  0  0  0  0  0  0  0  0  0
    1.3176   -2.9436    9.7368 C   0  0  0  0  0  0  0  0  0  0  0  0
    0.2481   -2.1962    9.3380 C   0  0  0  0  0  0  0  0  0  0  0  0
    0.4145   -1.2149    8.3962 C   0  0  0  0  0  0  0  0  0  0  0  0
   -1.0866   -2.4923    9.9650 C   0  0  0  0  0  0  0  0  0  0  0  0
   -2.0628   -1.9357    9.1476 F   0  0  0  0  0  0  0  0  0  0  0  0
   -1.1849   -3.8762   10.0020 F   0  0  0  0  0  0  0  0  0  0  0  0
   -1.1273   -1.9503   11.2357 F   0  0  0  0  0  0  0  0  0  0  0  0
    3.7083   -3.5346    9.6402 C   0  0  0  0  0  0  0  0  0  0  0  0
    3.6160   -3.8420   10.9967 F   0  0  0  0  0  0  0  0  0  0  0  0
    3.8356   -4.6838    8.8857 F   0  0  0  0  0  0  0  0  0  0  0  0
    4.8893   -2.8073    9.4776 F   0  0  0  0  0  0  0  0  0  0  0  0
    3.3931   -1.5124   12.6772 N   0  0  0  0  0  0  0  0  0  0  0  0
    4.7506   -1.8668   12.9949 C   0  0  0  0  0  0  0  0  0  0  0  0
    4.6655   -2.9234   14.1026 C   0  0  0  0  0  0  0  0  0  0  0  0
    3.8845   -2.5014   15.2173 N   0  0  0  0  0  0  0  0  0  0  0  0
    2.6467   -1.8321   14.8933 C   0  0  0  0  0  0  0  0  0  0  0  0
    2.3294   -2.1052   13.4399 C   0  0  0  0  0  0  0  0  0  0  0  0
    3.5476   -3.6318   16.0612 C   0  0  0  0  0  0  0  0  0  0  0  0
  1  2  1  0
  2  3  2  0
  3  4  1  0
  4  5  2  0
  5  6  1  0
  6  7  2  0
  7  8  1  0
  8  9  2  0
  9 10  1  0
 10 11  2  0
 11 12  1  0
 12 13  2  0
 13 14  1  0
 14 15  1  0
 14 16  1  0
 16 17  2  0
 16 18  1  0
 18 19  1  0
 18 20  1  0
 18 21  1  0
 21 22  2  0
 22 23  1  0
 23 24  2  0
 24 25  1  0
 25 26  2  0
 25 27  1  0
 27 28  1  0
 27 29  1  0
 27 30  1  0
 23 31  1  0
 31 32  1  0
 31 33  1  0
 31 34  1  0
 10 35  1  0
 35 36  1  0
 36 37  1  0
 37 38  1  0
 38 39  1  0
 39 40  1  0
 38 41  1  0
  7  2  1  0
 13  8  1  0
 26 21  1  0
 40 35  1  0
M  END
$$$$
