
     RDKit          3D

 41 44  0  0  0  0  0  0  0  0999 V2000
    5.3487   -2.4661    8.3351 C   0  0  0  0  0  0  0  0  0  0  0  0
    4.0797   -2.7535    7.5911 C   0  0  0  0  0  0  0  0  0  0  0  0
    4.2246   -3.7175    6.5840 C   0  0  0  0  0  0  0  0  0  0  0  0
    3.1165   -4.0361    5.8370 C   0  0  0  0  0  0  0  0  0  0  0  0
    1.9040   -3.4242    6.0748 C   0  0  0  0  0  0  0  0  0  0  0  0
    1.7876   -2.4834    7.0672 C   0  0  0  0  0  0  0  0  0  0  0  0
    2.8793   -2.1263    7.8510 C   0  0  0  0  0  0  0  0  0  0  0  0
    2.8070   -1.1629    8.9056 C   0  0  0  0  0  0  0  0  0  0  0  0
    2.7458   -1.6270   10.2191 C   0  0  0  0  0  0  0  0  0  0  0  0
    2.6715   -0.7548   11.3030 C   0  0  0  0  0  0  0  0  0  0  0  0
    2.6593    0.5678   11.0574 N   0  0  0  0  0  0  0  0  0  0  0  0
    2.7152    1.0692    9.8313 C   0  0  0  0  0  0  0  0  0  0  0  0
    2.7887    0.1965    8.7665 C   0  0  0  0  0  0  0  0  0  0  0  0
    2.8795    0.7704    7.4688 N   0  0  0  0  0  0  0  0  0  0  0  0
    4.1015    1.3823    7.0505 C   0  0  0  0  0  0  0  0  0  0  0  0
    1.7639    0.6682    6.6191 C   0  0  0  0  0  0  0  0  0  0  0  0
    1.9552    0.7668    5.3278 O   0  0  0  0  0  0  0  0  0  0  0  0
    0.3583    0.4620    6.9662 C   0  0  0  0  0  0  0  0  0  0  0  0
   -0.1195   -0.8283    6.2823 C   0  0  0  0  0  0  0  0  0  0  0  0
   -0.5958    1.5299    6.4819 C   0  0  0  0  0  0  0  0  0  0  0  0
    0.1380    0.3358    8.4289 C   0  0  0  0  0  0  0  0  0  0  0  0
    1.0665   -0.2045    9.2778 C   0  0  0  0  0  0  0  0  0  0  0  0
    0.8536   -0.2981   10.6619 C   0  0  0  0  0  0  0  0  0  0  0  0
   -0.3265    0.1672   11.1832 C   0  0  0  0  0  0  0  0  0  0  0  0
   -1.2711    0.7102   10.3620 C   0  0  0  0  0  0  0  0  0  0  0  0
   -1.0387    0.7904    9.0140 C   0  0  0  0  0  0  0  0  0  0  0  0
   -2.5456    1.2038   10.9900 C   0  0  0  0  0  0  0  0  0  0  0  0
   -2.9619    2.3153   10.2674 F   0  0  0  0  0  0  0  0  0  0  0  0
   -3.4497    0.1571   10.8761 F   0  0  0  0  0  0  0  0  0  0  0  0
   -2.3108    1.5249   12.3136 F   0  0  0  0  0  0  0  0  0  0  0  0
    1.8690   -0.8848   11.5667 C   0  0  0  0  0  0  0  0  0  0  0  0
    3.1115   -0.2775   11.3921 F   0  0  0  0  0  0  0  0  0  0  0  0
    1.4731   -0.8181   12.8877 F   0  0  0  0  0  0  0  0  0  0  0  0
    2.0414   -2.2363   11.2605 F   0  0  0  0  0  0  0  0  0  0  0  0
    2.6126   -1.2311   12.6212 N   0  0  0  0  0  0  0  0  0  0  0  0
    2.1381   -0.3929   13.6896 C   0  0  0  0  0  0  0  0  0  0  0  0
    2.2910   -1.2152   14.9745 C   0  0  0  0  0  0  0  0  0  0  0  0
    1.6639   -2.4925   14.8972 N   0  0  0  0  0  0  0  0  0  0  0  0
    1.8691   -3.2139   13.6633 C   0  0  0  0  0  0  0  0  0  0  0  0
    3.0254   -2.5725   12.9289 C   0  0  0  0  0  0  0  0  0  0  0  0
    2.1220   -3.3514   15.9724 C   0  0  0  0  0  0  0  0  0  0  0  0
  1  2  1  0
  2  3  2  0
  3  4  1  0
  4  5  2  0
  5  6  1  0
  6  7  2  0
  7  8  1  0
  8  9  2  0
  9 10  1  0
 10 11  2  0
 11 12  1  0
 12 13  2  0
 13 14  1  0
 14 15  1  0
 14 16  1  0
 16 17  2  0
 16 18  1  0
 18 19  1  0
 18 20  1  0
 18 21  1  0
 21 22  2  0
 22 23  1  0
 23 24  2  0
 24 25  1  0
 25 26  2  0
 25 27  1  0
 27 28  1  0
 27 29  1  0
 27 30  1  0
 23 31  1  0
 31 32  1  0
 31 33  1  0
 31 34  1  0
 10 35  1  0
 35 36  1  0
 36 37  1  0
 37 38  1  0
 38 39  1  0
 39 40  1  0
 38 41  1  0
  7  2  1  0
 13  8  1  0
 26 21  1  0
 40 35  1  0
M  END
$$$$
