
     RDKit          3D

 41 44  0  0  0  0  0  0  0  0999 V2000
    4.0426   -3.3395    8.0349 C   0  0  0  0  0  0  0  0  0  0  0  0
    2.6549   -3.0838    7.5294 C   0  0  0  0  0  0  0  0  0  0  0  0
    2.2080   -4.0392    6.6064 C   0  0  0  0  0  0  0  0  0  0  0  0
    0.9509   -3.8791    6.0756 C   0  0  0  0  0  0  0  0  0  0  0  0
    0.1595   -2.8115    6.4427 C   0  0  0  0  0  0  0  0  0  0  0  0
    0.6198   -1.8893    7.3489 C   0  0  0  0  0  0  0  0  0  0  0  0
    1.8845   -2.0068    7.9149 C   0  0  0  0  0  0  0  0  0  0  0  0
    2.4049   -1.0815    8.8733 C   0  0  0  0  0  0  0  0  0  0  0  0
    2.0475   -1.2473   10.2109 C   0  0  0  0  0  0  0  0  0  0  0  0
    2.5095   -0.3884   11.2058 C   0  0  0  0  0  0  0  0  0  0  0  0
    3.3213    0.6231   10.8486 N   0  0  0  0  0  0  0  0  0  0  0  0
    3.6960    0.8319    9.5941 C   0  0  0  0  0  0  0  0  0  0  0  0
    3.2328   -0.0245    8.6180 C   0  0  0  0  0  0  0  0  0  0  0  0
    3.6811    0.2109    7.2893 N   0  0  0  0  0  0  0  0  0  0  0  0
    5.0163   -0.1414    6.9210 C   0  0  0  0  0  0  0  0  0  0  0  0
    2.7648    0.7429    6.3650 C   0  0  0  0  0  0  0  0  0  0  0  0
    3.0182    0.6034    5.0882 O   0  0  0  0  0  0  0  0  0  0  0  0
    1.5168    1.4628    6.6162 C   0  0  0  0  0  0  0  0  0  0  0  0
    0.3935    0.7593    5.8390 C   0  0  0  0  0  0  0  0  0  0  0  0
    1.4816    2.8943    6.1317 C   0  0  0  0  0  0  0  0  0  0  0  0
    1.1512    1.4985    8.0546 C   0  0  0  0  0  0  0  0  0  0  0  0
    1.6922    2.3934    8.9384 C   0  0  0  0  0  0  0  0  0  0  0  0
    1.3214    2.4297   10.2915 C   0  0  0  0  0  0  0  0  0  0  0  0
    0.3844    1.5370   10.7455 C   0  0  0  0  0  0  0  0  0  0  0  0
   -0.1719    0.6330    9.8884 C   0  0  0  0  0  0  0  0  0  0  0  0
    0.2071    0.6183    8.5717 C   0  0  0  0  0  0  0  0  0  0  0  0
   -1.1940   -0.3212   10.4427 C   0  0  0  0  0  0  0  0  0  0  0  0
   -2.4422    0.2686   10.2848 F   0  0  0  0  0  0  0  0  0  0  0  0
   -1.0794   -1.4768    9.6827 F   0  0  0  0  0  0  0  0  0  0  0  0
   -0.9192   -0.5652   11.7750 F   0  0  0  0  0  0  0  0  0  0  0  0
    1.9159    3.4051   11.2346 C   0  0  0  0  0  0  0  0  0  0  0  0
    1.5594    4.7108   10.9014 F   0  0  0  0  0  0  0  0  0  0  0  0
    1.5735    3.1229   12.5420 F   0  0  0  0  0  0  0  0  0  0  0  0
    3.3086    3.3414   11.1551 F   0  0  0  0  0  0  0  0  0  0  0  0
    2.1463   -0.5645   12.5494 N   0  0  0  0  0  0  0  0  0  0  0  0
    0.7896   -0.3595   12.9814 C   0  0  0  0  0  0  0  0  0  0  0  0
    0.7924   -0.5632   14.5009 C   0  0  0  0  0  0  0  0  0  0  0  0
    1.3604   -1.8091   14.8957 N   0  0  0  0  0  0  0  0  0  0  0  0
    2.5747   -2.1853   14.2107 C   0  0  0  0  0  0  0  0  0  0  0  0
    3.1277   -0.9571   13.5226 C   0  0  0  0  0  0  0  0  0  0  0  0
    1.6570   -1.8074   16.3154 C   0  0  0  0  0  0  0  0  0  0  0  0
  1  2  1  0
  2  3  2  0
  3  4  1  0
  4  5  2  0
  5  6  1  0
  6  7  2  0
  7  8  1  0
  8  9  2  0
  9 10  1  0
 10 11  2  0
 11 12  1  0
 12 13  2  0
 13 14  1  0
 14 15  1  0
 14 16  1  0
 16 17  2  0
 16 18  1  0
 18 19  1  0
 18 20  1  0
 18 21  1  0
 21 22  2  0
 22 23  1  0
 23 24  2  0
 24 25  1  0
 25 26  2  0
 25 27  1  0
 27 28  1  0
 27 29  1  0
 27 30  1  0
 23 31  1  0
 31 32  1  0
 31 33  1  0
 31 34  1  0
 10 35  1  0
 35 36  1  0
 36 37  1  0
 37 38  1  0
 38 39  1  0
 39 40  1  0
 38 41  1  0
  7  2  1  0
 13  8  1  0
 26 21  1  0
 40 35  1  0
M  END
$$$$
