
     RDKit          3D

 41 44  0  0  0  0  0  0  0  0999 V2000
    3.9512   -3.3574    7.4376 C   0  0  0  0  0  0  0  0  0  0  0  0
    2.5615   -2.9062    7.1034 C   0  0  0  0  0  0  0  0  0  0  0  0
    1.9832   -3.6095    6.0379 C   0  0  0  0  0  0  0  0  0  0  0  0
    0.7140   -3.2549    5.6491 C   0  0  0  0  0  0  0  0  0  0  0  0
    0.0364   -2.2395    6.2900 C   0  0  0  0  0  0  0  0  0  0  0  0
    0.6243   -1.5659    7.3313 C   0  0  0  0  0  0  0  0  0  0  0  0
    1.9067   -1.8871    7.7626 C   0  0  0  0  0  0  0  0  0  0  0  0
    2.5577   -1.2256    8.8508 C   0  0  0  0  0  0  0  0  0  0  0  0
    2.2920   -1.6695   10.1457 C   0  0  0  0  0  0  0  0  0  0  0  0
    2.8832   -1.0781   11.2600 C   0  0  0  0  0  0  0  0  0  0  0  0
    3.7308   -0.0522   11.0630 N   0  0  0  0  0  0  0  0  0  0  0  0
    4.0229    0.4141    9.8568 C   0  0  0  0  0  0  0  0  0  0  0  0
    3.4319   -0.1790    8.7614 C   0  0  0  0  0  0  0  0  0  0  0  0
    3.7934    0.3262    7.4824 N   0  0  0  0  0  0  0  0  0  0  0  0
    5.0051   -0.1137    6.8653 C   0  0  0  0  0  0  0  0  0  0  0  0
    2.9076    1.2132    6.8455 C   0  0  0  0  0  0  0  0  0  0  0  0
    2.6722    1.0462    5.5686 O   0  0  0  0  0  0  0  0  0  0  0  0
    2.1757    2.3467    7.4097 C   0  0  0  0  0  0  0  0  0  0  0  0
    1.0917    2.7648    6.4043 C   0  0  0  0  0  0  0  0  0  0  0  0
    2.9905    3.5990    7.6397 C   0  0  0  0  0  0  0  0  0  0  0  0
    1.5258    2.0261    8.7054 C   0  0  0  0  0  0  0  0  0  0  0  0
    1.6396    2.8232    9.8128 C   0  0  0  0  0  0  0  0  0  0  0  0
    1.0022    2.5189   11.0256 C   0  0  0  0  0  0  0  0  0  0  0  0
    0.2386    1.3824   11.1052 C   0  0  0  0  0  0  0  0  0  0  0  0
    0.1072    0.5681   10.0184 C   0  0  0  0  0  0  0  0  0  0  0  0
    0.7396    0.8879    8.8457 C   0  0  0  0  0  0  0  0  0  0  0  0
   -0.7427   -0.6642   10.1648 C   0  0  0  0  0  0  0  0  0  0  0  0
    0.1128   -1.7340   10.3990 F   0  0  0  0  0  0  0  0  0  0  0  0
   -1.5657   -0.4248   11.2562 F   0  0  0  0  0  0  0  0  0  0  0  0
   -1.4790   -0.8539    9.0107 F   0  0  0  0  0  0  0  0  0  0  0  0
    1.1349    3.3926   12.2143 C   0  0  0  0  0  0  0  0  0  0  0  0
    2.4643    3.4927   12.6211 F   0  0  0  0  0  0  0  0  0  0  0  0
    0.5966    4.6439   11.9891 F   0  0  0  0  0  0  0  0  0  0  0  0
    0.4334    2.8337   13.2846 F   0  0  0  0  0  0  0  0  0  0  0  0
    2.6115   -1.5330   12.5589 N   0  0  0  0  0  0  0  0  0  0  0  0
    3.0137   -0.7687   13.7092 C   0  0  0  0  0  0  0  0  0  0  0  0
    2.6237   -1.6058   14.9330 C   0  0  0  0  0  0  0  0  0  0  0  0
    1.2532   -1.9963   14.9279 N   0  0  0  0  0  0  0  0  0  0  0  0
    0.7431   -2.4638   13.6605 C   0  0  0  0  0  0  0  0  0  0  0  0
    1.9210   -2.7762   12.7645 C   0  0  0  0  0  0  0  0  0  0  0  0
    1.0202   -3.0521   15.8947 C   0  0  0  0  0  0  0  0  0  0  0  0
  1  2  1  0
  2  3  2  0
  3  4  1  0
  4  5  2  0
  5  6  1  0
  6  7  2  0
  7  8  1  0
  8  9  2  0
  9 10  1  0
 10 11  2  0
 11 12  1  0
 12 13  2  0
 13 14  1  0
 14 15  1  0
 14 16  1  0
 16 17  2  0
 16 18  1  0
 18 19  1  0
 18 20  1  0
 18 21  1  0
 21 22  2  0
 22 23  1  0
 23 24  2  0
 24 25  1  0
 25 26  2  0
 25 27  1  0
 27 28  1  0
 27 29  1  0
 27 30  1  0
 23 31  1  0
 31 32  1  0
 31 33  1  0
 31 34  1  0
 10 35  1  0
 35 36  1  0
 36 37  1  0
 37 38  1  0
 38 39  1  0
 39 40  1  0
 38 41  1  0
  7  2  1  0
 13  8  1  0
 26 21  1  0
 40 35  1  0
M  END
$$$$
