
     RDKit          3D

 41 44  0  0  0  0  0  0  0  0999 V2000
    3.8337   -3.0447    7.0450 C   0  0  0  0  0  0  0  0  0  0  0  0
    2.3888   -2.6792    6.8864 C   0  0  0  0  0  0  0  0  0  0  0  0
    1.7826   -3.2582    5.7632 C   0  0  0  0  0  0  0  0  0  0  0  0
    0.4607   -2.9678    5.5267 C   0  0  0  0  0  0  0  0  0  0  0  0
   -0.2414   -2.1333    6.3703 C   0  0  0  0  0  0  0  0  0  0  0  0
    0.3748   -1.5787    7.4641 C   0  0  0  0  0  0  0  0  0  0  0  0
    1.7106   -1.8417    7.7470 C   0  0  0  0  0  0  0  0  0  0  0  0
    2.3943   -1.3004    8.8806 C   0  0  0  0  0  0  0  0  0  0  0  0
    1.9503   -1.6614   10.1522 C   0  0  0  0  0  0  0  0  0  0  0  0
    2.5600   -1.1768   11.3075 C   0  0  0  0  0  0  0  0  0  0  0  0
    3.6039   -0.3389   11.1741 N   0  0  0  0  0  0  0  0  0  0  0  0
    4.0714    0.0405    9.9929 C   0  0  0  0  0  0  0  0  0  0  0  0
    3.4603   -0.4455    8.8565 C   0  0  0  0  0  0  0  0  0  0  0  0
    4.0087   -0.0427    7.6081 N   0  0  0  0  0  0  0  0  0  0  0  0
    5.3617   -0.3756    7.2900 C   0  0  0  0  0  0  0  0  0  0  0  0
    3.1713    0.6337    6.7035 C   0  0  0  0  0  0  0  0  0  0  0  0
    3.5610    0.7429    5.4585 O   0  0  0  0  0  0  0  0  0  0  0  0
    1.8749    1.2659    6.9454 C   0  0  0  0  0  0  0  0  0  0  0  0
    0.7749    0.2744    6.5359 C   0  0  0  0  0  0  0  0  0  0  0  0
    1.5943    2.5090    6.1323 C   0  0  0  0  0  0  0  0  0  0  0  0
    1.6728    1.6413    8.3675 C   0  0  0  0  0  0  0  0  0  0  0  0
    2.6460    2.2340    9.1266 C   0  0  0  0  0  0  0  0  0  0  0  0
    2.4340    2.6030   10.4640 C   0  0  0  0  0  0  0  0  0  0  0  0
    1.2092    2.3609   11.0315 C   0  0  0  0  0  0  0  0  0  0  0  0
    0.2201    1.7708   10.3002 C   0  0  0  0  0  0  0  0  0  0  0  0
    0.4523    1.4204    8.9960 C   0  0  0  0  0  0  0  0  0  0  0  0
   -1.1022    1.5301   10.9753 C   0  0  0  0  0  0  0  0  0  0  0  0
   -1.1662    0.1794   11.2950 F   0  0  0  0  0  0  0  0  0  0  0  0
   -1.0907    2.3212   12.1155 F   0  0  0  0  0  0  0  0  0  0  0  0
   -2.1265    1.8927   10.1211 F   0  0  0  0  0  0  0  0  0  0  0  0
    3.4974    3.2445   11.2714 C   0  0  0  0  0  0  0  0  0  0  0  0
    3.7269    2.5418   12.4531 F   0  0  0  0  0  0  0  0  0  0  0  0
    4.6671    3.3868   10.5518 F   0  0  0  0  0  0  0  0  0  0  0  0
    3.0900    4.5269   11.6450 F   0  0  0  0  0  0  0  0  0  0  0  0
    2.1076   -1.5475   12.5826 N   0  0  0  0  0  0  0  0  0  0  0  0
    2.9476   -1.3902   13.7396 C   0  0  0  0  0  0  0  0  0  0  0  0
    2.1570   -1.9666   14.9200 C   0  0  0  0  0  0  0  0  0  0  0  0
    0.8554   -1.4012   15.0488 N   0  0  0  0  0  0  0  0  0  0  0  0
    0.1184   -1.2465   13.8167 C   0  0  0  0  0  0  0  0  0  0  0  0
    0.7893   -2.0917   12.7568 C   0  0  0  0  0  0  0  0  0  0  0  0
    0.0358   -2.2045   15.9356 C   0  0  0  0  0  0  0  0  0  0  0  0
  1  2  1  0
  2  3  2  0
  3  4  1  0
  4  5  2  0
  5  6  1  0
  6  7  2  0
  7  8  1  0
  8  9  2  0
  9 10  1  0
 10 11  2  0
 11 12  1  0
 12 13  2  0
 13 14  1  0
 14 15  1  0
 14 16  1  0
 16 17  2  0
 16 18  1  0
 18 19  1  0
 18 20  1  0
 18 21  1  0
 21 22  2  0
 22 23  1  0
 23 24  2  0
 24 25  1  0
 25 26  2  0
 25 27  1  0
 27 28  1  0
 27 29  1  0
 27 30  1  0
 23 31  1  0
 31 32  1  0
 31 33  1  0
 31 34  1  0
 10 35  1  0
 35 36  1  0
 36 37  1  0
 37 38  1  0
 38 39  1  0
 39 40  1  0
 38 41  1  0
  7  2  1  0
 13  8  1  0
 26 21  1  0
 40 35  1  0
M  END
$$$$
