
     RDKit          3D

 41 44  0  0  0  0  0  0  0  0999 V2000
    2.8748    2.9733    9.0312 C   0  0  0  0  0  0  0  0  0  0  0  0
    3.5046    1.8342    8.2879 C   0  0  0  0  0  0  0  0  0  0  0  0
    4.0149    2.1953    7.0335 C   0  0  0  0  0  0  0  0  0  0  0  0
    4.5985    1.2123    6.2713 C   0  0  0  0  0  0  0  0  0  0  0  0
    4.6767   -0.0852    6.7309 C   0  0  0  0  0  0  0  0  0  0  0  0
    4.1697   -0.4137    7.9632 C   0  0  0  0  0  0  0  0  0  0  0  0
    3.5697    0.5447    8.7725 C   0  0  0  0  0  0  0  0  0  0  0  0
    3.0392    0.2568   10.0691 C   0  0  0  0  0  0  0  0  0  0  0  0
    3.2896   -0.9997   10.6195 C   0  0  0  0  0  0  0  0  0  0  0  0
    2.8071   -1.3600   11.8759 C   0  0  0  0  0  0  0  0  0  0  0  0
    2.0818   -0.4591   12.5628 N   0  0  0  0  0  0  0  0  0  0  0  0
    1.8106    0.7505   12.0926 C   0  0  0  0  0  0  0  0  0  0  0  0
    2.2934    1.0961   10.8483 C   0  0  0  0  0  0  0  0  0  0  0  0
    2.0102    2.4121   10.3905 N   0  0  0  0  0  0  0  0  0  0  0  0
    2.8788    3.4882   10.7514 C   0  0  0  0  0  0  0  0  0  0  0  0
    0.8991    2.5965    9.5489 C   0  0  0  0  0  0  0  0  0  0  0  0
    0.6449    3.8037    9.1108 O   0  0  0  0  0  0  0  0  0  0  0  0
   -0.0635    1.6074    9.0651 C   0  0  0  0  0  0  0  0  0  0  0  0
   -0.8980    2.2569    7.9504 C   0  0  0  0  0  0  0  0  0  0  0  0
   -1.0790    1.1357   10.0806 C   0  0  0  0  0  0  0  0  0  0  0  0
    0.5862    0.3869    8.5245 C   0  0  0  0  0  0  0  0  0  0  0  0
    1.9440    0.2570    8.4048 C   0  0  0  0  0  0  0  0  0  0  0  0
    2.5458   -0.9111    7.9117 C   0  0  0  0  0  0  0  0  0  0  0  0
    1.7460   -1.9598    7.5355 C   0  0  0  0  0  0  0  0  0  0  0  0
    0.3896   -1.8594    7.6426 C   0  0  0  0  0  0  0  0  0  0  0  0
   -0.1733   -0.7081    8.1275 C   0  0  0  0  0  0  0  0  0  0  0  0
   -0.4366   -3.0413    7.2150 C   0  0  0  0  0  0  0  0  0  0  0  0
    0.3747   -3.8550    6.4335 F   0  0  0  0  0  0  0  0  0  0  0  0
   -0.8145   -3.6790    8.3882 F   0  0  0  0  0  0  0  0  0  0  0  0
   -1.5369   -2.5995    6.5049 F   0  0  0  0  0  0  0  0  0  0  0  0
    4.0166   -1.0358    7.7894 C   0  0  0  0  0  0  0  0  0  0  0  0
    4.6665   -0.4000    8.8460 F   0  0  0  0  0  0  0  0  0  0  0  0
    4.4097   -2.3560    7.6965 F   0  0  0  0  0  0  0  0  0  0  0  0
    4.4431   -0.4002    6.6213 F   0  0  0  0  0  0  0  0  0  0  0  0
    3.0662   -2.6258   12.4224 N   0  0  0  0  0  0  0  0  0  0  0  0
    4.1708   -3.4204   11.9559 C   0  0  0  0  0  0  0  0  0  0  0  0
    4.0897   -4.7488   12.7170 C   0  0  0  0  0  0  0  0  0  0  0  0
    4.0342   -4.5792   14.1308 N   0  0  0  0  0  0  0  0  0  0  0  0
    3.1548   -3.5340   14.5990 C   0  0  0  0  0  0  0  0  0  0  0  0
    2.2295   -3.1530   13.4648 C   0  0  0  0  0  0  0  0  0  0  0  0
    3.6138   -5.8083   14.7758 C   0  0  0  0  0  0  0  0  0  0  0  0
  1  2  1  0
  2  3  2  0
  3  4  1  0
  4  5  2  0
  5  6  1  0
  6  7  2  0
  7  8  1  0
  8  9  2  0
  9 10  1  0
 10 11  2  0
 11 12  1  0
 12 13  2  0
 13 14  1  0
 14 15  1  0
 14 16  1  0
 16 17  2  0
 16 18  1  0
 18 19  1  0
 18 20  1  0
 18 21  1  0
 21 22  2  0
 22 23  1  0
 23 24  2  0
 24 25  1  0
 25 26  2  0
 25 27  1  0
 27 28  1  0
 27 29  1  0
 27 30  1  0
 23 31  1  0
 31 32  1  0
 31 33  1  0
 31 34  1  0
 10 35  1  0
 35 36  1  0
 36 37  1  0
 37 38  1  0
 38 39  1  0
 39 40  1  0
 38 41  1  0
  7  2  1  0
 13  8  1  0
 26 21  1  0
 40 35  1  0
M  END
$$$$
