
     RDKit          3D

 41 44  0  0  0  0  0  0  0  0999 V2000
    4.5348    2.1067    7.4179 C   0  0  0  0  0  0  0  0  0  0  0  0
    3.0658    1.9302    7.1785 C   0  0  0  0  0  0  0  0  0  0  0  0
    2.5201    2.8817    6.3061 C   0  0  0  0  0  0  0  0  0  0  0  0
    1.1746    2.8089    6.0381 C   0  0  0  0  0  0  0  0  0  0  0  0
    0.3917    1.8295    6.6116 C   0  0  0  0  0  0  0  0  0  0  0  0
    0.9498    0.9088    7.4626 C   0  0  0  0  0  0  0  0  0  0  0  0
    2.3066    0.9397    7.7656 C   0  0  0  0  0  0  0  0  0  0  0  0
    2.9387   -0.0043    8.6344 C   0  0  0  0  0  0  0  0  0  0  0  0
    2.6776    0.0805   10.0015 C   0  0  0  0  0  0  0  0  0  0  0  0
    3.2547   -0.7992   10.9148 C   0  0  0  0  0  0  0  0  0  0  0  0
    4.0839   -1.7500   10.4478 N   0  0  0  0  0  0  0  0  0  0  0  0
    4.3706   -1.8808    9.1600 C   0  0  0  0  0  0  0  0  0  0  0  0
    3.7936   -1.0047    8.2653 C   0  0  0  0  0  0  0  0  0  0  0  0
    4.0987   -1.1953    6.8897 N   0  0  0  0  0  0  0  0  0  0  0  0
    5.3620   -0.7637    6.3795 C   0  0  0  0  0  0  0  0  0  0  0  0
    3.1518   -1.8542    6.0858 C   0  0  0  0  0  0  0  0  0  0  0  0
    3.2002   -1.6695    4.7906 O   0  0  0  0  0  0  0  0  0  0  0  0
    2.0700   -2.7530    6.4866 C   0  0  0  0  0  0  0  0  0  0  0  0
    2.6941   -4.0838    6.9340 C   0  0  0  0  0  0  0  0  0  0  0  0
    1.0989   -3.1325    5.3920 C   0  0  0  0  0  0  0  0  0  0  0  0
    1.2532   -2.2109    7.6015 C   0  0  0  0  0  0  0  0  0  0  0  0
    0.8807   -2.9610    8.6847 C   0  0  0  0  0  0  0  0  0  0  0  0
    0.1262   -2.4296    9.7421 C   0  0  0  0  0  0  0  0  0  0  0  0
   -0.2524   -1.1126    9.6888 C   0  0  0  0  0  0  0  0  0  0  0  0
    0.1033   -0.3403    8.6218 C   0  0  0  0  0  0  0  0  0  0  0  0
    0.8406   -0.8831    7.6023 C   0  0  0  0  0  0  0  0  0  0  0  0
   -0.3401    1.0969    8.6180 C   0  0  0  0  0  0  0  0  0  0  0  0
   -0.4978    1.4870    9.9424 F   0  0  0  0  0  0  0  0  0  0  0  0
    0.6820    1.8032    7.9996 F   0  0  0  0  0  0  0  0  0  0  0  0
   -1.5259    1.2096    7.9172 F   0  0  0  0  0  0  0  0  0  0  0  0
   -0.2678   -3.2547   10.9075 C   0  0  0  0  0  0  0  0  0  0  0  0
   -1.3820   -2.7190   11.5514 F   0  0  0  0  0  0  0  0  0  0  0  0
   -0.4951   -4.5682   10.5478 F   0  0  0  0  0  0  0  0  0  0  0  0
    0.7670   -3.2620   11.8451 F   0  0  0  0  0  0  0  0  0  0  0  0
    2.9842   -0.7075   12.2883 N   0  0  0  0  0  0  0  0  0  0  0  0
    1.7588   -0.1225   12.7630 C   0  0  0  0  0  0  0  0  0  0  0  0
    1.8520   -0.1245   14.2933 C   0  0  0  0  0  0  0  0  0  0  0  0
    2.1452   -1.4105   14.8327 N   0  0  0  0  0  0  0  0  0  0  0  0
    3.1696   -2.1574   14.1414 C   0  0  0  0  0  0  0  0  0  0  0  0
    3.9305   -1.2007   13.2505 C   0  0  0  0  0  0  0  0  0  0  0  0
    2.5619   -1.2998   16.2174 C   0  0  0  0  0  0  0  0  0  0  0  0
  1  2  1  0
  2  3  2  0
  3  4  1  0
  4  5  2  0
  5  6  1  0
  6  7  2  0
  7  8  1  0
  8  9  2  0
  9 10  1  0
 10 11  2  0
 11 12  1  0
 12 13  2  0
 13 14  1  0
 14 15  1  0
 14 16  1  0
 16 17  2  0
 16 18  1  0
 18 19  1  0
 18 20  1  0
 18 21  1  0
 21 22  2  0
 22 23  1  0
 23 24  2  0
 24 25  1  0
 25 26  2  0
 25 27  1  0
 27 28  1  0
 27 29  1  0
 27 30  1  0
 23 31  1  0
 31 32  1  0
 31 33  1  0
 31 34  1  0
 10 35  1  0
 35 36  1  0
 36 37  1  0
 37 38  1  0
 38 39  1  0
 39 40  1  0
 38 41  1  0
  7  2  1  0
 13  8  1  0
 26 21  1  0
 40 35  1  0
M  END
$$$$
