
     RDKit          3D

 41 44  0  0  0  0  0  0  0  0999 V2000
    4.1104    2.1346    9.7771 C   0  0  0  0  0  0  0  0  0  0  0  0
    3.2947    1.9611    8.5316 C   0  0  0  0  0  0  0  0  0  0  0  0
    3.0983    3.1513    7.8180 C   0  0  0  0  0  0  0  0  0  0  0  0
    2.3484    3.0933    6.6682 C   0  0  0  0  0  0  0  0  0  0  0  0
    1.8093    1.9004    6.2355 C   0  0  0  0  0  0  0  0  0  0  0  0
    2.0163    0.7482    6.9519 C   0  0  0  0  0  0  0  0  0  0  0  0
    2.7679    0.7543    8.1217 C   0  0  0  0  0  0  0  0  0  0  0  0
    3.0243   -0.4205    8.8963 C   0  0  0  0  0  0  0  0  0  0  0  0
    2.5586   -0.4583   10.2101 C   0  0  0  0  0  0  0  0  0  0  0  0
    2.7683   -1.5639   11.0315 C   0  0  0  0  0  0  0  0  0  0  0  0
    3.4403   -2.6145   10.5273 N   0  0  0  0  0  0  0  0  0  0  0  0
    3.9072   -2.6376    9.2867 C   0  0  0  0  0  0  0  0  0  0  0  0
    3.6936   -1.5380    8.4829 C   0  0  0  0  0  0  0  0  0  0  0  0
    4.1803   -1.6113    7.1489 N   0  0  0  0  0  0  0  0  0  0  0  0
    5.5704   -1.4021    6.8911 C   0  0  0  0  0  0  0  0  0  0  0  0
    3.2705   -1.9398    6.1284 C   0  0  0  0  0  0  0  0  0  0  0  0
    3.7337   -2.4996    5.0395 O   0  0  0  0  0  0  0  0  0  0  0  0
    1.8218   -1.7435    6.0885 C   0  0  0  0  0  0  0  0  0  0  0  0
    1.1505   -3.1253    6.1190 C   0  0  0  0  0  0  0  0  0  0  0  0
    1.2879   -1.0841    4.8374 C   0  0  0  0  0  0  0  0  0  0  0  0
    1.3166   -0.9429    7.2320 C   0  0  0  0  0  0  0  0  0  0  0  0
    2.1240   -0.4998    8.2452 C   0  0  0  0  0  0  0  0  0  0  0  0
    1.6367    0.2746    9.3094 C   0  0  0  0  0  0  0  0  0  0  0  0
    0.3044    0.5987    9.3366 C   0  0  0  0  0  0  0  0  0  0  0  0
   -0.5250    0.1708    8.3413 C   0  0  0  0  0  0  0  0  0  0  0  0
   -0.0243   -0.5838    7.3131 C   0  0  0  0  0  0  0  0  0  0  0  0
   -1.9763    0.5570    8.4240 C   0  0  0  0  0  0  0  0  0  0  0  0
   -2.3645    0.9886    7.1615 F   0  0  0  0  0  0  0  0  0  0  0  0
   -2.6511   -0.5976    8.7949 F   0  0  0  0  0  0  0  0  0  0  0  0
   -2.1325    1.5563    9.3659 F   0  0  0  0  0  0  0  0  0  0  0  0
    2.5240    0.7468   10.3974 C   0  0  0  0  0  0  0  0  0  0  0  0
    3.4818   -0.2132   10.7198 F   0  0  0  0  0  0  0  0  0  0  0  0
    3.1239    1.9490   10.0795 F   0  0  0  0  0  0  0  0  0  0  0  0
    1.7710    0.9602   11.5539 F   0  0  0  0  0  0  0  0  0  0  0  0
    2.2940   -1.5936   12.3514 N   0  0  0  0  0  0  0  0  0  0  0  0
    3.2014   -1.7202   13.4604 C   0  0  0  0  0  0  0  0  0  0  0  0
    2.3275   -1.7958   14.7178 C   0  0  0  0  0  0  0  0  0  0  0  0
    1.4069   -0.7131   14.8232 N   0  0  0  0  0  0  0  0  0  0  0  0
    0.7206   -0.3577   13.6034 C   0  0  0  0  0  0  0  0  0  0  0  0
    0.8860   -1.4955   12.6207 C   0  0  0  0  0  0  0  0  0  0  0  0
    0.3885   -1.0043   15.8138 C   0  0  0  0  0  0  0  0  0  0  0  0
  1  2  1  0
  2  3  2  0
  3  4  1  0
  4  5  2  0
  5  6  1  0
  6  7  2  0
  7  8  1  0
  8  9  2  0
  9 10  1  0
 10 11  2  0
 11 12  1  0
 12 13  2  0
 13 14  1  0
 14 15  1  0
 14 16  1  0
 16 17  2  0
 16 18  1  0
 18 19  1  0
 18 20  1  0
 18 21  1  0
 21 22  2  0
 22 23  1  0
 23 24  2  0
 24 25  1  0
 25 26  2  0
 25 27  1  0
 27 28  1  0
 27 29  1  0
 27 30  1  0
 23 31  1  0
 31 32  1  0
 31 33  1  0
 31 34  1  0
 10 35  1  0
 35 36  1  0
 36 37  1  0
 37 38  1  0
 38 39  1  0
 39 40  1  0
 38 41  1  0
  7  2  1  0
 13  8  1  0
 26 21  1  0
 40 35  1  0
M  END
$$$$
