
     RDKit          3D

 41 44  0  0  0  0  0  0  0  0999 V2000
    4.2854   -2.9784   10.5569 C   0  0  0  0  0  0  0  0  0  0  0  0
    4.3988   -2.2676    9.2422 C   0  0  0  0  0  0  0  0  0  0  0  0
    5.3137   -2.8592    8.3605 C   0  0  0  0  0  0  0  0  0  0  0  0
    5.4967   -2.2675    7.1341 C   0  0  0  0  0  0  0  0  0  0  0  0
    4.8002   -1.1292    6.7876 C   0  0  0  0  0  0  0  0  0  0  0  0
    3.9094   -0.5690    7.6686 C   0  0  0  0  0  0  0  0  0  0  0  0
    3.6884   -1.1298    8.9217 C   0  0  0  0  0  0  0  0  0  0  0  0
    2.7616   -0.5932    9.8696 C   0  0  0  0  0  0  0  0  0  0  0  0
    3.0455    0.6474   10.4393 C   0  0  0  0  0  0  0  0  0  0  0  0
    2.1958    1.2386   11.3718 C   0  0  0  0  0  0  0  0  0  0  0  0
    1.0755    0.5806   11.7208 N   0  0  0  0  0  0  0  0  0  0  0  0
    0.7516   -0.6010   11.2141 C   0  0  0  0  0  0  0  0  0  0  0  0
    1.5999   -1.1762   10.2920 C   0  0  0  0  0  0  0  0  0  0  0  0
    1.2042   -2.4282    9.7464 N   0  0  0  0  0  0  0  0  0  0  0  0
    0.9257   -3.5240   10.6206 C   0  0  0  0  0  0  0  0  0  0  0  0
    1.0531   -2.5255    8.3518 C   0  0  0  0  0  0  0  0  0  0  0  0
    1.2689   -3.6847    7.7828 O   0  0  0  0  0  0  0  0  0  0  0  0
    0.6779   -1.4880    7.3919 C   0  0  0  0  0  0  0  0  0  0  0  0
   -0.6004   -1.9425    6.6708 C   0  0  0  0  0  0  0  0  0  0  0  0
    1.6747   -1.2340    6.2841 C   0  0  0  0  0  0  0  0  0  0  0  0
    0.4215   -0.1741    8.0337 C   0  0  0  0  0  0  0  0  0  0  0  0
    1.1835    0.9364    7.7872 C   0  0  0  0  0  0  0  0  0  0  0  0
    0.9166    2.1779    8.3849 C   0  0  0  0  0  0  0  0  0  0  0  0
   -0.1447    2.2829    9.2473 C   0  0  0  0  0  0  0  0  0  0  0  0
   -0.9216    1.1934    9.5130 C   0  0  0  0  0  0  0  0  0  0  0  0
   -0.6401   -0.0074    8.9162 C   0  0  0  0  0  0  0  0  0  0  0  0
   -2.0716    1.3685   10.4666 C   0  0  0  0  0  0  0  0  0  0  0  0
   -2.0140    0.3260   11.3836 F   0  0  0  0  0  0  0  0  0  0  0  0
   -1.8661    2.5960   11.0807 F   0  0  0  0  0  0  0  0  0  0  0  0
   -3.2598    1.3510    9.7610 F   0  0  0  0  0  0  0  0  0  0  0  0
    1.7505    3.3700    8.1067 C   0  0  0  0  0  0  0  0  0  0  0  0
    2.3855    3.2642    6.8704 F   0  0  0  0  0  0  0  0  0  0  0  0
    1.0136    4.5352    8.1802 F   0  0  0  0  0  0  0  0  0  0  0  0
    2.7616    3.4660    9.0652 F   0  0  0  0  0  0  0  0  0  0  0  0
    2.4887    2.4883   11.9379 N   0  0  0  0  0  0  0  0  0  0  0  0
    3.4741    3.3543   11.3479 C   0  0  0  0  0  0  0  0  0  0  0  0
    3.5760    4.5734   12.2720 C   0  0  0  0  0  0  0  0  0  0  0  0
    2.3161    5.1900   12.5230 N   0  0  0  0  0  0  0  0  0  0  0  0
    1.2233    4.2864   12.7958 C   0  0  0  0  0  0  0  0  0  0  0  0
    1.8046    2.9287   13.1222 C   0  0  0  0  0  0  0  0  0  0  0  0
    2.4080    6.0976   13.6505 C   0  0  0  0  0  0  0  0  0  0  0  0
  1  2  1  0
  2  3  2  0
  3  4  1  0
  4  5  2  0
  5  6  1  0
  6  7  2  0
  7  8  1  0
  8  9  2  0
  9 10  1  0
 10 11  2  0
 11 12  1  0
 12 13  2  0
 13 14  1  0
 14 15  1  0
 14 16  1  0
 16 17  2  0
 16 18  1  0
 18 19  1  0
 18 20  1  0
 18 21  1  0
 21 22  2  0
 22 23  1  0
 23 24  2  0
 24 25  1  0
 25 26  2  0
 25 27  1  0
 27 28  1  0
 27 29  1  0
 27 30  1  0
 23 31  1  0
 31 32  1  0
 31 33  1  0
 31 34  1  0
 10 35  1  0
 35 36  1  0
 36 37  1  0
 37 38  1  0
 38 39  1  0
 39 40  1  0
 38 41  1  0
  7  2  1  0
 13  8  1  0
 26 21  1  0
 40 35  1  0
M  END
$$$$
