
     RDKit          3D

 41 44  0  0  0  0  0  0  0  0999 V2000
    5.2496   -1.7647    8.0312 C   0  0  0  0  0  0  0  0  0  0  0  0
    3.9416   -2.0500    7.3572 C   0  0  0  0  0  0  0  0  0  0  0  0
    4.0747   -2.7136    6.1299 C   0  0  0  0  0  0  0  0  0  0  0  0
    2.9284   -3.0043    5.4305 C   0  0  0  0  0  0  0  0  0  0  0  0
    1.6904   -2.6524    5.9249 C   0  0  0  0  0  0  0  0  0  0  0  0
    1.5864   -2.0033    7.1296 C   0  0  0  0  0  0  0  0  0  0  0  0
    2.7164   -1.6868    7.8757 C   0  0  0  0  0  0  0  0  0  0  0  0
    2.6609   -1.0245    9.1421 C   0  0  0  0  0  0  0  0  0  0  0  0
    2.6583   -1.8076   10.2958 C   0  0  0  0  0  0  0  0  0  0  0  0
    2.6039   -1.2408   11.5674 C   0  0  0  0  0  0  0  0  0  0  0  0
    2.5527    0.0998   11.6663 N   0  0  0  0  0  0  0  0  0  0  0  0
    2.5523    0.8967   10.6067 C   0  0  0  0  0  0  0  0  0  0  0  0
    2.6066    0.3247    9.3534 C   0  0  0  0  0  0  0  0  0  0  0  0
    2.6369    1.2109    8.2419 N   0  0  0  0  0  0  0  0  0  0  0  0
    3.8311    1.9406    7.9521 C   0  0  0  0  0  0  0  0  0  0  0  0
    1.4908    1.2980    7.4321 C   0  0  0  0  0  0  0  0  0  0  0  0
    1.6077    1.8396    6.2460 O   0  0  0  0  0  0  0  0  0  0  0  0
    0.1250    0.8612    7.7197 C   0  0  0  0  0  0  0  0  0  0  0  0
    0.0843   -0.6723    7.6320 C   0  0  0  0  0  0  0  0  0  0  0  0
   -0.9286    1.3303    6.7425 C   0  0  0  0  0  0  0  0  0  0  0  0
   -0.3406    1.2739    9.0676 C   0  0  0  0  0  0  0  0  0  0  0  0
   -0.5046    0.3912   10.1013 C   0  0  0  0  0  0  0  0  0  0  0  0
   -0.9253    0.7986   11.3768 C   0  0  0  0  0  0  0  0  0  0  0  0
   -1.1820    2.1279   11.5960 C   0  0  0  0  0  0  0  0  0  0  0  0
   -1.0282    3.0309   10.5850 C   0  0  0  0  0  0  0  0  0  0  0  0
   -0.6160    2.6075    9.3487 C   0  0  0  0  0  0  0  0  0  0  0  0
   -1.3244    4.4750   10.8840 C   0  0  0  0  0  0  0  0  0  0  0  0
   -2.2148    4.5047   11.9504 F   0  0  0  0  0  0  0  0  0  0  0  0
   -0.1058    5.0450   11.2249 F   0  0  0  0  0  0  0  0  0  0  0  0
   -1.8647    5.0746    9.7622 F   0  0  0  0  0  0  0  0  0  0  0  0
   -1.0969   -0.1693   12.4849 C   0  0  0  0  0  0  0  0  0  0  0  0
   -0.7625    0.4030   13.7111 F   0  0  0  0  0  0  0  0  0  0  0  0
   -2.3778   -0.6834   12.5179 F   0  0  0  0  0  0  0  0  0  0  0  0
   -0.2293   -1.2479   12.3006 F   0  0  0  0  0  0  0  0  0  0  0  0
    2.6041   -2.0368   12.7226 N   0  0  0  0  0  0  0  0  0  0  0  0
    2.2347   -1.4868   13.9994 C   0  0  0  0  0  0  0  0  0  0  0  0
    2.4282   -2.6147   15.0197 C   0  0  0  0  0  0  0  0  0  0  0  0
    1.7398   -3.8112   14.6658 N   0  0  0  0  0  0  0  0  0  0  0  0
    1.8359   -4.1983   13.2779 C   0  0  0  0  0  0  0  0  0  0  0  0
    2.9732   -3.4236   12.6501 C   0  0  0  0  0  0  0  0  0  0  0  0
    2.2231   -4.9295   15.4528 C   0  0  0  0  0  0  0  0  0  0  0  0
  1  2  1  0
  2  3  2  0
  3  4  1  0
  4  5  2  0
  5  6  1  0
  6  7  2  0
  7  8  1  0
  8  9  2  0
  9 10  1  0
 10 11  2  0
 11 12  1  0
 12 13  2  0
 13 14  1  0
 14 15  1  0
 14 16  1  0
 16 17  2  0
 16 18  1  0
 18 19  1  0
 18 20  1  0
 18 21  1  0
 21 22  2  0
 22 23  1  0
 23 24  2  0
 24 25  1  0
 25 26  2  0
 25 27  1  0
 27 28  1  0
 27 29  1  0
 27 30  1  0
 23 31  1  0
 31 32  1  0
 31 33  1  0
 31 34  1  0
 10 35  1  0
 35 36  1  0
 36 37  1  0
 37 38  1  0
 38 39  1  0
 39 40  1  0
 38 41  1  0
  7  2  1  0
 13  8  1  0
 26 21  1  0
 40 35  1  0
M  END
$$$$
