
     RDKit          3D

 41 44  0  0  0  0  0  0  0  0999 V2000
    2.1849   -1.0373    7.7942 C   0  0  0  0  0  0  0  0  0  0  0  0
    3.5327   -1.6205    8.0939 C   0  0  0  0  0  0  0  0  0  0  0  0
    4.2052   -2.0941    6.9591 C   0  0  0  0  0  0  0  0  0  0  0  0
    5.4439   -2.6609    7.1376 C   0  0  0  0  0  0  0  0  0  0  0  0
    6.0022   -2.7579    8.3946 C   0  0  0  0  0  0  0  0  0  0  0  0
    5.3237   -2.2864    9.4904 C   0  0  0  0  0  0  0  0  0  0  0  0
    4.0674   -1.7041    9.3624 C   0  0  0  0  0  0  0  0  0  0  0  0
    3.3260   -1.1851   10.4699 C   0  0  0  0  0  0  0  0  0  0  0  0
    2.7826   -2.0899   11.3811 C   0  0  0  0  0  0  0  0  0  0  0  0
    2.0457   -1.6665   12.4852 C   0  0  0  0  0  0  0  0  0  0  0  0
    1.8634   -0.3454   12.6614 N   0  0  0  0  0  0  0  0  0  0  0  0
    2.3551    0.5627   11.8300 C   0  0  0  0  0  0  0  0  0  0  0  0
    3.0827    0.1321   10.7410 C   0  0  0  0  0  0  0  0  0  0  0  0
    3.6215    1.1351    9.8893 N   0  0  0  0  0  0  0  0  0  0  0  0
    4.9148    1.6770   10.1656 C   0  0  0  0  0  0  0  0  0  0  0  0
    2.8710    1.5238    8.7656 C   0  0  0  0  0  0  0  0  0  0  0  0
    3.5072    1.7692    7.6480 O   0  0  0  0  0  0  0  0  0  0  0  0
    1.4254    1.7081    8.6430 C   0  0  0  0  0  0  0  0  0  0  0  0
    1.1412    3.2151    8.5482 C   0  0  0  0  0  0  0  0  0  0  0  0
    0.6060    1.2358    9.8223 C   0  0  0  0  0  0  0  0  0  0  0  0
    0.8584    1.0399    7.4447 C   0  0  0  0  0  0  0  0  0  0  0  0
    0.1157    1.7023    6.5043 C   0  0  0  0  0  0  0  0  0  0  0  0
   -0.3963    1.0624    5.3650 C   0  0  0  0  0  0  0  0  0  0  0  0
   -0.1448   -0.2740    5.1870 C   0  0  0  0  0  0  0  0  0  0  0  0
    0.5916   -0.9609    6.1075 C   0  0  0  0  0  0  0  0  0  0  0  0
    1.0806   -0.3127    7.2113 C   0  0  0  0  0  0  0  0  0  0  0  0
    0.8352   -2.4242    5.8595 C   0  0  0  0  0  0  0  0  0  0  0  0
    0.0068   -3.1353    6.7192 F   0  0  0  0  0  0  0  0  0  0  0  0
    0.4943   -2.6415    4.5318 F   0  0  0  0  0  0  0  0  0  0  0  0
    2.1665   -2.7138    6.0916 F   0  0  0  0  0  0  0  0  0  0  0  0
   -1.1974    1.7939    4.3565 C   0  0  0  0  0  0  0  0  0  0  0  0
   -2.3705    1.1067    4.0487 F   0  0  0  0  0  0  0  0  0  0  0  0
   -1.4781    3.0822    4.7661 F   0  0  0  0  0  0  0  0  0  0  0  0
   -0.4721    1.8932    3.1673 F   0  0  0  0  0  0  0  0  0  0  0  0
    1.5047   -2.5843   13.3978 N   0  0  0  0  0  0  0  0  0  0  0  0
    1.5288   -3.9970   13.1278 C   0  0  0  0  0  0  0  0  0  0  0  0
    0.7890   -4.6648   14.2928 C   0  0  0  0  0  0  0  0  0  0  0  0
    1.3063   -4.2940   15.5679 N   0  0  0  0  0  0  0  0  0  0  0  0
    1.6032   -2.8909   15.7360 C   0  0  0  0  0  0  0  0  0  0  0  0
    0.9155   -2.1273   14.6261 C   0  0  0  0  0  0  0  0  0  0  0  0
    0.3787   -4.6607   16.6208 C   0  0  0  0  0  0  0  0  0  0  0  0
  1  2  1  0
  2  3  2  0
  3  4  1  0
  4  5  2  0
  5  6  1  0
  6  7  2  0
  7  8  1  0
  8  9  2  0
  9 10  1  0
 10 11  2  0
 11 12  1  0
 12 13  2  0
 13 14  1  0
 14 15  1  0
 14 16  1  0
 16 17  2  0
 16 18  1  0
 18 19  1  0
 18 20  1  0
 18 21  1  0
 21 22  2  0
 22 23  1  0
 23 24  2  0
 24 25  1  0
 25 26  2  0
 25 27  1  0
 27 28  1  0
 27 29  1  0
 27 30  1  0
 23 31  1  0
 31 32  1  0
 31 33  1  0
 31 34  1  0
 10 35  1  0
 35 36  1  0
 36 37  1  0
 37 38  1  0
 38 39  1  0
 39 40  1  0
 38 41  1  0
  7  2  1  0
 13  8  1  0
 26 21  1  0
 40 35  1  0
M  END
$$$$
