
     RDKit          3D

 41 44  0  0  0  0  0  0  0  0999 V2000
    1.8195   -4.7506   10.4580 C   0  0  0  0  0  0  0  0  0  0  0  0
    3.0407   -3.9138   10.6923 C   0  0  0  0  0  0  0  0  0  0  0  0
    4.1695   -4.6578   11.0617 C   0  0  0  0  0  0  0  0  0  0  0  0
    5.3344   -3.9740   11.3126 C   0  0  0  0  0  0  0  0  0  0  0  0
    5.3852   -2.6005   11.2030 C   0  0  0  0  0  0  0  0  0  0  0  0
    4.2660   -1.8944   10.8393 C   0  0  0  0  0  0  0  0  0  0  0  0
    3.0632   -2.5399   10.5745 C   0  0  0  0  0  0  0  0  0  0  0  0
    1.8734   -1.8518   10.1787 C   0  0  0  0  0  0  0  0  0  0  0  0
    1.3490   -0.8916   11.0432 C   0  0  0  0  0  0  0  0  0  0  0  0
    0.1928   -0.1785   10.7335 C   0  0  0  0  0  0  0  0  0  0  0  0
   -0.4214   -0.4362    9.5648 N   0  0  0  0  0  0  0  0  0  0  0  0
    0.0289   -1.3367    8.7022 C   0  0  0  0  0  0  0  0  0  0  0  0
    1.1740   -2.0362    9.0192 C   0  0  0  0  0  0  0  0  0  0  0  0
    1.6451   -2.9704    8.0564 N   0  0  0  0  0  0  0  0  0  0  0  0
    0.7963   -4.0404    7.6354 C   0  0  0  0  0  0  0  0  0  0  0  0
    2.9268   -2.7729    7.5130 C   0  0  0  0  0  0  0  0  0  0  0  0
    3.4562   -3.7372    6.8032 O   0  0  0  0  0  0  0  0  0  0  0  0
    3.8036   -1.6076    7.6227 C   0  0  0  0  0  0  0  0  0  0  0  0
    4.7229   -1.5826    6.3918 C   0  0  0  0  0  0  0  0  0  0  0  0
    4.7448   -1.6093    8.8056 C   0  0  0  0  0  0  0  0  0  0  0  0
    3.0555   -0.3268    7.6848 C   0  0  0  0  0  0  0  0  0  0  0  0
    1.9948   -0.0437    6.8666 C   0  0  0  0  0  0  0  0  0  0  0  0
    1.2829    1.1629    6.9507 C   0  0  0  0  0  0  0  0  0  0  0  0
    1.6633    2.0922    7.8848 C   0  0  0  0  0  0  0  0  0  0  0  0
    2.7169    1.8386    8.7136 C   0  0  0  0  0  0  0  0  0  0  0  0
    3.3953    0.6525    8.6115 C   0  0  0  0  0  0  0  0  0  0  0  0
    3.0883    2.8946    9.7183 C   0  0  0  0  0  0  0  0  0  0  0  0
    4.4586    2.8037    9.9300 F   0  0  0  0  0  0  0  0  0  0  0  0
    2.7447    4.1056    9.1340 F   0  0  0  0  0  0  0  0  0  0  0  0
    2.3846    2.6825   10.8887 F   0  0  0  0  0  0  0  0  0  0  0  0
    0.1369    1.4533    6.0583 C   0  0  0  0  0  0  0  0  0  0  0  0
   -0.0824    0.4083    5.1623 F   0  0  0  0  0  0  0  0  0  0  0  0
   -1.0094    1.7312    6.7759 F   0  0  0  0  0  0  0  0  0  0  0  0
    0.4199    2.5834    5.2883 F   0  0  0  0  0  0  0  0  0  0  0  0
   -0.3262    0.7873   11.6087 N   0  0  0  0  0  0  0  0  0  0  0  0
    0.5428    1.5637   12.4520 C   0  0  0  0  0  0  0  0  0  0  0  0
   -0.3735    2.4427   13.3113 C   0  0  0  0  0  0  0  0  0  0  0  0
   -1.2947    3.2092   12.5402 N   0  0  0  0  0  0  0  0  0  0  0  0
   -1.9384    2.5043   11.4567 C   0  0  0  0  0  0  0  0  0  0  0  0
   -1.7423    1.0208   11.6771 C   0  0  0  0  0  0  0  0  0  0  0  0
   -2.3469    3.7420   13.3843 C   0  0  0  0  0  0  0  0  0  0  0  0
  1  2  1  0
  2  3  2  0
  3  4  1  0
  4  5  2  0
  5  6  1  0
  6  7  2  0
  7  8  1  0
  8  9  2  0
  9 10  1  0
 10 11  2  0
 11 12  1  0
 12 13  2  0
 13 14  1  0
 14 15  1  0
 14 16  1  0
 16 17  2  0
 16 18  1  0
 18 19  1  0
 18 20  1  0
 18 21  1  0
 21 22  2  0
 22 23  1  0
 23 24  2  0
 24 25  1  0
 25 26  2  0
 25 27  1  0
 27 28  1  0
 27 29  1  0
 27 30  1  0
 23 31  1  0
 31 32  1  0
 31 33  1  0
 31 34  1  0
 10 35  1  0
 35 36  1  0
 36 37  1  0
 37 38  1  0
 38 39  1  0
 39 40  1  0
 38 41  1  0
  7  2  1  0
 13  8  1  0
 26 21  1  0
 40 35  1  0
M  END
$$$$
