
     RDKit          3D

 41 44  0  0  0  0  0  0  0  0999 V2000
   -1.0517   -1.8557   11.9287 C   0  0  0  0  0  0  0  0  0  0  0  0
   -0.9344   -0.8302   10.8419 C   0  0  0  0  0  0  0  0  0  0  0  0
   -2.1596   -0.2561   10.4762 C   0  0  0  0  0  0  0  0  0  0  0  0
   -2.1535    0.6851    9.4754 C   0  0  0  0  0  0  0  0  0  0  0  0
   -0.9773    1.0490    8.8547 C   0  0  0  0  0  0  0  0  0  0  0  0
    0.2099    0.4725    9.2311 C   0  0  0  0  0  0  0  0  0  0  0  0
    0.2567   -0.4847   10.2387 C   0  0  0  0  0  0  0  0  0  0  0  0
    1.4688   -1.1046   10.6770 C   0  0  0  0  0  0  0  0  0  0  0  0
    1.8803   -0.8907   11.9920 C   0  0  0  0  0  0  0  0  0  0  0  0
    3.0494   -1.4564   12.4964 C   0  0  0  0  0  0  0  0  0  0  0  0
    3.7892   -2.2269   11.6787 N   0  0  0  0  0  0  0  0  0  0  0  0
    3.4501   -2.4669   10.4197 C   0  0  0  0  0  0  0  0  0  0  0  0
    2.2911   -1.9020    9.9315 C   0  0  0  0  0  0  0  0  0  0  0  0
    1.9426   -2.2074    8.5872 N   0  0  0  0  0  0  0  0  0  0  0  0
    1.1940   -3.3911    8.3025 C   0  0  0  0  0  0  0  0  0  0  0  0
    2.3112   -1.2947    7.5832 C   0  0  0  0  0  0  0  0  0  0  0  0
    1.5153   -1.1480    6.5541 O   0  0  0  0  0  0  0  0  0  0  0  0
    3.4993   -0.4458    7.5018 C   0  0  0  0  0  0  0  0  0  0  0  0
    3.4297    0.3507    6.1897 C   0  0  0  0  0  0  0  0  0  0  0  0
    4.8201   -1.1781    7.4375 C   0  0  0  0  0  0  0  0  0  0  0  0
    3.6045    0.5089    8.6339 C   0  0  0  0  0  0  0  0  0  0  0  0
    4.5610    0.4060    9.6081 C   0  0  0  0  0  0  0  0  0  0  0  0
    4.6621    1.3283   10.6612 C   0  0  0  0  0  0  0  0  0  0  0  0
    3.7710    2.3692   10.7175 C   0  0  0  0  0  0  0  0  0  0  0  0
    2.8063    2.4974    9.7613 C   0  0  0  0  0  0  0  0  0  0  0  0
    2.7291    1.5837    8.7431 C   0  0  0  0  0  0  0  0  0  0  0  0
    1.8571    3.6586    9.8746 C   0  0  0  0  0  0  0  0  0  0  0  0
    2.3936    4.5456   10.8000 F   0  0  0  0  0  0  0  0  0  0  0  0
    1.7997    4.2212    8.6072 F   0  0  0  0  0  0  0  0  0  0  0  0
    0.6174    3.2005   10.2789 F   0  0  0  0  0  0  0  0  0  0  0  0
    5.7036    1.2031   11.7070 C   0  0  0  0  0  0  0  0  0  0  0  0
    5.9764    2.4359   12.2976 F   0  0  0  0  0  0  0  0  0  0  0  0
    5.3562    0.2689   12.6624 F   0  0  0  0  0  0  0  0  0  0  0  0
    6.8972    0.7683   11.1268 F   0  0  0  0  0  0  0  0  0  0  0  0
    3.4541   -1.2373   13.8216 N   0  0  0  0  0  0  0  0  0  0  0  0
    4.8141   -1.4714   14.2275 C   0  0  0  0  0  0  0  0  0  0  0  0
    4.8589   -1.2047   15.7366 C   0  0  0  0  0  0  0  0  0  0  0  0
    4.3440    0.0755   16.0923 N   0  0  0  0  0  0  0  0  0  0  0  0
    3.1253    0.4651   15.4229 C   0  0  0  0  0  0  0  0  0  0  0  0
    2.5129   -0.7706   14.8018 C   0  0  0  0  0  0  0  0  0  0  0  0
    4.0856    0.1432   17.5179 C   0  0  0  0  0  0  0  0  0  0  0  0
  1  2  1  0
  2  3  2  0
  3  4  1  0
  4  5  2  0
  5  6  1  0
  6  7  2  0
  7  8  1  0
  8  9  2  0
  9 10  1  0
 10 11  2  0
 11 12  1  0
 12 13  2  0
 13 14  1  0
 14 15  1  0
 14 16  1  0
 16 17  2  0
 16 18  1  0
 18 19  1  0
 18 20  1  0
 18 21  1  0
 21 22  2  0
 22 23  1  0
 23 24  2  0
 24 25  1  0
 25 26  2  0
 25 27  1  0
 27 28  1  0
 27 29  1  0
 27 30  1  0
 23 31  1  0
 31 32  1  0
 31 33  1  0
 31 34  1  0
 10 35  1  0
 35 36  1  0
 36 37  1  0
 37 38  1  0
 38 39  1  0
 39 40  1  0
 38 41  1  0
  7  2  1  0
 13  8  1  0
 26 21  1  0
 40 35  1  0
M  END
$$$$
