
     RDKit          3D

 41 44  0  0  0  0  0  0  0  0999 V2000
    2.9921    3.4946    6.7268 C   0  0  0  0  0  0  0  0  0  0  0  0
    2.4573    2.3389    5.9363 C   0  0  0  0  0  0  0  0  0  0  0  0
    2.3279    2.6067    4.5667 C   0  0  0  0  0  0  0  0  0  0  0  0
    1.8302    1.6099    3.7626 C   0  0  0  0  0  0  0  0  0  0  0  0
    1.4716    0.3882    4.2915 C   0  0  0  0  0  0  0  0  0  0  0  0
    1.6081    0.1503    5.6362 C   0  0  0  0  0  0  0  0  0  0  0  0
    2.1070    1.1263    6.4920 C   0  0  0  0  0  0  0  0  0  0  0  0
    2.2817    0.9237    7.8970 C   0  0  0  0  0  0  0  0  0  0  0  0
    1.2149    1.2228    8.7436 C   0  0  0  0  0  0  0  0  0  0  0  0
    1.3042    1.0555   10.1239 C   0  0  0  0  0  0  0  0  0  0  0  0
    2.4583    0.5921   10.6367 N   0  0  0  0  0  0  0  0  0  0  0  0
    3.5067    0.2904    9.8834 C   0  0  0  0  0  0  0  0  0  0  0  0
    3.4068    0.4597    8.5188 C   0  0  0  0  0  0  0  0  0  0  0  0
    4.5395    0.0956    7.7401 N   0  0  0  0  0  0  0  0  0  0  0  0
    5.6505    0.9899    7.6473 C   0  0  0  0  0  0  0  0  0  0  0  0
    4.5418   -1.1683    7.1241 C   0  0  0  0  0  0  0  0  0  0  0  0
    5.4832   -1.4336    6.2538 O   0  0  0  0  0  0  0  0  0  0  0  0
    3.6146   -2.2841    7.3087 C   0  0  0  0  0  0  0  0  0  0  0  0
    4.2915   -3.3242    8.2146 C   0  0  0  0  0  0  0  0  0  0  0  0
    3.2526   -3.0449    6.0536 C   0  0  0  0  0  0  0  0  0  0  0  0
    2.3323   -1.8711    7.9325 C   0  0  0  0  0  0  0  0  0  0  0  0
    1.3840   -2.7670    8.3482 C   0  0  0  0  0  0  0  0  0  0  0  0
    0.1851   -2.3632    8.9560 C   0  0  0  0  0  0  0  0  0  0  0  0
   -0.0457   -1.0238    9.1397 C   0  0  0  0  0  0  0  0  0  0  0  0
    0.8805   -0.1074    8.7350 C   0  0  0  0  0  0  0  0  0  0  0  0
    2.0433   -0.5276    8.1444 C   0  0  0  0  0  0  0  0  0  0  0  0
    0.5729    1.3472    8.9624 C   0  0  0  0  0  0  0  0  0  0  0  0
    0.6500    1.5798   10.3302 F   0  0  0  0  0  0  0  0  0  0  0  0
    1.5510    2.0497    8.2727 F   0  0  0  0  0  0  0  0  0  0  0  0
   -0.6890    1.6312    8.4755 F   0  0  0  0  0  0  0  0  0  0  0  0
   -0.8303   -3.3455    9.4009 C   0  0  0  0  0  0  0  0  0  0  0  0
   -0.4137   -4.6515    9.1481 F   0  0  0  0  0  0  0  0  0  0  0  0
   -1.1463   -3.1824   10.7350 F   0  0  0  0  0  0  0  0  0  0  0  0
   -2.0094   -3.1580    8.6767 F   0  0  0  0  0  0  0  0  0  0  0  0
    0.2247    1.3570   10.9675 N   0  0  0  0  0  0  0  0  0  0  0  0
    0.3250    1.1736   12.3907 C   0  0  0  0  0  0  0  0  0  0  0  0
   -1.0532    1.5257   12.9626 C   0  0  0  0  0  0  0  0  0  0  0  0
   -1.5119    2.8133   12.5597 N   0  0  0  0  0  0  0  0  0  0  0  0
   -1.3088    3.1399   11.1678 C   0  0  0  0  0  0  0  0  0  0  0  0
   -1.0063    1.8591   10.4224 C   0  0  0  0  0  0  0  0  0  0  0  0
   -2.9304    2.9559   12.8266 C   0  0  0  0  0  0  0  0  0  0  0  0
  1  2  1  0
  2  3  2  0
  3  4  1  0
  4  5  2  0
  5  6  1  0
  6  7  2  0
  7  8  1  0
  8  9  2  0
  9 10  1  0
 10 11  2  0
 11 12  1  0
 12 13  2  0
 13 14  1  0
 14 15  1  0
 14 16  1  0
 16 17  2  0
 16 18  1  0
 18 19  1  0
 18 20  1  0
 18 21  1  0
 21 22  2  0
 22 23  1  0
 23 24  2  0
 24 25  1  0
 25 26  2  0
 25 27  1  0
 27 28  1  0
 27 29  1  0
 27 30  1  0
 23 31  1  0
 31 32  1  0
 31 33  1  0
 31 34  1  0
 10 35  1  0
 35 36  1  0
 36 37  1  0
 37 38  1  0
 38 39  1  0
 39 40  1  0
 38 41  1  0
  7  2  1  0
 13  8  1  0
 26 21  1  0
 40 35  1  0
M  END
$$$$
