
     RDKit          3D

 41 44  0  0  0  0  0  0  0  0999 V2000
    0.0966    3.5163   11.2462 C   0  0  0  0  0  0  0  0  0  0  0  0
   -0.5724    2.4090   12.0031 C   0  0  0  0  0  0  0  0  0  0  0  0
   -1.9520    2.5937   12.1670 C   0  0  0  0  0  0  0  0  0  0  0  0
   -2.6491    1.6357   12.8627 C   0  0  0  0  0  0  0  0  0  0  0  0
   -2.0070    0.5309   13.3805 C   0  0  0  0  0  0  0  0  0  0  0  0
   -0.6549    0.3727   13.2063 C   0  0  0  0  0  0  0  0  0  0  0  0
    0.0952    1.3137   12.5097 C   0  0  0  0  0  0  0  0  0  0  0  0
    1.5027    1.1883   12.2888 C   0  0  0  0  0  0  0  0  0  0  0  0
    2.3140    2.2878   12.5669 C   0  0  0  0  0  0  0  0  0  0  0  0
    3.6937    2.2486   12.3771 C   0  0  0  0  0  0  0  0  0  0  0  0
    4.2413    1.1112   11.9121 N   0  0  0  0  0  0  0  0  0  0  0  0
    3.5226    0.0334   11.6298 C   0  0  0  0  0  0  0  0  0  0  0  0
    2.1582    0.0838   11.8217 C   0  0  0  0  0  0  0  0  0  0  0  0
    1.4241   -1.1006   11.5390 N   0  0  0  0  0  0  0  0  0  0  0  0
    1.4709   -2.1968   12.4548 C   0  0  0  0  0  0  0  0  0  0  0  0
    0.6313   -1.1280   10.3781 C   0  0  0  0  0  0  0  0  0  0  0  0
   -0.2488   -2.0886   10.2490 O   0  0  0  0  0  0  0  0  0  0  0  0
    0.6364   -0.2118    9.2381 C   0  0  0  0  0  0  0  0  0  0  0  0
    1.1931    1.1395    9.7123 C   0  0  0  0  0  0  0  0  0  0  0  0
   -0.7210    0.1138    8.6579 C   0  0  0  0  0  0  0  0  0  0  0  0
    1.4680   -0.7003    8.1095 C   0  0  0  0  0  0  0  0  0  0  0  0
    2.5581   -1.5102    8.2838 C   0  0  0  0  0  0  0  0  0  0  0  0
    3.3229   -1.9819    7.2057 C   0  0  0  0  0  0  0  0  0  0  0  0
    2.9667   -1.6186    5.9322 C   0  0  0  0  0  0  0  0  0  0  0  0
    1.8857   -0.8119    5.7271 C   0  0  0  0  0  0  0  0  0  0  0  0
    1.1552   -0.3649    6.7968 C   0  0  0  0  0  0  0  0  0  0  0  0
    1.5427   -0.4465    4.3090 C   0  0  0  0  0  0  0  0  0  0  0  0
    2.2745   -1.2835    3.4753 F   0  0  0  0  0  0  0  0  0  0  0  0
    0.1791   -0.6713    4.1830 F   0  0  0  0  0  0  0  0  0  0  0  0
    1.8569    0.8811    4.0881 F   0  0  0  0  0  0  0  0  0  0  0  0
    4.4991   -2.8584    7.4116 C   0  0  0  0  0  0  0  0  0  0  0  0
    4.1322   -4.0632    8.0088 F   0  0  0  0  0  0  0  0  0  0  0  0
    5.1785   -3.0844    6.2311 F   0  0  0  0  0  0  0  0  0  0  0  0
    5.3951   -2.2390    8.2855 F   0  0  0  0  0  0  0  0  0  0  0  0
    4.5021    3.3591   12.6619 N   0  0  0  0  0  0  0  0  0  0  0  0
    5.7080    3.6060   11.9175 C   0  0  0  0  0  0  0  0  0  0  0  0
    6.3547    4.8416   12.5543 C   0  0  0  0  0  0  0  0  0  0  0  0
    5.4687    5.9547   12.6374 N   0  0  0  0  0  0  0  0  0  0  0  0
    4.1274    5.6519   13.0783 C   0  0  0  0  0  0  0  0  0  0  0  0
    4.1369    4.2758   13.7063 C   0  0  0  0  0  0  0  0  0  0  0  0
    5.9957    6.9596   13.5406 C   0  0  0  0  0  0  0  0  0  0  0  0
  1  2  1  0
  2  3  2  0
  3  4  1  0
  4  5  2  0
  5  6  1  0
  6  7  2  0
  7  8  1  0
  8  9  2  0
  9 10  1  0
 10 11  2  0
 11 12  1  0
 12 13  2  0
 13 14  1  0
 14 15  1  0
 14 16  1  0
 16 17  2  0
 16 18  1  0
 18 19  1  0
 18 20  1  0
 18 21  1  0
 21 22  2  0
 22 23  1  0
 23 24  2  0
 24 25  1  0
 25 26  2  0
 25 27  1  0
 27 28  1  0
 27 29  1  0
 27 30  1  0
 23 31  1  0
 31 32  1  0
 31 33  1  0
 31 34  1  0
 10 35  1  0
 35 36  1  0
 36 37  1  0
 37 38  1  0
 38 39  1  0
 39 40  1  0
 38 41  1  0
  7  2  1  0
 13  8  1  0
 26 21  1  0
 40 35  1  0
M  END
$$$$
