
     RDKit          3D

 41 44  0  0  0  0  0  0  0  0999 V2000
    2.7936   -4.1839   10.5552 C   0  0  0  0  0  0  0  0  0  0  0  0
    3.8899   -3.3366    9.9837 C   0  0  0  0  0  0  0  0  0  0  0  0
    5.1765   -3.7918   10.3029 C   0  0  0  0  0  0  0  0  0  0  0  0
    6.2470   -3.0689    9.8348 C   0  0  0  0  0  0  0  0  0  0  0  0
    6.0557   -1.9336    9.0762 C   0  0  0  0  0  0  0  0  0  0  0  0
    4.7856   -1.5084    8.7768 C   0  0  0  0  0  0  0  0  0  0  0  0
    3.6694   -2.2051    9.2266 C   0  0  0  0  0  0  0  0  0  0  0  0
    2.3266   -1.8119    8.9306 C   0  0  0  0  0  0  0  0  0  0  0  0
    2.0456   -1.3395    7.6491 C   0  0  0  0  0  0  0  0  0  0  0  0
    0.7643   -0.9346    7.2807 C   0  0  0  0  0  0  0  0  0  0  0  0
   -0.2162   -1.0080    8.1988 N   0  0  0  0  0  0  0  0  0  0  0  0
   -0.0108   -1.4482    9.4324 C   0  0  0  0  0  0  0  0  0  0  0  0
    1.2610   -1.8463    9.7856 C   0  0  0  0  0  0  0  0  0  0  0  0
    1.4368   -2.3427   11.1064 N   0  0  0  0  0  0  0  0  0  0  0  0
    0.9010   -3.6200   11.4586 C   0  0  0  0  0  0  0  0  0  0  0  0
    2.1834   -1.5681   12.0117 C   0  0  0  0  0  0  0  0  0  0  0  0
    2.6605   -2.1514   13.0823 O   0  0  0  0  0  0  0  0  0  0  0  0
    2.5251   -0.1477   11.9445 C   0  0  0  0  0  0  0  0  0  0  0  0
    3.9332   -0.0220   11.3428 C   0  0  0  0  0  0  0  0  0  0  0  0
    2.6101    0.5656   13.2745 C   0  0  0  0  0  0  0  0  0  0  0  0
    1.5786    0.6341   11.1098 C   0  0  0  0  0  0  0  0  0  0  0  0
    0.2458    0.7472   11.4026 C   0  0  0  0  0  0  0  0  0  0  0  0
   -0.6337    1.5073   10.6163 C   0  0  0  0  0  0  0  0  0  0  0  0
   -0.1416    2.1597    9.5149 C   0  0  0  0  0  0  0  0  0  0  0  0
    1.1819    2.0652    9.1974 C   0  0  0  0  0  0  0  0  0  0  0  0
    2.0200    1.3168    9.9817 C   0  0  0  0  0  0  0  0  0  0  0  0
    1.6646    2.8022    7.9783 C   0  0  0  0  0  0  0  0  0  0  0  0
    2.6267    2.0081    7.3661 F   0  0  0  0  0  0  0  0  0  0  0  0
    0.5482    2.9607    7.1693 F   0  0  0  0  0  0  0  0  0  0  0  0
    2.1891    4.0232    8.3578 F   0  0  0  0  0  0  0  0  0  0  0  0
   -2.0730    1.6201   10.9475 C   0  0  0  0  0  0  0  0  0  0  0  0
   -2.4496    2.9517   11.1142 F   0  0  0  0  0  0  0  0  0  0  0  0
   -2.8637    1.0030    9.9987 F   0  0  0  0  0  0  0  0  0  0  0  0
   -2.3230    0.9818   12.1642 F   0  0  0  0  0  0  0  0  0  0  0  0
    0.4907   -0.4628    5.9882 N   0  0  0  0  0  0  0  0  0  0  0  0
   -0.7654    0.1678    5.6820 C   0  0  0  0  0  0  0  0  0  0  0  0
   -0.7321    0.4735    4.1800 C   0  0  0  0  0  0  0  0  0  0  0  0
    0.4183    1.2175    3.7875 N   0  0  0  0  0  0  0  0  0  0  0  0
    1.6681    0.7843    4.3668 C   0  0  0  0  0  0  0  0  0  0  0  0
    1.4663   -0.5999    4.9423 C   0  0  0  0  0  0  0  0  0  0  0  0
    0.5826    1.1803    2.3470 C   0  0  0  0  0  0  0  0  0  0  0  0
  1  2  1  0
  2  3  2  0
  3  4  1  0
  4  5  2  0
  5  6  1  0
  6  7  2  0
  7  8  1  0
  8  9  2  0
  9 10  1  0
 10 11  2  0
 11 12  1  0
 12 13  2  0
 13 14  1  0
 14 15  1  0
 14 16  1  0
 16 17  2  0
 16 18  1  0
 18 19  1  0
 18 20  1  0
 18 21  1  0
 21 22  2  0
 22 23  1  0
 23 24  2  0
 24 25  1  0
 25 26  2  0
 25 27  1  0
 27 28  1  0
 27 29  1  0
 27 30  1  0
 23 31  1  0
 31 32  1  0
 31 33  1  0
 31 34  1  0
 10 35  1  0
 35 36  1  0
 36 37  1  0
 37 38  1  0
 38 39  1  0
 39 40  1  0
 38 41  1  0
  7  2  1  0
 13  8  1  0
 26 21  1  0
 40 35  1  0
M  END
$$$$
