
     RDKit          3D

 41 44  0  0  0  0  0  0  0  0999 V2000
   -0.2117    3.0594    9.1639 C   0  0  0  0  0  0  0  0  0  0  0  0
   -0.7099    2.8371   10.5599 C   0  0  0  0  0  0  0  0  0  0  0  0
   -1.9715    3.3975   10.8024 C   0  0  0  0  0  0  0  0  0  0  0  0
   -2.5042    3.2576   12.0611 C   0  0  0  0  0  0  0  0  0  0  0  0
   -1.8155    2.5867   13.0493 C   0  0  0  0  0  0  0  0  0  0  0  0
   -0.5816    2.0464   12.7869 C   0  0  0  0  0  0  0  0  0  0  0  0
    0.0006    2.1606   11.5292 C   0  0  0  0  0  0  0  0  0  0  0  0
    1.2765    1.6039   11.2011 C   0  0  0  0  0  0  0  0  0  0  0  0
    1.3971    0.2155   11.1535 C   0  0  0  0  0  0  0  0  0  0  0  0
    2.6050   -0.4060   10.8439 C   0  0  0  0  0  0  0  0  0  0  0  0
    3.6737    0.3696   10.5868 N   0  0  0  0  0  0  0  0  0  0  0  0
    3.6212    1.6940   10.6166 C   0  0  0  0  0  0  0  0  0  0  0  0
    2.4206    2.2981   10.9240 C   0  0  0  0  0  0  0  0  0  0  0  0
    2.3942    3.7197   10.9150 N   0  0  0  0  0  0  0  0  0  0  0  0
    2.3630    4.4339   12.1525 C   0  0  0  0  0  0  0  0  0  0  0  0
    2.4501    4.3758    9.6726 C   0  0  0  0  0  0  0  0  0  0  0  0
    2.5086    5.6836    9.6627 O   0  0  0  0  0  0  0  0  0  0  0  0
    2.4509    3.8017    8.3276 C   0  0  0  0  0  0  0  0  0  0  0  0
    3.9055    3.7328    7.8373 C   0  0  0  0  0  0  0  0  0  0  0  0
    1.7279    4.6094    7.2740 C   0  0  0  0  0  0  0  0  0  0  0  0
    1.8677    2.4373    8.2826 C   0  0  0  0  0  0  0  0  0  0  0  0
    2.6037    1.3225    7.9823 C   0  0  0  0  0  0  0  0  0  0  0  0
    2.0437    0.0357    7.9643 C   0  0  0  0  0  0  0  0  0  0  0  0
    0.7119   -0.1110    8.2570 C   0  0  0  0  0  0  0  0  0  0  0  0
   -0.0472    0.9816    8.5592 C   0  0  0  0  0  0  0  0  0  0  0  0
    0.5236    2.2272    8.5704 C   0  0  0  0  0  0  0  0  0  0  0  0
   -1.5017    0.7597    8.8717 C   0  0  0  0  0  0  0  0  0  0  0  0
   -2.2379    1.2705    7.8097 F   0  0  0  0  0  0  0  0  0  0  0  0
   -1.6563   -0.6151    8.9812 F   0  0  0  0  0  0  0  0  0  0  0  0
   -1.8194    1.3982   10.0556 F   0  0  0  0  0  0  0  0  0  0  0  0
    2.8543   -1.1604    7.6383 C   0  0  0  0  0  0  0  0  0  0  0  0
    3.8692   -0.8511    6.7342 F   0  0  0  0  0  0  0  0  0  0  0  0
    3.3736   -1.7487    8.7743 F   0  0  0  0  0  0  0  0  0  0  0  0
    2.0471   -2.1158    7.0170 F   0  0  0  0  0  0  0  0  0  0  0  0
    2.7161   -1.8036   10.7961 N   0  0  0  0  0  0  0  0  0  0  0  0
    1.5471   -2.6403   10.8468 C   0  0  0  0  0  0  0  0  0  0  0  0
    2.0590   -4.0855   10.8518 C   0  0  0  0  0  0  0  0  0  0  0  0
    2.9456   -4.3670    9.7722 N   0  0  0  0  0  0  0  0  0  0  0  0
    3.9358   -3.3523    9.4982 C   0  0  0  0  0  0  0  0  0  0  0  0
    4.0063   -2.4275   10.6930 C   0  0  0  0  0  0  0  0  0  0  0  0
    3.6617   -5.6056   10.0100 C   0  0  0  0  0  0  0  0  0  0  0  0
  1  2  1  0
  2  3  2  0
  3  4  1  0
  4  5  2  0
  5  6  1  0
  6  7  2  0
  7  8  1  0
  8  9  2  0
  9 10  1  0
 10 11  2  0
 11 12  1  0
 12 13  2  0
 13 14  1  0
 14 15  1  0
 14 16  1  0
 16 17  2  0
 16 18  1  0
 18 19  1  0
 18 20  1  0
 18 21  1  0
 21 22  2  0
 22 23  1  0
 23 24  2  0
 24 25  1  0
 25 26  2  0
 25 27  1  0
 27 28  1  0
 27 29  1  0
 27 30  1  0
 23 31  1  0
 31 32  1  0
 31 33  1  0
 31 34  1  0
 10 35  1  0
 35 36  1  0
 36 37  1  0
 37 38  1  0
 38 39  1  0
 39 40  1  0
 38 41  1  0
  7  2  1  0
 13  8  1  0
 26 21  1  0
 40 35  1  0
M  END
$$$$
