
     RDKit          3D

 41 44  0  0  0  0  0  0  0  0999 V2000
   -0.2342   -0.8886    5.6246 C   0  0  0  0  0  0  0  0  0  0  0  0
    0.8395    0.1545    5.7004 C   0  0  0  0  0  0  0  0  0  0  0  0
    0.9137    0.9685    4.5619 C   0  0  0  0  0  0  0  0  0  0  0  0
    1.8796    1.9453    4.5337 C   0  0  0  0  0  0  0  0  0  0  0  0
    2.7447    2.1144    5.5939 C   0  0  0  0  0  0  0  0  0  0  0  0
    2.6516    1.3045    6.6979 C   0  0  0  0  0  0  0  0  0  0  0  0
    1.6913    0.3017    6.7750 C   0  0  0  0  0  0  0  0  0  0  0  0
    1.5439   -0.5588    7.9079 C   0  0  0  0  0  0  0  0  0  0  0  0
    1.1751    0.0120    9.1255 C   0  0  0  0  0  0  0  0  0  0  0  0
    1.0125   -0.7557   10.2767 C   0  0  0  0  0  0  0  0  0  0  0  0
    1.2211   -2.0821   10.1932 N   0  0  0  0  0  0  0  0  0  0  0  0
    1.5730   -2.6822    9.0646 C   0  0  0  0  0  0  0  0  0  0  0  0
    1.7308   -1.9124    7.9317 C   0  0  0  0  0  0  0  0  0  0  0  0
    2.0771   -2.5942    6.7330 N   0  0  0  0  0  0  0  0  0  0  0  0
    1.0840   -3.3518    6.0386 C   0  0  0  0  0  0  0  0  0  0  0  0
    3.3885   -2.4537    6.2457 C   0  0  0  0  0  0  0  0  0  0  0  0
    3.6147   -2.7213    4.9843 O   0  0  0  0  0  0  0  0  0  0  0  0
    4.5961   -2.0391    6.9588 C   0  0  0  0  0  0  0  0  0  0  0  0
    5.0802   -0.7137    6.3504 C   0  0  0  0  0  0  0  0  0  0  0  0
    5.7784   -2.9730    6.8361 C   0  0  0  0  0  0  0  0  0  0  0  0
    4.3681   -1.8411    8.4124 C   0  0  0  0  0  0  0  0  0  0  0  0
    4.2845   -0.6030    8.9911 C   0  0  0  0  0  0  0  0  0  0  0  0
    4.0473   -0.4303   10.3635 C   0  0  0  0  0  0  0  0  0  0  0  0
    3.8945   -1.5407   11.1538 C   0  0  0  0  0  0  0  0  0  0  0  0
    3.9735   -2.7876   10.6057 C   0  0  0  0  0  0  0  0  0  0  0  0
    4.2056   -2.9292    9.2627 C   0  0  0  0  0  0  0  0  0  0  0  0
    3.7979   -3.9680   11.5212 C   0  0  0  0  0  0  0  0  0  0  0  0
    4.9492   -4.0711   12.2925 F   0  0  0  0  0  0  0  0  0  0  0  0
    2.6887   -3.6752   12.3022 F   0  0  0  0  0  0  0  0  0  0  0  0
    3.5957   -5.1081   10.7666 F   0  0  0  0  0  0  0  0  0  0  0  0
    3.9587    0.9164   10.9738 C   0  0  0  0  0  0  0  0  0  0  0  0
    3.0331    0.9383   12.0158 F   0  0  0  0  0  0  0  0  0  0  0  0
    5.1921    1.3619   11.4055 F   0  0  0  0  0  0  0  0  0  0  0  0
    3.5054    1.8313   10.0211 F   0  0  0  0  0  0  0  0  0  0  0  0
    0.6390   -0.1728   11.4967 N   0  0  0  0  0  0  0  0  0  0  0  0
   -0.3037    0.9129   11.5394 C   0  0  0  0  0  0  0  0  0  0  0  0
   -0.4013    1.3332   13.0106 C   0  0  0  0  0  0  0  0  0  0  0  0
   -0.7049    0.2472   13.8820 N   0  0  0  0  0  0  0  0  0  0  0  0
    0.0165   -0.9773   13.6265 C   0  0  0  0  0  0  0  0  0  0  0  0
    1.1928   -0.6537   12.7323 C   0  0  0  0  0  0  0  0  0  0  0  0
   -0.4460    0.6125   15.2614 C   0  0  0  0  0  0  0  0  0  0  0  0
  1  2  1  0
  2  3  2  0
  3  4  1  0
  4  5  2  0
  5  6  1  0
  6  7  2  0
  7  8  1  0
  8  9  2  0
  9 10  1  0
 10 11  2  0
 11 12  1  0
 12 13  2  0
 13 14  1  0
 14 15  1  0
 14 16  1  0
 16 17  2  0
 16 18  1  0
 18 19  1  0
 18 20  1  0
 18 21  1  0
 21 22  2  0
 22 23  1  0
 23 24  2  0
 24 25  1  0
 25 26  2  0
 25 27  1  0
 27 28  1  0
 27 29  1  0
 27 30  1  0
 23 31  1  0
 31 32  1  0
 31 33  1  0
 31 34  1  0
 10 35  1  0
 35 36  1  0
 36 37  1  0
 37 38  1  0
 38 39  1  0
 39 40  1  0
 38 41  1  0
  7  2  1  0
 13  8  1  0
 26 21  1  0
 40 35  1  0
M  END
$$$$
