
     RDKit          3D

 41 44  0  0  0  0  0  0  0  0999 V2000
   -0.6674    3.3702   13.6853 C   0  0  0  0  0  0  0  0  0  0  0  0
    0.5476    3.7880   12.9135 C   0  0  0  0  0  0  0  0  0  0  0  0
    0.7966    5.1665   12.9600 C   0  0  0  0  0  0  0  0  0  0  0  0
    1.8825    5.6457   12.2681 C   0  0  0  0  0  0  0  0  0  0  0  0
    2.6973    4.7935   11.5533 C   0  0  0  0  0  0  0  0  0  0  0  0
    2.4326    3.4472   11.5236 C   0  0  0  0  0  0  0  0  0  0  0  0
    1.3460    2.9129   12.2073 C   0  0  0  0  0  0  0  0  0  0  0  0
    1.0355    1.5168   12.2195 C   0  0  0  0  0  0  0  0  0  0  0  0
    1.8067    0.6772   13.0225 C   0  0  0  0  0  0  0  0  0  0  0  0
    1.5709   -0.6943   13.0894 C   0  0  0  0  0  0  0  0  0  0  0  0
    0.5682   -1.2055   12.3526 N   0  0  0  0  0  0  0  0  0  0  0  0
   -0.1990   -0.4587   11.5707 C   0  0  0  0  0  0  0  0  0  0  0  0
    0.0434    0.8973   11.5126 C   0  0  0  0  0  0  0  0  0  0  0  0
   -0.8194    1.6710   10.6889 N   0  0  0  0  0  0  0  0  0  0  0  0
   -2.1486    1.9569   11.1295 C   0  0  0  0  0  0  0  0  0  0  0  0
   -0.3074    2.1721    9.4790 C   0  0  0  0  0  0  0  0  0  0  0  0
   -0.9944    3.0893    8.8460 O   0  0  0  0  0  0  0  0  0  0  0  0
    0.9273    1.8123    8.7827 C   0  0  0  0  0  0  0  0  0  0  0  0
    2.0604    1.7501    9.8185 C   0  0  0  0  0  0  0  0  0  0  0  0
    1.4055    2.8060    7.7488 C   0  0  0  0  0  0  0  0  0  0  0  0
    0.8392    0.5005    8.0933 C   0  0  0  0  0  0  0  0  0  0  0  0
    0.8728    0.3717    6.7306 C   0  0  0  0  0  0  0  0  0  0  0  0
    0.8101   -0.8769    6.0927 C   0  0  0  0  0  0  0  0  0  0  0  0
    0.7107   -2.0086    6.8610 C   0  0  0  0  0  0  0  0  0  0  0  0
    0.6742   -1.9117    8.2215 C   0  0  0  0  0  0  0  0  0  0  0  0
    0.7375   -0.6807    8.8199 C   0  0  0  0  0  0  0  0  0  0  0  0
    0.5647   -3.1866    9.0121 C   0  0  0  0  0  0  0  0  0  0  0  0
   -0.7360   -3.2665    9.4944 F   0  0  0  0  0  0  0  0  0  0  0  0
    0.8364   -4.2093    8.1142 F   0  0  0  0  0  0  0  0  0  0  0  0
    1.4825   -3.1663   10.0452 F   0  0  0  0  0  0  0  0  0  0  0  0
    0.8486   -0.9988    4.6170 C   0  0  0  0  0  0  0  0  0  0  0  0
    2.1606   -1.0416    4.1484 F   0  0  0  0  0  0  0  0  0  0  0  0
    0.1361   -2.0970    4.1782 F   0  0  0  0  0  0  0  0  0  0  0  0
    0.2578    0.1275    4.0404 F   0  0  0  0  0  0  0  0  0  0  0  0
    2.3507   -1.5308   13.9019 N   0  0  0  0  0  0  0  0  0  0  0  0
    2.5667   -2.9092   13.5520 C   0  0  0  0  0  0  0  0  0  0  0  0
    3.3862   -3.5148   14.6974 C   0  0  0  0  0  0  0  0  0  0  0  0
    4.5737   -2.7805   14.9826 N   0  0  0  0  0  0  0  0  0  0  0  0
    4.4273   -1.3442   15.0080 C   0  0  0  0  0  0  0  0  0  0  0  0
    2.9524   -1.0223   15.1035 C   0  0  0  0  0  0  0  0  0  0  0  0
    5.1207   -3.1742   16.2669 C   0  0  0  0  0  0  0  0  0  0  0  0
  1  2  1  0
  2  3  2  0
  3  4  1  0
  4  5  2  0
  5  6  1  0
  6  7  2  0
  7  8  1  0
  8  9  2  0
  9 10  1  0
 10 11  2  0
 11 12  1  0
 12 13  2  0
 13 14  1  0
 14 15  1  0
 14 16  1  0
 16 17  2  0
 16 18  1  0
 18 19  1  0
 18 20  1  0
 18 21  1  0
 21 22  2  0
 22 23  1  0
 23 24  2  0
 24 25  1  0
 25 26  2  0
 25 27  1  0
 27 28  1  0
 27 29  1  0
 27 30  1  0
 23 31  1  0
 31 32  1  0
 31 33  1  0
 31 34  1  0
 10 35  1  0
 35 36  1  0
 36 37  1  0
 37 38  1  0
 38 39  1  0
 39 40  1  0
 38 41  1  0
  7  2  1  0
 13  8  1  0
 26 21  1  0
 40 35  1  0
M  END
$$$$
