
     RDKit          3D

 41 44  0  0  0  0  0  0  0  0999 V2000
   -1.0413    1.1618    8.4874 C   0  0  0  0  0  0  0  0  0  0  0  0
   -0.9868    1.9786    9.7430 C   0  0  0  0  0  0  0  0  0  0  0  0
   -2.1399    2.7433    9.9666 C   0  0  0  0  0  0  0  0  0  0  0  0
   -2.1755    3.5373   11.0872 C   0  0  0  0  0  0  0  0  0  0  0  0
   -1.1087    3.5766   11.9597 C   0  0  0  0  0  0  0  0  0  0  0  0
    0.0094    2.8180   11.7188 C   0  0  0  0  0  0  0  0  0  0  0  0
    0.0943    1.9981   10.5990 C   0  0  0  0  0  0  0  0  0  0  0  0
    1.2303    1.1783   10.3104 C   0  0  0  0  0  0  0  0  0  0  0  0
    1.4527    0.0561   11.1077 C   0  0  0  0  0  0  0  0  0  0  0  0
    2.5369   -0.7924   10.8944 C   0  0  0  0  0  0  0  0  0  0  0  0
    3.3821   -0.5063    9.8877 N   0  0  0  0  0  0  0  0  0  0  0  0
    3.2234    0.5454    9.0962 C   0  0  0  0  0  0  0  0  0  0  0  0
    2.1468    1.3780    9.3165 C   0  0  0  0  0  0  0  0  0  0  0  0
    1.9906    2.4773    8.4283 N   0  0  0  0  0  0  0  0  0  0  0  0
    2.5366    3.7511    8.7772 C   0  0  0  0  0  0  0  0  0  0  0  0
    1.3388    2.2520    7.2030 C   0  0  0  0  0  0  0  0  0  0  0  0
    1.0940    3.2806    6.4310 O   0  0  0  0  0  0  0  0  0  0  0  0
    0.8672    0.9922    6.6292 C   0  0  0  0  0  0  0  0  0  0  0  0
    1.2724    0.9596    5.1474 C   0  0  0  0  0  0  0  0  0  0  0  0
   -0.6323    0.8004    6.6220 C   0  0  0  0  0  0  0  0  0  0  0  0
    1.4385   -0.1993    7.3058 C   0  0  0  0  0  0  0  0  0  0  0  0
    2.6900   -0.6825    7.0318 C   0  0  0  0  0  0  0  0  0  0  0  0
    3.2259   -1.7975    7.6946 C   0  0  0  0  0  0  0  0  0  0  0  0
    2.4694   -2.4264    8.6501 C   0  0  0  0  0  0  0  0  0  0  0  0
    1.2184   -1.9683    8.9442 C   0  0  0  0  0  0  0  0  0  0  0  0
    0.7183   -0.8774    8.2830 C   0  0  0  0  0  0  0  0  0  0  0  0
    0.4354   -2.6980   10.0010 C   0  0  0  0  0  0  0  0  0  0  0  0
    1.0376   -3.9368   10.1839 F   0  0  0  0  0  0  0  0  0  0  0  0
    0.5276   -1.9156   11.1435 F   0  0  0  0  0  0  0  0  0  0  0  0
   -0.8766   -2.8340    9.5883 F   0  0  0  0  0  0  0  0  0  0  0  0
    4.5823   -2.3071    7.3869 C   0  0  0  0  0  0  0  0  0  0  0  0
    4.9078   -3.3952    8.1949 F   0  0  0  0  0  0  0  0  0  0  0  0
    4.7130   -2.6328    6.0516 F   0  0  0  0  0  0  0  0  0  0  0  0
    5.5262   -1.3145    7.6587 F   0  0  0  0  0  0  0  0  0  0  0  0
    2.7513   -1.9205   11.7003 N   0  0  0  0  0  0  0  0  0  0  0  0
    3.9962   -2.6393   11.6499 C   0  0  0  0  0  0  0  0  0  0  0  0
    3.8338   -3.8367   12.5935 C   0  0  0  0  0  0  0  0  0  0  0  0
    3.4160   -3.4620   13.9033 N   0  0  0  0  0  0  0  0  0  0  0  0
    2.3682   -2.4702   13.9634 C   0  0  0  0  0  0  0  0  0  0  0  0
    1.7264   -2.3791   12.5968 C   0  0  0  0  0  0  0  0  0  0  0  0
    2.9469   -4.6201   14.6398 C   0  0  0  0  0  0  0  0  0  0  0  0
  1  2  1  0
  2  3  2  0
  3  4  1  0
  4  5  2  0
  5  6  1  0
  6  7  2  0
  7  8  1  0
  8  9  2  0
  9 10  1  0
 10 11  2  0
 11 12  1  0
 12 13  2  0
 13 14  1  0
 14 15  1  0
 14 16  1  0
 16 17  2  0
 16 18  1  0
 18 19  1  0
 18 20  1  0
 18 21  1  0
 21 22  2  0
 22 23  1  0
 23 24  2  0
 24 25  1  0
 25 26  2  0
 25 27  1  0
 27 28  1  0
 27 29  1  0
 27 30  1  0
 23 31  1  0
 31 32  1  0
 31 33  1  0
 31 34  1  0
 10 35  1  0
 35 36  1  0
 36 37  1  0
 37 38  1  0
 38 39  1  0
 39 40  1  0
 38 41  1  0
  7  2  1  0
 13  8  1  0
 26 21  1  0
 40 35  1  0
M  END
$$$$
