
     RDKit          3D

 41 44  0  0  0  0  0  0  0  0999 V2000
    0.9587   -0.4166   13.0136 C   0  0  0  0  0  0  0  0  0  0  0  0
    0.6898   -1.5452   12.0647 C   0  0  0  0  0  0  0  0  0  0  0  0
   -0.3383   -2.4001   12.4849 C   0  0  0  0  0  0  0  0  0  0  0  0
   -0.6462   -3.4742   11.6855 C   0  0  0  0  0  0  0  0  0  0  0  0
    0.0373   -3.6987   10.5093 C   0  0  0  0  0  0  0  0  0  0  0  0
    1.0402   -2.8467   10.1193 C   0  0  0  0  0  0  0  0  0  0  0  0
    1.3894   -1.7454   10.8932 C   0  0  0  0  0  0  0  0  0  0  0  0
    2.4163   -0.8207   10.5245 C   0  0  0  0  0  0  0  0  0  0  0  0
    2.3619    0.4691   11.0516 C   0  0  0  0  0  0  0  0  0  0  0  0
    3.3217    1.4300   10.7409 C   0  0  0  0  0  0  0  0  0  0  0  0
    4.3209    1.0871    9.9080 N   0  0  0  0  0  0  0  0  0  0  0  0
    4.4262   -0.1224    9.3755 C   0  0  0  0  0  0  0  0  0  0  0  0
    3.4708   -1.0653    9.6903 C   0  0  0  0  0  0  0  0  0  0  0  0
    3.6338   -2.3603    9.1264 N   0  0  0  0  0  0  0  0  0  0  0  0
    3.8865   -3.4770    9.9818 C   0  0  0  0  0  0  0  0  0  0  0  0
    3.4892   -2.5005    7.7348 C   0  0  0  0  0  0  0  0  0  0  0  0
    4.1996   -3.4157    7.1253 O   0  0  0  0  0  0  0  0  0  0  0  0
    2.6327   -1.7490    6.8180 C   0  0  0  0  0  0  0  0  0  0  0  0
    1.6215   -2.7258    6.1983 C   0  0  0  0  0  0  0  0  0  0  0  0
    3.3358   -1.1220    5.6358 C   0  0  0  0  0  0  0  0  0  0  0  0
    1.8879   -0.6550    7.4907 C   0  0  0  0  0  0  0  0  0  0  0  0
    0.9249   -0.8822    8.4371 C   0  0  0  0  0  0  0  0  0  0  0  0
    0.2435    0.1625    9.0805 C   0  0  0  0  0  0  0  0  0  0  0  0
    0.5521    1.4571    8.7494 C   0  0  0  0  0  0  0  0  0  0  0  0
    1.5067    1.7147    7.8093 C   0  0  0  0  0  0  0  0  0  0  0  0
    2.1579    0.6768    7.1959 C   0  0  0  0  0  0  0  0  0  0  0  0
    1.8029    3.1537    7.4872 C   0  0  0  0  0  0  0  0  0  0  0  0
    2.3049    3.1952    6.1921 F   0  0  0  0  0  0  0  0  0  0  0  0
    0.5875    3.8170    7.5814 F   0  0  0  0  0  0  0  0  0  0  0  0
    2.7186    3.6486    8.3964 F   0  0  0  0  0  0  0  0  0  0  0  0
   -0.7953   -0.1004   10.1032 C   0  0  0  0  0  0  0  0  0  0  0  0
   -0.2426   -0.1539   11.3817 F   0  0  0  0  0  0  0  0  0  0  0  0
   -1.8117    0.8324   10.0481 F   0  0  0  0  0  0  0  0  0  0  0  0
   -1.3749   -1.3492    9.8689 F   0  0  0  0  0  0  0  0  0  0  0  0
    3.2599    2.7245   11.2780 N   0  0  0  0  0  0  0  0  0  0  0  0
    4.3033    3.6813   11.0228 C   0  0  0  0  0  0  0  0  0  0  0  0
    3.9355    4.9349   11.8252 C   0  0  0  0  0  0  0  0  0  0  0  0
    2.6180    5.4048   11.5529 N   0  0  0  0  0  0  0  0  0  0  0  0
    1.5965    4.3870   11.4773 C   0  0  0  0  0  0  0  0  0  0  0  0
    2.1463    3.1205   12.0950 C   0  0  0  0  0  0  0  0  0  0  0  0
    2.1963    6.3552   12.5641 C   0  0  0  0  0  0  0  0  0  0  0  0
  1  2  1  0
  2  3  2  0
  3  4  1  0
  4  5  2  0
  5  6  1  0
  6  7  2  0
  7  8  1  0
  8  9  2  0
  9 10  1  0
 10 11  2  0
 11 12  1  0
 12 13  2  0
 13 14  1  0
 14 15  1  0
 14 16  1  0
 16 17  2  0
 16 18  1  0
 18 19  1  0
 18 20  1  0
 18 21  1  0
 21 22  2  0
 22 23  1  0
 23 24  2  0
 24 25  1  0
 25 26  2  0
 25 27  1  0
 27 28  1  0
 27 29  1  0
 27 30  1  0
 23 31  1  0
 31 32  1  0
 31 33  1  0
 31 34  1  0
 10 35  1  0
 35 36  1  0
 36 37  1  0
 37 38  1  0
 38 39  1  0
 39 40  1  0
 38 41  1  0
  7  2  1  0
 13  8  1  0
 26 21  1  0
 40 35  1  0
M  END
$$$$
