
     RDKit          3D

 41 44  0  0  0  0  0  0  0  0999 V2000
    0.2134    1.8466    7.5702 C   0  0  0  0  0  0  0  0  0  0  0  0
    1.4458    2.1445    6.7709 C   0  0  0  0  0  0  0  0  0  0  0  0
    1.1955    2.8831    5.6063 C   0  0  0  0  0  0  0  0  0  0  0  0
    2.2646    3.1914    4.8003 C   0  0  0  0  0  0  0  0  0  0  0  0
    3.5397    2.7848    5.1314 C   0  0  0  0  0  0  0  0  0  0  0  0
    3.7591    2.0627    6.2777 C   0  0  0  0  0  0  0  0  0  0  0  0
    2.7106    1.7256    7.1267 C   0  0  0  0  0  0  0  0  0  0  0  0
    2.8883    0.9875    8.3389 C   0  0  0  0  0  0  0  0  0  0  0  0
    2.5709    1.6132    9.5439 C   0  0  0  0  0  0  0  0  0  0  0  0
    2.7172    0.9648   10.7684 C   0  0  0  0  0  0  0  0  0  0  0  0
    3.1786   -0.2989   10.7696 N   0  0  0  0  0  0  0  0  0  0  0  0
    3.4970   -0.9462    9.6572 C   0  0  0  0  0  0  0  0  0  0  0  0
    3.3479   -0.2946    8.4513 C   0  0  0  0  0  0  0  0  0  0  0  0
    3.6685   -1.0307    7.2778 N   0  0  0  0  0  0  0  0  0  0  0  0
    5.0170   -1.4456    7.0499 C   0  0  0  0  0  0  0  0  0  0  0  0
    2.6227   -1.3680    6.4005 C   0  0  0  0  0  0  0  0  0  0  0  0
    2.8644   -1.3616    5.1139 O   0  0  0  0  0  0  0  0  0  0  0  0
    1.2431   -1.7397    6.7126 C   0  0  0  0  0  0  0  0  0  0  0  0
    1.0536   -3.2215    6.3533 C   0  0  0  0  0  0  0  0  0  0  0  0
    0.1781   -1.0133    5.9231 C   0  0  0  0  0  0  0  0  0  0  0  0
    0.9047   -1.5496    8.1456 C   0  0  0  0  0  0  0  0  0  0  0  0
    1.3661   -2.3755    9.1354 C   0  0  0  0  0  0  0  0  0  0  0  0
    1.0555   -2.1715   10.4888 C   0  0  0  0  0  0  0  0  0  0  0  0
    0.2611   -1.1077   10.8327 C   0  0  0  0  0  0  0  0  0  0  0  0
   -0.2142   -0.2679    9.8682 C   0  0  0  0  0  0  0  0  0  0  0  0
    0.1039   -0.4888    8.5538 C   0  0  0  0  0  0  0  0  0  0  0  0
   -1.0806    0.8816   10.3046 C   0  0  0  0  0  0  0  0  0  0  0  0
   -0.2401    1.9503   10.5917 F   0  0  0  0  0  0  0  0  0  0  0  0
   -1.9053    1.1611    9.2240 F   0  0  0  0  0  0  0  0  0  0  0  0
   -1.8142    0.5078   11.4147 F   0  0  0  0  0  0  0  0  0  0  0  0
    1.5636   -3.0740   11.5477 C   0  0  0  0  0  0  0  0  0  0  0  0
    2.6851   -3.7793   11.1142 F   0  0  0  0  0  0  0  0  0  0  0  0
    1.8380   -2.3872   12.7136 F   0  0  0  0  0  0  0  0  0  0  0  0
    0.5901   -4.0268   11.8552 F   0  0  0  0  0  0  0  0  0  0  0  0
    2.3932    1.6017   11.9756 N   0  0  0  0  0  0  0  0  0  0  0  0
    2.9159    1.1232   13.2274 C   0  0  0  0  0  0  0  0  0  0  0  0
    2.2906    2.0059   14.3139 C   0  0  0  0  0  0  0  0  0  0  0  0
    2.4848    3.3984   14.0816 N   0  0  0  0  0  0  0  0  0  0  0  0
    2.2789    3.8380   12.7216 C   0  0  0  0  0  0  0  0  0  0  0  0
    1.5305    2.7507   11.9829 C   0  0  0  0  0  0  0  0  0  0  0  0
    1.5996    4.1837   14.9201 C   0  0  0  0  0  0  0  0  0  0  0  0
  1  2  1  0
  2  3  2  0
  3  4  1  0
  4  5  2  0
  5  6  1  0
  6  7  2  0
  7  8  1  0
  8  9  2  0
  9 10  1  0
 10 11  2  0
 11 12  1  0
 12 13  2  0
 13 14  1  0
 14 15  1  0
 14 16  1  0
 16 17  2  0
 16 18  1  0
 18 19  1  0
 18 20  1  0
 18 21  1  0
 21 22  2  0
 22 23  1  0
 23 24  2  0
 24 25  1  0
 25 26  2  0
 25 27  1  0
 27 28  1  0
 27 29  1  0
 27 30  1  0
 23 31  1  0
 31 32  1  0
 31 33  1  0
 31 34  1  0
 10 35  1  0
 35 36  1  0
 36 37  1  0
 37 38  1  0
 38 39  1  0
 39 40  1  0
 38 41  1  0
  7  2  1  0
 13  8  1  0
 26 21  1  0
 40 35  1  0
M  END
$$$$
