
     RDKit          3D

 41 44  0  0  0  0  0  0  0  0999 V2000
   -0.4663   -0.0673    9.2542 C   0  0  0  0  0  0  0  0  0  0  0  0
   -0.1800   -1.5320    9.1157 C   0  0  0  0  0  0  0  0  0  0  0  0
   -1.0968   -2.2093    8.3001 C   0  0  0  0  0  0  0  0  0  0  0  0
   -0.9238   -3.5612    8.1262 C   0  0  0  0  0  0  0  0  0  0  0  0
    0.1195   -4.2244    8.7366 C   0  0  0  0  0  0  0  0  0  0  0  0
    1.0044   -3.5386    9.5305 C   0  0  0  0  0  0  0  0  0  0  0  0
    0.8727   -2.1699    9.7378 C   0  0  0  0  0  0  0  0  0  0  0  0
    1.7753   -1.4075   10.5438 C   0  0  0  0  0  0  0  0  0  0  0  0
    1.2835   -0.2762   11.1938 C   0  0  0  0  0  0  0  0  0  0  0  0
    2.0972    0.5215   11.9955 C   0  0  0  0  0  0  0  0  0  0  0  0
    3.3899    0.1763   12.1350 N   0  0  0  0  0  0  0  0  0  0  0  0
    3.9152   -0.8872   11.5426 C   0  0  0  0  0  0  0  0  0  0  0  0
    3.1004   -1.6693   10.7518 C   0  0  0  0  0  0  0  0  0  0  0  0
    3.6902   -2.8191   10.1587 N   0  0  0  0  0  0  0  0  0  0  0  0
    3.4226   -4.1123   10.7052 C   0  0  0  0  0  0  0  0  0  0  0  0
    4.4847   -2.6401    9.0126 C   0  0  0  0  0  0  0  0  0  0  0  0
    4.9353   -3.7037    8.3965 O   0  0  0  0  0  0  0  0  0  0  0  0
    4.9089   -1.3959    8.3717 C   0  0  0  0  0  0  0  0  0  0  0  0
    5.5019   -1.7432    6.9974 C   0  0  0  0  0  0  0  0  0  0  0  0
    6.0060   -0.6375    9.0833 C   0  0  0  0  0  0  0  0  0  0  0  0
    3.7926   -0.4361    8.1802 C   0  0  0  0  0  0  0  0  0  0  0  0
    3.7527    0.7903    8.7877 C   0  0  0  0  0  0  0  0  0  0  0  0
    2.7012    1.6966    8.5809 C   0  0  0  0  0  0  0  0  0  0  0  0
    1.6766    1.3415    7.7413 C   0  0  0  0  0  0  0  0  0  0  0  0
    1.6884    0.1257    7.1224 C   0  0  0  0  0  0  0  0  0  0  0  0
    2.7270   -0.7411    7.3407 C   0  0  0  0  0  0  0  0  0  0  0  0
    0.5382   -0.2089    6.2128 C   0  0  0  0  0  0  0  0  0  0  0  0
   -0.1893   -1.2259    6.8191 F   0  0  0  0  0  0  0  0  0  0  0  0
   -0.2087    0.9561    6.1085 F   0  0  0  0  0  0  0  0  0  0  0  0
    1.0264   -0.6061    4.9824 F   0  0  0  0  0  0  0  0  0  0  0  0
    2.6737    3.0202    9.2452 C   0  0  0  0  0  0  0  0  0  0  0  0
    3.0247    4.0371    8.3588 F   0  0  0  0  0  0  0  0  0  0  0  0
    1.4451    3.2755    9.8210 F   0  0  0  0  0  0  0  0  0  0  0  0
    3.6188    3.0460   10.2730 F   0  0  0  0  0  0  0  0  0  0  0  0
    1.5928    1.6567   12.6474 N   0  0  0  0  0  0  0  0  0  0  0  0
    0.2493    1.6784   13.1608 C   0  0  0  0  0  0  0  0  0  0  0  0
    0.0329    3.0875   13.7250 C   0  0  0  0  0  0  0  0  0  0  0  0
    1.0343    3.4726   14.6629 N   0  0  0  0  0  0  0  0  0  0  0  0
    2.3919    3.1468   14.2940 C   0  0  0  0  0  0  0  0  0  0  0  0
    2.4144    2.8233   12.8167 C   0  0  0  0  0  0  0  0  0  0  0  0
    0.9900    4.9031   14.8977 C   0  0  0  0  0  0  0  0  0  0  0  0
  1  2  1  0
  2  3  2  0
  3  4  1  0
  4  5  2  0
  5  6  1  0
  6  7  2  0
  7  8  1  0
  8  9  2  0
  9 10  1  0
 10 11  2  0
 11 12  1  0
 12 13  2  0
 13 14  1  0
 14 15  1  0
 14 16  1  0
 16 17  2  0
 16 18  1  0
 18 19  1  0
 18 20  1  0
 18 21  1  0
 21 22  2  0
 22 23  1  0
 23 24  2  0
 24 25  1  0
 25 26  2  0
 25 27  1  0
 27 28  1  0
 27 29  1  0
 27 30  1  0
 23 31  1  0
 31 32  1  0
 31 33  1  0
 31 34  1  0
 10 35  1  0
 35 36  1  0
 36 37  1  0
 37 38  1  0
 38 39  1  0
 39 40  1  0
 38 41  1  0
  7  2  1  0
 13  8  1  0
 26 21  1  0
 40 35  1  0
M  END
$$$$
