
     RDKit          3D

 41 44  0  0  0  0  0  0  0  0999 V2000
    1.1255   -0.7525    8.3815 C   0  0  0  0  0  0  0  0  0  0  0  0
    2.0230   -1.8038    7.8020 C   0  0  0  0  0  0  0  0  0  0  0  0
    1.6992   -2.1553    6.4844 C   0  0  0  0  0  0  0  0  0  0  0  0
    2.4587   -3.1239    5.8740 C   0  0  0  0  0  0  0  0  0  0  0  0
    3.5041   -3.7269    6.5408 C   0  0  0  0  0  0  0  0  0  0  0  0
    3.8015   -3.3649    7.8307 C   0  0  0  0  0  0  0  0  0  0  0  0
    3.0631   -2.3899    8.4923 C   0  0  0  0  0  0  0  0  0  0  0  0
    3.3412   -1.9673    9.8301 C   0  0  0  0  0  0  0  0  0  0  0  0
    2.9080   -2.7761   10.8802 C   0  0  0  0  0  0  0  0  0  0  0  0
    3.1368   -2.4354   12.2116 C   0  0  0  0  0  0  0  0  0  0  0  0
    3.7948   -1.2916   12.4730 N   0  0  0  0  0  0  0  0  0  0  0  0
    4.2311   -0.4819   11.5181 C   0  0  0  0  0  0  0  0  0  0  0  0
    3.9991   -0.8294   10.2042 C   0  0  0  0  0  0  0  0  0  0  0  0
    4.5093    0.0463    9.2070 N   0  0  0  0  0  0  0  0  0  0  0  0
    5.7083   -0.2985    8.5098 C   0  0  0  0  0  0  0  0  0  0  0  0
    3.7770    1.2088    8.9079 C   0  0  0  0  0  0  0  0  0  0  0  0
    3.9721    1.7852    7.7488 O   0  0  0  0  0  0  0  0  0  0  0  0
    2.7877    1.9095    9.7260 C   0  0  0  0  0  0  0  0  0  0  0  0
    3.2410    3.3695    9.8795 C   0  0  0  0  0  0  0  0  0  0  0  0
    2.6367    1.4028   11.1421 C   0  0  0  0  0  0  0  0  0  0  0  0
    1.4289    1.8927    9.1281 C   0  0  0  0  0  0  0  0  0  0  0  0
    1.1860    2.2247    7.8222 C   0  0  0  0  0  0  0  0  0  0  0  0
   -0.1012    2.1838    7.2642 C   0  0  0  0  0  0  0  0  0  0  0  0
   -1.1536    1.7986    8.0548 C   0  0  0  0  0  0  0  0  0  0  0  0
   -0.9425    1.4626    9.3602 C   0  0  0  0  0  0  0  0  0  0  0  0
    0.3241    1.5104    9.8808 C   0  0  0  0  0  0  0  0  0  0  0  0
   -2.1343    1.0480   10.1787 C   0  0  0  0  0  0  0  0  0  0  0  0
   -2.6616   -0.0975    9.5948 F   0  0  0  0  0  0  0  0  0  0  0  0
   -1.6439    0.7890   11.4508 F   0  0  0  0  0  0  0  0  0  0  0  0
   -3.0596    2.0744   10.1949 F   0  0  0  0  0  0  0  0  0  0  0  0
   -0.3469    2.5454    5.8490 C   0  0  0  0  0  0  0  0  0  0  0  0
    0.8352    2.5255    5.1106 F   0  0  0  0  0  0  0  0  0  0  0  0
   -1.2979    1.7274    5.2722 F   0  0  0  0  0  0  0  0  0  0  0  0
   -0.8362    3.8515    5.7794 F   0  0  0  0  0  0  0  0  0  0  0  0
    2.6991   -3.2567   13.2613 N   0  0  0  0  0  0  0  0  0  0  0  0
    2.6770   -4.6881   13.1201 C   0  0  0  0  0  0  0  0  0  0  0  0
    2.0745   -5.2338   14.4200 C   0  0  0  0  0  0  0  0  0  0  0  0
    2.7434   -4.7614   15.5863 N   0  0  0  0  0  0  0  0  0  0  0  0
    3.0721   -3.3553   15.5898 C   0  0  0  0  0  0  0  0  0  0  0  0
    2.2648   -2.6798   14.5035 C   0  0  0  0  0  0  0  0  0  0  0  0
    1.9441   -5.0135   16.7700 C   0  0  0  0  0  0  0  0  0  0  0  0
  1  2  1  0
  2  3  2  0
  3  4  1  0
  4  5  2  0
  5  6  1  0
  6  7  2  0
  7  8  1  0
  8  9  2  0
  9 10  1  0
 10 11  2  0
 11 12  1  0
 12 13  2  0
 13 14  1  0
 14 15  1  0
 14 16  1  0
 16 17  2  0
 16 18  1  0
 18 19  1  0
 18 20  1  0
 18 21  1  0
 21 22  2  0
 22 23  1  0
 23 24  2  0
 24 25  1  0
 25 26  2  0
 25 27  1  0
 27 28  1  0
 27 29  1  0
 27 30  1  0
 23 31  1  0
 31 32  1  0
 31 33  1  0
 31 34  1  0
 10 35  1  0
 35 36  1  0
 36 37  1  0
 37 38  1  0
 38 39  1  0
 39 40  1  0
 38 41  1  0
  7  2  1  0
 13  8  1  0
 26 21  1  0
 40 35  1  0
M  END
$$$$
