
     RDKit          3D

 41 44  0  0  0  0  0  0  0  0999 V2000
    2.6351   -2.9847   13.2145 C   0  0  0  0  0  0  0  0  0  0  0  0
    3.8191   -2.5997   12.3800 C   0  0  0  0  0  0  0  0  0  0  0  0
    5.0401   -3.0624   12.8893 C   0  0  0  0  0  0  0  0  0  0  0  0
    6.1846   -2.7449   12.1987 C   0  0  0  0  0  0  0  0  0  0  0  0
    6.1276   -1.9952   11.0430 C   0  0  0  0  0  0  0  0  0  0  0  0
    4.9195   -1.5540   10.5643 C   0  0  0  0  0  0  0  0  0  0  0  0
    3.7327   -1.8488   11.2264 C   0  0  0  0  0  0  0  0  0  0  0  0
    2.4482   -1.4251   10.7616 C   0  0  0  0  0  0  0  0  0  0  0  0
    1.9088   -0.2539   11.2923 C   0  0  0  0  0  0  0  0  0  0  0  0
    0.6627    0.2262   10.8948 C   0  0  0  0  0  0  0  0  0  0  0  0
   -0.0250   -0.4718    9.9731 N   0  0  0  0  0  0  0  0  0  0  0  0
    0.4350   -1.5915    9.4323 C   0  0  0  0  0  0  0  0  0  0  0  0
    1.6693   -2.0569    9.8332 C   0  0  0  0  0  0  0  0  0  0  0  0
    2.1444   -3.2426    9.2085 N   0  0  0  0  0  0  0  0  0  0  0  0
    2.5382   -4.3563   10.0130 C   0  0  0  0  0  0  0  0  0  0  0  0
    2.1615   -3.2903    7.8034 C   0  0  0  0  0  0  0  0  0  0  0  0
    2.1234   -4.4621    7.2209 O   0  0  0  0  0  0  0  0  0  0  0  0
    2.2204   -2.1868    6.8455 C   0  0  0  0  0  0  0  0  0  0  0  0
    1.3810   -2.5732    5.6179 C   0  0  0  0  0  0  0  0  0  0  0  0
    3.5923   -1.8775    6.2913 C   0  0  0  0  0  0  0  0  0  0  0  0
    1.6958   -0.9134    7.3998 C   0  0  0  0  0  0  0  0  0  0  0  0
    0.6313   -0.8579    8.2591 C   0  0  0  0  0  0  0  0  0  0  0  0
    0.1592    0.3514    8.7923 C   0  0  0  0  0  0  0  0  0  0  0  0
    0.7855    1.5196    8.4400 C   0  0  0  0  0  0  0  0  0  0  0  0
    1.8485    1.4959    7.5851 C   0  0  0  0  0  0  0  0  0  0  0  0
    2.2903    0.3018    7.0785 C   0  0  0  0  0  0  0  0  0  0  0  0
    2.4954    2.8078    7.2347 C   0  0  0  0  0  0  0  0  0  0  0  0
    3.7250    2.5230    6.6533 F   0  0  0  0  0  0  0  0  0  0  0  0
    1.6373    3.4199    6.3320 F   0  0  0  0  0  0  0  0  0  0  0  0
    2.6457    3.5660    8.3804 F   0  0  0  0  0  0  0  0  0  0  0  0
   -0.9934    0.3940    9.7216 C   0  0  0  0  0  0  0  0  0  0  0  0
   -0.8086    1.3583   10.7110 F   0  0  0  0  0  0  0  0  0  0  0  0
   -2.1814    0.6034    9.0501 F   0  0  0  0  0  0  0  0  0  0  0  0
   -1.1077   -0.8326   10.3795 F   0  0  0  0  0  0  0  0  0  0  0  0
    0.1292    1.4068   11.4327 N   0  0  0  0  0  0  0  0  0  0  0  0
    0.9883    2.4336   11.9589 C   0  0  0  0  0  0  0  0  0  0  0  0
    0.0604    3.5167   12.5214 C   0  0  0  0  0  0  0  0  0  0  0  0
   -0.9019    3.9736   11.5748 N   0  0  0  0  0  0  0  0  0  0  0  0
   -1.5432    2.9438   10.7915 C   0  0  0  0  0  0  0  0  0  0  0  0
   -1.2923    1.6134   11.4660 C   0  0  0  0  0  0  0  0  0  0  0  0
   -1.9541    4.7203   12.2371 C   0  0  0  0  0  0  0  0  0  0  0  0
  1  2  1  0
  2  3  2  0
  3  4  1  0
  4  5  2  0
  5  6  1  0
  6  7  2  0
  7  8  1  0
  8  9  2  0
  9 10  1  0
 10 11  2  0
 11 12  1  0
 12 13  2  0
 13 14  1  0
 14 15  1  0
 14 16  1  0
 16 17  2  0
 16 18  1  0
 18 19  1  0
 18 20  1  0
 18 21  1  0
 21 22  2  0
 22 23  1  0
 23 24  2  0
 24 25  1  0
 25 26  2  0
 25 27  1  0
 27 28  1  0
 27 29  1  0
 27 30  1  0
 23 31  1  0
 31 32  1  0
 31 33  1  0
 31 34  1  0
 10 35  1  0
 35 36  1  0
 36 37  1  0
 37 38  1  0
 38 39  1  0
 39 40  1  0
 38 41  1  0
  7  2  1  0
 13  8  1  0
 26 21  1  0
 40 35  1  0
M  END
$$$$
