
     RDKit          3D

 41 44  0  0  0  0  0  0  0  0999 V2000
    2.2879   -3.9184   10.9894 C   0  0  0  0  0  0  0  0  0  0  0  0
    3.5034   -3.2631   10.4066 C   0  0  0  0  0  0  0  0  0  0  0  0
    4.7101   -3.8206   10.8510 C   0  0  0  0  0  0  0  0  0  0  0  0
    5.8801   -3.2744   10.3817 C   0  0  0  0  0  0  0  0  0  0  0  0
    5.8615   -2.2125    9.5024 C   0  0  0  0  0  0  0  0  0  0  0  0
    4.6667   -1.6843    9.0817 C   0  0  0  0  0  0  0  0  0  0  0  0
    3.4554   -2.2017    9.5274 C   0  0  0  0  0  0  0  0  0  0  0  0
    2.1844   -1.6967    9.1086 C   0  0  0  0  0  0  0  0  0  0  0  0
    2.0688   -1.1962    7.8123 C   0  0  0  0  0  0  0  0  0  0  0  0
    0.8669   -0.6844    7.3277 C   0  0  0  0  0  0  0  0  0  0  0  0
   -0.2006   -0.6806    8.1462 N   0  0  0  0  0  0  0  0  0  0  0  0
   -0.1528   -1.1425    9.3880 C   0  0  0  0  0  0  0  0  0  0  0  0
    1.0418   -1.6467    9.8567 C   0  0  0  0  0  0  0  0  0  0  0  0
    1.0473   -2.1626   11.1817 N   0  0  0  0  0  0  0  0  0  0  0  0
    0.4167   -3.4157   11.4550 C   0  0  0  0  0  0  0  0  0  0  0  0
    1.7248   -1.4328   12.1744 C   0  0  0  0  0  0  0  0  0  0  0  0
    1.9971   -2.0296   13.3074 O   0  0  0  0  0  0  0  0  0  0  0  0
    2.1929   -0.0477   12.1405 C   0  0  0  0  0  0  0  0  0  0  0  0
    3.5796   -0.0271   11.4791 C   0  0  0  0  0  0  0  0  0  0  0  0
    2.4004    0.6031   13.4891 C   0  0  0  0  0  0  0  0  0  0  0  0
    1.2878    0.8484   11.3779 C   0  0  0  0  0  0  0  0  0  0  0  0
   -0.0077    1.0898   11.7497 C   0  0  0  0  0  0  0  0  0  0  0  0
   -0.8459    1.9562   11.0311 C   0  0  0  0  0  0  0  0  0  0  0  0
   -0.3507    2.5831    9.9163 C   0  0  0  0  0  0  0  0  0  0  0  0
    0.9361    2.3617    9.5208 C   0  0  0  0  0  0  0  0  0  0  0  0
    1.7343    1.5113   10.2401 C   0  0  0  0  0  0  0  0  0  0  0  0
    1.4242    3.0767    8.2909 C   0  0  0  0  0  0  0  0  0  0  0  0
    1.2715    2.2084    7.2168 F   0  0  0  0  0  0  0  0  0  0  0  0
    0.6115    4.1940    8.1592 F   0  0  0  0  0  0  0  0  0  0  0  0
    2.7481    3.4343    8.4627 F   0  0  0  0  0  0  0  0  0  0  0  0
   -2.2451    2.2072   11.4474 C   0  0  0  0  0  0  0  0  0  0  0  0
   -3.1450    1.5285   10.6274 F   0  0  0  0  0  0  0  0  0  0  0  0
   -2.4483    1.8798   12.7732 F   0  0  0  0  0  0  0  0  0  0  0  0
   -2.5346    3.5669   11.3143 F   0  0  0  0  0  0  0  0  0  0  0  0
    0.7597   -0.1850    6.0212 N   0  0  0  0  0  0  0  0  0  0  0  0
   -0.4527   -0.3486    5.2645 C   0  0  0  0  0  0  0  0  0  0  0  0
   -0.1719    0.2445    3.8789 C   0  0  0  0  0  0  0  0  0  0  0  0
    0.3195    1.5811    3.9334 N   0  0  0  0  0  0  0  0  0  0  0  0
    1.3240    1.8352    4.9392 C   0  0  0  0  0  0  0  0  0  0  0  0
    1.8640    0.5042    5.4130 C   0  0  0  0  0  0  0  0  0  0  0  0
    0.8898    1.9672    2.6570 C   0  0  0  0  0  0  0  0  0  0  0  0
  1  2  1  0
  2  3  2  0
  3  4  1  0
  4  5  2  0
  5  6  1  0
  6  7  2  0
  7  8  1  0
  8  9  2  0
  9 10  1  0
 10 11  2  0
 11 12  1  0
 12 13  2  0
 13 14  1  0
 14 15  1  0
 14 16  1  0
 16 17  2  0
 16 18  1  0
 18 19  1  0
 18 20  1  0
 18 21  1  0
 21 22  2  0
 22 23  1  0
 23 24  2  0
 24 25  1  0
 25 26  2  0
 25 27  1  0
 27 28  1  0
 27 29  1  0
 27 30  1  0
 23 31  1  0
 31 32  1  0
 31 33  1  0
 31 34  1  0
 10 35  1  0
 35 36  1  0
 36 37  1  0
 37 38  1  0
 38 39  1  0
 39 40  1  0
 38 41  1  0
  7  2  1  0
 13  8  1  0
 26 21  1  0
 40 35  1  0
M  END
$$$$
