
     RDKit          3D

 41 44  0  0  0  0  0  0  0  0999 V2000
   -0.1033   -1.7253    9.9219 C   0  0  0  0  0  0  0  0  0  0  0  0
    1.1087   -2.5456   10.2451 C   0  0  0  0  0  0  0  0  0  0  0  0
    0.8231   -3.8936   10.5016 C   0  0  0  0  0  0  0  0  0  0  0  0
    1.8715   -4.7215   10.8225 C   0  0  0  0  0  0  0  0  0  0  0  0
    3.1604   -4.2364   10.8886 C   0  0  0  0  0  0  0  0  0  0  0  0
    3.4145   -2.9122   10.6328 C   0  0  0  0  0  0  0  0  0  0  0  0
    2.3880   -2.0338   10.3035 C   0  0  0  0  0  0  0  0  0  0  0  0
    2.6018   -0.6495   10.0145 C   0  0  0  0  0  0  0  0  0  0  0  0
    2.1844    0.2921   10.9544 C   0  0  0  0  0  0  0  0  0  0  0  0
    2.3538    1.6596   10.7486 C   0  0  0  0  0  0  0  0  0  0  0  0
    2.9377    2.0649    9.6065 N   0  0  0  0  0  0  0  0  0  0  0  0
    3.3553    1.2181    8.6758 C   0  0  0  0  0  0  0  0  0  0  0  0
    3.1826   -0.1328    8.8904 C   0  0  0  0  0  0  0  0  0  0  0  0
    3.6715   -1.0121    7.8856 N   0  0  0  0  0  0  0  0  0  0  0  0
    5.0770   -1.2461    7.7740 C   0  0  0  0  0  0  0  0  0  0  0  0
    2.7361   -1.6633    7.0622 C   0  0  0  0  0  0  0  0  0  0  0  0
    3.0971   -2.7728    6.4684 O   0  0  0  0  0  0  0  0  0  0  0  0
    1.3608   -1.2780    6.7479 C   0  0  0  0  0  0  0  0  0  0  0  0
    0.4144   -2.1797    7.5555 C   0  0  0  0  0  0  0  0  0  0  0  0
    0.9423   -1.4728    5.3084 C   0  0  0  0  0  0  0  0  0  0  0  0
    1.0685    0.1390    7.0808 C   0  0  0  0  0  0  0  0  0  0  0  0
    1.6458    1.1925    6.4240 C   0  0  0  0  0  0  0  0  0  0  0  0
    1.3441    2.5274    6.7350 C   0  0  0  0  0  0  0  0  0  0  0  0
    0.4394    2.7865    7.7327 C   0  0  0  0  0  0  0  0  0  0  0  0
   -0.1517    1.7573    8.4055 C   0  0  0  0  0  0  0  0  0  0  0  0
    0.1599    0.4626    8.0824 C   0  0  0  0  0  0  0  0  0  0  0  0
   -1.1356    2.1020    9.4896 C   0  0  0  0  0  0  0  0  0  0  0  0
   -0.5109    2.9976   10.3489 F   0  0  0  0  0  0  0  0  0  0  0  0
   -2.2152    2.6880    8.8437 F   0  0  0  0  0  0  0  0  0  0  0  0
   -1.5108    0.9489   10.1527 F   0  0  0  0  0  0  0  0  0  0  0  0
    1.9771    3.6559    6.0139 C   0  0  0  0  0  0  0  0  0  0  0  0
    2.7857    3.2001    4.9741 F   0  0  0  0  0  0  0  0  0  0  0  0
    1.0371    4.5524    5.5459 F   0  0  0  0  0  0  0  0  0  0  0  0
    2.8110    4.3580    6.8867 F   0  0  0  0  0  0  0  0  0  0  0  0
    1.9326    2.5994   11.7012 N   0  0  0  0  0  0  0  0  0  0  0  0
    1.5732    2.1918   13.0330 C   0  0  0  0  0  0  0  0  0  0  0  0
    1.0969    3.4598   13.7512 C   0  0  0  0  0  0  0  0  0  0  0  0
    2.0423    4.5242   13.6897 N   0  0  0  0  0  0  0  0  0  0  0  0
    2.6671    4.7293   12.4041 C   0  0  0  0  0  0  0  0  0  0  0  0
    1.8543    3.9934   11.3622 C   0  0  0  0  0  0  0  0  0  0  0  0
    1.4216    5.7801   14.0652 C   0  0  0  0  0  0  0  0  0  0  0  0
  1  2  1  0
  2  3  2  0
  3  4  1  0
  4  5  2  0
  5  6  1  0
  6  7  2  0
  7  8  1  0
  8  9  2  0
  9 10  1  0
 10 11  2  0
 11 12  1  0
 12 13  2  0
 13 14  1  0
 14 15  1  0
 14 16  1  0
 16 17  2  0
 16 18  1  0
 18 19  1  0
 18 20  1  0
 18 21  1  0
 21 22  2  0
 22 23  1  0
 23 24  2  0
 24 25  1  0
 25 26  2  0
 25 27  1  0
 27 28  1  0
 27 29  1  0
 27 30  1  0
 23 31  1  0
 31 32  1  0
 31 33  1  0
 31 34  1  0
 10 35  1  0
 35 36  1  0
 36 37  1  0
 37 38  1  0
 38 39  1  0
 39 40  1  0
 38 41  1  0
  7  2  1  0
 13  8  1  0
 26 21  1  0
 40 35  1  0
M  END
$$$$
