
     RDKit          3D

 41 44  0  0  0  0  0  0  0  0999 V2000
    3.9138    2.0970    9.5880 C   0  0  0  0  0  0  0  0  0  0  0  0
    3.5176    2.9437   10.7596 C   0  0  0  0  0  0  0  0  0  0  0  0
    4.0749    4.2296   10.7377 C   0  0  0  0  0  0  0  0  0  0  0  0
    3.7800    5.0741   11.7805 C   0  0  0  0  0  0  0  0  0  0  0  0
    2.9620    4.6645   12.8120 C   0  0  0  0  0  0  0  0  0  0  0  0
    2.4281    3.4002   12.8104 C   0  0  0  0  0  0  0  0  0  0  0  0
    2.6960    2.5080   11.7779 C   0  0  0  0  0  0  0  0  0  0  0  0
    2.1536    1.1858   11.7223 C   0  0  0  0  0  0  0  0  0  0  0  0
    2.9979    0.1144   12.0119 C   0  0  0  0  0  0  0  0  0  0  0  0
    2.5486   -1.2039   11.9782 C   0  0  0  0  0  0  0  0  0  0  0  0
    1.2626   -1.4312   11.6555 N   0  0  0  0  0  0  0  0  0  0  0  0
    0.4123   -0.4548   11.3704 C   0  0  0  0  0  0  0  0  0  0  0  0
    0.8680    0.8459   11.4071 C   0  0  0  0  0  0  0  0  0  0  0  0
   -0.0797    1.8683   11.1273 N   0  0  0  0  0  0  0  0  0  0  0  0
   -1.0058    2.2699   12.1390 C   0  0  0  0  0  0  0  0  0  0  0  0
   -0.0350    2.4862    9.8650 C   0  0  0  0  0  0  0  0  0  0  0  0
   -0.8110    3.5185    9.6506 O   0  0  0  0  0  0  0  0  0  0  0  0
    0.7773    2.1404    8.6991 C   0  0  0  0  0  0  0  0  0  0  0  0
    2.2124    2.6263    8.9542 C   0  0  0  0  0  0  0  0  0  0  0  0
    0.3716    2.8034    7.4025 C   0  0  0  0  0  0  0  0  0  0  0  0
    0.8090    0.6806    8.4308 C   0  0  0  0  0  0  0  0  0  0  0  0
    1.9431    0.0195    8.0416 C   0  0  0  0  0  0  0  0  0  0  0  0
    1.9637   -1.3649    7.8120 C   0  0  0  0  0  0  0  0  0  0  0  0
    0.8069   -2.0816    7.9827 C   0  0  0  0  0  0  0  0  0  0  0  0
   -0.3392   -1.4502    8.3693 C   0  0  0  0  0  0  0  0  0  0  0  0
   -0.3327   -0.0975    8.5874 C   0  0  0  0  0  0  0  0  0  0  0  0
   -1.5769   -2.2875    8.5405 C   0  0  0  0  0  0  0  0  0  0  0  0
   -1.1978   -3.4660    9.1716 F   0  0  0  0  0  0  0  0  0  0  0  0
   -2.4300   -1.5371    9.3376 F   0  0  0  0  0  0  0  0  0  0  0  0
   -2.1360   -2.5389    7.3019 F   0  0  0  0  0  0  0  0  0  0  0  0
    3.1996   -2.0650    7.3920 C   0  0  0  0  0  0  0  0  0  0  0  0
    4.2166   -1.1592    7.0953 F   0  0  0  0  0  0  0  0  0  0  0  0
    3.6170   -2.9754    8.3424 F   0  0  0  0  0  0  0  0  0  0  0  0
    2.9534   -2.7833    6.2200 F   0  0  0  0  0  0  0  0  0  0  0  0
    3.4049   -2.2752   12.2733 N   0  0  0  0  0  0  0  0  0  0  0  0
    2.9552   -3.6362   12.1517 C   0  0  0  0  0  0  0  0  0  0  0  0
    4.1201   -4.5124   12.6269 C   0  0  0  0  0  0  0  0  0  0  0  0
    5.3432   -4.2277   11.9534 N   0  0  0  0  0  0  0  0  0  0  0  0
    5.6449   -2.8269   11.7749 C   0  0  0  0  0  0  0  0  0  0  0  0
    4.7541   -2.0309   12.7026 C   0  0  0  0  0  0  0  0  0  0  0  0
    6.4640   -4.8165   12.6608 C   0  0  0  0  0  0  0  0  0  0  0  0
  1  2  1  0
  2  3  2  0
  3  4  1  0
  4  5  2  0
  5  6  1  0
  6  7  2  0
  7  8  1  0
  8  9  2  0
  9 10  1  0
 10 11  2  0
 11 12  1  0
 12 13  2  0
 13 14  1  0
 14 15  1  0
 14 16  1  0
 16 17  2  0
 16 18  1  0
 18 19  1  0
 18 20  1  0
 18 21  1  0
 21 22  2  0
 22 23  1  0
 23 24  2  0
 24 25  1  0
 25 26  2  0
 25 27  1  0
 27 28  1  0
 27 29  1  0
 27 30  1  0
 23 31  1  0
 31 32  1  0
 31 33  1  0
 31 34  1  0
 10 35  1  0
 35 36  1  0
 36 37  1  0
 37 38  1  0
 38 39  1  0
 39 40  1  0
 38 41  1  0
  7  2  1  0
 13  8  1  0
 26 21  1  0
 40 35  1  0
M  END
$$$$
