
     RDKit          3D

 41 44  0  0  0  0  0  0  0  0999 V2000
   -1.0861    0.7670    8.8453 C   0  0  0  0  0  0  0  0  0  0  0  0
   -0.9871    1.7701    9.9546 C   0  0  0  0  0  0  0  0  0  0  0  0
   -2.1927    2.4331   10.2221 C   0  0  0  0  0  0  0  0  0  0  0  0
   -2.1955    3.3833   11.2144 C   0  0  0  0  0  0  0  0  0  0  0  0
   -1.0468    3.6710   11.9206 C   0  0  0  0  0  0  0  0  0  0  0  0
    0.1214    3.0076   11.6400 C   0  0  0  0  0  0  0  0  0  0  0  0
    0.1762    2.0373   10.6454 C   0  0  0  0  0  0  0  0  0  0  0  0
    1.3640    1.3083   10.3243 C   0  0  0  0  0  0  0  0  0  0  0  0
    1.6216    0.1282   11.0210 C   0  0  0  0  0  0  0  0  0  0  0  0
    2.7570   -0.6393   10.7701 C   0  0  0  0  0  0  0  0  0  0  0  0
    3.6175   -0.2154    9.8268 N   0  0  0  0  0  0  0  0  0  0  0  0
    3.4271    0.8973    9.1316 C   0  0  0  0  0  0  0  0  0  0  0  0
    2.3000    1.6486    9.3883 C   0  0  0  0  0  0  0  0  0  0  0  0
    2.1126    2.8180    8.6014 N   0  0  0  0  0  0  0  0  0  0  0  0
    2.6225    4.0704    9.0640 C   0  0  0  0  0  0  0  0  0  0  0  0
    1.4672    2.6848    7.3594 C   0  0  0  0  0  0  0  0  0  0  0  0
    1.0214    3.7663    6.7716 O   0  0  0  0  0  0  0  0  0  0  0  0
    1.2008    1.4727    6.5857 C   0  0  0  0  0  0  0  0  0  0  0  0
    2.0701    1.5122    5.3193 C   0  0  0  0  0  0  0  0  0  0  0  0
   -0.2145    1.3229    6.0761 C   0  0  0  0  0  0  0  0  0  0  0  0
    1.5091    0.2297    7.3367 C   0  0  0  0  0  0  0  0  0  0  0  0
    2.7625   -0.3192    7.3854 C   0  0  0  0  0  0  0  0  0  0  0  0
    3.0442   -1.4833    8.1171 C   0  0  0  0  0  0  0  0  0  0  0  0
    2.0284   -2.0935    8.8074 C   0  0  0  0  0  0  0  0  0  0  0  0
    0.7688   -1.5702    8.7771 C   0  0  0  0  0  0  0  0  0  0  0  0
    0.5198   -0.4323    8.0554 C   0  0  0  0  0  0  0  0  0  0  0  0
   -0.3049   -2.2823    9.5532 C   0  0  0  0  0  0  0  0  0  0  0  0
   -1.1225   -1.3115   10.1191 F   0  0  0  0  0  0  0  0  0  0  0  0
   -0.9949   -3.0474    8.6235 F   0  0  0  0  0  0  0  0  0  0  0  0
    0.2789   -3.0745   10.5237 F   0  0  0  0  0  0  0  0  0  0  0  0
    4.4062   -2.0639    8.1601 C   0  0  0  0  0  0  0  0  0  0  0  0
    5.3234   -1.2487    7.4988 F   0  0  0  0  0  0  0  0  0  0  0  0
    4.8147   -2.3087    9.4561 F   0  0  0  0  0  0  0  0  0  0  0  0
    4.4118   -3.2904    7.4924 F   0  0  0  0  0  0  0  0  0  0  0  0
    3.0066   -1.8264   11.4746 N   0  0  0  0  0  0  0  0  0  0  0  0
    4.3071   -2.4408   11.4507 C   0  0  0  0  0  0  0  0  0  0  0  0
    4.1782   -3.7393   12.2554 C   0  0  0  0  0  0  0  0  0  0  0  0
    3.6401   -3.5365   13.5593 N   0  0  0  0  0  0  0  0  0  0  0  0
    2.5125   -2.6376   13.6352 C   0  0  0  0  0  0  0  0  0  0  0  0
    1.9627   -2.4520   12.2384 C   0  0  0  0  0  0  0  0  0  0  0  0
    3.2176   -4.7973   14.1385 C   0  0  0  0  0  0  0  0  0  0  0  0
  1  2  1  0
  2  3  2  0
  3  4  1  0
  4  5  2  0
  5  6  1  0
  6  7  2  0
  7  8  1  0
  8  9  2  0
  9 10  1  0
 10 11  2  0
 11 12  1  0
 12 13  2  0
 13 14  1  0
 14 15  1  0
 14 16  1  0
 16 17  2  0
 16 18  1  0
 18 19  1  0
 18 20  1  0
 18 21  1  0
 21 22  2  0
 22 23  1  0
 23 24  2  0
 24 25  1  0
 25 26  2  0
 25 27  1  0
 27 28  1  0
 27 29  1  0
 27 30  1  0
 23 31  1  0
 31 32  1  0
 31 33  1  0
 31 34  1  0
 10 35  1  0
 35 36  1  0
 36 37  1  0
 37 38  1  0
 38 39  1  0
 39 40  1  0
 38 41  1  0
  7  2  1  0
 13  8  1  0
 26 21  1  0
 40 35  1  0
M  END
$$$$
