
     RDKit          3D

 30 35  0  0  0  0  0  0  0  0999 V2000
   -3.2373   -0.8166    7.2381 C   0  0  0  0  0  0  0  0  0  0  0  0
   -2.0692   -0.2263    7.9774 C   0  0  0  0  0  0  0  0  0  0  0  0
   -2.1591   -0.4748    9.4685 C   0  0  0  0  0  0  0  0  0  0  0  0
   -0.7523   -0.2885   10.0205 C   0  0  0  0  0  0  0  0  0  0  0  0
   -0.1658    0.9167    9.3370 C   0  0  0  0  0  0  0  0  0  0  0  0
    0.5780    1.6008   10.4634 C   0  0  0  0  0  0  0  0  0  0  0  0
    0.4189    0.6300   11.5880 C   0  0  0  0  0  0  0  0  0  0  0  0
   -0.7491   -0.0562   11.3753 O   0  0  0  0  0  0  0  0  0  0  0  0
    1.6387   -0.2555   11.6727 C   0  0  0  0  0  0  0  0  0  0  0  0
    1.7375   -1.0331   12.9367 C   0  0  0  0  0  0  0  0  0  0  0  0
    0.7168   -0.6762   13.9648 C   0  0  0  0  0  0  0  0  0  0  0  0
    0.9766   -1.0554   15.3511 C   0  0  0  0  0  0  0  0  0  0  0  0
    1.8936   -2.2004   15.6113 C   0  0  0  0  0  0  0  0  0  0  0  0
    1.9438   -2.3689   17.0934 C   0  0  0  0  0  0  0  0  0  0  0  0
    1.8494   -1.3418   17.9297 C   0  0  0  0  0  0  0  0  0  0  0  0
    1.9110   -1.6242   19.3706 C   0  0  0  0  0  0  0  0  0  0  0  0
    1.0916   -0.6899   20.2135 C   0  0  0  0  0  0  0  0  0  0  0  0
    0.8879    0.6679   19.6466 C   0  0  0  0  0  0  0  0  0  0  0  0
    0.5157    0.6704   18.1764 C   0  0  0  0  0  0  0  0  0  0  0  0
    1.6873    0.0597   17.4401 C   0  0  0  0  0  0  0  0  0  0  0  0
    1.5930    0.1792   15.9703 C   0  0  0  0  0  0  0  0  0  0  0  0
    0.5797    1.2265   15.4847 C   0  0  0  0  0  0  0  0  0  0  0  0
    0.5427    0.8137   14.0370 C   0  0  0  0  0  0  0  0  0  0  0  0
    0.3998    1.4220   12.8690 C   0  0  0  0  0  0  0  0  0  0  0  0
    0.2210    2.8975   12.8624 C   0  0  0  0  0  0  0  0  0  0  0  0
    2.9698    0.7874   17.8733 C   0  0  0  0  0  0  0  0  0  0  0  0
   -0.1611   -1.2236   20.5457 O   0  0  0  0  0  0  0  0  0  0  0  0
    2.0149    1.8202   10.0472 C   0  0  0  0  0  0  0  0  0  0  0  0
   -1.1487    1.8127    8.8186 N   0  0  0  0  0  0  0  0  0  0  0  0
   -1.9516    1.2662    7.7694 C   0  0  0  0  0  0  0  0  0  0  0  0
  1  2  1  0
  2  3  1  0
  3  4  1  0
  4  5  1  0
  5  6  1  0
  6  7  1  0
  7  8  1  0
  7  9  1  0
  9 10  1  0
 10 11  1  0
 11 12  1  0
 12 13  1  0
 13 14  1  0
 14 15  2  0
 15 16  1  0
 16 17  1  0
 17 18  1  0
 18 19  1  0
 19 20  1  0
 20 21  1  0
 21 22  1  0
 22 23  1  0
 23 24  2  0
 24 25  1  0
 20 26  1  0
 17 27  1  0
  6 28  1  0
  5 29  1  0
 29 30  1  0
 30  2  1  0
  8  4  1  0
 24  7  1  0
 23 11  1  0
 21 12  1  0
 20 15  1  0
M  END
$$$$
