
     RDKit          3D

 30 35  0  0  0  0  0  0  0  0999 V2000
    3.3162    2.5173    7.4046 C   0  0  0  0  0  0  0  0  0  0  0  0
    2.2526    1.9487    8.3017 C   0  0  0  0  0  0  0  0  0  0  0  0
    2.7531    1.7492    9.7170 C   0  0  0  0  0  0  0  0  0  0  0  0
    1.5166    1.6551   10.6005 C   0  0  0  0  0  0  0  0  0  0  0  0
    0.5132    0.8073    9.8668 C   0  0  0  0  0  0  0  0  0  0  0  0
   -0.0809   -0.0303   10.9784 C   0  0  0  0  0  0  0  0  0  0  0  0
    0.5697    0.5441   12.1947 C   0  0  0  0  0  0  0  0  0  0  0  0
    1.7820    1.0555   11.8086 O   0  0  0  0  0  0  0  0  0  0  0  0
   -0.3465    1.5624   12.8294 C   0  0  0  0  0  0  0  0  0  0  0  0
    0.0484    1.9585   14.2075 C   0  0  0  0  0  0  0  0  0  0  0  0
    1.1696    1.1604   14.7839 C   0  0  0  0  0  0  0  0  0  0  0  0
    1.3472    1.1728   16.2335 C   0  0  0  0  0  0  0  0  0  0  0  0
    0.8199    2.3360   17.0008 C   0  0  0  0  0  0  0  0  0  0  0  0
    1.1673    2.0871   18.4308 C   0  0  0  0  0  0  0  0  0  0  0  0
    1.2107    0.8659   18.9502 C   0  0  0  0  0  0  0  0  0  0  0  0
    1.5647    0.7381   20.3707 C   0  0  0  0  0  0  0  0  0  0  0  0
    2.3142   -0.5195   20.7046 C   0  0  0  0  0  0  0  0  0  0  0  0
    2.0459   -1.6774   19.8136 C   0  0  0  0  0  0  0  0  0  0  0  0
    2.0441   -1.3293   18.3375 C   0  0  0  0  0  0  0  0  0  0  0  0
    0.9114   -0.3480   18.1334 C   0  0  0  0  0  0  0  0  0  0  0  0
    0.6201   -0.0638   16.7129 C   0  0  0  0  0  0  0  0  0  0  0  0
    1.2075   -1.0875   15.7298 C   0  0  0  0  0  0  0  0  0  0  0  0
    0.9948   -0.2969   14.4660 C   0  0  0  0  0  0  0  0  0  0  0  0
    0.7047   -0.5674   13.2021 C   0  0  0  0  0  0  0  0  0  0  0  0
    0.5189   -1.9898   12.8128 C   0  0  0  0  0  0  0  0  0  0  0  0
   -0.3659   -0.9412   18.7487 C   0  0  0  0  0  0  0  0  0  0  0  0
    3.7001   -0.3197   20.7660 O   0  0  0  0  0  0  0  0  0  0  0  0
   -1.5852    0.1215   10.9634 C   0  0  0  0  0  0  0  0  0  0  0  0
    1.1003   -0.0591    8.8961 N   0  0  0  0  0  0  0  0  0  0  0  0
    1.7357    0.6169    7.8082 C   0  0  0  0  0  0  0  0  0  0  0  0
  1  2  1  0
  2  3  1  0
  3  4  1  0
  4  5  1  0
  5  6  1  0
  6  7  1  0
  7  8  1  0
  7  9  1  0
  9 10  1  0
 10 11  1  0
 11 12  1  0
 12 13  1  0
 13 14  1  0
 14 15  2  0
 15 16  1  0
 16 17  1  0
 17 18  1  0
 18 19  1  0
 19 20  1  0
 20 21  1  0
 21 22  1  0
 22 23  1  0
 23 24  2  0
 24 25  1  0
 20 26  1  0
 17 27  1  0
  6 28  1  0
  5 29  1  0
 29 30  1  0
 30  2  1  0
  8  4  1  0
 24  7  1  0
 23 11  1  0
 21 12  1  0
 20 15  1  0
M  END
$$$$
