
     RDKit          3D

 30 35  0  0  0  0  0  0  0  0999 V2000
    2.7650   -4.7674   19.9760 C   0  0  0  0  0  0  0  0  0  0  0  0
    2.2543   -3.4197   19.5489 C   0  0  0  0  0  0  0  0  0  0  0  0
    2.4184   -3.1983   18.0598 C   0  0  0  0  0  0  0  0  0  0  0  0
    1.4590   -2.0771   17.6841 C   0  0  0  0  0  0  0  0  0  0  0  0
    1.5469   -1.0386   18.7692 C   0  0  0  0  0  0  0  0  0  0  0  0
    1.4943    0.2558   17.9870 C   0  0  0  0  0  0  0  0  0  0  0  0
    1.2560   -0.2230   16.5918 C   0  0  0  0  0  0  0  0  0  0  0  0
    1.7940   -1.4803   16.4921 O   0  0  0  0  0  0  0  0  0  0  0  0
   -0.2198   -0.1655   16.2788 C   0  0  0  0  0  0  0  0  0  0  0  0
   -0.5395   -0.3063   14.8331 C   0  0  0  0  0  0  0  0  0  0  0  0
    0.6503   -0.3053   13.9328 C   0  0  0  0  0  0  0  0  0  0  0  0
    0.4401   -0.0140   12.5171 C   0  0  0  0  0  0  0  0  0  0  0  0
   -0.9063   -0.2730   11.9340 C   0  0  0  0  0  0  0  0  0  0  0  0
   -0.8134    0.0869   10.4885 C   0  0  0  0  0  0  0  0  0  0  0  0
   -0.0356    1.0690   10.0485 C   0  0  0  0  0  0  0  0  0  0  0  0
   -0.0217    1.3363    8.6035 C   0  0  0  0  0  0  0  0  0  0  0  0
    1.2970    1.8331    8.0850 C   0  0  0  0  0  0  0  0  0  0  0  0
    2.1328    2.5687    9.0684 C   0  0  0  0  0  0  0  0  0  0  0  0
    2.2120    1.9016   10.4281 C   0  0  0  0  0  0  0  0  0  0  0  0
    0.8025    1.8854   10.9765 C   0  0  0  0  0  0  0  0  0  0  0  0
    0.7201    1.4670   12.3914 C   0  0  0  0  0  0  0  0  0  0  0  0
    2.0560    1.5267   13.1473 C   0  0  0  0  0  0  0  0  0  0  0  0
    1.6337    0.7450   14.3631 C   0  0  0  0  0  0  0  0  0  0  0  0
    1.9097    0.7620   15.6585 C   0  0  0  0  0  0  0  0  0  0  0  0
    2.8769    1.7744   16.1576 C   0  0  0  0  0  0  0  0  0  0  0  0
    0.2280    3.3082   10.8899 C   0  0  0  0  0  0  0  0  0  0  0  0
    2.0730    0.8111    7.5212 O   0  0  0  0  0  0  0  0  0  0  0  0
    0.3800    1.1197   18.5329 C   0  0  0  0  0  0  0  0  0  0  0  0
    2.7686   -1.0861   19.5060 N   0  0  0  0  0  0  0  0  0  0  0  0
    2.9580   -2.2864   20.2594 C   0  0  0  0  0  0  0  0  0  0  0  0
  1  2  1  0
  2  3  1  0
  3  4  1  0
  4  5  1  0
  5  6  1  0
  6  7  1  0
  7  8  1  0
  7  9  1  0
  9 10  1  0
 10 11  1  0
 11 12  1  0
 12 13  1  0
 13 14  1  0
 14 15  2  0
 15 16  1  0
 16 17  1  0
 17 18  1  0
 18 19  1  0
 19 20  1  0
 20 21  1  0
 21 22  1  0
 22 23  1  0
 23 24  2  0
 24 25  1  0
 20 26  1  0
 17 27  1  0
  6 28  1  0
  5 29  1  0
 29 30  1  0
 30  2  1  0
  8  4  1  0
 24  7  1  0
 23 11  1  0
 21 12  1  0
 20 15  1  0
M  END
$$$$
