
     RDKit          3D

 30 35  0  0  0  0  0  0  0  0999 V2000
    3.8255    3.6140    6.1293 C   0  0  0  0  0  0  0  0  0  0  0  0
    2.7211    2.9910    6.9366 C   0  0  0  0  0  0  0  0  0  0  0  0
    3.1976    2.5558    8.3066 C   0  0  0  0  0  0  0  0  0  0  0  0
    1.9513    2.4145    9.1699 C   0  0  0  0  0  0  0  0  0  0  0  0
    0.9006    1.7493    8.3230 C   0  0  0  0  0  0  0  0  0  0  0  0
    0.2458    0.7992    9.3021 C   0  0  0  0  0  0  0  0  0  0  0  0
    0.9235    1.1472   10.5875 C   0  0  0  0  0  0  0  0  0  0  0  0
    2.1689    1.6296   10.2771 O   0  0  0  0  0  0  0  0  0  0  0  0
    0.0704    2.1196   11.3660 C   0  0  0  0  0  0  0  0  0  0  0  0
    0.4803    2.2846   12.7861 C   0  0  0  0  0  0  0  0  0  0  0  0
    1.5435    1.3401   13.2374 C   0  0  0  0  0  0  0  0  0  0  0  0
    1.7113    1.1300   14.6730 C   0  0  0  0  0  0  0  0  0  0  0  0
    1.2547    2.2009   15.6027 C   0  0  0  0  0  0  0  0  0  0  0  0
    1.5751    1.7247   16.9805 C   0  0  0  0  0  0  0  0  0  0  0  0
    1.5359    0.4406   17.3163 C   0  0  0  0  0  0  0  0  0  0  0  0
    1.8709    0.0848   18.7023 C   0  0  0  0  0  0  0  0  0  0  0  0
    2.5353   -1.2538   18.8477 C   0  0  0  0  0  0  0  0  0  0  0  0
    2.1993   -2.2500   17.7982 C   0  0  0  0  0  0  0  0  0  0  0  0
    2.2304   -1.6914   16.3885 C   0  0  0  0  0  0  0  0  0  0  0  0
    1.1648   -0.6195   16.3322 C   0  0  0  0  0  0  0  0  0  0  0  0
    0.9025   -0.1134   14.9689 C   0  0  0  0  0  0  0  0  0  0  0  0
    1.4296   -1.0191   13.8459 C   0  0  0  0  0  0  0  0  0  0  0  0
    1.2773   -0.0410   12.7111 C   0  0  0  0  0  0  0  0  0  0  0  0
    0.9794   -0.1054   11.4220 C   0  0  0  0  0  0  0  0  0  0  0  0
    0.7050   -1.4409   10.8302 C   0  0  0  0  0  0  0  0  0  0  0  0
   -0.1524   -1.2119   16.8576 C   0  0  0  0  0  0  0  0  0  0  0  0
    3.9307   -1.1554   18.9342 O   0  0  0  0  0  0  0  0  0  0  0  0
   -1.2454    1.0488    9.3129 C   0  0  0  0  0  0  0  0  0  0  0  0
    1.4374    0.9972    7.2351 N   0  0  0  0  0  0  0  0  0  0  0  0
    2.1228    1.7815    6.2556 C   0  0  0  0  0  0  0  0  0  0  0  0
  1  2  1  0
  2  3  1  0
  3  4  1  0
  4  5  1  0
  5  6  1  0
  6  7  1  0
  7  8  1  0
  7  9  1  0
  9 10  1  0
 10 11  1  0
 11 12  1  0
 12 13  1  0
 13 14  1  0
 14 15  2  0
 15 16  1  0
 16 17  1  0
 17 18  1  0
 18 19  1  0
 19 20  1  0
 20 21  1  0
 21 22  1  0
 22 23  1  0
 23 24  2  0
 24 25  1  0
 20 26  1  0
 17 27  1  0
  6 28  1  0
  5 29  1  0
 29 30  1  0
 30  2  1  0
  8  4  1  0
 24  7  1  0
 23 11  1  0
 21 12  1  0
 20 15  1  0
M  END
$$$$
