
     RDKit          3D

 30 35  0  0  0  0  0  0  0  0999 V2000
    2.2775    3.8518    8.0597 C   0  0  0  0  0  0  0  0  0  0  0  0
    1.6656    2.6397    8.7046 C   0  0  0  0  0  0  0  0  0  0  0  0
    2.0714    2.5060   10.1575 C   0  0  0  0  0  0  0  0  0  0  0  0
    1.0469    1.5854   10.8065 C   0  0  0  0  0  0  0  0  0  0  0  0
    0.7785    0.4685    9.8347 C   0  0  0  0  0  0  0  0  0  0  0  0
    0.6859   -0.7386   10.7426 C   0  0  0  0  0  0  0  0  0  0  0  0
    0.7848   -0.1253   12.1015 C   0  0  0  0  0  0  0  0  0  0  0  0
    1.5087    1.0326   11.9772 O   0  0  0  0  0  0  0  0  0  0  0  0
   -0.5988    0.0795   12.6697 C   0  0  0  0  0  0  0  0  0  0  0  0
   -0.6186    0.3771   14.1268 C   0  0  0  0  0  0  0  0  0  0  0  0
    0.7057    0.2510   14.8026 C   0  0  0  0  0  0  0  0  0  0  0  0
    0.7240    0.1035   16.2556 C   0  0  0  0  0  0  0  0  0  0  0  0
   -0.4374    0.6190   17.0335 C   0  0  0  0  0  0  0  0  0  0  0  0
   -0.1290    0.3573   18.4702 C   0  0  0  0  0  0  0  0  0  0  0  0
    0.5664   -0.7020   18.8669 C   0  0  0  0  0  0  0  0  0  0  0  0
    0.8114   -0.8600   20.3073 C   0  0  0  0  0  0  0  0  0  0  0  0
    2.1175   -1.5231   20.6376 C   0  0  0  0  0  0  0  0  0  0  0  0
    2.6387   -2.4549   19.6047 C   0  0  0  0  0  0  0  0  0  0  0  0
    2.5582   -1.9122   18.1908 C   0  0  0  0  0  0  0  0  0  0  0  0
    1.0885   -1.7096   17.8963 C   0  0  0  0  0  0  0  0  0  0  0  0
    0.8046   -1.3897   16.4818 C   0  0  0  0  0  0  0  0  0  0  0  0
    1.9524   -1.7203   15.5160 C   0  0  0  0  0  0  0  0  0  0  0  0
    1.4282   -0.9732   14.3182 C   0  0  0  0  0  0  0  0  0  0  0  0
    1.4515   -1.1308   13.0032 C   0  0  0  0  0  0  0  0  0  0  0  0
    2.1509   -2.3202   12.4504 C   0  0  0  0  0  0  0  0  0  0  0  0
    0.3400   -3.0107   18.2264 C   0  0  0  0  0  0  0  0  0  0  0  0
    3.1252   -0.6007   20.9507 O   0  0  0  0  0  0  0  0  0  0  0  0
   -0.6243   -1.4496   10.4894 C   0  0  0  0  0  0  0  0  0  0  0  0
    1.8345    0.2634    8.8964 N   0  0  0  0  0  0  0  0  0  0  0  0
    2.0519    1.3581    8.0027 C   0  0  0  0  0  0  0  0  0  0  0  0
  1  2  1  0
  2  3  1  0
  3  4  1  0
  4  5  1  0
  5  6  1  0
  6  7  1  0
  7  8  1  0
  7  9  1  0
  9 10  1  0
 10 11  1  0
 11 12  1  0
 12 13  1  0
 13 14  1  0
 14 15  2  0
 15 16  1  0
 16 17  1  0
 17 18  1  0
 18 19  1  0
 19 20  1  0
 20 21  1  0
 21 22  1  0
 22 23  1  0
 23 24  2  0
 24 25  1  0
 20 26  1  0
 17 27  1  0
  6 28  1  0
  5 29  1  0
 29 30  1  0
 30  2  1  0
  8  4  1  0
 24  7  1  0
 23 11  1  0
 21 12  1  0
 20 15  1  0
M  END
$$$$
