
     RDKit          3D

 30 35  0  0  0  0  0  0  0  0999 V2000
    3.1958    3.0851    7.7011 C   0  0  0  0  0  0  0  0  0  0  0  0
    2.1728    2.3592    8.5293 C   0  0  0  0  0  0  0  0  0  0  0  0
    2.7143    1.9780    9.8912 C   0  0  0  0  0  0  0  0  0  0  0  0
    1.5036    1.7175   10.7771 C   0  0  0  0  0  0  0  0  0  0  0  0
    0.5087    0.9489    9.9505 C   0  0  0  0  0  0  0  0  0  0  0  0
   -0.0316   -0.0576   10.9430 C   0  0  0  0  0  0  0  0  0  0  0  0
    0.6312    0.3601   12.2154 C   0  0  0  0  0  0  0  0  0  0  0  0
    1.8172    0.9618   11.8816 O   0  0  0  0  0  0  0  0  0  0  0  0
   -0.2997    1.2464   13.0074 C   0  0  0  0  0  0  0  0  0  0  0  0
    0.1171    1.4560   14.4195 C   0  0  0  0  0  0  0  0  0  0  0  0
    1.2762    0.6226   14.8533 C   0  0  0  0  0  0  0  0  0  0  0  0
    1.4894    0.4352   16.2860 C   0  0  0  0  0  0  0  0  0  0  0  0
    0.9460    1.4592   17.2219 C   0  0  0  0  0  0  0  0  0  0  0  0
    1.3364    1.0217   18.5944 C   0  0  0  0  0  0  0  0  0  0  0  0
    1.4300   -0.2588   18.9333 C   0  0  0  0  0  0  0  0  0  0  0  0
    1.8231   -0.5748   20.3136 C   0  0  0  0  0  0  0  0  0  0  0  0
    2.6188   -1.8409   20.4494 C   0  0  0  0  0  0  0  0  0  0  0  0
    2.3641   -2.8690   19.4079 C   0  0  0  0  0  0  0  0  0  0  0  0
    2.3148   -2.3152   17.9969 C   0  0  0  0  0  0  0  0  0  0  0  0
    1.1479   -1.3538   17.9579 C   0  0  0  0  0  0  0  0  0  0  0  0
    0.8127   -0.8809   16.5987 C   0  0  0  0  0  0  0  0  0  0  0  0
    1.4065   -1.7342   15.4679 C   0  0  0  0  0  0  0  0  0  0  0  0
    1.1383   -0.7799   14.3343 C   0  0  0  0  0  0  0  0  0  0  0  0
    0.8252   -0.8779   13.0510 C   0  0  0  0  0  0  0  0  0  0  0  0
    0.6734   -2.2361   12.4665 C   0  0  0  0  0  0  0  0  0  0  0  0
   -0.0949   -2.0713   18.5081 C   0  0  0  0  0  0  0  0  0  0  0  0
    3.9990   -1.6050   20.5104 O   0  0  0  0  0  0  0  0  0  0  0  0
   -1.5397    0.0437   10.9804 C   0  0  0  0  0  0  0  0  0  0  0  0
    1.0977    0.2495    8.8545 N   0  0  0  0  0  0  0  0  0  0  0  0
    1.6847    1.0942    7.8614 C   0  0  0  0  0  0  0  0  0  0  0  0
  1  2  1  0
  2  3  1  0
  3  4  1  0
  4  5  1  0
  5  6  1  0
  6  7  1  0
  7  8  1  0
  7  9  1  0
  9 10  1  0
 10 11  1  0
 11 12  1  0
 12 13  1  0
 13 14  1  0
 14 15  2  0
 15 16  1  0
 16 17  1  0
 17 18  1  0
 18 19  1  0
 19 20  1  0
 20 21  1  0
 21 22  1  0
 22 23  1  0
 23 24  2  0
 24 25  1  0
 20 26  1  0
 17 27  1  0
  6 28  1  0
  5 29  1  0
 29 30  1  0
 30  2  1  0
  8  4  1  0
 24  7  1  0
 23 11  1  0
 21 12  1  0
 20 15  1  0
M  END
$$$$
