
     RDKit          3D

 30 35  0  0  0  0  0  0  0  0999 V2000
    3.9213    1.2497   22.0631 C   0  0  0  0  0  0  0  0  0  0  0  0
    2.8753    0.7294   21.1173 C   0  0  0  0  0  0  0  0  0  0  0  0
    3.1212    1.1865   19.6946 C   0  0  0  0  0  0  0  0  0  0  0  0
    2.3382    0.2376   18.7973 C   0  0  0  0  0  0  0  0  0  0  0  0
    1.0058    0.0052   19.4564 C   0  0  0  0  0  0  0  0  0  0  0  0
    0.0545    0.0107   18.2796 C   0  0  0  0  0  0  0  0  0  0  0  0
    0.9856    0.1152   17.1157 C   0  0  0  0  0  0  0  0  0  0  0  0
    2.1120    0.7663   17.5489 O   0  0  0  0  0  0  0  0  0  0  0  0
    1.2552   -1.2600   16.5541 C   0  0  0  0  0  0  0  0  0  0  0  0
    1.8990   -1.2525   15.2134 C   0  0  0  0  0  0  0  0  0  0  0  0
    2.0071    0.0968   14.5859 C   0  0  0  0  0  0  0  0  0  0  0  0
    2.2206    0.1681   13.1428 C   0  0  0  0  0  0  0  0  0  0  0  0
    2.8532   -0.9971   12.4630 C   0  0  0  0  0  0  0  0  0  0  0  0
    2.9664   -0.6302   11.0208 C   0  0  0  0  0  0  0  0  0  0  0  0
    2.0717    0.1375   10.4097 C   0  0  0  0  0  0  0  0  0  0  0  0
    2.2832    0.4351    8.9862 C   0  0  0  0  0  0  0  0  0  0  0  0
    1.7859    1.7871    8.5624 C   0  0  0  0  0  0  0  0  0  0  0  0
    0.6564    2.3299    9.3601 C   0  0  0  0  0  0  0  0  0  0  0  0
    0.8320    2.1747   10.8585 C   0  0  0  0  0  0  0  0  0  0  0  0
    0.8841    0.6875   11.1288 C   0  0  0  0  0  0  0  0  0  0  0  0
    0.8339    0.3424   12.5647 C   0  0  0  0  0  0  0  0  0  0  0  0
    0.3338    1.4774   13.4708 C   0  0  0  0  0  0  0  0  0  0  0  0
    0.7385    0.8742   14.7899 C   0  0  0  0  0  0  0  0  0  0  0  0
    0.2653    0.8666   16.0271 C   0  0  0  0  0  0  0  0  0  0  0  0
   -0.9875    1.6167   16.3049 C   0  0  0  0  0  0  0  0  0  0  0  0
   -0.3317    0.0264   10.4604 C   0  0  0  0  0  0  0  0  0  0  0  0
    2.8051    2.7485    8.5269 O   0  0  0  0  0  0  0  0  0  0  0  0
   -0.7602   -1.2630   18.2950 C   0  0  0  0  0  0  0  0  0  0  0  0
    0.6294    1.0421   20.3622 N   0  0  0  0  0  0  0  0  0  0  0  0
    1.4814    1.1680   21.5034 C   0  0  0  0  0  0  0  0  0  0  0  0
  1  2  1  0
  2  3  1  0
  3  4  1  0
  4  5  1  0
  5  6  1  0
  6  7  1  0
  7  8  1  0
  7  9  1  0
  9 10  1  0
 10 11  1  0
 11 12  1  0
 12 13  1  0
 13 14  1  0
 14 15  2  0
 15 16  1  0
 16 17  1  0
 17 18  1  0
 18 19  1  0
 19 20  1  0
 20 21  1  0
 21 22  1  0
 22 23  1  0
 23 24  2  0
 24 25  1  0
 20 26  1  0
 17 27  1  0
  6 28  1  0
  5 29  1  0
 29 30  1  0
 30  2  1  0
  8  4  1  0
 24  7  1  0
 23 11  1  0
 21 12  1  0
 20 15  1  0
M  END
$$$$
