
     RDKit          3D

 30 35  0  0  0  0  0  0  0  0999 V2000
   -1.2642    1.9511   21.7366 C   0  0  0  0  0  0  0  0  0  0  0  0
   -0.3187    1.2007   20.8409 C   0  0  0  0  0  0  0  0  0  0  0  0
   -0.6465    1.4023   19.3763 C   0  0  0  0  0  0  0  0  0  0  0  0
    0.6100    1.0318   18.6000 C   0  0  0  0  0  0  0  0  0  0  0  0
    1.1747   -0.2075   19.2395 C   0  0  0  0  0  0  0  0  0  0  0  0
    1.6258   -1.0157   18.0422 C   0  0  0  0  0  0  0  0  0  0  0  0
    1.3745   -0.0755   16.9084 C   0  0  0  0  0  0  0  0  0  0  0  0
    0.3453    0.7504   17.2809 O   0  0  0  0  0  0  0  0  0  0  0  0
    2.6485    0.6571   16.5625 C   0  0  0  0  0  0  0  0  0  0  0  0
    2.6035    1.3700   15.2580 C   0  0  0  0  0  0  0  0  0  0  0  0
    1.3825    1.0972   14.4450 C   0  0  0  0  0  0  0  0  0  0  0  0
    1.4295    1.3913   13.0151 C   0  0  0  0  0  0  0  0  0  0  0  0
    2.4042    2.4104   12.5344 C   0  0  0  0  0  0  0  0  0  0  0  0
    2.2063    2.5165   11.0588 C   0  0  0  0  0  0  0  0  0  0  0  0
    1.8526    1.4771   10.3120 C   0  0  0  0  0  0  0  0  0  0  0  0
    1.6855    1.6963    8.8685 C   0  0  0  0  0  0  0  0  0  0  0  0
    0.6317    0.8339    8.2357 C   0  0  0  0  0  0  0  0  0  0  0  0
    0.3862   -0.4686    8.9065 C   0  0  0  0  0  0  0  0  0  0  0  0
    0.2853   -0.3726   10.4167 C   0  0  0  0  0  0  0  0  0  0  0  0
    1.6291    0.1236   10.9020 C   0  0  0  0  0  0  0  0  0  0  0  0
    1.7871    0.0708   12.3703 C   0  0  0  0  0  0  0  0  0  0  0  0
    0.7692   -0.8316   13.0838 C   0  0  0  0  0  0  0  0  0  0  0  0
    1.0371   -0.3636   14.4898 C   0  0  0  0  0  0  0  0  0  0  0  0
    1.0403   -0.9070   15.6978 C   0  0  0  0  0  0  0  0  0  0  0  0
    0.7061   -2.3501   15.8201 C   0  0  0  0  0  0  0  0  0  0  0  0
    2.7264   -0.7652   10.2952 C   0  0  0  0  0  0  0  0  0  0  0  0
   -0.5946    1.4980    8.0960 O   0  0  0  0  0  0  0  0  0  0  0  0
    3.0815   -1.3864   18.2146 C   0  0  0  0  0  0  0  0  0  0  0  0
    0.2089   -0.9620   19.9712 N   0  0  0  0  0  0  0  0  0  0  0  0
   -0.3289   -0.2864   21.1108 C   0  0  0  0  0  0  0  0  0  0  0  0
  1  2  1  0
  2  3  1  0
  3  4  1  0
  4  5  1  0
  5  6  1  0
  6  7  1  0
  7  8  1  0
  7  9  1  0
  9 10  1  0
 10 11  1  0
 11 12  1  0
 12 13  1  0
 13 14  1  0
 14 15  2  0
 15 16  1  0
 16 17  1  0
 17 18  1  0
 18 19  1  0
 19 20  1  0
 20 21  1  0
 21 22  1  0
 22 23  1  0
 23 24  2  0
 24 25  1  0
 20 26  1  0
 17 27  1  0
  6 28  1  0
  5 29  1  0
 29 30  1  0
 30  2  1  0
  8  4  1  0
 24  7  1  0
 23 11  1  0
 21 12  1  0
 20 15  1  0
M  END
$$$$
