
     RDKit          3D

 30 35  0  0  0  0  0  0  0  0999 V2000
   -0.7669   -2.8101   17.1309 C   0  0  0  0  0  0  0  0  0  0  0  0
    0.0245   -1.6815   16.5315 C   0  0  0  0  0  0  0  0  0  0  0  0
    0.0887   -1.7748   15.0213 C   0  0  0  0  0  0  0  0  0  0  0  0
    0.4589   -0.3853   14.5206 C   0  0  0  0  0  0  0  0  0  0  0  0
    1.5235    0.1467   15.4411 C   0  0  0  0  0  0  0  0  0  0  0  0
    2.4655    0.8425   14.4827 C   0  0  0  0  0  0  0  0  0  0  0  0
    1.7440    0.7208   13.1799 C   0  0  0  0  0  0  0  0  0  0  0  0
    0.9688   -0.4085   13.2443 O   0  0  0  0  0  0  0  0  0  0  0  0
    0.9602    1.9830   12.9119 C   0  0  0  0  0  0  0  0  0  0  0  0
    0.4700    2.1075   11.5133 C   0  0  0  0  0  0  0  0  0  0  0  0
    0.9803    1.0590   10.5826 C   0  0  0  0  0  0  0  0  0  0  0  0
    0.9130    1.3227    9.1476 C   0  0  0  0  0  0  0  0  0  0  0  0
   -0.1033    2.2937    8.6538 C   0  0  0  0  0  0  0  0  0  0  0  0
    0.0444    2.3364    7.1692 C   0  0  0  0  0  0  0  0  0  0  0  0
    1.2172    2.1811    6.5662 C   0  0  0  0  0  0  0  0  0  0  0  0
    1.2456    2.2413    5.0981 C   0  0  0  0  0  0  0  0  0  0  0  0
    2.2915    1.3666    4.4692 C   0  0  0  0  0  0  0  0  0  0  0  0
    3.4885    1.1003    5.3075 C   0  0  0  0  0  0  0  0  0  0  0  0
    3.1646    0.7444    6.7457 C   0  0  0  0  0  0  0  0  0  0  0  0
    2.4751    1.9533    7.3380 C   0  0  0  0  0  0  0  0  0  0  0  0
    2.2800    1.8689    8.8003 C   0  0  0  0  0  0  0  0  0  0  0  0
    3.1487    0.8091    9.4941 C   0  0  0  0  0  0  0  0  0  0  0  0
    2.4413    0.8087   10.8235 C   0  0  0  0  0  0  0  0  0  0  0  0
    2.7840    0.6477   12.0929 C   0  0  0  0  0  0  0  0  0  0  0  0
    4.2143    0.3943   12.4079 C   0  0  0  0  0  0  0  0  0  0  0  0
    3.3428    3.1924    7.0667 C   0  0  0  0  0  0  0  0  0  0  0  0
    1.7747    0.1390    4.0326 O   0  0  0  0  0  0  0  0  0  0  0  0
    2.6673    2.2709   14.9357 C   0  0  0  0  0  0  0  0  0  0  0  0
    2.2392   -0.8748   16.1353 N   0  0  0  0  0  0  0  0  0  0  0  0
    1.4447   -1.6376   17.0470 C   0  0  0  0  0  0  0  0  0  0  0  0
  1  2  1  0
  2  3  1  0
  3  4  1  0
  4  5  1  0
  5  6  1  0
  6  7  1  0
  7  8  1  0
  7  9  1  0
  9 10  1  0
 10 11  1  0
 11 12  1  0
 12 13  1  0
 13 14  1  0
 14 15  2  0
 15 16  1  0
 16 17  1  0
 17 18  1  0
 18 19  1  0
 19 20  1  0
 20 21  1  0
 21 22  1  0
 22 23  1  0
 23 24  2  0
 24 25  1  0
 20 26  1  0
 17 27  1  0
  6 28  1  0
  5 29  1  0
 29 30  1  0
 30  2  1  0
  8  4  1  0
 24  7  1  0
 23 11  1  0
 21 12  1  0
 20 15  1  0
M  END
$$$$
