
     RDKit          3D

 30 35  0  0  0  0  0  0  0  0999 V2000
    3.1748    3.1998    7.4339 C   0  0  0  0  0  0  0  0  0  0  0  0
    2.1823    2.3964    8.2267 C   0  0  0  0  0  0  0  0  0  0  0  0
    2.6435    2.1743    9.6520 C   0  0  0  0  0  0  0  0  0  0  0  0
    1.4011    1.8099   10.4535 C   0  0  0  0  0  0  0  0  0  0  0  0
    0.5901    0.8670    9.6067 C   0  0  0  0  0  0  0  0  0  0  0  0
    0.0953   -0.1398   10.6223 C   0  0  0  0  0  0  0  0  0  0  0  0
    0.5828    0.4390   11.9106 C   0  0  0  0  0  0  0  0  0  0  0  0
    1.7079    1.1715   11.6314 O   0  0  0  0  0  0  0  0  0  0  0  0
   -0.5203    1.2405   12.5586 C   0  0  0  0  0  0  0  0  0  0  0  0
   -0.2619    1.5895   13.9810 C   0  0  0  0  0  0  0  0  0  0  0  0
    0.9501    0.9455   14.5663 C   0  0  0  0  0  0  0  0  0  0  0  0
    1.0560    0.8758   16.0213 C   0  0  0  0  0  0  0  0  0  0  0  0
    0.3052    1.8738   16.8337 C   0  0  0  0  0  0  0  0  0  0  0  0
    0.6233    1.5767   18.2614 C   0  0  0  0  0  0  0  0  0  0  0  0
    0.8481    0.3431   18.6982 C   0  0  0  0  0  0  0  0  0  0  0  0
    1.1528    0.1669   20.1250 C   0  0  0  0  0  0  0  0  0  0  0  0
    2.0875   -0.9717   20.4159 C   0  0  0  0  0  0  0  0  0  0  0  0
    2.0599   -2.0862   19.4342 C   0  0  0  0  0  0  0  0  0  0  0  0
    2.0675   -1.6309   17.9875 C   0  0  0  0  0  0  0  0  0  0  0  0
    0.7960   -0.8372   17.7849 C   0  0  0  0  0  0  0  0  0  0  0  0
    0.5268   -0.4969   16.3724 C   0  0  0  0  0  0  0  0  0  0  0  0
    1.3232   -1.3312   15.3580 C   0  0  0  0  0  0  0  0  0  0  0  0
    1.0386   -0.4919   14.1405 C   0  0  0  0  0  0  0  0  0  0  0  0
    0.8569   -0.7089   12.8464 C   0  0  0  0  0  0  0  0  0  0  0  0
    0.9320   -2.1083   12.3512 C   0  0  0  0  0  0  0  0  0  0  0  0
   -0.3898   -1.6785   18.2830 C   0  0  0  0  0  0  0  0  0  0  0  0
    3.4155   -0.5513   20.5713 O   0  0  0  0  0  0  0  0  0  0  0  0
   -1.4107   -0.2376   10.5300 C   0  0  0  0  0  0  0  0  0  0  0  0
    1.3591    0.1864    8.6153 N   0  0  0  0  0  0  0  0  0  0  0  0
    1.9208    1.0393    7.6146 C   0  0  0  0  0  0  0  0  0  0  0  0
  1  2  1  0
  2  3  1  0
  3  4  1  0
  4  5  1  0
  5  6  1  0
  6  7  1  0
  7  8  1  0
  7  9  1  0
  9 10  1  0
 10 11  1  0
 11 12  1  0
 12 13  1  0
 13 14  1  0
 14 15  2  0
 15 16  1  0
 16 17  1  0
 17 18  1  0
 18 19  1  0
 19 20  1  0
 20 21  1  0
 21 22  1  0
 22 23  1  0
 23 24  2  0
 24 25  1  0
 20 26  1  0
 17 27  1  0
  6 28  1  0
  5 29  1  0
 29 30  1  0
 30  2  1  0
  8  4  1  0
 24  7  1  0
 23 11  1  0
 21 12  1  0
 20 15  1  0
M  END
$$$$
