
     RDKit          3D

 30 35  0  0  0  0  0  0  0  0999 V2000
   -2.6189   -0.3344    7.4625 C   0  0  0  0  0  0  0  0  0  0  0  0
   -1.4895    0.2072    8.2933 C   0  0  0  0  0  0  0  0  0  0  0  0
   -1.6616   -0.1169    9.7626 C   0  0  0  0  0  0  0  0  0  0  0  0
   -0.2858    0.0291   10.3986 C   0  0  0  0  0  0  0  0  0  0  0  0
    0.3436    1.2629    9.8110 C   0  0  0  0  0  0  0  0  0  0  0  0
    1.0289    1.8819   11.0099 C   0  0  0  0  0  0  0  0  0  0  0  0
    0.8036    0.8558   12.0724 C   0  0  0  0  0  0  0  0  0  0  0  0
   -0.3548    0.1912   11.7617 O   0  0  0  0  0  0  0  0  0  0  0  0
    2.0121   -0.0430   12.1768 C   0  0  0  0  0  0  0  0  0  0  0  0
    2.0379   -0.8854   13.4023 C   0  0  0  0  0  0  0  0  0  0  0  0
    0.9648   -0.5733   14.3909 C   0  0  0  0  0  0  0  0  0  0  0  0
    1.1468   -1.0255   15.7677 C   0  0  0  0  0  0  0  0  0  0  0  0
    2.0420   -2.1900   16.0172 C   0  0  0  0  0  0  0  0  0  0  0  0
    2.0108   -2.4349   17.4892 C   0  0  0  0  0  0  0  0  0  0  0  0
    1.8768   -1.4515   18.3713 C   0  0  0  0  0  0  0  0  0  0  0  0
    1.8585   -1.8082   19.7968 C   0  0  0  0  0  0  0  0  0  0  0  0
    0.9998   -0.9118   20.6416 C   0  0  0  0  0  0  0  0  0  0  0  0
    0.8346    0.4751   20.1357 C   0  0  0  0  0  0  0  0  0  0  0  0
    0.5428    0.5563   18.6497 C   0  0  0  0  0  0  0  0  0  0  0  0
    1.7492   -0.0254   17.9470 C   0  0  0  0  0  0  0  0  0  0  0  0
    1.7356    0.1704   16.4824 C   0  0  0  0  0  0  0  0  0  0  0  0
    0.7559    1.2497   15.9978 C   0  0  0  0  0  0  0  0  0  0  0  0
    0.7953    0.9123   14.5308 C   0  0  0  0  0  0  0  0  0  0  0  0
    0.7194    1.5810   13.3899 C   0  0  0  0  0  0  0  0  0  0  0  0
    0.5493    3.0564   13.4502 C   0  0  0  0  0  0  0  0  0  0  0  0
    3.0103    0.6683   18.4859 C   0  0  0  0  0  0  0  0  0  0  0  0
   -0.2721   -1.4514   20.8777 O   0  0  0  0  0  0  0  0  0  0  0  0
    2.4875    2.1104   10.6837 C   0  0  0  0  0  0  0  0  0  0  0  0
   -0.6047    2.1925    9.2875 N   0  0  0  0  0  0  0  0  0  0  0  0
   -1.3525    1.7074    8.1696 C   0  0  0  0  0  0  0  0  0  0  0  0
  1  2  1  0
  2  3  1  0
  3  4  1  0
  4  5  1  0
  5  6  1  0
  6  7  1  0
  7  8  1  0
  7  9  1  0
  9 10  1  0
 10 11  1  0
 11 12  1  0
 12 13  1  0
 13 14  1  0
 14 15  2  0
 15 16  1  0
 16 17  1  0
 17 18  1  0
 18 19  1  0
 19 20  1  0
 20 21  1  0
 21 22  1  0
 22 23  1  0
 23 24  2  0
 24 25  1  0
 20 26  1  0
 17 27  1  0
  6 28  1  0
  5 29  1  0
 29 30  1  0
 30  2  1  0
  8  4  1  0
 24  7  1  0
 23 11  1  0
 21 12  1  0
 20 15  1  0
M  END
$$$$
