
     RDKit          3D

 30 35  0  0  0  0  0  0  0  0999 V2000
    3.4151    2.7504    6.3963 C   0  0  0  0  0  0  0  0  0  0  0  0
    2.3399    2.3375    7.3621 C   0  0  0  0  0  0  0  0  0  0  0  0
    2.9129    1.9019    8.6945 C   0  0  0  0  0  0  0  0  0  0  0  0
    1.7735    1.9885    9.7009 C   0  0  0  0  0  0  0  0  0  0  0  0
    0.5439    1.4473    9.0234 C   0  0  0  0  0  0  0  0  0  0  0  0
   -0.1150    0.6526   10.1299 C   0  0  0  0  0  0  0  0  0  0  0  0
    0.7563    0.9568   11.3049 C   0  0  0  0  0  0  0  0  0  0  0  0
    2.0105    1.2335   10.8248 O   0  0  0  0  0  0  0  0  0  0  0  0
    0.1508    2.0810   12.1105 C   0  0  0  0  0  0  0  0  0  0  0  0
    0.7495    2.2506   13.4613 C   0  0  0  0  0  0  0  0  0  0  0  0
    1.7150    1.1813   13.8494 C   0  0  0  0  0  0  0  0  0  0  0  0
    2.0245    1.0170   15.2673 C   0  0  0  0  0  0  0  0  0  0  0  0
    1.8409    2.1869   16.1715 C   0  0  0  0  0  0  0  0  0  0  0  0
    2.2556    1.7343   17.5319 C   0  0  0  0  0  0  0  0  0  0  0  0
    2.0758    0.4878   17.9525 C   0  0  0  0  0  0  0  0  0  0  0  0
    2.5229    0.1525   19.3117 C   0  0  0  0  0  0  0  0  0  0  0  0
    3.0034   -1.2615   19.4673 C   0  0  0  0  0  0  0  0  0  0  0  0
    2.4044   -2.2455   18.5294 C   0  0  0  0  0  0  0  0  0  0  0  0
    2.3428   -1.7654   17.0920 C   0  0  0  0  0  0  0  0  0  0  0  0
    1.4412   -0.5510   17.0876 C   0  0  0  0  0  0  0  0  0  0  0  0
    1.0896   -0.0770   15.7329 C   0  0  0  0  0  0  0  0  0  0  0  0
    1.3424   -1.1033   14.6184 C   0  0  0  0  0  0  0  0  0  0  0  0
    1.1936   -0.1685   13.4472 C   0  0  0  0  0  0  0  0  0  0  0  0
    0.7350   -0.2491   12.2071 C   0  0  0  0  0  0  0  0  0  0  0  0
    0.2040   -1.5557   11.7379 C   0  0  0  0  0  0  0  0  0  0  0  0
    0.1270   -0.9155   17.7961 C   0  0  0  0  0  0  0  0  0  0  0  0
    4.3988   -1.3674   19.3885 O   0  0  0  0  0  0  0  0  0  0  0  0
   -1.5433    1.1211   10.2935 C   0  0  0  0  0  0  0  0  0  0  0  0
    0.8323    0.5728    7.9327 N   0  0  0  0  0  0  0  0  0  0  0  0
    1.4978    1.1993    6.8331 C   0  0  0  0  0  0  0  0  0  0  0  0
  1  2  1  0
  2  3  1  0
  3  4  1  0
  4  5  1  0
  5  6  1  0
  6  7  1  0
  7  8  1  0
  7  9  1  0
  9 10  1  0
 10 11  1  0
 11 12  1  0
 12 13  1  0
 13 14  1  0
 14 15  2  0
 15 16  1  0
 16 17  1  0
 17 18  1  0
 18 19  1  0
 19 20  1  0
 20 21  1  0
 21 22  1  0
 22 23  1  0
 23 24  2  0
 24 25  1  0
 20 26  1  0
 17 27  1  0
  6 28  1  0
  5 29  1  0
 29 30  1  0
 30  2  1  0
  8  4  1  0
 24  7  1  0
 23 11  1  0
 21 12  1  0
 20 15  1  0
M  END
$$$$
