
     RDKit          3D

 30 35  0  0  0  0  0  0  0  0999 V2000
    0.1946    2.3096   21.7361 C   0  0  0  0  0  0  0  0  0  0  0  0
    0.7246    1.3062   20.7504 C   0  0  0  0  0  0  0  0  0  0  0  0
    0.4474    1.7176   19.3196 C   0  0  0  0  0  0  0  0  0  0  0  0
    1.4189    0.9304   18.4506 C   0  0  0  0  0  0  0  0  0  0  0  0
    1.4649   -0.4705   18.9974 C   0  0  0  0  0  0  0  0  0  0  0  0
    1.5072   -1.3105   17.7393 C   0  0  0  0  0  0  0  0  0  0  0  0
    1.6089   -0.2753   16.6667 C   0  0  0  0  0  0  0  0  0  0  0  0
    1.0120    0.8651   17.1393 O   0  0  0  0  0  0  0  0  0  0  0  0
    3.0549   -0.0882   16.2749 C   0  0  0  0  0  0  0  0  0  0  0  0
    3.2478    0.6683   15.0090 C   0  0  0  0  0  0  0  0  0  0  0  0
    1.9887    0.9575   14.2625 C   0  0  0  0  0  0  0  0  0  0  0  0
    2.0932    1.3023   12.8471 C   0  0  0  0  0  0  0  0  0  0  0  0
    3.3746    1.8795   12.3525 C   0  0  0  0  0  0  0  0  0  0  0  0
    3.1778    2.1525   10.8984 C   0  0  0  0  0  0  0  0  0  0  0  0
    2.4084    1.3911   10.1294 C   0  0  0  0  0  0  0  0  0  0  0  0
    2.2864    1.7535    8.7104 C   0  0  0  0  0  0  0  0  0  0  0  0
    0.9515    1.4246    8.1067 C   0  0  0  0  0  0  0  0  0  0  0  0
    0.2317    0.2857    8.7325 C   0  0  0  0  0  0  0  0  0  0  0  0
    0.2371    0.3141   10.2488 C   0  0  0  0  0  0  0  0  0  0  0  0
    1.6852    0.2021   10.6710 C   0  0  0  0  0  0  0  0  0  0  0  0
    1.8665   -0.0059   12.1227 C   0  0  0  0  0  0  0  0  0  0  0  0
    0.6014   -0.4743   12.8573 C   0  0  0  0  0  0  0  0  0  0  0  0
    1.0894   -0.2453   14.2633 C   0  0  0  0  0  0  0  0  0  0  0  0
    0.9224   -0.8236   15.4433 C   0  0  0  0  0  0  0  0  0  0  0  0
    0.0434   -2.0197   15.5215 C   0  0  0  0  0  0  0  0  0  0  0  0
    2.3100   -1.0073    9.9577 C   0  0  0  0  0  0  0  0  0  0  0  0
    0.0891    2.5290    8.0737 O   0  0  0  0  0  0  0  0  0  0  0  0
    2.6983   -2.2396   17.8036 C   0  0  0  0  0  0  0  0  0  0  0  0
    0.3074   -0.8256   19.7535 N   0  0  0  0  0  0  0  0  0  0  0  0
    0.1305   -0.0687   20.9535 C   0  0  0  0  0  0  0  0  0  0  0  0
  1  2  1  0
  2  3  1  0
  3  4  1  0
  4  5  1  0
  5  6  1  0
  6  7  1  0
  7  8  1  0
  7  9  1  0
  9 10  1  0
 10 11  1  0
 11 12  1  0
 12 13  1  0
 13 14  1  0
 14 15  2  0
 15 16  1  0
 16 17  1  0
 17 18  1  0
 18 19  1  0
 19 20  1  0
 20 21  1  0
 21 22  1  0
 22 23  1  0
 23 24  2  0
 24 25  1  0
 20 26  1  0
 17 27  1  0
  6 28  1  0
  5 29  1  0
 29 30  1  0
 30  2  1  0
  8  4  1  0
 24  7  1  0
 23 11  1  0
 21 12  1  0
 20 15  1  0
M  END
$$$$
