
     RDKit          3D

 30 35  0  0  0  0  0  0  0  0999 V2000
    3.0982    3.1325    7.4936 C   0  0  0  0  0  0  0  0  0  0  0  0
    2.0764    2.4718    8.3762 C   0  0  0  0  0  0  0  0  0  0  0  0
    2.6440    2.1232    9.7362 C   0  0  0  0  0  0  0  0  0  0  0  0
    1.4513    1.9358   10.6641 C   0  0  0  0  0  0  0  0  0  0  0  0
    0.4091    1.1707    9.8945 C   0  0  0  0  0  0  0  0  0  0  0  0
   -0.1346    0.2198   10.9386 C   0  0  0  0  0  0  0  0  0  0  0  0
    0.5772    0.6618   12.1757 C   0  0  0  0  0  0  0  0  0  0  0  0
    1.7719    1.2113   11.7873 O   0  0  0  0  0  0  0  0  0  0  0  0
   -0.3018    1.6070   12.9589 C   0  0  0  0  0  0  0  0  0  0  0  0
    0.1616    1.8545   14.3503 C   0  0  0  0  0  0  0  0  0  0  0  0
    1.3053    0.9997   14.7833 C   0  0  0  0  0  0  0  0  0  0  0  0
    1.5531    0.8580   16.2157 C   0  0  0  0  0  0  0  0  0  0  0  0
    1.0698    1.9332   17.1268 C   0  0  0  0  0  0  0  0  0  0  0  0
    1.4849    1.5338   18.5037 C   0  0  0  0  0  0  0  0  0  0  0  0
    1.5470    0.2643   18.8879 C   0  0  0  0  0  0  0  0  0  0  0  0
    1.9690   -0.0136   20.2678 C   0  0  0  0  0  0  0  0  0  0  0  0
    2.7272   -1.2996   20.4295 C   0  0  0  0  0  0  0  0  0  0  0  0
    2.4100   -2.3563   19.4348 C   0  0  0  0  0  0  0  0  0  0  0  0
    2.3383   -1.8534   18.0058 C   0  0  0  0  0  0  0  0  0  0  0  0
    1.2022   -0.8559   17.9626 C   0  0  0  0  0  0  0  0  0  0  0  0
    0.8438   -0.4225   16.5961 C   0  0  0  0  0  0  0  0  0  0  0  0
    1.3774   -1.3360   15.4825 C   0  0  0  0  0  0  0  0  0  0  0  0
    1.1077   -0.4156   14.3215 C   0  0  0  0  0  0  0  0  0  0  0  0
    0.7552   -0.5504   13.0518 C   0  0  0  0  0  0  0  0  0  0  0  0
    0.5433   -1.9234   12.5233 C   0  0  0  0  0  0  0  0  0  0  0  0
   -0.0468   -1.5111   18.5731 C   0  0  0  0  0  0  0  0  0  0  0  0
    4.1155   -1.1074   20.4439 O   0  0  0  0  0  0  0  0  0  0  0  0
   -1.6371    0.3724   11.0132 C   0  0  0  0  0  0  0  0  0  0  0  0
    0.9439    0.4123    8.8099 N   0  0  0  0  0  0  0  0  0  0  0  0
    1.5292    1.2000    7.7700 C   0  0  0  0  0  0  0  0  0  0  0  0
  1  2  1  0
  2  3  1  0
  3  4  1  0
  4  5  1  0
  5  6  1  0
  6  7  1  0
  7  8  1  0
  7  9  1  0
  9 10  1  0
 10 11  1  0
 11 12  1  0
 12 13  1  0
 13 14  1  0
 14 15  2  0
 15 16  1  0
 16 17  1  0
 17 18  1  0
 18 19  1  0
 19 20  1  0
 20 21  1  0
 21 22  1  0
 22 23  1  0
 23 24  2  0
 24 25  1  0
 20 26  1  0
 17 27  1  0
  6 28  1  0
  5 29  1  0
 29 30  1  0
 30  2  1  0
  8  4  1  0
 24  7  1  0
 23 11  1  0
 21 12  1  0
 20 15  1  0
M  END
$$$$
