
     RDKit          3D

 30 35  0  0  0  0  0  0  0  0999 V2000
    0.1950    3.3719    8.3756 C   0  0  0  0  0  0  0  0  0  0  0  0
    0.4720    2.1542    9.2121 C   0  0  0  0  0  0  0  0  0  0  0  0
    0.6019    2.4948   10.6820 C   0  0  0  0  0  0  0  0  0  0  0  0
    0.3859    1.1948   11.4448 C   0  0  0  0  0  0  0  0  0  0  0  0
    1.1214    0.1164   10.6966 C   0  0  0  0  0  0  0  0  0  0  0  0
    1.7198   -0.7072   11.8163 C   0  0  0  0  0  0  0  0  0  0  0  0
    1.1392   -0.0630   13.0330 C   0  0  0  0  0  0  0  0  0  0  0  0
    0.8892    1.2490   12.7227 O   0  0  0  0  0  0  0  0  0  0  0  0
   -0.0841   -0.8270   13.4792 C   0  0  0  0  0  0  0  0  0  0  0  0
   -0.5515   -0.4787   14.8475 C   0  0  0  0  0  0  0  0  0  0  0  0
    0.3616    0.4289   15.6015 C   0  0  0  0  0  0  0  0  0  0  0  0
    0.2247    0.4888   17.0544 C   0  0  0  0  0  0  0  0  0  0  0  0
   -1.0876    0.1216   17.6568 C   0  0  0  0  0  0  0  0  0  0  0  0
   -0.9373    0.3020   19.1308 C   0  0  0  0  0  0  0  0  0  0  0  0
    0.2103    0.0810   19.7611 C   0  0  0  0  0  0  0  0  0  0  0  0
    0.2442    0.2907   21.2153 C   0  0  0  0  0  0  0  0  0  0  0  0
    1.5691    0.7700   21.7345 C   0  0  0  0  0  0  0  0  0  0  0  0
    2.7521    0.3684   20.9308 C   0  0  0  0  0  0  0  0  0  0  0  0
    2.5692    0.5485   19.4361 C   0  0  0  0  0  0  0  0  0  0  0  0
    1.4348   -0.3671   19.0332 C   0  0  0  0  0  0  0  0  0  0  0  0
    1.2585   -0.4869   17.5709 C   0  0  0  0  0  0  0  0  0  0  0  0
    2.4677   -0.0181   16.7477 C   0  0  0  0  0  0  0  0  0  0  0  0
    1.7924    0.0185   15.4023 C   0  0  0  0  0  0  0  0  0  0  0  0
    2.1428   -0.2134   14.1460 C   0  0  0  0  0  0  0  0  0  0  0  0
    3.5452   -0.6226   13.8717 C   0  0  0  0  0  0  0  0  0  0  0  0
    1.7291   -1.7761   19.5717 C   0  0  0  0  0  0  0  0  0  0  0  0
    1.6061    2.1597   21.9130 O   0  0  0  0  0  0  0  0  0  0  0  0
    1.3131   -2.1528   11.6399 C   0  0  0  0  0  0  0  0  0  0  0  0
    2.1752    0.6125    9.8713 N   0  0  0  0  0  0  0  0  0  0  0  0
    1.7397    1.4453    8.7938 C   0  0  0  0  0  0  0  0  0  0  0  0
  1  2  1  0
  2  3  1  0
  3  4  1  0
  4  5  1  0
  5  6  1  0
  6  7  1  0
  7  8  1  0
  7  9  1  0
  9 10  1  0
 10 11  1  0
 11 12  1  0
 12 13  1  0
 13 14  1  0
 14 15  2  0
 15 16  1  0
 16 17  1  0
 17 18  1  0
 18 19  1  0
 19 20  1  0
 20 21  1  0
 21 22  1  0
 22 23  1  0
 23 24  2  0
 24 25  1  0
 20 26  1  0
 17 27  1  0
  6 28  1  0
  5 29  1  0
 29 30  1  0
 30  2  1  0
  8  4  1  0
 24  7  1  0
 23 11  1  0
 21 12  1  0
 20 15  1  0
M  END
$$$$
