
     RDKit          3D

 30 35  0  0  0  0  0  0  0  0999 V2000
   -1.9649    0.3398   21.5919 C   0  0  0  0  0  0  0  0  0  0  0  0
   -0.7478    0.3290   20.7099 C   0  0  0  0  0  0  0  0  0  0  0  0
   -1.1139    0.3115   19.2405 C   0  0  0  0  0  0  0  0  0  0  0  0
    0.1188    0.7896   18.4852 C   0  0  0  0  0  0  0  0  0  0  0  0
    1.3119    0.1372   19.1291 C   0  0  0  0  0  0  0  0  0  0  0  0
    2.1743   -0.2149   17.9365 C   0  0  0  0  0  0  0  0  0  0  0  0
    1.4175    0.3966   16.8026 C   0  0  0  0  0  0  0  0  0  0  0  0
    0.0940    0.4242   17.1603 O   0  0  0  0  0  0  0  0  0  0  0  0
    1.9903    1.7563   16.4826 C   0  0  0  0  0  0  0  0  0  0  0  0
    1.5372    2.3146   15.1806 C   0  0  0  0  0  0  0  0  0  0  0  0
    0.7411    1.3692   14.3449 C   0  0  0  0  0  0  0  0  0  0  0  0
    0.6166    1.6520   12.9174 C   0  0  0  0  0  0  0  0  0  0  0  0
    0.7793    3.0601   12.4585 C   0  0  0  0  0  0  0  0  0  0  0  0
    0.5746    3.0455   10.9802 C   0  0  0  0  0  0  0  0  0  0  0  0
    0.9321    2.0152   10.2226 C   0  0  0  0  0  0  0  0  0  0  0  0
    0.6829    2.1089    8.7774 C   0  0  0  0  0  0  0  0  0  0  0  0
    0.3752    0.7934    8.1221 C   0  0  0  0  0  0  0  0  0  0  0  0
    0.9620   -0.4008    8.7827 C   0  0  0  0  0  0  0  0  0  0  0  0
    0.8061   -0.4072   10.2912 C   0  0  0  0  0  0  0  0  0  0  0  0
    1.5683    0.7950   10.8026 C   0  0  0  0  0  0  0  0  0  0  0  0
    1.7090    0.8278   12.2732 C   0  0  0  0  0  0  0  0  0  0  0  0
    1.4385   -0.5170   12.9645 C   0  0  0  0  0  0  0  0  0  0  0  0
    1.3517   -0.0025   14.3771 C   0  0  0  0  0  0  0  0  0  0  0  0
    1.6698   -0.4499   15.5826 C   0  0  0  0  0  0  0  0  0  0  0  0
    2.2775   -1.8019   15.6926 C   0  0  0  0  0  0  0  0  0  0  0  0
    2.9866    0.7620   10.2116 C   0  0  0  0  0  0  0  0  0  0  0  0
   -1.0010    0.5802    7.9635 O   0  0  0  0  0  0  0  0  0  0  0  0
    3.5545    0.3702   18.1332 C   0  0  0  0  0  0  0  0  0  0  0  0
    0.9929   -1.0587   19.8403 N   0  0  0  0  0  0  0  0  0  0  0  0
    0.1426   -0.8636   20.9730 C   0  0  0  0  0  0  0  0  0  0  0  0
  1  2  1  0
  2  3  1  0
  3  4  1  0
  4  5  1  0
  5  6  1  0
  6  7  1  0
  7  8  1  0
  7  9  1  0
  9 10  1  0
 10 11  1  0
 11 12  1  0
 12 13  1  0
 13 14  1  0
 14 15  2  0
 15 16  1  0
 16 17  1  0
 17 18  1  0
 18 19  1  0
 19 20  1  0
 20 21  1  0
 21 22  1  0
 22 23  1  0
 23 24  2  0
 24 25  1  0
 20 26  1  0
 17 27  1  0
  6 28  1  0
  5 29  1  0
 29 30  1  0
 30  2  1  0
  8  4  1  0
 24  7  1  0
 23 11  1  0
 21 12  1  0
 20 15  1  0
M  END
$$$$
