
     RDKit          3D

 30 35  0  0  0  0  0  0  0  0999 V2000
   -1.5127    1.9669   21.6668 C   0  0  0  0  0  0  0  0  0  0  0  0
   -0.5211    1.2537   20.7908 C   0  0  0  0  0  0  0  0  0  0  0  0
   -0.8485    1.4113   19.3207 C   0  0  0  0  0  0  0  0  0  0  0  0
    0.4320    1.0964   18.5594 C   0  0  0  0  0  0  0  0  0  0  0  0
    1.0587   -0.0988   19.2246 C   0  0  0  0  0  0  0  0  0  0  0  0
    1.5620   -0.9020   18.0450 C   0  0  0  0  0  0  0  0  0  0  0  0
    1.2684    0.0030   16.8929 C   0  0  0  0  0  0  0  0  0  0  0  0
    0.1929    0.7779   17.2438 O   0  0  0  0  0  0  0  0  0  0  0  0
    2.5031    0.7979   16.5421 C   0  0  0  0  0  0  0  0  0  0  0  0
    2.4290    1.4843   15.2248 C   0  0  0  0  0  0  0  0  0  0  0  0
    1.2308    1.1310   14.4089 C   0  0  0  0  0  0  0  0  0  0  0  0
    1.2724    1.4021   12.9743 C   0  0  0  0  0  0  0  0  0  0  0  0
    2.1937    2.4643   12.4817 C   0  0  0  0  0  0  0  0  0  0  0  0
    2.0013    2.5335   11.0033 C   0  0  0  0  0  0  0  0  0  0  0  0
    1.7103    1.4634   10.2730 C   0  0  0  0  0  0  0  0  0  0  0  0
    1.5422    1.6478    8.8247 C   0  0  0  0  0  0  0  0  0  0  0  0
    0.5418    0.7182    8.2007 C   0  0  0  0  0  0  0  0  0  0  0  0
    0.3626   -0.5839    8.8930 C   0  0  0  0  0  0  0  0  0  0  0  0
    0.2453   -0.4670   10.4006 C   0  0  0  0  0  0  0  0  0  0  0  0
    1.5565    0.1102   10.8856 C   0  0  0  0  0  0  0  0  0  0  0  0
    1.7062    0.0919   12.3556 C   0  0  0  0  0  0  0  0  0  0  0  0
    0.7337   -0.8520   13.0786 C   0  0  0  0  0  0  0  0  0  0  0  0
    0.9652   -0.3455   14.4777 C   0  0  0  0  0  0  0  0  0  0  0  0
    0.9890   -0.8666   15.6953 C   0  0  0  0  0  0  0  0  0  0  0  0
    0.7330   -2.3234   15.8413 C   0  0  0  0  0  0  0  0  0  0  0  0
    2.7050   -0.7278   10.3021 C   0  0  0  0  0  0  0  0  0  0  0  0
   -0.7178    1.3118    8.0411 O   0  0  0  0  0  0  0  0  0  0  0  0
    3.0344   -1.1895   18.2334 C   0  0  0  0  0  0  0  0  0  0  0  0
    0.1300   -0.8920   19.9635 N   0  0  0  0  0  0  0  0  0  0  0  0
   -0.4523   -0.2268   21.0872 C   0  0  0  0  0  0  0  0  0  0  0  0
  1  2  1  0
  2  3  1  0
  3  4  1  0
  4  5  1  0
  5  6  1  0
  6  7  1  0
  7  8  1  0
  7  9  1  0
  9 10  1  0
 10 11  1  0
 11 12  1  0
 12 13  1  0
 13 14  1  0
 14 15  2  0
 15 16  1  0
 16 17  1  0
 17 18  1  0
 18 19  1  0
 19 20  1  0
 20 21  1  0
 21 22  1  0
 22 23  1  0
 23 24  2  0
 24 25  1  0
 20 26  1  0
 17 27  1  0
  6 28  1  0
  5 29  1  0
 29 30  1  0
 30  2  1  0
  8  4  1  0
 24  7  1  0
 23 11  1  0
 21 12  1  0
 20 15  1  0
M  END
$$$$
