
     RDKit          3D

 30 35  0  0  0  0  0  0  0  0999 V2000
   -1.9461    1.6163   21.4201 C   0  0  0  0  0  0  0  0  0  0  0  0
   -0.8003    1.1137   20.5871 C   0  0  0  0  0  0  0  0  0  0  0  0
   -1.0975    1.2002   19.1047 C   0  0  0  0  0  0  0  0  0  0  0  0
    0.2476    1.1457   18.3932 C   0  0  0  0  0  0  0  0  0  0  0  0
    1.0745    0.1006   19.0915 C   0  0  0  0  0  0  0  0  0  0  0  0
    1.7713   -0.5882   17.9382 C   0  0  0  0  0  0  0  0  0  0  0  0
    1.3465    0.2381   16.7681 C   0  0  0  0  0  0  0  0  0  0  0  0
    0.1259    0.7836   17.0728 O   0  0  0  0  0  0  0  0  0  0  0  0
    2.4103    1.2626   16.4549 C   0  0  0  0  0  0  0  0  0  0  0  0
    2.2501    1.9182   15.1296 C   0  0  0  0  0  0  0  0  0  0  0  0
    1.1776    1.3316   14.2741 C   0  0  0  0  0  0  0  0  0  0  0  0
    1.2177    1.6031   12.8396 C   0  0  0  0  0  0  0  0  0  0  0  0
    1.9267    2.8268   12.3710 C   0  0  0  0  0  0  0  0  0  0  0  0
    1.7796    2.8536   10.8859 C   0  0  0  0  0  0  0  0  0  0  0  0
    1.7350    1.7457   10.1554 C   0  0  0  0  0  0  0  0  0  0  0  0
    1.5877    1.8905    8.7004 C   0  0  0  0  0  0  0  0  0  0  0  0
    0.8164    0.7789    8.0491 C   0  0  0  0  0  0  0  0  0  0  0  0
    0.8745   -0.5315    8.7463 C   0  0  0  0  0  0  0  0  0  0  0  0
    0.6802   -0.4377   10.2475 C   0  0  0  0  0  0  0  0  0  0  0  0
    1.8311    0.3902   10.7744 C   0  0  0  0  0  0  0  0  0  0  0  0
    1.9265    0.4046   12.2489 C   0  0  0  0  0  0  0  0  0  0  0  0
    1.1353   -0.7130   12.9448 C   0  0  0  0  0  0  0  0  0  0  0  0
    1.2090   -0.1681   14.3467 C   0  0  0  0  0  0  0  0  0  0  0  0
    1.2907   -0.6718   15.5691 C   0  0  0  0  0  0  0  0  0  0  0  0
    1.3247   -2.1502   15.7190 C   0  0  0  0  0  0  0  0  0  0  0  0
    3.1445   -0.2030   10.2404 C   0  0  0  0  0  0  0  0  0  0  0  0
   -0.5293    1.1092    7.8386 O   0  0  0  0  0  0  0  0  0  0  0  0
    3.2634   -0.5761   18.1824 C   0  0  0  0  0  0  0  0  0  0  0  0
    0.2955   -0.8606   19.8035 N   0  0  0  0  0  0  0  0  0  0  0  0
   -0.4491   -0.3229   20.8993 C   0  0  0  0  0  0  0  0  0  0  0  0
  1  2  1  0
  2  3  1  0
  3  4  1  0
  4  5  1  0
  5  6  1  0
  6  7  1  0
  7  8  1  0
  7  9  1  0
  9 10  1  0
 10 11  1  0
 11 12  1  0
 12 13  1  0
 13 14  1  0
 14 15  2  0
 15 16  1  0
 16 17  1  0
 17 18  1  0
 18 19  1  0
 19 20  1  0
 20 21  1  0
 21 22  1  0
 22 23  1  0
 23 24  2  0
 24 25  1  0
 20 26  1  0
 17 27  1  0
  6 28  1  0
  5 29  1  0
 29 30  1  0
 30  2  1  0
  8  4  1  0
 24  7  1  0
 23 11  1  0
 21 12  1  0
 20 15  1  0
M  END
$$$$
