
     RDKit          3D

 30 35  0  0  0  0  0  0  0  0999 V2000
    3.5140    2.9221    7.0308 C   0  0  0  0  0  0  0  0  0  0  0  0
    2.4257    2.3531    7.8975 C   0  0  0  0  0  0  0  0  0  0  0  0
    2.9238    2.0258    9.2897 C   0  0  0  0  0  0  0  0  0  0  0  0
    1.6901    1.9401   10.1781 C   0  0  0  0  0  0  0  0  0  0  0  0
    0.6343    1.2051    9.3979 C   0  0  0  0  0  0  0  0  0  0  0  0
    0.0007    0.3262   10.4544 C   0  0  0  0  0  0  0  0  0  0  0  0
    0.6919    0.7751   11.7007 C   0  0  0  0  0  0  0  0  0  0  0  0
    1.9289    1.2424   11.3380 O   0  0  0  0  0  0  0  0  0  0  0  0
   -0.1594    1.7966   12.4155 C   0  0  0  0  0  0  0  0  0  0  0  0
    0.2674    2.0710   13.8136 C   0  0  0  0  0  0  0  0  0  0  0  0
    1.3447    1.1714   14.3200 C   0  0  0  0  0  0  0  0  0  0  0  0
    1.5329    1.0711   15.7649 C   0  0  0  0  0  0  0  0  0  0  0  0
    1.0791    2.2053   16.6177 C   0  0  0  0  0  0  0  0  0  0  0  0
    1.4216    1.8364   18.0228 C   0  0  0  0  0  0  0  0  0  0  0  0
    1.3980    0.5810   18.4546 C   0  0  0  0  0  0  0  0  0  0  0  0
    1.7541    0.3330   19.8587 C   0  0  0  0  0  0  0  0  0  0  0  0
    2.4320   -0.9858   20.0951 C   0  0  0  0  0  0  0  0  0  0  0  0
    2.0910   -2.0605   19.1280 C   0  0  0  0  0  0  0  0  0  0  0  0
    2.0989   -1.6093   17.6801 C   0  0  0  0  0  0  0  0  0  0  0  0
    1.0234   -0.5529   17.5580 C   0  0  0  0  0  0  0  0  0  0  0  0
    0.7390   -0.1528   16.1643 C   0  0  0  0  0  0  0  0  0  0  0  0
    1.2593   -1.1362   15.1053 C   0  0  0  0  0  0  0  0  0  0  0  0
    1.0837   -0.2474   13.9025 C   0  0  0  0  0  0  0  0  0  0  0  0
    0.7696   -0.4108   12.6261 C   0  0  0  0  0  0  0  0  0  0  0  0
    0.4992   -1.7891   12.1399 C   0  0  0  0  0  0  0  0  0  0  0  0
   -0.2817   -1.1143   18.1443 C   0  0  0  0  0  0  0  0  0  0  0  0
    3.8275   -0.8703   20.1549 O   0  0  0  0  0  0  0  0  0  0  0  0
   -1.4924    0.5644   10.4668 C   0  0  0  0  0  0  0  0  0  0  0  0
    1.1635    0.3775    8.3623 N   0  0  0  0  0  0  0  0  0  0  0  0
    1.8292    1.0913    7.3175 C   0  0  0  0  0  0  0  0  0  0  0  0
  1  2  1  0
  2  3  1  0
  3  4  1  0
  4  5  1  0
  5  6  1  0
  6  7  1  0
  7  8  1  0
  7  9  1  0
  9 10  1  0
 10 11  1  0
 11 12  1  0
 12 13  1  0
 13 14  1  0
 14 15  2  0
 15 16  1  0
 16 17  1  0
 17 18  1  0
 18 19  1  0
 19 20  1  0
 20 21  1  0
 21 22  1  0
 22 23  1  0
 23 24  2  0
 24 25  1  0
 20 26  1  0
 17 27  1  0
  6 28  1  0
  5 29  1  0
 29 30  1  0
 30  2  1  0
  8  4  1  0
 24  7  1  0
 23 11  1  0
 21 12  1  0
 20 15  1  0
M  END
$$$$
