
     RDKit          3D

 30 35  0  0  0  0  0  0  0  0999 V2000
   -1.6866    1.9987   21.6933 C   0  0  0  0  0  0  0  0  0  0  0  0
   -0.6451    1.3131   20.8539 C   0  0  0  0  0  0  0  0  0  0  0  0
   -0.9570    1.4090   19.3751 C   0  0  0  0  0  0  0  0  0  0  0  0
    0.3502    1.1396   18.6422 C   0  0  0  0  0  0  0  0  0  0  0  0
    1.0280   -0.0003   19.3527 C   0  0  0  0  0  0  0  0  0  0  0  0
    1.5915   -0.8107   18.2056 C   0  0  0  0  0  0  0  0  0  0  0  0
    1.2690    0.0426   17.0222 C   0  0  0  0  0  0  0  0  0  0  0  0
    0.1490    0.7696   17.3337 O   0  0  0  0  0  0  0  0  0  0  0  0
    2.4657    0.8908   16.6647 C   0  0  0  0  0  0  0  0  0  0  0  0
    2.3766    1.5325   15.3260 C   0  0  0  0  0  0  0  0  0  0  0  0
    1.2117    1.0920   14.5044 C   0  0  0  0  0  0  0  0  0  0  0  0
    1.2617    1.3218   13.0629 C   0  0  0  0  0  0  0  0  0  0  0  0
    2.1337    2.4161   12.5510 C   0  0  0  0  0  0  0  0  0  0  0  0
    1.9614    2.4306   11.0685 C   0  0  0  0  0  0  0  0  0  0  0  0
    1.7385    1.3252   10.3674 C   0  0  0  0  0  0  0  0  0  0  0  0
    1.5840    1.4570    8.9119 C   0  0  0  0  0  0  0  0  0  0  0  0
    0.6437    0.4574    8.3026 C   0  0  0  0  0  0  0  0  0  0  0  0
    0.5222   -0.8309    9.0320 C   0  0  0  0  0  0  0  0  0  0  0  0
    0.3750   -0.6753   10.5335 C   0  0  0  0  0  0  0  0  0  0  0  0
    1.6462   -0.0152   11.0192 C   0  0  0  0  0  0  0  0  0  0  0  0
    1.7734    0.0185   12.4910 C   0  0  0  0  0  0  0  0  0  0  0  0
    0.8404   -0.9535   13.2287 C   0  0  0  0  0  0  0  0  0  0  0  0
    1.0229   -0.3938   14.6147 C   0  0  0  0  0  0  0  0  0  0  0  0
    1.0547   -0.8761   15.8480 C   0  0  0  0  0  0  0  0  0  0  0  0
    0.8731   -2.3394   16.0351 C   0  0  0  0  0  0  0  0  0  0  0  0
    2.8463   -0.8084   10.4781 C   0  0  0  0  0  0  0  0  0  0  0  0
   -0.6426    0.9785    8.1069 O   0  0  0  0  0  0  0  0  0  0  0  0
    3.0738   -1.0141   18.4237 C   0  0  0  0  0  0  0  0  0  0  0  0
    0.1306   -0.8190   20.1023 N   0  0  0  0  0  0  0  0  0  0  0  0
   -0.5035   -0.1522   21.1967 C   0  0  0  0  0  0  0  0  0  0  0  0
  1  2  1  0
  2  3  1  0
  3  4  1  0
  4  5  1  0
  5  6  1  0
  6  7  1  0
  7  8  1  0
  7  9  1  0
  9 10  1  0
 10 11  1  0
 11 12  1  0
 12 13  1  0
 13 14  1  0
 14 15  2  0
 15 16  1  0
 16 17  1  0
 17 18  1  0
 18 19  1  0
 19 20  1  0
 20 21  1  0
 21 22  1  0
 22 23  1  0
 23 24  2  0
 24 25  1  0
 20 26  1  0
 17 27  1  0
  6 28  1  0
  5 29  1  0
 29 30  1  0
 30  2  1  0
  8  4  1  0
 24  7  1  0
 23 11  1  0
 21 12  1  0
 20 15  1  0
M  END
$$$$
