
     RDKit          3D

 30 35  0  0  0  0  0  0  0  0999 V2000
   -1.7924    1.9245   21.7041 C   0  0  0  0  0  0  0  0  0  0  0  0
   -0.7391    1.2938   20.8368 C   0  0  0  0  0  0  0  0  0  0  0  0
   -1.0725    1.4128   19.3644 C   0  0  0  0  0  0  0  0  0  0  0  0
    0.2337    1.2045   18.6101 C   0  0  0  0  0  0  0  0  0  0  0  0
    0.9582    0.0722   19.2860 C   0  0  0  0  0  0  0  0  0  0  0  0
    1.5341   -0.6923   18.1138 C   0  0  0  0  0  0  0  0  0  0  0  0
    1.1685    0.1764   16.9544 C   0  0  0  0  0  0  0  0  0  0  0  0
    0.0287    0.8579   17.2959 O   0  0  0  0  0  0  0  0  0  0  0  0
    2.3315    1.0725   16.6027 C   0  0  0  0  0  0  0  0  0  0  0  0
    2.2043    1.7412   15.2804 C   0  0  0  0  0  0  0  0  0  0  0  0
    1.0445    1.2805   14.4625 C   0  0  0  0  0  0  0  0  0  0  0  0
    1.0688    1.5447   13.0263 C   0  0  0  0  0  0  0  0  0  0  0  0
    1.8972    2.6791   12.5297 C   0  0  0  0  0  0  0  0  0  0  0  0
    1.7060    2.7216   11.0501 C   0  0  0  0  0  0  0  0  0  0  0  0
    1.5115    1.6256   10.3262 C   0  0  0  0  0  0  0  0  0  0  0  0
    1.3345    1.7853    8.8761 C   0  0  0  0  0  0  0  0  0  0  0  0
    0.4207    0.7687    8.2548 C   0  0  0  0  0  0  0  0  0  0  0  0
    0.3515   -0.5393    8.9555 C   0  0  0  0  0  0  0  0  0  0  0  0
    0.2179   -0.4230   10.4617 C   0  0  0  0  0  0  0  0  0  0  0  0
    1.4723    0.2684   10.9477 C   0  0  0  0  0  0  0  0  0  0  0  0
    1.6166    0.2727   12.4183 C   0  0  0  0  0  0  0  0  0  0  0  0
    0.7260   -0.7468   13.1441 C   0  0  0  0  0  0  0  0  0  0  0  0
    0.9070   -0.2130   14.5405 C   0  0  0  0  0  0  0  0  0  0  0  0
    0.9703   -0.7220   15.7618 C   0  0  0  0  0  0  0  0  0  0  0  0
    0.8402   -2.1945   15.9170 C   0  0  0  0  0  0  0  0  0  0  0  0
    2.6914   -0.4713   10.3743 C   0  0  0  0  0  0  0  0  0  0  0  0
   -0.8847    1.2504    8.0863 O   0  0  0  0  0  0  0  0  0  0  0  0
    3.0249   -0.8505   18.3098 C   0  0  0  0  0  0  0  0  0  0  0  0
    0.0982   -0.7932   20.0268 N   0  0  0  0  0  0  0  0  0  0  0  0
   -0.5442   -0.1733   21.1437 C   0  0  0  0  0  0  0  0  0  0  0  0
  1  2  1  0
  2  3  1  0
  3  4  1  0
  4  5  1  0
  5  6  1  0
  6  7  1  0
  7  8  1  0
  7  9  1  0
  9 10  1  0
 10 11  1  0
 11 12  1  0
 12 13  1  0
 13 14  1  0
 14 15  2  0
 15 16  1  0
 16 17  1  0
 17 18  1  0
 18 19  1  0
 19 20  1  0
 20 21  1  0
 21 22  1  0
 22 23  1  0
 23 24  2  0
 24 25  1  0
 20 26  1  0
 17 27  1  0
  6 28  1  0
  5 29  1  0
 29 30  1  0
 30  2  1  0
  8  4  1  0
 24  7  1  0
 23 11  1  0
 21 12  1  0
 20 15  1  0
M  END
$$$$
