
     RDKit          3D

 25 28  0  0  0  0  0  0  0  0999 V2000
    0.8956   12.6814   18.3966 O   0  0  0  0  0  0  0  0  0  0  0  0
    0.5599   11.7495   17.4281 C   0  0  0  0  0  0  0  0  0  0  0  0
    0.9251   10.4331   17.6271 C   0  0  0  0  0  0  0  0  0  0  0  0
    0.5823    9.5178   16.6564 C   0  0  0  0  0  0  0  0  0  0  0  0
   -0.1076    9.9076   15.5172 C   0  0  0  0  0  0  0  0  0  0  0  0
   -0.4555   11.2225   15.3481 C   0  0  0  0  0  0  0  0  0  0  0  0
   -0.1303   12.1836   16.3016 C   0  0  0  0  0  0  0  0  0  0  0  0
   -0.4715    8.8967   14.5271 C   0  0  0  0  0  0  0  0  0  0  0  0
    0.1264    9.0687   13.1670 C   0  0  0  0  0  0  0  0  0  0  0  0
    1.4818    8.6422   13.0282 N   0  0  0  0  0  0  0  0  0  0  0  0
    1.7763    7.4051   12.4284 C   0  0  0  0  0  0  0  0  0  0  0  0
    2.7613    6.6351   12.8855 N   0  0  0  0  0  0  0  0  0  0  0  0
    3.0576    5.4573   12.3157 C   0  0  0  0  0  0  0  0  0  0  0  0
    4.0967    4.5922   12.7338 N   0  0  0  0  0  0  0  0  0  0  0  0
    2.3154    5.0632   11.2439 N   0  0  0  0  0  0  0  0  0  0  0  0
    1.3123    5.7995   10.7420 C   0  0  0  0  0  0  0  0  0  0  0  0
    1.0647    6.9780   11.3643 N   0  0  0  0  0  0  0  0  0  0  0  0
    0.7639    5.1723    9.6877 N   0  0  0  0  0  0  0  0  0  0  0  0
    1.4335    4.0042    9.5090 C   0  0  0  0  0  0  0  0  0  0  0  0
    2.3642    3.9804   10.4761 N   0  0  0  0  0  0  0  0  0  0  0  0
    1.1684    3.0072    8.4628 C   0  0  0  0  0  0  0  0  0  0  0  0
    0.0519    2.8468    7.6732 C   0  0  0  0  0  0  0  0  0  0  0  0
    0.2668    1.7671    6.8268 C   0  0  0  0  0  0  0  0  0  0  0  0
    1.5438    1.3207    7.1664 C   0  0  0  0  0  0  0  0  0  0  0  0
    1.9969    2.0776    8.1091 O   0  0  0  0  0  0  0  0  0  0  0  0
  1  2  1  0
  2  3  2  0
  3  4  1  0
  4  5  2  0
  5  6  1  0
  6  7  2  0
  5  8  1  0
  8  9  1  0
  9 10  1  0
 10 11  1  0
 11 12  1  0
 12 13  2  0
 13 14  1  0
 13 15  1  0
 15 16  1  0
 16 17  1  0
 16 18  2  0
 18 19  1  0
 19 20  2  0
 19 21  1  0
 21 22  2  0
 22 23  1  0
 23 24  2  0
 24 25  1  0
  7  2  1  0
 17 11  2  0
 25 21  1  0
 20 15  1  0
M  END
$$$$
