
     RDKit          3D

 25 28  0  0  0  0  0  0  0  0999 V2000
    4.8146   10.2012   18.3468 O   0  0  0  0  0  0  0  0  0  0  0  0
    3.8337    9.9104   17.4127 C   0  0  0  0  0  0  0  0  0  0  0  0
    3.7637    8.6265   16.9101 C   0  0  0  0  0  0  0  0  0  0  0  0
    2.7817    8.3521   15.9839 C   0  0  0  0  0  0  0  0  0  0  0  0
    1.8928    9.3345   15.5713 C   0  0  0  0  0  0  0  0  0  0  0  0
    1.9884   10.6003   16.0883 C   0  0  0  0  0  0  0  0  0  0  0  0
    2.9648   10.9251   17.0264 C   0  0  0  0  0  0  0  0  0  0  0  0
    0.8520    8.9898   14.6056 C   0  0  0  0  0  0  0  0  0  0  0  0
    1.1107    9.4005   13.1909 C   0  0  0  0  0  0  0  0  0  0  0  0
    0.4432    8.6308   12.1909 N   0  0  0  0  0  0  0  0  0  0  0  0
    1.0290    7.4517   11.6975 C   0  0  0  0  0  0  0  0  0  0  0  0
    2.1428    6.9589   12.2348 N   0  0  0  0  0  0  0  0  0  0  0  0
    2.7161    5.8399   11.7666 C   0  0  0  0  0  0  0  0  0  0  0  0
    3.9052    5.2641   12.2736 N   0  0  0  0  0  0  0  0  0  0  0  0
    2.1220    5.2118   10.7143 N   0  0  0  0  0  0  0  0  0  0  0  0
    0.9997    5.6646   10.1346 C   0  0  0  0  0  0  0  0  0  0  0  0
    0.4718    6.7989   10.6561 N   0  0  0  0  0  0  0  0  0  0  0  0
    0.6458    4.8550    9.1223 N   0  0  0  0  0  0  0  0  0  0  0  0
    1.5654    3.8580    9.0510 C   0  0  0  0  0  0  0  0  0  0  0  0
    2.4404    4.1150   10.0360 N   0  0  0  0  0  0  0  0  0  0  0  0
    1.5697    2.7536    8.0819 C   0  0  0  0  0  0  0  0  0  0  0  0
    0.5816    2.3538    7.2103 C   0  0  0  0  0  0  0  0  0  0  0  0
    1.0487    1.2613    6.4916 C   0  0  0  0  0  0  0  0  0  0  0  0
    2.3356    1.0555    6.9885 C   0  0  0  0  0  0  0  0  0  0  0  0
    2.5640    1.9462    7.8948 O   0  0  0  0  0  0  0  0  0  0  0  0
  1  2  1  0
  2  3  2  0
  3  4  1  0
  4  5  2  0
  5  6  1  0
  6  7  2  0
  5  8  1  0
  8  9  1  0
  9 10  1  0
 10 11  1  0
 11 12  1  0
 12 13  2  0
 13 14  1  0
 13 15  1  0
 15 16  1  0
 16 17  1  0
 16 18  2  0
 18 19  1  0
 19 20  2  0
 19 21  1  0
 21 22  2  0
 22 23  1  0
 23 24  2  0
 24 25  1  0
  7  2  1  0
 17 11  2  0
 25 21  1  0
 20 15  1  0
M  END
$$$$
