
     RDKit          3D

 25 28  0  0  0  0  0  0  0  0999 V2000
    4.3413   10.4564   19.0716 O   0  0  0  0  0  0  0  0  0  0  0  0
    3.4501   10.0778   18.0810 C   0  0  0  0  0  0  0  0  0  0  0  0
    3.7369   10.4159   16.7736 C   0  0  0  0  0  0  0  0  0  0  0  0
    2.8424   10.0305   15.7995 C   0  0  0  0  0  0  0  0  0  0  0  0
    1.6921    9.3252   16.1232 C   0  0  0  0  0  0  0  0  0  0  0  0
    1.4348    9.0049   17.4308 C   0  0  0  0  0  0  0  0  0  0  0  0
    2.3092    9.3734   18.4498 C   0  0  0  0  0  0  0  0  0  0  0  0
    0.7856    8.9160   15.0530 C   0  0  0  0  0  0  0  0  0  0  0  0
    1.1555    9.3654   13.6752 C   0  0  0  0  0  0  0  0  0  0  0  0
    0.4697    8.7133   12.6064 N   0  0  0  0  0  0  0  0  0  0  0  0
    0.9709    7.5132   12.0721 C   0  0  0  0  0  0  0  0  0  0  0  0
    1.9843    6.8721   12.6500 N   0  0  0  0  0  0  0  0  0  0  0  0
    2.4771    5.7314   12.1442 C   0  0  0  0  0  0  0  0  0  0  0  0
    3.5594    5.0021   12.6915 N   0  0  0  0  0  0  0  0  0  0  0  0
    1.9069    5.2385   11.0099 N   0  0  0  0  0  0  0  0  0  0  0  0
    0.8843    5.8435   10.3863 C   0  0  0  0  0  0  0  0  0  0  0  0
    0.4339    6.9912   10.9494 N   0  0  0  0  0  0  0  0  0  0  0  0
    0.5309    5.1426    9.2957 N   0  0  0  0  0  0  0  0  0  0  0  0
    1.3486    4.0609    9.2181 C   0  0  0  0  0  0  0  0  0  0  0  0
    2.1655    4.1602   10.2787 N   0  0  0  0  0  0  0  0  0  0  0  0
    1.3176    3.0268    8.1747 C   0  0  0  0  0  0  0  0  0  0  0  0
    0.3448    2.7628    7.2367 C   0  0  0  0  0  0  0  0  0  0  0  0
    0.7640    1.6886    6.4630 C   0  0  0  0  0  0  0  0  0  0  0  0
    2.0077    1.3525    6.9974 C   0  0  0  0  0  0  0  0  0  0  0  0
    2.2579    2.1605    7.9728 O   0  0  0  0  0  0  0  0  0  0  0  0
  1  2  1  0
  2  3  2  0
  3  4  1  0
  4  5  2  0
  5  6  1  0
  6  7  2  0
  5  8  1  0
  8  9  1  0
  9 10  1  0
 10 11  1  0
 11 12  1  0
 12 13  2  0
 13 14  1  0
 13 15  1  0
 15 16  1  0
 16 17  1  0
 16 18  2  0
 18 19  1  0
 19 20  2  0
 19 21  1  0
 21 22  2  0
 22 23  1  0
 23 24  2  0
 24 25  1  0
  7  2  1  0
 17 11  2  0
 25 21  1  0
 20 15  1  0
M  END
$$$$
