
     RDKit          3D

 25 28  0  0  0  0  0  0  0  0999 V2000
    4.0621   12.1235   18.1846 O   0  0  0  0  0  0  0  0  0  0  0  0
    3.2111   11.6365   17.2059 C   0  0  0  0  0  0  0  0  0  0  0  0
    3.0449   12.3753   16.0516 C   0  0  0  0  0  0  0  0  0  0  0  0
    2.1974   11.8771   15.0867 C   0  0  0  0  0  0  0  0  0  0  0  0
    1.5340   10.6722   15.2702 C   0  0  0  0  0  0  0  0  0  0  0  0
    1.7193    9.9620   16.4278 C   0  0  0  0  0  0  0  0  0  0  0  0
    2.5655   10.4257   17.4316 C   0  0  0  0  0  0  0  0  0  0  0  0
    0.6648   10.1714   14.2079 C   0  0  0  0  0  0  0  0  0  0  0  0
    0.4897    8.6871   14.1516 C   0  0  0  0  0  0  0  0  0  0  0  0
    0.0425    8.1636   12.9009 N   0  0  0  0  0  0  0  0  0  0  0  0
    0.7178    7.0847   12.3036 C   0  0  0  0  0  0  0  0  0  0  0  0
    1.7603    6.5097   12.8993 N   0  0  0  0  0  0  0  0  0  0  0  0
    2.4182    5.4858   12.3348 C   0  0  0  0  0  0  0  0  0  0  0  0
    3.5414    4.8342   12.8975 N   0  0  0  0  0  0  0  0  0  0  0  0
    1.9871    5.0428   11.1213 N   0  0  0  0  0  0  0  0  0  0  0  0
    0.9430    5.5854   10.4764 C   0  0  0  0  0  0  0  0  0  0  0  0
    0.3224    6.6155   11.1016 N   0  0  0  0  0  0  0  0  0  0  0  0
    0.7487    4.9569    9.3047 N   0  0  0  0  0  0  0  0  0  0  0  0
    1.6932    3.9870    9.1956 C   0  0  0  0  0  0  0  0  0  0  0  0
    2.4205    4.0757   10.3204 N   0  0  0  0  0  0  0  0  0  0  0  0
    1.8550    3.0610    8.0664 C   0  0  0  0  0  0  0  0  0  0  0  0
    1.0108    2.8237    7.0048 C   0  0  0  0  0  0  0  0  0  0  0  0
    1.5936    1.8625    6.1895 C   0  0  0  0  0  0  0  0  0  0  0  0
    2.7968    1.5626    6.8280 C   0  0  0  0  0  0  0  0  0  0  0  0
    2.8774    2.2861    7.8943 O   0  0  0  0  0  0  0  0  0  0  0  0
  1  2  1  0
  2  3  2  0
  3  4  1  0
  4  5  2  0
  5  6  1  0
  6  7  2  0
  5  8  1  0
  8  9  1  0
  9 10  1  0
 10 11  1  0
 11 12  1  0
 12 13  2  0
 13 14  1  0
 13 15  1  0
 15 16  1  0
 16 17  1  0
 16 18  2  0
 18 19  1  0
 19 20  2  0
 19 21  1  0
 21 22  2  0
 22 23  1  0
 23 24  2  0
 24 25  1  0
  7  2  1  0
 17 11  2  0
 25 21  1  0
 20 15  1  0
M  END
$$$$
