
     RDKit          3D

 25 28  0  0  0  0  0  0  0  0999 V2000
   -2.3879   14.5871   11.2120 O   0  0  0  0  0  0  0  0  0  0  0  0
   -1.6238   13.4495   11.4142 C   0  0  0  0  0  0  0  0  0  0  0  0
   -0.4561   13.5620   12.1421 C   0  0  0  0  0  0  0  0  0  0  0  0
    0.2918   12.4217   12.3367 C   0  0  0  0  0  0  0  0  0  0  0  0
   -0.1166   11.2011   11.8182 C   0  0  0  0  0  0  0  0  0  0  0  0
   -1.2807   11.1218   11.0990 C   0  0  0  0  0  0  0  0  0  0  0  0
   -2.0695   12.2473   10.8758 C   0  0  0  0  0  0  0  0  0  0  0  0
    0.6967   10.0142   12.0720 C   0  0  0  0  0  0  0  0  0  0  0  0
    0.1945    9.0934   13.1383 C   0  0  0  0  0  0  0  0  0  0  0  0
    1.1556    8.1831   13.6731 N   0  0  0  0  0  0  0  0  0  0  0  0
    1.5890    7.0837   12.9114 C   0  0  0  0  0  0  0  0  0  0  0  0
    2.6573    6.3752   13.2705 N   0  0  0  0  0  0  0  0  0  0  0  0
    3.0859    5.3300   12.5467 C   0  0  0  0  0  0  0  0  0  0  0  0
    4.2187    4.5397   12.8547 N   0  0  0  0  0  0  0  0  0  0  0  0
    2.3912    5.0069   11.4207 N   0  0  0  0  0  0  0  0  0  0  0  0
    1.3086    5.6864   11.0123 C   0  0  0  0  0  0  0  0  0  0  0  0
    0.9286    6.7305   11.7888 N   0  0  0  0  0  0  0  0  0  0  0  0
    0.8334    5.1538    9.8739 N   0  0  0  0  0  0  0  0  0  0  0  0
    1.6325    4.1063    9.5439 C   0  0  0  0  0  0  0  0  0  0  0  0
    2.5623    4.0545   10.5107 N   0  0  0  0  0  0  0  0  0  0  0  0
    1.4813    3.2413    8.3659 C   0  0  0  0  0  0  0  0  0  0  0  0
    0.4926    3.2370    7.4077 C   0  0  0  0  0  0  0  0  0  0  0  0
    0.7802    2.2375    6.4876 C   0  0  0  0  0  0  0  0  0  0  0  0
    1.9658    1.6747    6.9598 C   0  0  0  0  0  0  0  0  0  0  0  0
    2.3064    2.2996    8.0371 O   0  0  0  0  0  0  0  0  0  0  0  0
  1  2  1  0
  2  3  2  0
  3  4  1  0
  4  5  2  0
  5  6  1  0
  6  7  2  0
  5  8  1  0
  8  9  1  0
  9 10  1  0
 10 11  1  0
 11 12  1  0
 12 13  2  0
 13 14  1  0
 13 15  1  0
 15 16  1  0
 16 17  1  0
 16 18  2  0
 18 19  1  0
 19 20  2  0
 19 21  1  0
 21 22  2  0
 22 23  1  0
 23 24  2  0
 24 25  1  0
  7  2  1  0
 17 11  2  0
 25 21  1  0
 20 15  1  0
M  END
$$$$
