
     RDKit          3D

 25 28  0  0  0  0  0  0  0  0999 V2000
    2.8793    9.6294   19.1848 O   0  0  0  0  0  0  0  0  0  0  0  0
    2.8438    9.5239   17.8040 C   0  0  0  0  0  0  0  0  0  0  0  0
    1.6869    9.8902   17.1457 C   0  0  0  0  0  0  0  0  0  0  0  0
    1.6677    9.7819   15.7726 C   0  0  0  0  0  0  0  0  0  0  0  0
    2.7753    9.3204   15.0757 C   0  0  0  0  0  0  0  0  0  0  0  0
    3.9093    8.9637   15.7580 C   0  0  0  0  0  0  0  0  0  0  0  0
    3.9757    9.0555   17.1458 C   0  0  0  0  0  0  0  0  0  0  0  0
    2.7166    9.2467   13.6177 C   0  0  0  0  0  0  0  0  0  0  0  0
    1.3601    9.4086   13.0090 C   0  0  0  0  0  0  0  0  0  0  0  0
    0.6203    8.2030   12.8158 N   0  0  0  0  0  0  0  0  0  0  0  0
    1.2118    7.1070   12.1632 C   0  0  0  0  0  0  0  0  0  0  0  0
    2.3427    6.5666   12.6117 N   0  0  0  0  0  0  0  0  0  0  0  0
    2.9213    5.5267   11.9921 C   0  0  0  0  0  0  0  0  0  0  0  0
    4.1280    4.9092   12.3985 N   0  0  0  0  0  0  0  0  0  0  0  0
    2.3145    5.0306   10.8783 N   0  0  0  0  0  0  0  0  0  0  0  0
    1.1749    5.5366   10.3827 C   0  0  0  0  0  0  0  0  0  0  0  0
    0.6425    6.5856   11.0563 N   0  0  0  0  0  0  0  0  0  0  0  0
    0.8115    4.8592    9.2806 N   0  0  0  0  0  0  0  0  0  0  0  0
    1.7427    3.8945    9.0640 C   0  0  0  0  0  0  0  0  0  0  0  0
    2.6339    4.0359   10.0580 N   0  0  0  0  0  0  0  0  0  0  0  0
    1.7422    2.9249    7.9601 C   0  0  0  0  0  0  0  0  0  0  0  0
    0.7802    2.6932    7.0027 C   0  0  0  0  0  0  0  0  0  0  0  0
    1.2298    1.6786    6.1680 C   0  0  0  0  0  0  0  0  0  0  0  0
    2.4797    1.3427    6.6879 C   0  0  0  0  0  0  0  0  0  0  0  0
    2.7053    2.0964    7.7115 O   0  0  0  0  0  0  0  0  0  0  0  0
  1  2  1  0
  2  3  2  0
  3  4  1  0
  4  5  2  0
  5  6  1  0
  6  7  2  0
  5  8  1  0
  8  9  1  0
  9 10  1  0
 10 11  1  0
 11 12  1  0
 12 13  2  0
 13 14  1  0
 13 15  1  0
 15 16  1  0
 16 17  1  0
 16 18  2  0
 18 19  1  0
 19 20  2  0
 19 21  1  0
 21 22  2  0
 22 23  1  0
 23 24  2  0
 24 25  1  0
  7  2  1  0
 17 11  2  0
 25 21  1  0
 20 15  1  0
M  END
$$$$
