
     RDKit          3D

 25 28  0  0  0  0  0  0  0  0999 V2000
    1.9840   14.5927   13.7812 O   0  0  0  0  0  0  0  0  0  0  0  0
    1.7688   13.2342   13.9467 C   0  0  0  0  0  0  0  0  0  0  0  0
    2.8650   12.3975   14.0112 C   0  0  0  0  0  0  0  0  0  0  0  0
    2.6351   11.0496   14.1781 C   0  0  0  0  0  0  0  0  0  0  0  0
    1.3440   10.5511   14.2787 C   0  0  0  0  0  0  0  0  0  0  0  0
    0.2760   11.4075   14.2102 C   0  0  0  0  0  0  0  0  0  0  0  0
    0.4588   12.7775   14.0415 C   0  0  0  0  0  0  0  0  0  0  0  0
    1.1504    9.1171   14.4805 C   0  0  0  0  0  0  0  0  0  0  0  0
   -0.1579    8.5619   14.0144 C   0  0  0  0  0  0  0  0  0  0  0  0
   -0.2463    8.2744   12.6188 N   0  0  0  0  0  0  0  0  0  0  0  0
    0.4654    7.1915   12.0731 C   0  0  0  0  0  0  0  0  0  0  0  0
    1.5451    6.7017   12.6786 N   0  0  0  0  0  0  0  0  0  0  0  0
    2.2377    5.6750   12.1627 C   0  0  0  0  0  0  0  0  0  0  0  0
    3.4008    5.1103   12.7380 N   0  0  0  0  0  0  0  0  0  0  0  0
    1.8027    5.1386   10.9889 N   0  0  0  0  0  0  0  0  0  0  0  0
    0.7218    5.5930   10.3364 C   0  0  0  0  0  0  0  0  0  0  0  0
    0.0675    6.6314   10.9116 N   0  0  0  0  0  0  0  0  0  0  0  0
    0.5328    4.8849    9.2101 N   0  0  0  0  0  0  0  0  0  0  0  0
    1.5183    3.9531    9.1387 C   0  0  0  0  0  0  0  0  0  0  0  0
    2.2636    4.1440   10.2388 N   0  0  0  0  0  0  0  0  0  0  0  0
    1.6994    2.9669    8.0648 C   0  0  0  0  0  0  0  0  0  0  0  0
    0.8320    2.6026    7.0595 C   0  0  0  0  0  0  0  0  0  0  0  0
    1.4477    1.6307    6.2819 C   0  0  0  0  0  0  0  0  0  0  0  0
    2.6938    1.4563    6.8838 C   0  0  0  0  0  0  0  0  0  0  0  0
    2.7661    2.2532    7.8970 O   0  0  0  0  0  0  0  0  0  0  0  0
  1  2  1  0
  2  3  2  0
  3  4  1  0
  4  5  2  0
  5  6  1  0
  6  7  2  0
  5  8  1  0
  8  9  1  0
  9 10  1  0
 10 11  1  0
 11 12  1  0
 12 13  2  0
 13 14  1  0
 13 15  1  0
 15 16  1  0
 16 17  1  0
 16 18  2  0
 18 19  1  0
 19 20  2  0
 19 21  1  0
 21 22  2  0
 22 23  1  0
 23 24  2  0
 24 25  1  0
  7  2  1  0
 17 11  2  0
 25 21  1  0
 20 15  1  0
M  END
$$$$
