
     RDKit          3D

 25 28  0  0  0  0  0  0  0  0999 V2000
    5.1356    9.8094   18.2722 O   0  0  0  0  0  0  0  0  0  0  0  0
    4.0863    9.5889   17.3950 C   0  0  0  0  0  0  0  0  0  0  0  0
    2.7956    9.7092   17.8697 C   0  0  0  0  0  0  0  0  0  0  0  0
    1.7628    9.4891   16.9851 C   0  0  0  0  0  0  0  0  0  0  0  0
    2.0133    9.1584   15.6609 C   0  0  0  0  0  0  0  0  0  0  0  0
    3.3062    9.0458   15.2198 C   0  0  0  0  0  0  0  0  0  0  0  0
    4.3826    9.2583   16.0771 C   0  0  0  0  0  0  0  0  0  0  0  0
    0.8857    8.9591   14.7535 C   0  0  0  0  0  0  0  0  0  0  0  0
    1.1509    9.2427   13.3090 C   0  0  0  0  0  0  0  0  0  0  0  0
    0.4383    8.4288   12.3775 N   0  0  0  0  0  0  0  0  0  0  0  0
    1.0631    7.3158   11.7878 C   0  0  0  0  0  0  0  0  0  0  0  0
    2.1711    6.7921   12.3077 N   0  0  0  0  0  0  0  0  0  0  0  0
    2.7813    5.7362   11.7486 C   0  0  0  0  0  0  0  0  0  0  0  0
    3.9672    5.1344   12.2327 N   0  0  0  0  0  0  0  0  0  0  0  0
    2.2316    5.2058   10.6211 N   0  0  0  0  0  0  0  0  0  0  0  0
    1.1173    5.6937   10.0548 C   0  0  0  0  0  0  0  0  0  0  0  0
    0.5505    6.7604   10.6698 N   0  0  0  0  0  0  0  0  0  0  0  0
    0.8103    4.9831    8.9564 N   0  0  0  0  0  0  0  0  0  0  0  0
    1.7526    4.0152    8.8150 C   0  0  0  0  0  0  0  0  0  0  0  0
    2.5929    4.1883    9.8475 N   0  0  0  0  0  0  0  0  0  0  0  0
    1.8085    3.0135    7.7416 C   0  0  0  0  0  0  0  0  0  0  0  0
    0.8519    2.6794    6.8093 C   0  0  0  0  0  0  0  0  0  0  0  0
    1.3643    1.6755    5.9981 C   0  0  0  0  0  0  0  0  0  0  0  0
    2.6441    1.4518    6.5052 C   0  0  0  0  0  0  0  0  0  0  0  0
    2.8278    2.2528    7.5010 O   0  0  0  0  0  0  0  0  0  0  0  0
  1  2  1  0
  2  3  2  0
  3  4  1  0
  4  5  2  0
  5  6  1  0
  6  7  2  0
  5  8  1  0
  8  9  1  0
  9 10  1  0
 10 11  1  0
 11 12  1  0
 12 13  2  0
 13 14  1  0
 13 15  1  0
 15 16  1  0
 16 17  1  0
 16 18  2  0
 18 19  1  0
 19 20  2  0
 19 21  1  0
 21 22  2  0
 22 23  1  0
 23 24  2  0
 24 25  1  0
  7  2  1  0
 17 11  2  0
 25 21  1  0
 20 15  1  0
M  END
$$$$
