
     RDKit          3D

 25 28  0  0  0  0  0  0  0  0999 V2000
    4.9137    9.0729   18.3497 O   0  0  0  0  0  0  0  0  0  0  0  0
    4.1395    9.2096   17.2091 C   0  0  0  0  0  0  0  0  0  0  0  0
    4.5967    8.6502   16.0327 C   0  0  0  0  0  0  0  0  0  0  0  0
    3.8148    8.7925   14.9075 C   0  0  0  0  0  0  0  0  0  0  0  0
    2.6077    9.4752   14.9568 C   0  0  0  0  0  0  0  0  0  0  0  0
    2.1812   10.0201   16.1399 C   0  0  0  0  0  0  0  0  0  0  0  0
    2.9375    9.9026   17.3030 C   0  0  0  0  0  0  0  0  0  0  0  0
    1.8006    9.5785   13.7433 C   0  0  0  0  0  0  0  0  0  0  0  0
    0.5092    8.8242   13.7508 C   0  0  0  0  0  0  0  0  0  0  0  0
    0.1087    8.2700   12.4975 N   0  0  0  0  0  0  0  0  0  0  0  0
    0.7495    7.1245   11.9935 C   0  0  0  0  0  0  0  0  0  0  0  0
    1.7271    6.5275   12.6716 N   0  0  0  0  0  0  0  0  0  0  0  0
    2.3522    5.4396   12.1965 C   0  0  0  0  0  0  0  0  0  0  0  0
    3.4076    4.7600   12.8500 N   0  0  0  0  0  0  0  0  0  0  0  0
    1.9562    4.9543   10.9872 N   0  0  0  0  0  0  0  0  0  0  0  0
    0.9774    5.5164   10.2616 C   0  0  0  0  0  0  0  0  0  0  0  0
    0.3869    6.6118   10.7989 N   0  0  0  0  0  0  0  0  0  0  0  0
    0.8048    4.8356    9.1160 N   0  0  0  0  0  0  0  0  0  0  0  0
    1.6965    3.8111    9.1071 C   0  0  0  0  0  0  0  0  0  0  0  0
    2.3721    3.9222   10.2618 N   0  0  0  0  0  0  0  0  0  0  0  0
    1.8599    2.8166    8.0379 C   0  0  0  0  0  0  0  0  0  0  0  0
    1.0676    2.5812    6.9368 C   0  0  0  0  0  0  0  0  0  0  0  0
    1.6283    1.5396    6.2095 C   0  0  0  0  0  0  0  0  0  0  0  0
    2.7652    1.1923    6.9390 C   0  0  0  0  0  0  0  0  0  0  0  0
    2.8323    1.9649    7.9712 O   0  0  0  0  0  0  0  0  0  0  0  0
  1  2  1  0
  2  3  2  0
  3  4  1  0
  4  5  2  0
  5  6  1  0
  6  7  2  0
  5  8  1  0
  8  9  1  0
  9 10  1  0
 10 11  1  0
 11 12  1  0
 12 13  2  0
 13 14  1  0
 13 15  1  0
 15 16  1  0
 16 17  1  0
 16 18  2  0
 18 19  1  0
 19 20  2  0
 19 21  1  0
 21 22  2  0
 22 23  1  0
 23 24  2  0
 24 25  1  0
  7  2  1  0
 17 11  2  0
 25 21  1  0
 20 15  1  0
M  END
$$$$
