
     RDKit          3D

 25 28  0  0  0  0  0  0  0  0999 V2000
   -3.1656   11.9046   10.6554 O   0  0  0  0  0  0  0  0  0  0  0  0
   -2.7202   10.7361   10.0593 C   0  0  0  0  0  0  0  0  0  0  0  0
   -3.1331    9.5293   10.5875 C   0  0  0  0  0  0  0  0  0  0  0  0
   -2.6837    8.3762    9.9826 C   0  0  0  0  0  0  0  0  0  0  0  0
   -1.8446    8.4276    8.8787 C   0  0  0  0  0  0  0  0  0  0  0  0
   -1.4516    9.6414    8.3778 C   0  0  0  0  0  0  0  0  0  0  0  0
   -1.8795   10.8337    8.9559 C   0  0  0  0  0  0  0  0  0  0  0  0
   -1.4142    7.1783    8.2553 C   0  0  0  0  0  0  0  0  0  0  0  0
   -1.8917    5.9218    8.9113 C   0  0  0  0  0  0  0  0  0  0  0  0
   -1.0447    4.7829    8.7577 N   0  0  0  0  0  0  0  0  0  0  0  0
    0.1285    4.6654    9.5237 C   0  0  0  0  0  0  0  0  0  0  0  0
    0.9966    3.6796    9.3072 N   0  0  0  0  0  0  0  0  0  0  0  0
    2.1146    3.5518   10.0377 C   0  0  0  0  0  0  0  0  0  0  0  0
    3.0752    2.5249    9.8779 N   0  0  0  0  0  0  0  0  0  0  0  0
    2.3429    4.4681   11.0190 N   0  0  0  0  0  0  0  0  0  0  0  0
    1.5021    5.4807   11.2803 C   0  0  0  0  0  0  0  0  0  0  0  0
    0.3921    5.5527   10.5057 N   0  0  0  0  0  0  0  0  0  0  0  0
    1.9738    6.2193   12.2989 N   0  0  0  0  0  0  0  0  0  0  0  0
    3.1469    5.6653   12.7011 C   0  0  0  0  0  0  0  0  0  0  0  0
    3.3308    4.6070   11.8960 N   0  0  0  0  0  0  0  0  0  0  0  0
    4.0011    6.1486   13.7945 C   0  0  0  0  0  0  0  0  0  0  0  0
    3.8380    7.2466   14.6090 C   0  0  0  0  0  0  0  0  0  0  0  0
    4.9034    7.2931   15.4984 C   0  0  0  0  0  0  0  0  0  0  0  0
    5.6766    6.1835   15.1573 C   0  0  0  0  0  0  0  0  0  0  0  0
    5.0987    5.5774   14.1747 O   0  0  0  0  0  0  0  0  0  0  0  0
  1  2  1  0
  2  3  2  0
  3  4  1  0
  4  5  2  0
  5  6  1  0
  6  7  2  0
  5  8  1  0
  8  9  1  0
  9 10  1  0
 10 11  1  0
 11 12  1  0
 12 13  2  0
 13 14  1  0
 13 15  1  0
 15 16  1  0
 16 17  1  0
 16 18  2  0
 18 19  1  0
 19 20  2  0
 19 21  1  0
 21 22  2  0
 22 23  1  0
 23 24  2  0
 24 25  1  0
  7  2  1  0
 17 11  2  0
 25 21  1  0
 20 15  1  0
M  END
$$$$
