
     RDKit          3D

 25 28  0  0  0  0  0  0  0  0999 V2000
    4.3812   10.0563   18.7810 O   0  0  0  0  0  0  0  0  0  0  0  0
    3.7995    9.8972   17.5339 C   0  0  0  0  0  0  0  0  0  0  0  0
    2.4518    9.6052   17.4689 C   0  0  0  0  0  0  0  0  0  0  0  0
    1.8872    9.4521   16.2218 C   0  0  0  0  0  0  0  0  0  0  0  0
    2.6491    9.5879   15.0700 C   0  0  0  0  0  0  0  0  0  0  0  0
    3.9852    9.8775   15.1674 C   0  0  0  0  0  0  0  0  0  0  0  0
    4.6001   10.0406   16.4059 C   0  0  0  0  0  0  0  0  0  0  0  0
    2.0009    9.4417   13.7688 C   0  0  0  0  0  0  0  0  0  0  0  0
    0.6398    8.8218   13.7823 C   0  0  0  0  0  0  0  0  0  0  0  0
    0.1939    8.2804   12.5389 N   0  0  0  0  0  0  0  0  0  0  0  0
    0.8027    7.1287   12.0098 C   0  0  0  0  0  0  0  0  0  0  0  0
    1.8064    6.5269   12.6443 N   0  0  0  0  0  0  0  0  0  0  0  0
    2.4013    5.4331   12.1446 C   0  0  0  0  0  0  0  0  0  0  0  0
    3.4808    4.7480   12.7511 N   0  0  0  0  0  0  0  0  0  0  0  0
    1.9464    4.9467   10.9566 N   0  0  0  0  0  0  0  0  0  0  0  0
    0.9392    5.5135   10.2749 C   0  0  0  0  0  0  0  0  0  0  0  0
    0.3818    6.6148   10.8351 N   0  0  0  0  0  0  0  0  0  0  0  0
    0.7092    4.8304    9.1409 N   0  0  0  0  0  0  0  0  0  0  0  0
    1.5923    3.7995    9.0944 C   0  0  0  0  0  0  0  0  0  0  0  0
    2.3212    3.9095   10.2163 N   0  0  0  0  0  0  0  0  0  0  0  0
    1.6993    2.8005    8.0223 C   0  0  0  0  0  0  0  0  0  0  0  0
    0.8508    2.5616    6.9646 C   0  0  0  0  0  0  0  0  0  0  0  0
    1.3722    1.5163    6.2136 C   0  0  0  0  0  0  0  0  0  0  0  0
    2.5450    1.1706    6.8848 C   0  0  0  0  0  0  0  0  0  0  0  0
    2.6661    1.9473    7.9089 O   0  0  0  0  0  0  0  0  0  0  0  0
  1  2  1  0
  2  3  2  0
  3  4  1  0
  4  5  2  0
  5  6  1  0
  6  7  2  0
  5  8  1  0
  8  9  1  0
  9 10  1  0
 10 11  1  0
 11 12  1  0
 12 13  2  0
 13 14  1  0
 13 15  1  0
 15 16  1  0
 16 17  1  0
 16 18  2  0
 18 19  1  0
 19 20  2  0
 19 21  1  0
 21 22  2  0
 22 23  1  0
 23 24  2  0
 24 25  1  0
  7  2  1  0
 17 11  2  0
 25 21  1  0
 20 15  1  0
M  END
$$$$
