
     RDKit          3D

 25 28  0  0  0  0  0  0  0  0999 V2000
    3.2985   13.7656   13.1323 O   0  0  0  0  0  0  0  0  0  0  0  0
    2.7691   12.5356   13.4870 C   0  0  0  0  0  0  0  0  0  0  0  0
    1.9497   11.8872   12.5848 C   0  0  0  0  0  0  0  0  0  0  0  0
    1.4327   10.6639   12.9507 C   0  0  0  0  0  0  0  0  0  0  0  0
    1.7273   10.1031   14.1854 C   0  0  0  0  0  0  0  0  0  0  0  0
    2.5437   10.7720   15.0599 C   0  0  0  0  0  0  0  0  0  0  0  0
    3.0892   12.0111   14.7345 C   0  0  0  0  0  0  0  0  0  0  0  0
    1.1761    8.7919   14.5191 C   0  0  0  0  0  0  0  0  0  0  0  0
    2.1753    7.7120   14.7888 C   0  0  0  0  0  0  0  0  0  0  0  0
    2.8534    7.1961   13.6434 N   0  0  0  0  0  0  0  0  0  0  0  0
    2.1238    6.6127   12.5925 C   0  0  0  0  0  0  0  0  0  0  0  0
    0.8993    7.0356   12.2862 N   0  0  0  0  0  0  0  0  0  0  0  0
    0.1900    6.4805   11.2919 C   0  0  0  0  0  0  0  0  0  0  0  0
   -1.1197    6.8640   10.9174 N   0  0  0  0  0  0  0  0  0  0  0  0
    0.7616    5.4603   10.5939 N   0  0  0  0  0  0  0  0  0  0  0  0
    1.9914    4.9944   10.8602 C   0  0  0  0  0  0  0  0  0  0  0  0
    2.6541    5.5992   11.8762 N   0  0  0  0  0  0  0  0  0  0  0  0
    2.2931    3.9871   10.0236 N   0  0  0  0  0  0  0  0  0  0  0  0
    1.2287    3.8023    9.2003 C   0  0  0  0  0  0  0  0  0  0  0  0
    0.3249    4.7184    9.5822 N   0  0  0  0  0  0  0  0  0  0  0  0
    1.1252    2.7971    8.1336 C   0  0  0  0  0  0  0  0  0  0  0  0
    2.0538    1.8710    7.7144 C   0  0  0  0  0  0  0  0  0  0  0  0
    1.4994    1.1360    6.6748 C   0  0  0  0  0  0  0  0  0  0  0  0
    0.2246    1.6800    6.5191 C   0  0  0  0  0  0  0  0  0  0  0  0
    0.0818    2.6251    7.3871 O   0  0  0  0  0  0  0  0  0  0  0  0
  1  2  1  0
  2  3  2  0
  3  4  1  0
  4  5  2  0
  5  6  1  0
  6  7  2  0
  5  8  1  0
  8  9  1  0
  9 10  1  0
 10 11  1  0
 11 12  1  0
 12 13  2  0
 13 14  1  0
 13 15  1  0
 15 16  1  0
 16 17  1  0
 16 18  2  0
 18 19  1  0
 19 20  2  0
 19 21  1  0
 21 22  2  0
 22 23  1  0
 23 24  2  0
 24 25  1  0
  7  2  1  0
 17 11  2  0
 25 21  1  0
 20 15  1  0
M  END
$$$$
