
     RDKit          3D

 25 28  0  0  0  0  0  0  0  0999 V2000
    2.3288    0.0751    5.0977 O   0  0  0  0  0  0  0  0  0  0  0  0
    1.7516    0.9769    5.9766 C   0  0  0  0  0  0  0  0  0  0  0  0
    2.4575    1.3379    7.1068 C   0  0  0  0  0  0  0  0  0  0  0  0
    1.8714    2.2373    7.9701 C   0  0  0  0  0  0  0  0  0  0  0  0
    0.6136    2.7626    7.7105 C   0  0  0  0  0  0  0  0  0  0  0  0
   -0.0626    2.3839    6.5800 C   0  0  0  0  0  0  0  0  0  0  0  0
    0.4889    1.4774    5.6784 C   0  0  0  0  0  0  0  0  0  0  0  0
    0.0433    3.7327    8.6423 C   0  0  0  0  0  0  0  0  0  0  0  0
    0.2471    5.1727    8.2931 C   0  0  0  0  0  0  0  0  0  0  0  0
   -0.1435    6.1135    9.2932 N   0  0  0  0  0  0  0  0  0  0  0  0
    0.7113    6.3931   10.3739 C   0  0  0  0  0  0  0  0  0  0  0  0
    1.6827    5.5511   10.7196 N   0  0  0  0  0  0  0  0  0  0  0  0
    2.4985    5.8026   11.7545 C   0  0  0  0  0  0  0  0  0  0  0  0
    3.5413    4.9514   12.1912 N   0  0  0  0  0  0  0  0  0  0  0  0
    2.3061    6.9566   12.4518 N   0  0  0  0  0  0  0  0  0  0  0  0
    1.3431    7.8399   12.1474 C   0  0  0  0  0  0  0  0  0  0  0  0
    0.5543    7.5257   11.0907 N   0  0  0  0  0  0  0  0  0  0  0  0
    1.3818    8.8758   13.0023 N   0  0  0  0  0  0  0  0  0  0  0  0
    2.3955    8.6501   13.8776 C   0  0  0  0  0  0  0  0  0  0  0  0
    2.9280    7.4757   13.5045 N   0  0  0  0  0  0  0  0  0  0  0  0
    2.7901    9.5275   14.9882 C   0  0  0  0  0  0  0  0  0  0  0  0
    3.7061    9.3059   15.9921 C   0  0  0  0  0  0  0  0  0  0  0  0
    3.7380   10.4277   16.8099 C   0  0  0  0  0  0  0  0  0  0  0  0
    2.8062   11.2916   16.2346 C   0  0  0  0  0  0  0  0  0  0  0  0
    2.3045   10.7090   15.1973 O   0  0  0  0  0  0  0  0  0  0  0  0
  1  2  1  0
  2  3  2  0
  3  4  1  0
  4  5  2  0
  5  6  1  0
  6  7  2  0
  5  8  1  0
  8  9  1  0
  9 10  1  0
 10 11  1  0
 11 12  1  0
 12 13  2  0
 13 14  1  0
 13 15  1  0
 15 16  1  0
 16 17  1  0
 16 18  2  0
 18 19  1  0
 19 20  2  0
 19 21  1  0
 21 22  2  0
 22 23  1  0
 23 24  2  0
 24 25  1  0
  7  2  1  0
 17 11  2  0
 25 21  1  0
 20 15  1  0
M  END
$$$$
