
     RDKit          3D

 25 28  0  0  0  0  0  0  0  0999 V2000
    4.8969   10.1614   18.6615 O   0  0  0  0  0  0  0  0  0  0  0  0
    3.9360    9.8094   17.7277 C   0  0  0  0  0  0  0  0  0  0  0  0
    2.8360    9.0922   18.1540 C   0  0  0  0  0  0  0  0  0  0  0  0
    1.8880    8.7515   17.2144 C   0  0  0  0  0  0  0  0  0  0  0  0
    2.0350    9.1183   15.8842 C   0  0  0  0  0  0  0  0  0  0  0  0
    3.1389    9.8296   15.4918 C   0  0  0  0  0  0  0  0  0  0  0  0
    4.1238   10.1962   16.4053 C   0  0  0  0  0  0  0  0  0  0  0  0
    0.9909    8.7562   14.9284 C   0  0  0  0  0  0  0  0  0  0  0  0
    1.1867    9.2468   13.5292 C   0  0  0  0  0  0  0  0  0  0  0  0
    0.4990    8.5148   12.5146 N   0  0  0  0  0  0  0  0  0  0  0  0
    1.0812    7.3640   11.9548 C   0  0  0  0  0  0  0  0  0  0  0  0
    2.1827    6.8268   12.4748 N   0  0  0  0  0  0  0  0  0  0  0  0
    2.7526    5.7344   11.9437 C   0  0  0  0  0  0  0  0  0  0  0  0
    3.9290    5.1156   12.4292 N   0  0  0  0  0  0  0  0  0  0  0  0
    2.1681    5.1809   10.8452 N   0  0  0  0  0  0  0  0  0  0  0  0
    1.0585    5.6809   10.2803 C   0  0  0  0  0  0  0  0  0  0  0  0
    0.5333    6.7847   10.8660 N   0  0  0  0  0  0  0  0  0  0  0  0
    0.7119    4.9413    9.2132 N   0  0  0  0  0  0  0  0  0  0  0  0
    1.6235    3.9419    9.0909 C   0  0  0  0  0  0  0  0  0  0  0  0
    2.4864    4.1266   10.1025 N   0  0  0  0  0  0  0  0  0  0  0  0
    1.6318    2.9018    8.0532 C   0  0  0  0  0  0  0  0  0  0  0  0
    1.0186    2.8943    6.8204 C   0  0  0  0  0  0  0  0  0  0  0  0
    1.3166    1.6927    6.1914 C   0  0  0  0  0  0  0  0  0  0  0  0
    2.1188    1.0193    7.1125 C   0  0  0  0  0  0  0  0  0  0  0  0
    2.2553    1.7718    8.1527 O   0  0  0  0  0  0  0  0  0  0  0  0
  1  2  1  0
  2  3  2  0
  3  4  1  0
  4  5  2  0
  5  6  1  0
  6  7  2  0
  5  8  1  0
  8  9  1  0
  9 10  1  0
 10 11  1  0
 11 12  1  0
 12 13  2  0
 13 14  1  0
 13 15  1  0
 15 16  1  0
 16 17  1  0
 16 18  2  0
 18 19  1  0
 19 20  2  0
 19 21  1  0
 21 22  2  0
 22 23  1  0
 23 24  2  0
 24 25  1  0
  7  2  1  0
 17 11  2  0
 25 21  1  0
 20 15  1  0
M  END
$$$$
