
     RDKit          3D

 25 28  0  0  0  0  0  0  0  0999 V2000
    4.1623   10.3881   19.2525 O   0  0  0  0  0  0  0  0  0  0  0  0
    3.3148   10.0658   18.2052 C   0  0  0  0  0  0  0  0  0  0  0  0
    2.1498    9.3813   18.4883 C   0  0  0  0  0  0  0  0  0  0  0  0
    1.3162    9.0699   17.4368 C   0  0  0  0  0  0  0  0  0  0  0  0
    1.6380    9.4334   16.1368 C   0  0  0  0  0  0  0  0  0  0  0  0
    2.8026   10.1119   15.8877 C   0  0  0  0  0  0  0  0  0  0  0  0
    3.6767   10.4481   16.9181 C   0  0  0  0  0  0  0  0  0  0  0  0
    0.7105    9.1034   15.0572 C   0  0  0  0  0  0  0  0  0  0  0  0
    1.1902    9.3955   13.6710 C   0  0  0  0  0  0  0  0  0  0  0  0
    0.4998    8.7175   12.6213 N   0  0  0  0  0  0  0  0  0  0  0  0
    0.9977    7.5037   12.1158 C   0  0  0  0  0  0  0  0  0  0  0  0
    2.0129    6.8764   12.7059 N   0  0  0  0  0  0  0  0  0  0  0  0
    2.5025    5.7227   12.2274 C   0  0  0  0  0  0  0  0  0  0  0  0
    3.5862    5.0063   12.7888 N   0  0  0  0  0  0  0  0  0  0  0  0
    1.9273    5.2017   11.1082 N   0  0  0  0  0  0  0  0  0  0  0  0
    0.9028    5.7916   10.4735 C   0  0  0  0  0  0  0  0  0  0  0  0
    0.4558    6.9538   11.0089 N   0  0  0  0  0  0  0  0  0  0  0  0
    0.5444    5.0635    9.4025 N   0  0  0  0  0  0  0  0  0  0  0  0
    1.3608    3.9793    9.3492 C   0  0  0  0  0  0  0  0  0  0  0  0
    2.1820    4.1048   10.4037 N   0  0  0  0  0  0  0  0  0  0  0  0
    1.3245    2.9191    8.3327 C   0  0  0  0  0  0  0  0  0  0  0  0
    0.3407    2.6222    7.4163 C   0  0  0  0  0  0  0  0  0  0  0  0
    0.7590    1.5329    6.6635 C   0  0  0  0  0  0  0  0  0  0  0  0
    2.0138    1.2224    7.1873 C   0  0  0  0  0  0  0  0  0  0  0  0
    2.2704    2.0570    8.1384 O   0  0  0  0  0  0  0  0  0  0  0  0
  1  2  1  0
  2  3  2  0
  3  4  1  0
  4  5  2  0
  5  6  1  0
  6  7  2  0
  5  8  1  0
  8  9  1  0
  9 10  1  0
 10 11  1  0
 11 12  1  0
 12 13  2  0
 13 14  1  0
 13 15  1  0
 15 16  1  0
 16 17  1  0
 16 18  2  0
 18 19  1  0
 19 20  2  0
 19 21  1  0
 21 22  2  0
 22 23  1  0
 23 24  2  0
 24 25  1  0
  7  2  1  0
 17 11  2  0
 25 21  1  0
 20 15  1  0
M  END
$$$$
