
     RDKit          3D

 25 28  0  0  0  0  0  0  0  0999 V2000
    4.7239   11.7945   17.0919 O   0  0  0  0  0  0  0  0  0  0  0  0
    4.0164   10.8205   16.4065 C   0  0  0  0  0  0  0  0  0  0  0  0
    4.4082    9.5038   16.5434 C   0  0  0  0  0  0  0  0  0  0  0  0
    3.6935    8.5465   15.8576 C   0  0  0  0  0  0  0  0  0  0  0  0
    2.6156    8.8957   15.0565 C   0  0  0  0  0  0  0  0  0  0  0  0
    2.2515   10.2119   14.9403 C   0  0  0  0  0  0  0  0  0  0  0  0
    2.9439   11.2147   15.6139 C   0  0  0  0  0  0  0  0  0  0  0  0
    1.8722    7.8428   14.3684 C   0  0  0  0  0  0  0  0  0  0  0  0
    0.7038    8.2947   13.5511 C   0  0  0  0  0  0  0  0  0  0  0  0
   -0.1102    7.2555   13.0074 N   0  0  0  0  0  0  0  0  0  0  0  0
    0.1931    6.7038   11.7502 C   0  0  0  0  0  0  0  0  0  0  0  0
    0.0465    7.4130   10.6333 N   0  0  0  0  0  0  0  0  0  0  0  0
    0.3237    6.8943    9.4274 C   0  0  0  0  0  0  0  0  0  0  0  0
    0.1790    7.5786    8.1971 N   0  0  0  0  0  0  0  0  0  0  0  0
    0.7653    5.6072    9.3736 N   0  0  0  0  0  0  0  0  0  0  0  0
    0.9307    4.8473   10.4671 C   0  0  0  0  0  0  0  0  0  0  0  0
    0.6334    5.4318   11.6533 N   0  0  0  0  0  0  0  0  0  0  0  0
    1.3676    3.6257   10.1168 N   0  0  0  0  0  0  0  0  0  0  0  0
    1.4845    3.6021    8.7638 C   0  0  0  0  0  0  0  0  0  0  0  0
    1.1098    4.8252    8.3566 N   0  0  0  0  0  0  0  0  0  0  0  0
    1.9255    2.4581    7.9541 C   0  0  0  0  0  0  0  0  0  0  0  0
    2.3264    1.2049    8.3598 C   0  0  0  0  0  0  0  0  0  0  0  0
    2.6482    0.4625    7.2314 C   0  0  0  0  0  0  0  0  0  0  0  0
    2.4171    1.3403    6.1724 C   0  0  0  0  0  0  0  0  0  0  0  0
    2.0060    2.4619    6.6622 O   0  0  0  0  0  0  0  0  0  0  0  0
  1  2  1  0
  2  3  2  0
  3  4  1  0
  4  5  2  0
  5  6  1  0
  6  7  2  0
  5  8  1  0
  8  9  1  0
  9 10  1  0
 10 11  1  0
 11 12  1  0
 12 13  2  0
 13 14  1  0
 13 15  1  0
 15 16  1  0
 16 17  1  0
 16 18  2  0
 18 19  1  0
 19 20  2  0
 19 21  1  0
 21 22  2  0
 22 23  1  0
 23 24  2  0
 24 25  1  0
  7  2  1  0
 17 11  2  0
 25 21  1  0
 20 15  1  0
M  END
$$$$
