
     RDKit          3D

 25 28  0  0  0  0  0  0  0  0999 V2000
    4.8954   10.6307   18.6152 O   0  0  0  0  0  0  0  0  0  0  0  0
    4.0038   10.1096   17.6918 C   0  0  0  0  0  0  0  0  0  0  0  0
    3.9942   10.6373   16.4162 C   0  0  0  0  0  0  0  0  0  0  0  0
    3.1038   10.1073   15.5085 C   0  0  0  0  0  0  0  0  0  0  0  0
    2.2460    9.0768   15.8661 C   0  0  0  0  0  0  0  0  0  0  0  0
    2.2790    8.5745   17.1409 C   0  0  0  0  0  0  0  0  0  0  0  0
    3.1614    9.0784   18.0928 C   0  0  0  0  0  0  0  0  0  0  0  0
    1.3365    8.5297   14.8620 C   0  0  0  0  0  0  0  0  0  0  0  0
    1.3225    9.2310   13.5411 C   0  0  0  0  0  0  0  0  0  0  0  0
    0.6027    8.5731   12.4985 N   0  0  0  0  0  0  0  0  0  0  0  0
    1.1086    7.3932   11.9251 C   0  0  0  0  0  0  0  0  0  0  0  0
    2.1346    6.7459   12.4733 N   0  0  0  0  0  0  0  0  0  0  0  0
    2.6319    5.6245   11.9301 C   0  0  0  0  0  0  0  0  0  0  0  0
    3.7271    4.8904   12.4443 N   0  0  0  0  0  0  0  0  0  0  0  0
    2.0529    5.1580   10.7890 N   0  0  0  0  0  0  0  0  0  0  0  0
    1.0176    5.7703   10.1944 C   0  0  0  0  0  0  0  0  0  0  0  0
    0.5633    6.8976   10.7945 N   0  0  0  0  0  0  0  0  0  0  0  0
    0.6579    5.0968    9.0887 N   0  0  0  0  0  0  0  0  0  0  0  0
    1.4846    4.0255    8.9715 C   0  0  0  0  0  0  0  0  0  0  0  0
    2.3129    4.1030   10.0250 N   0  0  0  0  0  0  0  0  0  0  0  0
    1.4508    3.0207    7.9000 C   0  0  0  0  0  0  0  0  0  0  0  0
    2.3363    2.0009    7.6320 C   0  0  0  0  0  0  0  0  0  0  0  0
    1.8825    1.3102    6.5161 C   0  0  0  0  0  0  0  0  0  0  0  0
    0.7096    1.9761    6.1607 C   0  0  0  0  0  0  0  0  0  0  0  0
    0.5269    2.9428    6.9967 O   0  0  0  0  0  0  0  0  0  0  0  0
  1  2  1  0
  2  3  2  0
  3  4  1  0
  4  5  2  0
  5  6  1  0
  6  7  2  0
  5  8  1  0
  8  9  1  0
  9 10  1  0
 10 11  1  0
 11 12  1  0
 12 13  2  0
 13 14  1  0
 13 15  1  0
 15 16  1  0
 16 17  1  0
 16 18  2  0
 18 19  1  0
 19 20  2  0
 19 21  1  0
 21 22  2  0
 22 23  1  0
 23 24  2  0
 24 25  1  0
  7  2  1  0
 17 11  2  0
 25 21  1  0
 20 15  1  0
M  END
$$$$
