
     RDKit          3D

 25 28  0  0  0  0  0  0  0  0999 V2000
    3.2710   10.0530   19.2292 O   0  0  0  0  0  0  0  0  0  0  0  0
    3.0969    9.8270   17.8736 C   0  0  0  0  0  0  0  0  0  0  0  0
    3.6241    8.6748   17.3257 C   0  0  0  0  0  0  0  0  0  0  0  0
    3.4410    8.4628   15.9770 C   0  0  0  0  0  0  0  0  0  0  0  0
    2.7487    9.3778   15.1966 C   0  0  0  0  0  0  0  0  0  0  0  0
    2.2376   10.5131   15.7698 C   0  0  0  0  0  0  0  0  0  0  0  0
    2.3979   10.7706   17.1288 C   0  0  0  0  0  0  0  0  0  0  0  0
    2.5577    9.0978   13.7754 C   0  0  0  0  0  0  0  0  0  0  0  0
    1.2327    9.4909   13.2037 C   0  0  0  0  0  0  0  0  0  0  0  0
    0.4323    8.4200   12.7031 N   0  0  0  0  0  0  0  0  0  0  0  0
    1.0387    7.3140   12.0820 C   0  0  0  0  0  0  0  0  0  0  0  0
    2.1779    6.8033   12.5442 N   0  0  0  0  0  0  0  0  0  0  0  0
    2.7707    5.7542   11.9544 C   0  0  0  0  0  0  0  0  0  0  0  0
    3.9867    5.1663   12.3767 N   0  0  0  0  0  0  0  0  0  0  0  0
    2.1698    5.2169   10.8566 N   0  0  0  0  0  0  0  0  0  0  0  0
    1.0223    5.6917   10.3484 C   0  0  0  0  0  0  0  0  0  0  0  0
    0.4756    6.7522   10.9917 N   0  0  0  0  0  0  0  0  0  0  0  0
    0.6674    4.9771    9.2672 N   0  0  0  0  0  0  0  0  0  0  0  0
    1.6122    4.0200    9.0774 C   0  0  0  0  0  0  0  0  0  0  0  0
    2.5024    4.2033   10.0653 N   0  0  0  0  0  0  0  0  0  0  0  0
    1.6244    3.0185    8.0024 C   0  0  0  0  0  0  0  0  0  0  0  0
    0.6589    2.7357    7.0624 C   0  0  0  0  0  0  0  0  0  0  0  0
    1.1247    1.7080    6.2530 C   0  0  0  0  0  0  0  0  0  0  0  0
    2.3874    1.4176    6.7693 C   0  0  0  0  0  0  0  0  0  0  0  0
    2.6047    2.2064    7.7680 O   0  0  0  0  0  0  0  0  0  0  0  0
  1  2  1  0
  2  3  2  0
  3  4  1  0
  4  5  2  0
  5  6  1  0
  6  7  2  0
  5  8  1  0
  8  9  1  0
  9 10  1  0
 10 11  1  0
 11 12  1  0
 12 13  2  0
 13 14  1  0
 13 15  1  0
 15 16  1  0
 16 17  1  0
 16 18  2  0
 18 19  1  0
 19 20  2  0
 19 21  1  0
 21 22  2  0
 22 23  1  0
 23 24  2  0
 24 25  1  0
  7  2  1  0
 17 11  2  0
 25 21  1  0
 20 15  1  0
M  END
$$$$
