
     RDKit          3D

 25 28  0  0  0  0  0  0  0  0999 V2000
    4.1981   11.3185   18.5128 O   0  0  0  0  0  0  0  0  0  0  0  0
    3.6373   10.8387   17.3404 C   0  0  0  0  0  0  0  0  0  0  0  0
    2.7456   11.6436   16.6601 C   0  0  0  0  0  0  0  0  0  0  0  0
    2.1981   11.1537   15.4949 C   0  0  0  0  0  0  0  0  0  0  0  0
    2.5333    9.8930   15.0217 C   0  0  0  0  0  0  0  0  0  0  0  0
    3.4213    9.1172   15.7203 C   0  0  0  0  0  0  0  0  0  0  0  0
    4.0001    9.5694   16.9032 C   0  0  0  0  0  0  0  0  0  0  0  0
    1.9463    9.4262   13.7678 C   0  0  0  0  0  0  0  0  0  0  0  0
    0.7315    8.5631   13.8960 C   0  0  0  0  0  0  0  0  0  0  0  0
    0.2391    8.0026   12.6788 N   0  0  0  0  0  0  0  0  0  0  0  0
    0.9208    6.9380   12.0635 C   0  0  0  0  0  0  0  0  0  0  0  0
    2.0026    6.3986   12.6213 N   0  0  0  0  0  0  0  0  0  0  0  0
    2.6667    5.3887   12.0391 C   0  0  0  0  0  0  0  0  0  0  0  0
    3.8299    4.7747   12.5613 N   0  0  0  0  0  0  0  0  0  0  0  0
    2.2003    4.9223   10.8476 N   0  0  0  0  0  0  0  0  0  0  0  0
    1.1158    5.4288   10.2410 C   0  0  0  0  0  0  0  0  0  0  0  0
    0.4913    6.4466   10.8823 N   0  0  0  0  0  0  0  0  0  0  0  0
    0.8930    4.7842    9.0832 N   0  0  0  0  0  0  0  0  0  0  0  0
    1.8600    3.8407    8.9440 C   0  0  0  0  0  0  0  0  0  0  0  0
    2.6290    3.9606   10.0377 N   0  0  0  0  0  0  0  0  0  0  0  0
    2.0031    2.9093    7.8167 C   0  0  0  0  0  0  0  0  0  0  0  0
    1.1251    2.6395    6.7910 C   0  0  0  0  0  0  0  0  0  0  0  0
    1.7019    1.6871    5.9611 C   0  0  0  0  0  0  0  0  0  0  0  0
    2.9369    1.4259    6.5544 C   0  0  0  0  0  0  0  0  0  0  0  0
    3.0390    2.1609    7.6109 O   0  0  0  0  0  0  0  0  0  0  0  0
  1  2  1  0
  2  3  2  0
  3  4  1  0
  4  5  2  0
  5  6  1  0
  6  7  2  0
  5  8  1  0
  8  9  1  0
  9 10  1  0
 10 11  1  0
 11 12  1  0
 12 13  2  0
 13 14  1  0
 13 15  1  0
 15 16  1  0
 16 17  1  0
 16 18  2  0
 18 19  1  0
 19 20  2  0
 19 21  1  0
 21 22  2  0
 22 23  1  0
 23 24  2  0
 24 25  1  0
  7  2  1  0
 17 11  2  0
 25 21  1  0
 20 15  1  0
M  END
$$$$
