
     RDKit          3D

 25 28  0  0  0  0  0  0  0  0999 V2000
    4.5884   10.8630   18.5752 O   0  0  0  0  0  0  0  0  0  0  0  0
    3.9236   10.5152   17.4107 C   0  0  0  0  0  0  0  0  0  0  0  0
    3.2774    9.2962   17.3610 C   0  0  0  0  0  0  0  0  0  0  0  0
    2.6189    8.9654   16.1972 C   0  0  0  0  0  0  0  0  0  0  0  0
    2.6058    9.8302   15.1120 C   0  0  0  0  0  0  0  0  0  0  0  0
    3.2574   11.0333   15.1920 C   0  0  0  0  0  0  0  0  0  0  0  0
    3.9370   11.4109   16.3471 C   0  0  0  0  0  0  0  0  0  0  0  0
    1.8727    9.4469   13.9077 C   0  0  0  0  0  0  0  0  0  0  0  0
    0.7546    8.4732   14.1050 C   0  0  0  0  0  0  0  0  0  0  0  0
    0.1805    7.9398   12.9117 N   0  0  0  0  0  0  0  0  0  0  0  0
    0.7826    6.8465   12.2644 C   0  0  0  0  0  0  0  0  0  0  0  0
    1.8393    6.2311   12.7905 N   0  0  0  0  0  0  0  0  0  0  0  0
    2.4279    5.1929   12.1776 C   0  0  0  0  0  0  0  0  0  0  0  0
    3.5605    4.4987   12.6652 N   0  0  0  0  0  0  0  0  0  0  0  0
    1.9103    4.7782   10.9881 N   0  0  0  0  0  0  0  0  0  0  0  0
    0.8478    5.3619   10.4126 C   0  0  0  0  0  0  0  0  0  0  0  0
    0.3004    6.4044   11.0840 N   0  0  0  0  0  0  0  0  0  0  0  0
    0.5629    4.7537    9.2488 N   0  0  0  0  0  0  0  0  0  0  0  0
    1.4665    3.7549    9.0736 C   0  0  0  0  0  0  0  0  0  0  0  0
    2.2625    3.8069   10.1533 N   0  0  0  0  0  0  0  0  0  0  0  0
    1.5294    2.8372    7.9279 C   0  0  0  0  0  0  0  0  0  0  0  0
    0.6305    2.6624    6.8997 C   0  0  0  0  0  0  0  0  0  0  0  0
    1.1242    1.6817    6.0496 C   0  0  0  0  0  0  0  0  0  0  0  0
    2.3337    1.3061    6.6339 C   0  0  0  0  0  0  0  0  0  0  0  0
    2.4986    2.0089    7.7043 O   0  0  0  0  0  0  0  0  0  0  0  0
  1  2  1  0
  2  3  2  0
  3  4  1  0
  4  5  2  0
  5  6  1  0
  6  7  2  0
  5  8  1  0
  8  9  1  0
  9 10  1  0
 10 11  1  0
 11 12  1  0
 12 13  2  0
 13 14  1  0
 13 15  1  0
 15 16  1  0
 16 17  1  0
 16 18  2  0
 18 19  1  0
 19 20  2  0
 19 21  1  0
 21 22  2  0
 22 23  1  0
 23 24  2  0
 24 25  1  0
  7  2  1  0
 17 11  2  0
 25 21  1  0
 20 15  1  0
M  END
$$$$
