
     RDKit          3D

 25 28  0  0  0  0  0  0  0  0999 V2000
    4.8434   10.0933   18.7100 O   0  0  0  0  0  0  0  0  0  0  0  0
    3.8626    9.7911   17.7795 C   0  0  0  0  0  0  0  0  0  0  0  0
    3.3610   10.8120   16.9971 C   0  0  0  0  0  0  0  0  0  0  0  0
    2.3879   10.4955   16.0749 C   0  0  0  0  0  0  0  0  0  0  0  0
    1.9287    9.1933   15.9376 C   0  0  0  0  0  0  0  0  0  0  0  0
    2.4461    8.2016   16.7297 C   0  0  0  0  0  0  0  0  0  0  0  0
    3.4306    8.4733   17.6761 C   0  0  0  0  0  0  0  0  0  0  0  0
    0.9136    8.9013   14.9282 C   0  0  0  0  0  0  0  0  0  0  0  0
    1.2638    9.2722   13.5222 C   0  0  0  0  0  0  0  0  0  0  0  0
    0.5747    8.5501   12.5016 N   0  0  0  0  0  0  0  0  0  0  0  0
    1.0869    7.3283   12.0306 C   0  0  0  0  0  0  0  0  0  0  0  0
    2.1202    6.7386   12.6279 N   0  0  0  0  0  0  0  0  0  0  0  0
    2.6235    5.5776   12.1820 C   0  0  0  0  0  0  0  0  0  0  0  0
    3.7265    4.8990   12.7527 N   0  0  0  0  0  0  0  0  0  0  0  0
    2.0430    5.0093   11.0889 N   0  0  0  0  0  0  0  0  0  0  0  0
    1.0005    5.5601   10.4484 C   0  0  0  0  0  0  0  0  0  0  0  0
    0.5403    6.7322   10.9503 N   0  0  0  0  0  0  0  0  0  0  0  0
    0.6410    4.7902    9.4075 N   0  0  0  0  0  0  0  0  0  0  0  0
    1.4751    3.7187    9.3799 C   0  0  0  0  0  0  0  0  0  0  0  0
    2.3075    3.8936   10.4184 N   0  0  0  0  0  0  0  0  0  0  0  0
    1.4441    2.6241    8.4003 C   0  0  0  0  0  0  0  0  0  0  0  0
    0.4768    2.3114    7.4717 C   0  0  0  0  0  0  0  0  0  0  0  0
    0.8936    1.1895    6.7674 C   0  0  0  0  0  0  0  0  0  0  0  0
    2.1303    0.8770    7.3314 C   0  0  0  0  0  0  0  0  0  0  0  0
    2.3792    1.7402    8.2586 O   0  0  0  0  0  0  0  0  0  0  0  0
  1  2  1  0
  2  3  2  0
  3  4  1  0
  4  5  2  0
  5  6  1  0
  6  7  2  0
  5  8  1  0
  8  9  1  0
  9 10  1  0
 10 11  1  0
 11 12  1  0
 12 13  2  0
 13 14  1  0
 13 15  1  0
 15 16  1  0
 16 17  1  0
 16 18  2  0
 18 19  1  0
 19 20  2  0
 19 21  1  0
 21 22  2  0
 22 23  1  0
 23 24  2  0
 24 25  1  0
  7  2  1  0
 17 11  2  0
 25 21  1  0
 20 15  1  0
M  END
$$$$
