
     RDKit          3D

 25 28  0  0  0  0  0  0  0  0999 V2000
    1.4627    1.8772    3.7738 O   0  0  0  0  0  0  0  0  0  0  0  0
    0.9276    2.7064    4.7459 C   0  0  0  0  0  0  0  0  0  0  0  0
    0.8232    4.0560    4.4747 C   0  0  0  0  0  0  0  0  0  0  0  0
    0.2870    4.8675    5.4502 C   0  0  0  0  0  0  0  0  0  0  0  0
   -0.1343    4.3441    6.6643 C   0  0  0  0  0  0  0  0  0  0  0  0
   -0.0167    2.9997    6.9040 C   0  0  0  0  0  0  0  0  0  0  0  0
    0.5194    2.1402    5.9486 C   0  0  0  0  0  0  0  0  0  0  0  0
   -0.7199    5.2401    7.6587 C   0  0  0  0  0  0  0  0  0  0  0  0
   -0.7518    4.7268    9.0631 C   0  0  0  0  0  0  0  0  0  0  0  0
   -0.8051    5.7223   10.0850 N   0  0  0  0  0  0  0  0  0  0  0  0
    0.3010    5.9311   10.9275 C   0  0  0  0  0  0  0  0  0  0  0  0
    1.2712    5.0251   11.0280 N   0  0  0  0  0  0  0  0  0  0  0  0
    2.3266    5.2090   11.8355 C   0  0  0  0  0  0  0  0  0  0  0  0
    3.3873    4.2880   12.0070 N   0  0  0  0  0  0  0  0  0  0  0  0
    2.3820    6.3614   12.5593 N   0  0  0  0  0  0  0  0  0  0  0  0
    1.4325    7.3074   12.4969 C   0  0  0  0  0  0  0  0  0  0  0  0
    0.3940    7.0596   11.6618 N   0  0  0  0  0  0  0  0  0  0  0  0
    1.7422    8.3251   13.3179 N   0  0  0  0  0  0  0  0  0  0  0  0
    2.9203    8.0231   13.9225 C   0  0  0  0  0  0  0  0  0  0  0  0
    3.2710    6.8241   13.4311 N   0  0  0  0  0  0  0  0  0  0  0  0
    3.6260    8.8564   14.9055 C   0  0  0  0  0  0  0  0  0  0  0  0
    3.2845   10.0924   15.4070 C   0  0  0  0  0  0  0  0  0  0  0  0
    4.2610   10.4807   16.3147 C   0  0  0  0  0  0  0  0  0  0  0  0
    5.1685    9.4216   16.3080 C   0  0  0  0  0  0  0  0  0  0  0  0
    4.7398    8.5299   15.4785 O   0  0  0  0  0  0  0  0  0  0  0  0
  1  2  1  0
  2  3  2  0
  3  4  1  0
  4  5  2  0
  5  6  1  0
  6  7  2  0
  5  8  1  0
  8  9  1  0
  9 10  1  0
 10 11  1  0
 11 12  1  0
 12 13  2  0
 13 14  1  0
 13 15  1  0
 15 16  1  0
 16 17  1  0
 16 18  2  0
 18 19  1  0
 19 20  2  0
 19 21  1  0
 21 22  2  0
 22 23  1  0
 23 24  2  0
 24 25  1  0
  7  2  1  0
 17 11  2  0
 25 21  1  0
 20 15  1  0
M  END
$$$$
