
     RDKit          3D

 25 28  0  0  0  0  0  0  0  0999 V2000
    4.0319   11.4590   18.8039 O   0  0  0  0  0  0  0  0  0  0  0  0
    3.5282   11.0037   17.5964 C   0  0  0  0  0  0  0  0  0  0  0  0
    4.1566   11.3960   16.4315 C   0  0  0  0  0  0  0  0  0  0  0  0
    3.6455   10.9333   15.2389 C   0  0  0  0  0  0  0  0  0  0  0  0
    2.5362   10.1001   15.2112 C   0  0  0  0  0  0  0  0  0  0  0  0
    1.9338    9.7288   16.3850 C   0  0  0  0  0  0  0  0  0  0  0  0
    2.4141   10.1716   17.6146 C   0  0  0  0  0  0  0  0  0  0  0  0
    2.0454    9.6142   13.9237 C   0  0  0  0  0  0  0  0  0  0  0  0
    0.7568    8.8557   13.9593 C   0  0  0  0  0  0  0  0  0  0  0  0
    0.2927    8.3645   12.7017 N   0  0  0  0  0  0  0  0  0  0  0  0
    0.9131    7.2536   12.1036 C   0  0  0  0  0  0  0  0  0  0  0  0
    1.9648    6.6648   12.6687 N   0  0  0  0  0  0  0  0  0  0  0  0
    2.5707    5.6101   12.1028 C   0  0  0  0  0  0  0  0  0  0  0  0
    3.6996    4.9418   12.6335 N   0  0  0  0  0  0  0  0  0  0  0  0
    2.0763    5.1501   10.9201 N   0  0  0  0  0  0  0  0  0  0  0  0
    1.0199    5.7053   10.3067 C   0  0  0  0  0  0  0  0  0  0  0  0
    0.4540    6.7667   10.9316 N   0  0  0  0  0  0  0  0  0  0  0  0
    0.7589    5.0545    9.1604 N   0  0  0  0  0  0  0  0  0  0  0  0
    1.6721    4.0568    9.0358 C   0  0  0  0  0  0  0  0  0  0  0  0
    2.4493    4.1526   10.1261 N   0  0  0  0  0  0  0  0  0  0  0  0
    1.7607    3.1000    7.9243 C   0  0  0  0  0  0  0  0  0  0  0  0
    0.8738    2.8727    6.8959 C   0  0  0  0  0  0  0  0  0  0  0  0
    1.3917    1.8709    6.0856 C   0  0  0  0  0  0  0  0  0  0  0  0
    2.6024    1.5377    6.6928 C   0  0  0  0  0  0  0  0  0  0  0  0
    2.7459    2.2812    7.7385 O   0  0  0  0  0  0  0  0  0  0  0  0
  1  2  1  0
  2  3  2  0
  3  4  1  0
  4  5  2  0
  5  6  1  0
  6  7  2  0
  5  8  1  0
  8  9  1  0
  9 10  1  0
 10 11  1  0
 11 12  1  0
 12 13  2  0
 13 14  1  0
 13 15  1  0
 15 16  1  0
 16 17  1  0
 16 18  2  0
 18 19  1  0
 19 20  2  0
 19 21  1  0
 21 22  2  0
 22 23  1  0
 23 24  2  0
 24 25  1  0
  7  2  1  0
 17 11  2  0
 25 21  1  0
 20 15  1  0
M  END
$$$$
