
     RDKit          3D

 25 28  0  0  0  0  0  0  0  0999 V2000
    2.3651    0.7708    6.2129 O   0  0  0  0  0  0  0  0  0  0  0  0
    1.4408    1.6928    6.6763 C   0  0  0  0  0  0  0  0  0  0  0  0
    1.0623    2.7228    5.8387 C   0  0  0  0  0  0  0  0  0  0  0  0
    0.1407    3.6303    6.3127 C   0  0  0  0  0  0  0  0  0  0  0  0
   -0.3891    3.5113    7.5897 C   0  0  0  0  0  0  0  0  0  0  0  0
    0.0074    2.4778    8.3980 C   0  0  0  0  0  0  0  0  0  0  0  0
    0.9365    1.5365    7.9628 C   0  0  0  0  0  0  0  0  0  0  0  0
   -1.3827    4.4835    8.0395 C   0  0  0  0  0  0  0  0  0  0  0  0
   -0.9801    5.9209    7.9456 C   0  0  0  0  0  0  0  0  0  0  0  0
   -1.4102    6.7557    9.0209 N   0  0  0  0  0  0  0  0  0  0  0  0
   -0.6026    6.9131   10.1610 C   0  0  0  0  0  0  0  0  0  0  0  0
   -0.9368    7.7626   11.1299 N   0  0  0  0  0  0  0  0  0  0  0  0
   -0.1694    7.9282   12.2179 C   0  0  0  0  0  0  0  0  0  0  0  0
   -0.4493    8.8206   13.2800 N   0  0  0  0  0  0  0  0  0  0  0  0
    0.9750    7.1954   12.3081 N   0  0  0  0  0  0  0  0  0  0  0  0
    1.3598    6.3257   11.3615 C   0  0  0  0  0  0  0  0  0  0  0  0
    0.5396    6.2058   10.2890 N   0  0  0  0  0  0  0  0  0  0  0  0
    2.5246    5.7529   11.7090 N   0  0  0  0  0  0  0  0  0  0  0  0
    2.8960    6.2693   12.9090 C   0  0  0  0  0  0  0  0  0  0  0  0
    1.9259    7.1385   13.2337 N   0  0  0  0  0  0  0  0  0  0  0  0
    4.1130    5.9274   13.6579 C   0  0  0  0  0  0  0  0  0  0  0  0
    5.0346    4.9329   13.4180 C   0  0  0  0  0  0  0  0  0  0  0  0
    6.0171    5.0022   14.3969 C   0  0  0  0  0  0  0  0  0  0  0  0
    5.6181    6.0700   15.2006 C   0  0  0  0  0  0  0  0  0  0  0  0
    4.5213    6.5496   14.7170 O   0  0  0  0  0  0  0  0  0  0  0  0
  1  2  1  0
  2  3  2  0
  3  4  1  0
  4  5  2  0
  5  6  1  0
  6  7  2  0
  5  8  1  0
  8  9  1  0
  9 10  1  0
 10 11  1  0
 11 12  1  0
 12 13  2  0
 13 14  1  0
 13 15  1  0
 15 16  1  0
 16 17  1  0
 16 18  2  0
 18 19  1  0
 19 20  2  0
 19 21  1  0
 21 22  2  0
 22 23  1  0
 23 24  2  0
 24 25  1  0
  7  2  1  0
 17 11  2  0
 25 21  1  0
 20 15  1  0
M  END
$$$$
