
     RDKit          3D

 25 28  0  0  0  0  0  0  0  0999 V2000
    5.4736    7.7416   17.7925 O   0  0  0  0  0  0  0  0  0  0  0  0
    4.5878    8.1827   16.8230 C   0  0  0  0  0  0  0  0  0  0  0  0
    3.5294    8.9790   17.2121 C   0  0  0  0  0  0  0  0  0  0  0  0
    2.6584    9.4115   16.2365 C   0  0  0  0  0  0  0  0  0  0  0  0
    2.8407    9.0582   14.9070 C   0  0  0  0  0  0  0  0  0  0  0  0
    3.9011    8.2656   14.5522 C   0  0  0  0  0  0  0  0  0  0  0  0
    4.8073    7.8038   15.5031 C   0  0  0  0  0  0  0  0  0  0  0  0
    1.9054    9.5618   13.9040 C   0  0  0  0  0  0  0  0  0  0  0  0
    0.5527    8.9238   13.8927 C   0  0  0  0  0  0  0  0  0  0  0  0
    0.0744    8.5094   12.6130 N   0  0  0  0  0  0  0  0  0  0  0  0
    0.5531    7.3234   12.0289 C   0  0  0  0  0  0  0  0  0  0  0  0
    1.4393    6.5546   12.6580 N   0  0  0  0  0  0  0  0  0  0  0  0
    1.9103    5.4258   12.1068 C   0  0  0  0  0  0  0  0  0  0  0  0
    2.8622    4.5664   12.7052 N   0  0  0  0  0  0  0  0  0  0  0  0
    1.4527    5.0808   10.8713 N   0  0  0  0  0  0  0  0  0  0  0  0
    0.5606    5.8183   10.1926 C   0  0  0  0  0  0  0  0  0  0  0  0
    0.1249    6.9458   10.8060 N   0  0  0  0  0  0  0  0  0  0  0  0
    0.2977    5.2454    9.0059 N   0  0  0  0  0  0  0  0  0  0  0  0
    1.0410    4.1118    8.9218 C   0  0  0  0  0  0  0  0  0  0  0  0
    1.7243    4.0524   10.0757 N   0  0  0  0  0  0  0  0  0  0  0  0
    1.0679    3.1778    7.7878 C   0  0  0  0  0  0  0  0  0  0  0  0
    0.2394    3.1144    6.6899 C   0  0  0  0  0  0  0  0  0  0  0  0
    0.6589    2.0626    5.8861 C   0  0  0  0  0  0  0  0  0  0  0  0
    1.7531    1.5316    6.5688 C   0  0  0  0  0  0  0  0  0  0  0  0
    1.9272    2.2201    7.6470 O   0  0  0  0  0  0  0  0  0  0  0  0
  1  2  1  0
  2  3  2  0
  3  4  1  0
  4  5  2  0
  5  6  1  0
  6  7  2  0
  5  8  1  0
  8  9  1  0
  9 10  1  0
 10 11  1  0
 11 12  1  0
 12 13  2  0
 13 14  1  0
 13 15  1  0
 15 16  1  0
 16 17  1  0
 16 18  2  0
 18 19  1  0
 19 20  2  0
 19 21  1  0
 21 22  2  0
 22 23  1  0
 23 24  2  0
 24 25  1  0
  7  2  1  0
 17 11  2  0
 25 21  1  0
 20 15  1  0
M  END
$$$$
