
     RDKit          3D

 25 28  0  0  0  0  0  0  0  0999 V2000
    3.5521    9.3941   18.7546 O   0  0  0  0  0  0  0  0  0  0  0  0
    3.1828    9.3039   17.4226 C   0  0  0  0  0  0  0  0  0  0  0  0
    2.2359   10.1856   16.9412 C   0  0  0  0  0  0  0  0  0  0  0  0
    1.8805   10.0851   15.6141 C   0  0  0  0  0  0  0  0  0  0  0  0
    2.4567    9.1291   14.7897 C   0  0  0  0  0  0  0  0  0  0  0  0
    3.3937    8.2672   15.2975 C   0  0  0  0  0  0  0  0  0  0  0  0
    3.7843    8.3303   16.6325 C   0  0  0  0  0  0  0  0  0  0  0  0
    2.0666    9.0770   13.3826 C   0  0  0  0  0  0  0  0  0  0  0  0
    0.6046    9.2239   13.1036 C   0  0  0  0  0  0  0  0  0  0  0  0
   -0.0892    8.0174   12.7856 N   0  0  0  0  0  0  0  0  0  0  0  0
    0.6020    6.9324   12.2181 C   0  0  0  0  0  0  0  0  0  0  0  0
    1.7610    6.5144   12.7223 N   0  0  0  0  0  0  0  0  0  0  0  0
    2.4341    5.4864   12.1838 C   0  0  0  0  0  0  0  0  0  0  0  0
    3.6757    4.9949   12.6526 N   0  0  0  0  0  0  0  0  0  0  0  0
    1.8950    4.8724   11.0943 N   0  0  0  0  0  0  0  0  0  0  0  0
    0.7311    5.2525   10.5453 C   0  0  0  0  0  0  0  0  0  0  0  0
    0.1020    6.2967   11.1378 N   0  0  0  0  0  0  0  0  0  0  0  0
    0.4484    4.4783    9.4839 N   0  0  0  0  0  0  0  0  0  0  0  0
    1.4576    3.5794    9.3490 C   0  0  0  0  0  0  0  0  0  0  0  0
    2.3110    3.8555   10.3477 N   0  0  0  0  0  0  0  0  0  0  0  0
    1.5596    2.5435    8.3120 C   0  0  0  0  0  0  0  0  0  0  0  0
    0.6458    2.1810    7.3480 C   0  0  0  0  0  0  0  0  0  0  0  0
    1.1917    1.1507    6.5938 C   0  0  0  0  0  0  0  0  0  0  0  0
    2.4462    0.9414    7.1661 C   0  0  0  0  0  0  0  0  0  0  0  0
    2.5865    1.7738    8.1431 O   0  0  0  0  0  0  0  0  0  0  0  0
  1  2  1  0
  2  3  2  0
  3  4  1  0
  4  5  2  0
  5  6  1  0
  6  7  2  0
  5  8  1  0
  8  9  1  0
  9 10  1  0
 10 11  1  0
 11 12  1  0
 12 13  2  0
 13 14  1  0
 13 15  1  0
 15 16  1  0
 16 17  1  0
 16 18  2  0
 18 19  1  0
 19 20  2  0
 19 21  1  0
 21 22  2  0
 22 23  1  0
 23 24  2  0
 24 25  1  0
  7  2  1  0
 17 11  2  0
 25 21  1  0
 20 15  1  0
M  END
$$$$
