
     RDKit          3D

 25 28  0  0  0  0  0  0  0  0999 V2000
    3.7398   10.9585   18.8309 O   0  0  0  0  0  0  0  0  0  0  0  0
    3.3115   10.5052   17.5940 C   0  0  0  0  0  0  0  0  0  0  0  0
    4.2375    9.9283   16.7480 C   0  0  0  0  0  0  0  0  0  0  0  0
    3.7961    9.4804   15.5224 C   0  0  0  0  0  0  0  0  0  0  0  0
    2.4646    9.6051   15.1522 C   0  0  0  0  0  0  0  0  0  0  0  0
    1.5693   10.1832   16.0140 C   0  0  0  0  0  0  0  0  0  0  0  0
    1.9687   10.6513   17.2631 C   0  0  0  0  0  0  0  0  0  0  0  0
    2.0382    9.0923   13.8522 C   0  0  0  0  0  0  0  0  0  0  0  0
    0.5611    9.0369   13.6237 C   0  0  0  0  0  0  0  0  0  0  0  0
    0.1495    8.5199   12.3582 N   0  0  0  0  0  0  0  0  0  0  0  0
    0.7268    7.3412   11.8540 C   0  0  0  0  0  0  0  0  0  0  0  0
    1.7087    6.7217   12.5053 N   0  0  0  0  0  0  0  0  0  0  0  0
    2.2736    5.6018   12.0293 C   0  0  0  0  0  0  0  0  0  0  0  0
    3.3290    4.8964   12.6547 N   0  0  0  0  0  0  0  0  0  0  0  0
    1.8109    5.1072   10.8477 N   0  0  0  0  0  0  0  0  0  0  0  0
    0.8247    5.6909   10.1498 C   0  0  0  0  0  0  0  0  0  0  0  0
    0.2972    6.8183   10.6863 N   0  0  0  0  0  0  0  0  0  0  0  0
    0.5807    4.9940    9.0271 N   0  0  0  0  0  0  0  0  0  0  0  0
    1.4331    3.9368    9.0047 C   0  0  0  0  0  0  0  0  0  0  0  0
    2.1588    4.0458   10.1288 N   0  0  0  0  0  0  0  0  0  0  0  0
    1.5162    2.9154    7.9518 C   0  0  0  0  0  0  0  0  0  0  0  0
    0.6436    2.6538    6.9193 C   0  0  0  0  0  0  0  0  0  0  0  0
    1.1485    1.5931    6.1787 C   0  0  0  0  0  0  0  0  0  0  0  0
    2.3369    1.2623    6.8296 C   0  0  0  0  0  0  0  0  0  0  0  0
    2.4810    2.0606    7.8340 O   0  0  0  0  0  0  0  0  0  0  0  0
  1  2  1  0
  2  3  2  0
  3  4  1  0
  4  5  2  0
  5  6  1  0
  6  7  2  0
  5  8  1  0
  8  9  1  0
  9 10  1  0
 10 11  1  0
 11 12  1  0
 12 13  2  0
 13 14  1  0
 13 15  1  0
 15 16  1  0
 16 17  1  0
 16 18  2  0
 18 19  1  0
 19 20  2  0
 19 21  1  0
 21 22  2  0
 22 23  1  0
 23 24  2  0
 24 25  1  0
  7  2  1  0
 17 11  2  0
 25 21  1  0
 20 15  1  0
M  END
$$$$
