
     RDKit          3D

 25 28  0  0  0  0  0  0  0  0999 V2000
    4.6167    9.9437   18.9046 O   0  0  0  0  0  0  0  0  0  0  0  0
    3.6895    9.7473   17.8942 C   0  0  0  0  0  0  0  0  0  0  0  0
    4.0524   10.0574   16.5988 C   0  0  0  0  0  0  0  0  0  0  0  0
    3.1205    9.8546   15.6048 C   0  0  0  0  0  0  0  0  0  0  0  0
    1.8597    9.3543   15.8974 C   0  0  0  0  0  0  0  0  0  0  0  0
    1.5291    9.0565   17.1938 C   0  0  0  0  0  0  0  0  0  0  0  0
    2.4374    9.2454   18.2321 C   0  0  0  0  0  0  0  0  0  0  0  0
    0.9135    9.1320   14.8066 C   0  0  0  0  0  0  0  0  0  0  0  0
    1.4488    9.3358   13.4250 C   0  0  0  0  0  0  0  0  0  0  0  0
    0.7510    8.6524   12.3837 N   0  0  0  0  0  0  0  0  0  0  0  0
    1.2444    7.4351   11.8821 C   0  0  0  0  0  0  0  0  0  0  0  0
    2.3070    6.8460   12.4261 N   0  0  0  0  0  0  0  0  0  0  0  0
    2.7925    5.6894   11.9503 C   0  0  0  0  0  0  0  0  0  0  0  0
    3.9237    5.0117   12.4639 N   0  0  0  0  0  0  0  0  0  0  0  0
    2.1624    5.1248   10.8830 N   0  0  0  0  0  0  0  0  0  0  0  0
    1.0886    5.6752   10.2960 C   0  0  0  0  0  0  0  0  0  0  0  0
    0.6489    6.8428   10.8258 N   0  0  0  0  0  0  0  0  0  0  0  0
    0.6824    4.9096    9.2691 N   0  0  0  0  0  0  0  0  0  0  0  0
    1.5180    3.8413    9.1958 C   0  0  0  0  0  0  0  0  0  0  0  0
    2.3984    4.0137   10.1944 N   0  0  0  0  0  0  0  0  0  0  0  0
    1.4441    2.7519    8.2127 C   0  0  0  0  0  0  0  0  0  0  0  0
    0.4390    2.4467    7.3225 C   0  0  0  0  0  0  0  0  0  0  0  0
    0.8235    1.3274    6.5962 C   0  0  0  0  0  0  0  0  0  0  0  0
    2.0811    1.0084    7.1080 C   0  0  0  0  0  0  0  0  0  0  0  0
    2.3699    1.8662    8.0288 O   0  0  0  0  0  0  0  0  0  0  0  0
  1  2  1  0
  2  3  2  0
  3  4  1  0
  4  5  2  0
  5  6  1  0
  6  7  2  0
  5  8  1  0
  8  9  1  0
  9 10  1  0
 10 11  1  0
 11 12  1  0
 12 13  2  0
 13 14  1  0
 13 15  1  0
 15 16  1  0
 16 17  1  0
 16 18  2  0
 18 19  1  0
 19 20  2  0
 19 21  1  0
 21 22  2  0
 22 23  1  0
 23 24  2  0
 24 25  1  0
  7  2  1  0
 17 11  2  0
 25 21  1  0
 20 15  1  0
M  END
$$$$
