
     RDKit          3D

 25 28  0  0  0  0  0  0  0  0999 V2000
    4.6046    9.4840   18.4259 O   0  0  0  0  0  0  0  0  0  0  0  0
    3.9997    8.9696   17.2908 C   0  0  0  0  0  0  0  0  0  0  0  0
    3.5846    7.6530   17.3058 C   0  0  0  0  0  0  0  0  0  0  0  0
    2.9827    7.1564   16.1706 C   0  0  0  0  0  0  0  0  0  0  0  0
    2.7998    7.9546   15.0503 C   0  0  0  0  0  0  0  0  0  0  0  0
    3.2235    9.2580   15.0661 C   0  0  0  0  0  0  0  0  0  0  0  0
    3.8375    9.8040   16.1902 C   0  0  0  0  0  0  0  0  0  0  0  0
    2.1336    7.3912   13.8784 C   0  0  0  0  0  0  0  0  0  0  0  0
    1.7469    8.3677   12.8135 C   0  0  0  0  0  0  0  0  0  0  0  0
    0.4521    8.1803   12.2423 N   0  0  0  0  0  0  0  0  0  0  0  0
    0.1748    7.0322   11.4794 C   0  0  0  0  0  0  0  0  0  0  0  0
   -1.0739    6.6040   11.3081 N   0  0  0  0  0  0  0  0  0  0  0  0
   -1.3500    5.5048   10.5902 C   0  0  0  0  0  0  0  0  0  0  0  0
   -2.6466    4.9798   10.3763 N   0  0  0  0  0  0  0  0  0  0  0  0
   -0.3070    4.8291   10.0329 N   0  0  0  0  0  0  0  0  0  0  0  0
    0.9702    5.2157   10.1737 C   0  0  0  0  0  0  0  0  0  0  0  0
    1.1798    6.3341   10.9103 N   0  0  0  0  0  0  0  0  0  0  0  0
    1.7830    4.3631    9.5271 N   0  0  0  0  0  0  0  0  0  0  0  0
    1.0066    3.4051    8.9577 C   0  0  0  0  0  0  0  0  0  0  0  0
   -0.2530    3.7292    9.2901 N   0  0  0  0  0  0  0  0  0  0  0  0
    1.4834    2.2675    8.1594 C   0  0  0  0  0  0  0  0  0  0  0  0
    2.7706    1.9253    7.8102 C   0  0  0  0  0  0  0  0  0  0  0  0
    2.7230    0.7645    7.0495 C   0  0  0  0  0  0  0  0  0  0  0  0
    1.3631    0.4626    6.9789 C   0  0  0  0  0  0  0  0  0  0  0  0
    0.7160    1.3660    7.6362 O   0  0  0  0  0  0  0  0  0  0  0  0
  1  2  1  0
  2  3  2  0
  3  4  1  0
  4  5  2  0
  5  6  1  0
  6  7  2  0
  5  8  1  0
  8  9  1  0
  9 10  1  0
 10 11  1  0
 11 12  1  0
 12 13  2  0
 13 14  1  0
 13 15  1  0
 15 16  1  0
 16 17  1  0
 16 18  2  0
 18 19  1  0
 19 20  2  0
 19 21  1  0
 21 22  2  0
 22 23  1  0
 23 24  2  0
 24 25  1  0
  7  2  1  0
 17 11  2  0
 25 21  1  0
 20 15  1  0
M  END
$$$$
