
     RDKit          3D

 25 28  0  0  0  0  0  0  0  0999 V2000
    5.1303    9.4142   17.4581 O   0  0  0  0  0  0  0  0  0  0  0  0
    3.9477    9.3972   16.7369 C   0  0  0  0  0  0  0  0  0  0  0  0
    3.9820    9.7710   15.4083 C   0  0  0  0  0  0  0  0  0  0  0  0
    2.7986    9.7468   14.7036 C   0  0  0  0  0  0  0  0  0  0  0  0
    1.6125    9.3586   15.3103 C   0  0  0  0  0  0  0  0  0  0  0  0
    1.6108    8.9937   16.6315 C   0  0  0  0  0  0  0  0  0  0  0  0
    2.7820    9.0029   17.3845 C   0  0  0  0  0  0  0  0  0  0  0  0
    0.3868    9.3245   14.5159 C   0  0  0  0  0  0  0  0  0  0  0  0
    0.5571    9.5168   13.0424 C   0  0  0  0  0  0  0  0  0  0  0  0
   -0.0981    8.5572   12.2131 N   0  0  0  0  0  0  0  0  0  0  0  0
    0.5971    7.4226   11.7588 C   0  0  0  0  0  0  0  0  0  0  0  0
    1.6719    6.9705   12.4011 N   0  0  0  0  0  0  0  0  0  0  0  0
    2.3489    5.8946   11.9718 C   0  0  0  0  0  0  0  0  0  0  0  0
    3.5060    5.3642   12.5903 N   0  0  0  0  0  0  0  0  0  0  0  0
    1.9029    5.2677   10.8480 N   0  0  0  0  0  0  0  0  0  0  0  0
    0.8263    5.6806   10.1619 C   0  0  0  0  0  0  0  0  0  0  0  0
    0.1880    6.7726   10.6492 N   0  0  0  0  0  0  0  0  0  0  0  0
    0.6241    4.8832    9.0994 N   0  0  0  0  0  0  0  0  0  0  0  0
    1.5967    3.9352    9.1046 C   0  0  0  0  0  0  0  0  0  0  0  0
    2.3479    4.2073   10.1832 N   0  0  0  0  0  0  0  0  0  0  0  0
    1.7609    2.8598    8.1169 C   0  0  0  0  0  0  0  0  0  0  0  0
    2.7707    1.9315    7.9975 C   0  0  0  0  0  0  0  0  0  0  0  0
    2.4885    1.1162    6.9095 C   0  0  0  0  0  0  0  0  0  0  0  0
    1.2840    1.6170    6.4158 C   0  0  0  0  0  0  0  0  0  0  0  0
    0.9290    2.6132    7.1563 O   0  0  0  0  0  0  0  0  0  0  0  0
  1  2  1  0
  2  3  2  0
  3  4  1  0
  4  5  2  0
  5  6  1  0
  6  7  2  0
  5  8  1  0
  8  9  1  0
  9 10  1  0
 10 11  1  0
 11 12  1  0
 12 13  2  0
 13 14  1  0
 13 15  1  0
 15 16  1  0
 16 17  1  0
 16 18  2  0
 18 19  1  0
 19 20  2  0
 19 21  1  0
 21 22  2  0
 22 23  1  0
 23 24  2  0
 24 25  1  0
  7  2  1  0
 17 11  2  0
 25 21  1  0
 20 15  1  0
M  END
$$$$
