
     RDKit          3D

 25 28  0  0  0  0  0  0  0  0999 V2000
    1.3588    0.0951    5.1724 O   0  0  0  0  0  0  0  0  0  0  0  0
    0.8149    1.1577    5.8754 C   0  0  0  0  0  0  0  0  0  0  0  0
    0.8127    2.4054    5.2844 C   0  0  0  0  0  0  0  0  0  0  0  0
    0.2665    3.4515    5.9949 C   0  0  0  0  0  0  0  0  0  0  0  0
   -0.2642    3.2560    7.2620 C   0  0  0  0  0  0  0  0  0  0  0  0
   -0.2466    2.0052    7.8222 C   0  0  0  0  0  0  0  0  0  0  0  0
    0.2953    0.9174    7.1427 C   0  0  0  0  0  0  0  0  0  0  0  0
   -0.8556    4.3909    7.9668 C   0  0  0  0  0  0  0  0  0  0  0  0
   -0.2541    5.7285    7.6731 C   0  0  0  0  0  0  0  0  0  0  0  0
   -0.2927    6.6729    8.7430 N   0  0  0  0  0  0  0  0  0  0  0  0
    0.6379    6.5901    9.7937 C   0  0  0  0  0  0  0  0  0  0  0  0
    1.4995    5.5784    9.8726 N   0  0  0  0  0  0  0  0  0  0  0  0
    2.3856    5.4837   10.8754 C   0  0  0  0  0  0  0  0  0  0  0  0
    3.3205    4.4335   11.0356 N   0  0  0  0  0  0  0  0  0  0  0  0
    2.3823    6.4617   11.8232 N   0  0  0  0  0  0  0  0  0  0  0  0
    1.5364    7.5029   11.7929 C   0  0  0  0  0  0  0  0  0  0  0  0
    0.6675    7.5387   10.7531 N   0  0  0  0  0  0  0  0  0  0  0  0
    1.7525    8.3024   12.8511 N   0  0  0  0  0  0  0  0  0  0  0  0
    2.7627    7.7591   13.5785 C   0  0  0  0  0  0  0  0  0  0  0  0
    3.1137    6.6452   12.9167 N   0  0  0  0  0  0  0  0  0  0  0  0
    3.3204    8.3032   14.8242 C   0  0  0  0  0  0  0  0  0  0  0  0
    2.8869    9.3674   15.5826 C   0  0  0  0  0  0  0  0  0  0  0  0
    3.7345    9.5000   16.6745 C   0  0  0  0  0  0  0  0  0  0  0  0
    4.6645    8.4742   16.5065 C   0  0  0  0  0  0  0  0  0  0  0  0
    4.3645    7.8322   15.4272 O   0  0  0  0  0  0  0  0  0  0  0  0
  1  2  1  0
  2  3  2  0
  3  4  1  0
  4  5  2  0
  5  6  1  0
  6  7  2  0
  5  8  1  0
  8  9  1  0
  9 10  1  0
 10 11  1  0
 11 12  1  0
 12 13  2  0
 13 14  1  0
 13 15  1  0
 15 16  1  0
 16 17  1  0
 16 18  2  0
 18 19  1  0
 19 20  2  0
 19 21  1  0
 21 22  2  0
 22 23  1  0
 23 24  2  0
 24 25  1  0
  7  2  1  0
 17 11  2  0
 25 21  1  0
 20 15  1  0
M  END
$$$$
