
     RDKit          3D

 25 28  0  0  0  0  0  0  0  0999 V2000
    5.6699    7.9893   18.2795 O   0  0  0  0  0  0  0  0  0  0  0  0
    4.6320    8.1584   17.3778 C   0  0  0  0  0  0  0  0  0  0  0  0
    4.9225    8.1350   16.0284 C   0  0  0  0  0  0  0  0  0  0  0  0
    3.8797    8.3024   15.1440 C   0  0  0  0  0  0  0  0  0  0  0  0
    2.5809    8.4874   15.5961 C   0  0  0  0  0  0  0  0  0  0  0  0
    2.3245    8.5065   16.9424 C   0  0  0  0  0  0  0  0  0  0  0  0
    3.3461    8.3423   17.8742 C   0  0  0  0  0  0  0  0  0  0  0  0
    1.5038    8.6353   14.6201 C   0  0  0  0  0  0  0  0  0  0  0  0
    1.9192    8.6374   13.1832 C   0  0  0  0  0  0  0  0  0  0  0  0
    0.8698    8.8356   12.2358 N   0  0  0  0  0  0  0  0  0  0  0  0
    0.5954    7.8530   11.2683 C   0  0  0  0  0  0  0  0  0  0  0  0
   -0.5078    7.9072   10.5251 N   0  0  0  0  0  0  0  0  0  0  0  0
   -0.7849    6.9705    9.6054 C   0  0  0  0  0  0  0  0  0  0  0  0
   -1.9412    6.9514    8.7898 N   0  0  0  0  0  0  0  0  0  0  0  0
    0.1025    5.9494    9.4484 N   0  0  0  0  0  0  0  0  0  0  0  0
    1.2288    5.8454   10.1702 C   0  0  0  0  0  0  0  0  0  0  0  0
    1.4490    6.8246   11.0813 N   0  0  0  0  0  0  0  0  0  0  0  0
    1.9059    4.7420    9.8102 N   0  0  0  0  0  0  0  0  0  0  0  0
    1.1946    4.1225    8.8329 C   0  0  0  0  0  0  0  0  0  0  0  0
    0.1100    4.8910    8.6458 N   0  0  0  0  0  0  0  0  0  0  0  0
    1.5651    2.8735    8.1536 C   0  0  0  0  0  0  0  0  0  0  0  0
    2.6457    2.0487    8.3724 C   0  0  0  0  0  0  0  0  0  0  0  0
    2.5696    0.9839    7.4843 C   0  0  0  0  0  0  0  0  0  0  0  0
    1.4086    1.2360    6.7536 C   0  0  0  0  0  0  0  0  0  0  0  0
    0.8880    2.3333    7.1917 O   0  0  0  0  0  0  0  0  0  0  0  0
  1  2  1  0
  2  3  2  0
  3  4  1  0
  4  5  2  0
  5  6  1  0
  6  7  2  0
  5  8  1  0
  8  9  1  0
  9 10  1  0
 10 11  1  0
 11 12  1  0
 12 13  2  0
 13 14  1  0
 13 15  1  0
 15 16  1  0
 16 17  1  0
 16 18  2  0
 18 19  1  0
 19 20  2  0
 19 21  1  0
 21 22  2  0
 22 23  1  0
 23 24  2  0
 24 25  1  0
  7  2  1  0
 17 11  2  0
 25 21  1  0
 20 15  1  0
M  END
$$$$
