
     RDKit          3D

 47 53  0  0  0  0  0  0  0  0999 V2000
   -2.4588   -4.1875    3.7801 C   0  0  0  0  0  0  0  0  0  0  0  0
   -2.3946   -3.7729    5.2129 C   0  0  0  0  0  0  0  0  0  0  0  0
   -2.2733   -2.2463    5.3129 C   0  0  0  0  0  0  0  0  0  0  0  0
   -2.3060   -1.8321    6.7368 C   0  0  0  0  0  0  0  0  0  0  0  0
   -3.2291   -2.4218    7.5446 N   0  0  0  0  0  0  0  0  0  0  0  0
   -3.3612   -2.1137    8.8453 C   0  0  0  0  0  0  0  0  0  0  0  0
   -2.5133   -1.1634    9.3386 C   0  0  0  0  0  0  0  0  0  0  0  0
   -2.6258   -0.8206   10.6684 C   0  0  0  0  0  0  0  0  0  0  0  0
   -3.5524   -1.3947   11.5134 C   0  0  0  0  0  0  0  0  0  0  0  0
   -4.3952   -2.3478   11.0020 C   0  0  0  0  0  0  0  0  0  0  0  0
   -4.2982   -2.7069    9.6663 C   0  0  0  0  0  0  0  0  0  0  0  0
   -3.6441   -1.0018   12.8931 N   0  0  0  0  0  0  0  0  0  0  0  0
   -4.2625    0.2462   13.2682 C   0  0  0  0  0  0  0  0  0  0  0  0
   -3.3311    1.4130   13.0439 C   0  0  0  0  0  0  0  0  0  0  0  0
   -1.9737    1.4405   13.2602 C   0  0  0  0  0  0  0  0  0  0  0  0
   -1.5319    2.6899   12.9296 C   0  0  0  0  0  0  0  0  0  0  0  0
   -2.6367    3.3931   12.5189 C   0  0  0  0  0  0  0  0  0  0  0  0
   -3.6665    2.5992   12.6045 O   0  0  0  0  0  0  0  0  0  0  0  0
   -3.1208   -1.8869   13.8607 C   0  0  0  0  0  0  0  0  0  0  0  0
   -3.1927   -1.5608   15.0891 O   0  0  0  0  0  0  0  0  0  0  0  0
   -2.5004   -3.1703   13.4888 C   0  0  0  0  0  0  0  0  0  0  0  0
   -3.2063   -4.0999   12.7664 C   0  0  0  0  0  0  0  0  0  0  0  0
   -2.6500   -5.3181   12.3889 C   0  0  0  0  0  0  0  0  0  0  0  0
   -1.3524   -5.6215   12.7400 C   0  0  0  0  0  0  0  0  0  0  0  0
   -0.6487   -4.6751   13.4703 C   0  0  0  0  0  0  0  0  0  0  0  0
   -1.2068   -3.4725   13.8394 C   0  0  0  0  0  0  0  0  0  0  0  0
   -1.5897   -0.5856    8.4933 C   0  0  0  0  0  0  0  0  0  0  0  0
   -0.8447    0.2807    9.0140 O   0  0  0  0  0  0  0  0  0  0  0  0
   -1.4551   -0.8930    7.1860 N   0  0  0  0  0  0  0  0  0  0  0  0
   -0.4674   -0.2124    6.4007 C   0  0  0  0  0  0  0  0  0  0  0  0
    0.8583   -0.0482    6.9523 C   0  0  0  0  0  0  0  0  0  0  0  0
    1.8145    0.6435    6.2163 C   0  0  0  0  0  0  0  0  0  0  0  0
    3.1015    0.8492    6.6551 C   0  0  0  0  0  0  0  0  0  0  0  0
    3.4923    0.3598    7.8769 C   0  0  0  0  0  0  0  0  0  0  0  0
    2.5692   -0.3314    8.6337 C   0  0  0  0  0  0  0  0  0  0  0  0
    1.2780   -0.5233    8.1651 C   0  0  0  0  0  0  0  0  0  0  0  0
    4.8707    0.5700    8.3684 C   0  0  0  0  0  0  0  0  0  0  0  0
    5.4906    1.7831    8.3203 C   0  0  0  0  0  0  0  0  0  0  0  0
    6.7851    1.9464    8.7919 C   0  0  0  0  0  0  0  0  0  0  0  0
    7.4589    0.8693    9.3183 C   0  0  0  0  0  0  0  0  0  0  0  0
    6.8163   -0.3385    9.3568 C   0  0  0  0  0  0  0  0  0  0  0  0
    5.5307   -0.5376    8.8970 C   0  0  0  0  0  0  0  0  0  0  0  0
    4.8830   -1.8400    8.9581 C   0  0  0  0  0  0  0  0  0  0  0  0
    4.4507   -2.6230    7.9599 N   0  0  0  0  0  0  0  0  0  0  0  0
    3.9239   -3.7215    8.4347 N   0  0  0  0  0  0  0  0  0  0  0  0
    4.0036   -3.6726    9.7566 N   0  0  0  0  0  0  0  0  0  0  0  0
    4.5955   -2.5120   10.0821 N   0  0  0  0  0  0  0  0  0  0  0  0
  1  2  1  0
  2  3  1  0
  3  4  1  0
  4  5  2  0
  5  6  1  0
  6  7  2  0
  7  8  1  0
  8  9  2  0
  9 10  1  0
 10 11  2  0
  9 12  1  0
 12 13  1  0
 13 14  1  0
 14 15  2  0
 15 16  1  0
 16 17  2  0
 17 18  1  0
 12 19  1  0
 19 20  2  0
 19 21  1  0
 21 22  2  0
 22 23  1  0
 23 24  2  0
 24 25  1  0
 25 26  2  0
  7 27  1  0
 27 28  2  0
 27 29  1  0
 29 30  1  0
 30 31  1  0
 31 32  2  0
 32 33  1  0
 33 34  2  0
 34 35  1  0
 35 36  2  0
 34 37  1  0
 37 38  2  0
 38 39  1  0
 39 40  2  0
 40 41  1  0
 41 42  2  0
 42 43  1  0
 43 44  2  0
 44 45  1  0
 45 46  1  0
 46 47  2  0
 29  4  1  0
 11  6  1  0
 18 14  1  0
 26 21  1  0
 36 31  1  0
 42 37  1  0
 47 43  1  0
M  END
$$$$
