
     RDKit          3D

 47 53  0  0  0  0  0  0  0  0999 V2000
   -2.4077   -3.6550    3.9590 C   0  0  0  0  0  0  0  0  0  0  0  0
   -1.4944   -2.5999    4.4899 C   0  0  0  0  0  0  0  0  0  0  0  0
   -2.3081   -1.3791    4.9402 C   0  0  0  0  0  0  0  0  0  0  0  0
   -2.2414   -1.2478    6.4161 C   0  0  0  0  0  0  0  0  0  0  0  0
   -3.0620   -2.0406    7.1580 N   0  0  0  0  0  0  0  0  0  0  0  0
   -3.0993   -1.9963    8.5000 C   0  0  0  0  0  0  0  0  0  0  0  0
   -2.2619   -1.1040    9.1066 C   0  0  0  0  0  0  0  0  0  0  0  0
   -2.2791   -1.0299   10.4823 C   0  0  0  0  0  0  0  0  0  0  0  0
   -3.1008   -1.8148   11.2639 C   0  0  0  0  0  0  0  0  0  0  0  0
   -3.9345   -2.7060   10.6386 C   0  0  0  0  0  0  0  0  0  0  0  0
   -3.9325   -2.7960    9.2550 C   0  0  0  0  0  0  0  0  0  0  0  0
   -3.0955   -1.6998   12.6967 N   0  0  0  0  0  0  0  0  0  0  0  0
   -4.0770   -0.8920   13.3785 C   0  0  0  0  0  0  0  0  0  0  0  0
   -5.4308   -1.5600   13.3886 C   0  0  0  0  0  0  0  0  0  0  0  0
   -5.8816   -2.5010   14.2838 C   0  0  0  0  0  0  0  0  0  0  0  0
   -7.1561   -2.8327   13.9218 C   0  0  0  0  0  0  0  0  0  0  0  0
   -7.4489   -2.0817   12.8109 C   0  0  0  0  0  0  0  0  0  0  0  0
   -6.4042   -1.3518   12.5390 O   0  0  0  0  0  0  0  0  0  0  0  0
   -2.1066   -2.4157   13.4061 C   0  0  0  0  0  0  0  0  0  0  0  0
   -2.0509   -2.2895   14.6716 O   0  0  0  0  0  0  0  0  0  0  0  0
   -1.1457   -3.3007   12.7251 C   0  0  0  0  0  0  0  0  0  0  0  0
   -1.5875   -4.3799   12.0008 C   0  0  0  0  0  0  0  0  0  0  0  0
   -0.7102   -5.2314   11.3366 C   0  0  0  0  0  0  0  0  0  0  0  0
    0.6476   -5.0032   11.3938 C   0  0  0  0  0  0  0  0  0  0  0  0
    1.0829   -3.9102   12.1287 C   0  0  0  0  0  0  0  0  0  0  0  0
    0.2079   -3.0730   12.7827 C   0  0  0  0  0  0  0  0  0  0  0  0
   -1.4434   -0.3156    8.3257 C   0  0  0  0  0  0  0  0  0  0  0  0
   -0.7018    0.4824    8.9502 O   0  0  0  0  0  0  0  0  0  0  0  0
   -1.4042   -0.3579    6.9773 N   0  0  0  0  0  0  0  0  0  0  0  0
   -0.5220    0.5240    6.2704 C   0  0  0  0  0  0  0  0  0  0  0  0
    0.8884    0.4844    6.5837 C   0  0  0  0  0  0  0  0  0  0  0  0
    1.4646   -0.7274    6.9496 C   0  0  0  0  0  0  0  0  0  0  0  0
    2.7955   -0.8650    7.2675 C   0  0  0  0  0  0  0  0  0  0  0  0
    3.6226    0.2303    7.2307 C   0  0  0  0  0  0  0  0  0  0  0  0
    3.0843    1.4484    6.8717 C   0  0  0  0  0  0  0  0  0  0  0  0
    1.7381    1.5568    6.5562 C   0  0  0  0  0  0  0  0  0  0  0  0
    5.0566    0.1048    7.5680 C   0  0  0  0  0  0  0  0  0  0  0  0
    6.0476    0.3415    6.6624 C   0  0  0  0  0  0  0  0  0  0  0  0
    7.3842    0.2161    7.0125 C   0  0  0  0  0  0  0  0  0  0  0  0
    7.7207   -0.1526    8.2939 C   0  0  0  0  0  0  0  0  0  0  0  0
    6.7089   -0.3845    9.1860 C   0  0  0  0  0  0  0  0  0  0  0  0
    5.3700   -0.2699    8.8730 C   0  0  0  0  0  0  0  0  0  0  0  0
    4.3245   -0.5245    9.8536 C   0  0  0  0  0  0  0  0  0  0  0  0
    3.3323    0.2760   10.2668 N   0  0  0  0  0  0  0  0  0  0  0  0
    2.5988   -0.3293   11.1643 N   0  0  0  0  0  0  0  0  0  0  0  0
    3.1033   -1.5402   11.3525 N   0  0  0  0  0  0  0  0  0  0  0  0
    4.1687   -1.6631   10.5444 N   0  0  0  0  0  0  0  0  0  0  0  0
  1  2  1  0
  2  3  1  0
  3  4  1  0
  4  5  2  0
  5  6  1  0
  6  7  2  0
  7  8  1  0
  8  9  2  0
  9 10  1  0
 10 11  2  0
  9 12  1  0
 12 13  1  0
 13 14  1  0
 14 15  2  0
 15 16  1  0
 16 17  2  0
 17 18  1  0
 12 19  1  0
 19 20  2  0
 19 21  1  0
 21 22  2  0
 22 23  1  0
 23 24  2  0
 24 25  1  0
 25 26  2  0
  7 27  1  0
 27 28  2  0
 27 29  1  0
 29 30  1  0
 30 31  1  0
 31 32  2  0
 32 33  1  0
 33 34  2  0
 34 35  1  0
 35 36  2  0
 34 37  1  0
 37 38  2  0
 38 39  1  0
 39 40  2  0
 40 41  1  0
 41 42  2  0
 42 43  1  0
 43 44  2  0
 44 45  1  0
 45 46  1  0
 46 47  2  0
 29  4  1  0
 11  6  1  0
 18 14  1  0
 26 21  1  0
 36 31  1  0
 42 37  1  0
 47 43  1  0
M  END
$$$$
