
     RDKit          3D

 47 53  0  0  0  0  0  0  0  0999 V2000
    1.7734    4.1035    9.2245 C   0  0  0  0  0  0  0  0  0  0  0  0
    0.5808    3.2752    9.5716 C   0  0  0  0  0  0  0  0  0  0  0  0
    0.8716    2.4338   10.8217 C   0  0  0  0  0  0  0  0  0  0  0  0
    0.1066    1.1645   10.7619 C   0  0  0  0  0  0  0  0  0  0  0  0
   -1.2516    1.2469   10.7345 N   0  0  0  0  0  0  0  0  0  0  0  0
   -2.0462    0.1645   10.6968 C   0  0  0  0  0  0  0  0  0  0  0  0
   -1.4243   -1.0514   10.6866 C   0  0  0  0  0  0  0  0  0  0  0  0
   -2.2108   -2.1823   10.6531 C   0  0  0  0  0  0  0  0  0  0  0  0
   -3.5889   -2.1349   10.6292 C   0  0  0  0  0  0  0  0  0  0  0  0
   -4.1970   -0.9060   10.6390 C   0  0  0  0  0  0  0  0  0  0  0  0
   -3.4235    0.2443   10.6726 C   0  0  0  0  0  0  0  0  0  0  0  0
   -4.3738   -3.3390   10.6046 N   0  0  0  0  0  0  0  0  0  0  0  0
   -4.7271   -4.0179   11.8272 C   0  0  0  0  0  0  0  0  0  0  0  0
   -3.5147   -4.6233   12.4925 C   0  0  0  0  0  0  0  0  0  0  0  0
   -2.6104   -5.4924   11.9294 C   0  0  0  0  0  0  0  0  0  0  0  0
   -1.6774   -5.7864   12.8825 C   0  0  0  0  0  0  0  0  0  0  0  0
   -2.0397   -5.0856   14.0055 C   0  0  0  0  0  0  0  0  0  0  0  0
   -3.1236   -4.4191   13.7246 O   0  0  0  0  0  0  0  0  0  0  0  0
   -4.7940   -3.8194    9.3451 C   0  0  0  0  0  0  0  0  0  0  0  0
   -5.4865   -4.8865    9.2985 O   0  0  0  0  0  0  0  0  0  0  0  0
   -4.4564   -3.1216    8.0924 C   0  0  0  0  0  0  0  0  0  0  0  0
   -3.1468   -2.9836    7.7048 C   0  0  0  0  0  0  0  0  0  0  0  0
   -2.7909   -2.3396    6.5239 C   0  0  0  0  0  0  0  0  0  0  0  0
   -3.7666   -1.8170    5.7029 C   0  0  0  0  0  0  0  0  0  0  0  0
   -5.0865   -1.9617    6.1045 C   0  0  0  0  0  0  0  0  0  0  0  0
   -5.4295   -2.6003    7.2744 C   0  0  0  0  0  0  0  0  0  0  0  0
   -0.0465   -1.0997   10.7152 C   0  0  0  0  0  0  0  0  0  0  0  0
    0.4566   -2.2501   10.7054 O   0  0  0  0  0  0  0  0  0  0  0  0
    0.7541   -0.0138   10.7534 N   0  0  0  0  0  0  0  0  0  0  0  0
    2.1764   -0.1888   10.7972 C   0  0  0  0  0  0  0  0  0  0  0  0
    2.9041   -0.2324    9.5492 C   0  0  0  0  0  0  0  0  0  0  0  0
    2.2509    0.1247    8.3744 C   0  0  0  0  0  0  0  0  0  0  0  0
    2.8571    0.1130    7.1400 C   0  0  0  0  0  0  0  0  0  0  0  0
    4.1723   -0.2652    7.0293 C   0  0  0  0  0  0  0  0  0  0  0  0
    4.8510   -0.6257    8.1747 C   0  0  0  0  0  0  0  0  0  0  0  0
    4.2133   -0.6041    9.4061 C   0  0  0  0  0  0  0  0  0  0  0  0
    4.8438   -0.2843    5.7123 C   0  0  0  0  0  0  0  0  0  0  0  0
    4.2185   -0.7013    4.5750 C   0  0  0  0  0  0  0  0  0  0  0  0
    4.8777   -0.7050    3.3542 C   0  0  0  0  0  0  0  0  0  0  0  0
    6.1842   -0.2814    3.2845 C   0  0  0  0  0  0  0  0  0  0  0  0
    6.7911    0.1332    4.4391 C   0  0  0  0  0  0  0  0  0  0  0  0
    6.1671    0.1501    5.6696 C   0  0  0  0  0  0  0  0  0  0  0  0
    6.8496    0.6008    6.8740 C   0  0  0  0  0  0  0  0  0  0  0  0
    6.4405    1.4690    7.8095 N   0  0  0  0  0  0  0  0  0  0  0  0
    7.3502    1.6032    8.7391 N   0  0  0  0  0  0  0  0  0  0  0  0
    8.3727    0.8216    8.4234 N   0  0  0  0  0  0  0  0  0  0  0  0
    8.0660    0.2016    7.2724 N   0  0  0  0  0  0  0  0  0  0  0  0
  1  2  1  0
  2  3  1  0
  3  4  1  0
  4  5  2  0
  5  6  1  0
  6  7  2  0
  7  8  1  0
  8  9  2  0
  9 10  1  0
 10 11  2  0
  9 12  1  0
 12 13  1  0
 13 14  1  0
 14 15  2  0
 15 16  1  0
 16 17  2  0
 17 18  1  0
 12 19  1  0
 19 20  2  0
 19 21  1  0
 21 22  2  0
 22 23  1  0
 23 24  2  0
 24 25  1  0
 25 26  2  0
  7 27  1  0
 27 28  2  0
 27 29  1  0
 29 30  1  0
 30 31  1  0
 31 32  2  0
 32 33  1  0
 33 34  2  0
 34 35  1  0
 35 36  2  0
 34 37  1  0
 37 38  2  0
 38 39  1  0
 39 40  2  0
 40 41  1  0
 41 42  2  0
 42 43  1  0
 43 44  2  0
 44 45  1  0
 45 46  1  0
 46 47  2  0
 29  4  1  0
 11  6  1  0
 18 14  1  0
 26 21  1  0
 36 31  1  0
 42 37  1  0
 47 43  1  0
M  END
$$$$
