
     RDKit          3D

 47 53  0  0  0  0  0  0  0  0999 V2000
   -2.8476   -1.6269    3.0320 C   0  0  0  0  0  0  0  0  0  0  0  0
   -2.8973   -2.1362    4.4345 C   0  0  0  0  0  0  0  0  0  0  0  0
   -1.9797   -1.2944    5.3316 C   0  0  0  0  0  0  0  0  0  0  0  0
   -2.0862   -1.7595    6.7360 C   0  0  0  0  0  0  0  0  0  0  0  0
   -3.2963   -1.6458    7.3485 N   0  0  0  0  0  0  0  0  0  0  0  0
   -3.5058   -2.0187    8.6218 C   0  0  0  0  0  0  0  0  0  0  0  0
   -2.4325   -2.5288    9.2949 C   0  0  0  0  0  0  0  0  0  0  0  0
   -2.6124   -2.9164   10.6048 C   0  0  0  0  0  0  0  0  0  0  0  0
   -3.8231   -2.8109   11.2569 C   0  0  0  0  0  0  0  0  0  0  0  0
   -4.8905   -2.2974   10.5660 C   0  0  0  0  0  0  0  0  0  0  0  0
   -4.7303   -1.9015    9.2469 C   0  0  0  0  0  0  0  0  0  0  0  0
   -3.9668   -3.2176   12.6281 N   0  0  0  0  0  0  0  0  0  0  0  0
   -4.0511   -4.6135   12.9817 C   0  0  0  0  0  0  0  0  0  0  0  0
   -2.7033   -5.2878   12.8921 C   0  0  0  0  0  0  0  0  0  0  0  0
   -2.1672   -5.9213   11.7960 C   0  0  0  0  0  0  0  0  0  0  0  0
   -0.9348   -6.3878   12.1551 C   0  0  0  0  0  0  0  0  0  0  0  0
   -0.7523   -6.0244   13.4660 C   0  0  0  0  0  0  0  0  0  0  0  0
   -1.8182   -5.3814   13.8514 O   0  0  0  0  0  0  0  0  0  0  0  0
   -4.0077   -2.2034   13.6096 C   0  0  0  0  0  0  0  0  0  0  0  0
   -4.1600   -2.5386   14.8282 O   0  0  0  0  0  0  0  0  0  0  0  0
   -3.8770   -0.7776   13.2631 C   0  0  0  0  0  0  0  0  0  0  0  0
   -3.2142   -0.3974   12.1226 C   0  0  0  0  0  0  0  0  0  0  0  0
   -3.0796    0.9387   11.7584 C   0  0  0  0  0  0  0  0  0  0  0  0
   -3.6205    1.9272   12.5519 C   0  0  0  0  0  0  0  0  0  0  0  0
   -4.2875    1.5317   13.7020 C   0  0  0  0  0  0  0  0  0  0  0  0
   -4.4160    0.2076   14.0546 C   0  0  0  0  0  0  0  0  0  0  0  0
   -1.2205   -2.6304    8.6451 C   0  0  0  0  0  0  0  0  0  0  0  0
   -0.2782   -3.1063    9.3250 O   0  0  0  0  0  0  0  0  0  0  0  0
   -1.0072   -2.2562    7.3660 N   0  0  0  0  0  0  0  0  0  0  0  0
    0.3033   -2.3942    6.8012 C   0  0  0  0  0  0  0  0  0  0  0  0
    1.3504   -1.5131    7.2662 C   0  0  0  0  0  0  0  0  0  0  0  0
    1.0021   -0.2928    7.8355 C   0  0  0  0  0  0  0  0  0  0  0  0
    1.9252    0.6123    8.3044 C   0  0  0  0  0  0  0  0  0  0  0  0
    3.2653    0.3257    8.2208 C   0  0  0  0  0  0  0  0  0  0  0  0
    3.6465   -0.8763    7.6617 C   0  0  0  0  0  0  0  0  0  0  0  0
    2.6928   -1.7697    7.1972 C   0  0  0  0  0  0  0  0  0  0  0  0
    4.2746    1.2840    8.7193 C   0  0  0  0  0  0  0  0  0  0  0  0
    4.4799    1.5099   10.0478 C   0  0  0  0  0  0  0  0  0  0  0  0
    5.4370    2.4155   10.4821 C   0  0  0  0  0  0  0  0  0  0  0  0
    6.1949    3.0994    9.5606 C   0  0  0  0  0  0  0  0  0  0  0  0
    5.9716    2.8559    8.2324 C   0  0  0  0  0  0  0  0  0  0  0  0
    5.0290    1.9634    7.7647 C   0  0  0  0  0  0  0  0  0  0  0  0
    4.8246    1.7329    6.3418 C   0  0  0  0  0  0  0  0  0  0  0  0
    3.7274    1.9278    5.5973 N   0  0  0  0  0  0  0  0  0  0  0  0
    3.9542    1.5987    4.3523 N   0  0  0  0  0  0  0  0  0  0  0  0
    5.2088    1.1810    4.2641 N   0  0  0  0  0  0  0  0  0  0  0  0
    5.7482    1.2631    5.4910 N   0  0  0  0  0  0  0  0  0  0  0  0
  1  2  1  0
  2  3  1  0
  3  4  1  0
  4  5  2  0
  5  6  1  0
  6  7  2  0
  7  8  1  0
  8  9  2  0
  9 10  1  0
 10 11  2  0
  9 12  1  0
 12 13  1  0
 13 14  1  0
 14 15  2  0
 15 16  1  0
 16 17  2  0
 17 18  1  0
 12 19  1  0
 19 20  2  0
 19 21  1  0
 21 22  2  0
 22 23  1  0
 23 24  2  0
 24 25  1  0
 25 26  2  0
  7 27  1  0
 27 28  2  0
 27 29  1  0
 29 30  1  0
 30 31  1  0
 31 32  2  0
 32 33  1  0
 33 34  2  0
 34 35  1  0
 35 36  2  0
 34 37  1  0
 37 38  2  0
 38 39  1  0
 39 40  2  0
 40 41  1  0
 41 42  2  0
 42 43  1  0
 43 44  2  0
 44 45  1  0
 45 46  1  0
 46 47  2  0
 29  4  1  0
 11  6  1  0
 18 14  1  0
 26 21  1  0
 36 31  1  0
 42 37  1  0
 47 43  1  0
M  END
$$$$
