
     RDKit          3D

 47 53  0  0  0  0  0  0  0  0999 V2000
   -3.2078   -0.7101    3.6476 C   0  0  0  0  0  0  0  0  0  0  0  0
   -2.6303   -0.6623    5.0236 C   0  0  0  0  0  0  0  0  0  0  0  0
   -2.1181   -2.0517    5.4267 C   0  0  0  0  0  0  0  0  0  0  0  0
   -2.0089   -2.1376    6.9034 C   0  0  0  0  0  0  0  0  0  0  0  0
   -3.1520   -2.0027    7.6297 N   0  0  0  0  0  0  0  0  0  0  0  0
   -3.1712   -2.0466    8.9721 C   0  0  0  0  0  0  0  0  0  0  0  0
   -1.9711   -2.2368    9.5957 C   0  0  0  0  0  0  0  0  0  0  0  0
   -1.9552   -2.2818   10.9727 C   0  0  0  0  0  0  0  0  0  0  0  0
   -3.0936   -2.1443   11.7391 C   0  0  0  0  0  0  0  0  0  0  0  0
   -4.2902   -1.9550   11.0969 C   0  0  0  0  0  0  0  0  0  0  0  0
   -4.3276   -1.9066    9.7117 C   0  0  0  0  0  0  0  0  0  0  0  0
   -3.0329   -2.1874   13.1747 N   0  0  0  0  0  0  0  0  0  0  0  0
   -2.9456   -3.4454   13.8749 C   0  0  0  0  0  0  0  0  0  0  0  0
   -4.2848   -4.1401   13.9306 C   0  0  0  0  0  0  0  0  0  0  0  0
   -5.4717   -3.6122   14.3809 C   0  0  0  0  0  0  0  0  0  0  0  0
   -6.4248   -4.5823   14.2554 C   0  0  0  0  0  0  0  0  0  0  0  0
   -5.7903   -5.6801   13.7298 C   0  0  0  0  0  0  0  0  0  0  0  0
   -4.5367   -5.3689   13.5575 O   0  0  0  0  0  0  0  0  0  0  0  0
   -3.0478   -0.9566   13.8665 C   0  0  0  0  0  0  0  0  0  0  0  0
   -2.9514   -0.9682   15.1358 O   0  0  0  0  0  0  0  0  0  0  0  0
   -3.1687    0.3319   13.1627 C   0  0  0  0  0  0  0  0  0  0  0  0
   -4.1992    1.1900   13.4560 C   0  0  0  0  0  0  0  0  0  0  0  0
   -4.3397    2.4190   12.8189 C   0  0  0  0  0  0  0  0  0  0  0  0
   -3.4280    2.8070   11.8612 C   0  0  0  0  0  0  0  0  0  0  0  0
   -2.3911    1.9320   11.5724 C   0  0  0  0  0  0  0  0  0  0  0  0
   -2.2597    0.7181   12.2076 C   0  0  0  0  0  0  0  0  0  0  0  0
   -0.8318   -2.3698    8.8303 C   0  0  0  0  0  0  0  0  0  0  0  0
    0.2351   -2.5400    9.4700 O   0  0  0  0  0  0  0  0  0  0  0  0
   -0.8097   -2.3257    7.4815 N   0  0  0  0  0  0  0  0  0  0  0  0
    0.4407   -2.4600    6.7930 C   0  0  0  0  0  0  0  0  0  0  0  0
    1.2773   -1.2903    6.6492 C   0  0  0  0  0  0  0  0  0  0  0  0
    2.2574   -1.0402    7.6038 C   0  0  0  0  0  0  0  0  0  0  0  0
    3.0994    0.0461    7.5545 C   0  0  0  0  0  0  0  0  0  0  0  0
    2.9921    0.9465    6.5235 C   0  0  0  0  0  0  0  0  0  0  0  0
    2.0306    0.7291    5.5588 C   0  0  0  0  0  0  0  0  0  0  0  0
    1.1954   -0.3755    5.6347 C   0  0  0  0  0  0  0  0  0  0  0  0
    3.8875    2.1206    6.4507 C   0  0  0  0  0  0  0  0  0  0  0  0
    3.6617    3.1652    5.6045 C   0  0  0  0  0  0  0  0  0  0  0  0
    4.5216    4.2532    5.5624 C   0  0  0  0  0  0  0  0  0  0  0  0
    5.6219    4.2837    6.3868 C   0  0  0  0  0  0  0  0  0  0  0  0
    5.8279    3.2241    7.2284 C   0  0  0  0  0  0  0  0  0  0  0  0
    4.9948    2.1264    7.2967 C   0  0  0  0  0  0  0  0  0  0  0  0
    5.2500    1.0203    8.2082 C   0  0  0  0  0  0  0  0  0  0  0  0
    5.2826   -0.2964    7.9604 N   0  0  0  0  0  0  0  0  0  0  0  0
    5.5488   -0.9620    9.0539 N   0  0  0  0  0  0  0  0  0  0  0  0
    5.6943   -0.0863   10.0378 N   0  0  0  0  0  0  0  0  0  0  0  0
    5.5104    1.1382    9.5182 N   0  0  0  0  0  0  0  0  0  0  0  0
  1  2  1  0
  2  3  1  0
  3  4  1  0
  4  5  2  0
  5  6  1  0
  6  7  2  0
  7  8  1  0
  8  9  2  0
  9 10  1  0
 10 11  2  0
  9 12  1  0
 12 13  1  0
 13 14  1  0
 14 15  2  0
 15 16  1  0
 16 17  2  0
 17 18  1  0
 12 19  1  0
 19 20  2  0
 19 21  1  0
 21 22  2  0
 22 23  1  0
 23 24  2  0
 24 25  1  0
 25 26  2  0
  7 27  1  0
 27 28  2  0
 27 29  1  0
 29 30  1  0
 30 31  1  0
 31 32  2  0
 32 33  1  0
 33 34  2  0
 34 35  1  0
 35 36  2  0
 34 37  1  0
 37 38  2  0
 38 39  1  0
 39 40  2  0
 40 41  1  0
 41 42  2  0
 42 43  1  0
 43 44  2  0
 44 45  1  0
 45 46  1  0
 46 47  2  0
 29  4  1  0
 11  6  1  0
 18 14  1  0
 26 21  1  0
 36 31  1  0
 42 37  1  0
 47 43  1  0
M  END
$$$$
