
     RDKit          3D

 47 53  0  0  0  0  0  0  0  0999 V2000
   -3.1397   -0.9528    3.6215 C   0  0  0  0  0  0  0  0  0  0  0  0
   -3.1368   -0.8754    5.1125 C   0  0  0  0  0  0  0  0  0  0  0  0
   -1.7926   -1.3724    5.6614 C   0  0  0  0  0  0  0  0  0  0  0  0
   -1.8472   -1.4352    7.1423 C   0  0  0  0  0  0  0  0  0  0  0  0
   -2.6402   -2.3876    7.7048 N   0  0  0  0  0  0  0  0  0  0  0  0
   -2.7799   -2.5272    9.0334 C   0  0  0  0  0  0  0  0  0  0  0  0
   -2.0786   -1.6561    9.8176 C   0  0  0  0  0  0  0  0  0  0  0  0
   -2.2036   -1.7692   11.1851 C   0  0  0  0  0  0  0  0  0  0  0  0
   -3.0014   -2.7192   11.7877 C   0  0  0  0  0  0  0  0  0  0  0  0
   -3.6978   -3.5863   10.9856 C   0  0  0  0  0  0  0  0  0  0  0  0
   -3.5857   -3.4892    9.6070 C   0  0  0  0  0  0  0  0  0  0  0  0
   -3.1123   -2.7975   13.2188 N   0  0  0  0  0  0  0  0  0  0  0  0
   -2.1160   -3.4862   14.0022 C   0  0  0  0  0  0  0  0  0  0  0  0
   -2.3200   -4.9816   13.9630 C   0  0  0  0  0  0  0  0  0  0  0  0
   -1.5507   -5.9034   13.2932 C   0  0  0  0  0  0  0  0  0  0  0  0
   -2.0915   -7.1354   13.5278 C   0  0  0  0  0  0  0  0  0  0  0  0
   -3.1804   -6.9303   14.3377 C   0  0  0  0  0  0  0  0  0  0  0  0
   -3.2709   -5.6502   14.5640 O   0  0  0  0  0  0  0  0  0  0  0  0
   -4.2204   -2.1654   13.8239 C   0  0  0  0  0  0  0  0  0  0  0  0
   -4.2648   -2.0948   15.0941 O   0  0  0  0  0  0  0  0  0  0  0  0
   -5.3179   -1.5873   13.0291 C   0  0  0  0  0  0  0  0  0  0  0  0
   -5.0704   -0.5752   12.1354 C   0  0  0  0  0  0  0  0  0  0  0  0
   -6.0798   -0.0118   11.3610 C   0  0  0  0  0  0  0  0  0  0  0  0
   -7.3747   -0.4686   11.4783 C   0  0  0  0  0  0  0  0  0  0  0  0
   -7.6134   -1.4912   12.3846 C   0  0  0  0  0  0  0  0  0  0  0  0
   -6.6088   -2.0427   13.1467 C   0  0  0  0  0  0  0  0  0  0  0  0
   -1.2844   -0.7030    9.2159 C   0  0  0  0  0  0  0  0  0  0  0  0
   -0.6705    0.0643    9.9975 O   0  0  0  0  0  0  0  0  0  0  0  0
   -1.1425   -0.5604    7.8813 N   0  0  0  0  0  0  0  0  0  0  0  0
   -0.2995    0.4804    7.3700 C   0  0  0  0  0  0  0  0  0  0  0  0
    1.1326    0.2898    7.4110 C   0  0  0  0  0  0  0  0  0  0  0  0
    1.9652    1.3863    7.2137 C   0  0  0  0  0  0  0  0  0  0  0  0
    3.3379    1.3048    7.2322 C   0  0  0  0  0  0  0  0  0  0  0  0
    3.9467    0.0945    7.4546 C   0  0  0  0  0  0  0  0  0  0  0  0
    3.1511   -1.0144    7.6545 C   0  0  0  0  0  0  0  0  0  0  0  0
    1.7690   -0.9017    7.6303 C   0  0  0  0  0  0  0  0  0  0  0  0
    5.4208   -0.0156    7.4794 C   0  0  0  0  0  0  0  0  0  0  0  0
    6.1053   -0.4695    8.5674 C   0  0  0  0  0  0  0  0  0  0  0  0
    7.4896   -0.5619    8.5567 C   0  0  0  0  0  0  0  0  0  0  0  0
    8.1881   -0.1910    7.4317 C   0  0  0  0  0  0  0  0  0  0  0  0
    7.4796    0.2611    6.3514 C   0  0  0  0  0  0  0  0  0  0  0  0
    6.1041    0.3665    6.3266 C   0  0  0  0  0  0  0  0  0  0  0  0
    5.3889    0.8515    5.1549 C   0  0  0  0  0  0  0  0  0  0  0  0
    4.2156    0.4493    4.6473 N   0  0  0  0  0  0  0  0  0  0  0  0
    3.9162    1.1430    3.5802 N   0  0  0  0  0  0  0  0  0  0  0  0
    4.8942    2.0129    3.3728 N   0  0  0  0  0  0  0  0  0  0  0  0
    5.8046    1.8349    4.3438 N   0  0  0  0  0  0  0  0  0  0  0  0
  1  2  1  0
  2  3  1  0
  3  4  1  0
  4  5  2  0
  5  6  1  0
  6  7  2  0
  7  8  1  0
  8  9  2  0
  9 10  1  0
 10 11  2  0
  9 12  1  0
 12 13  1  0
 13 14  1  0
 14 15  2  0
 15 16  1  0
 16 17  2  0
 17 18  1  0
 12 19  1  0
 19 20  2  0
 19 21  1  0
 21 22  2  0
 22 23  1  0
 23 24  2  0
 24 25  1  0
 25 26  2  0
  7 27  1  0
 27 28  2  0
 27 29  1  0
 29 30  1  0
 30 31  1  0
 31 32  2  0
 32 33  1  0
 33 34  2  0
 34 35  1  0
 35 36  2  0
 34 37  1  0
 37 38  2  0
 38 39  1  0
 39 40  2  0
 40 41  1  0
 41 42  2  0
 42 43  1  0
 43 44  2  0
 44 45  1  0
 45 46  1  0
 46 47  2  0
 29  4  1  0
 11  6  1  0
 18 14  1  0
 26 21  1  0
 36 31  1  0
 42 37  1  0
 47 43  1  0
M  END
$$$$
