
     RDKit          3D

 47 53  0  0  0  0  0  0  0  0999 V2000
   -3.6065    0.4291    4.0830 C   0  0  0  0  0  0  0  0  0  0  0  0
   -3.4696   -0.2843    5.3873 C   0  0  0  0  0  0  0  0  0  0  0  0
   -2.2070    0.1937    6.1173 C   0  0  0  0  0  0  0  0  0  0  0  0
   -2.1954   -0.3387    7.5017 C   0  0  0  0  0  0  0  0  0  0  0  0
   -3.1595    0.1018    8.3553 N   0  0  0  0  0  0  0  0  0  0  0  0
   -3.2370   -0.2985    9.6352 C   0  0  0  0  0  0  0  0  0  0  0  0
   -2.2889   -1.1862   10.0575 C   0  0  0  0  0  0  0  0  0  0  0  0
   -2.3371   -1.6133   11.3666 C   0  0  0  0  0  0  0  0  0  0  0  0
   -3.2970   -1.1839   12.2590 C   0  0  0  0  0  0  0  0  0  0  0  0
   -4.2419   -0.2934   11.8182 C   0  0  0  0  0  0  0  0  0  0  0  0
   -4.2108    0.1488   10.5044 C   0  0  0  0  0  0  0  0  0  0  0  0
   -3.3065   -1.6463   13.6201 N   0  0  0  0  0  0  0  0  0  0  0  0
   -2.1783   -1.4154   14.4887 C   0  0  0  0  0  0  0  0  0  0  0  0
   -1.2148   -2.5773   14.4625 C   0  0  0  0  0  0  0  0  0  0  0  0
    0.0874   -2.5616   14.0219 C   0  0  0  0  0  0  0  0  0  0  0  0
    0.5866   -3.8236   14.1753 C   0  0  0  0  0  0  0  0  0  0  0  0
   -0.4293   -4.5777   14.7076 C   0  0  0  0  0  0  0  0  0  0  0  0
   -1.4641   -3.8000   14.8571 O   0  0  0  0  0  0  0  0  0  0  0  0
   -4.4623   -2.3185   14.0737 C   0  0  0  0  0  0  0  0  0  0  0  0
   -4.4821   -2.7624   15.2666 O   0  0  0  0  0  0  0  0  0  0  0  0
   -5.6389   -2.5161   13.2094 C   0  0  0  0  0  0  0  0  0  0  0  0
   -6.5061   -1.4797   12.9684 C   0  0  0  0  0  0  0  0  0  0  0  0
   -7.6218   -1.6266   12.1500 C   0  0  0  0  0  0  0  0  0  0  0  0
   -7.8833   -2.8407   11.5527 C   0  0  0  0  0  0  0  0  0  0  0  0
   -7.0007   -3.8810   11.8035 C   0  0  0  0  0  0  0  0  0  0  0  0
   -5.8995   -3.7268   12.6145 C   0  0  0  0  0  0  0  0  0  0  0  0
   -1.3261   -1.6125    9.1672 C   0  0  0  0  0  0  0  0  0  0  0  0
   -0.4863   -2.4264    9.6243 O   0  0  0  0  0  0  0  0  0  0  0  0
   -1.2457   -1.2116    7.8809 N   0  0  0  0  0  0  0  0  0  0  0  0
   -0.1880   -1.7117    7.0523 C   0  0  0  0  0  0  0  0  0  0  0  0
    1.1060   -1.0720    7.1256 C   0  0  0  0  0  0  0  0  0  0  0  0
    2.2445   -1.8178    6.8395 C   0  0  0  0  0  0  0  0  0  0  0  0
    3.5175   -1.2994    6.8843 C   0  0  0  0  0  0  0  0  0  0  0  0
    3.7065    0.0172    7.2247 C   0  0  0  0  0  0  0  0  0  0  0  0
    2.5989    0.7865    7.5147 C   0  0  0  0  0  0  0  0  0  0  0  0
    1.3270    0.2361    7.4612 C   0  0  0  0  0  0  0  0  0  0  0  0
    5.0662    0.5952    7.2783 C   0  0  0  0  0  0  0  0  0  0  0  0
    5.5361    1.4565    6.3320 C   0  0  0  0  0  0  0  0  0  0  0  0
    6.8174    1.9822    6.4133 C   0  0  0  0  0  0  0  0  0  0  0  0
    7.6316    1.6320    7.4648 C   0  0  0  0  0  0  0  0  0  0  0  0
    7.1382    0.7663    8.4031 C   0  0  0  0  0  0  0  0  0  0  0  0
    5.8704    0.2241    8.3542 C   0  0  0  0  0  0  0  0  0  0  0  0
    5.3841   -0.6930    9.3750 C   0  0  0  0  0  0  0  0  0  0  0  0
    5.6757   -1.9872    9.5647 N   0  0  0  0  0  0  0  0  0  0  0  0
    5.0281   -2.4558   10.5995 N   0  0  0  0  0  0  0  0  0  0  0  0
    4.2995   -1.4704   11.1037 N   0  0  0  0  0  0  0  0  0  0  0  0
    4.5176   -0.3810   10.3495 N   0  0  0  0  0  0  0  0  0  0  0  0
  1  2  1  0
  2  3  1  0
  3  4  1  0
  4  5  2  0
  5  6  1  0
  6  7  2  0
  7  8  1  0
  8  9  2  0
  9 10  1  0
 10 11  2  0
  9 12  1  0
 12 13  1  0
 13 14  1  0
 14 15  2  0
 15 16  1  0
 16 17  2  0
 17 18  1  0
 12 19  1  0
 19 20  2  0
 19 21  1  0
 21 22  2  0
 22 23  1  0
 23 24  2  0
 24 25  1  0
 25 26  2  0
  7 27  1  0
 27 28  2  0
 27 29  1  0
 29 30  1  0
 30 31  1  0
 31 32  2  0
 32 33  1  0
 33 34  2  0
 34 35  1  0
 35 36  2  0
 34 37  1  0
 37 38  2  0
 38 39  1  0
 39 40  2  0
 40 41  1  0
 41 42  2  0
 42 43  1  0
 43 44  2  0
 44 45  1  0
 45 46  1  0
 46 47  2  0
 29  4  1  0
 11  6  1  0
 18 14  1  0
 26 21  1  0
 36 31  1  0
 42 37  1  0
 47 43  1  0
M  END
$$$$
