
     RDKit          3D

 47 53  0  0  0  0  0  0  0  0999 V2000
    1.1687   -5.7530    8.3814 C   0  0  0  0  0  0  0  0  0  0  0  0
    0.4215   -4.5939    8.9533 C   0  0  0  0  0  0  0  0  0  0  0  0
    0.2719   -4.7629   10.4713 C   0  0  0  0  0  0  0  0  0  0  0  0
   -0.6596   -3.7375   11.0013 C   0  0  0  0  0  0  0  0  0  0  0  0
   -1.9741   -3.8451   10.6655 N   0  0  0  0  0  0  0  0  0  0  0  0
   -2.9042   -2.9661   11.0734 C   0  0  0  0  0  0  0  0  0  0  0  0
   -2.4703   -1.9353   11.8574 C   0  0  0  0  0  0  0  0  0  0  0  0
   -3.3985   -1.0130   12.2889 C   0  0  0  0  0  0  0  0  0  0  0  0
   -4.7366   -1.0894   11.9637 C   0  0  0  0  0  0  0  0  0  0  0  0
   -5.1554   -2.1313   11.1766 C   0  0  0  0  0  0  0  0  0  0  0  0
   -4.2370   -3.0701   10.7319 C   0  0  0  0  0  0  0  0  0  0  0  0
   -5.6718   -0.1006   12.4264 N   0  0  0  0  0  0  0  0  0  0  0  0
   -6.0281    1.0261   11.5992 C   0  0  0  0  0  0  0  0  0  0  0  0
   -4.8141    1.6272   10.9327 C   0  0  0  0  0  0  0  0  0  0  0  0
   -4.3936    1.4209    9.6401 C   0  0  0  0  0  0  0  0  0  0  0  0
   -3.2562    2.1546    9.4578 C   0  0  0  0  0  0  0  0  0  0  0  0
   -3.0131    2.7910   10.6493 C   0  0  0  0  0  0  0  0  0  0  0  0
   -3.9557    2.4487   11.4814 O   0  0  0  0  0  0  0  0  0  0  0  0
   -6.2344   -0.2827   13.7085 C   0  0  0  0  0  0  0  0  0  0  0  0
   -7.0375    0.5989   14.1539 O   0  0  0  0  0  0  0  0  0  0  0  0
   -5.9207   -1.4593   14.5375 C   0  0  0  0  0  0  0  0  0  0  0  0
   -5.1038   -1.3390   15.6342 C   0  0  0  0  0  0  0  0  0  0  0  0
   -4.7936   -2.4258   16.4457 C   0  0  0  0  0  0  0  0  0  0  0  0
   -5.3112   -3.6703   16.1585 C   0  0  0  0  0  0  0  0  0  0  0  0
   -6.1350   -3.7804   15.0479 C   0  0  0  0  0  0  0  0  0  0  0  0
   -6.4366   -2.6999   14.2506 C   0  0  0  0  0  0  0  0  0  0  0  0
   -1.1319   -1.8555   12.1792 C   0  0  0  0  0  0  0  0  0  0  0  0
   -0.8042   -0.8818   12.9011 O   0  0  0  0  0  0  0  0  0  0  0  0
   -0.1953   -2.7371   11.7703 N   0  0  0  0  0  0  0  0  0  0  0  0
    1.1718   -2.5416   12.1557 C   0  0  0  0  0  0  0  0  0  0  0  0
    2.0544   -1.8554   11.2398 C   0  0  0  0  0  0  0  0  0  0  0  0
    3.3839   -1.6631   11.6003 C   0  0  0  0  0  0  0  0  0  0  0  0
    4.2982   -1.0208   10.7985 C   0  0  0  0  0  0  0  0  0  0  0  0
    3.9096   -0.5341    9.5749 C   0  0  0  0  0  0  0  0  0  0  0  0
    2.5979   -0.7074    9.1852 C   0  0  0  0  0  0  0  0  0  0  0  0
    1.6981   -1.3594   10.0151 C   0  0  0  0  0  0  0  0  0  0  0  0
    4.8762    0.1589    8.6968 C   0  0  0  0  0  0  0  0  0  0  0  0
    6.0355    0.7023    9.1650 C   0  0  0  0  0  0  0  0  0  0  0  0
    6.9220    1.3448    8.3129 C   0  0  0  0  0  0  0  0  0  0  0  0
    6.6314    1.4376    6.9719 C   0  0  0  0  0  0  0  0  0  0  0  0
    5.4622    0.8842    6.5247 C   0  0  0  0  0  0  0  0  0  0  0  0
    4.5577    0.2387    7.3426 C   0  0  0  0  0  0  0  0  0  0  0  0
    3.3251   -0.3378    6.8251 C   0  0  0  0  0  0  0  0  0  0  0  0
    2.2284    0.2760    6.3597 N   0  0  0  0  0  0  0  0  0  0  0  0
    1.3356   -0.6028    5.9851 N   0  0  0  0  0  0  0  0  0  0  0  0
    1.8374   -1.8101    6.2017 N   0  0  0  0  0  0  0  0  0  0  0  0
    3.0656   -1.6491    6.7202 N   0  0  0  0  0  0  0  0  0  0  0  0
  1  2  1  0
  2  3  1  0
  3  4  1  0
  4  5  2  0
  5  6  1  0
  6  7  2  0
  7  8  1  0
  8  9  2  0
  9 10  1  0
 10 11  2  0
  9 12  1  0
 12 13  1  0
 13 14  1  0
 14 15  2  0
 15 16  1  0
 16 17  2  0
 17 18  1  0
 12 19  1  0
 19 20  2  0
 19 21  1  0
 21 22  2  0
 22 23  1  0
 23 24  2  0
 24 25  1  0
 25 26  2  0
  7 27  1  0
 27 28  2  0
 27 29  1  0
 29 30  1  0
 30 31  1  0
 31 32  2  0
 32 33  1  0
 33 34  2  0
 34 35  1  0
 35 36  2  0
 34 37  1  0
 37 38  2  0
 38 39  1  0
 39 40  2  0
 40 41  1  0
 41 42  2  0
 42 43  1  0
 43 44  2  0
 44 45  1  0
 45 46  1  0
 46 47  2  0
 29  4  1  0
 11  6  1  0
 18 14  1  0
 26 21  1  0
 36 31  1  0
 42 37  1  0
 47 43  1  0
M  END
$$$$
