
     RDKit          3D

 47 53  0  0  0  0  0  0  0  0999 V2000
   -2.5630   -2.6627    3.0275 C   0  0  0  0  0  0  0  0  0  0  0  0
   -2.4876   -2.9784    4.4847 C   0  0  0  0  0  0  0  0  0  0  0  0
   -2.0103   -1.7460    5.2650 C   0  0  0  0  0  0  0  0  0  0  0  0
   -2.0545   -2.0254    6.7210 C   0  0  0  0  0  0  0  0  0  0  0  0
   -3.2607   -1.9346    7.3448 N   0  0  0  0  0  0  0  0  0  0  0  0
   -3.4176   -2.1494    8.6614 C   0  0  0  0  0  0  0  0  0  0  0  0
   -2.2936   -2.4705    9.3676 C   0  0  0  0  0  0  0  0  0  0  0  0
   -2.4192   -2.6925   10.7216 C   0  0  0  0  0  0  0  0  0  0  0  0
   -3.6246   -2.6044   11.3858 C   0  0  0  0  0  0  0  0  0  0  0  0
   -4.7434   -2.2818   10.6614 C   0  0  0  0  0  0  0  0  0  0  0  0
   -4.6383   -2.0546    9.2977 C   0  0  0  0  0  0  0  0  0  0  0  0
   -3.7115   -2.8338   12.8022 N   0  0  0  0  0  0  0  0  0  0  0  0
   -4.6708   -2.1216   13.6104 C   0  0  0  0  0  0  0  0  0  0  0  0
   -4.4256   -0.6324   13.5740 C   0  0  0  0  0  0  0  0  0  0  0  0
   -5.3316    0.3467   13.2415 C   0  0  0  0  0  0  0  0  0  0  0  0
   -4.6898    1.5483   13.3389 C   0  0  0  0  0  0  0  0  0  0  0  0
   -3.4043    1.2680   13.7298 C   0  0  0  0  0  0  0  0  0  0  0  0
   -3.3007   -0.0250   13.8541 O   0  0  0  0  0  0  0  0  0  0  0  0
   -2.8359   -3.7881   13.3644 C   0  0  0  0  0  0  0  0  0  0  0  0
   -2.5646   -3.7115   14.6058 O   0  0  0  0  0  0  0  0  0  0  0  0
   -2.2340   -4.8643   12.5582 C   0  0  0  0  0  0  0  0  0  0  0  0
   -0.9025   -5.1705   12.6911 C   0  0  0  0  0  0  0  0  0  0  0  0
   -0.3022   -6.1864   11.9538 C   0  0  0  0  0  0  0  0  0  0  0  0
   -1.0482   -6.9206   11.0574 C   0  0  0  0  0  0  0  0  0  0  0  0
   -2.3924   -6.6023   10.9310 C   0  0  0  0  0  0  0  0  0  0  0  0
   -2.9781   -5.5957   11.6643 C   0  0  0  0  0  0  0  0  0  0  0  0
   -1.0871   -2.5543    8.7052 C   0  0  0  0  0  0  0  0  0  0  0  0
   -0.0965   -2.8520    9.4169 O   0  0  0  0  0  0  0  0  0  0  0  0
   -0.9266   -2.3386    7.3825 N   0  0  0  0  0  0  0  0  0  0  0  0
    0.3825   -2.4385    6.8065 C   0  0  0  0  0  0  0  0  0  0  0  0
    1.3544   -1.4168    7.1231 C   0  0  0  0  0  0  0  0  0  0  0  0
    2.6684   -1.5803    6.6974 C   0  0  0  0  0  0  0  0  0  0  0  0
    3.6635   -0.6658    6.9515 C   0  0  0  0  0  0  0  0  0  0  0  0
    3.3769    0.4760    7.6580 C   0  0  0  0  0  0  0  0  0  0  0  0
    2.0834    0.6706    8.0956 C   0  0  0  0  0  0  0  0  0  0  0  0
    1.1004   -0.2693    7.8242 C   0  0  0  0  0  0  0  0  0  0  0  0
    4.4313    1.4727    7.9417 C   0  0  0  0  0  0  0  0  0  0  0  0
    5.1247    2.1094    6.9558 C   0  0  0  0  0  0  0  0  0  0  0  0
    6.1075    3.0412    7.2569 C   0  0  0  0  0  0  0  0  0  0  0  0
    6.3908    3.3316    8.5709 C   0  0  0  0  0  0  0  0  0  0  0  0
    5.6815    2.6804    9.5436 C   0  0  0  0  0  0  0  0  0  0  0  0
    4.6984    1.7485    9.2813 C   0  0  0  0  0  0  0  0  0  0  0  0
    3.9662    1.0794   10.3470 C   0  0  0  0  0  0  0  0  0  0  0  0
    3.8809   -0.2278   10.6301 N   0  0  0  0  0  0  0  0  0  0  0  0
    3.1198   -0.4214   11.6756 N   0  0  0  0  0  0  0  0  0  0  0  0
    2.6937    0.7619   12.0932 N   0  0  0  0  0  0  0  0  0  0  0  0
    3.2149    1.6901   11.2746 N   0  0  0  0  0  0  0  0  0  0  0  0
  1  2  1  0
  2  3  1  0
  3  4  1  0
  4  5  2  0
  5  6  1  0
  6  7  2  0
  7  8  1  0
  8  9  2  0
  9 10  1  0
 10 11  2  0
  9 12  1  0
 12 13  1  0
 13 14  1  0
 14 15  2  0
 15 16  1  0
 16 17  2  0
 17 18  1  0
 12 19  1  0
 19 20  2  0
 19 21  1  0
 21 22  2  0
 22 23  1  0
 23 24  2  0
 24 25  1  0
 25 26  2  0
  7 27  1  0
 27 28  2  0
 27 29  1  0
 29 30  1  0
 30 31  1  0
 31 32  2  0
 32 33  1  0
 33 34  2  0
 34 35  1  0
 35 36  2  0
 34 37  1  0
 37 38  2  0
 38 39  1  0
 39 40  2  0
 40 41  1  0
 41 42  2  0
 42 43  1  0
 43 44  2  0
 44 45  1  0
 45 46  1  0
 46 47  2  0
 29  4  1  0
 11  6  1  0
 18 14  1  0
 26 21  1  0
 36 31  1  0
 42 37  1  0
 47 43  1  0
M  END
$$$$
