
     RDKit          3D

 47 53  0  0  0  0  0  0  0  0999 V2000
   -3.6312   -1.1818    3.3820 C   0  0  0  0  0  0  0  0  0  0  0  0
   -3.2952   -0.9161    4.8122 C   0  0  0  0  0  0  0  0  0  0  0  0
   -2.0607   -1.7307    5.2217 C   0  0  0  0  0  0  0  0  0  0  0  0
   -2.0234   -1.8787    6.6971 C   0  0  0  0  0  0  0  0  0  0  0  0
   -2.8412   -2.8104    7.2587 N   0  0  0  0  0  0  0  0  0  0  0  0
   -2.9037   -3.0203    8.5840 C   0  0  0  0  0  0  0  0  0  0  0  0
   -2.0955   -2.2447    9.3655 C   0  0  0  0  0  0  0  0  0  0  0  0
   -2.1390   -2.4314   10.7299 C   0  0  0  0  0  0  0  0  0  0  0  0
   -2.9588   -3.3628   11.3321 C   0  0  0  0  0  0  0  0  0  0  0  0
   -3.7630   -4.1337   10.5326 C   0  0  0  0  0  0  0  0  0  0  0  0
   -3.7342   -3.9614    9.1571 C   0  0  0  0  0  0  0  0  0  0  0  0
   -2.9818   -3.5197   12.7608 N   0  0  0  0  0  0  0  0  0  0  0  0
   -1.9738   -4.2994   13.4366 C   0  0  0  0  0  0  0  0  0  0  0  0
   -0.7838   -3.4519   13.8172 C   0  0  0  0  0  0  0  0  0  0  0  0
   -0.5793   -2.8032   15.0120 C   0  0  0  0  0  0  0  0  0  0  0  0
    0.6203   -2.1560   14.9261 C   0  0  0  0  0  0  0  0  0  0  0  0
    1.1167   -2.4289   13.6759 C   0  0  0  0  0  0  0  0  0  0  0  0
    0.2556   -3.1929   13.0654 O   0  0  0  0  0  0  0  0  0  0  0  0
   -4.0155   -2.8728   13.4726 C   0  0  0  0  0  0  0  0  0  0  0  0
   -3.9835   -2.8887   14.7451 O   0  0  0  0  0  0  0  0  0  0  0  0
   -5.1211   -2.1824   12.7860 C   0  0  0  0  0  0  0  0  0  0  0  0
   -5.2949   -0.8290   12.9356 C   0  0  0  0  0  0  0  0  0  0  0  0
   -6.3215   -0.1419   12.2952 C   0  0  0  0  0  0  0  0  0  0  0  0
   -7.2019   -0.8208   11.4809 C   0  0  0  0  0  0  0  0  0  0  0  0
   -7.0172   -2.1881   11.3373 C   0  0  0  0  0  0  0  0  0  0  0  0
   -5.9989   -2.8597   11.9747 C   0  0  0  0  0  0  0  0  0  0  0  0
   -1.2790   -1.3100    8.7646 C   0  0  0  0  0  0  0  0  0  0  0  0
   -0.5650   -0.6320    9.5438 O   0  0  0  0  0  0  0  0  0  0  0  0
   -1.2145   -1.0969    7.4334 N   0  0  0  0  0  0  0  0  0  0  0  0
   -0.3376   -0.0834    6.9242 C   0  0  0  0  0  0  0  0  0  0  0  0
    1.0789   -0.2029    7.1855 C   0  0  0  0  0  0  0  0  0  0  0  0
    1.7854    0.9204    7.6018 C   0  0  0  0  0  0  0  0  0  0  0  0
    3.1337    0.9068    7.8723 C   0  0  0  0  0  0  0  0  0  0  0  0
    3.8456   -0.2591    7.7343 C   0  0  0  0  0  0  0  0  0  0  0  0
    3.1763   -1.3929    7.3232 C   0  0  0  0  0  0  0  0  0  0  0  0
    1.8158   -1.3489    7.0575 C   0  0  0  0  0  0  0  0  0  0  0  0
    5.2956   -0.2963    8.0205 C   0  0  0  0  0  0  0  0  0  0  0  0
    5.9072   -1.3812    8.5748 C   0  0  0  0  0  0  0  0  0  0  0  0
    7.2711   -1.3837    8.8290 C   0  0  0  0  0  0  0  0  0  0  0  0
    8.0238   -0.2755    8.5181 C   0  0  0  0  0  0  0  0  0  0  0  0
    7.3881    0.8015    7.9619 C   0  0  0  0  0  0  0  0  0  0  0  0
    6.0348    0.8393    7.6956 C   0  0  0  0  0  0  0  0  0  0  0  0
    5.3983    2.0059    7.1012 C   0  0  0  0  0  0  0  0  0  0  0  0
    4.9770    3.1359    7.6859 N   0  0  0  0  0  0  0  0  0  0  0  0
    4.4578    3.9445    6.7991 N   0  0  0  0  0  0  0  0  0  0  0  0
    4.5316    3.3522    5.6160 N   0  0  0  0  0  0  0  0  0  0  0  0
    5.1119    2.1553    5.7998 N   0  0  0  0  0  0  0  0  0  0  0  0
  1  2  1  0
  2  3  1  0
  3  4  1  0
  4  5  2  0
  5  6  1  0
  6  7  2  0
  7  8  1  0
  8  9  2  0
  9 10  1  0
 10 11  2  0
  9 12  1  0
 12 13  1  0
 13 14  1  0
 14 15  2  0
 15 16  1  0
 16 17  2  0
 17 18  1  0
 12 19  1  0
 19 20  2  0
 19 21  1  0
 21 22  2  0
 22 23  1  0
 23 24  2  0
 24 25  1  0
 25 26  2  0
  7 27  1  0
 27 28  2  0
 27 29  1  0
 29 30  1  0
 30 31  1  0
 31 32  2  0
 32 33  1  0
 33 34  2  0
 34 35  1  0
 35 36  2  0
 34 37  1  0
 37 38  2  0
 38 39  1  0
 39 40  2  0
 40 41  1  0
 41 42  2  0
 42 43  1  0
 43 44  2  0
 44 45  1  0
 45 46  1  0
 46 47  2  0
 29  4  1  0
 11  6  1  0
 18 14  1  0
 26 21  1  0
 36 31  1  0
 42 37  1  0
 47 43  1  0
M  END
$$$$
