
     RDKit          3D

 47 53  0  0  0  0  0  0  0  0999 V2000
   -1.7969    1.8077    3.7598 C   0  0  0  0  0  0  0  0  0  0  0  0
   -1.4779    1.0073    4.9790 C   0  0  0  0  0  0  0  0  0  0  0  0
   -2.3691   -0.2408    5.0358 C   0  0  0  0  0  0  0  0  0  0  0  0
   -2.1255   -0.9747    6.3015 C   0  0  0  0  0  0  0  0  0  0  0  0
   -3.1402   -1.0253    7.2071 N   0  0  0  0  0  0  0  0  0  0  0  0
   -3.0279   -1.6469    8.3926 C   0  0  0  0  0  0  0  0  0  0  0  0
   -1.8277   -2.2408    8.6612 C   0  0  0  0  0  0  0  0  0  0  0  0
   -1.6777   -2.8830    9.8710 C   0  0  0  0  0  0  0  0  0  0  0  0
   -2.6832   -2.9493   10.8127 C   0  0  0  0  0  0  0  0  0  0  0  0
   -3.8820   -2.3484   10.5265 C   0  0  0  0  0  0  0  0  0  0  0  0
   -4.0532   -1.6970    9.3145 C   0  0  0  0  0  0  0  0  0  0  0  0
   -2.4830   -3.6208   12.0678 N   0  0  0  0  0  0  0  0  0  0  0  0
   -1.2344   -4.2795   12.3646 C   0  0  0  0  0  0  0  0  0  0  0  0
   -0.3206   -3.3911   13.1737 C   0  0  0  0  0  0  0  0  0  0  0  0
   -0.6203   -2.7532   14.3542 C   0  0  0  0  0  0  0  0  0  0  0  0
    0.4909   -2.0574   14.7369 C   0  0  0  0  0  0  0  0  0  0  0  0
    1.4419   -2.2909   13.7752 C   0  0  0  0  0  0  0  0  0  0  0  0
    0.9162   -3.0792   12.8807 O   0  0  0  0  0  0  0  0  0  0  0  0
   -3.5451   -3.5979   12.9978 C   0  0  0  0  0  0  0  0  0  0  0  0
   -3.3880   -4.1800   14.1189 O   0  0  0  0  0  0  0  0  0  0  0  0
   -4.8208   -2.9205   12.7077 C   0  0  0  0  0  0  0  0  0  0  0  0
   -5.5723   -3.2901   11.6201 C   0  0  0  0  0  0  0  0  0  0  0  0
   -6.7863   -2.6798   11.3206 C   0  0  0  0  0  0  0  0  0  0  0  0
   -7.2682   -1.6715   12.1270 C   0  0  0  0  0  0  0  0  0  0  0  0
   -6.5005   -1.3059   13.2229 C   0  0  0  0  0  0  0  0  0  0  0  0
   -5.3006   -1.9151   13.5117 C   0  0  0  0  0  0  0  0  0  0  0  0
   -0.8204   -2.1710    7.7221 C   0  0  0  0  0  0  0  0  0  0  0  0
    0.2552   -2.7374    8.0366 O   0  0  0  0  0  0  0  0  0  0  0  0
   -0.9305   -1.5469    6.5305 N   0  0  0  0  0  0  0  0  0  0  0  0
    0.1930   -1.5260    5.6400 C   0  0  0  0  0  0  0  0  0  0  0  0
    1.4655   -1.0649    6.1470 C   0  0  0  0  0  0  0  0  0  0  0  0
    1.6288   -0.9095    7.5194 C   0  0  0  0  0  0  0  0  0  0  0  0
    2.7993   -0.4750    8.0959 C   0  0  0  0  0  0  0  0  0  0  0  0
    3.8788   -0.1717    7.3035 C   0  0  0  0  0  0  0  0  0  0  0  0
    3.7519   -0.3146    5.9375 C   0  0  0  0  0  0  0  0  0  0  0  0
    2.5588   -0.7550    5.3844 C   0  0  0  0  0  0  0  0  0  0  0  0
    5.1468    0.2964    7.9024 C   0  0  0  0  0  0  0  0  0  0  0  0
    6.3527   -0.2623    7.5992 C   0  0  0  0  0  0  0  0  0  0  0  0
    7.5246    0.2025    8.1784 C   0  0  0  0  0  0  0  0  0  0  0  0
    7.4746    1.2448    9.0741 C   0  0  0  0  0  0  0  0  0  0  0  0
    6.2529    1.7903    9.3627 C   0  0  0  0  0  0  0  0  0  0  0  0
    5.0680    1.3538    8.8066 C   0  0  0  0  0  0  0  0  0  0  0  0
    3.7889    1.9637    9.1403 C   0  0  0  0  0  0  0  0  0  0  0  0
    2.9094    2.5864    8.3434 N   0  0  0  0  0  0  0  0  0  0  0  0
    1.8757    2.9942    9.0325 N   0  0  0  0  0  0  0  0  0  0  0  0
    2.0652    2.6432   10.2963 N   0  0  0  0  0  0  0  0  0  0  0  0
    3.2456    2.0068   10.3653 N   0  0  0  0  0  0  0  0  0  0  0  0
  1  2  1  0
  2  3  1  0
  3  4  1  0
  4  5  2  0
  5  6  1  0
  6  7  2  0
  7  8  1  0
  8  9  2  0
  9 10  1  0
 10 11  2  0
  9 12  1  0
 12 13  1  0
 13 14  1  0
 14 15  2  0
 15 16  1  0
 16 17  2  0
 17 18  1  0
 12 19  1  0
 19 20  2  0
 19 21  1  0
 21 22  2  0
 22 23  1  0
 23 24  2  0
 24 25  1  0
 25 26  2  0
  7 27  1  0
 27 28  2  0
 27 29  1  0
 29 30  1  0
 30 31  1  0
 31 32  2  0
 32 33  1  0
 33 34  2  0
 34 35  1  0
 35 36  2  0
 34 37  1  0
 37 38  2  0
 38 39  1  0
 39 40  2  0
 40 41  1  0
 41 42  2  0
 42 43  1  0
 43 44  2  0
 44 45  1  0
 45 46  1  0
 46 47  2  0
 29  4  1  0
 11  6  1  0
 18 14  1  0
 26 21  1  0
 36 31  1  0
 42 37  1  0
 47 43  1  0
M  END
$$$$
