
     RDKit          3D

 47 53  0  0  0  0  0  0  0  0999 V2000
   -3.1527   -3.6772    3.2651 C   0  0  0  0  0  0  0  0  0  0  0  0
   -2.9734   -3.5644    4.7429 C   0  0  0  0  0  0  0  0  0  0  0  0
   -2.3891   -2.1904    5.0977 C   0  0  0  0  0  0  0  0  0  0  0  0
   -2.2642   -2.0628    6.5702 C   0  0  0  0  0  0  0  0  0  0  0  0
   -2.8161   -3.0420    7.3376 N   0  0  0  0  0  0  0  0  0  0  0  0
   -2.7788   -3.0229    8.6802 C   0  0  0  0  0  0  0  0  0  0  0  0
   -2.1505   -1.9578    9.2601 C   0  0  0  0  0  0  0  0  0  0  0  0
   -2.0989   -1.9053   10.6360 C   0  0  0  0  0  0  0  0  0  0  0  0
   -2.6513   -2.8775   11.4433 C   0  0  0  0  0  0  0  0  0  0  0  0
   -3.2776   -3.9404   10.8446 C   0  0  0  0  0  0  0  0  0  0  0  0
   -3.3404   -4.0120    9.4613 C   0  0  0  0  0  0  0  0  0  0  0  0
   -2.5846   -2.7804   12.8759 N   0  0  0  0  0  0  0  0  0  0  0  0
   -1.6582   -3.5884   13.6307 C   0  0  0  0  0  0  0  0  0  0  0  0
   -2.0557   -5.0447   13.6141 C   0  0  0  0  0  0  0  0  0  0  0  0
   -1.4582   -6.0566   12.9005 C   0  0  0  0  0  0  0  0  0  0  0  0
   -2.1368   -7.2089   13.1780 C   0  0  0  0  0  0  0  0  0  0  0  0
   -3.1338   -6.8668   14.0570 C   0  0  0  0  0  0  0  0  0  0  0  0
   -3.0429   -5.5863   14.2809 O   0  0  0  0  0  0  0  0  0  0  0  0
   -3.4463   -1.8585   13.5091 C   0  0  0  0  0  0  0  0  0  0  0  0
   -3.2038   -1.5233   14.7131 O   0  0  0  0  0  0  0  0  0  0  0  0
   -4.6092   -1.2762   12.8171 C   0  0  0  0  0  0  0  0  0  0  0  0
   -5.7354   -2.0295   12.5964 C   0  0  0  0  0  0  0  0  0  0  0  0
   -6.8559   -1.5105   11.9552 C   0  0  0  0  0  0  0  0  0  0  0  0
   -6.8571   -0.2029   11.5203 C   0  0  0  0  0  0  0  0  0  0  0  0
   -5.7139    0.5489   11.7481 C   0  0  0  0  0  0  0  0  0  0  0  0
   -4.6099    0.0274   12.3833 C   0  0  0  0  0  0  0  0  0  0  0  0
   -1.6019   -0.9830    8.4538 C   0  0  0  0  0  0  0  0  0  0  0  0
   -1.0419   -0.0333    9.0546 O   0  0  0  0  0  0  0  0  0  0  0  0
   -1.6383   -0.9996    7.1047 N   0  0  0  0  0  0  0  0  0  0  0  0
   -1.0465    0.0807    6.3709 C   0  0  0  0  0  0  0  0  0  0  0  0
    0.3922    0.1168    6.2380 C   0  0  0  0  0  0  0  0  0  0  0  0
    0.9951    1.2668    5.7398 C   0  0  0  0  0  0  0  0  0  0  0  0
    2.3543    1.3957    5.5749 C   0  0  0  0  0  0  0  0  0  0  0  0
    3.1842    0.3546    5.9102 C   0  0  0  0  0  0  0  0  0  0  0  0
    2.6198   -0.8015    6.4076 C   0  0  0  0  0  0  0  0  0  0  0  0
    1.2454   -0.9026    6.5631 C   0  0  0  0  0  0  0  0  0  0  0  0
    4.6482    0.4720    5.7416 C   0  0  0  0  0  0  0  0  0  0  0  0
    5.2302    0.7366    4.5377 C   0  0  0  0  0  0  0  0  0  0  0  0
    6.6081    0.8420    4.4146 C   0  0  0  0  0  0  0  0  0  0  0  0
    7.4052    0.6781    5.5232 C   0  0  0  0  0  0  0  0  0  0  0  0
    6.7987    0.4137    6.7214 C   0  0  0  0  0  0  0  0  0  0  0  0
    5.4327    0.3018    6.8807 C   0  0  0  0  0  0  0  0  0  0  0  0
    4.8278    0.0208    8.1748 C   0  0  0  0  0  0  0  0  0  0  0  0
    3.9286    0.7341    8.8666 N   0  0  0  0  0  0  0  0  0  0  0  0
    3.6366    0.1355    9.9919 N   0  0  0  0  0  0  0  0  0  0  0  0
    4.3446   -0.9830   10.0531 N   0  0  0  0  0  0  0  0  0  0  0  0
    5.0807   -1.0562    8.9325 N   0  0  0  0  0  0  0  0  0  0  0  0
  1  2  1  0
  2  3  1  0
  3  4  1  0
  4  5  2  0
  5  6  1  0
  6  7  2  0
  7  8  1  0
  8  9  2  0
  9 10  1  0
 10 11  2  0
  9 12  1  0
 12 13  1  0
 13 14  1  0
 14 15  2  0
 15 16  1  0
 16 17  2  0
 17 18  1  0
 12 19  1  0
 19 20  2  0
 19 21  1  0
 21 22  2  0
 22 23  1  0
 23 24  2  0
 24 25  1  0
 25 26  2  0
  7 27  1  0
 27 28  2  0
 27 29  1  0
 29 30  1  0
 30 31  1  0
 31 32  2  0
 32 33  1  0
 33 34  2  0
 34 35  1  0
 35 36  2  0
 34 37  1  0
 37 38  2  0
 38 39  1  0
 39 40  2  0
 40 41  1  0
 41 42  2  0
 42 43  1  0
 43 44  2  0
 44 45  1  0
 45 46  1  0
 46 47  2  0
 29  4  1  0
 11  6  1  0
 18 14  1  0
 26 21  1  0
 36 31  1  0
 42 37  1  0
 47 43  1  0
M  END
$$$$
