
     RDKit          3D

 47 53  0  0  0  0  0  0  0  0999 V2000
   -2.9026   -0.2052    4.0047 C   0  0  0  0  0  0  0  0  0  0  0  0
   -2.5922   -0.3237    5.4602 C   0  0  0  0  0  0  0  0  0  0  0  0
   -2.4731   -1.8025    5.8531 C   0  0  0  0  0  0  0  0  0  0  0  0
   -2.3485   -1.9224    7.3262 C   0  0  0  0  0  0  0  0  0  0  0  0
   -3.4321   -1.5915    8.0802 N   0  0  0  0  0  0  0  0  0  0  0  0
   -3.4292   -1.6454    9.4224 C   0  0  0  0  0  0  0  0  0  0  0  0
   -2.2695   -2.0551   10.0161 C   0  0  0  0  0  0  0  0  0  0  0  0
   -2.2315   -2.1168   11.3921 C   0  0  0  0  0  0  0  0  0  0  0  0
   -3.3091   -1.7846   12.1861 C   0  0  0  0  0  0  0  0  0  0  0  0
   -4.4659   -1.3762   11.5736 C   0  0  0  0  0  0  0  0  0  0  0  0
   -4.5247   -1.3072   10.1900 C   0  0  0  0  0  0  0  0  0  0  0  0
   -3.2254   -1.8530   13.6195 N   0  0  0  0  0  0  0  0  0  0  0  0
   -2.8241   -0.7040   14.3937 C   0  0  0  0  0  0  0  0  0  0  0  0
   -1.3214   -0.5656   14.4375 C   0  0  0  0  0  0  0  0  0  0  0  0
   -0.5454    0.2689   13.6683 C   0  0  0  0  0  0  0  0  0  0  0  0
    0.7554    0.0706   14.0341 C   0  0  0  0  0  0  0  0  0  0  0  0
    0.7371   -0.8835   15.0206 C   0  0  0  0  0  0  0  0  0  0  0  0
   -0.5049   -1.2236   15.2204 O   0  0  0  0  0  0  0  0  0  0  0  0
   -3.5630   -3.0776   14.2360 C   0  0  0  0  0  0  0  0  0  0  0  0
   -3.5178   -3.1550   15.5058 O   0  0  0  0  0  0  0  0  0  0  0  0
   -3.9660   -4.2591   13.4538 C   0  0  0  0  0  0  0  0  0  0  0  0
   -3.7794   -4.2892   12.0942 C   0  0  0  0  0  0  0  0  0  0  0  0
   -4.1385   -5.3913   11.3246 C   0  0  0  0  0  0  0  0  0  0  0  0
   -4.7002   -6.4975   11.9248 C   0  0  0  0  0  0  0  0  0  0  0  0
   -4.8846   -6.4560   13.2989 C   0  0  0  0  0  0  0  0  0  0  0  0
   -4.5263   -5.3615   14.0525 C   0  0  0  0  0  0  0  0  0  0  0  0
   -1.1901   -2.3830    9.2231 C   0  0  0  0  0  0  0  0  0  0  0  0
   -0.1574   -2.7494    9.8363 O   0  0  0  0  0  0  0  0  0  0  0  0
   -1.1903   -2.3294    7.8745 N   0  0  0  0  0  0  0  0  0  0  0  0
   -0.0002   -2.6794    7.1557 C   0  0  0  0  0  0  0  0  0  0  0  0
    1.1840   -1.8738    7.3495 C   0  0  0  0  0  0  0  0  0  0  0  0
    1.1534   -0.8427    8.2824 C   0  0  0  0  0  0  0  0  0  0  0  0
    2.2272   -0.0217    8.5356 C   0  0  0  0  0  0  0  0  0  0  0  0
    3.4024   -0.2042    7.8497 C   0  0  0  0  0  0  0  0  0  0  0  0
    3.4681   -1.2181    6.9168 C   0  0  0  0  0  0  0  0  0  0  0  0
    2.3687   -2.0305    6.6827 C   0  0  0  0  0  0  0  0  0  0  0  0
    4.5693    0.6664    8.1067 C   0  0  0  0  0  0  0  0  0  0  0  0
    5.2726    0.6266    9.2738 C   0  0  0  0  0  0  0  0  0  0  0  0
    6.3644    1.4568    9.4820 C   0  0  0  0  0  0  0  0  0  0  0  0
    6.7485    2.3366    8.4973 C   0  0  0  0  0  0  0  0  0  0  0  0
    6.0278    2.3585    7.3339 C   0  0  0  0  0  0  0  0  0  0  0  0
    4.9373    1.5483    7.0925 C   0  0  0  0  0  0  0  0  0  0  0  0
    4.1989    1.6026    5.8390 C   0  0  0  0  0  0  0  0  0  0  0  0
    2.9171    1.9267    5.6199 N   0  0  0  0  0  0  0  0  0  0  0  0
    2.6379    1.8549    4.3445 N   0  0  0  0  0  0  0  0  0  0  0  0
    3.7381    1.4803    3.7078 N   0  0  0  0  0  0  0  0  0  0  0  0
    4.7032    1.3240    4.6283 N   0  0  0  0  0  0  0  0  0  0  0  0
  1  2  1  0
  2  3  1  0
  3  4  1  0
  4  5  2  0
  5  6  1  0
  6  7  2  0
  7  8  1  0
  8  9  2  0
  9 10  1  0
 10 11  2  0
  9 12  1  0
 12 13  1  0
 13 14  1  0
 14 15  2  0
 15 16  1  0
 16 17  2  0
 17 18  1  0
 12 19  1  0
 19 20  2  0
 19 21  1  0
 21 22  2  0
 22 23  1  0
 23 24  2  0
 24 25  1  0
 25 26  2  0
  7 27  1  0
 27 28  2  0
 27 29  1  0
 29 30  1  0
 30 31  1  0
 31 32  2  0
 32 33  1  0
 33 34  2  0
 34 35  1  0
 35 36  2  0
 34 37  1  0
 37 38  2  0
 38 39  1  0
 39 40  2  0
 40 41  1  0
 41 42  2  0
 42 43  1  0
 43 44  2  0
 44 45  1  0
 45 46  1  0
 46 47  2  0
 29  4  1  0
 11  6  1  0
 18 14  1  0
 26 21  1  0
 36 31  1  0
 42 37  1  0
 47 43  1  0
M  END
$$$$
