
     RDKit          3D

 47 53  0  0  0  0  0  0  0  0999 V2000
   -3.8864   -0.5967    3.0939 C   0  0  0  0  0  0  0  0  0  0  0  0
   -3.6000   -0.5795    4.5590 C   0  0  0  0  0  0  0  0  0  0  0  0
   -2.2782   -1.3052    4.8443 C   0  0  0  0  0  0  0  0  0  0  0  0
   -2.1252   -1.5145    6.3047 C   0  0  0  0  0  0  0  0  0  0  0  0
   -2.8689   -2.4969    6.8827 N   0  0  0  0  0  0  0  0  0  0  0  0
   -2.8247   -2.7651    8.1982 C   0  0  0  0  0  0  0  0  0  0  0  0
   -1.9846   -1.9961    8.9519 C   0  0  0  0  0  0  0  0  0  0  0  0
   -1.9193   -2.2422   10.3061 C   0  0  0  0  0  0  0  0  0  0  0  0
   -2.6619   -3.2261   10.9245 C   0  0  0  0  0  0  0  0  0  0  0  0
   -3.4997   -3.9895   10.1528 C   0  0  0  0  0  0  0  0  0  0  0  0
   -3.5799   -3.7578    8.7881 C   0  0  0  0  0  0  0  0  0  0  0  0
   -2.5723   -3.4444   12.3425 N   0  0  0  0  0  0  0  0  0  0  0  0
   -1.5431   -4.2885   12.8983 C   0  0  0  0  0  0  0  0  0  0  0  0
   -0.1799   -3.6520   12.7726 C   0  0  0  0  0  0  0  0  0  0  0  0
    0.9116   -4.1602   12.1088 C   0  0  0  0  0  0  0  0  0  0  0  0
    1.9310   -3.2623   12.2501 C   0  0  0  0  0  0  0  0  0  0  0  0
    1.4312   -2.2267   12.9993 C   0  0  0  0  0  0  0  0  0  0  0  0
    0.1892   -2.5036   13.2801 O   0  0  0  0  0  0  0  0  0  0  0  0
   -3.5170   -2.7927   13.1650 C   0  0  0  0  0  0  0  0  0  0  0  0
   -3.4139   -2.9139   14.4280 O   0  0  0  0  0  0  0  0  0  0  0  0
   -4.6098   -1.9797   12.6038 C   0  0  0  0  0  0  0  0  0  0  0  0
   -5.1546   -0.9507   13.3309 C   0  0  0  0  0  0  0  0  0  0  0  0
   -6.1807   -0.1558   12.8298 C   0  0  0  0  0  0  0  0  0  0  0  0
   -6.6804   -0.3906   11.5671 C   0  0  0  0  0  0  0  0  0  0  0  0
   -6.1229   -1.4330   10.8414 C   0  0  0  0  0  0  0  0  0  0  0  0
   -5.1080   -2.2144   11.3450 C   0  0  0  0  0  0  0  0  0  0  0  0
   -1.2452   -1.0091    8.3351 C   0  0  0  0  0  0  0  0  0  0  0  0
   -0.4960   -0.3407    9.0891 O   0  0  0  0  0  0  0  0  0  0  0  0
   -1.2879   -0.7374    7.0137 N   0  0  0  0  0  0  0  0  0  0  0  0
   -0.4839    0.3265    6.4873 C   0  0  0  0  0  0  0  0  0  0  0  0
    0.9496    0.2562    6.6578 C   0  0  0  0  0  0  0  0  0  0  0  0
    1.5977    1.2746    7.3487 C   0  0  0  0  0  0  0  0  0  0  0  0
    2.9564    1.2974    7.5601 C   0  0  0  0  0  0  0  0  0  0  0  0
    3.7394    0.2780    7.0776 C   0  0  0  0  0  0  0  0  0  0  0  0
    3.1294   -0.7488    6.3876 C   0  0  0  0  0  0  0  0  0  0  0  0
    1.7567   -0.7450    6.1898 C   0  0  0  0  0  0  0  0  0  0  0  0
    5.2018    0.2823    7.2941 C   0  0  0  0  0  0  0  0  0  0  0  0
    6.0962    0.3470    6.2674 C   0  0  0  0  0  0  0  0  0  0  0  0
    7.4629    0.3507    6.5058 C   0  0  0  0  0  0  0  0  0  0  0  0
    7.9289    0.2887    7.7982 C   0  0  0  0  0  0  0  0  0  0  0  0
    7.0124    0.2250    8.8128 C   0  0  0  0  0  0  0  0  0  0  0  0
    5.6471    0.2189    8.6130 C   0  0  0  0  0  0  0  0  0  0  0  0
    4.7060    0.1515    9.7218 C   0  0  0  0  0  0  0  0  0  0  0  0
    3.8585   -0.8300   10.0600 N   0  0  0  0  0  0  0  0  0  0  0  0
    3.1817   -0.5025   11.1298 N   0  0  0  0  0  0  0  0  0  0  0  0
    3.5780    0.7040   11.5083 N   0  0  0  0  0  0  0  0  0  0  0  0
    4.5191    1.1099   10.6407 N   0  0  0  0  0  0  0  0  0  0  0  0
  1  2  1  0
  2  3  1  0
  3  4  1  0
  4  5  2  0
  5  6  1  0
  6  7  2  0
  7  8  1  0
  8  9  2  0
  9 10  1  0
 10 11  2  0
  9 12  1  0
 12 13  1  0
 13 14  1  0
 14 15  2  0
 15 16  1  0
 16 17  2  0
 17 18  1  0
 12 19  1  0
 19 20  2  0
 19 21  1  0
 21 22  2  0
 22 23  1  0
 23 24  2  0
 24 25  1  0
 25 26  2  0
  7 27  1  0
 27 28  2  0
 27 29  1  0
 29 30  1  0
 30 31  1  0
 31 32  2  0
 32 33  1  0
 33 34  2  0
 34 35  1  0
 35 36  2  0
 34 37  1  0
 37 38  2  0
 38 39  1  0
 39 40  2  0
 40 41  1  0
 41 42  2  0
 42 43  1  0
 43 44  2  0
 44 45  1  0
 45 46  1  0
 46 47  2  0
 29  4  1  0
 11  6  1  0
 18 14  1  0
 26 21  1  0
 36 31  1  0
 42 37  1  0
 47 43  1  0
M  END
$$$$
