
     RDKit          3D

 47 53  0  0  0  0  0  0  0  0999 V2000
   -2.7725   -0.9397    3.4561 C   0  0  0  0  0  0  0  0  0  0  0  0
   -2.5651   -1.0041    4.9332 C   0  0  0  0  0  0  0  0  0  0  0  0
   -1.4462   -2.0013    5.2633 C   0  0  0  0  0  0  0  0  0  0  0  0
   -1.3705   -2.2033    6.7308 C   0  0  0  0  0  0  0  0  0  0  0  0
   -2.5340   -2.4389    7.3963 N   0  0  0  0  0  0  0  0  0  0  0  0
   -2.5885   -2.6200    8.7262 C   0  0  0  0  0  0  0  0  0  0  0  0
   -1.4030   -2.5575    9.4016 C   0  0  0  0  0  0  0  0  0  0  0  0
   -1.4245   -2.7342   10.7679 C   0  0  0  0  0  0  0  0  0  0  0  0
   -2.5856   -2.9700   11.4738 C   0  0  0  0  0  0  0  0  0  0  0  0
   -3.7668   -3.0306   10.7800 C   0  0  0  0  0  0  0  0  0  0  0  0
   -3.7667   -2.8554    9.4046 C   0  0  0  0  0  0  0  0  0  0  0  0
   -2.5664   -3.1391   12.9012 N   0  0  0  0  0  0  0  0  0  0  0  0
   -1.8609   -4.2418   13.5070 C   0  0  0  0  0  0  0  0  0  0  0  0
   -2.6919   -5.5021   13.4947 C   0  0  0  0  0  0  0  0  0  0  0  0
   -2.2403   -6.7884   13.3167 C   0  0  0  0  0  0  0  0  0  0  0  0
   -3.3259   -7.6151   13.3759 C   0  0  0  0  0  0  0  0  0  0  0  0
   -4.4145   -6.8069   13.5893 C   0  0  0  0  0  0  0  0  0  0  0  0
   -3.9890   -5.5768   13.6516 O   0  0  0  0  0  0  0  0  0  0  0  0
   -3.2493   -2.1812   13.6819 C   0  0  0  0  0  0  0  0  0  0  0  0
   -3.2133   -2.2885   14.9498 O   0  0  0  0  0  0  0  0  0  0  0  0
   -3.9952   -1.0668   13.0718 C   0  0  0  0  0  0  0  0  0  0  0  0
   -5.3250   -0.8816   13.3577 C   0  0  0  0  0  0  0  0  0  0  0  0
   -6.0589    0.1650   12.8082 C   0  0  0  0  0  0  0  0  0  0  0  0
   -5.4523    1.0550   11.9484 C   0  0  0  0  0  0  0  0  0  0  0  0
   -4.1086    0.8581   11.6662 C   0  0  0  0  0  0  0  0  0  0  0  0
   -3.3903   -0.1800   12.2144 C   0  0  0  0  0  0  0  0  0  0  0  0
   -0.2422   -2.3171    8.6971 C   0  0  0  0  0  0  0  0  0  0  0  0
    0.8090   -2.2714    9.3823 O   0  0  0  0  0  0  0  0  0  0  0  0
   -0.1848   -2.1345    7.3611 N   0  0  0  0  0  0  0  0  0  0  0  0
    1.0808   -1.8747    6.7396 C   0  0  0  0  0  0  0  0  0  0  0  0
    1.7267   -0.6073    6.9953 C   0  0  0  0  0  0  0  0  0  0  0  0
    3.0197   -0.4020    6.5258 C   0  0  0  0  0  0  0  0  0  0  0  0
    3.7169    0.7673    6.7207 C   0  0  0  0  0  0  0  0  0  0  0  0
    3.1343    1.8025    7.4090 C   0  0  0  0  0  0  0  0  0  0  0  0
    1.8522    1.6333    7.8889 C   0  0  0  0  0  0  0  0  0  0  0  0
    1.1735    0.4426    7.6769 C   0  0  0  0  0  0  0  0  0  0  0  0
    3.8654    3.0684    7.6293 C   0  0  0  0  0  0  0  0  0  0  0  0
    3.4074    4.2697    7.1760 C   0  0  0  0  0  0  0  0  0  0  0  0
    4.1179    5.4397    7.4016 C   0  0  0  0  0  0  0  0  0  0  0  0
    5.3051    5.3927    8.0942 C   0  0  0  0  0  0  0  0  0  0  0  0
    5.7448    4.1756    8.5402 C   0  0  0  0  0  0  0  0  0  0  0  0
    5.0652    2.9927    8.3341 C   0  0  0  0  0  0  0  0  0  0  0  0
    5.5680    1.7186    8.8273 C   0  0  0  0  0  0  0  0  0  0  0  0
    6.6780    1.0511    8.4830 N   0  0  0  0  0  0  0  0  0  0  0  0
    6.7723   -0.0623    9.1620 N   0  0  0  0  0  0  0  0  0  0  0  0
    5.7200   -0.1401    9.9637 N   0  0  0  0  0  0  0  0  0  0  0  0
    4.9751    0.9582    9.7590 N   0  0  0  0  0  0  0  0  0  0  0  0
  1  2  1  0
  2  3  1  0
  3  4  1  0
  4  5  2  0
  5  6  1  0
  6  7  2  0
  7  8  1  0
  8  9  2  0
  9 10  1  0
 10 11  2  0
  9 12  1  0
 12 13  1  0
 13 14  1  0
 14 15  2  0
 15 16  1  0
 16 17  2  0
 17 18  1  0
 12 19  1  0
 19 20  2  0
 19 21  1  0
 21 22  2  0
 22 23  1  0
 23 24  2  0
 24 25  1  0
 25 26  2  0
  7 27  1  0
 27 28  2  0
 27 29  1  0
 29 30  1  0
 30 31  1  0
 31 32  2  0
 32 33  1  0
 33 34  2  0
 34 35  1  0
 35 36  2  0
 34 37  1  0
 37 38  2  0
 38 39  1  0
 39 40  2  0
 40 41  1  0
 41 42  2  0
 42 43  1  0
 43 44  2  0
 44 45  1  0
 45 46  1  0
 46 47  2  0
 29  4  1  0
 11  6  1  0
 18 14  1  0
 26 21  1  0
 36 31  1  0
 42 37  1  0
 47 43  1  0
M  END
$$$$
