
     RDKit          3D

 47 53  0  0  0  0  0  0  0  0999 V2000
   -4.2835    1.9866   13.0346 C   0  0  0  0  0  0  0  0  0  0  0  0
   -3.9408    1.5907   11.6365 C   0  0  0  0  0  0  0  0  0  0  0  0
   -2.8938    0.4687   11.6501 C   0  0  0  0  0  0  0  0  0  0  0  0
   -2.4517    0.1775   10.2646 C   0  0  0  0  0  0  0  0  0  0  0  0
   -1.8373    1.1771    9.5750 N   0  0  0  0  0  0  0  0  0  0  0  0
   -1.4101    1.0330    8.3096 C   0  0  0  0  0  0  0  0  0  0  0  0
   -1.6207   -0.1844    7.7273 C   0  0  0  0  0  0  0  0  0  0  0  0
   -1.1987   -0.3638    6.4279 C   0  0  0  0  0  0  0  0  0  0  0  0
   -0.5773    0.6285    5.6991 C   0  0  0  0  0  0  0  0  0  0  0  0
   -0.3729    1.8443    6.2994 C   0  0  0  0  0  0  0  0  0  0  0  0
   -0.7901    2.0453    7.6063 C   0  0  0  0  0  0  0  0  0  0  0  0
   -0.1609    0.4039    4.3417 N   0  0  0  0  0  0  0  0  0  0  0  0
   -1.1237    0.3660    3.2683 C   0  0  0  0  0  0  0  0  0  0  0  0
   -1.8636   -0.9496    3.2368 C   0  0  0  0  0  0  0  0  0  0  0  0
   -1.4696   -2.1046    2.6036 C   0  0  0  0  0  0  0  0  0  0  0  0
   -2.4332   -3.0452    2.8315 C   0  0  0  0  0  0  0  0  0  0  0  0
   -3.3925   -2.4356    3.6008 C   0  0  0  0  0  0  0  0  0  0  0  0
   -3.0109   -1.2075    3.8110 O   0  0  0  0  0  0  0  0  0  0  0  0
    1.2204    0.2372    4.1010 C   0  0  0  0  0  0  0  0  0  0  0  0
    1.6214    0.1232    2.8983 O   0  0  0  0  0  0  0  0  0  0  0  0
    2.2031    0.1944    5.1977 C   0  0  0  0  0  0  0  0  0  0  0  0
    2.1989   -0.8448    6.0946 C   0  0  0  0  0  0  0  0  0  0  0  0
    3.1176   -0.9235    7.1366 C   0  0  0  0  0  0  0  0  0  0  0  0
    4.0698    0.0606    7.2917 C   0  0  0  0  0  0  0  0  0  0  0  0
    4.0646    1.1061    6.3800 C   0  0  0  0  0  0  0  0  0  0  0  0
    3.1520    1.1760    5.3522 C   0  0  0  0  0  0  0  0  0  0  0  0
   -2.2461   -1.1756    8.4537 C   0  0  0  0  0  0  0  0  0  0  0  0
   -2.4080   -2.2674    7.8550 O   0  0  0  0  0  0  0  0  0  0  0  0
   -2.6765   -1.0333    9.7250 N   0  0  0  0  0  0  0  0  0  0  0  0
   -3.3297   -2.1320   10.3744 C   0  0  0  0  0  0  0  0  0  0  0  0
   -2.5615   -2.9489   11.2862 C   0  0  0  0  0  0  0  0  0  0  0  0
   -3.2319   -3.8037   12.1548 C   0  0  0  0  0  0  0  0  0  0  0  0
   -2.5897   -4.6170   13.0588 C   0  0  0  0  0  0  0  0  0  0  0  0
   -1.2187   -4.6077   13.1314 C   0  0  0  0  0  0  0  0  0  0  0  0
   -0.5216   -3.7718   12.2842 C   0  0  0  0  0  0  0  0  0  0  0  0
   -1.1965   -2.9625   11.3825 C   0  0  0  0  0  0  0  0  0  0  0  0
   -0.5080   -5.4746   14.0953 C   0  0  0  0  0  0  0  0  0  0  0  0
    0.3285   -6.4771   13.7037 C   0  0  0  0  0  0  0  0  0  0  0  0
    0.9815   -7.2715   14.6350 C   0  0  0  0  0  0  0  0  0  0  0  0
    0.7854   -7.0477   15.9776 C   0  0  0  0  0  0  0  0  0  0  0  0
   -0.0584   -6.0354   16.3472 C   0  0  0  0  0  0  0  0  0  0  0  0
   -0.7242   -5.2264   15.4494 C   0  0  0  0  0  0  0  0  0  0  0  0
   -1.6126   -4.1586   15.8854 C   0  0  0  0  0  0  0  0  0  0  0  0
   -2.8166   -4.2383   16.4687 N   0  0  0  0  0  0  0  0  0  0  0  0
   -3.2905   -3.0431   16.7063 N   0  0  0  0  0  0  0  0  0  0  0  0
   -2.3995   -2.1599   16.2794 N   0  0  0  0  0  0  0  0  0  0  0  0
   -1.3627   -2.8461   15.7723 N   0  0  0  0  0  0  0  0  0  0  0  0
  1  2  1  0
  2  3  1  0
  3  4  1  0
  4  5  2  0
  5  6  1  0
  6  7  2  0
  7  8  1  0
  8  9  2  0
  9 10  1  0
 10 11  2  0
  9 12  1  0
 12 13  1  0
 13 14  1  0
 14 15  2  0
 15 16  1  0
 16 17  2  0
 17 18  1  0
 12 19  1  0
 19 20  2  0
 19 21  1  0
 21 22  2  0
 22 23  1  0
 23 24  2  0
 24 25  1  0
 25 26  2  0
  7 27  1  0
 27 28  2  0
 27 29  1  0
 29 30  1  0
 30 31  1  0
 31 32  2  0
 32 33  1  0
 33 34  2  0
 34 35  1  0
 35 36  2  0
 34 37  1  0
 37 38  2  0
 38 39  1  0
 39 40  2  0
 40 41  1  0
 41 42  2  0
 42 43  1  0
 43 44  2  0
 44 45  1  0
 45 46  1  0
 46 47  2  0
 29  4  1  0
 11  6  1  0
 18 14  1  0
 26 21  1  0
 36 31  1  0
 42 37  1  0
 47 43  1  0
M  END
$$$$
