
     RDKit          3D

 47 53  0  0  0  0  0  0  0  0999 V2000
    3.2184   -4.5997   12.2772 C   0  0  0  0  0  0  0  0  0  0  0  0
    1.8820   -4.0560   11.8933 C   0  0  0  0  0  0  0  0  0  0  0  0
    1.8525   -2.5364   12.1056 C   0  0  0  0  0  0  0  0  0  0  0  0
    0.4922   -2.0163   11.8243 C   0  0  0  0  0  0  0  0  0  0  0  0
   -0.5597   -2.8540   12.0342 N   0  0  0  0  0  0  0  0  0  0  0  0
   -1.8330   -2.4974   11.7982 C   0  0  0  0  0  0  0  0  0  0  0  0
   -2.0371   -1.2312   11.3285 C   0  0  0  0  0  0  0  0  0  0  0  0
   -3.3316   -0.8353   11.0714 C   0  0  0  0  0  0  0  0  0  0  0  0
   -4.4195   -1.6597   11.2686 C   0  0  0  0  0  0  0  0  0  0  0  0
   -4.1967   -2.9274   11.7415 C   0  0  0  0  0  0  0  0  0  0  0  0
   -2.9015   -3.3452   12.0064 C   0  0  0  0  0  0  0  0  0  0  0  0
   -5.7541   -1.2114   10.9785 N   0  0  0  0  0  0  0  0  0  0  0  0
   -6.6679   -0.8694   12.0409 C   0  0  0  0  0  0  0  0  0  0  0  0
   -7.4577   -2.0721   12.4979 C   0  0  0  0  0  0  0  0  0  0  0  0
   -8.5007   -2.6762   11.8365 C   0  0  0  0  0  0  0  0  0  0  0  0
   -8.9215   -3.7233   12.6057 C   0  0  0  0  0  0  0  0  0  0  0  0
   -8.1202   -3.7293   13.7200 C   0  0  0  0  0  0  0  0  0  0  0  0
   -7.2781   -2.7411   13.6083 O   0  0  0  0  0  0  0  0  0  0  0  0
   -6.1276   -1.1065    9.6209 C   0  0  0  0  0  0  0  0  0  0  0  0
   -7.2546   -0.5878    9.3358 O   0  0  0  0  0  0  0  0  0  0  0  0
   -5.2521   -1.5760    8.5330 C   0  0  0  0  0  0  0  0  0  0  0  0
   -4.8288   -2.8813    8.4959 C   0  0  0  0  0  0  0  0  0  0  0  0
   -4.0099   -3.3624    7.4791 C   0  0  0  0  0  0  0  0  0  0  0  0
   -3.5994   -2.5206    6.4682 C   0  0  0  0  0  0  0  0  0  0  0  0
   -4.0327   -1.2037    6.5160 C   0  0  0  0  0  0  0  0  0  0  0  0
   -4.8428   -0.7362    7.5256 C   0  0  0  0  0  0  0  0  0  0  0  0
   -0.9496   -0.4078   11.1267 C   0  0  0  0  0  0  0  0  0  0  0  0
   -1.2115    0.7407   10.6923 O   0  0  0  0  0  0  0  0  0  0  0  0
    0.3308   -0.7639   11.3627 N   0  0  0  0  0  0  0  0  0  0  0  0
    1.3825    0.1742   11.0991 C   0  0  0  0  0  0  0  0  0  0  0  0
    2.0746    0.0955    9.8328 C   0  0  0  0  0  0  0  0  0  0  0  0
    3.0770    1.0183    9.5531 C   0  0  0  0  0  0  0  0  0  0  0  0
    3.7894    1.0258    8.3768 C   0  0  0  0  0  0  0  0  0  0  0  0
    3.5213    0.0878    7.4107 C   0  0  0  0  0  0  0  0  0  0  0  0
    2.5331   -0.8430    7.6548 C   0  0  0  0  0  0  0  0  0  0  0  0
    1.8311   -0.8261    8.8508 C   0  0  0  0  0  0  0  0  0  0  0  0
    4.2756    0.0772    6.1392 C   0  0  0  0  0  0  0  0  0  0  0  0
    3.6945    0.3564    4.9381 C   0  0  0  0  0  0  0  0  0  0  0  0
    4.4321    0.3392    3.7631 C   0  0  0  0  0  0  0  0  0  0  0  0
    5.7729    0.0364    3.8052 C   0  0  0  0  0  0  0  0  0  0  0  0
    6.3347   -0.2399    5.0224 C   0  0  0  0  0  0  0  0  0  0  0  0
    5.6324   -0.2325    6.2101 C   0  0  0  0  0  0  0  0  0  0  0  0
    6.2696   -0.5312    7.4845 C   0  0  0  0  0  0  0  0  0  0  0  0
    6.1172   -1.5966    8.2831 N   0  0  0  0  0  0  0  0  0  0  0  0
    6.8747   -1.4867    9.3432 N   0  0  0  0  0  0  0  0  0  0  0  0
    7.5362   -0.3420    9.2534 N   0  0  0  0  0  0  0  0  0  0  0  0
    7.1645    0.2497    8.1068 N   0  0  0  0  0  0  0  0  0  0  0  0
  1  2  1  0
  2  3  1  0
  3  4  1  0
  4  5  2  0
  5  6  1  0
  6  7  2  0
  7  8  1  0
  8  9  2  0
  9 10  1  0
 10 11  2  0
  9 12  1  0
 12 13  1  0
 13 14  1  0
 14 15  2  0
 15 16  1  0
 16 17  2  0
 17 18  1  0
 12 19  1  0
 19 20  2  0
 19 21  1  0
 21 22  2  0
 22 23  1  0
 23 24  2  0
 24 25  1  0
 25 26  2  0
  7 27  1  0
 27 28  2  0
 27 29  1  0
 29 30  1  0
 30 31  1  0
 31 32  2  0
 32 33  1  0
 33 34  2  0
 34 35  1  0
 35 36  2  0
 34 37  1  0
 37 38  2  0
 38 39  1  0
 39 40  2  0
 40 41  1  0
 41 42  2  0
 42 43  1  0
 43 44  2  0
 44 45  1  0
 45 46  1  0
 46 47  2  0
 29  4  1  0
 11  6  1  0
 18 14  1  0
 26 21  1  0
 36 31  1  0
 42 37  1  0
 47 43  1  0
M  END
$$$$
