
     RDKit          3D

 47 53  0  0  0  0  0  0  0  0999 V2000
   -3.6035   -2.2426    3.3223 C   0  0  0  0  0  0  0  0  0  0  0  0
   -2.9241   -1.2737    4.2326 C   0  0  0  0  0  0  0  0  0  0  0  0
   -1.7976   -1.9770    5.0018 C   0  0  0  0  0  0  0  0  0  0  0  0
   -1.9893   -1.7850    6.4600 C   0  0  0  0  0  0  0  0  0  0  0  0
   -2.7984   -2.6644    7.1114 N   0  0  0  0  0  0  0  0  0  0  0  0
   -3.0577   -2.5785    8.4266 C   0  0  0  0  0  0  0  0  0  0  0  0
   -2.4639   -1.5505    9.1018 C   0  0  0  0  0  0  0  0  0  0  0  0
   -2.7132   -1.4310   10.4517 C   0  0  0  0  0  0  0  0  0  0  0  0
   -3.5309   -2.3013   11.1416 C   0  0  0  0  0  0  0  0  0  0  0  0
   -4.1182   -3.3284   10.4485 C   0  0  0  0  0  0  0  0  0  0  0  0
   -3.8802   -3.4661    9.0895 C   0  0  0  0  0  0  0  0  0  0  0  0
   -3.7733   -2.1360   12.5488 N   0  0  0  0  0  0  0  0  0  0  0  0
   -4.6799   -1.1226   13.0302 C   0  0  0  0  0  0  0  0  0  0  0  0
   -3.9689    0.1888   13.2621 C   0  0  0  0  0  0  0  0  0  0  0  0
   -3.7024    1.1612   12.3275 C   0  0  0  0  0  0  0  0  0  0  0  0
   -3.0437    2.1730   12.9660 C   0  0  0  0  0  0  0  0  0  0  0  0
   -2.9260    1.7882   14.2782 C   0  0  0  0  0  0  0  0  0  0  0  0
   -3.4847    0.6173   14.3999 O   0  0  0  0  0  0  0  0  0  0  0  0
   -3.1038   -3.0088   13.4341 C   0  0  0  0  0  0  0  0  0  0  0  0
   -3.3105   -2.8873   14.6843 O   0  0  0  0  0  0  0  0  0  0  0  0
   -2.1807   -4.0507   12.9521 C   0  0  0  0  0  0  0  0  0  0  0  0
   -2.4302   -5.3751   13.2131 C   0  0  0  0  0  0  0  0  0  0  0  0
   -1.5862   -6.3868   12.7657 C   0  0  0  0  0  0  0  0  0  0  0  0
   -0.4600   -6.0726   12.0363 C   0  0  0  0  0  0  0  0  0  0  0  0
   -0.2175   -4.7313   11.7788 C   0  0  0  0  0  0  0  0  0  0  0  0
   -1.0578   -3.7370   12.2253 C   0  0  0  0  0  0  0  0  0  0  0  0
   -1.6499   -0.6771    8.4119 C   0  0  0  0  0  0  0  0  0  0  0  0
   -1.1393    0.2441    9.0955 O   0  0  0  0  0  0  0  0  0  0  0  0
   -1.3880   -0.7609    7.0905 N   0  0  0  0  0  0  0  0  0  0  0  0
   -0.5370    0.2169    6.4779 C   0  0  0  0  0  0  0  0  0  0  0  0
    0.8753    0.1896    6.7837 C   0  0  0  0  0  0  0  0  0  0  0  0
    1.6412    1.3239    6.5364 C   0  0  0  0  0  0  0  0  0  0  0  0
    2.9907    1.3939    6.7916 C   0  0  0  0  0  0  0  0  0  0  0  0
    3.6432    0.3061    7.3172 C   0  0  0  0  0  0  0  0  0  0  0  0
    2.9140   -0.8360    7.5751 C   0  0  0  0  0  0  0  0  0  0  0  0
    1.5538   -0.8772    7.3074 C   0  0  0  0  0  0  0  0  0  0  0  0
    5.0933    0.3598    7.6000 C   0  0  0  0  0  0  0  0  0  0  0  0
    6.0182    0.6505    6.6417 C   0  0  0  0  0  0  0  0  0  0  0  0
    7.3721    0.6943    6.9414 C   0  0  0  0  0  0  0  0  0  0  0  0
    7.7938    0.4415    8.2257 C   0  0  0  0  0  0  0  0  0  0  0  0
    6.8472    0.1525    9.1711 C   0  0  0  0  0  0  0  0  0  0  0  0
    5.4935    0.0999    8.9092 C   0  0  0  0  0  0  0  0  0  0  0  0
    4.5191   -0.2101    9.9455 C   0  0  0  0  0  0  0  0  0  0  0  0
    3.4308    0.4752   10.3226 N   0  0  0  0  0  0  0  0  0  0  0  0
    2.8142   -0.1435   11.2957 N   0  0  0  0  0  0  0  0  0  0  0  0
    3.4938   -1.2474   11.5709 N   0  0  0  0  0  0  0  0  0  0  0  0
    4.5467   -1.2908   10.7387 N   0  0  0  0  0  0  0  0  0  0  0  0
  1  2  1  0
  2  3  1  0
  3  4  1  0
  4  5  2  0
  5  6  1  0
  6  7  2  0
  7  8  1  0
  8  9  2  0
  9 10  1  0
 10 11  2  0
  9 12  1  0
 12 13  1  0
 13 14  1  0
 14 15  2  0
 15 16  1  0
 16 17  2  0
 17 18  1  0
 12 19  1  0
 19 20  2  0
 19 21  1  0
 21 22  2  0
 22 23  1  0
 23 24  2  0
 24 25  1  0
 25 26  2  0
  7 27  1  0
 27 28  2  0
 27 29  1  0
 29 30  1  0
 30 31  1  0
 31 32  2  0
 32 33  1  0
 33 34  2  0
 34 35  1  0
 35 36  2  0
 34 37  1  0
 37 38  2  0
 38 39  1  0
 39 40  2  0
 40 41  1  0
 41 42  2  0
 42 43  1  0
 43 44  2  0
 44 45  1  0
 45 46  1  0
 46 47  2  0
 29  4  1  0
 11  6  1  0
 18 14  1  0
 26 21  1  0
 36 31  1  0
 42 37  1  0
 47 43  1  0
M  END
$$$$
