
     RDKit          3D

 47 53  0  0  0  0  0  0  0  0999 V2000
   -2.5902   -1.8373    3.0472 C   0  0  0  0  0  0  0  0  0  0  0  0
   -2.6411   -1.4683    4.4930 C   0  0  0  0  0  0  0  0  0  0  0  0
   -1.3532   -1.9187    5.1955 C   0  0  0  0  0  0  0  0  0  0  0  0
   -1.4919   -1.7399    6.6614 C   0  0  0  0  0  0  0  0  0  0  0  0
   -2.3731   -2.5453    7.3149 N   0  0  0  0  0  0  0  0  0  0  0  0
   -2.5932   -2.4621    8.6373 C   0  0  0  0  0  0  0  0  0  0  0  0
   -1.8816   -1.5157    9.3180 C   0  0  0  0  0  0  0  0  0  0  0  0
   -2.0875   -1.4008   10.6756 C   0  0  0  0  0  0  0  0  0  0  0  0
   -2.9755   -2.1971   11.3678 C   0  0  0  0  0  0  0  0  0  0  0  0
   -3.6811   -3.1428   10.6692 C   0  0  0  0  0  0  0  0  0  0  0  0
   -3.4885   -3.2745    9.3024 C   0  0  0  0  0  0  0  0  0  0  0  0
   -3.1685   -2.0386   12.7835 N   0  0  0  0  0  0  0  0  0  0  0  0
   -4.0299   -1.0044   13.3023 C   0  0  0  0  0  0  0  0  0  0  0  0
   -5.4855   -1.3856   13.1796 C   0  0  0  0  0  0  0  0  0  0  0  0
   -6.1854   -2.2477   13.9902 C   0  0  0  0  0  0  0  0  0  0  0  0
   -7.4665   -2.3024   13.5200 C   0  0  0  0  0  0  0  0  0  0  0  0
   -7.5130   -1.4686   12.4308 C   0  0  0  0  0  0  0  0  0  0  0  0
   -6.3258   -0.9551   12.2734 O   0  0  0  0  0  0  0  0  0  0  0  0
   -2.4970   -2.9386   13.6393 C   0  0  0  0  0  0  0  0  0  0  0  0
   -2.6554   -2.8193   14.8967 O   0  0  0  0  0  0  0  0  0  0  0  0
   -1.6256   -4.0064   13.1188 C   0  0  0  0  0  0  0  0  0  0  0  0
   -1.8275   -5.3119   13.4919 C   0  0  0  0  0  0  0  0  0  0  0  0
   -1.0310   -6.3475   13.0131 C   0  0  0  0  0  0  0  0  0  0  0  0
   -0.0027   -6.0772   12.1364 C   0  0  0  0  0  0  0  0  0  0  0  0
    0.1925   -4.7546   11.7665 C   0  0  0  0  0  0  0  0  0  0  0  0
   -0.6002   -3.7364   12.2451 C   0  0  0  0  0  0  0  0  0  0  0  0
   -0.9969   -0.7159    8.6258 C   0  0  0  0  0  0  0  0  0  0  0  0
   -0.3788    0.1326    9.3147 O   0  0  0  0  0  0  0  0  0  0  0  0
   -0.7742   -0.7973    7.2971 N   0  0  0  0  0  0  0  0  0  0  0  0
    0.1598    0.1008    6.6834 C   0  0  0  0  0  0  0  0  0  0  0  0
    1.5670   -0.0702    6.9650 C   0  0  0  0  0  0  0  0  0  0  0  0
    2.4748    0.8494    6.4504 C   0  0  0  0  0  0  0  0  0  0  0  0
    3.8314    0.7700    6.6613 C   0  0  0  0  0  0  0  0  0  0  0  0
    4.3461   -0.2567    7.4136 C   0  0  0  0  0  0  0  0  0  0  0  0
    3.4741   -1.1870    7.9397 C   0  0  0  0  0  0  0  0  0  0  0  0
    2.1105   -1.0812    7.7102 C   0  0  0  0  0  0  0  0  0  0  0  0
    5.8012   -0.3608    7.6535 C   0  0  0  0  0  0  0  0  0  0  0  0
    6.5282   -1.4570    7.2956 C   0  0  0  0  0  0  0  0  0  0  0  0
    7.8934   -1.5215    7.5339 C   0  0  0  0  0  0  0  0  0  0  0  0
    8.5293   -0.4640    8.1409 C   0  0  0  0  0  0  0  0  0  0  0  0
    7.7792    0.6261    8.4908 C   0  0  0  0  0  0  0  0  0  0  0  0
    6.4209    0.7246    8.2698 C   0  0  0  0  0  0  0  0  0  0  0  0
    5.6603    1.9042    8.6567 C   0  0  0  0  0  0  0  0  0  0  0  0
    4.6225    2.0092    9.4981 N   0  0  0  0  0  0  0  0  0  0  0  0
    4.2200    3.2508    9.5765 N   0  0  0  0  0  0  0  0  0  0  0  0
    4.9919    3.9794    8.7831 N   0  0  0  0  0  0  0  0  0  0  0  0
    5.8820    3.1503    8.2143 N   0  0  0  0  0  0  0  0  0  0  0  0
  1  2  1  0
  2  3  1  0
  3  4  1  0
  4  5  2  0
  5  6  1  0
  6  7  2  0
  7  8  1  0
  8  9  2  0
  9 10  1  0
 10 11  2  0
  9 12  1  0
 12 13  1  0
 13 14  1  0
 14 15  2  0
 15 16  1  0
 16 17  2  0
 17 18  1  0
 12 19  1  0
 19 20  2  0
 19 21  1  0
 21 22  2  0
 22 23  1  0
 23 24  2  0
 24 25  1  0
 25 26  2  0
  7 27  1  0
 27 28  2  0
 27 29  1  0
 29 30  1  0
 30 31  1  0
 31 32  2  0
 32 33  1  0
 33 34  2  0
 34 35  1  0
 35 36  2  0
 34 37  1  0
 37 38  2  0
 38 39  1  0
 39 40  2  0
 40 41  1  0
 41 42  2  0
 42 43  1  0
 43 44  2  0
 44 45  1  0
 45 46  1  0
 46 47  2  0
 29  4  1  0
 11  6  1  0
 18 14  1  0
 26 21  1  0
 36 31  1  0
 42 37  1  0
 47 43  1  0
M  END
$$$$
