
     RDKit          3D

 47 53  0  0  0  0  0  0  0  0999 V2000
   -2.7651   -1.5773    3.1569 C   0  0  0  0  0  0  0  0  0  0  0  0
   -2.7470   -1.2907    4.6220 C   0  0  0  0  0  0  0  0  0  0  0  0
   -1.6975   -2.1694    5.3160 C   0  0  0  0  0  0  0  0  0  0  0  0
   -1.8100   -2.0189    6.7873 C   0  0  0  0  0  0  0  0  0  0  0  0
   -2.6853   -2.8316    7.4397 N   0  0  0  0  0  0  0  0  0  0  0  0
   -2.8823   -2.7732    8.7672 C   0  0  0  0  0  0  0  0  0  0  0  0
   -2.1529   -1.8450    9.4541 C   0  0  0  0  0  0  0  0  0  0  0  0
   -2.3349   -1.7557   10.8170 C   0  0  0  0  0  0  0  0  0  0  0  0
   -3.2163   -2.5600   11.5085 C   0  0  0  0  0  0  0  0  0  0  0  0
   -3.9399   -3.4872   10.8036 C   0  0  0  0  0  0  0  0  0  0  0  0
   -3.7715   -3.5929    9.4313 C   0  0  0  0  0  0  0  0  0  0  0  0
   -3.3841   -2.4284   12.9301 N   0  0  0  0  0  0  0  0  0  0  0  0
   -3.8846   -1.2046   13.5066 C   0  0  0  0  0  0  0  0  0  0  0  0
   -2.7593   -0.3219   13.9902 C   0  0  0  0  0  0  0  0  0  0  0  0
   -2.5964    0.1912   15.2552 C   0  0  0  0  0  0  0  0  0  0  0  0
   -1.4495    0.9327   15.2515 C   0  0  0  0  0  0  0  0  0  0  0  0
   -0.9421    0.8512   13.9788 C   0  0  0  0  0  0  0  0  0  0  0  0
   -1.7473    0.1038   13.2780 O   0  0  0  0  0  0  0  0  0  0  0  0
   -3.0552   -3.5425   13.7328 C   0  0  0  0  0  0  0  0  0  0  0  0
   -3.3978   -3.5344   14.9588 O   0  0  0  0  0  0  0  0  0  0  0  0
   -2.3330   -4.7070   13.1919 C   0  0  0  0  0  0  0  0  0  0  0  0
   -2.8187   -5.9765   13.3839 C   0  0  0  0  0  0  0  0  0  0  0  0
   -2.1691   -7.0989   12.8795 C   0  0  0  0  0  0  0  0  0  0  0  0
   -1.0014   -6.9550   12.1620 C   0  0  0  0  0  0  0  0  0  0  0  0
   -0.5196   -5.6678   11.9744 C   0  0  0  0  0  0  0  0  0  0  0  0
   -1.1686   -4.5631   12.4770 C   0  0  0  0  0  0  0  0  0  0  0  0
   -1.2749   -1.0372    8.7627 C   0  0  0  0  0  0  0  0  0  0  0  0
   -0.6395   -0.2065    9.4575 O   0  0  0  0  0  0  0  0  0  0  0  0
   -1.0753   -1.0936    7.4291 N   0  0  0  0  0  0  0  0  0  0  0  0
   -0.1460   -0.1894    6.8172 C   0  0  0  0  0  0  0  0  0  0  0  0
    1.2366   -0.2345    7.2359 C   0  0  0  0  0  0  0  0  0  0  0  0
    2.0246    0.9015    7.0853 C   0  0  0  0  0  0  0  0  0  0  0  0
    3.3491    0.9555    7.4514 C   0  0  0  0  0  0  0  0  0  0  0  0
    3.9522   -0.1512    7.9961 C   0  0  0  0  0  0  0  0  0  0  0  0
    3.1998   -1.2956    8.1601 C   0  0  0  0  0  0  0  0  0  0  0  0
    1.8658   -1.3204    7.7816 C   0  0  0  0  0  0  0  0  0  0  0  0
    5.3746   -0.1149    8.3974 C   0  0  0  0  0  0  0  0  0  0  0  0
    5.7817   -0.3304    9.6804 C   0  0  0  0  0  0  0  0  0  0  0  0
    7.1255   -0.2908   10.0229 C   0  0  0  0  0  0  0  0  0  0  0  0
    8.0674   -0.0304    9.0553 C   0  0  0  0  0  0  0  0  0  0  0  0
    7.6353    0.1822    7.7740 C   0  0  0  0  0  0  0  0  0  0  0  0
    6.3083    0.1508    7.3976 C   0  0  0  0  0  0  0  0  0  0  0  0
    5.8914    0.3812    6.0219 C   0  0  0  0  0  0  0  0  0  0  0  0
    5.9168   -0.4537    4.9739 N   0  0  0  0  0  0  0  0  0  0  0  0
    5.4509    0.1382    3.9051 N   0  0  0  0  0  0  0  0  0  0  0  0
    5.1131    1.3752    4.2398 N   0  0  0  0  0  0  0  0  0  0  0  0
    5.3840    1.5276    5.5462 N   0  0  0  0  0  0  0  0  0  0  0  0
  1  2  1  0
  2  3  1  0
  3  4  1  0
  4  5  2  0
  5  6  1  0
  6  7  2  0
  7  8  1  0
  8  9  2  0
  9 10  1  0
 10 11  2  0
  9 12  1  0
 12 13  1  0
 13 14  1  0
 14 15  2  0
 15 16  1  0
 16 17  2  0
 17 18  1  0
 12 19  1  0
 19 20  2  0
 19 21  1  0
 21 22  2  0
 22 23  1  0
 23 24  2  0
 24 25  1  0
 25 26  2  0
  7 27  1  0
 27 28  2  0
 27 29  1  0
 29 30  1  0
 30 31  1  0
 31 32  2  0
 32 33  1  0
 33 34  2  0
 34 35  1  0
 35 36  2  0
 34 37  1  0
 37 38  2  0
 38 39  1  0
 39 40  2  0
 40 41  1  0
 41 42  2  0
 42 43  1  0
 43 44  2  0
 44 45  1  0
 45 46  1  0
 46 47  2  0
 29  4  1  0
 11  6  1  0
 18 14  1  0
 26 21  1  0
 36 31  1  0
 42 37  1  0
 47 43  1  0
M  END
$$$$
