
     RDKit          3D

 47 53  0  0  0  0  0  0  0  0999 V2000
   -2.8261   -0.1385    3.6921 C   0  0  0  0  0  0  0  0  0  0  0  0
   -2.3450   -0.3326    5.0920 C   0  0  0  0  0  0  0  0  0  0  0  0
   -1.9875   -1.8068    5.3249 C   0  0  0  0  0  0  0  0  0  0  0  0
   -1.7632   -2.0467    6.7713 C   0  0  0  0  0  0  0  0  0  0  0  0
   -2.8560   -2.0862    7.5814 N   0  0  0  0  0  0  0  0  0  0  0  0
   -2.7724   -2.2800    8.9080 C   0  0  0  0  0  0  0  0  0  0  0  0
   -1.5187   -2.4401    9.4255 C   0  0  0  0  0  0  0  0  0  0  0  0
   -1.3975   -2.6360   10.7840 C   0  0  0  0  0  0  0  0  0  0  0  0
   -2.4829   -2.6769   11.6339 C   0  0  0  0  0  0  0  0  0  0  0  0
   -3.7345   -2.5153   11.0976 C   0  0  0  0  0  0  0  0  0  0  0  0
   -3.8779   -2.3169    9.7328 C   0  0  0  0  0  0  0  0  0  0  0  0
   -2.3130   -2.8737   13.0477 N   0  0  0  0  0  0  0  0  0  0  0  0
   -1.5372   -3.9796   13.5536 C   0  0  0  0  0  0  0  0  0  0  0  0
   -2.3333   -5.2623   13.5438 C   0  0  0  0  0  0  0  0  0  0  0  0
   -3.6503   -5.4206   13.9052 C   0  0  0  0  0  0  0  0  0  0  0  0
   -3.9625   -6.7406   13.7459 C   0  0  0  0  0  0  0  0  0  0  0  0
   -2.8225   -7.3538   13.2898 C   0  0  0  0  0  0  0  0  0  0  0  0
   -1.8959   -6.4433   13.1880 O   0  0  0  0  0  0  0  0  0  0  0  0
   -2.9199   -1.9394   13.9151 C   0  0  0  0  0  0  0  0  0  0  0  0
   -2.8026   -2.1066   15.1715 O   0  0  0  0  0  0  0  0  0  0  0  0
   -3.6781   -0.7827   13.4076 C   0  0  0  0  0  0  0  0  0  0  0  0
   -3.1114    0.0745   12.4974 C   0  0  0  0  0  0  0  0  0  0  0  0
   -3.8004    1.1712   11.9889 C   0  0  0  0  0  0  0  0  0  0  0  0
   -5.0921    1.4234   12.3974 C   0  0  0  0  0  0  0  0  0  0  0  0
   -5.6546    0.5511   13.3176 C   0  0  0  0  0  0  0  0  0  0  0  0
   -4.9657   -0.5314   13.8154 C   0  0  0  0  0  0  0  0  0  0  0  0
   -0.4326   -2.3947    8.5771 C   0  0  0  0  0  0  0  0  0  0  0  0
    0.6884   -2.5478    9.1216 O   0  0  0  0  0  0  0  0  0  0  0  0
   -0.5138   -2.1998    7.2440 N   0  0  0  0  0  0  0  0  0  0  0  0
    0.6885   -2.1553    6.4643 C   0  0  0  0  0  0  0  0  0  0  0  0
    1.4774   -0.9444    6.4829 C   0  0  0  0  0  0  0  0  0  0  0  0
    1.0315    0.1400    7.2310 C   0  0  0  0  0  0  0  0  0  0  0  0
    1.7104    1.3334    7.3090 C   0  0  0  0  0  0  0  0  0  0  0  0
    2.8906    1.4932    6.6259 C   0  0  0  0  0  0  0  0  0  0  0  0
    3.3625    0.4376    5.8738 C   0  0  0  0  0  0  0  0  0  0  0  0
    2.6560   -0.7544    5.8140 C   0  0  0  0  0  0  0  0  0  0  0  0
    3.6370    2.7673    6.6964 C   0  0  0  0  0  0  0  0  0  0  0  0
    3.5856    3.7045    5.7078 C   0  0  0  0  0  0  0  0  0  0  0  0
    4.2976    4.8911    5.8065 C   0  0  0  0  0  0  0  0  0  0  0  0
    5.0697    5.1314    6.9188 C   0  0  0  0  0  0  0  0  0  0  0  0
    5.1055    4.1765    7.8987 C   0  0  0  0  0  0  0  0  0  0  0  0
    4.4113    2.9858    7.8342 C   0  0  0  0  0  0  0  0  0  0  0  0
    4.4761    1.9968    8.9006 C   0  0  0  0  0  0  0  0  0  0  0  0
    4.8903    0.7231    8.8558 N   0  0  0  0  0  0  0  0  0  0  0  0
    4.7929    0.1678   10.0357 N   0  0  0  0  0  0  0  0  0  0  0  0
    4.3106    1.0745   10.8732 N   0  0  0  0  0  0  0  0  0  0  0  0
    4.1143    2.2045   10.1749 N   0  0  0  0  0  0  0  0  0  0  0  0
  1  2  1  0
  2  3  1  0
  3  4  1  0
  4  5  2  0
  5  6  1  0
  6  7  2  0
  7  8  1  0
  8  9  2  0
  9 10  1  0
 10 11  2  0
  9 12  1  0
 12 13  1  0
 13 14  1  0
 14 15  2  0
 15 16  1  0
 16 17  2  0
 17 18  1  0
 12 19  1  0
 19 20  2  0
 19 21  1  0
 21 22  2  0
 22 23  1  0
 23 24  2  0
 24 25  1  0
 25 26  2  0
  7 27  1  0
 27 28  2  0
 27 29  1  0
 29 30  1  0
 30 31  1  0
 31 32  2  0
 32 33  1  0
 33 34  2  0
 34 35  1  0
 35 36  2  0
 34 37  1  0
 37 38  2  0
 38 39  1  0
 39 40  2  0
 40 41  1  0
 41 42  2  0
 42 43  1  0
 43 44  2  0
 44 45  1  0
 45 46  1  0
 46 47  2  0
 29  4  1  0
 11  6  1  0
 18 14  1  0
 26 21  1  0
 36 31  1  0
 42 37  1  0
 47 43  1  0
M  END
$$$$
