
     RDKit          3D

 47 53  0  0  0  0  0  0  0  0999 V2000
    1.8906    4.4683    8.7965 C   0  0  0  0  0  0  0  0  0  0  0  0
    1.4490    3.0427    8.8359 C   0  0  0  0  0  0  0  0  0  0  0  0
    0.1868    2.8601    7.9821 C   0  0  0  0  0  0  0  0  0  0  0  0
   -0.4916    1.5943    8.3530 C   0  0  0  0  0  0  0  0  0  0  0  0
   -1.1270    1.5477    9.5556 N   0  0  0  0  0  0  0  0  0  0  0  0
   -1.7599    0.4505   10.0027 C   0  0  0  0  0  0  0  0  0  0  0  0
   -1.7414   -0.6430    9.1847 C   0  0  0  0  0  0  0  0  0  0  0  0
   -2.3774   -1.7868    9.6158 C   0  0  0  0  0  0  0  0  0  0  0  0
   -3.0266   -1.8697   10.8298 C   0  0  0  0  0  0  0  0  0  0  0  0
   -3.0362   -0.7623   11.6384 C   0  0  0  0  0  0  0  0  0  0  0  0
   -2.4020    0.3986   11.2229 C   0  0  0  0  0  0  0  0  0  0  0  0
   -3.6699   -3.0856   11.2472 N   0  0  0  0  0  0  0  0  0  0  0  0
   -4.8633   -3.5562   10.5877 C   0  0  0  0  0  0  0  0  0  0  0  0
   -6.1072   -2.9816   11.2216 C   0  0  0  0  0  0  0  0  0  0  0  0
   -6.2589   -1.7216   11.7504 C   0  0  0  0  0  0  0  0  0  0  0  0
   -7.5390   -1.6251   12.2168 C   0  0  0  0  0  0  0  0  0  0  0  0
   -8.1354   -2.8339   11.9585 C   0  0  0  0  0  0  0  0  0  0  0  0
   -7.2534   -3.5944   11.3738 O   0  0  0  0  0  0  0  0  0  0  0  0
   -3.0828   -3.8032   12.3121 C   0  0  0  0  0  0  0  0  0  0  0  0
   -3.6550   -4.8635   12.7228 O   0  0  0  0  0  0  0  0  0  0  0  0
   -1.8326   -3.3614   12.9541 C   0  0  0  0  0  0  0  0  0  0  0  0
   -1.7877   -3.1383   14.3078 C   0  0  0  0  0  0  0  0  0  0  0  0
   -0.6227   -2.7302   14.9499 C   0  0  0  0  0  0  0  0  0  0  0  0
    0.5330   -2.5383   14.2243 C   0  0  0  0  0  0  0  0  0  0  0  0
    0.4761   -2.7662   12.8572 C   0  0  0  0  0  0  0  0  0  0  0  0
   -0.6807   -3.1698   12.2302 C   0  0  0  0  0  0  0  0  0  0  0  0
   -1.0887   -0.5623    7.9727 C   0  0  0  0  0  0  0  0  0  0  0  0
   -1.1108   -1.6052    7.2737 O   0  0  0  0  0  0  0  0  0  0  0  0
   -0.4517    0.5386    7.5213 N   0  0  0  0  0  0  0  0  0  0  0  0
    0.2076    0.4987    6.2488 C   0  0  0  0  0  0  0  0  0  0  0  0
    1.6423    0.3267    6.2212 C   0  0  0  0  0  0  0  0  0  0  0  0
    2.2745   -0.2461    7.3197 C   0  0  0  0  0  0  0  0  0  0  0  0
    3.6330   -0.4488    7.3879 C   0  0  0  0  0  0  0  0  0  0  0  0
    4.4320   -0.0781    6.3348 C   0  0  0  0  0  0  0  0  0  0  0  0
    3.8381    0.4931    5.2287 C   0  0  0  0  0  0  0  0  0  0  0  0
    2.4652    0.6852    5.1881 C   0  0  0  0  0  0  0  0  0  0  0  0
    5.8946   -0.2875    6.3869 C   0  0  0  0  0  0  0  0  0  0  0  0
    6.6078   -0.7565    5.3240 C   0  0  0  0  0  0  0  0  0  0  0  0
    7.9805   -0.9400    5.4061 C   0  0  0  0  0  0  0  0  0  0  0  0
    8.6381   -0.6450    6.5773 C   0  0  0  0  0  0  0  0  0  0  0  0
    7.9015   -0.1750    7.6308 C   0  0  0  0  0  0  0  0  0  0  0  0
    6.5363    0.0194    7.5852 C   0  0  0  0  0  0  0  0  0  0  0  0
    5.7905    0.5233    8.7295 C   0  0  0  0  0  0  0  0  0  0  0  0
    4.9135    1.5345    8.7953 N   0  0  0  0  0  0  0  0  0  0  0  0
    4.4591    1.6683   10.0141 N   0  0  0  0  0  0  0  0  0  0  0  0
    5.0355    0.7425   10.7669 N   0  0  0  0  0  0  0  0  0  0  0  0
    5.8578    0.0343    9.9762 N   0  0  0  0  0  0  0  0  0  0  0  0
  1  2  1  0
  2  3  1  0
  3  4  1  0
  4  5  2  0
  5  6  1  0
  6  7  2  0
  7  8  1  0
  8  9  2  0
  9 10  1  0
 10 11  2  0
  9 12  1  0
 12 13  1  0
 13 14  1  0
 14 15  2  0
 15 16  1  0
 16 17  2  0
 17 18  1  0
 12 19  1  0
 19 20  2  0
 19 21  1  0
 21 22  2  0
 22 23  1  0
 23 24  2  0
 24 25  1  0
 25 26  2  0
  7 27  1  0
 27 28  2  0
 27 29  1  0
 29 30  1  0
 30 31  1  0
 31 32  2  0
 32 33  1  0
 33 34  2  0
 34 35  1  0
 35 36  2  0
 34 37  1  0
 37 38  2  0
 38 39  1  0
 39 40  2  0
 40 41  1  0
 41 42  2  0
 42 43  1  0
 43 44  2  0
 44 45  1  0
 45 46  1  0
 46 47  2  0
 29  4  1  0
 11  6  1  0
 18 14  1  0
 26 21  1  0
 36 31  1  0
 42 37  1  0
 47 43  1  0
M  END
$$$$
