
     RDKit          3D

 47 53  0  0  0  0  0  0  0  0999 V2000
   -2.8627   -1.3979    2.6615 C   0  0  0  0  0  0  0  0  0  0  0  0
   -2.8976   -1.1733    4.1370 C   0  0  0  0  0  0  0  0  0  0  0  0
   -1.6002   -1.6854    4.7770 C   0  0  0  0  0  0  0  0  0  0  0  0
   -1.7518   -1.7317    6.2518 C   0  0  0  0  0  0  0  0  0  0  0  0
   -2.4678   -2.7613    6.7805 N   0  0  0  0  0  0  0  0  0  0  0  0
   -2.6841   -2.8960    8.0994 C   0  0  0  0  0  0  0  0  0  0  0  0
   -2.1450   -1.9375    8.9093 C   0  0  0  0  0  0  0  0  0  0  0  0
   -2.3526   -2.0436   10.2673 C   0  0  0  0  0  0  0  0  0  0  0  0
   -3.0764   -3.0708   10.8357 C   0  0  0  0  0  0  0  0  0  0  0  0
   -3.6099   -4.0251   10.0081 C   0  0  0  0  0  0  0  0  0  0  0  0
   -3.4125   -3.9365    8.6386 C   0  0  0  0  0  0  0  0  0  0  0  0
   -3.2785   -3.1398   12.2573 N   0  0  0  0  0  0  0  0  0  0  0  0
   -4.6081   -3.1618   12.8161 C   0  0  0  0  0  0  0  0  0  0  0  0
   -5.2782   -1.8140   12.6993 C   0  0  0  0  0  0  0  0  0  0  0  0
   -6.5977   -1.5222   12.9519 C   0  0  0  0  0  0  0  0  0  0  0  0
   -6.7736   -0.1880   12.7192 C   0  0  0  0  0  0  0  0  0  0  0  0
   -5.5512    0.2995   12.3294 C   0  0  0  0  0  0  0  0  0  0  0  0
   -4.7081   -0.6940   12.3342 O   0  0  0  0  0  0  0  0  0  0  0  0
   -2.1313   -3.1991   13.0782 C   0  0  0  0  0  0  0  0  0  0  0  0
   -2.2742   -3.0772   14.3373 O   0  0  0  0  0  0  0  0  0  0  0  0
   -0.7828   -3.3994   12.5200 C   0  0  0  0  0  0  0  0  0  0  0  0
   -0.5935   -4.2239   11.4389 C   0  0  0  0  0  0  0  0  0  0  0  0
    0.6636   -4.4293   10.8790 C   0  0  0  0  0  0  0  0  0  0  0  0
    1.7663   -3.7956   11.4097 C   0  0  0  0  0  0  0  0  0  0  0  0
    1.5635   -2.9653   12.5022 C   0  0  0  0  0  0  0  0  0  0  0  0
    0.3164   -2.7678   13.0497 C   0  0  0  0  0  0  0  0  0  0  0  0
   -1.4250   -0.9077    8.3414 C   0  0  0  0  0  0  0  0  0  0  0  0
   -0.9604   -0.0624    9.1453 O   0  0  0  0  0  0  0  0  0  0  0  0
   -1.2065   -0.7698    7.0167 N   0  0  0  0  0  0  0  0  0  0  0  0
   -0.4547    0.3542    6.5403 C   0  0  0  0  0  0  0  0  0  0  0  0
    0.9783    0.3542    6.7279 C   0  0  0  0  0  0  0  0  0  0  0  0
    1.6087   -0.8250    7.1107 C   0  0  0  0  0  0  0  0  0  0  0  0
    2.9650   -0.9238    7.3157 C   0  0  0  0  0  0  0  0  0  0  0  0
    3.7636    0.1792    7.1413 C   0  0  0  0  0  0  0  0  0  0  0  0
    3.1715    1.3657    6.7615 C   0  0  0  0  0  0  0  0  0  0  0  0
    1.8008    1.4353    6.5620 C   0  0  0  0  0  0  0  0  0  0  0  0
    5.2240    0.0952    7.3556 C   0  0  0  0  0  0  0  0  0  0  0  0
    6.1271    0.3386    6.3640 C   0  0  0  0  0  0  0  0  0  0  0  0
    7.4917    0.2525    6.5994 C   0  0  0  0  0  0  0  0  0  0  0  0
    7.9464   -0.0834    7.8530 C   0  0  0  0  0  0  0  0  0  0  0  0
    7.0213   -0.3228    8.8329 C   0  0  0  0  0  0  0  0  0  0  0  0
    5.6579   -0.2469    8.6348 C   0  0  0  0  0  0  0  0  0  0  0  0
    4.7074   -0.5082    9.7062 C   0  0  0  0  0  0  0  0  0  0  0  0
    3.6904    0.2468   10.1443 N   0  0  0  0  0  0  0  0  0  0  0  0
    3.0705   -0.3473   11.1304 N   0  0  0  0  0  0  0  0  0  0  0  0
    3.6762   -1.5047   11.3532 N   0  0  0  0  0  0  0  0  0  0  0  0
    4.6870   -1.6064   10.4751 N   0  0  0  0  0  0  0  0  0  0  0  0
  1  2  1  0
  2  3  1  0
  3  4  1  0
  4  5  2  0
  5  6  1  0
  6  7  2  0
  7  8  1  0
  8  9  2  0
  9 10  1  0
 10 11  2  0
  9 12  1  0
 12 13  1  0
 13 14  1  0
 14 15  2  0
 15 16  1  0
 16 17  2  0
 17 18  1  0
 12 19  1  0
 19 20  2  0
 19 21  1  0
 21 22  2  0
 22 23  1  0
 23 24  2  0
 24 25  1  0
 25 26  2  0
  7 27  1  0
 27 28  2  0
 27 29  1  0
 29 30  1  0
 30 31  1  0
 31 32  2  0
 32 33  1  0
 33 34  2  0
 34 35  1  0
 35 36  2  0
 34 37  1  0
 37 38  2  0
 38 39  1  0
 39 40  2  0
 40 41  1  0
 41 42  2  0
 42 43  1  0
 43 44  2  0
 44 45  1  0
 45 46  1  0
 46 47  2  0
 29  4  1  0
 11  6  1  0
 18 14  1  0
 26 21  1  0
 36 31  1  0
 42 37  1  0
 47 43  1  0
M  END
$$$$
