
     RDKit          3D

 47 53  0  0  0  0  0  0  0  0999 V2000
   -3.3767   -2.9832    3.5630 C   0  0  0  0  0  0  0  0  0  0  0  0
   -3.2374   -2.9100    5.0477 C   0  0  0  0  0  0  0  0  0  0  0  0
   -2.4535   -1.6503    5.4401 C   0  0  0  0  0  0  0  0  0  0  0  0
   -2.3152   -1.5842    6.9154 C   0  0  0  0  0  0  0  0  0  0  0  0
   -3.1425   -2.3650    7.6625 N   0  0  0  0  0  0  0  0  0  0  0  0
   -3.1183   -2.3748    9.0055 C   0  0  0  0  0  0  0  0  0  0  0  0
   -2.2097   -1.5517    9.6075 C   0  0  0  0  0  0  0  0  0  0  0  0
   -2.1624   -1.5343   10.9844 C   0  0  0  0  0  0  0  0  0  0  0  0
   -2.9887   -2.3088   11.7715 C   0  0  0  0  0  0  0  0  0  0  0  0
   -3.8944   -3.1301   11.1508 C   0  0  0  0  0  0  0  0  0  0  0  0
   -3.9580   -3.1624    9.7661 C   0  0  0  0  0  0  0  0  0  0  0  0
   -2.9143   -2.2539   13.2060 N   0  0  0  0  0  0  0  0  0  0  0  0
   -3.7018   -1.3036   13.9527 C   0  0  0  0  0  0  0  0  0  0  0  0
   -5.0664   -1.1122   13.3358 C   0  0  0  0  0  0  0  0  0  0  0  0
   -5.4842   -0.0525   12.5660 C   0  0  0  0  0  0  0  0  0  0  0  0
   -6.7850   -0.2852   12.2209 C   0  0  0  0  0  0  0  0  0  0  0  0
   -7.1263   -1.4856   12.7921 C   0  0  0  0  0  0  0  0  0  0  0  0
   -6.0834   -1.9297   13.4349 O   0  0  0  0  0  0  0  0  0  0  0  0
   -2.0561   -3.1708   13.8514 C   0  0  0  0  0  0  0  0  0  0  0  0
   -1.9567   -3.1256   15.1197 O   0  0  0  0  0  0  0  0  0  0  0  0
   -1.2801   -4.1731   13.1008 C   0  0  0  0  0  0  0  0  0  0  0  0
   -1.4038   -5.5088   13.3926 C   0  0  0  0  0  0  0  0  0  0  0  0
   -0.6945   -6.4841   12.6986 C   0  0  0  0  0  0  0  0  0  0  0  0
    0.1638   -6.1208   11.6835 C   0  0  0  0  0  0  0  0  0  0  0  0
    0.2813   -4.7686   11.3975 C   0  0  0  0  0  0  0  0  0  0  0  0
   -0.4242   -3.8105   12.0892 C   0  0  0  0  0  0  0  0  0  0  0  0
   -1.3864   -0.7736    8.8214 C   0  0  0  0  0  0  0  0  0  0  0  0
   -0.5775   -0.0405    9.4419 O   0  0  0  0  0  0  0  0  0  0  0  0
   -1.4089   -0.7616    7.4719 N   0  0  0  0  0  0  0  0  0  0  0  0
   -0.5139    0.1035    6.7604 C   0  0  0  0  0  0  0  0  0  0  0  0
    0.8649    0.1709    7.1882 C   0  0  0  0  0  0  0  0  0  0  0  0
    1.5997   -1.0060    7.2848 C   0  0  0  0  0  0  0  0  0  0  0  0
    2.9151   -1.0441    7.6842 C   0  0  0  0  0  0  0  0  0  0  0  0
    3.5634    0.1215    8.0101 C   0  0  0  0  0  0  0  0  0  0  0  0
    2.8646    1.3077    7.9253 C   0  0  0  0  0  0  0  0  0  0  0  0
    1.5385    1.3152    7.5193 C   0  0  0  0  0  0  0  0  0  0  0  0
    4.9774    0.1036    8.4411 C   0  0  0  0  0  0  0  0  0  0  0  0
    5.4224   -0.6742    9.4683 C   0  0  0  0  0  0  0  0  0  0  0  0
    6.7573   -0.6684    9.8464 C   0  0  0  0  0  0  0  0  0  0  0  0
    7.6512    0.1336    9.1765 C   0  0  0  0  0  0  0  0  0  0  0  0
    7.1817    0.9054    8.1483 C   0  0  0  0  0  0  0  0  0  0  0  0
    5.8622    0.9253    7.7455 C   0  0  0  0  0  0  0  0  0  0  0  0
    5.4045    1.7608    6.6446 C   0  0  0  0  0  0  0  0  0  0  0  0
    4.7570    1.4124    5.5242 N   0  0  0  0  0  0  0  0  0  0  0  0
    4.5221    2.4649    4.7846 N   0  0  0  0  0  0  0  0  0  0  0  0
    5.0156    3.5220    5.4133 N   0  0  0  0  0  0  0  0  0  0  0  0
    5.5608    3.0899    6.5618 N   0  0  0  0  0  0  0  0  0  0  0  0
  1  2  1  0
  2  3  1  0
  3  4  1  0
  4  5  2  0
  5  6  1  0
  6  7  2  0
  7  8  1  0
  8  9  2  0
  9 10  1  0
 10 11  2  0
  9 12  1  0
 12 13  1  0
 13 14  1  0
 14 15  2  0
 15 16  1  0
 16 17  2  0
 17 18  1  0
 12 19  1  0
 19 20  2  0
 19 21  1  0
 21 22  2  0
 22 23  1  0
 23 24  2  0
 24 25  1  0
 25 26  2  0
  7 27  1  0
 27 28  2  0
 27 29  1  0
 29 30  1  0
 30 31  1  0
 31 32  2  0
 32 33  1  0
 33 34  2  0
 34 35  1  0
 35 36  2  0
 34 37  1  0
 37 38  2  0
 38 39  1  0
 39 40  2  0
 40 41  1  0
 41 42  2  0
 42 43  1  0
 43 44  2  0
 44 45  1  0
 45 46  1  0
 46 47  2  0
 29  4  1  0
 11  6  1  0
 18 14  1  0
 26 21  1  0
 36 31  1  0
 42 37  1  0
 47 43  1  0
M  END
$$$$
