
     RDKit          3D

 47 53  0  0  0  0  0  0  0  0999 V2000
   -3.1818   -0.9177    3.4471 C   0  0  0  0  0  0  0  0  0  0  0  0
   -2.9853   -1.5325    4.7934 C   0  0  0  0  0  0  0  0  0  0  0  0
   -2.0973   -0.6283    5.6590 C   0  0  0  0  0  0  0  0  0  0  0  0
   -2.0067   -1.1801    7.0328 C   0  0  0  0  0  0  0  0  0  0  0  0
   -3.0864   -1.0267    7.8470 N   0  0  0  0  0  0  0  0  0  0  0  0
   -3.1115   -1.4707    9.1145 C   0  0  0  0  0  0  0  0  0  0  0  0
   -1.9851   -2.0976    9.5660 C   0  0  0  0  0  0  0  0  0  0  0  0
   -1.9763   -2.5608   10.8636 C   0  0  0  0  0  0  0  0  0  0  0  0
   -3.0506   -2.4182   11.7165 C   0  0  0  0  0  0  0  0  0  0  0  0
   -4.1738   -1.7872   11.2467 C   0  0  0  0  0  0  0  0  0  0  0  0
   -4.2029   -1.3137    9.9439 C   0  0  0  0  0  0  0  0  0  0  0  0
   -2.9975   -2.9071   13.0673 N   0  0  0  0  0  0  0  0  0  0  0  0
   -3.6065   -4.1651   13.4241 C   0  0  0  0  0  0  0  0  0  0  0  0
   -5.0796   -4.0030   13.7120 C   0  0  0  0  0  0  0  0  0  0  0  0
   -6.1257   -4.5180   12.9836 C   0  0  0  0  0  0  0  0  0  0  0  0
   -7.2822   -4.1277   13.5964 C   0  0  0  0  0  0  0  0  0  0  0  0
   -6.9081   -3.3821   14.6863 C   0  0  0  0  0  0  0  0  0  0  0  0
   -5.6060   -3.3393   14.7095 O   0  0  0  0  0  0  0  0  0  0  0  0
   -2.3177   -2.1188   14.0212 C   0  0  0  0  0  0  0  0  0  0  0  0
   -2.2163   -2.5545   15.2130 O   0  0  0  0  0  0  0  0  0  0  0  0
   -1.7245   -0.8155   13.6753 C   0  0  0  0  0  0  0  0  0  0  0  0
   -1.6525    0.1858   14.6116 C   0  0  0  0  0  0  0  0  0  0  0  0
   -1.0904    1.4257   14.3239 C   0  0  0  0  0  0  0  0  0  0  0  0
   -0.5842    1.6780   13.0672 C   0  0  0  0  0  0  0  0  0  0  0  0
   -0.6627    0.6594   12.1289 C   0  0  0  0  0  0  0  0  0  0  0  0
   -1.2204   -0.5642   12.4222 C   0  0  0  0  0  0  0  0  0  0  0  0
   -0.9088   -2.2365    8.7154 C   0  0  0  0  0  0  0  0  0  0  0  0
    0.0924   -2.8209    9.1977 O   0  0  0  0  0  0  0  0  0  0  0  0
   -0.8809   -1.7910    7.4416 N   0  0  0  0  0  0  0  0  0  0  0  0
    0.3035   -1.9788    6.6558 C   0  0  0  0  0  0  0  0  0  0  0  0
    1.4989   -1.2565    7.0277 C   0  0  0  0  0  0  0  0  0  0  0  0
    2.7080   -1.6013    6.4331 C   0  0  0  0  0  0  0  0  0  0  0  0
    3.8975   -0.9748    6.7229 C   0  0  0  0  0  0  0  0  0  0  0  0
    3.9252    0.0460    7.6407 C   0  0  0  0  0  0  0  0  0  0  0  0
    2.7437    0.4142    8.2498 C   0  0  0  0  0  0  0  0  0  0  0  0
    1.5591   -0.2359    7.9374 C   0  0  0  0  0  0  0  0  0  0  0  0
    5.1927    0.7336    7.9666 C   0  0  0  0  0  0  0  0  0  0  0  0
    5.9590    0.3911    9.0408 C   0  0  0  0  0  0  0  0  0  0  0  0
    7.1447    1.0563    9.3174 C   0  0  0  0  0  0  0  0  0  0  0  0
    7.5590    2.0791    8.4968 C   0  0  0  0  0  0  0  0  0  0  0  0
    6.7738    2.4049    7.4241 C   0  0  0  0  0  0  0  0  0  0  0  0
    5.5896    1.7660    7.1190 C   0  0  0  0  0  0  0  0  0  0  0  0
    4.7846    2.1435    5.9662 C   0  0  0  0  0  0  0  0  0  0  0  0
    4.3729    1.3945    4.9339 N   0  0  0  0  0  0  0  0  0  0  0  0
    3.6634    2.1116    4.1019 N   0  0  0  0  0  0  0  0  0  0  0  0
    3.6009    3.3460    4.5798 N   0  0  0  0  0  0  0  0  0  0  0  0
    4.2923    3.3682    5.7307 N   0  0  0  0  0  0  0  0  0  0  0  0
  1  2  1  0
  2  3  1  0
  3  4  1  0
  4  5  2  0
  5  6  1  0
  6  7  2  0
  7  8  1  0
  8  9  2  0
  9 10  1  0
 10 11  2  0
  9 12  1  0
 12 13  1  0
 13 14  1  0
 14 15  2  0
 15 16  1  0
 16 17  2  0
 17 18  1  0
 12 19  1  0
 19 20  2  0
 19 21  1  0
 21 22  2  0
 22 23  1  0
 23 24  2  0
 24 25  1  0
 25 26  2  0
  7 27  1  0
 27 28  2  0
 27 29  1  0
 29 30  1  0
 30 31  1  0
 31 32  2  0
 32 33  1  0
 33 34  2  0
 34 35  1  0
 35 36  2  0
 34 37  1  0
 37 38  2  0
 38 39  1  0
 39 40  2  0
 40 41  1  0
 41 42  2  0
 42 43  1  0
 43 44  2  0
 44 45  1  0
 45 46  1  0
 46 47  2  0
 29  4  1  0
 11  6  1  0
 18 14  1  0
 26 21  1  0
 36 31  1  0
 42 37  1  0
 47 43  1  0
M  END
$$$$
