
     RDKit          3D

 47 53  0  0  0  0  0  0  0  0999 V2000
   -2.9937    1.2637    4.0714 C   0  0  0  0  0  0  0  0  0  0  0  0
   -3.0146    0.3718    5.2685 C   0  0  0  0  0  0  0  0  0  0  0  0
   -1.8502    0.7222    6.2049 C   0  0  0  0  0  0  0  0  0  0  0  0
   -1.9618   -0.0607    7.4597 C   0  0  0  0  0  0  0  0  0  0  0  0
   -2.8468    0.3735    8.3980 N   0  0  0  0  0  0  0  0  0  0  0  0
   -3.0202   -0.2458    9.5773 C   0  0  0  0  0  0  0  0  0  0  0  0
   -2.2562   -1.3550    9.8044 C   0  0  0  0  0  0  0  0  0  0  0  0
   -2.4062   -2.0111   11.0067 C   0  0  0  0  0  0  0  0  0  0  0  0
   -3.2898   -1.5957   11.9808 C   0  0  0  0  0  0  0  0  0  0  0  0
   -4.0497   -0.4809   11.7360 C   0  0  0  0  0  0  0  0  0  0  0  0
   -3.9138    0.1937   10.5323 C   0  0  0  0  0  0  0  0  0  0  0  0
   -3.4091   -2.3029   13.2266 N   0  0  0  0  0  0  0  0  0  0  0  0
   -2.3805   -2.2082   14.2334 C   0  0  0  0  0  0  0  0  0  0  0  0
   -1.2380   -3.1521   13.9456 C   0  0  0  0  0  0  0  0  0  0  0  0
   -1.3245   -4.4989   13.6832 C   0  0  0  0  0  0  0  0  0  0  0  0
   -0.0544   -4.9592   13.4828 C   0  0  0  0  0  0  0  0  0  0  0  0
    0.7756   -3.8759   13.6291 C   0  0  0  0  0  0  0  0  0  0  0  0
    0.0322   -2.8404   13.8995 O   0  0  0  0  0  0  0  0  0  0  0  0
   -4.5721   -3.0772   13.4297 C   0  0  0  0  0  0  0  0  0  0  0  0
   -4.7447   -3.6351   14.5608 O   0  0  0  0  0  0  0  0  0  0  0  0
   -5.5854   -3.2533   12.3749 C   0  0  0  0  0  0  0  0  0  0  0  0
   -6.8771   -2.8338   12.5751 C   0  0  0  0  0  0  0  0  0  0  0  0
   -7.8581   -2.9747   11.5985 C   0  0  0  0  0  0  0  0  0  0  0  0
   -7.5457   -3.5498   10.3857 C   0  0  0  0  0  0  0  0  0  0  0  0
   -6.2377   -3.9704   10.1945 C   0  0  0  0  0  0  0  0  0  0  0  0
   -5.2736   -3.8271   11.1661 C   0  0  0  0  0  0  0  0  0  0  0  0
   -1.3692   -1.7682    8.8329 C   0  0  0  0  0  0  0  0  0  0  0  0
   -0.6992   -2.7933    9.1102 O   0  0  0  0  0  0  0  0  0  0  0  0
   -1.1928   -1.1476    7.6474 N   0  0  0  0  0  0  0  0  0  0  0  0
   -0.2270   -1.6611    6.7206 C   0  0  0  0  0  0  0  0  0  0  0  0
    1.1733   -1.4086    6.9740 C   0  0  0  0  0  0  0  0  0  0  0  0
    1.5281   -0.5652    8.0216 C   0  0  0  0  0  0  0  0  0  0  0  0
    2.8316   -0.2628    8.3389 C   0  0  0  0  0  0  0  0  0  0  0  0
    3.8564   -0.8052    7.6036 C   0  0  0  0  0  0  0  0  0  0  0  0
    3.5406   -1.6464    6.5571 C   0  0  0  0  0  0  0  0  0  0  0  0
    2.2165   -1.9333    6.2605 C   0  0  0  0  0  0  0  0  0  0  0  0
    5.2648   -0.4940    7.9278 C   0  0  0  0  0  0  0  0  0  0  0  0
    6.1132   -1.4116    8.4723 C   0  0  0  0  0  0  0  0  0  0  0  0
    7.4304   -1.0870    8.7631 C   0  0  0  0  0  0  0  0  0  0  0  0
    7.8934    0.1808    8.4991 C   0  0  0  0  0  0  0  0  0  0  0  0
    7.0238    1.0850    7.9518 C   0  0  0  0  0  0  0  0  0  0  0  0
    5.7084    0.7975    7.6502 C   0  0  0  0  0  0  0  0  0  0  0  0
    4.8166    1.7894    7.0667 C   0  0  0  0  0  0  0  0  0  0  0  0
    4.1247    2.7684    7.6657 N   0  0  0  0  0  0  0  0  0  0  0  0
    3.4380    3.4489    6.7852 N   0  0  0  0  0  0  0  0  0  0  0  0
    3.6714    2.9220    5.5919 N   0  0  0  0  0  0  0  0  0  0  0  0
    4.5223    1.8973    5.7631 N   0  0  0  0  0  0  0  0  0  0  0  0
  1  2  1  0
  2  3  1  0
  3  4  1  0
  4  5  2  0
  5  6  1  0
  6  7  2  0
  7  8  1  0
  8  9  2  0
  9 10  1  0
 10 11  2  0
  9 12  1  0
 12 13  1  0
 13 14  1  0
 14 15  2  0
 15 16  1  0
 16 17  2  0
 17 18  1  0
 12 19  1  0
 19 20  2  0
 19 21  1  0
 21 22  2  0
 22 23  1  0
 23 24  2  0
 24 25  1  0
 25 26  2  0
  7 27  1  0
 27 28  2  0
 27 29  1  0
 29 30  1  0
 30 31  1  0
 31 32  2  0
 32 33  1  0
 33 34  2  0
 34 35  1  0
 35 36  2  0
 34 37  1  0
 37 38  2  0
 38 39  1  0
 39 40  2  0
 40 41  1  0
 41 42  2  0
 42 43  1  0
 43 44  2  0
 44 45  1  0
 45 46  1  0
 46 47  2  0
 29  4  1  0
 11  6  1  0
 18 14  1  0
 26 21  1  0
 36 31  1  0
 42 37  1  0
 47 43  1  0
M  END
$$$$
