
     RDKit          3D

 47 53  0  0  0  0  0  0  0  0999 V2000
   -3.3864   -1.3323    2.5433 C   0  0  0  0  0  0  0  0  0  0  0  0
   -3.3726   -1.0400    4.0073 C   0  0  0  0  0  0  0  0  0  0  0  0
   -2.0362   -1.4826    4.6185 C   0  0  0  0  0  0  0  0  0  0  0  0
   -2.0915   -1.3519    6.0950 C   0  0  0  0  0  0  0  0  0  0  0  0
   -2.9542   -2.1610    6.7683 N   0  0  0  0  0  0  0  0  0  0  0  0
   -3.1006   -2.1191    8.1029 C   0  0  0  0  0  0  0  0  0  0  0  0
   -2.3321   -1.2118    8.7749 C   0  0  0  0  0  0  0  0  0  0  0  0
   -2.4617   -1.1398   10.1448 C   0  0  0  0  0  0  0  0  0  0  0  0
   -3.3288   -1.9411   10.8576 C   0  0  0  0  0  0  0  0  0  0  0  0
   -4.0923   -2.8471   10.1673 C   0  0  0  0  0  0  0  0  0  0  0  0
   -3.9768   -2.9353    8.7884 C   0  0  0  0  0  0  0  0  0  0  0  0
   -3.4415   -1.8277   12.2862 N   0  0  0  0  0  0  0  0  0  0  0  0
   -4.4717   -1.0154   12.8857 C   0  0  0  0  0  0  0  0  0  0  0  0
   -5.8094   -1.7148   12.8623 C   0  0  0  0  0  0  0  0  0  0  0  0
   -6.0341   -3.0706   12.8997 C   0  0  0  0  0  0  0  0  0  0  0  0
   -7.3856   -3.2628   12.8573 C   0  0  0  0  0  0  0  0  0  0  0  0
   -7.9506   -2.0135   12.7950 C   0  0  0  0  0  0  0  0  0  0  0  0
   -6.9836   -1.1401   12.8009 O   0  0  0  0  0  0  0  0  0  0  0  0
   -2.5185   -2.5498   13.0737 C   0  0  0  0  0  0  0  0  0  0  0  0
   -2.5369   -2.3903   14.3366 O   0  0  0  0  0  0  0  0  0  0  0  0
   -1.5431   -3.4784   12.4767 C   0  0  0  0  0  0  0  0  0  0  0  0
   -0.2423   -3.0871   12.2783 C   0  0  0  0  0  0  0  0  0  0  0  0
    0.7085   -3.9399   11.7264 C   0  0  0  0  0  0  0  0  0  0  0  0
    0.3558   -5.2209   11.3608 C   0  0  0  0  0  0  0  0  0  0  0  0
   -0.9612   -5.6055   11.5653 C   0  0  0  0  0  0  0  0  0  0  0  0
   -1.8953   -4.7553   12.1120 C   0  0  0  0  0  0  0  0  0  0  0  0
   -1.4682   -0.4071    8.0625 C   0  0  0  0  0  0  0  0  0  0  0  0
   -0.7948    0.4040    8.7446 O   0  0  0  0  0  0  0  0  0  0  0  0
   -1.3194   -0.4470    6.7216 N   0  0  0  0  0  0  0  0  0  0  0  0
   -0.3999    0.4523    6.0881 C   0  0  0  0  0  0  0  0  0  0  0  0
    1.0064    0.3321    6.3993 C   0  0  0  0  0  0  0  0  0  0  0  0
    1.8017    1.4729    6.3799 C   0  0  0  0  0  0  0  0  0  0  0  0
    3.1482    1.4593    6.6590 C   0  0  0  0  0  0  0  0  0  0  0  0
    3.7673    0.2757    6.9767 C   0  0  0  0  0  0  0  0  0  0  0  0
    3.0084   -0.8757    7.0055 C   0  0  0  0  0  0  0  0  0  0  0  0
    1.6521   -0.8313    6.7194 C   0  0  0  0  0  0  0  0  0  0  0  0
    5.2136    0.2384    7.2810 C   0  0  0  0  0  0  0  0  0  0  0  0
    6.1656    0.5797    6.3670 C   0  0  0  0  0  0  0  0  0  0  0  0
    7.5150    0.5351    6.6860 C   0  0  0  0  0  0  0  0  0  0  0  0
    7.9045    0.1410    7.9446 C   0  0  0  0  0  0  0  0  0  0  0  0
    6.9312   -0.1965    8.8458 C   0  0  0  0  0  0  0  0  0  0  0  0
    5.5810   -0.1643    8.5635 C   0  0  0  0  0  0  0  0  0  0  0  0
    4.5775   -0.5302    9.5527 C   0  0  0  0  0  0  0  0  0  0  0  0
    4.3408   -1.7186   10.1253 N   0  0  0  0  0  0  0  0  0  0  0  0
    3.3461   -1.6305   10.9694 N   0  0  0  0  0  0  0  0  0  0  0  0
    2.9151   -0.3774   10.9608 N   0  0  0  0  0  0  0  0  0  0  0  0
    3.6738    0.3039   10.0870 N   0  0  0  0  0  0  0  0  0  0  0  0
  1  2  1  0
  2  3  1  0
  3  4  1  0
  4  5  2  0
  5  6  1  0
  6  7  2  0
  7  8  1  0
  8  9  2  0
  9 10  1  0
 10 11  2  0
  9 12  1  0
 12 13  1  0
 13 14  1  0
 14 15  2  0
 15 16  1  0
 16 17  2  0
 17 18  1  0
 12 19  1  0
 19 20  2  0
 19 21  1  0
 21 22  2  0
 22 23  1  0
 23 24  2  0
 24 25  1  0
 25 26  2  0
  7 27  1  0
 27 28  2  0
 27 29  1  0
 29 30  1  0
 30 31  1  0
 31 32  2  0
 32 33  1  0
 33 34  2  0
 34 35  1  0
 35 36  2  0
 34 37  1  0
 37 38  2  0
 38 39  1  0
 39 40  2  0
 40 41  1  0
 41 42  2  0
 42 43  1  0
 43 44  2  0
 44 45  1  0
 45 46  1  0
 46 47  2  0
 29  4  1  0
 11  6  1  0
 18 14  1  0
 26 21  1  0
 36 31  1  0
 42 37  1  0
 47 43  1  0
M  END
$$$$
