
     RDKit          3D

 47 53  0  0  0  0  0  0  0  0999 V2000
   -3.1195   -1.8400    3.0171 C   0  0  0  0  0  0  0  0  0  0  0  0
   -2.9515   -2.1994    4.4564 C   0  0  0  0  0  0  0  0  0  0  0  0
   -1.7640   -1.4325    5.0539 C   0  0  0  0  0  0  0  0  0  0  0  0
   -1.6008   -1.7938    6.4832 C   0  0  0  0  0  0  0  0  0  0  0  0
   -2.7287   -1.9283    7.2329 N   0  0  0  0  0  0  0  0  0  0  0  0
   -2.7018   -2.2362    8.5401 C   0  0  0  0  0  0  0  0  0  0  0  0
   -1.4696   -2.4138    9.1020 C   0  0  0  0  0  0  0  0  0  0  0  0
   -1.4066   -2.7258   10.4426 C   0  0  0  0  0  0  0  0  0  0  0  0
   -2.5288   -2.8650   11.2321 C   0  0  0  0  0  0  0  0  0  0  0  0
   -3.7580   -2.6843   10.6517 C   0  0  0  0  0  0  0  0  0  0  0  0
   -3.8430   -2.3698    9.3040 C   0  0  0  0  0  0  0  0  0  0  0  0
   -2.4197   -3.1817   12.6300 N   0  0  0  0  0  0  0  0  0  0  0  0
   -1.9600   -4.4789   13.0619 C   0  0  0  0  0  0  0  0  0  0  0  0
   -3.0949   -5.4721   13.1298 C   0  0  0  0  0  0  0  0  0  0  0  0
   -4.4156   -5.2010   13.3989 C   0  0  0  0  0  0  0  0  0  0  0  0
   -5.0925   -6.3866   13.3620 C   0  0  0  0  0  0  0  0  0  0  0  0
   -4.1621   -7.3526   13.0700 C   0  0  0  0  0  0  0  0  0  0  0  0
   -3.0062   -6.7644   12.9432 O   0  0  0  0  0  0  0  0  0  0  0  0
   -2.7646   -2.1741   13.5571 C   0  0  0  0  0  0  0  0  0  0  0  0
   -2.6163   -2.4103   14.7991 O   0  0  0  0  0  0  0  0  0  0  0  0
   -3.2856   -0.8648   13.1275 C   0  0  0  0  0  0  0  0  0  0  0  0
   -4.4885   -0.4055   13.6032 C   0  0  0  0  0  0  0  0  0  0  0  0
   -5.0072    0.8298   13.2275 C   0  0  0  0  0  0  0  0  0  0  0  0
   -4.3087    1.6331   12.3523 C   0  0  0  0  0  0  0  0  0  0  0  0
   -3.0947    1.1588   11.8776 C   0  0  0  0  0  0  0  0  0  0  0  0
   -2.5891   -0.0645   12.2546 C   0  0  0  0  0  0  0  0  0  0  0  0
   -0.3469   -2.2702    8.3144 C   0  0  0  0  0  0  0  0  0  0  0  0
    0.7512   -2.4460    8.8973 O   0  0  0  0  0  0  0  0  0  0  0  0
   -0.3712   -1.9606    7.0009 N   0  0  0  0  0  0  0  0  0  0  0  0
    0.8645   -1.8213    6.2873 C   0  0  0  0  0  0  0  0  0  0  0  0
    1.7230   -0.7036    6.6076 C   0  0  0  0  0  0  0  0  0  0  0  0
    1.1540    0.4623    7.1089 C   0  0  0  0  0  0  0  0  0  0  0  0
    1.8868    1.5779    7.4403 C   0  0  0  0  0  0  0  0  0  0  0  0
    3.2503    1.5711    7.2800 C   0  0  0  0  0  0  0  0  0  0  0  0
    3.8481    0.4307    6.7852 C   0  0  0  0  0  0  0  0  0  0  0  0
    3.0832   -0.6794    6.4595 C   0  0  0  0  0  0  0  0  0  0  0  0
    4.0574    2.7591    7.6307 C   0  0  0  0  0  0  0  0  0  0  0  0
    3.8636    3.9766    7.0489 C   0  0  0  0  0  0  0  0  0  0  0  0
    4.6380    5.0720    7.4025 C   0  0  0  0  0  0  0  0  0  0  0  0
    5.6192    4.9329    8.3561 C   0  0  0  0  0  0  0  0  0  0  0  0
    5.7951    3.7014    8.9268 C   0  0  0  0  0  0  0  0  0  0  0  0
    5.0445    2.5908    8.5998 C   0  0  0  0  0  0  0  0  0  0  0  0
    5.2637    1.2983    9.2329 C   0  0  0  0  0  0  0  0  0  0  0  0
    4.4158    0.5466    9.9485 N   0  0  0  0  0  0  0  0  0  0  0  0
    5.0009   -0.5540   10.3437 N   0  0  0  0  0  0  0  0  0  0  0  0
    6.2461   -0.5378    9.8907 N   0  0  0  0  0  0  0  0  0  0  0  0
    6.4108    0.6046    9.2045 N   0  0  0  0  0  0  0  0  0  0  0  0
  1  2  1  0
  2  3  1  0
  3  4  1  0
  4  5  2  0
  5  6  1  0
  6  7  2  0
  7  8  1  0
  8  9  2  0
  9 10  1  0
 10 11  2  0
  9 12  1  0
 12 13  1  0
 13 14  1  0
 14 15  2  0
 15 16  1  0
 16 17  2  0
 17 18  1  0
 12 19  1  0
 19 20  2  0
 19 21  1  0
 21 22  2  0
 22 23  1  0
 23 24  2  0
 24 25  1  0
 25 26  2  0
  7 27  1  0
 27 28  2  0
 27 29  1  0
 29 30  1  0
 30 31  1  0
 31 32  2  0
 32 33  1  0
 33 34  2  0
 34 35  1  0
 35 36  2  0
 34 37  1  0
 37 38  2  0
 38 39  1  0
 39 40  2  0
 40 41  1  0
 41 42  2  0
 42 43  1  0
 43 44  2  0
 44 45  1  0
 45 46  1  0
 46 47  2  0
 29  4  1  0
 11  6  1  0
 18 14  1  0
 26 21  1  0
 36 31  1  0
 42 37  1  0
 47 43  1  0
M  END
$$$$
