
     RDKit          3D

 47 53  0  0  0  0  0  0  0  0999 V2000
   -1.8258    2.9415    4.7575 C   0  0  0  0  0  0  0  0  0  0  0  0
   -1.9479    1.6039    5.4093 C   0  0  0  0  0  0  0  0  0  0  0  0
   -0.9557    1.4952    6.5751 C   0  0  0  0  0  0  0  0  0  0  0  0
   -1.3669    0.3974    7.4838 C   0  0  0  0  0  0  0  0  0  0  0  0
   -2.1882    0.7121    8.5224 N   0  0  0  0  0  0  0  0  0  0  0  0
   -2.6112   -0.1960    9.4173 C   0  0  0  0  0  0  0  0  0  0  0  0
   -2.1754   -1.4783    9.2409 C   0  0  0  0  0  0  0  0  0  0  0  0
   -2.5871   -2.4336   10.1445 C   0  0  0  0  0  0  0  0  0  0  0  0
   -3.4148   -2.1484   11.2101 C   0  0  0  0  0  0  0  0  0  0  0  0
   -3.8437   -0.8560   11.3718 C   0  0  0  0  0  0  0  0  0  0  0  0
   -3.4408    0.1202   10.4734 C   0  0  0  0  0  0  0  0  0  0  0  0
   -3.8135   -3.1725   12.1367 N   0  0  0  0  0  0  0  0  0  0  0  0
   -5.0913   -3.8297   12.0096 C   0  0  0  0  0  0  0  0  0  0  0  0
   -6.2056   -2.9839   12.5771 C   0  0  0  0  0  0  0  0  0  0  0  0
   -6.1543   -2.1961   13.7027 C   0  0  0  0  0  0  0  0  0  0  0  0
   -7.3797   -1.6111   13.8489 C   0  0  0  0  0  0  0  0  0  0  0  0
   -8.1481   -2.0601   12.8040 C   0  0  0  0  0  0  0  0  0  0  0  0
   -7.4130   -2.8623   12.0871 O   0  0  0  0  0  0  0  0  0  0  0  0
   -2.9045   -3.5171   13.1607 C   0  0  0  0  0  0  0  0  0  0  0  0
   -3.2593   -4.3787   14.0280 O   0  0  0  0  0  0  0  0  0  0  0  0
   -1.5644   -2.9116   13.2497 C   0  0  0  0  0  0  0  0  0  0  0  0
   -0.5072   -3.6334   13.7452 C   0  0  0  0  0  0  0  0  0  0  0  0
    0.7740   -3.0981   13.8350 C   0  0  0  0  0  0  0  0  0  0  0  0
    1.0115   -1.8058   13.4194 C   0  0  0  0  0  0  0  0  0  0  0  0
   -0.0640   -1.0855   12.9209 C   0  0  0  0  0  0  0  0  0  0  0  0
   -1.3281   -1.6231   12.8356 C   0  0  0  0  0  0  0  0  0  0  0  0
   -1.3441   -1.7634    8.1784 C   0  0  0  0  0  0  0  0  0  0  0  0
   -0.9817   -2.9615    8.0790 O   0  0  0  0  0  0  0  0  0  0  0  0
   -0.9174   -0.8529    7.2781 N   0  0  0  0  0  0  0  0  0  0  0  0
   -0.0393   -1.2646    6.2222 C   0  0  0  0  0  0  0  0  0  0  0  0
    1.3752   -1.0015    6.3603 C   0  0  0  0  0  0  0  0  0  0  0  0
    1.8393   -0.4018    7.5262 C   0  0  0  0  0  0  0  0  0  0  0  0
    3.1646   -0.1100    7.7490 C   0  0  0  0  0  0  0  0  0  0  0  0
    4.1006   -0.4141    6.7917 C   0  0  0  0  0  0  0  0  0  0  0  0
    3.6752   -1.0100    5.6227 C   0  0  0  0  0  0  0  0  0  0  0  0
    2.3318   -1.2925    5.4259 C   0  0  0  0  0  0  0  0  0  0  0  0
    5.5307   -0.1098    7.0109 C   0  0  0  0  0  0  0  0  0  0  0  0
    6.3187    0.4484    6.0488 C   0  0  0  0  0  0  0  0  0  0  0  0
    7.6575    0.7228    6.2881 C   0  0  0  0  0  0  0  0  0  0  0  0
    8.2039    0.4290    7.5154 C   0  0  0  0  0  0  0  0  0  0  0  0
    7.3934   -0.1304    8.4660 C   0  0  0  0  0  0  0  0  0  0  0  0
    6.0591   -0.4171    8.2631 C   0  0  0  0  0  0  0  0  0  0  0  0
    5.2314   -1.0116    9.3029 C   0  0  0  0  0  0  0  0  0  0  0  0
    3.9853   -0.6967    9.6824 N   0  0  0  0  0  0  0  0  0  0  0  0
    3.5933   -1.4739   10.6581 N   0  0  0  0  0  0  0  0  0  0  0  0
    4.5823   -2.3120   10.9329 N   0  0  0  0  0  0  0  0  0  0  0  0
    5.5947   -2.0287   10.0975 N   0  0  0  0  0  0  0  0  0  0  0  0
  1  2  1  0
  2  3  1  0
  3  4  1  0
  4  5  2  0
  5  6  1  0
  6  7  2  0
  7  8  1  0
  8  9  2  0
  9 10  1  0
 10 11  2  0
  9 12  1  0
 12 13  1  0
 13 14  1  0
 14 15  2  0
 15 16  1  0
 16 17  2  0
 17 18  1  0
 12 19  1  0
 19 20  2  0
 19 21  1  0
 21 22  2  0
 22 23  1  0
 23 24  2  0
 24 25  1  0
 25 26  2  0
  7 27  1  0
 27 28  2  0
 27 29  1  0
 29 30  1  0
 30 31  1  0
 31 32  2  0
 32 33  1  0
 33 34  2  0
 34 35  1  0
 35 36  2  0
 34 37  1  0
 37 38  2  0
 38 39  1  0
 39 40  2  0
 40 41  1  0
 41 42  2  0
 42 43  1  0
 43 44  2  0
 44 45  1  0
 45 46  1  0
 46 47  2  0
 29  4  1  0
 11  6  1  0
 18 14  1  0
 26 21  1  0
 36 31  1  0
 42 37  1  0
 47 43  1  0
M  END
$$$$
