
     RDKit          3D

 47 53  0  0  0  0  0  0  0  0999 V2000
   -3.1726   -1.6409    3.1789 C   0  0  0  0  0  0  0  0  0  0  0  0
   -3.1124   -1.7458    4.6669 C   0  0  0  0  0  0  0  0  0  0  0  0
   -1.9157   -0.9475    5.2016 C   0  0  0  0  0  0  0  0  0  0  0  0
   -1.8613   -1.0539    6.6801 C   0  0  0  0  0  0  0  0  0  0  0  0
   -2.7905   -1.8385    7.2910 N   0  0  0  0  0  0  0  0  0  0  0  0
   -2.8477   -1.9962    8.6237 C   0  0  0  0  0  0  0  0  0  0  0  0
   -1.9151   -1.3231    9.3604 C   0  0  0  0  0  0  0  0  0  0  0  0
   -1.9492   -1.4594   10.7311 C   0  0  0  0  0  0  0  0  0  0  0  0
   -2.8793   -2.2422   11.3824 C   0  0  0  0  0  0  0  0  0  0  0  0
   -3.8078   -2.9117   10.6275 C   0  0  0  0  0  0  0  0  0  0  0  0
   -3.7906   -2.7878    9.2466 C   0  0  0  0  0  0  0  0  0  0  0  0
   -2.8870   -2.3500   12.8158 N   0  0  0  0  0  0  0  0  0  0  0  0
   -1.6599   -2.2776   13.5706 C   0  0  0  0  0  0  0  0  0  0  0  0
   -0.8867   -3.5719   13.4922 C   0  0  0  0  0  0  0  0  0  0  0  0
    0.2039   -3.8364   12.6980 C   0  0  0  0  0  0  0  0  0  0  0  0
    0.5850   -5.1250   12.9422 C   0  0  0  0  0  0  0  0  0  0  0  0
   -0.2874   -5.6132   13.8826 C   0  0  0  0  0  0  0  0  0  0  0  0
   -1.1310   -4.6631   14.1720 O   0  0  0  0  0  0  0  0  0  0  0  0
   -4.1368   -2.5142   13.4520 C   0  0  0  0  0  0  0  0  0  0  0  0
   -4.1584   -2.7769   14.6974 O   0  0  0  0  0  0  0  0  0  0  0  0
   -5.4078   -2.3877   12.7179 C   0  0  0  0  0  0  0  0  0  0  0  0
   -6.4003   -3.3220   12.8807 C   0  0  0  0  0  0  0  0  0  0  0  0
   -7.6168   -3.2299   12.2118 C   0  0  0  0  0  0  0  0  0  0  0  0
   -7.8543   -2.1769   11.3551 C   0  0  0  0  0  0  0  0  0  0  0  0
   -6.8444   -1.2390   11.1979 C   0  0  0  0  0  0  0  0  0  0  0  0
   -5.6439   -1.3380   11.8636 C   0  0  0  0  0  0  0  0  0  0  0  0
   -0.9877   -0.5366    8.7102 C   0  0  0  0  0  0  0  0  0  0  0  0
   -0.1625    0.0536    9.4500 O   0  0  0  0  0  0  0  0  0  0  0  0
   -0.9283   -0.3763    7.3714 N   0  0  0  0  0  0  0  0  0  0  0  0
    0.0728    0.4822    6.8088 C   0  0  0  0  0  0  0  0  0  0  0  0
    1.4427    0.3176    7.2391 C   0  0  0  0  0  0  0  0  0  0  0  0
    2.0992    1.3935    7.8271 C   0  0  0  0  0  0  0  0  0  0  0  0
    3.4012    1.3350    8.2659 C   0  0  0  0  0  0  0  0  0  0  0  0
    4.1151    0.1699    8.1311 C   0  0  0  0  0  0  0  0  0  0  0  0
    3.4947   -0.9175    7.5522 C   0  0  0  0  0  0  0  0  0  0  0  0
    2.1802   -0.8289    7.1190 C   0  0  0  0  0  0  0  0  0  0  0  0
    5.5157    0.0849    8.5967 C   0  0  0  0  0  0  0  0  0  0  0  0
    5.8553    0.1308    9.9160 C   0  0  0  0  0  0  0  0  0  0  0  0
    7.1801    0.0466   10.3191 C   0  0  0  0  0  0  0  0  0  0  0  0
    8.1718   -0.0861    9.3756 C   0  0  0  0  0  0  0  0  0  0  0  0
    7.8070   -0.1305    8.0572 C   0  0  0  0  0  0  0  0  0  0  0  0
    6.5008   -0.0493    7.6202 C   0  0  0  0  0  0  0  0  0  0  0  0
    6.1559   -0.1022    6.2068 C   0  0  0  0  0  0  0  0  0  0  0  0
    5.4891    0.7886    5.4598 N   0  0  0  0  0  0  0  0  0  0  0  0
    5.3878    0.3673    4.2260 N   0  0  0  0  0  0  0  0  0  0  0  0
    5.9891   -0.8110    4.1479 N   0  0  0  0  0  0  0  0  0  0  0  0
    6.4642   -1.1030    5.3694 N   0  0  0  0  0  0  0  0  0  0  0  0
  1  2  1  0
  2  3  1  0
  3  4  1  0
  4  5  2  0
  5  6  1  0
  6  7  2  0
  7  8  1  0
  8  9  2  0
  9 10  1  0
 10 11  2  0
  9 12  1  0
 12 13  1  0
 13 14  1  0
 14 15  2  0
 15 16  1  0
 16 17  2  0
 17 18  1  0
 12 19  1  0
 19 20  2  0
 19 21  1  0
 21 22  2  0
 22 23  1  0
 23 24  2  0
 24 25  1  0
 25 26  2  0
  7 27  1  0
 27 28  2  0
 27 29  1  0
 29 30  1  0
 30 31  1  0
 31 32  2  0
 32 33  1  0
 33 34  2  0
 34 35  1  0
 35 36  2  0
 34 37  1  0
 37 38  2  0
 38 39  1  0
 39 40  2  0
 40 41  1  0
 41 42  2  0
 42 43  1  0
 43 44  2  0
 44 45  1  0
 45 46  1  0
 46 47  2  0
 29  4  1  0
 11  6  1  0
 18 14  1  0
 26 21  1  0
 36 31  1  0
 42 37  1  0
 47 43  1  0
M  END
$$$$
