
     RDKit          3D

 47 53  0  0  0  0  0  0  0  0999 V2000
   -2.9748   -0.7473    3.4590 C   0  0  0  0  0  0  0  0  0  0  0  0
   -2.3955   -0.6744    4.8331 C   0  0  0  0  0  0  0  0  0  0  0  0
   -1.8566   -2.0498    5.2493 C   0  0  0  0  0  0  0  0  0  0  0  0
   -1.7525   -2.1221    6.7272 C   0  0  0  0  0  0  0  0  0  0  0  0
   -2.9061   -2.0480    7.4454 N   0  0  0  0  0  0  0  0  0  0  0  0
   -2.9318   -2.0862    8.7879 C   0  0  0  0  0  0  0  0  0  0  0  0
   -1.7270   -2.2055    9.4201 C   0  0  0  0  0  0  0  0  0  0  0  0
   -1.7178   -2.2427   10.7974 C   0  0  0  0  0  0  0  0  0  0  0  0
   -2.8671   -2.1655   11.5558 C   0  0  0  0  0  0  0  0  0  0  0  0
   -4.0682   -2.0469   10.9050 C   0  0  0  0  0  0  0  0  0  0  0  0
   -4.0991   -2.0077    9.5194 C   0  0  0  0  0  0  0  0  0  0  0  0
   -2.8137   -2.1979   12.9920 N   0  0  0  0  0  0  0  0  0  0  0  0
   -3.3154   -1.0966   13.7768 C   0  0  0  0  0  0  0  0  0  0  0  0
   -4.8197   -1.1439   13.8956 C   0  0  0  0  0  0  0  0  0  0  0  0
   -5.5885   -2.2328   14.2322 C   0  0  0  0  0  0  0  0  0  0  0  0
   -6.8940   -1.8318   14.2191 C   0  0  0  0  0  0  0  0  0  0  0  0
   -6.8856   -0.5035   13.8734 C   0  0  0  0  0  0  0  0  0  0  0  0
   -5.6447   -0.1481   13.6947 O   0  0  0  0  0  0  0  0  0  0  0  0
   -2.2670   -3.3492   13.5996 C   0  0  0  0  0  0  0  0  0  0  0  0
   -2.1008   -3.3532   14.8617 O   0  0  0  0  0  0  0  0  0  0  0  0
   -1.8888   -4.5387   12.8171 C   0  0  0  0  0  0  0  0  0  0  0  0
   -0.6101   -5.0340   12.8795 C   0  0  0  0  0  0  0  0  0  0  0  0
   -0.2196   -6.1606   12.1625 C   0  0  0  0  0  0  0  0  0  0  0  0
   -1.1280   -6.8152   11.3590 C   0  0  0  0  0  0  0  0  0  0  0  0
   -2.4170   -6.3058   11.3031 C   0  0  0  0  0  0  0  0  0  0  0  0
   -2.7947   -5.1907   12.0159 C   0  0  0  0  0  0  0  0  0  0  0  0
   -0.5770   -2.2781    8.6627 C   0  0  0  0  0  0  0  0  0  0  0  0
    0.4935   -2.3850    9.3101 O   0  0  0  0  0  0  0  0  0  0  0  0
   -0.5485   -2.2396    7.3139 N   0  0  0  0  0  0  0  0  0  0  0  0
    0.7120   -2.3069    6.6340 C   0  0  0  0  0  0  0  0  0  0  0  0
    1.5769   -1.1496    6.6698 C   0  0  0  0  0  0  0  0  0  0  0  0
    1.1314    0.0064    7.3019 C   0  0  0  0  0  0  0  0  0  0  0  0
    1.8798    1.1572    7.3858 C   0  0  0  0  0  0  0  0  0  0  0  0
    3.1335    1.1981    6.8277 C   0  0  0  0  0  0  0  0  0  0  0  0
    3.6073    0.0689    6.1928 C   0  0  0  0  0  0  0  0  0  0  0  0
    2.8298   -1.0775    6.1240 C   0  0  0  0  0  0  0  0  0  0  0  0
    3.9553    2.4245    6.9069 C   0  0  0  0  0  0  0  0  0  0  0  0
    4.2740    3.1672    5.8092 C   0  0  0  0  0  0  0  0  0  0  0  0
    5.0463    4.3145    5.9189 C   0  0  0  0  0  0  0  0  0  0  0  0
    5.5003    4.7142    7.1540 C   0  0  0  0  0  0  0  0  0  0  0  0
    5.1673    3.9531    8.2418 C   0  0  0  0  0  0  0  0  0  0  0  0
    4.4022    2.8072    8.1701 C   0  0  0  0  0  0  0  0  0  0  0  0
    4.0694    2.0270    9.3533 C   0  0  0  0  0  0  0  0  0  0  0  0
    4.3482    0.7466    9.6344 N   0  0  0  0  0  0  0  0  0  0  0  0
    3.8733    0.4214   10.8085 N   0  0  0  0  0  0  0  0  0  0  0  0
    3.2735    1.4892   11.3146 N   0  0  0  0  0  0  0  0  0  0  0  0
    3.3934    2.4818   10.4182 N   0  0  0  0  0  0  0  0  0  0  0  0
  1  2  1  0
  2  3  1  0
  3  4  1  0
  4  5  2  0
  5  6  1  0
  6  7  2  0
  7  8  1  0
  8  9  2  0
  9 10  1  0
 10 11  2  0
  9 12  1  0
 12 13  1  0
 13 14  1  0
 14 15  2  0
 15 16  1  0
 16 17  2  0
 17 18  1  0
 12 19  1  0
 19 20  2  0
 19 21  1  0
 21 22  2  0
 22 23  1  0
 23 24  2  0
 24 25  1  0
 25 26  2  0
  7 27  1  0
 27 28  2  0
 27 29  1  0
 29 30  1  0
 30 31  1  0
 31 32  2  0
 32 33  1  0
 33 34  2  0
 34 35  1  0
 35 36  2  0
 34 37  1  0
 37 38  2  0
 38 39  1  0
 39 40  2  0
 40 41  1  0
 41 42  2  0
 42 43  1  0
 43 44  2  0
 44 45  1  0
 45 46  1  0
 46 47  2  0
 29  4  1  0
 11  6  1  0
 18 14  1  0
 26 21  1  0
 36 31  1  0
 42 37  1  0
 47 43  1  0
M  END
$$$$
