
     RDKit          3D

 47 53  0  0  0  0  0  0  0  0999 V2000
   -0.6566   -2.3530    3.6543 C   0  0  0  0  0  0  0  0  0  0  0  0
   -1.1530   -1.8648    4.9750 C   0  0  0  0  0  0  0  0  0  0  0  0
   -0.2571   -2.3966    6.1019 C   0  0  0  0  0  0  0  0  0  0  0  0
   -0.8392   -2.0375    7.4180 C   0  0  0  0  0  0  0  0  0  0  0  0
   -1.5506   -2.9935    8.0754 N   0  0  0  0  0  0  0  0  0  0  0  0
   -2.1362   -2.7765    9.2647 C   0  0  0  0  0  0  0  0  0  0  0  0
   -1.9867   -1.5299    9.8024 C   0  0  0  0  0  0  0  0  0  0  0  0
   -2.5792   -1.2728   11.0195 C   0  0  0  0  0  0  0  0  0  0  0  0
   -3.3103   -2.2165   11.7101 C   0  0  0  0  0  0  0  0  0  0  0  0
   -3.4497   -3.4632   11.1563 C   0  0  0  0  0  0  0  0  0  0  0  0
   -2.8612   -3.7422    9.9323 C   0  0  0  0  0  0  0  0  0  0  0  0
   -3.9213   -1.9050   12.9734 N   0  0  0  0  0  0  0  0  0  0  0  0
   -4.9710   -0.9200   13.0656 C   0  0  0  0  0  0  0  0  0  0  0  0
   -6.2761   -1.4521   12.5246 C   0  0  0  0  0  0  0  0  0  0  0  0
   -6.9832   -0.9694   11.4489 C   0  0  0  0  0  0  0  0  0  0  0  0
   -8.0999   -1.7438   11.3124 C   0  0  0  0  0  0  0  0  0  0  0  0
   -8.0431   -2.6816   12.3130 C   0  0  0  0  0  0  0  0  0  0  0  0
   -6.9541   -2.4675   12.9958 O   0  0  0  0  0  0  0  0  0  0  0  0
   -3.4656   -2.6073   14.1104 C   0  0  0  0  0  0  0  0  0  0  0  0
   -4.0783   -2.4454   15.2144 O   0  0  0  0  0  0  0  0  0  0  0  0
   -2.3092   -3.5181   14.0525 C   0  0  0  0  0  0  0  0  0  0  0  0
   -2.4003   -4.7902   14.5604 C   0  0  0  0  0  0  0  0  0  0  0  0
   -1.3325   -5.6810   14.5144 C   0  0  0  0  0  0  0  0  0  0  0  0
   -0.1377   -5.2958   13.9460 C   0  0  0  0  0  0  0  0  0  0  0  0
   -0.0567   -4.0082   13.4363 C   0  0  0  0  0  0  0  0  0  0  0  0
   -1.1181   -3.1335   13.4861 C   0  0  0  0  0  0  0  0  0  0  0  0
   -1.2597   -0.5844    9.1103 C   0  0  0  0  0  0  0  0  0  0  0  0
   -1.1650    0.5390    9.6631 O   0  0  0  0  0  0  0  0  0  0  0  0
   -0.6707   -0.7997    7.9152 N   0  0  0  0  0  0  0  0  0  0  0  0
    0.0474    0.2673    7.2817 C   0  0  0  0  0  0  0  0  0  0  0  0
    1.3214    0.6650    7.8361 C   0  0  0  0  0  0  0  0  0  0  0  0
    1.9322   -0.1545    8.7794 C   0  0  0  0  0  0  0  0  0  0  0  0
    3.1414    0.1393    9.3648 C   0  0  0  0  0  0  0  0  0  0  0  0
    3.8037    1.2919    9.0214 C   0  0  0  0  0  0  0  0  0  0  0  0
    3.2266    2.1282    8.0885 C   0  0  0  0  0  0  0  0  0  0  0  0
    2.0059    1.8057    7.5148 C   0  0  0  0  0  0  0  0  0  0  0  0
    5.1050    1.6269    9.6378 C   0  0  0  0  0  0  0  0  0  0  0  0
    5.2564    2.6528   10.5225 C   0  0  0  0  0  0  0  0  0  0  0  0
    6.4922    2.9394   11.0841 C   0  0  0  0  0  0  0  0  0  0  0  0
    7.5866    2.1782   10.7463 C   0  0  0  0  0  0  0  0  0  0  0  0
    7.4105    1.1531    9.8566 C   0  0  0  0  0  0  0  0  0  0  0  0
    6.1975    0.8399    9.2785 C   0  0  0  0  0  0  0  0  0  0  0  0
    6.0535   -0.2611    8.3369 C   0  0  0  0  0  0  0  0  0  0  0  0
    5.4825   -0.2746    7.1245 N   0  0  0  0  0  0  0  0  0  0  0  0
    5.5608   -1.4674    6.5945 N   0  0  0  0  0  0  0  0  0  0  0  0
    6.1865   -2.2554    7.4569 N   0  0  0  0  0  0  0  0  0  0  0  0
    6.4918   -1.5129    8.5334 N   0  0  0  0  0  0  0  0  0  0  0  0
  1  2  1  0
  2  3  1  0
  3  4  1  0
  4  5  2  0
  5  6  1  0
  6  7  2  0
  7  8  1  0
  8  9  2  0
  9 10  1  0
 10 11  2  0
  9 12  1  0
 12 13  1  0
 13 14  1  0
 14 15  2  0
 15 16  1  0
 16 17  2  0
 17 18  1  0
 12 19  1  0
 19 20  2  0
 19 21  1  0
 21 22  2  0
 22 23  1  0
 23 24  2  0
 24 25  1  0
 25 26  2  0
  7 27  1  0
 27 28  2  0
 27 29  1  0
 29 30  1  0
 30 31  1  0
 31 32  2  0
 32 33  1  0
 33 34  2  0
 34 35  1  0
 35 36  2  0
 34 37  1  0
 37 38  2  0
 38 39  1  0
 39 40  2  0
 40 41  1  0
 41 42  2  0
 42 43  1  0
 43 44  2  0
 44 45  1  0
 45 46  1  0
 46 47  2  0
 29  4  1  0
 11  6  1  0
 18 14  1  0
 26 21  1  0
 36 31  1  0
 42 37  1  0
 47 43  1  0
M  END
$$$$
