
     RDKit          3D

 47 53  0  0  0  0  0  0  0  0999 V2000
   -3.1028   -1.6694    2.8122 C   0  0  0  0  0  0  0  0  0  0  0  0
   -3.1355   -1.4153    4.2830 C   0  0  0  0  0  0  0  0  0  0  0  0
   -1.7316   -1.5908    4.8775 C   0  0  0  0  0  0  0  0  0  0  0  0
   -1.7965   -1.4929    6.3561 C   0  0  0  0  0  0  0  0  0  0  0  0
   -2.6239   -2.3533    7.0099 N   0  0  0  0  0  0  0  0  0  0  0  0
   -2.7756   -2.3452    8.3445 C   0  0  0  0  0  0  0  0  0  0  0  0
   -2.0501   -1.4185    9.0375 C   0  0  0  0  0  0  0  0  0  0  0  0
   -2.1864   -1.3803   10.4081 C   0  0  0  0  0  0  0  0  0  0  0  0
   -3.0187   -2.2339   11.1014 C   0  0  0  0  0  0  0  0  0  0  0  0
   -3.7391   -3.1588   10.3902 C   0  0  0  0  0  0  0  0  0  0  0  0
   -3.6162   -3.2136    9.0102 C   0  0  0  0  0  0  0  0  0  0  0  0
   -3.1401   -2.1549   12.5316 N   0  0  0  0  0  0  0  0  0  0  0  0
   -3.5866   -0.9415   13.1711 C   0  0  0  0  0  0  0  0  0  0  0  0
   -2.4336   -0.0069   13.4471 C   0  0  0  0  0  0  0  0  0  0  0  0
   -2.1288    1.1516   12.7724 C   0  0  0  0  0  0  0  0  0  0  0  0
   -1.0092    1.6790   13.3499 C   0  0  0  0  0  0  0  0  0  0  0  0
   -0.6603    0.8242   14.3654 C   0  0  0  0  0  0  0  0  0  0  0  0
   -1.5275   -0.1483   14.3808 O   0  0  0  0  0  0  0  0  0  0  0  0
   -2.8206   -3.3093   13.2792 C   0  0  0  0  0  0  0  0  0  0  0  0
   -3.0645   -3.3147   14.5286 O   0  0  0  0  0  0  0  0  0  0  0  0
   -2.2189   -4.5004   12.6551 C   0  0  0  0  0  0  0  0  0  0  0  0
   -1.0235   -4.4060   11.9868 C   0  0  0  0  0  0  0  0  0  0  0  0
   -0.4207   -5.5109   11.3938 C   0  0  0  0  0  0  0  0  0  0  0  0
   -1.0244   -6.7476   11.4674 C   0  0  0  0  0  0  0  0  0  0  0  0
   -2.2320   -6.8313   12.1446 C   0  0  0  0  0  0  0  0  0  0  0  0
   -2.8213   -5.7330   12.7284 C   0  0  0  0  0  0  0  0  0  0  0  0
   -1.2212   -0.5616    8.3446 C   0  0  0  0  0  0  0  0  0  0  0  0
   -0.5865    0.2646    9.0454 O   0  0  0  0  0  0  0  0  0  0  0  0
   -1.0672   -0.5674    7.0038 N   0  0  0  0  0  0  0  0  0  0  0  0
   -0.1871    0.3847    6.3919 C   0  0  0  0  0  0  0  0  0  0  0  0
    1.2383    0.2071    6.5512 C   0  0  0  0  0  0  0  0  0  0  0  0
    2.0881    1.2663    6.2506 C   0  0  0  0  0  0  0  0  0  0  0  0
    3.4563    1.1931    6.3680 C   0  0  0  0  0  0  0  0  0  0  0  0
    4.0428    0.0299    6.8016 C   0  0  0  0  0  0  0  0  0  0  0  0
    3.2297   -1.0411    7.1088 C   0  0  0  0  0  0  0  0  0  0  0  0
    1.8526   -0.9379    6.9806 C   0  0  0  0  0  0  0  0  0  0  0  0
    5.5117   -0.0703    6.9357 C   0  0  0  0  0  0  0  0  0  0  0  0
    6.3079   -0.5628    5.9450 C   0  0  0  0  0  0  0  0  0  0  0  0
    7.6840   -0.6416    6.1030 C   0  0  0  0  0  0  0  0  0  0  0  0
    8.2600   -0.2164    7.2772 C   0  0  0  0  0  0  0  0  0  0  0  0
    7.4408    0.2749    8.2575 C   0  0  0  0  0  0  0  0  0  0  0  0
    6.0696    0.3675    8.1353 C   0  0  0  0  0  0  0  0  0  0  0  0
    5.2344    0.8983    9.2032 C   0  0  0  0  0  0  0  0  0  0  0  0
    4.2240    0.3152    9.8629 N   0  0  0  0  0  0  0  0  0  0  0  0
    3.7292    1.1311   10.7568 N   0  0  0  0  0  0  0  0  0  0  0  0
    4.4114    2.2654   10.6941 N   0  0  0  0  0  0  0  0  0  0  0  0
    5.3413    2.1241    9.7358 N   0  0  0  0  0  0  0  0  0  0  0  0
  1  2  1  0
  2  3  1  0
  3  4  1  0
  4  5  2  0
  5  6  1  0
  6  7  2  0
  7  8  1  0
  8  9  2  0
  9 10  1  0
 10 11  2  0
  9 12  1  0
 12 13  1  0
 13 14  1  0
 14 15  2  0
 15 16  1  0
 16 17  2  0
 17 18  1  0
 12 19  1  0
 19 20  2  0
 19 21  1  0
 21 22  2  0
 22 23  1  0
 23 24  2  0
 24 25  1  0
 25 26  2  0
  7 27  1  0
 27 28  2  0
 27 29  1  0
 29 30  1  0
 30 31  1  0
 31 32  2  0
 32 33  1  0
 33 34  2  0
 34 35  1  0
 35 36  2  0
 34 37  1  0
 37 38  2  0
 38 39  1  0
 39 40  2  0
 40 41  1  0
 41 42  2  0
 42 43  1  0
 43 44  2  0
 44 45  1  0
 45 46  1  0
 46 47  2  0
 29  4  1  0
 11  6  1  0
 18 14  1  0
 26 21  1  0
 36 31  1  0
 42 37  1  0
 47 43  1  0
M  END
$$$$
