
     RDKit          3D

 47 53  0  0  0  0  0  0  0  0999 V2000
   -3.3802   -0.7408    3.1160 C   0  0  0  0  0  0  0  0  0  0  0  0
   -3.2579   -0.6319    4.6000 C   0  0  0  0  0  0  0  0  0  0  0  0
   -1.9507   -1.2853    5.0685 C   0  0  0  0  0  0  0  0  0  0  0  0
   -2.0018   -1.5173    6.5326 C   0  0  0  0  0  0  0  0  0  0  0  0
   -2.7906   -2.5305    6.9839 N   0  0  0  0  0  0  0  0  0  0  0  0
   -2.9269   -2.8216    8.2881 C   0  0  0  0  0  0  0  0  0  0  0  0
   -2.2266   -2.0437    9.1655 C   0  0  0  0  0  0  0  0  0  0  0  0
   -2.3482   -2.3129   10.5113 C   0  0  0  0  0  0  0  0  0  0  0  0
   -3.1417   -3.3282   11.0027 C   0  0  0  0  0  0  0  0  0  0  0  0
   -3.8371   -4.1002   10.1079 C   0  0  0  0  0  0  0  0  0  0  0  0
   -3.7284   -3.8456    8.7493 C   0  0  0  0  0  0  0  0  0  0  0  0
   -3.2491   -3.5701   12.4156 N   0  0  0  0  0  0  0  0  0  0  0  0
   -2.7179   -4.7757   13.0031 C   0  0  0  0  0  0  0  0  0  0  0  0
   -1.2105   -4.7362   13.0761 C   0  0  0  0  0  0  0  0  0  0  0  0
   -0.3248   -5.1771   12.1215 C   0  0  0  0  0  0  0  0  0  0  0  0
    0.9354   -4.9526   12.5977 C   0  0  0  0  0  0  0  0  0  0  0  0
    0.7831   -4.3785   13.8350 C   0  0  0  0  0  0  0  0  0  0  0  0
   -0.4944   -4.2731   14.0688 O   0  0  0  0  0  0  0  0  0  0  0  0
   -3.8785   -2.5807   13.2019 C   0  0  0  0  0  0  0  0  0  0  0  0
   -3.6791   -2.5814   14.4592 O   0  0  0  0  0  0  0  0  0  0  0  0
   -4.7521   -1.5530   12.6093 C   0  0  0  0  0  0  0  0  0  0  0  0
   -4.6474   -0.2417   13.0015 C   0  0  0  0  0  0  0  0  0  0  0  0
   -5.4485    0.7572   12.4569 C   0  0  0  0  0  0  0  0  0  0  0  0
   -6.3820    0.4431   11.4930 C   0  0  0  0  0  0  0  0  0  0  0  0
   -6.4794   -0.8850   11.1047 C   0  0  0  0  0  0  0  0  0  0  0  0
   -5.6828   -1.8667   11.6487 C   0  0  0  0  0  0  0  0  0  0  0  0
   -1.4366   -1.0253    8.6752 C   0  0  0  0  0  0  0  0  0  0  0  0
   -0.8234   -0.3505    9.5384 O   0  0  0  0  0  0  0  0  0  0  0  0
   -1.2982   -0.7305    7.3654 N   0  0  0  0  0  0  0  0  0  0  0  0
   -0.4595    0.3648    6.9750 C   0  0  0  0  0  0  0  0  0  0  0  0
    0.9389    0.3254    7.3381 C   0  0  0  0  0  0  0  0  0  0  0  0
    1.6437   -0.8632    7.1805 C   0  0  0  0  0  0  0  0  0  0  0  0
    2.9744   -0.9997    7.4995 C   0  0  0  0  0  0  0  0  0  0  0  0
    3.6696    0.0731    8.0004 C   0  0  0  0  0  0  0  0  0  0  0  0
    3.0016    1.2679    8.1696 C   0  0  0  0  0  0  0  0  0  0  0  0
    1.6590    1.3758    7.8390 C   0  0  0  0  0  0  0  0  0  0  0  0
    5.1009   -0.0514    8.3493 C   0  0  0  0  0  0  0  0  0  0  0  0
    5.5274   -0.6415    9.5017 C   0  0  0  0  0  0  0  0  0  0  0  0
    6.8790   -0.7433    9.7978 C   0  0  0  0  0  0  0  0  0  0  0  0
    7.8087   -0.2425    8.9169 C   0  0  0  0  0  0  0  0  0  0  0  0
    7.3571    0.3450    7.7662 C   0  0  0  0  0  0  0  0  0  0  0  0
    6.0219    0.4641    7.4394 C   0  0  0  0  0  0  0  0  0  0  0  0
    5.5840    1.0956    6.2028 C   0  0  0  0  0  0  0  0  0  0  0  0
    5.2135    2.3641    5.9801 N   0  0  0  0  0  0  0  0  0  0  0  0
    4.8900    2.5332    4.7245 N   0  0  0  0  0  0  0  0  0  0  0  0
    5.0443    1.3719    4.1048 N   0  0  0  0  0  0  0  0  0  0  0  0
    5.4728    0.4829    5.0154 N   0  0  0  0  0  0  0  0  0  0  0  0
  1  2  1  0
  2  3  1  0
  3  4  1  0
  4  5  2  0
  5  6  1  0
  6  7  2  0
  7  8  1  0
  8  9  2  0
  9 10  1  0
 10 11  2  0
  9 12  1  0
 12 13  1  0
 13 14  1  0
 14 15  2  0
 15 16  1  0
 16 17  2  0
 17 18  1  0
 12 19  1  0
 19 20  2  0
 19 21  1  0
 21 22  2  0
 22 23  1  0
 23 24  2  0
 24 25  1  0
 25 26  2  0
  7 27  1  0
 27 28  2  0
 27 29  1  0
 29 30  1  0
 30 31  1  0
 31 32  2  0
 32 33  1  0
 33 34  2  0
 34 35  1  0
 35 36  2  0
 34 37  1  0
 37 38  2  0
 38 39  1  0
 39 40  2  0
 40 41  1  0
 41 42  2  0
 42 43  1  0
 43 44  2  0
 44 45  1  0
 45 46  1  0
 46 47  2  0
 29  4  1  0
 11  6  1  0
 18 14  1  0
 26 21  1  0
 36 31  1  0
 42 37  1  0
 47 43  1  0
M  END
$$$$
