
     RDKit          3D

 47 53  0  0  0  0  0  0  0  0999 V2000
   -2.2689   -2.4717    2.6992 C   0  0  0  0  0  0  0  0  0  0  0  0
   -2.5804   -2.1132    4.1146 C   0  0  0  0  0  0  0  0  0  0  0  0
   -1.2880   -2.0663    4.9410 C   0  0  0  0  0  0  0  0  0  0  0  0
   -1.6118   -1.8087    6.3654 C   0  0  0  0  0  0  0  0  0  0  0  0
   -2.4124   -2.7058    7.0029 N   0  0  0  0  0  0  0  0  0  0  0  0
   -2.7847   -2.5665    8.2860 C   0  0  0  0  0  0  0  0  0  0  0  0
   -2.3176   -1.4638    8.9427 C   0  0  0  0  0  0  0  0  0  0  0  0
   -2.6848   -1.2884   10.2591 C   0  0  0  0  0  0  0  0  0  0  0  0
   -3.4979   -2.1750   10.9336 C   0  0  0  0  0  0  0  0  0  0  0  0
   -3.9572   -3.2772   10.2596 C   0  0  0  0  0  0  0  0  0  0  0  0
   -3.5992   -3.4721    8.9343 C   0  0  0  0  0  0  0  0  0  0  0  0
   -3.8661   -1.9503   12.3049 N   0  0  0  0  0  0  0  0  0  0  0  0
   -5.0551   -1.2055   12.6399 C   0  0  0  0  0  0  0  0  0  0  0  0
   -4.8034    0.2825   12.6012 C   0  0  0  0  0  0  0  0  0  0  0  0
   -3.6776    0.9185   12.1340 C   0  0  0  0  0  0  0  0  0  0  0  0
   -3.8728    2.2615   12.2877 C   0  0  0  0  0  0  0  0  0  0  0  0
   -5.1176    2.4084   12.8468 C   0  0  0  0  0  0  0  0  0  0  0  0
   -5.6218    1.2180   13.0105 O   0  0  0  0  0  0  0  0  0  0  0  0
   -3.0307   -2.4963   13.3036 C   0  0  0  0  0  0  0  0  0  0  0  0
   -3.2298   -2.1628   14.5159 O   0  0  0  0  0  0  0  0  0  0  0  0
   -1.9438   -3.4374   12.9821 C   0  0  0  0  0  0  0  0  0  0  0  0
   -0.7542   -2.9778   12.4743 C   0  0  0  0  0  0  0  0  0  0  0  0
    0.2977   -3.8356   12.1682 C   0  0  0  0  0  0  0  0  0  0  0  0
    0.1631   -5.1917   12.3734 C   0  0  0  0  0  0  0  0  0  0  0  0
   -1.0433   -5.6450   12.8865 C   0  0  0  0  0  0  0  0  0  0  0  0
   -2.0786   -4.7893   13.1865 C   0  0  0  0  0  0  0  0  0  0  0  0
   -1.5084   -0.5745    8.2676 C   0  0  0  0  0  0  0  0  0  0  0  0
   -1.1176    0.4164    8.9325 O   0  0  0  0  0  0  0  0  0  0  0  0
   -1.1332   -0.7119    6.9784 N   0  0  0  0  0  0  0  0  0  0  0  0
   -0.3005    0.2883    6.3769 C   0  0  0  0  0  0  0  0  0  0  0  0
    1.0780    0.3833    6.8008 C   0  0  0  0  0  0  0  0  0  0  0  0
    1.3815    0.2285    8.1492 C   0  0  0  0  0  0  0  0  0  0  0  0
    2.6606    0.3041    8.6486 C   0  0  0  0  0  0  0  0  0  0  0  0
    3.7120    0.5428    7.7986 C   0  0  0  0  0  0  0  0  0  0  0  0
    3.4472    0.7013    6.4542 C   0  0  0  0  0  0  0  0  0  0  0  0
    2.1467    0.6197    5.9794 C   0  0  0  0  0  0  0  0  0  0  0  0
    5.0951    0.6272    8.3140 C   0  0  0  0  0  0  0  0  0  0  0  0
    5.8645    1.7437    8.1736 C   0  0  0  0  0  0  0  0  0  0  0  0
    7.1588    1.7902    8.6709 C   0  0  0  0  0  0  0  0  0  0  0  0
    7.6794    0.6940    9.3178 C   0  0  0  0  0  0  0  0  0  0  0  0
    6.8884   -0.4154    9.4475 C   0  0  0  0  0  0  0  0  0  0  0  0
    5.5981   -0.4972    8.9656 C   0  0  0  0  0  0  0  0  0  0  0  0
    4.7896   -1.6972    9.1264 C   0  0  0  0  0  0  0  0  0  0  0  0
    3.7596   -1.9248    9.9530 N   0  0  0  0  0  0  0  0  0  0  0  0
    3.2996   -3.1377    9.7887 N   0  0  0  0  0  0  0  0  0  0  0  0
    4.0259   -3.7242    8.8482 N   0  0  0  0  0  0  0  0  0  0  0  0
    4.9464   -2.8369    8.4376 N   0  0  0  0  0  0  0  0  0  0  0  0
  1  2  1  0
  2  3  1  0
  3  4  1  0
  4  5  2  0
  5  6  1  0
  6  7  2  0
  7  8  1  0
  8  9  2  0
  9 10  1  0
 10 11  2  0
  9 12  1  0
 12 13  1  0
 13 14  1  0
 14 15  2  0
 15 16  1  0
 16 17  2  0
 17 18  1  0
 12 19  1  0
 19 20  2  0
 19 21  1  0
 21 22  2  0
 22 23  1  0
 23 24  2  0
 24 25  1  0
 25 26  2  0
  7 27  1  0
 27 28  2  0
 27 29  1  0
 29 30  1  0
 30 31  1  0
 31 32  2  0
 32 33  1  0
 33 34  2  0
 34 35  1  0
 35 36  2  0
 34 37  1  0
 37 38  2  0
 38 39  1  0
 39 40  2  0
 40 41  1  0
 41 42  2  0
 42 43  1  0
 43 44  2  0
 44 45  1  0
 45 46  1  0
 46 47  2  0
 29  4  1  0
 11  6  1  0
 18 14  1  0
 26 21  1  0
 36 31  1  0
 42 37  1  0
 47 43  1  0
M  END
$$$$
