
     RDKit          3D

 23 25  0  0  0  0  0  0  0  0999 V2000
    6.2239    1.6755   12.4649 C   0  0  0  0  0  0  0  0  0  0  0  0
    5.2379    2.0564   11.4189 C   0  0  0  0  0  0  0  0  0  0  0  0
    5.1320    3.2661   11.1084 O   0  0  0  0  0  0  0  0  0  0  0  0
    4.4269    1.0846   10.7766 N   0  0  0  0  0  0  0  0  0  0  0  0
    3.7652    1.3293    9.5046 C   0  0  0  0  0  0  0  0  0  0  0  0
    2.7265    0.2701    9.2307 C   0  0  0  0  0  0  0  0  0  0  0  0
    1.5243    0.3580   10.0614 C   0  0  0  0  0  0  0  0  0  0  0  0
    0.6199    1.3607   10.2146 C   0  0  0  0  0  0  0  0  0  0  0  0
   -0.3076    0.9262   11.1269 N   0  0  0  0  0  0  0  0  0  0  0  0
   -0.0094   -0.3074   11.5420 C   0  0  0  0  0  0  0  0  0  0  0  0
    1.1197   -0.6931   10.9035 C   0  0  0  0  0  0  0  0  0  0  0  0
    1.6244   -1.9537   11.1788 C   0  0  0  0  0  0  0  0  0  0  0  0
    1.0152   -2.8096   12.0713 C   0  0  0  0  0  0  0  0  0  0  0  0
   -0.1332   -2.3904   12.7070 C   0  0  0  0  0  0  0  0  0  0  0  0
   -0.6736   -1.1357   12.4614 C   0  0  0  0  0  0  0  0  0  0  0  0
    1.5282   -4.0578   12.3338 O   0  0  0  0  0  0  0  0  0  0  0  0
    0.7423   -5.1602   12.7177 C   0  0  0  0  0  0  0  0  0  0  0  0
    0.5549    2.6887    9.6018 C   0  0  0  0  0  0  0  0  0  0  0  0
   -0.6545    3.3589    9.5991 C   0  0  0  0  0  0  0  0  0  0  0  0
   -0.7954    4.6126    9.0194 C   0  0  0  0  0  0  0  0  0  0  0  0
    0.2517    5.2521    8.4207 C   0  0  0  0  0  0  0  0  0  0  0  0
    1.4608    4.6048    8.4122 C   0  0  0  0  0  0  0  0  0  0  0  0
    1.5994    3.3254    9.0049 C   0  0  0  0  0  0  0  0  0  0  0  0
  1  2  1  0
  2  3  2  0
  2  4  1  0
  4  5  1  0
  5  6  1  0
  6  7  1  0
  7  8  2  0
  8  9  1  0
  9 10  1  0
 10 11  2  0
 11 12  1  0
 12 13  2  0
 13 14  1  0
 14 15  2  0
 13 16  1  0
 16 17  1  0
  8 18  1  0
 18 19  2  0
 19 20  1  0
 20 21  2  0
 21 22  1  0
 22 23  2  0
 11  7  1  0
 15 10  1  0
 23 18  1  0
M  END
$$$$
