
     RDKit          3D

 23 25  0  0  0  0  0  0  0  0999 V2000
    0.5772    4.6705   10.1586 C   0  0  0  0  0  0  0  0  0  0  0  0
    0.1990    3.2896   10.5604 C   0  0  0  0  0  0  0  0  0  0  0  0
    0.2444    2.9863   11.7757 O   0  0  0  0  0  0  0  0  0  0  0  0
   -0.2065    2.3243    9.6020 N   0  0  0  0  0  0  0  0  0  0  0  0
   -0.5124    0.9468    9.9547 C   0  0  0  0  0  0  0  0  0  0  0  0
    0.4259   -0.0045    9.2543 C   0  0  0  0  0  0  0  0  0  0  0  0
    1.3786   -0.6867   10.1319 C   0  0  0  0  0  0  0  0  0  0  0  0
    2.6589   -0.3775   10.4667 C   0  0  0  0  0  0  0  0  0  0  0  0
    3.0988   -1.3614   11.3149 N   0  0  0  0  0  0  0  0  0  0  0  0
    2.1376   -2.2661   11.5164 C   0  0  0  0  0  0  0  0  0  0  0  0
    1.0561   -1.8816   10.7995 C   0  0  0  0  0  0  0  0  0  0  0  0
   -0.0773   -2.6767   10.8549 C   0  0  0  0  0  0  0  0  0  0  0  0
   -0.1293   -3.8293   11.6092 C   0  0  0  0  0  0  0  0  0  0  0  0
    0.9867   -4.1965   12.3290 C   0  0  0  0  0  0  0  0  0  0  0  0
    2.1435   -3.4298   12.3025 C   0  0  0  0  0  0  0  0  0  0  0  0
   -1.2616   -4.6077   11.6542 O   0  0  0  0  0  0  0  0  0  0  0  0
   -1.2893   -5.9170   12.1693 C   0  0  0  0  0  0  0  0  0  0  0  0
    3.5100    0.7396   10.0528 C   0  0  0  0  0  0  0  0  0  0  0  0
    4.7656    0.8613   10.6191 C   0  0  0  0  0  0  0  0  0  0  0  0
    5.6192    1.9054   10.2892 C   0  0  0  0  0  0  0  0  0  0  0  0
    5.2662    2.8685    9.3883 C   0  0  0  0  0  0  0  0  0  0  0  0
    4.0246    2.7667    8.8145 C   0  0  0  0  0  0  0  0  0  0  0  0
    3.1571    1.6994    9.1547 C   0  0  0  0  0  0  0  0  0  0  0  0
  1  2  1  0
  2  3  2  0
  2  4  1  0
  4  5  1  0
  5  6  1  0
  6  7  1  0
  7  8  2  0
  8  9  1  0
  9 10  1  0
 10 11  2  0
 11 12  1  0
 12 13  2  0
 13 14  1  0
 14 15  2  0
 13 16  1  0
 16 17  1  0
  8 18  1  0
 18 19  2  0
 19 20  1  0
 20 21  2  0
 21 22  1  0
 22 23  2  0
 11  7  1  0
 15 10  1  0
 23 18  1  0
M  END
$$$$
