
     RDKit          3D

 23 25  0  0  0  0  0  0  0  0999 V2000
   -1.0993    0.6316    7.4214 C   0  0  0  0  0  0  0  0  0  0  0  0
   -0.0130   -0.2081    7.9929 C   0  0  0  0  0  0  0  0  0  0  0  0
   -0.2305   -1.4298    8.1687 O   0  0  0  0  0  0  0  0  0  0  0  0
    1.2477    0.3458    8.3372 N   0  0  0  0  0  0  0  0  0  0  0  0
    2.2976   -0.4291    8.9799 C   0  0  0  0  0  0  0  0  0  0  0  0
    2.7378    0.2300   10.2634 C   0  0  0  0  0  0  0  0  0  0  0  0
    1.6745    0.4270   11.2502 C   0  0  0  0  0  0  0  0  0  0  0  0
    1.0139    1.5508   11.6340 C   0  0  0  0  0  0  0  0  0  0  0  0
    0.1209    1.1771   12.6057 N   0  0  0  0  0  0  0  0  0  0  0  0
    0.2056   -0.1356   12.8355 C   0  0  0  0  0  0  0  0  0  0  0  0
    1.1580   -0.6349   12.0139 C   0  0  0  0  0  0  0  0  0  0  0  0
    1.4233   -1.9934   12.0756 C   0  0  0  0  0  0  0  0  0  0  0  0
    0.7527   -2.8339   12.9381 C   0  0  0  0  0  0  0  0  0  0  0  0
   -0.2121   -2.2980   13.7632 C   0  0  0  0  0  0  0  0  0  0  0  0
   -0.5102   -0.9427   13.7348 C   0  0  0  0  0  0  0  0  0  0  0  0
    1.0271   -4.1802   12.9874 O   0  0  0  0  0  0  0  0  0  0  0  0
    0.9432   -4.9518   14.1612 C   0  0  0  0  0  0  0  0  0  0  0  0
    1.1540    2.9387   11.1896 C   0  0  0  0  0  0  0  0  0  0  0  0
    0.4087    3.9160   11.8231 C   0  0  0  0  0  0  0  0  0  0  0  0
    0.4758    5.2495   11.4425 C   0  0  0  0  0  0  0  0  0  0  0  0
    1.2807    5.6689   10.4227 C   0  0  0  0  0  0  0  0  0  0  0  0
    2.0288    4.7155    9.7805 C   0  0  0  0  0  0  0  0  0  0  0  0
    1.9567    3.3558   10.1725 C   0  0  0  0  0  0  0  0  0  0  0  0
  1  2  1  0
  2  3  2  0
  2  4  1  0
  4  5  1  0
  5  6  1  0
  6  7  1  0
  7  8  2  0
  8  9  1  0
  9 10  1  0
 10 11  2  0
 11 12  1  0
 12 13  2  0
 13 14  1  0
 14 15  2  0
 13 16  1  0
 16 17  1  0
  8 18  1  0
 18 19  2  0
 19 20  1  0
 20 21  2  0
 21 22  1  0
 22 23  2  0
 11  7  1  0
 15 10  1  0
 23 18  1  0
M  END
$$$$
