
     RDKit          3D

 23 25  0  0  0  0  0  0  0  0999 V2000
    4.4765    4.6926    9.9832 C   0  0  0  0  0  0  0  0  0  0  0  0
    4.3048    3.3577   10.6159 C   0  0  0  0  0  0  0  0  0  0  0  0
    3.9907    3.3060   11.8281 O   0  0  0  0  0  0  0  0  0  0  0  0
    4.4889    2.1593    9.8779 N   0  0  0  0  0  0  0  0  0  0  0  0
    3.9974    0.8698   10.3376 C   0  0  0  0  0  0  0  0  0  0  0  0
    2.7595    0.4676    9.5750 C   0  0  0  0  0  0  0  0  0  0  0  0
    1.5027    0.6451   10.3043 C   0  0  0  0  0  0  0  0  0  0  0  0
    0.8125   -0.2059   11.1081 C   0  0  0  0  0  0  0  0  0  0  0  0
   -0.3105    0.4615   11.5260 N   0  0  0  0  0  0  0  0  0  0  0  0
   -0.3388    1.6928   11.0102 C   0  0  0  0  0  0  0  0  0  0  0  0
    0.7688    1.8434   10.2474 C   0  0  0  0  0  0  0  0  0  0  0  0
    0.9560    3.0563    9.6045 C   0  0  0  0  0  0  0  0  0  0  0  0
    0.0575    4.0952    9.7209 C   0  0  0  0  0  0  0  0  0  0  0  0
   -1.0615    3.9139   10.5042 C   0  0  0  0  0  0  0  0  0  0  0  0
   -1.2890    2.7153   11.1661 C   0  0  0  0  0  0  0  0  0  0  0  0
    0.2574    5.2933    9.0768 O   0  0  0  0  0  0  0  0  0  0  0  0
   -0.7682    6.0213    8.4456 C   0  0  0  0  0  0  0  0  0  0  0  0
    1.0974   -1.5863   11.5043 C   0  0  0  0  0  0  0  0  0  0  0  0
    0.0608   -2.3656   11.9837 C   0  0  0  0  0  0  0  0  0  0  0  0
    0.2604   -3.6764   12.3958 C   0  0  0  0  0  0  0  0  0  0  0  0
    1.4902   -4.2673   12.3504 C   0  0  0  0  0  0  0  0  0  0  0  0
    2.5329   -3.5117   11.8781 C   0  0  0  0  0  0  0  0  0  0  0  0
    2.3240   -2.1745   11.4589 C   0  0  0  0  0  0  0  0  0  0  0  0
  1  2  1  0
  2  3  2  0
  2  4  1  0
  4  5  1  0
  5  6  1  0
  6  7  1  0
  7  8  2  0
  8  9  1  0
  9 10  1  0
 10 11  2  0
 11 12  1  0
 12 13  2  0
 13 14  1  0
 14 15  2  0
 13 16  1  0
 16 17  1  0
  8 18  1  0
 18 19  2  0
 19 20  1  0
 20 21  2  0
 21 22  1  0
 22 23  2  0
 11  7  1  0
 15 10  1  0
 23 18  1  0
M  END
$$$$
