
     RDKit          3D

 23 25  0  0  0  0  0  0  0  0999 V2000
   -2.1040   -0.2099   11.2038 C   0  0  0  0  0  0  0  0  0  0  0  0
   -0.8390   -0.4575   10.4622 C   0  0  0  0  0  0  0  0  0  0  0  0
   -0.8972   -1.0569    9.3631 O   0  0  0  0  0  0  0  0  0  0  0  0
    0.4146   -0.0312   10.9734 N   0  0  0  0  0  0  0  0  0  0  0  0
    1.6826   -0.4650   10.4081 C   0  0  0  0  0  0  0  0  0  0  0  0
    2.2168    0.5640    9.4429 C   0  0  0  0  0  0  0  0  0  0  0  0
    2.7996    1.7516   10.0698 C   0  0  0  0  0  0  0  0  0  0  0  0
    2.2881    2.9949   10.2679 C   0  0  0  0  0  0  0  0  0  0  0  0
    3.2617    3.7327   10.8916 N   0  0  0  0  0  0  0  0  0  0  0  0
    4.3548    2.9910   11.0860 C   0  0  0  0  0  0  0  0  0  0  0  0
    4.1063    1.7567   10.5897 C   0  0  0  0  0  0  0  0  0  0  0  0
    5.1089    0.8048   10.6810 C   0  0  0  0  0  0  0  0  0  0  0  0
    6.3317    1.0794   11.2550 C   0  0  0  0  0  0  0  0  0  0  0  0
    6.5571    2.3446   11.7520 C   0  0  0  0  0  0  0  0  0  0  0  0
    5.5810    3.3289   11.6815 C   0  0  0  0  0  0  0  0  0  0  0  0
    7.3167    0.1239   11.3385 O   0  0  0  0  0  0  0  0  0  0  0  0
    8.6842    0.4225   11.4837 C   0  0  0  0  0  0  0  0  0  0  0  0
    0.9842    3.5579    9.9123 C   0  0  0  0  0  0  0  0  0  0  0  0
    0.7430    4.8926   10.1814 C   0  0  0  0  0  0  0  0  0  0  0  0
   -0.4761    5.4895    9.8894 C   0  0  0  0  0  0  0  0  0  0  0  0
   -1.5028    4.7920    9.3211 C   0  0  0  0  0  0  0  0  0  0  0  0
   -1.2847    3.4661    9.0458 C   0  0  0  0  0  0  0  0  0  0  0  0
   -0.0389    2.8617    9.3459 C   0  0  0  0  0  0  0  0  0  0  0  0
  1  2  1  0
  2  3  2  0
  2  4  1  0
  4  5  1  0
  5  6  1  0
  6  7  1  0
  7  8  2  0
  8  9  1  0
  9 10  1  0
 10 11  2  0
 11 12  1  0
 12 13  2  0
 13 14  1  0
 14 15  2  0
 13 16  1  0
 16 17  1  0
  8 18  1  0
 18 19  2  0
 19 20  1  0
 20 21  2  0
 21 22  1  0
 22 23  2  0
 11  7  1  0
 15 10  1  0
 23 18  1  0
M  END
$$$$
