
     RDKit          3D

 23 25  0  0  0  0  0  0  0  0999 V2000
    4.9114    3.8658    9.3760 C   0  0  0  0  0  0  0  0  0  0  0  0
    4.7116    2.5314   10.0013 C   0  0  0  0  0  0  0  0  0  0  0  0
    5.3233    2.2707   11.0637 O   0  0  0  0  0  0  0  0  0  0  0  0
    3.8511    1.5631    9.4210 N   0  0  0  0  0  0  0  0  0  0  0  0
    3.6424    0.2470   10.0040 C   0  0  0  0  0  0  0  0  0  0  0  0
    2.1963   -0.1662    9.8855 C   0  0  0  0  0  0  0  0  0  0  0  0
    1.3270    0.3222   10.9574 C   0  0  0  0  0  0  0  0  0  0  0  0
    0.7460   -0.3299   11.9985 C   0  0  0  0  0  0  0  0  0  0  0  0
    0.0193    0.6002   12.6970 N   0  0  0  0  0  0  0  0  0  0  0  0
    0.1304    1.8021   12.1258 C   0  0  0  0  0  0  0  0  0  0  0  0
    0.9334    1.6695   11.0447 C   0  0  0  0  0  0  0  0  0  0  0  0
    1.1959    2.7992   10.2867 C   0  0  0  0  0  0  0  0  0  0  0  0
    0.6685    4.0333   10.6016 C   0  0  0  0  0  0  0  0  0  0  0  0
   -0.1459    4.1388   11.7081 C   0  0  0  0  0  0  0  0  0  0  0  0
   -0.4355    3.0331   12.4956 C   0  0  0  0  0  0  0  0  0  0  0  0
    0.9386    5.1454    9.8398 O   0  0  0  0  0  0  0  0  0  0  0  0
    0.0865    6.2623    9.7589 C   0  0  0  0  0  0  0  0  0  0  0  0
    0.7941   -1.7407   12.3870 C   0  0  0  0  0  0  0  0  0  0  0  0
    1.7617   -2.5510   11.8223 C   0  0  0  0  0  0  0  0  0  0  0  0
    1.8551   -3.9020   12.1287 C   0  0  0  0  0  0  0  0  0  0  0  0
    0.9974   -4.5040   13.0037 C   0  0  0  0  0  0  0  0  0  0  0  0
    0.0297   -3.7182   13.5755 C   0  0  0  0  0  0  0  0  0  0  0  0
   -0.0616   -2.3401   13.2594 C   0  0  0  0  0  0  0  0  0  0  0  0
  1  2  1  0
  2  3  2  0
  2  4  1  0
  4  5  1  0
  5  6  1  0
  6  7  1  0
  7  8  2  0
  8  9  1  0
  9 10  1  0
 10 11  2  0
 11 12  1  0
 12 13  2  0
 13 14  1  0
 14 15  2  0
 13 16  1  0
 16 17  1  0
  8 18  1  0
 18 19  2  0
 19 20  1  0
 20 21  2  0
 21 22  1  0
 22 23  2  0
 11  7  1  0
 15 10  1  0
 23 18  1  0
M  END
$$$$
