
     RDKit          3D

 23 25  0  0  0  0  0  0  0  0999 V2000
    5.4833   -0.1785   10.8285 C   0  0  0  0  0  0  0  0  0  0  0  0
    4.3648    0.4632   10.0877 C   0  0  0  0  0  0  0  0  0  0  0  0
    3.9947   -0.0461    9.0040 O   0  0  0  0  0  0  0  0  0  0  0  0
    3.7201    1.6269   10.5825 N   0  0  0  0  0  0  0  0  0  0  0  0
    2.6051    2.2599    9.8958 C   0  0  0  0  0  0  0  0  0  0  0  0
    1.3370    1.4670   10.0932 C   0  0  0  0  0  0  0  0  0  0  0  0
    0.8887    1.3590   11.4826 C   0  0  0  0  0  0  0  0  0  0  0  0
    0.5098    2.3140   12.3721 C   0  0  0  0  0  0  0  0  0  0  0  0
    0.1969    1.6692   13.5415 N   0  0  0  0  0  0  0  0  0  0  0  0
    0.3684    0.3519   13.4067 C   0  0  0  0  0  0  0  0  0  0  0  0
    0.7965    0.1213   12.1438 C   0  0  0  0  0  0  0  0  0  0  0  0
    1.0437   -1.1897   11.7698 C   0  0  0  0  0  0  0  0  0  0  0  0
    0.8671   -2.2463   12.6374 C   0  0  0  0  0  0  0  0  0  0  0  0
    0.4302   -1.9820   13.9172 C   0  0  0  0  0  0  0  0  0  0  0  0
    0.1706   -0.6839   14.3344 C   0  0  0  0  0  0  0  0  0  0  0  0
    1.1164   -3.5420   12.2513 O   0  0  0  0  0  0  0  0  0  0  0  0
    0.3559   -4.6451   12.6814 C   0  0  0  0  0  0  0  0  0  0  0  0
    0.4315    3.7694   12.2337 C   0  0  0  0  0  0  0  0  0  0  0  0
   -0.1613    4.5005   13.2466 C   0  0  0  0  0  0  0  0  0  0  0  0
   -0.2879    5.8813   13.1752 C   0  0  0  0  0  0  0  0  0  0  0  0
    0.1656    6.5925   12.1018 C   0  0  0  0  0  0  0  0  0  0  0  0
    0.7572    5.8867   11.0854 C   0  0  0  0  0  0  0  0  0  0  0  0
    0.8838    4.4777   11.1630 C   0  0  0  0  0  0  0  0  0  0  0  0
  1  2  1  0
  2  3  2  0
  2  4  1  0
  4  5  1  0
  5  6  1  0
  6  7  1  0
  7  8  2  0
  8  9  1  0
  9 10  1  0
 10 11  2  0
 11 12  1  0
 12 13  2  0
 13 14  1  0
 14 15  2  0
 13 16  1  0
 16 17  1  0
  8 18  1  0
 18 19  2  0
 19 20  1  0
 20 21  2  0
 21 22  1  0
 22 23  2  0
 11  7  1  0
 15 10  1  0
 23 18  1  0
M  END
$$$$
