
     RDKit          3D

 23 25  0  0  0  0  0  0  0  0999 V2000
    6.2101    1.5060    8.1271 C   0  0  0  0  0  0  0  0  0  0  0  0
    4.8358    1.7018    8.6605 C   0  0  0  0  0  0  0  0  0  0  0  0
    3.8917    1.8358    7.8471 O   0  0  0  0  0  0  0  0  0  0  0  0
    4.5815    1.7385   10.0564 N   0  0  0  0  0  0  0  0  0  0  0  0
    3.2452    1.8990   10.6080 C   0  0  0  0  0  0  0  0  0  0  0  0
    2.4271    0.6491   10.3974 C   0  0  0  0  0  0  0  0  0  0  0  0
    1.1410    0.6304   11.0965 C   0  0  0  0  0  0  0  0  0  0  0  0
    0.2026    1.5998   11.2593 C   0  0  0  0  0  0  0  0  0  0  0  0
   -0.8071    1.0561   12.0116 N   0  0  0  0  0  0  0  0  0  0  0  0
   -0.5270   -0.2129   12.3188 C   0  0  0  0  0  0  0  0  0  0  0  0
    0.6726   -0.5125   11.7689 C   0  0  0  0  0  0  0  0  0  0  0  0
    1.1738   -1.7904   11.9574 C   0  0  0  0  0  0  0  0  0  0  0  0
    0.4922   -2.7471   12.6787 C   0  0  0  0  0  0  0  0  0  0  0  0
   -0.7271   -2.4142   13.2274 C   0  0  0  0  0  0  0  0  0  0  0  0
   -1.2667   -1.1459   13.0636 C   0  0  0  0  0  0  0  0  0  0  0  0
    1.0026   -4.0112   12.8568 O   0  0  0  0  0  0  0  0  0  0  0  0
    0.5758   -4.8903   13.8694 C   0  0  0  0  0  0  0  0  0  0  0  0
    0.1732    2.9872   10.7927 C   0  0  0  0  0  0  0  0  0  0  0  0
    0.9305    3.3312    9.6882 C   0  0  0  0  0  0  0  0  0  0  0  0
    0.9665    4.6309    9.2012 C   0  0  0  0  0  0  0  0  0  0  0  0
    0.2568    5.6399    9.7858 C   0  0  0  0  0  0  0  0  0  0  0  0
   -0.5014    5.3205   10.8832 C   0  0  0  0  0  0  0  0  0  0  0  0
   -0.5346    3.9926   11.3763 C   0  0  0  0  0  0  0  0  0  0  0  0
  1  2  1  0
  2  3  2  0
  2  4  1  0
  4  5  1  0
  5  6  1  0
  6  7  1  0
  7  8  2  0
  8  9  1  0
  9 10  1  0
 10 11  2  0
 11 12  1  0
 12 13  2  0
 13 14  1  0
 14 15  2  0
 13 16  1  0
 16 17  1  0
  8 18  1  0
 18 19  2  0
 19 20  1  0
 20 21  2  0
 21 22  1  0
 22 23  2  0
 11  7  1  0
 15 10  1  0
 23 18  1  0
M  END
$$$$
