
     RDKit          3D

 23 25  0  0  0  0  0  0  0  0999 V2000
    4.2456    0.7376    7.8410 C   0  0  0  0  0  0  0  0  0  0  0  0
    4.0532    1.6092    9.0304 C   0  0  0  0  0  0  0  0  0  0  0  0
    3.9833    2.8488    8.8589 O   0  0  0  0  0  0  0  0  0  0  0  0
    3.9491    1.0659   10.3376 N   0  0  0  0  0  0  0  0  0  0  0  0
    3.7418    1.8908   11.5175 C   0  0  0  0  0  0  0  0  0  0  0  0
    2.5614    1.3947   12.3151 C   0  0  0  0  0  0  0  0  0  0  0  0
    1.2554    1.6505   11.7051 C   0  0  0  0  0  0  0  0  0  0  0  0
    0.3429    0.7997   11.1665 C   0  0  0  0  0  0  0  0  0  0  0  0
   -0.7047    1.5659   10.7229 N   0  0  0  0  0  0  0  0  0  0  0  0
   -0.4728    2.8578   10.9681 C   0  0  0  0  0  0  0  0  0  0  0  0
    0.7326    2.9497   11.5762 C   0  0  0  0  0  0  0  0  0  0  0  0
    1.1886    4.2094   11.9299 C   0  0  0  0  0  0  0  0  0  0  0  0
    0.4571    5.3511   11.6820 C   0  0  0  0  0  0  0  0  0  0  0  0
   -0.7670    5.2276   11.0614 C   0  0  0  0  0  0  0  0  0  0  0  0
   -1.2624    3.9854   10.6897 C   0  0  0  0  0  0  0  0  0  0  0  0
    0.9229    6.5943   12.0393 O   0  0  0  0  0  0  0  0  0  0  0  0
    0.0960    7.6353   12.5005 C   0  0  0  0  0  0  0  0  0  0  0  0
    0.3698   -0.6561   11.0134 C   0  0  0  0  0  0  0  0  0  0  0  0
    1.4024   -1.3651   11.5990 C   0  0  0  0  0  0  0  0  0  0  0  0
    1.5031   -2.7447   11.4795 C   0  0  0  0  0  0  0  0  0  0  0  0
    0.5889   -3.4765   10.7778 C   0  0  0  0  0  0  0  0  0  0  0  0
   -0.4439   -2.7928   10.1887 C   0  0  0  0  0  0  0  0  0  0  0  0
   -0.5421   -1.3848   10.3134 C   0  0  0  0  0  0  0  0  0  0  0  0
  1  2  1  0
  2  3  2  0
  2  4  1  0
  4  5  1  0
  5  6  1  0
  6  7  1  0
  7  8  2  0
  8  9  1  0
  9 10  1  0
 10 11  2  0
 11 12  1  0
 12 13  2  0
 13 14  1  0
 14 15  2  0
 13 16  1  0
 16 17  1  0
  8 18  1  0
 18 19  2  0
 19 20  1  0
 20 21  2  0
 21 22  1  0
 22 23  2  0
 11  7  1  0
 15 10  1  0
 23 18  1  0
M  END
$$$$
