
     RDKit          3D

 23 25  0  0  0  0  0  0  0  0999 V2000
    3.1634   -3.9885   12.1684 C   0  0  0  0  0  0  0  0  0  0  0  0
    3.2135   -2.7108   11.4092 C   0  0  0  0  0  0  0  0  0  0  0  0
    3.6985   -2.7201   10.2535 O   0  0  0  0  0  0  0  0  0  0  0  0
    2.7274   -1.4990   11.9659 N   0  0  0  0  0  0  0  0  0  0  0  0
    2.5842   -0.2784   11.1880 C   0  0  0  0  0  0  0  0  0  0  0  0
    1.1276    0.0473   10.9689 C   0  0  0  0  0  0  0  0  0  0  0  0
    0.6425    1.2195   11.6994 C   0  0  0  0  0  0  0  0  0  0  0  0
    0.7595    2.5465   11.4308 C   0  0  0  0  0  0  0  0  0  0  0  0
    0.1327    3.2172   12.4498 N   0  0  0  0  0  0  0  0  0  0  0  0
   -0.3670    2.3535   13.3371 C   0  0  0  0  0  0  0  0  0  0  0  0
   -0.0710    1.1054   12.9058 C   0  0  0  0  0  0  0  0  0  0  0  0
   -0.4945    0.0337   13.6751 C   0  0  0  0  0  0  0  0  0  0  0  0
   -1.1978    0.2047   14.8483 C   0  0  0  0  0  0  0  0  0  0  0  0
   -1.4852    1.4868   15.2632 C   0  0  0  0  0  0  0  0  0  0  0  0
   -1.0802    2.5895   14.5237 C   0  0  0  0  0  0  0  0  0  0  0  0
   -1.6116   -0.8690   15.6007 O   0  0  0  0  0  0  0  0  0  0  0  0
   -2.7524   -1.6374   15.3038 C   0  0  0  0  0  0  0  0  0  0  0  0
    1.4169    3.2412   10.3223 C   0  0  0  0  0  0  0  0  0  0  0  0
    0.9437    4.4845    9.9455 C   0  0  0  0  0  0  0  0  0  0  0  0
    1.5050    5.1929    8.8916 C   0  0  0  0  0  0  0  0  0  0  0  0
    2.5542    4.7011    8.1698 C   0  0  0  0  0  0  0  0  0  0  0  0
    3.0394    3.4689    8.5269 C   0  0  0  0  0  0  0  0  0  0  0  0
    2.4629    2.7500    9.6032 C   0  0  0  0  0  0  0  0  0  0  0  0
  1  2  1  0
  2  3  2  0
  2  4  1  0
  4  5  1  0
  5  6  1  0
  6  7  1  0
  7  8  2  0
  8  9  1  0
  9 10  1  0
 10 11  2  0
 11 12  1  0
 12 13  2  0
 13 14  1  0
 14 15  2  0
 13 16  1  0
 16 17  1  0
  8 18  1  0
 18 19  2  0
 19 20  1  0
 20 21  2  0
 21 22  1  0
 22 23  2  0
 11  7  1  0
 15 10  1  0
 23 18  1  0
M  END
$$$$
