
     RDKit          3D

 23 25  0  0  0  0  0  0  0  0999 V2000
   -0.4262   -2.2983   11.4962 C   0  0  0  0  0  0  0  0  0  0  0  0
   -0.0473   -1.2661   12.4975 C   0  0  0  0  0  0  0  0  0  0  0  0
    0.7165   -1.5942   13.4355 O   0  0  0  0  0  0  0  0  0  0  0  0
   -0.5308    0.0654   12.4077 N   0  0  0  0  0  0  0  0  0  0  0  0
   -0.1002    1.1206   13.3115 C   0  0  0  0  0  0  0  0  0  0  0  0
    1.3367    1.4965   13.0472 C   0  0  0  0  0  0  0  0  0  0  0  0
    1.5423    2.3631   11.8854 C   0  0  0  0  0  0  0  0  0  0  0  0
    0.9955    3.5650   11.5640 C   0  0  0  0  0  0  0  0  0  0  0  0
    1.5255    3.9344   10.3541 N   0  0  0  0  0  0  0  0  0  0  0  0
    2.3793    3.0053    9.9171 C   0  0  0  0  0  0  0  0  0  0  0  0
    2.4161    2.0160   10.8396 C   0  0  0  0  0  0  0  0  0  0  0  0
    3.2443    0.9317   10.5982 C   0  0  0  0  0  0  0  0  0  0  0  0
    4.0181    0.8379    9.4613 C   0  0  0  0  0  0  0  0  0  0  0  0
    3.9606    1.8601    8.5390 C   0  0  0  0  0  0  0  0  0  0  0  0
    3.1447    2.9648    8.7402 C   0  0  0  0  0  0  0  0  0  0  0  0
    4.8353   -0.2444    9.2359 O   0  0  0  0  0  0  0  0  0  0  0  0
    5.8961   -0.2430    8.3113 C   0  0  0  0  0  0  0  0  0  0  0  0
    0.0134    4.3868   12.2737 C   0  0  0  0  0  0  0  0  0  0  0  0
   -0.2227    5.6731   11.8249 C   0  0  0  0  0  0  0  0  0  0  0  0
   -1.1254    6.5157   12.4595 C   0  0  0  0  0  0  0  0  0  0  0  0
   -1.8289    6.1209   13.5608 C   0  0  0  0  0  0  0  0  0  0  0  0
   -1.6098    4.8483   14.0229 C   0  0  0  0  0  0  0  0  0  0  0  0
   -0.6875    3.9923   13.3718 C   0  0  0  0  0  0  0  0  0  0  0  0
  1  2  1  0
  2  3  2  0
  2  4  1  0
  4  5  1  0
  5  6  1  0
  6  7  1  0
  7  8  2  0
  8  9  1  0
  9 10  1  0
 10 11  2  0
 11 12  1  0
 12 13  2  0
 13 14  1  0
 14 15  2  0
 13 16  1  0
 16 17  1  0
  8 18  1  0
 18 19  2  0
 19 20  1  0
 20 21  2  0
 21 22  1  0
 22 23  2  0
 11  7  1  0
 15 10  1  0
 23 18  1  0
M  END
$$$$
