
     RDKit          3D

 23 25  0  0  0  0  0  0  0  0999 V2000
    5.3557    1.6392    8.7443 C   0  0  0  0  0  0  0  0  0  0  0  0
    4.1181    1.7056    9.5661 C   0  0  0  0  0  0  0  0  0  0  0  0
    3.0407    2.0085    9.0018 O   0  0  0  0  0  0  0  0  0  0  0  0
    4.1388    1.4351   10.9593 N   0  0  0  0  0  0  0  0  0  0  0  0
    3.0650    1.8373   11.8542 C   0  0  0  0  0  0  0  0  0  0  0  0
    2.2812    0.6359   12.3212 C   0  0  0  0  0  0  0  0  0  0  0  0
    1.1134    0.3067   11.5022 C   0  0  0  0  0  0  0  0  0  0  0  0
    0.2827    1.1010   10.7770 C   0  0  0  0  0  0  0  0  0  0  0  0
   -0.6597    0.2814   10.2101 N   0  0  0  0  0  0  0  0  0  0  0  0
   -0.4414   -0.9891   10.5582 C   0  0  0  0  0  0  0  0  0  0  0  0
    0.6494   -1.0131   11.3588 C   0  0  0  0  0  0  0  0  0  0  0  0
    1.0706   -2.2391   11.8479 C   0  0  0  0  0  0  0  0  0  0  0  0
    0.4172   -3.4143   11.5442 C   0  0  0  0  0  0  0  0  0  0  0  0
   -0.6906   -3.3599   10.7267 C   0  0  0  0  0  0  0  0  0  0  0  0
   -1.1475   -2.1534   10.2145 C   0  0  0  0  0  0  0  0  0  0  0  0
    0.8475   -4.6234   12.0371 O   0  0  0  0  0  0  0  0  0  0  0  0
    0.1615   -5.8361   11.8398 C   0  0  0  0  0  0  0  0  0  0  0  0
    0.2797    2.5520   10.5818 C   0  0  0  0  0  0  0  0  0  0  0  0
   -0.8172    3.1370    9.9764 C   0  0  0  0  0  0  0  0  0  0  0  0
   -0.8813    4.5039    9.7415 C   0  0  0  0  0  0  0  0  0  0  0  0
    0.1344    5.3448   10.0950 C   0  0  0  0  0  0  0  0  0  0  0  0
    1.2323    4.7851   10.6971 C   0  0  0  0  0  0  0  0  0  0  0  0
    1.2929    3.3896   10.9344 C   0  0  0  0  0  0  0  0  0  0  0  0
  1  2  1  0
  2  3  2  0
  2  4  1  0
  4  5  1  0
  5  6  1  0
  6  7  1  0
  7  8  2  0
  8  9  1  0
  9 10  1  0
 10 11  2  0
 11 12  1  0
 12 13  2  0
 13 14  1  0
 14 15  2  0
 13 16  1  0
 16 17  1  0
  8 18  1  0
 18 19  2  0
 19 20  1  0
 20 21  2  0
 21 22  1  0
 22 23  2  0
 11  7  1  0
 15 10  1  0
 23 18  1  0
M  END
$$$$
