
     RDKit          3D

 23 25  0  0  0  0  0  0  0  0999 V2000
    5.7380    0.0701   11.4202 C   0  0  0  0  0  0  0  0  0  0  0  0
    4.7427    0.7574   10.5550 C   0  0  0  0  0  0  0  0  0  0  0  0
    4.8174    2.0021   10.4293 O   0  0  0  0  0  0  0  0  0  0  0  0
    3.7246    0.0350    9.8796 N   0  0  0  0  0  0  0  0  0  0  0  0
    2.6896    0.6859    9.0918 C   0  0  0  0  0  0  0  0  0  0  0  0
    1.3184    0.2888    9.5794 C   0  0  0  0  0  0  0  0  0  0  0  0
    0.9582    0.8139   10.8977 C   0  0  0  0  0  0  0  0  0  0  0  0
    0.8137    2.0916   11.3374 C   0  0  0  0  0  0  0  0  0  0  0  0
    0.4784    2.0215   12.6655 N   0  0  0  0  0  0  0  0  0  0  0  0
    0.4104    0.7481   13.0617 C   0  0  0  0  0  0  0  0  0  0  0  0
    0.7015   -0.0297   11.9932 C   0  0  0  0  0  0  0  0  0  0  0  0
    0.6920   -1.4042   12.1672 C   0  0  0  0  0  0  0  0  0  0  0  0
    0.3983   -1.9885   13.3807 C   0  0  0  0  0  0  0  0  0  0  0  0
    0.1057   -1.1721   14.4514 C   0  0  0  0  0  0  0  0  0  0  0  0
    0.1038    0.2099   14.3221 C   0  0  0  0  0  0  0  0  0  0  0  0
    0.3926   -3.3543   13.5376 O   0  0  0  0  0  0  0  0  0  0  0  0
   -0.3343   -4.0223   14.5403 C   0  0  0  0  0  0  0  0  0  0  0  0
    0.9776    3.3662   10.6361 C   0  0  0  0  0  0  0  0  0  0  0  0
    1.7627    3.4006    9.4985 C   0  0  0  0  0  0  0  0  0  0  0  0
    1.9785    4.5769    8.7932 C   0  0  0  0  0  0  0  0  0  0  0  0
    1.4278    5.7634    9.1840 C   0  0  0  0  0  0  0  0  0  0  0  0
    0.6452    5.7518   10.3103 C   0  0  0  0  0  0  0  0  0  0  0  0
    0.4282    4.5488   11.0266 C   0  0  0  0  0  0  0  0  0  0  0  0
  1  2  1  0
  2  3  2  0
  2  4  1  0
  4  5  1  0
  5  6  1  0
  6  7  1  0
  7  8  2  0
  8  9  1  0
  9 10  1  0
 10 11  2  0
 11 12  1  0
 12 13  2  0
 13 14  1  0
 14 15  2  0
 13 16  1  0
 16 17  1  0
  8 18  1  0
 18 19  2  0
 19 20  1  0
 20 21  2  0
 21 22  1  0
 22 23  2  0
 11  7  1  0
 15 10  1  0
 23 18  1  0
M  END
$$$$
