
     RDKit          3D

 23 25  0  0  0  0  0  0  0  0999 V2000
    0.2746    5.3515   10.7542 C   0  0  0  0  0  0  0  0  0  0  0  0
   -0.1819    4.0633   11.3405 C   0  0  0  0  0  0  0  0  0  0  0  0
   -1.3898    3.7489   11.2270 O   0  0  0  0  0  0  0  0  0  0  0  0
    0.7170    3.1977   12.0167 N   0  0  0  0  0  0  0  0  0  0  0  0
    0.3052    1.9216   12.5804 C   0  0  0  0  0  0  0  0  0  0  0  0
    1.4852    0.9911   12.7134 C   0  0  0  0  0  0  0  0  0  0  0  0
    1.6223    0.0130   11.6328 C   0  0  0  0  0  0  0  0  0  0  0  0
    2.2850    0.0826   10.4485 C   0  0  0  0  0  0  0  0  0  0  0  0
    2.0768   -1.1099    9.8035 N   0  0  0  0  0  0  0  0  0  0  0  0
    1.3106   -1.9128   10.5459 C   0  0  0  0  0  0  0  0  0  0  0  0
    1.0090   -1.2514   11.6874 C   0  0  0  0  0  0  0  0  0  0  0  0
    0.2145   -1.8955   12.6220 C   0  0  0  0  0  0  0  0  0  0  0  0
   -0.2676   -3.1712   12.4212 C   0  0  0  0  0  0  0  0  0  0  0  0
    0.0554   -3.8208   11.2498 C   0  0  0  0  0  0  0  0  0  0  0  0
    0.8483   -3.2133   10.2860 C   0  0  0  0  0  0  0  0  0  0  0  0
   -1.0548   -3.7973   13.3585 O   0  0  0  0  0  0  0  0  0  0  0  0
   -1.1863   -5.1946   13.4602 C   0  0  0  0  0  0  0  0  0  0  0  0
    3.0764    1.1647    9.8601 C   0  0  0  0  0  0  0  0  0  0  0  0
    2.9143    2.4470   10.3514 C   0  0  0  0  0  0  0  0  0  0  0  0
    3.6166    3.5250    9.8296 C   0  0  0  0  0  0  0  0  0  0  0  0
    4.5050    3.3784    8.8035 C   0  0  0  0  0  0  0  0  0  0  0  0
    4.6810    2.1144    8.3010 C   0  0  0  0  0  0  0  0  0  0  0  0
    3.9618    1.0176    8.8369 C   0  0  0  0  0  0  0  0  0  0  0  0
  1  2  1  0
  2  3  2  0
  2  4  1  0
  4  5  1  0
  5  6  1  0
  6  7  1  0
  7  8  2  0
  8  9  1  0
  9 10  1  0
 10 11  2  0
 11 12  1  0
 12 13  2  0
 13 14  1  0
 14 15  2  0
 13 16  1  0
 16 17  1  0
  8 18  1  0
 18 19  2  0
 19 20  1  0
 20 21  2  0
 21 22  1  0
 22 23  2  0
 11  7  1  0
 15 10  1  0
 23 18  1  0
M  END
$$$$
