
     RDKit          3D

 23 25  0  0  0  0  0  0  0  0999 V2000
   -2.2849    1.7069   14.7475 C   0  0  0  0  0  0  0  0  0  0  0  0
   -2.4307    1.0982   13.3985 C   0  0  0  0  0  0  0  0  0  0  0  0
   -3.5178    0.5481   13.1045 O   0  0  0  0  0  0  0  0  0  0  0  0
   -1.3724    1.1305   12.4532 N   0  0  0  0  0  0  0  0  0  0  0  0
   -0.1281    1.8454   12.6904 C   0  0  0  0  0  0  0  0  0  0  0  0
    1.0088    0.8790   12.9127 C   0  0  0  0  0  0  0  0  0  0  0  0
    1.6076    0.3417   11.6897 C   0  0  0  0  0  0  0  0  0  0  0  0
    1.8678    0.9310   10.4931 C   0  0  0  0  0  0  0  0  0  0  0  0
    2.4241   -0.0295    9.6874 N   0  0  0  0  0  0  0  0  0  0  0  0
    2.5173   -1.1894   10.3423 C   0  0  0  0  0  0  0  0  0  0  0  0
    2.0211   -0.9985   11.5867 C   0  0  0  0  0  0  0  0  0  0  0  0
    2.0150   -2.0765   12.4571 C   0  0  0  0  0  0  0  0  0  0  0  0
    2.4938   -3.3168   12.0929 C   0  0  0  0  0  0  0  0  0  0  0  0
    2.9932   -3.4823   10.8194 C   0  0  0  0  0  0  0  0  0  0  0  0
    3.0184   -2.4298    9.9148 C   0  0  0  0  0  0  0  0  0  0  0  0
    2.4814   -4.3769   12.9681 O   0  0  0  0  0  0  0  0  0  0  0  0
    3.0819   -5.6204   12.6974 C   0  0  0  0  0  0  0  0  0  0  0  0
    1.6277    2.2994   10.0313 C   0  0  0  0  0  0  0  0  0  0  0  0
    1.9396    2.6218    8.7234 C   0  0  0  0  0  0  0  0  0  0  0  0
    1.7568    3.9035    8.2218 C   0  0  0  0  0  0  0  0  0  0  0  0
    1.2596    4.9151    8.9919 C   0  0  0  0  0  0  0  0  0  0  0  0
    0.9436    4.6169   10.2928 C   0  0  0  0  0  0  0  0  0  0  0  0
    1.1321    3.3075   10.7999 C   0  0  0  0  0  0  0  0  0  0  0  0
  1  2  1  0
  2  3  2  0
  2  4  1  0
  4  5  1  0
  5  6  1  0
  6  7  1  0
  7  8  2  0
  8  9  1  0
  9 10  1  0
 10 11  2  0
 11 12  1  0
 12 13  2  0
 13 14  1  0
 14 15  2  0
 13 16  1  0
 16 17  1  0
  8 18  1  0
 18 19  2  0
 19 20  1  0
 20 21  2  0
 21 22  1  0
 22 23  2  0
 11  7  1  0
 15 10  1  0
 23 18  1  0
M  END
$$$$
