
     RDKit          3D

 23 25  0  0  0  0  0  0  0  0999 V2000
    6.6743    1.5511   12.0458 C   0  0  0  0  0  0  0  0  0  0  0  0
    6.0467    1.7287   10.7094 C   0  0  0  0  0  0  0  0  0  0  0  0
    6.6613    1.3124    9.6996 O   0  0  0  0  0  0  0  0  0  0  0  0
    4.7807    2.3537   10.5630 N   0  0  0  0  0  0  0  0  0  0  0  0
    4.1154    2.4898    9.2768 C   0  0  0  0  0  0  0  0  0  0  0  0
    3.0110    1.4717    9.1366 C   0  0  0  0  0  0  0  0  0  0  0  0
    1.8401    1.7137    9.9813 C   0  0  0  0  0  0  0  0  0  0  0  0
    1.2710    0.9525   10.9525 C   0  0  0  0  0  0  0  0  0  0  0  0
    0.1832    1.6463   11.4179 N   0  0  0  0  0  0  0  0  0  0  0  0
    0.0601    2.8075   10.7702 C   0  0  0  0  0  0  0  0  0  0  0  0
    1.0693    2.8848    9.8719 C   0  0  0  0  0  0  0  0  0  0  0  0
    1.1464    4.0162    9.0759 C   0  0  0  0  0  0  0  0  0  0  0  0
    0.2364    5.0469    9.1750 C   0  0  0  0  0  0  0  0  0  0  0  0
   -0.7808    4.9412   10.0984 C   0  0  0  0  0  0  0  0  0  0  0  0
   -0.8962    3.8256   10.9161 C   0  0  0  0  0  0  0  0  0  0  0  0
    0.3265    6.1636    8.3781 O   0  0  0  0  0  0  0  0  0  0  0  0
   -0.6402    7.1859    8.3540 C   0  0  0  0  0  0  0  0  0  0  0  0
    1.6398   -0.3667   11.4697 C   0  0  0  0  0  0  0  0  0  0  0  0
    2.7329   -1.0116   10.9212 C   0  0  0  0  0  0  0  0  0  0  0  0
    3.1294   -2.2719   11.3481 C   0  0  0  0  0  0  0  0  0  0  0  0
    2.4623   -2.9430   12.3321 C   0  0  0  0  0  0  0  0  0  0  0  0
    1.3745   -2.3212   12.8899 C   0  0  0  0  0  0  0  0  0  0  0  0
    0.9738   -1.0351   12.4506 C   0  0  0  0  0  0  0  0  0  0  0  0
  1  2  1  0
  2  3  2  0
  2  4  1  0
  4  5  1  0
  5  6  1  0
  6  7  1  0
  7  8  2  0
  8  9  1  0
  9 10  1  0
 10 11  2  0
 11 12  1  0
 12 13  2  0
 13 14  1  0
 14 15  2  0
 13 16  1  0
 16 17  1  0
  8 18  1  0
 18 19  2  0
 19 20  1  0
 20 21  2  0
 21 22  1  0
 22 23  2  0
 11  7  1  0
 15 10  1  0
 23 18  1  0
M  END
$$$$
