
     RDKit          3D

 23 25  0  0  0  0  0  0  0  0999 V2000
   -0.9400   -0.8141    9.0041 C   0  0  0  0  0  0  0  0  0  0  0  0
   -0.5085   -0.9167   10.4236 C   0  0  0  0  0  0  0  0  0  0  0  0
   -1.3884   -1.0125   11.3111 O   0  0  0  0  0  0  0  0  0  0  0  0
    0.8646   -0.9078   10.7827 N   0  0  0  0  0  0  0  0  0  0  0  0
    1.3199   -1.0809   12.1532 C   0  0  0  0  0  0  0  0  0  0  0  0
    2.0713    0.1395   12.6243 C   0  0  0  0  0  0  0  0  0  0  0  0
    1.2756    1.3669   12.6843 C   0  0  0  0  0  0  0  0  0  0  0  0
    1.2651    2.4607   11.8780 C   0  0  0  0  0  0  0  0  0  0  0  0
    0.3371    3.3287   12.3944 N   0  0  0  0  0  0  0  0  0  0  0  0
   -0.2256    2.8111   13.4891 C   0  0  0  0  0  0  0  0  0  0  0  0
    0.3306    1.5956   13.7003 C   0  0  0  0  0  0  0  0  0  0  0  0
   -0.1030    0.8627   14.7933 C   0  0  0  0  0  0  0  0  0  0  0  0
   -1.0703    1.3331   15.6555 C   0  0  0  0  0  0  0  0  0  0  0  0
   -1.6192    2.5741   15.4161 C   0  0  0  0  0  0  0  0  0  0  0  0
   -1.2144    3.3423   14.3332 C   0  0  0  0  0  0  0  0  0  0  0  0
   -1.4904    0.5938   16.7358 O   0  0  0  0  0  0  0  0  0  0  0  0
   -2.0265    1.1587   17.9078 C   0  0  0  0  0  0  0  0  0  0  0  0
    2.0533    2.7740   10.6847 C   0  0  0  0  0  0  0  0  0  0  0  0
    1.8697    3.9999   10.0722 C   0  0  0  0  0  0  0  0  0  0  0  0
    2.5678    4.3578    8.9266 C   0  0  0  0  0  0  0  0  0  0  0  0
    3.4732    3.5194    8.3424 C   0  0  0  0  0  0  0  0  0  0  0  0
    3.6706    2.2979    8.9340 C   0  0  0  0  0  0  0  0  0  0  0  0
    2.9556    1.9374   10.1028 C   0  0  0  0  0  0  0  0  0  0  0  0
  1  2  1  0
  2  3  2  0
  2  4  1  0
  4  5  1  0
  5  6  1  0
  6  7  1  0
  7  8  2  0
  8  9  1  0
  9 10  1  0
 10 11  2  0
 11 12  1  0
 12 13  2  0
 13 14  1  0
 14 15  2  0
 13 16  1  0
 16 17  1  0
  8 18  1  0
 18 19  2  0
 19 20  1  0
 20 21  2  0
 21 22  1  0
 22 23  2  0
 11  7  1  0
 15 10  1  0
 23 18  1  0
M  END
$$$$
