
     RDKit          3D

 23 25  0  0  0  0  0  0  0  0999 V2000
    4.5923    4.0787   11.4025 C   0  0  0  0  0  0  0  0  0  0  0  0
    4.5025    2.6229   11.1123 C   0  0  0  0  0  0  0  0  0  0  0  0
    5.2562    2.1400   10.2350 O   0  0  0  0  0  0  0  0  0  0  0  0
    3.5892    1.7849   11.8039 N   0  0  0  0  0  0  0  0  0  0  0  0
    3.6393    0.3334   11.7244 C   0  0  0  0  0  0  0  0  0  0  0  0
    3.1768   -0.1433   10.3700 C   0  0  0  0  0  0  0  0  0  0  0  0
    1.7316   -0.3436   10.2486 C   0  0  0  0  0  0  0  0  0  0  0  0
    0.7499    0.4943    9.8233 C   0  0  0  0  0  0  0  0  0  0  0  0
   -0.4329   -0.1929    9.9230 N   0  0  0  0  0  0  0  0  0  0  0  0
   -0.2175   -1.4238   10.3936 C   0  0  0  0  0  0  0  0  0  0  0  0
    1.1124   -1.5542   10.6072 C   0  0  0  0  0  0  0  0  0  0  0  0
    1.5768   -2.7628   11.1004 C   0  0  0  0  0  0  0  0  0  0  0  0
    0.7320   -3.8172   11.3740 C   0  0  0  0  0  0  0  0  0  0  0  0
   -0.6175   -3.6563   11.1470 C   0  0  0  0  0  0  0  0  0  0  0  0
   -1.1261   -2.4627   10.6537 C   0  0  0  0  0  0  0  0  0  0  0  0
    1.2080   -5.0107   11.8630 O   0  0  0  0  0  0  0  0  0  0  0  0
    0.4051   -6.1492   12.0617 C   0  0  0  0  0  0  0  0  0  0  0  0
    0.8152    1.8788    9.3517 C   0  0  0  0  0  0  0  0  0  0  0  0
   -0.3448    2.6313    9.3426 C   0  0  0  0  0  0  0  0  0  0  0  0
   -0.3623    3.9441    8.8911 C   0  0  0  0  0  0  0  0  0  0  0  0
    0.7640    4.5637    8.4315 C   0  0  0  0  0  0  0  0  0  0  0  0
    1.9261    3.8352    8.4318 C   0  0  0  0  0  0  0  0  0  0  0  0
    1.9386    2.4957    8.8935 C   0  0  0  0  0  0  0  0  0  0  0  0
  1  2  1  0
  2  3  2  0
  2  4  1  0
  4  5  1  0
  5  6  1  0
  6  7  1  0
  7  8  2  0
  8  9  1  0
  9 10  1  0
 10 11  2  0
 11 12  1  0
 12 13  2  0
 13 14  1  0
 14 15  2  0
 13 16  1  0
 16 17  1  0
  8 18  1  0
 18 19  2  0
 19 20  1  0
 20 21  2  0
 21 22  1  0
 22 23  2  0
 11  7  1  0
 15 10  1  0
 23 18  1  0
M  END
$$$$
