
     RDKit          3D

 23 25  0  0  0  0  0  0  0  0999 V2000
   -1.4606    0.1160   13.3648 C   0  0  0  0  0  0  0  0  0  0  0  0
   -0.3404   -0.4969   12.6025 C   0  0  0  0  0  0  0  0  0  0  0  0
   -0.5476   -1.5747   11.9972 O   0  0  0  0  0  0  0  0  0  0  0  0
    0.9408    0.1117   12.5513 N   0  0  0  0  0  0  0  0  0  0  0  0
    2.0132   -0.3841   11.7028 C   0  0  0  0  0  0  0  0  0  0  0  0
    1.9004    0.1873   10.3112 C   0  0  0  0  0  0  0  0  0  0  0  0
    2.2975    1.5910   10.1884 C   0  0  0  0  0  0  0  0  0  0  0  0
    1.5544    2.7122    9.9949 C   0  0  0  0  0  0  0  0  0  0  0  0
    2.4295    3.7670    9.9405 N   0  0  0  0  0  0  0  0  0  0  0  0
    3.6848    3.3385   10.0935 C   0  0  0  0  0  0  0  0  0  0  0  0
    3.6431    1.9949   10.2499 C   0  0  0  0  0  0  0  0  0  0  0  0
    4.8418    1.3231   10.4277 C   0  0  0  0  0  0  0  0  0  0  0  0
    6.0544    1.9784   10.4489 C   0  0  0  0  0  0  0  0  0  0  0  0
    6.0668    3.3467   10.2872 C   0  0  0  0  0  0  0  0  0  0  0  0
    4.8898    4.0598   10.1061 C   0  0  0  0  0  0  0  0  0  0  0  0
    7.2356    1.2978   10.6267 O   0  0  0  0  0  0  0  0  0  0  0  0
    8.4786    1.9281   10.8211 C   0  0  0  0  0  0  0  0  0  0  0  0
    0.1088    2.8836    9.8389 C   0  0  0  0  0  0  0  0  0  0  0  0
   -0.3884    4.1558    9.6244 C   0  0  0  0  0  0  0  0  0  0  0  0
   -1.7489    4.3965    9.4867 C   0  0  0  0  0  0  0  0  0  0  0  0
   -2.6697    3.3910    9.5554 C   0  0  0  0  0  0  0  0  0  0  0  0
   -2.1978    2.1208    9.7677 C   0  0  0  0  0  0  0  0  0  0  0  0
   -0.8086    1.8805    9.9078 C   0  0  0  0  0  0  0  0  0  0  0  0
  1  2  1  0
  2  3  2  0
  2  4  1  0
  4  5  1  0
  5  6  1  0
  6  7  1  0
  7  8  2  0
  8  9  1  0
  9 10  1  0
 10 11  2  0
 11 12  1  0
 12 13  2  0
 13 14  1  0
 14 15  2  0
 13 16  1  0
 16 17  1  0
  8 18  1  0
 18 19  2  0
 19 20  1  0
 20 21  2  0
 21 22  1  0
 22 23  2  0
 11  7  1  0
 15 10  1  0
 23 18  1  0
M  END
$$$$
