
     RDKit          3D

 23 25  0  0  0  0  0  0  0  0999 V2000
    5.6276    0.5603   10.9947 C   0  0  0  0  0  0  0  0  0  0  0  0
    4.4591    1.0703   10.2292 C   0  0  0  0  0  0  0  0  0  0  0  0
    4.3476    2.3072   10.0608 O   0  0  0  0  0  0  0  0  0  0  0  0
    3.4826    0.1897    9.6946 N   0  0  0  0  0  0  0  0  0  0  0  0
    2.2789    0.6618    9.0285 C   0  0  0  0  0  0  0  0  0  0  0  0
    1.0458    0.1114    9.7009 C   0  0  0  0  0  0  0  0  0  0  0  0
    0.7874    0.6411   11.0410 C   0  0  0  0  0  0  0  0  0  0  0  0
    0.6336    1.9185   11.4785 C   0  0  0  0  0  0  0  0  0  0  0  0
    0.4243    1.8546   12.8325 N   0  0  0  0  0  0  0  0  0  0  0  0
    0.4428    0.5853   13.2468 C   0  0  0  0  0  0  0  0  0  0  0  0
    0.6653   -0.1960   12.1645 C   0  0  0  0  0  0  0  0  0  0  0  0
    0.7257   -1.5672   12.3533 C   0  0  0  0  0  0  0  0  0  0  0  0
    0.5674   -2.1449   13.5948 C   0  0  0  0  0  0  0  0  0  0  0  0
    0.3420   -1.3251   14.6791 C   0  0  0  0  0  0  0  0  0  0  0  0
    0.2741    0.0539   14.5358 C   0  0  0  0  0  0  0  0  0  0  0  0
    0.6297   -3.5076   13.7661 O   0  0  0  0  0  0  0  0  0  0  0  0
   -0.2357   -4.2292   14.6091 C   0  0  0  0  0  0  0  0  0  0  0  0
    0.6825    3.1884   10.7515 C   0  0  0  0  0  0  0  0  0  0  0  0
    1.2441    3.2076    9.4881 C   0  0  0  0  0  0  0  0  0  0  0  0
    1.3419    4.3783    8.7482 C   0  0  0  0  0  0  0  0  0  0  0  0
    0.8894    5.5740    9.2271 C   0  0  0  0  0  0  0  0  0  0  0  0
    0.3286    5.5775   10.4787 C   0  0  0  0  0  0  0  0  0  0  0  0
    0.2312    4.3800   11.2298 C   0  0  0  0  0  0  0  0  0  0  0  0
  1  2  1  0
  2  3  2  0
  2  4  1  0
  4  5  1  0
  5  6  1  0
  6  7  1  0
  7  8  2  0
  8  9  1  0
  9 10  1  0
 10 11  2  0
 11 12  1  0
 12 13  2  0
 13 14  1  0
 14 15  2  0
 13 16  1  0
 16 17  1  0
  8 18  1  0
 18 19  2  0
 19 20  1  0
 20 21  2  0
 21 22  1  0
 22 23  2  0
 11  7  1  0
 15 10  1  0
 23 18  1  0
M  END
$$$$
