
     RDKit          3D

 23 25  0  0  0  0  0  0  0  0999 V2000
   -0.5428   -4.0369   12.3455 C   0  0  0  0  0  0  0  0  0  0  0  0
    0.7369   -3.3058   12.1476 C   0  0  0  0  0  0  0  0  0  0  0  0
    1.7551   -3.9594   11.8207 O   0  0  0  0  0  0  0  0  0  0  0  0
    0.8209   -1.8995   12.3210 N   0  0  0  0  0  0  0  0  0  0  0  0
    2.0350   -1.1453   12.0512 C   0  0  0  0  0  0  0  0  0  0  0  0
    2.1967   -0.9058   10.5706 C   0  0  0  0  0  0  0  0  0  0  0  0
    2.0716    0.4928   10.1563 C   0  0  0  0  0  0  0  0  0  0  0  0
    0.9770    1.2307    9.8337 C   0  0  0  0  0  0  0  0  0  0  0  0
    1.4237    2.4849    9.5041 N   0  0  0  0  0  0  0  0  0  0  0  0
    2.7532    2.5485    9.6117 C   0  0  0  0  0  0  0  0  0  0  0  0
    3.1905    1.3326   10.0138 C   0  0  0  0  0  0  0  0  0  0  0  0
    4.5531    1.1587   10.1954 C   0  0  0  0  0  0  0  0  0  0  0  0
    5.4580    2.1760    9.9804 C   0  0  0  0  0  0  0  0  0  0  0  0
    4.9844    3.4036    9.5713 C   0  0  0  0  0  0  0  0  0  0  0  0
    3.6276    3.6222    9.3769 C   0  0  0  0  0  0  0  0  0  0  0  0
    6.8073    1.9880   10.1652 O   0  0  0  0  0  0  0  0  0  0  0  0
    7.6744    2.9818   10.6559 C   0  0  0  0  0  0  0  0  0  0  0  0
   -0.4401    0.8658    9.7884 C   0  0  0  0  0  0  0  0  0  0  0  0
   -0.7829   -0.4716    9.8636 C   0  0  0  0  0  0  0  0  0  0  0  0
   -2.1047   -0.8928    9.8076 C   0  0  0  0  0  0  0  0  0  0  0  0
   -3.1378   -0.0102    9.6752 C   0  0  0  0  0  0  0  0  0  0  0  0
   -2.8200    1.3218    9.5988 C   0  0  0  0  0  0  0  0  0  0  0  0
   -1.4695    1.7465    9.6562 C   0  0  0  0  0  0  0  0  0  0  0  0
  1  2  1  0
  2  3  2  0
  2  4  1  0
  4  5  1  0
  5  6  1  0
  6  7  1  0
  7  8  2  0
  8  9  1  0
  9 10  1  0
 10 11  2  0
 11 12  1  0
 12 13  2  0
 13 14  1  0
 14 15  2  0
 13 16  1  0
 16 17  1  0
  8 18  1  0
 18 19  2  0
 19 20  1  0
 20 21  2  0
 21 22  1  0
 22 23  2  0
 11  7  1  0
 15 10  1  0
 23 18  1  0
M  END
$$$$
