
     RDKit          3D

 23 25  0  0  0  0  0  0  0  0999 V2000
    4.7985    2.7843    8.0406 C   0  0  0  0  0  0  0  0  0  0  0  0
    4.7758    2.1785    9.3985 C   0  0  0  0  0  0  0  0  0  0  0  0
    5.8513    2.1015   10.0374 O   0  0  0  0  0  0  0  0  0  0  0  0
    3.5720    1.6934    9.9730 N   0  0  0  0  0  0  0  0  0  0  0  0
    3.5192    0.4899   10.7882 C   0  0  0  0  0  0  0  0  0  0  0  0
    2.3723    0.5573   11.7659 C   0  0  0  0  0  0  0  0  0  0  0  0
    1.0771    0.1420   11.2247 C   0  0  0  0  0  0  0  0  0  0  0  0
    0.0883    0.8617   10.6320 C   0  0  0  0  0  0  0  0  0  0  0  0
   -0.9171   -0.0189   10.3240 N   0  0  0  0  0  0  0  0  0  0  0  0
   -0.5855   -1.2553   10.7042 C   0  0  0  0  0  0  0  0  0  0  0  0
    0.6440   -1.1953   11.2666 C   0  0  0  0  0  0  0  0  0  0  0  0
    1.2008   -2.3722   11.7404 C   0  0  0  0  0  0  0  0  0  0  0  0
    0.5446   -3.5814   11.6544 C   0  0  0  0  0  0  0  0  0  0  0  0
   -0.7061   -3.6128   11.0770 C   0  0  0  0  0  0  0  0  0  0  0  0
   -1.3017   -2.4578   10.5892 C   0  0  0  0  0  0  0  0  0  0  0  0
    1.1105   -4.7410   12.1290 O   0  0  0  0  0  0  0  0  0  0  0  0
    0.4393   -5.9770   12.1717 C   0  0  0  0  0  0  0  0  0  0  0  0
   -0.0086    2.2942   10.3454 C   0  0  0  0  0  0  0  0  0  0  0  0
   -0.8755    2.7144    9.3537 C   0  0  0  0  0  0  0  0  0  0  0  0
   -1.0055    4.0545    9.0146 C   0  0  0  0  0  0  0  0  0  0  0  0
   -0.2850    5.0301    9.6412 C   0  0  0  0  0  0  0  0  0  0  0  0
    0.5812    4.6350   10.6285 C   0  0  0  0  0  0  0  0  0  0  0  0
    0.7103    3.2661   10.9707 C   0  0  0  0  0  0  0  0  0  0  0  0
  1  2  1  0
  2  3  2  0
  2  4  1  0
  4  5  1  0
  5  6  1  0
  6  7  1  0
  7  8  2  0
  8  9  1  0
  9 10  1  0
 10 11  2  0
 11 12  1  0
 12 13  2  0
 13 14  1  0
 14 15  2  0
 13 16  1  0
 16 17  1  0
  8 18  1  0
 18 19  2  0
 19 20  1  0
 20 21  2  0
 21 22  1  0
 22 23  2  0
 11  7  1  0
 15 10  1  0
 23 18  1  0
M  END
$$$$
