
     RDKit          3D

 23 25  0  0  0  0  0  0  0  0999 V2000
    5.5270    0.4034    8.5094 C   0  0  0  0  0  0  0  0  0  0  0  0
    4.8135    1.0668    9.6330 C   0  0  0  0  0  0  0  0  0  0  0  0
    5.3813    1.1297   10.7485 O   0  0  0  0  0  0  0  0  0  0  0  0
    3.5181    1.6215    9.4629 N   0  0  0  0  0  0  0  0  0  0  0  0
    2.7883    2.2608   10.5466 C   0  0  0  0  0  0  0  0  0  0  0  0
    2.1232    1.2293   11.4238 C   0  0  0  0  0  0  0  0  0  0  0  0
    0.8977    0.6498   10.8712 C   0  0  0  0  0  0  0  0  0  0  0  0
   -0.1351    1.2251   10.2011 C   0  0  0  0  0  0  0  0  0  0  0  0
   -1.0346    0.2281    9.9213 N   0  0  0  0  0  0  0  0  0  0  0  0
   -0.5951   -0.9410   10.3935 C   0  0  0  0  0  0  0  0  0  0  0  0
    0.5999   -0.7196   10.9888 C   0  0  0  0  0  0  0  0  0  0  0  0
    1.2537   -1.8007   11.5575 C   0  0  0  0  0  0  0  0  0  0  0  0
    0.7261   -3.0739   11.5320 C   0  0  0  0  0  0  0  0  0  0  0  0
   -0.4923   -3.2701   10.9191 C   0  0  0  0  0  0  0  0  0  0  0  0
   -1.1821   -2.2156   10.3368 C   0  0  0  0  0  0  0  0  0  0  0  0
    1.3871   -4.1369   12.1005 O   0  0  0  0  0  0  0  0  0  0  0  0
    0.7633   -5.3497   12.4471 C   0  0  0  0  0  0  0  0  0  0  0  0
   -0.3645    2.6190    9.8165 C   0  0  0  0  0  0  0  0  0  0  0  0
    0.6838    3.5151    9.9161 C   0  0  0  0  0  0  0  0  0  0  0  0
    0.5345    4.8558    9.5875 C   0  0  0  0  0  0  0  0  0  0  0  0
   -0.6546    5.3626    9.1483 C   0  0  0  0  0  0  0  0  0  0  0  0
   -1.7079    4.4906    9.0422 C   0  0  0  0  0  0  0  0  0  0  0  0
   -1.5505    3.1234    9.3789 C   0  0  0  0  0  0  0  0  0  0  0  0
  1  2  1  0
  2  3  2  0
  2  4  1  0
  4  5  1  0
  5  6  1  0
  6  7  1  0
  7  8  2  0
  8  9  1  0
  9 10  1  0
 10 11  2  0
 11 12  1  0
 12 13  2  0
 13 14  1  0
 14 15  2  0
 13 16  1  0
 16 17  1  0
  8 18  1  0
 18 19  2  0
 19 20  1  0
 20 21  2  0
 21 22  1  0
 22 23  2  0
 11  7  1  0
 15 10  1  0
 23 18  1  0
M  END
$$$$
