
     RDKit          3D

 23 25  0  0  0  0  0  0  0  0999 V2000
    7.1117    0.5714   10.5093 C   0  0  0  0  0  0  0  0  0  0  0  0
    5.8321    1.2285   10.1317 C   0  0  0  0  0  0  0  0  0  0  0  0
    5.8613    2.1544    9.2875 O   0  0  0  0  0  0  0  0  0  0  0  0
    4.5968    0.8283   10.7048 N   0  0  0  0  0  0  0  0  0  0  0  0
    3.3449    1.5175   10.4342 C   0  0  0  0  0  0  0  0  0  0  0  0
    2.2727    1.0753   11.3989 C   0  0  0  0  0  0  0  0  0  0  0  0
    1.0820    0.4977   10.7730 C   0  0  0  0  0  0  0  0  0  0  0  0
    0.1052    1.0705   10.0216 C   0  0  0  0  0  0  0  0  0  0  0  0
   -0.7842    0.0776    9.6985 N   0  0  0  0  0  0  0  0  0  0  0  0
   -0.3924   -1.0866   10.2222 C   0  0  0  0  0  0  0  0  0  0  0  0
    0.7607   -0.8659   10.8953 C   0  0  0  0  0  0  0  0  0  0  0  0
    1.3606   -1.9424   11.5285 C   0  0  0  0  0  0  0  0  0  0  0  0
    0.8212   -3.2103   11.4902 C   0  0  0  0  0  0  0  0  0  0  0  0
   -0.3538   -3.4058   10.7974 C   0  0  0  0  0  0  0  0  0  0  0  0
   -0.9888   -2.3559   10.1485 C   0  0  0  0  0  0  0  0  0  0  0  0
    1.4285   -4.2687   12.1235 O   0  0  0  0  0  0  0  0  0  0  0  0
    0.9404   -5.5879   12.0825 C   0  0  0  0  0  0  0  0  0  0  0  0
   -0.0806    2.4589    9.5958 C   0  0  0  0  0  0  0  0  0  0  0  0
    0.8699    3.3958    9.9572 C   0  0  0  0  0  0  0  0  0  0  0  0
    0.7500    4.7335    9.6054 C   0  0  0  0  0  0  0  0  0  0  0  0
   -0.3122    5.1970    8.8839 C   0  0  0  0  0  0  0  0  0  0  0  0
   -1.2670    4.2842    8.5149 C   0  0  0  0  0  0  0  0  0  0  0  0
   -1.1400    2.9201    8.8766 C   0  0  0  0  0  0  0  0  0  0  0  0
  1  2  1  0
  2  3  2  0
  2  4  1  0
  4  5  1  0
  5  6  1  0
  6  7  1  0
  7  8  2  0
  8  9  1  0
  9 10  1  0
 10 11  2  0
 11 12  1  0
 12 13  2  0
 13 14  1  0
 14 15  2  0
 13 16  1  0
 16 17  1  0
  8 18  1  0
 18 19  2  0
 19 20  1  0
 20 21  2  0
 21 22  1  0
 22 23  2  0
 11  7  1  0
 15 10  1  0
 23 18  1  0
M  END
$$$$
