
     RDKit          3D

 23 25  0  0  0  0  0  0  0  0999 V2000
   -0.3570    1.7720    7.7780 C   0  0  0  0  0  0  0  0  0  0  0  0
    1.1025    2.1014    7.9072 C   0  0  0  0  0  0  0  0  0  0  0  0
    1.5690    2.3976    9.0292 O   0  0  0  0  0  0  0  0  0  0  0  0
    1.9570    2.0809    6.7747 N   0  0  0  0  0  0  0  0  0  0  0  0
    3.3748    2.3628    6.8120 C   0  0  0  0  0  0  0  0  0  0  0  0
    3.7471    3.6082    6.0590 C   0  0  0  0  0  0  0  0  0  0  0  0
    3.5183    4.8591    6.7518 C   0  0  0  0  0  0  0  0  0  0  0  0
    2.4340    5.6806    6.7416 C   0  0  0  0  0  0  0  0  0  0  0  0
    2.7058    6.7436    7.5507 N   0  0  0  0  0  0  0  0  0  0  0  0
    3.9278    6.6189    8.0715 C   0  0  0  0  0  0  0  0  0  0  0  0
    4.4634    5.4614    7.5989 C   0  0  0  0  0  0  0  0  0  0  0  0
    5.7451    5.0796    7.9866 C   0  0  0  0  0  0  0  0  0  0  0  0
    6.4989    5.8473    8.8454 C   0  0  0  0  0  0  0  0  0  0  0  0
    5.9597    7.0192    9.3253 C   0  0  0  0  0  0  0  0  0  0  0  0
    4.6825    7.4098    8.9454 C   0  0  0  0  0  0  0  0  0  0  0  0
    7.7570    5.4528    9.2134 O   0  0  0  0  0  0  0  0  0  0  0  0
    8.6291    6.2535    9.9980 C   0  0  0  0  0  0  0  0  0  0  0  0
    1.1543    5.6015    6.0486 C   0  0  0  0  0  0  0  0  0  0  0  0
    0.7719    4.4262    5.4108 C   0  0  0  0  0  0  0  0  0  0  0  0
   -0.4166    4.2885    4.7293 C   0  0  0  0  0  0  0  0  0  0  0  0
   -1.2924    5.3448    4.6552 C   0  0  0  0  0  0  0  0  0  0  0  0
   -0.9610    6.5366    5.2718 C   0  0  0  0  0  0  0  0  0  0  0  0
    0.2631    6.6390    5.9591 C   0  0  0  0  0  0  0  0  0  0  0  0
  1  2  1  0
  2  3  2  0
  2  4  1  0
  4  5  1  0
  5  6  1  0
  6  7  1  0
  7  8  2  0
  8  9  1  0
  9 10  1  0
 10 11  2  0
 11 12  1  0
 12 13  2  0
 13 14  1  0
 14 15  2  0
 13 16  1  0
 16 17  1  0
  8 18  1  0
 18 19  2  0
 19 20  1  0
 20 21  2  0
 21 22  1  0
 22 23  2  0
 11  7  1  0
 15 10  1  0
 23 18  1  0
M  END
$$$$
