
     RDKit          3D

 23 25  0  0  0  0  0  0  0  0999 V2000
    6.1159    1.1306    6.9334 C   0  0  0  0  0  0  0  0  0  0  0  0
    5.4330    2.3592    7.4622 C   0  0  0  0  0  0  0  0  0  0  0  0
    5.6822    2.7492    8.6242 O   0  0  0  0  0  0  0  0  0  0  0  0
    4.5107    3.0816    6.6619 N   0  0  0  0  0  0  0  0  0  0  0  0
    3.7939    4.2596    7.0974 C   0  0  0  0  0  0  0  0  0  0  0  0
    2.7782    3.9689    8.1654 C   0  0  0  0  0  0  0  0  0  0  0  0
    1.5207    3.4142    7.7091 C   0  0  0  0  0  0  0  0  0  0  0  0
    0.5763    3.9451    6.8864 C   0  0  0  0  0  0  0  0  0  0  0  0
   -0.4333    3.0369    6.7662 N   0  0  0  0  0  0  0  0  0  0  0  0
   -0.1557    1.9491    7.4872 C   0  0  0  0  0  0  0  0  0  0  0  0
    1.0492    2.1460    8.0868 C   0  0  0  0  0  0  0  0  0  0  0  0
    1.5869    1.1577    8.9071 C   0  0  0  0  0  0  0  0  0  0  0  0
    0.9287   -0.0298    9.1341 C   0  0  0  0  0  0  0  0  0  0  0  0
   -0.2908   -0.2320    8.5288 C   0  0  0  0  0  0  0  0  0  0  0  0
   -0.8366    0.7467    7.7088 C   0  0  0  0  0  0  0  0  0  0  0  0
    1.4758   -0.9880    9.9444 O   0  0  0  0  0  0  0  0  0  0  0  0
    0.7028   -1.9377   10.6641 C   0  0  0  0  0  0  0  0  0  0  0  0
    0.4912    5.2243    6.1932 C   0  0  0  0  0  0  0  0  0  0  0  0
    1.6333    5.8115    5.6591 C   0  0  0  0  0  0  0  0  0  0  0  0
    1.6244    7.0223    5.0034 C   0  0  0  0  0  0  0  0  0  0  0  0
    0.4458    7.7124    4.8510 C   0  0  0  0  0  0  0  0  0  0  0  0
   -0.7192    7.1734    5.3635 C   0  0  0  0  0  0  0  0  0  0  0  0
   -0.6700    5.9333    6.0276 C   0  0  0  0  0  0  0  0  0  0  0  0
  1  2  1  0
  2  3  2  0
  2  4  1  0
  4  5  1  0
  5  6  1  0
  6  7  1  0
  7  8  2  0
  8  9  1  0
  9 10  1  0
 10 11  2  0
 11 12  1  0
 12 13  2  0
 13 14  1  0
 14 15  2  0
 13 16  1  0
 16 17  1  0
  8 18  1  0
 18 19  2  0
 19 20  1  0
 20 21  2  0
 21 22  1  0
 22 23  2  0
 11  7  1  0
 15 10  1  0
 23 18  1  0
M  END
$$$$
