
     RDKit          3D

 23 25  0  0  0  0  0  0  0  0999 V2000
    1.7179    0.5712    5.6103 C   0  0  0  0  0  0  0  0  0  0  0  0
    1.0441    1.9122    5.5552 C   0  0  0  0  0  0  0  0  0  0  0  0
    0.7022    2.3835    4.4483 O   0  0  0  0  0  0  0  0  0  0  0  0
    0.7911    2.6496    6.7407 N   0  0  0  0  0  0  0  0  0  0  0  0
    0.1518    3.9461    6.7792 C   0  0  0  0  0  0  0  0  0  0  0  0
    0.1459    4.5586    8.1510 C   0  0  0  0  0  0  0  0  0  0  0  0
    1.1434    5.5801    8.3925 C   0  0  0  0  0  0  0  0  0  0  0  0
    2.4644    5.6087    8.0685 C   0  0  0  0  0  0  0  0  0  0  0  0
    2.9813    6.7867    8.5196 N   0  0  0  0  0  0  0  0  0  0  0  0
    2.0280    7.5029    9.1182 C   0  0  0  0  0  0  0  0  0  0  0  0
    0.8731    6.7868    9.0591 C   0  0  0  0  0  0  0  0  0  0  0  0
   -0.2946    7.3044    9.6135 C   0  0  0  0  0  0  0  0  0  0  0  0
   -0.3183    8.5357   10.2286 C   0  0  0  0  0  0  0  0  0  0  0  0
    0.8488    9.2627   10.2901 C   0  0  0  0  0  0  0  0  0  0  0  0
    2.0192    8.7564    9.7407 C   0  0  0  0  0  0  0  0  0  0  0  0
   -1.4777    9.0254   10.7671 O   0  0  0  0  0  0  0  0  0  0  0  0
   -1.5136   10.0780   11.7200 C   0  0  0  0  0  0  0  0  0  0  0  0
    3.3244    4.6499    7.3864 C   0  0  0  0  0  0  0  0  0  0  0  0
    4.3112    5.0897    6.5105 C   0  0  0  0  0  0  0  0  0  0  0  0
    5.1485    4.2376    5.8260 C   0  0  0  0  0  0  0  0  0  0  0  0
    5.0312    2.8785    5.9924 C   0  0  0  0  0  0  0  0  0  0  0  0
    4.0661    2.3879    6.8517 C   0  0  0  0  0  0  0  0  0  0  0  0
    3.2287    3.2906    7.5338 C   0  0  0  0  0  0  0  0  0  0  0  0
  1  2  1  0
  2  3  2  0
  2  4  1  0
  4  5  1  0
  5  6  1  0
  6  7  1  0
  7  8  2  0
  8  9  1  0
  9 10  1  0
 10 11  2  0
 11 12  1  0
 12 13  2  0
 13 14  1  0
 14 15  2  0
 13 16  1  0
 16 17  1  0
  8 18  1  0
 18 19  2  0
 19 20  1  0
 20 21  2  0
 21 22  1  0
 22 23  2  0
 11  7  1  0
 15 10  1  0
 23 18  1  0
M  END
$$$$
