
     RDKit          3D

 23 25  0  0  0  0  0  0  0  0999 V2000
    5.6056    6.1806    5.5954 C   0  0  0  0  0  0  0  0  0  0  0  0
    4.8913    4.8658    5.7241 C   0  0  0  0  0  0  0  0  0  0  0  0
    4.0684    4.5246    4.8462 O   0  0  0  0  0  0  0  0  0  0  0  0
    5.1377    4.0077    6.8268 N   0  0  0  0  0  0  0  0  0  0  0  0
    4.3568    2.8321    7.1416 C   0  0  0  0  0  0  0  0  0  0  0  0
    3.3632    3.0636    8.2443 C   0  0  0  0  0  0  0  0  0  0  0  0
    2.0037    2.6479    7.9691 C   0  0  0  0  0  0  0  0  0  0  0  0
    0.9742    3.3361    7.4060 C   0  0  0  0  0  0  0  0  0  0  0  0
   -0.1112    2.5121    7.3704 N   0  0  0  0  0  0  0  0  0  0  0  0
    0.2008    1.3249    7.8934 C   0  0  0  0  0  0  0  0  0  0  0  0
    1.5053    1.3708    8.2761 C   0  0  0  0  0  0  0  0  0  0  0  0
    2.0982    0.2539    8.8589 C   0  0  0  0  0  0  0  0  0  0  0  0
    1.3964   -0.9126    9.0634 C   0  0  0  0  0  0  0  0  0  0  0  0
    0.0762   -0.9622    8.6773 C   0  0  0  0  0  0  0  0  0  0  0  0
   -0.5254    0.1457    8.0951 C   0  0  0  0  0  0  0  0  0  0  0  0
    1.9993   -1.9988    9.6383 O   0  0  0  0  0  0  0  0  0  0  0  0
    1.2791   -3.0691   10.2328 C   0  0  0  0  0  0  0  0  0  0  0  0
    0.8715    4.6979    6.8967 C   0  0  0  0  0  0  0  0  0  0  0  0
   -0.1306    5.0368    5.9938 C   0  0  0  0  0  0  0  0  0  0  0  0
   -0.2763    6.3001    5.4658 C   0  0  0  0  0  0  0  0  0  0  0  0
    0.5942    7.3003    5.8268 C   0  0  0  0  0  0  0  0  0  0  0  0
    1.6090    7.0169    6.7215 C   0  0  0  0  0  0  0  0  0  0  0  0
    1.7258    5.7133    7.2396 C   0  0  0  0  0  0  0  0  0  0  0  0
  1  2  1  0
  2  3  2  0
  2  4  1  0
  4  5  1  0
  5  6  1  0
  6  7  1  0
  7  8  2  0
  8  9  1  0
  9 10  1  0
 10 11  2  0
 11 12  1  0
 12 13  2  0
 13 14  1  0
 14 15  2  0
 13 16  1  0
 16 17  1  0
  8 18  1  0
 18 19  2  0
 19 20  1  0
 20 21  2  0
 21 22  1  0
 22 23  2  0
 11  7  1  0
 15 10  1  0
 23 18  1  0
M  END
$$$$
