
     RDKit          3D

 23 25  0  0  0  0  0  0  0  0999 V2000
   -0.3567    0.5547    7.0098 C   0  0  0  0  0  0  0  0  0  0  0  0
    0.5632    1.1229    8.0521 C   0  0  0  0  0  0  0  0  0  0  0  0
    1.7512    0.7349    8.1010 O   0  0  0  0  0  0  0  0  0  0  0  0
    0.1023    2.0922    8.9801 N   0  0  0  0  0  0  0  0  0  0  0  0
    0.9296    2.7261    9.9825 C   0  0  0  0  0  0  0  0  0  0  0  0
    1.7287    3.8782    9.4432 C   0  0  0  0  0  0  0  0  0  0  0  0
    1.0414    5.1513    9.3809 C   0  0  0  0  0  0  0  0  0  0  0  0
    0.9175    6.0304    8.3501 C   0  0  0  0  0  0  0  0  0  0  0  0
    0.1816    7.0906    8.7895 N   0  0  0  0  0  0  0  0  0  0  0  0
   -0.1630    6.9083   10.0655 C   0  0  0  0  0  0  0  0  0  0  0  0
    0.3524    5.7154   10.4674 C   0  0  0  0  0  0  0  0  0  0  0  0
    0.1417    5.2710   11.7700 C   0  0  0  0  0  0  0  0  0  0  0  0
   -0.5821    6.0109   12.6777 C   0  0  0  0  0  0  0  0  0  0  0  0
   -1.1048    7.2185   12.2740 C   0  0  0  0  0  0  0  0  0  0  0  0
   -0.9009    7.6716   10.9774 C   0  0  0  0  0  0  0  0  0  0  0  0
   -0.7769    5.5547   13.9536 O   0  0  0  0  0  0  0  0  0  0  0  0
   -1.5283    6.2612   14.9301 C   0  0  0  0  0  0  0  0  0  0  0  0
    1.4193    6.0094    6.9819 C   0  0  0  0  0  0  0  0  0  0  0  0
    2.4139    5.1105    6.6118 C   0  0  0  0  0  0  0  0  0  0  0  0
    2.9397    5.0464    5.3408 C   0  0  0  0  0  0  0  0  0  0  0  0
    2.4824    5.8984    4.3644 C   0  0  0  0  0  0  0  0  0  0  0  0
    1.4941    6.8120    4.6792 C   0  0  0  0  0  0  0  0  0  0  0  0
    0.9814    6.8474    5.9896 C   0  0  0  0  0  0  0  0  0  0  0  0
  1  2  1  0
  2  3  2  0
  2  4  1  0
  4  5  1  0
  5  6  1  0
  6  7  1  0
  7  8  2  0
  8  9  1  0
  9 10  1  0
 10 11  2  0
 11 12  1  0
 12 13  2  0
 13 14  1  0
 14 15  2  0
 13 16  1  0
 16 17  1  0
  8 18  1  0
 18 19  2  0
 19 20  1  0
 20 21  2  0
 21 22  1  0
 22 23  2  0
 11  7  1  0
 15 10  1  0
 23 18  1  0
M  END
$$$$
