
     RDKit          3D

 23 25  0  0  0  0  0  0  0  0999 V2000
    5.6925    5.8456    9.3686 C   0  0  0  0  0  0  0  0  0  0  0  0
    4.5508    5.6579    8.4111 C   0  0  0  0  0  0  0  0  0  0  0  0
    3.8698    6.6482    8.0647 O   0  0  0  0  0  0  0  0  0  0  0  0
    4.2355    4.3741    7.8959 N   0  0  0  0  0  0  0  0  0  0  0  0
    4.4312    3.9716    6.5209 C   0  0  0  0  0  0  0  0  0  0  0  0
    3.6233    2.7635    6.1408 C   0  0  0  0  0  0  0  0  0  0  0  0
    2.3328    2.6365    6.7854 C   0  0  0  0  0  0  0  0  0  0  0  0
    1.2289    3.4269    6.6991 C   0  0  0  0  0  0  0  0  0  0  0  0
    0.2668    2.8924    7.5035 N   0  0  0  0  0  0  0  0  0  0  0  0
    0.7286    1.7892    8.0950 C   0  0  0  0  0  0  0  0  0  0  0  0
    2.0077    1.5980    7.6738 C   0  0  0  0  0  0  0  0  0  0  0  0
    2.7367    0.5067    8.1391 C   0  0  0  0  0  0  0  0  0  0  0  0
    2.1967   -0.3982    9.0247 C   0  0  0  0  0  0  0  0  0  0  0  0
    0.9025   -0.2074    9.4529 C   0  0  0  0  0  0  0  0  0  0  0  0
    0.1662    0.8774    8.9955 C   0  0  0  0  0  0  0  0  0  0  0  0
    2.9315   -1.4642    9.4694 O   0  0  0  0  0  0  0  0  0  0  0  0
    2.4207   -2.4514   10.3537 C   0  0  0  0  0  0  0  0  0  0  0  0
    0.9579    4.6493    5.9532 C   0  0  0  0  0  0  0  0  0  0  0  0
   -0.3497    5.0095    5.6453 C   0  0  0  0  0  0  0  0  0  0  0  0
   -0.6738    6.1434    4.9346 C   0  0  0  0  0  0  0  0  0  0  0  0
    0.3192    6.9838    4.4916 C   0  0  0  0  0  0  0  0  0  0  0  0
    1.6367    6.6723    4.7703 C   0  0  0  0  0  0  0  0  0  0  0  0
    1.9284    5.5042    5.4995 C   0  0  0  0  0  0  0  0  0  0  0  0
  1  2  1  0
  2  3  2  0
  2  4  1  0
  4  5  1  0
  5  6  1  0
  6  7  1  0
  7  8  2  0
  8  9  1  0
  9 10  1  0
 10 11  2  0
 11 12  1  0
 12 13  2  0
 13 14  1  0
 14 15  2  0
 13 16  1  0
 16 17  1  0
  8 18  1  0
 18 19  2  0
 19 20  1  0
 20 21  2  0
 21 22  1  0
 22 23  2  0
 11  7  1  0
 15 10  1  0
 23 18  1  0
M  END
$$$$
