
     RDKit          3D

 23 25  0  0  0  0  0  0  0  0999 V2000
    4.9512    4.0971    6.3996 C   0  0  0  0  0  0  0  0  0  0  0  0
    3.7802    3.4214    7.0536 C   0  0  0  0  0  0  0  0  0  0  0  0
    3.2097    2.4757    6.4668 O   0  0  0  0  0  0  0  0  0  0  0  0
    3.3140    3.8418    8.3260 N   0  0  0  0  0  0  0  0  0  0  0  0
    2.1572    3.2928    8.9979 C   0  0  0  0  0  0  0  0  0  0  0  0
    0.8571    3.7756    8.4205 C   0  0  0  0  0  0  0  0  0  0  0  0
    0.4916    5.1405    8.7375 C   0  0  0  0  0  0  0  0  0  0  0  0
    0.4962    6.2530    7.9545 C   0  0  0  0  0  0  0  0  0  0  0  0
    0.0747    7.3028    8.7152 N   0  0  0  0  0  0  0  0  0  0  0  0
   -0.1960    6.8879    9.9541 C   0  0  0  0  0  0  0  0  0  0  0  0
    0.0506    5.5512   10.0064 C   0  0  0  0  0  0  0  0  0  0  0  0
   -0.1510    4.8534   11.1943 C   0  0  0  0  0  0  0  0  0  0  0  0
   -0.5985    5.4819   12.3344 C   0  0  0  0  0  0  0  0  0  0  0  0
   -0.8488    6.8344   12.2847 C   0  0  0  0  0  0  0  0  0  0  0  0
   -0.6512    7.5404   11.1054 C   0  0  0  0  0  0  0  0  0  0  0  0
   -0.7898    4.7763   13.4918 O   0  0  0  0  0  0  0  0  0  0  0  0
   -1.6726    5.1920   14.5239 C   0  0  0  0  0  0  0  0  0  0  0  0
    0.8627    6.4652    6.5599 C   0  0  0  0  0  0  0  0  0  0  0  0
    0.4821    7.6304    5.9027 C   0  0  0  0  0  0  0  0  0  0  0  0
    0.7852    7.8878    4.5845 C   0  0  0  0  0  0  0  0  0  0  0  0
    1.4978    6.9696    3.8514 C   0  0  0  0  0  0  0  0  0  0  0  0
    1.9007    5.7940    4.4565 C   0  0  0  0  0  0  0  0  0  0  0  0
    1.5718    5.5666    5.8061 C   0  0  0  0  0  0  0  0  0  0  0  0
  1  2  1  0
  2  3  2  0
  2  4  1  0
  4  5  1  0
  5  6  1  0
  6  7  1  0
  7  8  2  0
  8  9  1  0
  9 10  1  0
 10 11  2  0
 11 12  1  0
 12 13  2  0
 13 14  1  0
 14 15  2  0
 13 16  1  0
 16 17  1  0
  8 18  1  0
 18 19  2  0
 19 20  1  0
 20 21  2  0
 21 22  1  0
 22 23  2  0
 11  7  1  0
 15 10  1  0
 23 18  1  0
M  END
$$$$
