
     RDKit          3D

 23 25  0  0  0  0  0  0  0  0999 V2000
    4.0777    4.4352    3.9128 C   0  0  0  0  0  0  0  0  0  0  0  0
    4.6095    3.4666    4.9299 C   0  0  0  0  0  0  0  0  0  0  0  0
    5.5170    2.6699    4.6045 O   0  0  0  0  0  0  0  0  0  0  0  0
    4.0962    3.4441    6.2525 N   0  0  0  0  0  0  0  0  0  0  0  0
    4.6742    2.6916    7.3437 C   0  0  0  0  0  0  0  0  0  0  0  0
    3.9996    2.9521    8.6604 C   0  0  0  0  0  0  0  0  0  0  0  0
    2.6500    2.4437    8.7918 C   0  0  0  0  0  0  0  0  0  0  0  0
    1.4562    3.0742    8.6244 C   0  0  0  0  0  0  0  0  0  0  0  0
    0.4663    2.1696    8.8699 N   0  0  0  0  0  0  0  0  0  0  0  0
    0.9978    0.9876    9.1869 C   0  0  0  0  0  0  0  0  0  0  0  0
    2.3512    1.1183    9.1489 C   0  0  0  0  0  0  0  0  0  0  0  0
    3.1634    0.0256    9.4406 C   0  0  0  0  0  0  0  0  0  0  0  0
    2.6330   -1.2009    9.7711 C   0  0  0  0  0  0  0  0  0  0  0  0
    1.2639   -1.3364    9.8105 C   0  0  0  0  0  0  0  0  0  0  0  0
    0.4442   -0.2535    9.5215 C   0  0  0  0  0  0  0  0  0  0  0  0
    3.4503   -2.2620   10.0543 O   0  0  0  0  0  0  0  0  0  0  0  0
    2.9938   -3.4580   10.6695 C   0  0  0  0  0  0  0  0  0  0  0  0
    1.1169    4.4460    8.2675 C   0  0  0  0  0  0  0  0  0  0  0  0
    2.1070    5.3292    7.8507 C   0  0  0  0  0  0  0  0  0  0  0  0
    1.8563    6.6397    7.5107 C   0  0  0  0  0  0  0  0  0  0  0  0
    0.5754    7.1332    7.5750 C   0  0  0  0  0  0  0  0  0  0  0  0
   -0.4468    6.2971    7.9835 C   0  0  0  0  0  0  0  0  0  0  0  0
   -0.1511    4.9635    8.3230 C   0  0  0  0  0  0  0  0  0  0  0  0
  1  2  1  0
  2  3  2  0
  2  4  1  0
  4  5  1  0
  5  6  1  0
  6  7  1  0
  7  8  2  0
  8  9  1  0
  9 10  1  0
 10 11  2  0
 11 12  1  0
 12 13  2  0
 13 14  1  0
 14 15  2  0
 13 16  1  0
 16 17  1  0
  8 18  1  0
 18 19  2  0
 19 20  1  0
 20 21  2  0
 21 22  1  0
 22 23  2  0
 11  7  1  0
 15 10  1  0
 23 18  1  0
M  END
$$$$
