
     RDKit          3D

 23 25  0  0  0  0  0  0  0  0999 V2000
    1.0755    4.7200   12.4178 C   0  0  0  0  0  0  0  0  0  0  0  0
    2.0231    3.8109   11.6890 C   0  0  0  0  0  0  0  0  0  0  0  0
    3.2412    3.8386   11.9711 O   0  0  0  0  0  0  0  0  0  0  0  0
    1.5546    2.9230   10.6864 N   0  0  0  0  0  0  0  0  0  0  0  0
    2.3915    1.9999    9.9524 C   0  0  0  0  0  0  0  0  0  0  0  0
    3.0114    2.6130    8.7290 C   0  0  0  0  0  0  0  0  0  0  0  0
    2.0864    3.1018    7.7278 C   0  0  0  0  0  0  0  0  0  0  0  0
    0.9940    2.5052    7.1788 C   0  0  0  0  0  0  0  0  0  0  0  0
    0.4563    3.3688    6.2714 N   0  0  0  0  0  0  0  0  0  0  0  0
    1.1750    4.4922    6.2304 C   0  0  0  0  0  0  0  0  0  0  0  0
    2.1953    4.3640    7.1208 C   0  0  0  0  0  0  0  0  0  0  0  0
    3.1091    5.4016    7.2847 C   0  0  0  0  0  0  0  0  0  0  0  0
    3.0119    6.5705    6.5641 C   0  0  0  0  0  0  0  0  0  0  0  0
    1.9806    6.7033    5.6622 C   0  0  0  0  0  0  0  0  0  0  0  0
    1.0635    5.6749    5.4905 C   0  0  0  0  0  0  0  0  0  0  0  0
    3.9215    7.5780    6.7412 O   0  0  0  0  0  0  0  0  0  0  0  0
    3.5924    8.9558    6.6366 C   0  0  0  0  0  0  0  0  0  0  0  0
    0.3832    1.1991    7.3914 C   0  0  0  0  0  0  0  0  0  0  0  0
   -0.6038    0.7358    6.5280 C   0  0  0  0  0  0  0  0  0  0  0  0
   -1.2289   -0.4818    6.6786 C   0  0  0  0  0  0  0  0  0  0  0  0
   -0.8853   -1.3059    7.7232 C   0  0  0  0  0  0  0  0  0  0  0  0
    0.0903   -0.8934    8.6113 C   0  0  0  0  0  0  0  0  0  0  0  0
    0.7066    0.3581    8.4243 C   0  0  0  0  0  0  0  0  0  0  0  0
  1  2  1  0
  2  3  2  0
  2  4  1  0
  4  5  1  0
  5  6  1  0
  6  7  1  0
  7  8  2  0
  8  9  1  0
  9 10  1  0
 10 11  2  0
 11 12  1  0
 12 13  2  0
 13 14  1  0
 14 15  2  0
 13 16  1  0
 16 17  1  0
  8 18  1  0
 18 19  2  0
 19 20  1  0
 20 21  2  0
 21 22  1  0
 22 23  2  0
 11  7  1  0
 15 10  1  0
 23 18  1  0
M  END
$$$$
