
     RDKit          3D

 23 25  0  0  0  0  0  0  0  0999 V2000
    5.5570    5.6764    7.5121 C   0  0  0  0  0  0  0  0  0  0  0  0
    5.0080    4.5784    6.6470 C   0  0  0  0  0  0  0  0  0  0  0  0
    5.3292    4.5284    5.4393 O   0  0  0  0  0  0  0  0  0  0  0  0
    4.1313    3.5991    7.1814 N   0  0  0  0  0  0  0  0  0  0  0  0
    3.5507    2.5154    6.4203 C   0  0  0  0  0  0  0  0  0  0  0  0
    2.0672    2.3859    6.6187 C   0  0  0  0  0  0  0  0  0  0  0  0
    1.5504    2.8862    7.8755 C   0  0  0  0  0  0  0  0  0  0  0  0
    1.2064    4.1510    8.2398 C   0  0  0  0  0  0  0  0  0  0  0  0
    0.7800    4.1131    9.5340 N   0  0  0  0  0  0  0  0  0  0  0  0
    0.8439    2.8639    9.9983 C   0  0  0  0  0  0  0  0  0  0  0  0
    1.3175    2.0737    8.9975 C   0  0  0  0  0  0  0  0  0  0  0  0
    1.4851    0.7081    9.2106 C   0  0  0  0  0  0  0  0  0  0  0  0
    1.1827    0.1230   10.4195 C   0  0  0  0  0  0  0  0  0  0  0  0
    0.7035    0.9199   11.4342 C   0  0  0  0  0  0  0  0  0  0  0  0
    0.5323    2.2831   11.2329 C   0  0  0  0  0  0  0  0  0  0  0  0
    1.3553   -1.2220   10.6072 O   0  0  0  0  0  0  0  0  0  0  0  0
    0.6188   -1.9797   11.5563 C   0  0  0  0  0  0  0  0  0  0  0  0
    1.2367    5.4180    7.5200 C   0  0  0  0  0  0  0  0  0  0  0  0
    0.7358    6.5736    8.1099 C   0  0  0  0  0  0  0  0  0  0  0  0
    0.7236    7.7986    7.4813 C   0  0  0  0  0  0  0  0  0  0  0  0
    1.2232    7.9220    6.2071 C   0  0  0  0  0  0  0  0  0  0  0  0
    1.7334    6.8039    5.5745 C   0  0  0  0  0  0  0  0  0  0  0  0
    1.7285    5.5688    6.2495 C   0  0  0  0  0  0  0  0  0  0  0  0
  1  2  1  0
  2  3  2  0
  2  4  1  0
  4  5  1  0
  5  6  1  0
  6  7  1  0
  7  8  2  0
  8  9  1  0
  9 10  1  0
 10 11  2  0
 11 12  1  0
 12 13  2  0
 13 14  1  0
 14 15  2  0
 13 16  1  0
 16 17  1  0
  8 18  1  0
 18 19  2  0
 19 20  1  0
 20 21  2  0
 21 22  1  0
 22 23  2  0
 11  7  1  0
 15 10  1  0
 23 18  1  0
M  END
$$$$
