
     RDKit          3D

 23 25  0  0  0  0  0  0  0  0999 V2000
   -1.1229    7.7422    5.8963 C   0  0  0  0  0  0  0  0  0  0  0  0
    0.1319    6.9665    6.1779 C   0  0  0  0  0  0  0  0  0  0  0  0
    0.2737    5.8262    5.6841 O   0  0  0  0  0  0  0  0  0  0  0  0
    1.1563    7.5099    6.9955 N   0  0  0  0  0  0  0  0  0  0  0  0
    2.4164    6.8574    7.2734 C   0  0  0  0  0  0  0  0  0  0  0  0
    2.4595    6.2148    8.6306 C   0  0  0  0  0  0  0  0  0  0  0  0
    2.0362    4.8312    8.6898 C   0  0  0  0  0  0  0  0  0  0  0  0
    2.5158    3.7396    8.0348 C   0  0  0  0  0  0  0  0  0  0  0  0
    1.7772    2.6609    8.4210 N   0  0  0  0  0  0  0  0  0  0  0  0
    0.8462    3.0372    9.2995 C   0  0  0  0  0  0  0  0  0  0  0  0
    0.9757    4.3775    9.4916 C   0  0  0  0  0  0  0  0  0  0  0  0
    0.1216    5.0393   10.3699 C   0  0  0  0  0  0  0  0  0  0  0  0
   -0.8642    4.3710   11.0603 C   0  0  0  0  0  0  0  0  0  0  0  0
   -0.9978    3.0147   10.8679 C   0  0  0  0  0  0  0  0  0  0  0  0
   -0.1517    2.3444    9.9945 C   0  0  0  0  0  0  0  0  0  0  0  0
   -1.6930    5.0417   11.9189 O   0  0  0  0  0  0  0  0  0  0  0  0
   -2.8381    4.4537   12.5192 C   0  0  0  0  0  0  0  0  0  0  0  0
    3.5920    3.5759    7.0656 C   0  0  0  0  0  0  0  0  0  0  0  0
    4.4064    2.4491    7.1033 C   0  0  0  0  0  0  0  0  0  0  0  0
    5.4464    2.2387    6.2258 C   0  0  0  0  0  0  0  0  0  0  0  0
    5.7219    3.1678    5.2515 C   0  0  0  0  0  0  0  0  0  0  0  0
    4.9428    4.3066    5.1698 C   0  0  0  0  0  0  0  0  0  0  0  0
    3.8884    4.4863    6.0849 C   0  0  0  0  0  0  0  0  0  0  0  0
  1  2  1  0
  2  3  2  0
  2  4  1  0
  4  5  1  0
  5  6  1  0
  6  7  1  0
  7  8  2  0
  8  9  1  0
  9 10  1  0
 10 11  2  0
 11 12  1  0
 12 13  2  0
 13 14  1  0
 14 15  2  0
 13 16  1  0
 16 17  1  0
  8 18  1  0
 18 19  2  0
 19 20  1  0
 20 21  2  0
 21 22  1  0
 22 23  2  0
 11  7  1  0
 15 10  1  0
 23 18  1  0
M  END
$$$$
