
     RDKit          3D

 23 25  0  0  0  0  0  0  0  0999 V2000
    4.8284    5.1590    4.9206 C   0  0  0  0  0  0  0  0  0  0  0  0
    4.7427    4.6417    6.3279 C   0  0  0  0  0  0  0  0  0  0  0  0
    5.0439    5.3955    7.2794 O   0  0  0  0  0  0  0  0  0  0  0  0
    4.3253    3.3115    6.5909 N   0  0  0  0  0  0  0  0  0  0  0  0
    4.1529    2.7524    7.9133 C   0  0  0  0  0  0  0  0  0  0  0  0
    2.8683    3.1747    8.5677 C   0  0  0  0  0  0  0  0  0  0  0  0
    1.6601    2.5847    8.0300 C   0  0  0  0  0  0  0  0  0  0  0  0
    0.6975    3.1284    7.2373 C   0  0  0  0  0  0  0  0  0  0  0  0
   -0.2458    2.1715    7.0071 N   0  0  0  0  0  0  0  0  0  0  0  0
    0.0911    1.0406    7.6297 C   0  0  0  0  0  0  0  0  0  0  0  0
    1.2684    1.2581    8.2753 C   0  0  0  0  0  0  0  0  0  0  0  0
    1.8562    0.2335    9.0125 C   0  0  0  0  0  0  0  0  0  0  0  0
    1.2757   -1.0108    9.1107 C   0  0  0  0  0  0  0  0  0  0  0  0
    0.0843   -1.2340    8.4586 C   0  0  0  0  0  0  0  0  0  0  0  0
   -0.5109   -0.2196    7.7205 C   0  0  0  0  0  0  0  0  0  0  0  0
    1.8711   -2.0037    9.8411 O   0  0  0  0  0  0  0  0  0  0  0  0
    1.3402   -3.3162    9.9548 C   0  0  0  0  0  0  0  0  0  0  0  0
    0.5392    4.4594    6.6650 C   0  0  0  0  0  0  0  0  0  0  0  0
    1.4179    5.4812    7.0087 C   0  0  0  0  0  0  0  0  0  0  0  0
    1.3176    6.7623    6.5141 C   0  0  0  0  0  0  0  0  0  0  0  0
    0.3111    7.0826    5.6350 C   0  0  0  0  0  0  0  0  0  0  0  0
   -0.5900    6.1038    5.2602 C   0  0  0  0  0  0  0  0  0  0  0  0
   -0.4549    4.8056    5.7873 C   0  0  0  0  0  0  0  0  0  0  0  0
  1  2  1  0
  2  3  2  0
  2  4  1  0
  4  5  1  0
  5  6  1  0
  6  7  1  0
  7  8  2  0
  8  9  1  0
  9 10  1  0
 10 11  2  0
 11 12  1  0
 12 13  2  0
 13 14  1  0
 14 15  2  0
 13 16  1  0
 16 17  1  0
  8 18  1  0
 18 19  2  0
 19 20  1  0
 20 21  2  0
 21 22  1  0
 22 23  2  0
 11  7  1  0
 15 10  1  0
 23 18  1  0
M  END
$$$$
