
     RDKit          3D

 23 25  0  0  0  0  0  0  0  0999 V2000
    4.5700    0.1298    4.9809 C   0  0  0  0  0  0  0  0  0  0  0  0
    4.5409    1.5035    5.5873 C   0  0  0  0  0  0  0  0  0  0  0  0
    5.6160    2.0593    5.9027 O   0  0  0  0  0  0  0  0  0  0  0  0
    3.3115    2.1771    5.8064 N   0  0  0  0  0  0  0  0  0  0  0  0
    3.1954    3.5573    6.2220 C   0  0  0  0  0  0  0  0  0  0  0  0
    3.2684    3.7311    7.7124 C   0  0  0  0  0  0  0  0  0  0  0  0
    1.9992    3.7644    8.4088 C   0  0  0  0  0  0  0  0  0  0  0  0
    1.0642    4.7501    8.4790 C   0  0  0  0  0  0  0  0  0  0  0  0
    0.0446    4.3053    9.2671 N   0  0  0  0  0  0  0  0  0  0  0  0
    0.3066    3.0695    9.6966 C   0  0  0  0  0  0  0  0  0  0  0  0
    1.5112    2.6997    9.1845 C   0  0  0  0  0  0  0  0  0  0  0  0
    2.0334    1.4422    9.4754 C   0  0  0  0  0  0  0  0  0  0  0  0
    1.3599    0.5478   10.2763 C   0  0  0  0  0  0  0  0  0  0  0  0
    0.1407    0.9191   10.7961 C   0  0  0  0  0  0  0  0  0  0  0  0
   -0.3897    2.1707   10.5127 C   0  0  0  0  0  0  0  0  0  0  0  0
    1.8920   -0.6836   10.5494 O   0  0  0  0  0  0  0  0  0  0  0  0
    1.4500   -1.5064   11.6194 C   0  0  0  0  0  0  0  0  0  0  0  0
    1.0071    6.0863    7.8998 C   0  0  0  0  0  0  0  0  0  0  0  0
    1.9204    6.4685    6.9231 C   0  0  0  0  0  0  0  0  0  0  0  0
    1.9290    7.7177    6.3440 C   0  0  0  0  0  0  0  0  0  0  0  0
    1.0035    8.6587    6.7265 C   0  0  0  0  0  0  0  0  0  0  0  0
    0.0726    8.3306    7.6941 C   0  0  0  0  0  0  0  0  0  0  0  0
    0.0956    7.0433    8.2630 C   0  0  0  0  0  0  0  0  0  0  0  0
  1  2  1  0
  2  3  2  0
  2  4  1  0
  4  5  1  0
  5  6  1  0
  6  7  1  0
  7  8  2  0
  8  9  1  0
  9 10  1  0
 10 11  2  0
 11 12  1  0
 12 13  2  0
 13 14  1  0
 14 15  2  0
 13 16  1  0
 16 17  1  0
  8 18  1  0
 18 19  2  0
 19 20  1  0
 20 21  2  0
 21 22  1  0
 22 23  2  0
 11  7  1  0
 15 10  1  0
 23 18  1  0
M  END
$$$$
