
     RDKit          3D

 23 25  0  0  0  0  0  0  0  0999 V2000
    0.4758    6.6881    6.3973 C   0  0  0  0  0  0  0  0  0  0  0  0
    0.5212    6.4146    7.8733 C   0  0  0  0  0  0  0  0  0  0  0  0
    0.9496    7.2971    8.6492 O   0  0  0  0  0  0  0  0  0  0  0  0
    0.0852    5.1704    8.3975 N   0  0  0  0  0  0  0  0  0  0  0  0
    0.3995    4.6833    9.7223 C   0  0  0  0  0  0  0  0  0  0  0  0
    1.7579    4.0478    9.8087 C   0  0  0  0  0  0  0  0  0  0  0  0
    1.9417    2.8387    9.0333 C   0  0  0  0  0  0  0  0  0  0  0  0
    2.5803    2.6471    7.8475 C   0  0  0  0  0  0  0  0  0  0  0  0
    2.4720    1.3278    7.5214 N   0  0  0  0  0  0  0  0  0  0  0  0
    1.7850    0.6804    8.4643 C   0  0  0  0  0  0  0  0  0  0  0  0
    1.4390    1.5850    9.4194 C   0  0  0  0  0  0  0  0  0  0  0  0
    0.7088    1.1758   10.5320 C   0  0  0  0  0  0  0  0  0  0  0  0
    0.3199   -0.1341   10.6992 C   0  0  0  0  0  0  0  0  0  0  0  0
    0.6684   -1.0518    9.7344 C   0  0  0  0  0  0  0  0  0  0  0  0
    1.3965   -0.6549    8.6206 C   0  0  0  0  0  0  0  0  0  0  0  0
   -0.3978   -0.5146   11.8010 O   0  0  0  0  0  0  0  0  0  0  0  0
   -0.6593   -1.8704   12.1338 C   0  0  0  0  0  0  0  0  0  0  0  0
    3.2838    3.5618    6.9572 C   0  0  0  0  0  0  0  0  0  0  0  0
    4.1019    3.0685    5.9463 C   0  0  0  0  0  0  0  0  0  0  0  0
    4.8029    3.8768    5.0795 C   0  0  0  0  0  0  0  0  0  0  0  0
    4.7131    5.2436    5.1900 C   0  0  0  0  0  0  0  0  0  0  0  0
    3.9135    5.7864    6.1782 C   0  0  0  0  0  0  0  0  0  0  0  0
    3.2123    4.9276    7.0455 C   0  0  0  0  0  0  0  0  0  0  0  0
  1  2  1  0
  2  3  2  0
  2  4  1  0
  4  5  1  0
  5  6  1  0
  6  7  1  0
  7  8  2  0
  8  9  1  0
  9 10  1  0
 10 11  2  0
 11 12  1  0
 12 13  2  0
 13 14  1  0
 14 15  2  0
 13 16  1  0
 16 17  1  0
  8 18  1  0
 18 19  2  0
 19 20  1  0
 20 21  2  0
 21 22  1  0
 22 23  2  0
 11  7  1  0
 15 10  1  0
 23 18  1  0
M  END
$$$$
