
     RDKit          3D

 23 25  0  0  0  0  0  0  0  0999 V2000
   -0.6836    0.9609    7.9724 C   0  0  0  0  0  0  0  0  0  0  0  0
    0.1564    1.7662    8.9218 C   0  0  0  0  0  0  0  0  0  0  0  0
    1.0655    1.2016    9.5691 O   0  0  0  0  0  0  0  0  0  0  0  0
   -0.0679    3.1567    9.0932 N   0  0  0  0  0  0  0  0  0  0  0  0
    0.8316    4.0534    9.7844 C   0  0  0  0  0  0  0  0  0  0  0  0
    2.1728    4.1705    9.1179 C   0  0  0  0  0  0  0  0  0  0  0  0
    2.2906    5.2027    8.1092 C   0  0  0  0  0  0  0  0  0  0  0  0
    1.5887    6.3573    7.9512 C   0  0  0  0  0  0  0  0  0  0  0  0
    2.0675    6.9907    6.8430 N   0  0  0  0  0  0  0  0  0  0  0  0
    3.0498    6.2721    6.2964 C   0  0  0  0  0  0  0  0  0  0  0  0
    3.2172    5.1552    7.0544 C   0  0  0  0  0  0  0  0  0  0  0  0
    4.1884    4.2195    6.7081 C   0  0  0  0  0  0  0  0  0  0  0  0
    4.9966    4.3908    5.6069 C   0  0  0  0  0  0  0  0  0  0  0  0
    4.8296    5.5200    4.8378 C   0  0  0  0  0  0  0  0  0  0  0  0
    3.8642    6.4598    5.1738 C   0  0  0  0  0  0  0  0  0  0  0  0
    5.9452    3.4579    5.2847 O   0  0  0  0  0  0  0  0  0  0  0  0
    6.4715    3.2982    3.9752 C   0  0  0  0  0  0  0  0  0  0  0  0
    0.4976    6.9501    8.7143 C   0  0  0  0  0  0  0  0  0  0  0  0
   -0.3422    6.1477    9.4792 C   0  0  0  0  0  0  0  0  0  0  0  0
   -1.3972    6.6418   10.2132 C   0  0  0  0  0  0  0  0  0  0  0  0
   -1.6626    7.9901   10.2129 C   0  0  0  0  0  0  0  0  0  0  0  0
   -0.8583    8.8328    9.4690 C   0  0  0  0  0  0  0  0  0  0  0  0
    0.2108    8.2903    8.7313 C   0  0  0  0  0  0  0  0  0  0  0  0
  1  2  1  0
  2  3  2  0
  2  4  1  0
  4  5  1  0
  5  6  1  0
  6  7  1  0
  7  8  2  0
  8  9  1  0
  9 10  1  0
 10 11  2  0
 11 12  1  0
 12 13  2  0
 13 14  1  0
 14 15  2  0
 13 16  1  0
 16 17  1  0
  8 18  1  0
 18 19  2  0
 19 20  1  0
 20 21  2  0
 21 22  1  0
 22 23  2  0
 11  7  1  0
 15 10  1  0
 23 18  1  0
M  END
$$$$
