
     RDKit          3D

 23 25  0  0  0  0  0  0  0  0999 V2000
    3.3463    3.2961    3.9065 C   0  0  0  0  0  0  0  0  0  0  0  0
    3.0262    4.2876    4.9881 C   0  0  0  0  0  0  0  0  0  0  0  0
    1.9098    4.8513    4.9946 O   0  0  0  0  0  0  0  0  0  0  0  0
    3.9725    4.5922    6.0005 N   0  0  0  0  0  0  0  0  0  0  0  0
    3.8152    5.6439    6.9803 C   0  0  0  0  0  0  0  0  0  0  0  0
    3.4528    5.1282    8.3440 C   0  0  0  0  0  0  0  0  0  0  0  0
    2.0427    5.1455    8.6732 C   0  0  0  0  0  0  0  0  0  0  0  0
    1.1574    4.1190    8.7882 C   0  0  0  0  0  0  0  0  0  0  0  0
   -0.0579    4.6474    9.1079 N   0  0  0  0  0  0  0  0  0  0  0  0
    0.0324    5.9755    9.1984 C   0  0  0  0  0  0  0  0  0  0  0  0
    1.3211    6.3219    8.9352 C   0  0  0  0  0  0  0  0  0  0  0  0
    1.6999    7.6615    8.9620 C   0  0  0  0  0  0  0  0  0  0  0  0
    0.7988    8.6615    9.2505 C   0  0  0  0  0  0  0  0  0  0  0  0
   -0.5061    8.3141    9.5171 C   0  0  0  0  0  0  0  0  0  0  0  0
   -0.8950    6.9813    9.4932 C   0  0  0  0  0  0  0  0  0  0  0  0
    1.1929    9.9723    9.2714 O   0  0  0  0  0  0  0  0  0  0  0  0
    0.8218   10.8840   10.2953 C   0  0  0  0  0  0  0  0  0  0  0  0
    1.3043    2.6784    8.6230 C   0  0  0  0  0  0  0  0  0  0  0  0
    2.5585    2.1211    8.3975 C   0  0  0  0  0  0  0  0  0  0  0  0
    2.7650    0.7711    8.2216 C   0  0  0  0  0  0  0  0  0  0  0  0
    1.7013   -0.0979    8.2646 C   0  0  0  0  0  0  0  0  0  0  0  0
    0.4325    0.4038    8.4857 C   0  0  0  0  0  0  0  0  0  0  0  0
    0.2613    1.7899    8.6610 C   0  0  0  0  0  0  0  0  0  0  0  0
  1  2  1  0
  2  3  2  0
  2  4  1  0
  4  5  1  0
  5  6  1  0
  6  7  1  0
  7  8  2  0
  8  9  1  0
  9 10  1  0
 10 11  2  0
 11 12  1  0
 12 13  2  0
 13 14  1  0
 14 15  2  0
 13 16  1  0
 16 17  1  0
  8 18  1  0
 18 19  2  0
 19 20  1  0
 20 21  2  0
 21 22  1  0
 22 23  2  0
 11  7  1  0
 15 10  1  0
 23 18  1  0
M  END
$$$$
