
     RDKit          3D

 23 25  0  0  0  0  0  0  0  0999 V2000
    5.3785    6.2009    6.4560 C   0  0  0  0  0  0  0  0  0  0  0  0
    5.1234    4.7372    6.2373 C   0  0  0  0  0  0  0  0  0  0  0  0
    5.5548    4.1860    5.2008 O   0  0  0  0  0  0  0  0  0  0  0  0
    4.4006    3.9734    7.1899 N   0  0  0  0  0  0  0  0  0  0  0  0
    4.0930    2.5673    7.0505 C   0  0  0  0  0  0  0  0  0  0  0  0
    2.6337    2.3055    6.8083 C   0  0  0  0  0  0  0  0  0  0  0  0
    1.7495    2.5685    7.9246 C   0  0  0  0  0  0  0  0  0  0  0  0
    1.0600    3.6954    8.2493 C   0  0  0  0  0  0  0  0  0  0  0  0
    0.3728    3.4493    9.4006 N   0  0  0  0  0  0  0  0  0  0  0  0
    0.6068    2.2021    9.8130 C   0  0  0  0  0  0  0  0  0  0  0  0
    1.4568    1.6239    8.9223 C   0  0  0  0  0  0  0  0  0  0  0  0
    1.8716    0.3083    9.1111 C   0  0  0  0  0  0  0  0  0  0  0  0
    1.4429   -0.4373   10.1859 C   0  0  0  0  0  0  0  0  0  0  0  0
    0.5828    0.1450   11.0891 C   0  0  0  0  0  0  0  0  0  0  0  0
    0.1626    1.4564   10.9109 C   0  0  0  0  0  0  0  0  0  0  0  0
    1.8635   -1.7294   10.3521 O   0  0  0  0  0  0  0  0  0  0  0  0
    1.0738   -2.7352   10.9703 C   0  0  0  0  0  0  0  0  0  0  0  0
    0.9690    5.0032    7.6125 C   0  0  0  0  0  0  0  0  0  0  0  0
    1.2717    5.1505    6.2630 C   0  0  0  0  0  0  0  0  0  0  0  0
    1.2173    6.3581    5.6038 C   0  0  0  0  0  0  0  0  0  0  0  0
    0.8497    7.4952    6.2821 C   0  0  0  0  0  0  0  0  0  0  0  0
    0.5384    7.4047    7.6258 C   0  0  0  0  0  0  0  0  0  0  0  0
    0.6057    6.1524    8.2651 C   0  0  0  0  0  0  0  0  0  0  0  0
  1  2  1  0
  2  3  2  0
  2  4  1  0
  4  5  1  0
  5  6  1  0
  6  7  1  0
  7  8  2  0
  8  9  1  0
  9 10  1  0
 10 11  2  0
 11 12  1  0
 12 13  2  0
 13 14  1  0
 14 15  2  0
 13 16  1  0
 16 17  1  0
  8 18  1  0
 18 19  2  0
 19 20  1  0
 20 21  2  0
 21 22  1  0
 22 23  2  0
 11  7  1  0
 15 10  1  0
 23 18  1  0
M  END
$$$$
