
     RDKit          3D

 23 25  0  0  0  0  0  0  0  0999 V2000
   -0.7226    0.2138   10.6116 C   0  0  0  0  0  0  0  0  0  0  0  0
   -0.0641    1.1740    9.6630 C   0  0  0  0  0  0  0  0  0  0  0  0
   -0.7351    1.6817    8.7376 O   0  0  0  0  0  0  0  0  0  0  0  0
    1.3068    1.5117    9.8032 N   0  0  0  0  0  0  0  0  0  0  0  0
    2.0273    2.3997    8.9180 C   0  0  0  0  0  0  0  0  0  0  0  0
    2.3682    3.7166    9.5555 C   0  0  0  0  0  0  0  0  0  0  0  0
    1.7520    4.8853    8.9625 C   0  0  0  0  0  0  0  0  0  0  0  0
    2.0209    5.5164    7.7877 C   0  0  0  0  0  0  0  0  0  0  0  0
    1.1727    6.5781    7.6786 N   0  0  0  0  0  0  0  0  0  0  0  0
    0.3766    6.6370    8.7477 C   0  0  0  0  0  0  0  0  0  0  0  0
    0.7062    5.6025    9.5670 C   0  0  0  0  0  0  0  0  0  0  0  0
    0.0249    5.4229   10.7679 C   0  0  0  0  0  0  0  0  0  0  0  0
   -0.9866    6.2710   11.1585 C   0  0  0  0  0  0  0  0  0  0  0  0
   -1.3225    7.3188   10.3316 C   0  0  0  0  0  0  0  0  0  0  0  0
   -0.6497    7.5075    9.1317 C   0  0  0  0  0  0  0  0  0  0  0  0
   -1.6433    6.0758   12.3437 O   0  0  0  0  0  0  0  0  0  0  0  0
   -2.2731    7.1214   13.0700 C   0  0  0  0  0  0  0  0  0  0  0  0
    2.9975    5.2538    6.7382 C   0  0  0  0  0  0  0  0  0  0  0  0
    3.4639    3.9619    6.5195 C   0  0  0  0  0  0  0  0  0  0  0  0
    4.3938    3.6476    5.5539 C   0  0  0  0  0  0  0  0  0  0  0  0
    4.9080    4.6348    4.7480 C   0  0  0  0  0  0  0  0  0  0  0  0
    4.4783    5.9368    4.9235 C   0  0  0  0  0  0  0  0  0  0  0  0
    3.5265    6.2190    5.9214 C   0  0  0  0  0  0  0  0  0  0  0  0
  1  2  1  0
  2  3  2  0
  2  4  1  0
  4  5  1  0
  5  6  1  0
  6  7  1  0
  7  8  2  0
  8  9  1  0
  9 10  1  0
 10 11  2  0
 11 12  1  0
 12 13  2  0
 13 14  1  0
 14 15  2  0
 13 16  1  0
 16 17  1  0
  8 18  1  0
 18 19  2  0
 19 20  1  0
 20 21  2  0
 21 22  1  0
 22 23  2  0
 11  7  1  0
 15 10  1  0
 23 18  1  0
M  END
$$$$
