
     RDKit          3D

 23 25  0  0  0  0  0  0  0  0999 V2000
    1.0595    6.9297    8.5011 C   0  0  0  0  0  0  0  0  0  0  0  0
    0.7651    6.3458    7.1491 C   0  0  0  0  0  0  0  0  0  0  0  0
    0.8875    7.0612    6.1305 O   0  0  0  0  0  0  0  0  0  0  0  0
    0.3505    4.9957    7.0132 N   0  0  0  0  0  0  0  0  0  0  0  0
    0.1041    4.3368    5.7498 C   0  0  0  0  0  0  0  0  0  0  0  0
    0.9577    3.1176    5.5457 C   0  0  0  0  0  0  0  0  0  0  0  0
    1.6596    2.6331    6.7160 C   0  0  0  0  0  0  0  0  0  0  0  0
    2.8620    3.0046    7.2326 C   0  0  0  0  0  0  0  0  0  0  0  0
    3.0936    2.2473    8.3422 N   0  0  0  0  0  0  0  0  0  0  0  0
    2.0749    1.4092    8.5425 C   0  0  0  0  0  0  0  0  0  0  0  0
    1.1651    1.6193    7.5533 C   0  0  0  0  0  0  0  0  0  0  0  0
   -0.0091    0.8718    7.5191 C   0  0  0  0  0  0  0  0  0  0  0  0
   -0.2831   -0.0870    8.4680 C   0  0  0  0  0  0  0  0  0  0  0  0
    0.6356   -0.3020    9.4702 C   0  0  0  0  0  0  0  0  0  0  0  0
    1.8100    0.4375    9.5142 C   0  0  0  0  0  0  0  0  0  0  0  0
   -1.4440   -0.8105    8.4152 O   0  0  0  0  0  0  0  0  0  0  0  0
   -1.5615   -2.1373    8.9082 C   0  0  0  0  0  0  0  0  0  0  0  0
    3.8469    3.9903    6.8052 C   0  0  0  0  0  0  0  0  0  0  0  0
    3.4535    5.1049    6.0723 C   0  0  0  0  0  0  0  0  0  0  0  0
    4.3334    6.0664    5.6283 C   0  0  0  0  0  0  0  0  0  0  0  0
    5.6745    5.9508    5.9049 C   0  0  0  0  0  0  0  0  0  0  0  0
    6.1191    4.8615    6.6303 C   0  0  0  0  0  0  0  0  0  0  0  0
    5.1893    3.8992    7.0669 C   0  0  0  0  0  0  0  0  0  0  0  0
  1  2  1  0
  2  3  2  0
  2  4  1  0
  4  5  1  0
  5  6  1  0
  6  7  1  0
  7  8  2  0
  8  9  1  0
  9 10  1  0
 10 11  2  0
 11 12  1  0
 12 13  2  0
 13 14  1  0
 14 15  2  0
 13 16  1  0
 16 17  1  0
  8 18  1  0
 18 19  2  0
 19 20  1  0
 20 21  2  0
 21 22  1  0
 22 23  2  0
 11  7  1  0
 15 10  1  0
 23 18  1  0
M  END
$$$$
