
     RDKit          3D

 23 25  0  0  0  0  0  0  0  0999 V2000
    3.8200    0.3423    8.5994 C   0  0  0  0  0  0  0  0  0  0  0  0
    3.0012    1.3080    7.7917 C   0  0  0  0  0  0  0  0  0  0  0  0
    3.5729    2.2360    7.1784 O   0  0  0  0  0  0  0  0  0  0  0  0
    1.5901    1.1810    7.7159 N   0  0  0  0  0  0  0  0  0  0  0  0
    0.7289    2.0494    6.9444 C   0  0  0  0  0  0  0  0  0  0  0  0
   -0.2854    2.7707    7.7857 C   0  0  0  0  0  0  0  0  0  0  0  0
    0.2390    3.7763    8.6861 C   0  0  0  0  0  0  0  0  0  0  0  0
    0.7637    5.0028    8.4196 C   0  0  0  0  0  0  0  0  0  0  0  0
    1.1266    5.5701    9.6050 N   0  0  0  0  0  0  0  0  0  0  0  0
    0.8472    4.7401   10.6116 C   0  0  0  0  0  0  0  0  0  0  0  0
    0.2950    3.6161   10.0807 C   0  0  0  0  0  0  0  0  0  0  0  0
   -0.0964    2.5730   10.9158 C   0  0  0  0  0  0  0  0  0  0  0  0
    0.0598    2.6435   12.2816 C   0  0  0  0  0  0  0  0  0  0  0  0
    0.6184    3.7795   12.8220 C   0  0  0  0  0  0  0  0  0  0  0  0
    1.0124    4.8260   11.9987 C   0  0  0  0  0  0  0  0  0  0  0  0
   -0.3320    1.6059   13.0840 O   0  0  0  0  0  0  0  0  0  0  0  0
   -1.0065    1.7858   14.3210 C   0  0  0  0  0  0  0  0  0  0  0  0
    0.9834    5.7217    7.1710 C   0  0  0  0  0  0  0  0  0  0  0  0
    1.1122    7.1065    7.1705 C   0  0  0  0  0  0  0  0  0  0  0  0
    1.3092    7.8467    6.0264 C   0  0  0  0  0  0  0  0  0  0  0  0
    1.3874    7.2186    4.8066 C   0  0  0  0  0  0  0  0  0  0  0  0
    1.2656    5.8429    4.7506 C   0  0  0  0  0  0  0  0  0  0  0  0
    1.0649    5.1205    5.9419 C   0  0  0  0  0  0  0  0  0  0  0  0
  1  2  1  0
  2  3  2  0
  2  4  1  0
  4  5  1  0
  5  6  1  0
  6  7  1  0
  7  8  2  0
  8  9  1  0
  9 10  1  0
 10 11  2  0
 11 12  1  0
 12 13  2  0
 13 14  1  0
 14 15  2  0
 13 16  1  0
 16 17  1  0
  8 18  1  0
 18 19  2  0
 19 20  1  0
 20 21  2  0
 21 22  1  0
 22 23  2  0
 11  7  1  0
 15 10  1  0
 23 18  1  0
M  END
$$$$
