
     RDKit          3D

 23 25  0  0  0  0  0  0  0  0999 V2000
    6.7047    5.1729    6.7044 C   0  0  0  0  0  0  0  0  0  0  0  0
    5.5621    4.3347    6.2070 C   0  0  0  0  0  0  0  0  0  0  0  0
    5.4147    4.1641    4.9768 O   0  0  0  0  0  0  0  0  0  0  0  0
    4.6496    3.7354    7.1133 N   0  0  0  0  0  0  0  0  0  0  0  0
    3.4671    3.0013    6.7211 C   0  0  0  0  0  0  0  0  0  0  0  0
    2.2279    3.8502    6.6993 C   0  0  0  0  0  0  0  0  0  0  0  0
    1.6282    4.1283    7.9877 C   0  0  0  0  0  0  0  0  0  0  0  0
    1.4812    3.3266    9.0769 C   0  0  0  0  0  0  0  0  0  0  0  0
    0.8436    4.0458   10.0437 N   0  0  0  0  0  0  0  0  0  0  0  0
    0.5835    5.2765    9.5990 C   0  0  0  0  0  0  0  0  0  0  0  0
    1.0557    5.3656    8.3265 C   0  0  0  0  0  0  0  0  0  0  0  0
    0.9167    6.5546    7.6154 C   0  0  0  0  0  0  0  0  0  0  0  0
    0.3077    7.6592    8.1667 C   0  0  0  0  0  0  0  0  0  0  0  0
   -0.1713    7.5722    9.4541 C   0  0  0  0  0  0  0  0  0  0  0  0
   -0.0382    6.3915   10.1727 C   0  0  0  0  0  0  0  0  0  0  0  0
    0.1816    8.8182    7.4494 O   0  0  0  0  0  0  0  0  0  0  0  0
    0.9990    9.1397    6.3331 C   0  0  0  0  0  0  0  0  0  0  0  0
    1.8593    1.9419    9.3296 C   0  0  0  0  0  0  0  0  0  0  0  0
    1.4727    1.3115   10.5075 C   0  0  0  0  0  0  0  0  0  0  0  0
    1.8058    0.0109   10.8130 C   0  0  0  0  0  0  0  0  0  0  0  0
    2.5570   -0.7307    9.9331 C   0  0  0  0  0  0  0  0  0  0  0  0
    2.9678   -0.1520    8.7470 C   0  0  0  0  0  0  0  0  0  0  0  0
    2.6075    1.1802    8.4701 C   0  0  0  0  0  0  0  0  0  0  0  0
  1  2  1  0
  2  3  2  0
  2  4  1  0
  4  5  1  0
  5  6  1  0
  6  7  1  0
  7  8  2  0
  8  9  1  0
  9 10  1  0
 10 11  2  0
 11 12  1  0
 12 13  2  0
 13 14  1  0
 14 15  2  0
 13 16  1  0
 16 17  1  0
  8 18  1  0
 18 19  2  0
 19 20  1  0
 20 21  2  0
 21 22  1  0
 22 23  2  0
 11  7  1  0
 15 10  1  0
 23 18  1  0
M  END
$$$$
