
     RDKit          3D

 23 25  0  0  0  0  0  0  0  0999 V2000
    4.1466    4.9433    4.4142 C   0  0  0  0  0  0  0  0  0  0  0  0
    4.6359    4.4096    5.7299 C   0  0  0  0  0  0  0  0  0  0  0  0
    5.3889    5.1142    6.4376 O   0  0  0  0  0  0  0  0  0  0  0  0
    4.2555    3.1187    6.1793 N   0  0  0  0  0  0  0  0  0  0  0  0
    4.5105    2.6042    7.5064 C   0  0  0  0  0  0  0  0  0  0  0  0
    3.5783    3.1632    8.5433 C   0  0  0  0  0  0  0  0  0  0  0  0
    2.1715    2.8807    8.3482 C   0  0  0  0  0  0  0  0  0  0  0  0
    1.1702    3.6855    7.9005 C   0  0  0  0  0  0  0  0  0  0  0  0
    0.0164    2.9594    7.9019 N   0  0  0  0  0  0  0  0  0  0  0  0
    0.2579    1.7212    8.3364 C   0  0  0  0  0  0  0  0  0  0  0  0
    1.5847    1.6342    8.6230 C   0  0  0  0  0  0  0  0  0  0  0  0
    2.1156    0.4387    9.1000 C   0  0  0  0  0  0  0  0  0  0  0  0
    1.3295   -0.6746    9.2937 C   0  0  0  0  0  0  0  0  0  0  0  0
   -0.0136   -0.5897    9.0046 C   0  0  0  0  0  0  0  0  0  0  0  0
   -0.5539    0.5975    8.5285 C   0  0  0  0  0  0  0  0  0  0  0  0
    1.8724   -1.8400    9.7637 O   0  0  0  0  0  0  0  0  0  0  0  0
    1.2253   -2.6780   10.7105 C   0  0  0  0  0  0  0  0  0  0  0  0
    1.1531    5.0788    7.4733 C   0  0  0  0  0  0  0  0  0  0  0  0
    2.1626    5.9486    7.8719 C   0  0  0  0  0  0  0  0  0  0  0  0
    2.2000    7.2776    7.5139 C   0  0  0  0  0  0  0  0  0  0  0  0
    1.2065    7.8046    6.7243 C   0  0  0  0  0  0  0  0  0  0  0  0
    0.1788    6.9833    6.3003 C   0  0  0  0  0  0  0  0  0  0  0  0
    0.1751    5.6299    6.6870 C   0  0  0  0  0  0  0  0  0  0  0  0
  1  2  1  0
  2  3  2  0
  2  4  1  0
  4  5  1  0
  5  6  1  0
  6  7  1  0
  7  8  2  0
  8  9  1  0
  9 10  1  0
 10 11  2  0
 11 12  1  0
 12 13  2  0
 13 14  1  0
 14 15  2  0
 13 16  1  0
 16 17  1  0
  8 18  1  0
 18 19  2  0
 19 20  1  0
 20 21  2  0
 21 22  1  0
 22 23  2  0
 11  7  1  0
 15 10  1  0
 23 18  1  0
M  END
$$$$
