
     RDKit          3D

 23 25  0  0  0  0  0  0  0  0999 V2000
    5.2781    5.6973    5.3066 C   0  0  0  0  0  0  0  0  0  0  0  0
    5.3299    4.7937    6.5051 C   0  0  0  0  0  0  0  0  0  0  0  0
    5.9378    5.1685    7.5319 O   0  0  0  0  0  0  0  0  0  0  0  0
    4.6992    3.5229    6.4872 N   0  0  0  0  0  0  0  0  0  0  0  0
    4.5797    2.6504    7.6341 C   0  0  0  0  0  0  0  0  0  0  0  0
    3.4369    3.0186    8.5370 C   0  0  0  0  0  0  0  0  0  0  0  0
    2.1236    2.5898    8.1030 C   0  0  0  0  0  0  0  0  0  0  0  0
    1.1549    3.2735    7.4361 C   0  0  0  0  0  0  0  0  0  0  0  0
    0.0926    2.4362    7.2657 N   0  0  0  0  0  0  0  0  0  0  0  0
    0.3604    1.2451    7.8041 C   0  0  0  0  0  0  0  0  0  0  0  0
    1.6121    1.3019    8.3334 C   0  0  0  0  0  0  0  0  0  0  0  0
    2.1511    0.1837    8.9643 C   0  0  0  0  0  0  0  0  0  0  0  0
    1.4477   -0.9947    9.0712 C   0  0  0  0  0  0  0  0  0  0  0  0
    0.1808   -1.0553    8.5367 C   0  0  0  0  0  0  0  0  0  0  0  0
   -0.3668    0.0537    7.9053 C   0  0  0  0  0  0  0  0  0  0  0  0
    1.9970   -2.0819    9.6958 O   0  0  0  0  0  0  0  0  0  0  0  0
    1.2252   -3.0946   10.3253 C   0  0  0  0  0  0  0  0  0  0  0  0
    1.0909    4.6415    6.9375 C   0  0  0  0  0  0  0  0  0  0  0  0
    0.0491    5.0386    6.1061 C   0  0  0  0  0  0  0  0  0  0  0  0
   -0.0642    6.3107    5.5916 C   0  0  0  0  0  0  0  0  0  0  0  0
    0.8814    7.2608    5.8939 C   0  0  0  0  0  0  0  0  0  0  0  0
    1.9384    6.9186    6.7162 C   0  0  0  0  0  0  0  0  0  0  0  0
    2.0201    5.6079    7.2228 C   0  0  0  0  0  0  0  0  0  0  0  0
  1  2  1  0
  2  3  2  0
  2  4  1  0
  4  5  1  0
  5  6  1  0
  6  7  1  0
  7  8  2  0
  8  9  1  0
  9 10  1  0
 10 11  2  0
 11 12  1  0
 12 13  2  0
 13 14  1  0
 14 15  2  0
 13 16  1  0
 16 17  1  0
  8 18  1  0
 18 19  2  0
 19 20  1  0
 20 21  2  0
 21 22  1  0
 22 23  2  0
 11  7  1  0
 15 10  1  0
 23 18  1  0
M  END
$$$$
