
     RDKit          3D

 23 25  0  0  0  0  0  0  0  0999 V2000
    2.0401    1.4270    9.1241 C   0  0  0  0  0  0  0  0  0  0  0  0
    1.0566    2.4223    8.5786 C   0  0  0  0  0  0  0  0  0  0  0  0
    0.1437    2.8528    9.3172 O   0  0  0  0  0  0  0  0  0  0  0  0
    1.1498    2.8792    7.2386 N   0  0  0  0  0  0  0  0  0  0  0  0
    0.2500    3.8363    6.6341 C   0  0  0  0  0  0  0  0  0  0  0  0
    0.9296    5.1181    6.2445 C   0  0  0  0  0  0  0  0  0  0  0  0
    1.5916    5.8345    7.3149 C   0  0  0  0  0  0  0  0  0  0  0  0
    2.9118    5.9074    7.6347 C   0  0  0  0  0  0  0  0  0  0  0  0
    3.0332    6.7027    8.7352 N   0  0  0  0  0  0  0  0  0  0  0  0
    1.8308    7.1344    9.1202 C   0  0  0  0  0  0  0  0  0  0  0  0
    0.9107    6.6165    8.2627 C   0  0  0  0  0  0  0  0  0  0  0  0
   -0.4399    6.9092    8.4329 C   0  0  0  0  0  0  0  0  0  0  0  0
   -0.8805    7.7177    9.4561 C   0  0  0  0  0  0  0  0  0  0  0  0
    0.0481    8.2432   10.3256 C   0  0  0  0  0  0  0  0  0  0  0  0
    1.3976    7.9580   10.1654 C   0  0  0  0  0  0  0  0  0  0  0  0
   -2.2134    7.9923    9.6049 O   0  0  0  0  0  0  0  0  0  0  0  0
   -2.7127    8.9892   10.4849 C   0  0  0  0  0  0  0  0  0  0  0  0
    4.0972    5.3066    7.0362 C   0  0  0  0  0  0  0  0  0  0  0  0
    4.0347    4.7437    5.7660 C   0  0  0  0  0  0  0  0  0  0  0  0
    5.1130    4.1505    5.1484 C   0  0  0  0  0  0  0  0  0  0  0  0
    6.3268    4.0941    5.7902 C   0  0  0  0  0  0  0  0  0  0  0  0
    6.4437    4.6388    7.0552 C   0  0  0  0  0  0  0  0  0  0  0  0
    5.3188    5.2367    7.6539 C   0  0  0  0  0  0  0  0  0  0  0  0
  1  2  1  0
  2  3  2  0
  2  4  1  0
  4  5  1  0
  5  6  1  0
  6  7  1  0
  7  8  2  0
  8  9  1  0
  9 10  1  0
 10 11  2  0
 11 12  1  0
 12 13  2  0
 13 14  1  0
 14 15  2  0
 13 16  1  0
 16 17  1  0
  8 18  1  0
 18 19  2  0
 19 20  1  0
 20 21  2  0
 21 22  1  0
 22 23  2  0
 11  7  1  0
 15 10  1  0
 23 18  1  0
M  END
$$$$
