
     RDKit          3D

 23 25  0  0  0  0  0  0  0  0999 V2000
    5.7438    3.8082    7.3210 C   0  0  0  0  0  0  0  0  0  0  0  0
    4.5866    4.4536    6.6140 C   0  0  0  0  0  0  0  0  0  0  0  0
    4.6440    5.6686    6.3230 O   0  0  0  0  0  0  0  0  0  0  0  0
    3.4314    3.7037    6.2727 N   0  0  0  0  0  0  0  0  0  0  0  0
    2.2479    4.2572    5.6530 C   0  0  0  0  0  0  0  0  0  0  0  0
    0.9806    3.8875    6.3700 C   0  0  0  0  0  0  0  0  0  0  0  0
    0.9666    4.1313    7.7973 C   0  0  0  0  0  0  0  0  0  0  0  0
    0.9646    3.2529    8.8361 C   0  0  0  0  0  0  0  0  0  0  0  0
    0.9399    3.9725    9.9937 N   0  0  0  0  0  0  0  0  0  0  0  0
    0.9263    5.2779    9.7183 C   0  0  0  0  0  0  0  0  0  0  0  0
    0.9423    5.4160    8.3652 C   0  0  0  0  0  0  0  0  0  0  0  0
    0.9337    6.6868    7.7962 C   0  0  0  0  0  0  0  0  0  0  0  0
    0.9091    7.8248    8.5704 C   0  0  0  0  0  0  0  0  0  0  0  0
    0.8927    7.6884    9.9399 C   0  0  0  0  0  0  0  0  0  0  0  0
    0.9011    6.4260   10.5182 C   0  0  0  0  0  0  0  0  0  0  0  0
    0.9009    9.0645    7.9898 O   0  0  0  0  0  0  0  0  0  0  0  0
    0.3478   10.2154    8.6119 C   0  0  0  0  0  0  0  0  0  0  0  0
    0.9721    1.7962    8.8844 C   0  0  0  0  0  0  0  0  0  0  0  0
    0.7818    1.0536    7.7239 C   0  0  0  0  0  0  0  0  0  0  0  0
    0.7659   -0.3231    7.7019 C   0  0  0  0  0  0  0  0  0  0  0  0
    0.9436   -1.0309    8.8663 C   0  0  0  0  0  0  0  0  0  0  0  0
    1.1367   -0.3415   10.0486 C   0  0  0  0  0  0  0  0  0  0  0  0
    1.1465    1.0659   10.0310 C   0  0  0  0  0  0  0  0  0  0  0  0
  1  2  1  0
  2  3  2  0
  2  4  1  0
  4  5  1  0
  5  6  1  0
  6  7  1  0
  7  8  2  0
  8  9  1  0
  9 10  1  0
 10 11  2  0
 11 12  1  0
 12 13  2  0
 13 14  1  0
 14 15  2  0
 13 16  1  0
 16 17  1  0
  8 18  1  0
 18 19  2  0
 19 20  1  0
 20 21  2  0
 21 22  1  0
 22 23  2  0
 11  7  1  0
 15 10  1  0
 23 18  1  0
M  END
$$$$
