
     RDKit          3D

 23 25  0  0  0  0  0  0  0  0999 V2000
    5.3975    5.3761    5.8019 C   0  0  0  0  0  0  0  0  0  0  0  0
    4.7508    4.0746    6.1808 C   0  0  0  0  0  0  0  0  0  0  0  0
    4.5566    3.2058    5.3023 O   0  0  0  0  0  0  0  0  0  0  0  0
    4.3581    3.8189    7.5200 N   0  0  0  0  0  0  0  0  0  0  0  0
    3.6741    2.6233    7.9599 C   0  0  0  0  0  0  0  0  0  0  0  0
    2.2090    2.6276    7.6276 C   0  0  0  0  0  0  0  0  0  0  0  0
    1.3446    3.2853    8.5853 C   0  0  0  0  0  0  0  0  0  0  0  0
    0.8271    4.5435    8.5788 C   0  0  0  0  0  0  0  0  0  0  0  0
    0.0782    4.6946    9.7078 N   0  0  0  0  0  0  0  0  0  0  0  0
    0.1064    3.5711   10.4269 C   0  0  0  0  0  0  0  0  0  0  0  0
    0.8824    2.6732    9.7623 C   0  0  0  0  0  0  0  0  0  0  0  0
    1.0851    1.4023   10.2936 C   0  0  0  0  0  0  0  0  0  0  0  0
    0.5170    1.0195   11.4877 C   0  0  0  0  0  0  0  0  0  0  0  0
   -0.2687    1.9258   12.1627 C   0  0  0  0  0  0  0  0  0  0  0  0
   -0.4776    3.1961   11.6422 C   0  0  0  0  0  0  0  0  0  0  0  0
    0.7296   -0.2354   11.9918 O   0  0  0  0  0  0  0  0  0  0  0  0
    0.1160   -0.7149   13.1797 C   0  0  0  0  0  0  0  0  0  0  0  0
    0.9557    5.6484    7.6371 C   0  0  0  0  0  0  0  0  0  0  0  0
    1.8543    5.5687    6.5785 C   0  0  0  0  0  0  0  0  0  0  0  0
    2.0331    6.5799    5.6613 C   0  0  0  0  0  0  0  0  0  0  0  0
    1.3040    7.7400    5.7668 C   0  0  0  0  0  0  0  0  0  0  0  0
    0.3966    7.8712    6.8011 C   0  0  0  0  0  0  0  0  0  0  0  0
    0.2419    6.8156    7.7192 C   0  0  0  0  0  0  0  0  0  0  0  0
  1  2  1  0
  2  3  2  0
  2  4  1  0
  4  5  1  0
  5  6  1  0
  6  7  1  0
  7  8  2  0
  8  9  1  0
  9 10  1  0
 10 11  2  0
 11 12  1  0
 12 13  2  0
 13 14  1  0
 14 15  2  0
 13 16  1  0
 16 17  1  0
  8 18  1  0
 18 19  2  0
 19 20  1  0
 20 21  2  0
 21 22  1  0
 22 23  2  0
 11  7  1  0
 15 10  1  0
 23 18  1  0
M  END
$$$$
