
     RDKit          3D

 23 25  0  0  0  0  0  0  0  0999 V2000
   -0.6533   -0.5746    7.0307 C   0  0  0  0  0  0  0  0  0  0  0  0
    0.1671    0.6113    6.6110 C   0  0  0  0  0  0  0  0  0  0  0  0
   -0.4082    1.6385    6.1888 O   0  0  0  0  0  0  0  0  0  0  0  0
    1.5835    0.5810    6.6872 N   0  0  0  0  0  0  0  0  0  0  0  0
    2.4410    1.7254    6.4726 C   0  0  0  0  0  0  0  0  0  0  0  0
    2.9242    2.3468    7.7521 C   0  0  0  0  0  0  0  0  0  0  0  0
    1.9942    3.2379    8.4139 C   0  0  0  0  0  0  0  0  0  0  0  0
    1.6129    4.5033    8.0910 C   0  0  0  0  0  0  0  0  0  0  0  0
    0.7194    4.9245    9.0306 N   0  0  0  0  0  0  0  0  0  0  0  0
    0.5246    3.9646    9.9365 C   0  0  0  0  0  0  0  0  0  0  0  0
    1.2987    2.9021    9.5873 C   0  0  0  0  0  0  0  0  0  0  0  0
    1.2891    1.7490   10.3677 C   0  0  0  0  0  0  0  0  0  0  0  0
    0.5098    1.6481   11.4981 C   0  0  0  0  0  0  0  0  0  0  0  0
   -0.2746    2.7216   11.8541 C   0  0  0  0  0  0  0  0  0  0  0  0
   -0.2728    3.8766   11.0833 C   0  0  0  0  0  0  0  0  0  0  0  0
    0.5158    0.5048   12.2509 O   0  0  0  0  0  0  0  0  0  0  0  0
    0.4768    0.5034   13.6707 C   0  0  0  0  0  0  0  0  0  0  0  0
    1.9942    5.3905    6.9994 C   0  0  0  0  0  0  0  0  0  0  0  0
    1.5368    6.7036    6.9684 C   0  0  0  0  0  0  0  0  0  0  0  0
    1.8494    7.5891    5.9615 C   0  0  0  0  0  0  0  0  0  0  0  0
    2.6509    7.1894    4.9193 C   0  0  0  0  0  0  0  0  0  0  0  0
    3.1327    5.8939    4.9011 C   0  0  0  0  0  0  0  0  0  0  0  0
    2.7911    5.0177    5.9484 C   0  0  0  0  0  0  0  0  0  0  0  0
  1  2  1  0
  2  3  2  0
  2  4  1  0
  4  5  1  0
  5  6  1  0
  6  7  1  0
  7  8  2  0
  8  9  1  0
  9 10  1  0
 10 11  2  0
 11 12  1  0
 12 13  2  0
 13 14  1  0
 14 15  2  0
 13 16  1  0
 16 17  1  0
  8 18  1  0
 18 19  2  0
 19 20  1  0
 20 21  2  0
 21 22  1  0
 22 23  2  0
 11  7  1  0
 15 10  1  0
 23 18  1  0
M  END
$$$$
