
     RDKit          3D

 18 18  0  0  0  0  0  0  0  0999 V2000
   -0.9310    1.3504   10.8034 C   0  0  0  0  0  0  0  0  0  0  0  0
   -1.2065   -0.1103   10.6952 C   0  0  0  0  0  0  0  0  0  0  0  0
   -2.3921   -0.5361   11.5279 C   0  0  0  0  0  0  0  0  0  0  0  0
   -0.1047   -0.9516   11.0061 N   0  0  0  0  0  0  0  0  0  0  0  0
    0.6566   -1.4200    9.8975 C   0  0  0  0  0  0  0  0  0  0  0  0
    1.7272   -2.3703   10.4578 C   0  0  0  0  0  0  0  0  0  0  0  0
    2.0185   -3.4728    9.4626 C   0  0  0  0  0  0  0  0  0  0  0  0
    3.0856   -3.3461    8.6732 O   0  0  0  0  0  0  0  0  0  0  0  0
    3.6916   -3.6444    7.5455 C   0  0  0  0  0  0  0  0  0  0  0  0
    3.0449   -3.8468    6.3515 C   0  0  0  0  0  0  0  0  0  0  0  0
    3.7633   -4.1641    5.1921 C   0  0  0  0  0  0  0  0  0  0  0  0
    5.1320   -4.2760    5.2455 C   0  0  0  0  0  0  0  0  0  0  0  0
    5.7761   -4.0742    6.4388 C   0  0  0  0  0  0  0  0  0  0  0  0
    5.0992   -3.7635    7.5836 C   0  0  0  0  0  0  0  0  0  0  0  0
    5.8225   -3.5449    8.8872 C   0  0  0  0  0  0  0  0  0  0  0  0
    6.5315   -4.7859    9.2244 C   0  0  0  0  0  0  0  0  0  0  0  0
    7.2247   -4.8554   10.3479 C   0  0  0  0  0  0  0  0  0  0  0  0
    2.8849   -1.6954   10.7598 O   0  0  0  0  0  0  0  0  0  0  0  0
  1  2  1  0
  2  3  1  0
  2  4  1  0
  4  5  1  0
  5  6  1  0
  6  7  1  0
  7  8  1  0
  8  9  1  0
  9 10  2  0
 10 11  1  0
 11 12  2  0
 12 13  1  0
 13 14  2  0
 14 15  1  0
 15 16  1  0
 16 17  2  0
  6 18  1  0
 14  9  1  0
M  END
$$$$
