
     RDKit          3D

 18 18  0  0  0  0  0  0  0  0999 V2000
   -1.4009   -1.3119   12.4048 C   0  0  0  0  0  0  0  0  0  0  0  0
   -0.1054   -1.3836   11.6714 C   0  0  0  0  0  0  0  0  0  0  0  0
    0.9016   -0.3807   12.1817 C   0  0  0  0  0  0  0  0  0  0  0  0
   -0.2082   -1.2498   10.2607 N   0  0  0  0  0  0  0  0  0  0  0  0
    1.0083   -1.3727    9.5307 C   0  0  0  0  0  0  0  0  0  0  0  0
    0.6542   -1.2313    8.0415 C   0  0  0  0  0  0  0  0  0  0  0  0
    1.9079   -1.3107    7.1973 C   0  0  0  0  0  0  0  0  0  0  0  0
    2.6801   -2.3916    7.3123 O   0  0  0  0  0  0  0  0  0  0  0  0
    3.4250   -3.3077    6.7347 C   0  0  0  0  0  0  0  0  0  0  0  0
    3.1664   -3.8466    5.4987 C   0  0  0  0  0  0  0  0  0  0  0  0
    4.0089   -4.8223    4.9517 C   0  0  0  0  0  0  0  0  0  0  0  0
    5.1084   -5.2490    5.6571 C   0  0  0  0  0  0  0  0  0  0  0  0
    5.3648   -4.7103    6.8914 C   0  0  0  0  0  0  0  0  0  0  0  0
    4.5595   -3.7576    7.4472 C   0  0  0  0  0  0  0  0  0  0  0  0
    4.8555   -3.1758    8.8052 C   0  0  0  0  0  0  0  0  0  0  0  0
    5.2433   -4.2781    9.6946 C   0  0  0  0  0  0  0  0  0  0  0  0
    5.5646   -4.0195   10.9505 C   0  0  0  0  0  0  0  0  0  0  0  0
   -0.2374   -2.1987    7.6463 O   0  0  0  0  0  0  0  0  0  0  0  0
  1  2  1  0
  2  3  1  0
  2  4  1  0
  4  5  1  0
  5  6  1  0
  6  7  1  0
  7  8  1  0
  8  9  1  0
  9 10  2  0
 10 11  1  0
 11 12  2  0
 12 13  1  0
 13 14  2  0
 14 15  1  0
 15 16  1  0
 16 17  2  0
  6 18  1  0
 14  9  1  0
M  END
$$$$
