
     RDKit          3D

 18 18  0  0  0  0  0  0  0  0999 V2000
    3.3810   -3.4396    5.8297 C   0  0  0  0  0  0  0  0  0  0  0  0
    4.8002   -3.8027    6.1040 C   0  0  0  0  0  0  0  0  0  0  0  0
    5.3194   -4.8553    5.1540 C   0  0  0  0  0  0  0  0  0  0  0  0
    5.0643   -4.2201    7.4362 N   0  0  0  0  0  0  0  0  0  0  0  0
    4.8118   -3.2574    8.4547 C   0  0  0  0  0  0  0  0  0  0  0  0
    5.0521   -3.9565    9.8025 C   0  0  0  0  0  0  0  0  0  0  0  0
    4.3265   -3.2210   10.9084 C   0  0  0  0  0  0  0  0  0  0  0  0
    3.3140   -2.4195   10.5762 O   0  0  0  0  0  0  0  0  0  0  0  0
    2.4809   -1.4609   10.9154 C   0  0  0  0  0  0  0  0  0  0  0  0
    2.4026   -0.9150   12.1726 C   0  0  0  0  0  0  0  0  0  0  0  0
    1.4849    0.1041   12.4556 C   0  0  0  0  0  0  0  0  0  0  0  0
    0.6501    0.5660   11.4664 C   0  0  0  0  0  0  0  0  0  0  0  0
    0.7291    0.0192   10.2117 C   0  0  0  0  0  0  0  0  0  0  0  0
    1.6153   -0.9751    9.9096 C   0  0  0  0  0  0  0  0  0  0  0  0
    1.6891   -1.5654    8.5252 C   0  0  0  0  0  0  0  0  0  0  0  0
    0.6471   -2.5942    8.4162 C   0  0  0  0  0  0  0  0  0  0  0  0
    0.4076   -3.1572    7.2443 C   0  0  0  0  0  0  0  0  0  0  0  0
    4.6417   -5.2670    9.7652 O   0  0  0  0  0  0  0  0  0  0  0  0
  1  2  1  0
  2  3  1  0
  2  4  1  0
  4  5  1  0
  5  6  1  0
  6  7  1  0
  7  8  1  0
  8  9  1  0
  9 10  2  0
 10 11  1  0
 11 12  2  0
 12 13  1  0
 13 14  2  0
 14 15  1  0
 15 16  1  0
 16 17  2  0
  6 18  1  0
 14  9  1  0
M  END
$$$$
