
     RDKit          3D

 18 18  0  0  0  0  0  0  0  0999 V2000
    0.5877    0.7421   12.4543 C   0  0  0  0  0  0  0  0  0  0  0  0
    0.1054    0.2937   11.1173 C   0  0  0  0  0  0  0  0  0  0  0  0
   -1.1884    0.9621   10.7178 C   0  0  0  0  0  0  0  0  0  0  0  0
   -0.0446   -1.1121   10.9759 N   0  0  0  0  0  0  0  0  0  0  0  0
    1.1152   -1.8258   10.5594 C   0  0  0  0  0  0  0  0  0  0  0  0
    0.6650   -3.2567   10.2238 C   0  0  0  0  0  0  0  0  0  0  0  0
    1.8642   -4.1141    9.8809 C   0  0  0  0  0  0  0  0  0  0  0  0
    2.5661   -3.8113    8.7884 O   0  0  0  0  0  0  0  0  0  0  0  0
    3.5232   -4.1257    7.9440 C   0  0  0  0  0  0  0  0  0  0  0  0
    4.3136   -5.2429    8.0539 C   0  0  0  0  0  0  0  0  0  0  0  0
    5.3159   -5.5072    7.1124 C   0  0  0  0  0  0  0  0  0  0  0  0
    5.5149   -4.6404    6.0647 C   0  0  0  0  0  0  0  0  0  0  0  0
    4.7253   -3.5249    5.9569 C   0  0  0  0  0  0  0  0  0  0  0  0
    3.7410   -3.2443    6.8611 C   0  0  0  0  0  0  0  0  0  0  0  0
    2.8819   -2.0137    6.7281 C   0  0  0  0  0  0  0  0  0  0  0  0
    1.7905   -2.3228    5.7955 C   0  0  0  0  0  0  0  0  0  0  0  0
    0.7532   -1.5075    5.7135 C   0  0  0  0  0  0  0  0  0  0  0  0
   -0.0288   -3.8195   11.2674 O   0  0  0  0  0  0  0  0  0  0  0  0
  1  2  1  0
  2  3  1  0
  2  4  1  0
  4  5  1  0
  5  6  1  0
  6  7  1  0
  7  8  1  0
  8  9  1  0
  9 10  2  0
 10 11  1  0
 11 12  2  0
 12 13  1  0
 13 14  2  0
 14 15  1  0
 15 16  1  0
 16 17  2  0
  6 18  1  0
 14  9  1  0
M  END
$$$$
