
     RDKit          3D

 18 18  0  0  0  0  0  0  0  0999 V2000
    6.5412   -4.4778   10.8565 C   0  0  0  0  0  0  0  0  0  0  0  0
    6.2649   -3.3884   11.8353 C   0  0  0  0  0  0  0  0  0  0  0  0
    6.6955   -3.7503   13.2367 C   0  0  0  0  0  0  0  0  0  0  0  0
    4.9154   -2.9456   11.8726 N   0  0  0  0  0  0  0  0  0  0  0  0
    4.4427   -2.2820   10.7046 C   0  0  0  0  0  0  0  0  0  0  0  0
    2.9860   -1.8745   10.9787 C   0  0  0  0  0  0  0  0  0  0  0  0
    2.4057   -1.1691    9.7718 C   0  0  0  0  0  0  0  0  0  0  0  0
    2.3790   -1.8227    8.6099 O   0  0  0  0  0  0  0  0  0  0  0  0
    2.0041   -1.8622    7.3506 C   0  0  0  0  0  0  0  0  0  0  0  0
    0.9790   -1.1144    6.8263 C   0  0  0  0  0  0  0  0  0  0  0  0
    0.6384   -1.2151    5.4718 C   0  0  0  0  0  0  0  0  0  0  0  0
    1.3353   -2.0719    4.6539 C   0  0  0  0  0  0  0  0  0  0  0  0
    2.3581   -2.8184    5.1792 C   0  0  0  0  0  0  0  0  0  0  0  0
    2.7104   -2.7387    6.4963 C   0  0  0  0  0  0  0  0  0  0  0  0
    3.8373   -3.5664    7.0578 C   0  0  0  0  0  0  0  0  0  0  0  0
    4.9354   -3.5558    6.0830 C   0  0  0  0  0  0  0  0  0  0  0  0
    6.0020   -4.3075    6.2949 C   0  0  0  0  0  0  0  0  0  0  0  0
    2.2143   -2.9651   11.2984 O   0  0  0  0  0  0  0  0  0  0  0  0
  1  2  1  0
  2  3  1  0
  2  4  1  0
  4  5  1  0
  5  6  1  0
  6  7  1  0
  7  8  1  0
  8  9  1  0
  9 10  2  0
 10 11  1  0
 11 12  2  0
 12 13  1  0
 13 14  2  0
 14 15  1  0
 15 16  1  0
 16 17  2  0
  6 18  1  0
 14  9  1  0
M  END
$$$$
