
     RDKit          3D

 18 18  0  0  0  0  0  0  0  0999 V2000
    5.7374   -3.4726    7.0584 C   0  0  0  0  0  0  0  0  0  0  0  0
    4.4387   -3.9632    6.5163 C   0  0  0  0  0  0  0  0  0  0  0  0
    4.6108   -4.7735    5.2538 C   0  0  0  0  0  0  0  0  0  0  0  0
    3.4684   -2.9523    6.2811 N   0  0  0  0  0  0  0  0  0  0  0  0
    2.8425   -2.4053    7.4373 C   0  0  0  0  0  0  0  0  0  0  0  0
    1.3931   -2.0724    7.0479 C   0  0  0  0  0  0  0  0  0  0  0  0
    0.8325   -1.0173    7.9769 C   0  0  0  0  0  0  0  0  0  0  0  0
    1.2652   -0.9908    9.2378 O   0  0  0  0  0  0  0  0  0  0  0  0
    1.1518   -0.5087   10.4555 C   0  0  0  0  0  0  0  0  0  0  0  0
    0.0516    0.1699   10.9179 C   0  0  0  0  0  0  0  0  0  0  0  0
    0.0083    0.6551   12.2307 C   0  0  0  0  0  0  0  0  0  0  0  0
    1.0778    0.4525   13.0697 C   0  0  0  0  0  0  0  0  0  0  0  0
    2.1759   -0.2247   12.6061 C   0  0  0  0  0  0  0  0  0  0  0  0
    2.2433   -0.7083   11.3306 C   0  0  0  0  0  0  0  0  0  0  0  0
    3.4580   -1.4505   10.8368 C   0  0  0  0  0  0  0  0  0  0  0  0
    3.2323   -2.8846   11.0577 C   0  0  0  0  0  0  0  0  0  0  0  0
    4.1198   -3.5860   11.7417 C   0  0  0  0  0  0  0  0  0  0  0  0
    1.3127   -1.6397    5.7466 O   0  0  0  0  0  0  0  0  0  0  0  0
  1  2  1  0
  2  3  1  0
  2  4  1  0
  4  5  1  0
  5  6  1  0
  6  7  1  0
  7  8  1  0
  8  9  1  0
  9 10  2  0
 10 11  1  0
 11 12  2  0
 12 13  1  0
 13 14  2  0
 14 15  1  0
 15 16  1  0
 16 17  2  0
  6 18  1  0
 14  9  1  0
M  END
$$$$
