
     RDKit          3D

 18 18  0  0  0  0  0  0  0  0999 V2000
   -1.8211   -0.9609   11.3013 C   0  0  0  0  0  0  0  0  0  0  0  0
   -0.4217   -1.3876   11.0168 C   0  0  0  0  0  0  0  0  0  0  0  0
    0.5157   -1.0886   12.1623 C   0  0  0  0  0  0  0  0  0  0  0  0
    0.1343   -0.8573    9.8217 N   0  0  0  0  0  0  0  0  0  0  0  0
    0.5080   -1.8087    8.8302 C   0  0  0  0  0  0  0  0  0  0  0  0
    1.1562   -1.0246    7.6778 C   0  0  0  0  0  0  0  0  0  0  0  0
    1.7423   -1.9804    6.6611 C   0  0  0  0  0  0  0  0  0  0  0  0
    2.8591   -2.6355    6.9798 O   0  0  0  0  0  0  0  0  0  0  0  0
    3.7652   -3.5334    6.6625 C   0  0  0  0  0  0  0  0  0  0  0  0
    3.9519   -4.0277    5.3953 C   0  0  0  0  0  0  0  0  0  0  0  0
    4.9395   -4.9865    5.1383 C   0  0  0  0  0  0  0  0  0  0  0  0
    5.7334   -5.4415    6.1636 C   0  0  0  0  0  0  0  0  0  0  0  0
    5.5452   -4.9474    7.4285 C   0  0  0  0  0  0  0  0  0  0  0  0
    4.5895   -4.0120    7.7058 C   0  0  0  0  0  0  0  0  0  0  0  0
    4.3956   -3.4793    9.1018 C   0  0  0  0  0  0  0  0  0  0  0  0
    5.1987   -2.2571    9.2350 C   0  0  0  0  0  0  0  0  0  0  0  0
    4.6997   -1.2169    9.8805 C   0  0  0  0  0  0  0  0  0  0  0  0
    0.2493   -0.1921    7.0681 O   0  0  0  0  0  0  0  0  0  0  0  0
  1  2  1  0
  2  3  1  0
  2  4  1  0
  4  5  1  0
  5  6  1  0
  6  7  1  0
  7  8  1  0
  8  9  1  0
  9 10  2  0
 10 11  1  0
 11 12  2  0
 12 13  1  0
 13 14  2  0
 14 15  1  0
 15 16  1  0
 16 17  2  0
  6 18  1  0
 14  9  1  0
M  END
$$$$
