
     RDKit          3D

 18 18  0  0  0  0  0  0  0  0999 V2000
   -0.8299   -0.4403   11.2841 C   0  0  0  0  0  0  0  0  0  0  0  0
   -0.1178   -1.2760   10.2762 C   0  0  0  0  0  0  0  0  0  0  0  0
   -0.9806   -1.5939    9.0784 C   0  0  0  0  0  0  0  0  0  0  0  0
    0.4268   -2.4875   10.7807 N   0  0  0  0  0  0  0  0  0  0  0  0
    1.4262   -3.1062    9.9767 C   0  0  0  0  0  0  0  0  0  0  0  0
    2.6442   -3.3487   10.8827 C   0  0  0  0  0  0  0  0  0  0  0  0
    3.7272   -4.0775   10.1167 C   0  0  0  0  0  0  0  0  0  0  0  0
    3.8734   -3.8091    8.8188 O   0  0  0  0  0  0  0  0  0  0  0  0
    4.3021   -4.1849    7.6344 C   0  0  0  0  0  0  0  0  0  0  0  0
    4.8318   -5.4217    7.3616 C   0  0  0  0  0  0  0  0  0  0  0  0
    5.2691   -5.7454    6.0713 C   0  0  0  0  0  0  0  0  0  0  0  0
    5.1694   -4.8169    5.0630 C   0  0  0  0  0  0  0  0  0  0  0  0
    4.6408   -3.5820    5.3373 C   0  0  0  0  0  0  0  0  0  0  0  0
    4.2068   -3.2413    6.5867 C   0  0  0  0  0  0  0  0  0  0  0  0
    3.6284   -1.8795    6.8713 C   0  0  0  0  0  0  0  0  0  0  0  0
    2.3380   -1.7823    6.1773 C   0  0  0  0  0  0  0  0  0  0  0  0
    1.7129   -0.6187    6.1243 C   0  0  0  0  0  0  0  0  0  0  0  0
    3.1383   -2.1680   11.3815 O   0  0  0  0  0  0  0  0  0  0  0  0
  1  2  1  0
  2  3  1  0
  2  4  1  0
  4  5  1  0
  5  6  1  0
  6  7  1  0
  7  8  1  0
  8  9  1  0
  9 10  2  0
 10 11  1  0
 11 12  2  0
 12 13  1  0
 13 14  2  0
 14 15  1  0
 15 16  1  0
 16 17  2  0
  6 18  1  0
 14  9  1  0
M  END
$$$$
