
     RDKit          3D

 18 18  0  0  0  0  0  0  0  0999 V2000
    0.9300   -0.0904    5.4303 C   0  0  0  0  0  0  0  0  0  0  0  0
    1.1172   -1.3515    6.2022 C   0  0  0  0  0  0  0  0  0  0  0  0
    0.2553   -2.4777    5.6835 C   0  0  0  0  0  0  0  0  0  0  0  0
    0.9158   -1.2308    7.6035 N   0  0  0  0  0  0  0  0  0  0  0  0
    1.5062   -2.2455    8.4096 C   0  0  0  0  0  0  0  0  0  0  0  0
    1.2739   -1.8456    9.8756 C   0  0  0  0  0  0  0  0  0  0  0  0
    2.5945   -1.5382   10.5481 C   0  0  0  0  0  0  0  0  0  0  0  0
    3.6070   -2.3876   10.3709 O   0  0  0  0  0  0  0  0  0  0  0  0
    4.8230   -2.7699   10.6918 C   0  0  0  0  0  0  0  0  0  0  0  0
    5.5047   -2.3278   11.7984 C   0  0  0  0  0  0  0  0  0  0  0  0
    6.8010   -2.7821   12.0706 C   0  0  0  0  0  0  0  0  0  0  0  0
    7.4023   -3.6807   11.2223 C   0  0  0  0  0  0  0  0  0  0  0  0
    6.7205   -4.1206   10.1173 C   0  0  0  0  0  0  0  0  0  0  0  0
    5.4556   -3.6936    9.8294 C   0  0  0  0  0  0  0  0  0  0  0  0
    4.7201   -4.1870    8.6104 C   0  0  0  0  0  0  0  0  0  0  0  0
    5.1392   -3.3669    7.4667 C   0  0  0  0  0  0  0  0  0  0  0  0
    4.7394   -3.6935    6.2497 C   0  0  0  0  0  0  0  0  0  0  0  0
    0.4374   -0.7602    9.9704 O   0  0  0  0  0  0  0  0  0  0  0  0
  1  2  1  0
  2  3  1  0
  2  4  1  0
  4  5  1  0
  5  6  1  0
  6  7  1  0
  7  8  1  0
  8  9  1  0
  9 10  2  0
 10 11  1  0
 11 12  2  0
 12 13  1  0
 13 14  2  0
 14 15  1  0
 15 16  1  0
 16 17  2  0
  6 18  1  0
 14  9  1  0
M  END
$$$$
