
     RDKit          3D

 18 18  0  0  0  0  0  0  0  0999 V2000
    5.7387   -3.4729    5.2733 C   0  0  0  0  0  0  0  0  0  0  0  0
    5.0921   -4.0092    6.5044 C   0  0  0  0  0  0  0  0  0  0  0  0
    4.8744   -5.5019    6.4372 C   0  0  0  0  0  0  0  0  0  0  0  0
    3.8655   -3.3845    6.8566 N   0  0  0  0  0  0  0  0  0  0  0  0
    3.5740   -3.3200    8.2490 C   0  0  0  0  0  0  0  0  0  0  0  0
    2.1852   -2.6756    8.3872 C   0  0  0  0  0  0  0  0  0  0  0  0
    2.3215   -1.2264    8.8018 C   0  0  0  0  0  0  0  0  0  0  0  0
    1.7524   -0.8394    9.9439 O   0  0  0  0  0  0  0  0  0  0  0  0
    0.7583   -0.2357   10.5566 C   0  0  0  0  0  0  0  0  0  0  0  0
   -0.3860    0.1951    9.9322 C   0  0  0  0  0  0  0  0  0  0  0  0
   -1.4006    0.8333   10.6561 C   0  0  0  0  0  0  0  0  0  0  0  0
   -1.2533    1.0335   12.0078 C   0  0  0  0  0  0  0  0  0  0  0  0
   -0.1098    0.6032   12.6295 C   0  0  0  0  0  0  0  0  0  0  0  0
    0.8944   -0.0219   11.9468 C   0  0  0  0  0  0  0  0  0  0  0  0
    2.1451   -0.4886   12.6455 C   0  0  0  0  0  0  0  0  0  0  0  0
    3.1735    0.5449   12.4700 C   0  0  0  0  0  0  0  0  0  0  0  0
    3.7242    1.1032   13.5342 C   0  0  0  0  0  0  0  0  0  0  0  0
    1.4761   -2.7613    7.2139 O   0  0  0  0  0  0  0  0  0  0  0  0
  1  2  1  0
  2  3  1  0
  2  4  1  0
  4  5  1  0
  5  6  1  0
  6  7  1  0
  7  8  1  0
  8  9  1  0
  9 10  2  0
 10 11  1  0
 11 12  2  0
 12 13  1  0
 13 14  2  0
 14 15  1  0
 15 16  1  0
 16 17  2  0
  6 18  1  0
 14  9  1  0
M  END
$$$$
