
     RDKit          3D

 18 18  0  0  0  0  0  0  0  0999 V2000
   -1.0922   -1.5016    9.5259 C   0  0  0  0  0  0  0  0  0  0  0  0
   -0.5774   -0.6913   10.6660 C   0  0  0  0  0  0  0  0  0  0  0  0
   -1.1227    0.7169   10.6642 C   0  0  0  0  0  0  0  0  0  0  0  0
    0.8386   -0.6322   10.7668 N   0  0  0  0  0  0  0  0  0  0  0  0
    1.5269   -1.8718   10.6348 C   0  0  0  0  0  0  0  0  0  0  0  0
    2.9286   -1.6727   11.2337 C   0  0  0  0  0  0  0  0  0  0  0  0
    3.9657   -1.6320   10.1321 C   0  0  0  0  0  0  0  0  0  0  0  0
    4.0389   -2.6666    9.2943 O   0  0  0  0  0  0  0  0  0  0  0  0
    4.7549   -3.3939    8.4658 C   0  0  0  0  0  0  0  0  0  0  0  0
    6.0579   -3.7632    8.6909 C   0  0  0  0  0  0  0  0  0  0  0  0
    6.7546   -4.5390    7.7563 C   0  0  0  0  0  0  0  0  0  0  0  0
    6.1310   -4.9374    6.5983 C   0  0  0  0  0  0  0  0  0  0  0  0
    4.8300   -4.5673    6.3748 C   0  0  0  0  0  0  0  0  0  0  0  0
    4.1282   -3.8114    7.2700 C   0  0  0  0  0  0  0  0  0  0  0  0
    2.6987   -3.4131    7.0089 C   0  0  0  0  0  0  0  0  0  0  0  0
    2.7102   -2.2436    6.1209 C   0  0  0  0  0  0  0  0  0  0  0  0
    1.5671   -1.6754    5.7772 C   0  0  0  0  0  0  0  0  0  0  0  0
    2.9937   -0.5210   11.9797 O   0  0  0  0  0  0  0  0  0  0  0  0
  1  2  1  0
  2  3  1  0
  2  4  1  0
  4  5  1  0
  5  6  1  0
  6  7  1  0
  7  8  1  0
  8  9  1  0
  9 10  2  0
 10 11  1  0
 11 12  2  0
 12 13  1  0
 13 14  2  0
 14 15  1  0
 15 16  1  0
 16 17  2  0
  6 18  1  0
 14  9  1  0
M  END
$$$$
