
     RDKit          3D

 18 18  0  0  0  0  0  0  0  0999 V2000
    0.2647   -0.7792   12.7158 C   0  0  0  0  0  0  0  0  0  0  0  0
   -0.4567   -0.2223   11.5365 C   0  0  0  0  0  0  0  0  0  0  0  0
   -1.9241    0.0030   11.8127 C   0  0  0  0  0  0  0  0  0  0  0  0
   -0.3283   -0.9822   10.3429 N   0  0  0  0  0  0  0  0  0  0  0  0
    0.8539   -0.7560    9.5819 C   0  0  0  0  0  0  0  0  0  0  0  0
    0.7051   -1.5512    8.2748 C   0  0  0  0  0  0  0  0  0  0  0  0
    1.3962   -2.8921    8.3984 C   0  0  0  0  0  0  0  0  0  0  0  0
    2.7035   -2.9554    8.1439 O   0  0  0  0  0  0  0  0  0  0  0  0
    3.8835   -3.4536    8.4392 C   0  0  0  0  0  0  0  0  0  0  0  0
    4.4021   -3.5100    9.7091 C   0  0  0  0  0  0  0  0  0  0  0  0
    5.6707   -4.0554    9.9417 C   0  0  0  0  0  0  0  0  0  0  0  0
    6.4093   -4.5405    8.8892 C   0  0  0  0  0  0  0  0  0  0  0  0
    5.8903   -4.4828    7.6217 C   0  0  0  0  0  0  0  0  0  0  0  0
    4.6559   -3.9564    7.3679 C   0  0  0  0  0  0  0  0  0  0  0  0
    4.1001   -3.9004    5.9685 C   0  0  0  0  0  0  0  0  0  0  0  0
    4.4802   -5.1412    5.2811 C   0  0  0  0  0  0  0  0  0  0  0  0
    4.0753   -5.3485    4.0399 C   0  0  0  0  0  0  0  0  0  0  0  0
   -0.6169   -1.7350    7.9500 O   0  0  0  0  0  0  0  0  0  0  0  0
  1  2  1  0
  2  3  1  0
  2  4  1  0
  4  5  1  0
  5  6  1  0
  6  7  1  0
  7  8  1  0
  8  9  1  0
  9 10  2  0
 10 11  1  0
 11 12  2  0
 12 13  1  0
 13 14  2  0
 14 15  1  0
 15 16  1  0
 16 17  2  0
  6 18  1  0
 14  9  1  0
M  END
$$$$
