
     RDKit          3D

 18 18  0  0  0  0  0  0  0  0999 V2000
   -2.2192    0.3843   10.5246 C   0  0  0  0  0  0  0  0  0  0  0  0
   -1.3382   -0.4573   11.3829 C   0  0  0  0  0  0  0  0  0  0  0  0
   -1.2611    0.0514   12.8026 C   0  0  0  0  0  0  0  0  0  0  0  0
   -0.0177   -0.6369   10.8902 N   0  0  0  0  0  0  0  0  0  0  0  0
    0.1548   -1.6714    9.9269 C   0  0  0  0  0  0  0  0  0  0  0  0
    1.6504   -1.7110    9.5740 C   0  0  0  0  0  0  0  0  0  0  0  0
    1.9832   -3.0015    8.8566 C   0  0  0  0  0  0  0  0  0  0  0  0
    3.1613   -3.0959    8.2392 O   0  0  0  0  0  0  0  0  0  0  0  0
    3.8827   -3.6053    7.2655 C   0  0  0  0  0  0  0  0  0  0  0  0
    3.3695   -4.0304    6.0652 C   0  0  0  0  0  0  0  0  0  0  0  0
    4.2056   -4.5647    5.0772 C   0  0  0  0  0  0  0  0  0  0  0  0
    5.5565   -4.6674    5.3076 C   0  0  0  0  0  0  0  0  0  0  0  0
    6.0673   -4.2430    6.5070 C   0  0  0  0  0  0  0  0  0  0  0  0
    5.2738   -3.7180    7.4868 C   0  0  0  0  0  0  0  0  0  0  0  0
    5.8513   -3.2564    8.7997 C   0  0  0  0  0  0  0  0  0  0  0  0
    6.0378   -4.4376    9.6519 C   0  0  0  0  0  0  0  0  0  0  0  0
    6.6164   -4.3040   10.8329 C   0  0  0  0  0  0  0  0  0  0  0  0
    2.0081   -0.6376    8.7950 O   0  0  0  0  0  0  0  0  0  0  0  0
  1  2  1  0
  2  3  1  0
  2  4  1  0
  4  5  1  0
  5  6  1  0
  6  7  1  0
  7  8  1  0
  8  9  1  0
  9 10  2  0
 10 11  1  0
 11 12  2  0
 12 13  1  0
 13 14  2  0
 14 15  1  0
 15 16  1  0
 16 17  2  0
  6 18  1  0
 14  9  1  0
M  END
$$$$
