
     RDKit          3D

 18 18  0  0  0  0  0  0  0  0999 V2000
    1.4031   -1.5256   12.6462 C   0  0  0  0  0  0  0  0  0  0  0  0
    0.7243   -0.4284   11.9000 C   0  0  0  0  0  0  0  0  0  0  0  0
   -0.4935    0.0933   12.6246 C   0  0  0  0  0  0  0  0  0  0  0  0
    0.3585   -0.7497   10.5653 N   0  0  0  0  0  0  0  0  0  0  0  0
    1.4166   -0.7602    9.6123 C   0  0  0  0  0  0  0  0  0  0  0  0
    0.7849   -1.0618    8.2437 C   0  0  0  0  0  0  0  0  0  0  0  0
    1.1242   -2.4721    7.8118 C   0  0  0  0  0  0  0  0  0  0  0  0
    2.3679   -2.7263    7.4036 O   0  0  0  0  0  0  0  0  0  0  0  0
    3.3234   -3.6029    7.1884 C   0  0  0  0  0  0  0  0  0  0  0  0
    3.2143   -4.9452    7.4551 C   0  0  0  0  0  0  0  0  0  0  0  0
    4.2808   -5.8158    7.1992 C   0  0  0  0  0  0  0  0  0  0  0  0
    5.4528   -5.3252    6.6754 C   0  0  0  0  0  0  0  0  0  0  0  0
    5.5603   -3.9844    6.4103 C   0  0  0  0  0  0  0  0  0  0  0  0
    4.5354   -3.1143    6.6503 C   0  0  0  0  0  0  0  0  0  0  0  0
    4.6700   -1.6433    6.3533 C   0  0  0  0  0  0  0  0  0  0  0  0
    5.6616   -1.0837    7.2806 C   0  0  0  0  0  0  0  0  0  0  0  0
    5.9064    0.2153    7.2665 C   0  0  0  0  0  0  0  0  0  0  0  0
   -0.5787   -0.8984    8.2764 O   0  0  0  0  0  0  0  0  0  0  0  0
  1  2  1  0
  2  3  1  0
  2  4  1  0
  4  5  1  0
  5  6  1  0
  6  7  1  0
  7  8  1  0
  8  9  1  0
  9 10  2  0
 10 11  1  0
 11 12  2  0
 12 13  1  0
 13 14  2  0
 14 15  1  0
 15 16  1  0
 16 17  2  0
  6 18  1  0
 14  9  1  0
M  END
$$$$
