
     RDKit          3D

 18 18  0  0  0  0  0  0  0  0999 V2000
    5.7878   -3.2152    6.4925 C   0  0  0  0  0  0  0  0  0  0  0  0
    4.3950   -3.7204    6.3305 C   0  0  0  0  0  0  0  0  0  0  0  0
    4.2687   -4.7069    5.1943 C   0  0  0  0  0  0  0  0  0  0  0  0
    3.4074   -2.7116    6.1709 N   0  0  0  0  0  0  0  0  0  0  0  0
    3.0524   -1.9925    7.3477 C   0  0  0  0  0  0  0  0  0  0  0  0
    1.5440   -1.7089    7.2623 C   0  0  0  0  0  0  0  0  0  0  0  0
    0.7914   -2.5912    8.2349 C   0  0  0  0  0  0  0  0  0  0  0  0
    0.6189   -2.1532    9.4825 O   0  0  0  0  0  0  0  0  0  0  0  0
    1.0089   -1.3691   10.4627 C   0  0  0  0  0  0  0  0  0  0  0  0
    0.5733   -0.0792   10.6397 C   0  0  0  0  0  0  0  0  0  0  0  0
    1.0388    0.6940   11.7104 C   0  0  0  0  0  0  0  0  0  0  0  0
    1.9432    0.1598   12.5966 C   0  0  0  0  0  0  0  0  0  0  0  0
    2.3777   -1.1282   12.4180 C   0  0  0  0  0  0  0  0  0  0  0  0
    1.9392   -1.9034   11.3826 C   0  0  0  0  0  0  0  0  0  0  0  0
    2.4270   -3.3173   11.2006 C   0  0  0  0  0  0  0  0  0  0  0  0
    3.8685   -3.2663   10.9251 C   0  0  0  0  0  0  0  0  0  0  0  0
    4.5301   -4.3898   10.7069 C   0  0  0  0  0  0  0  0  0  0  0  0
    1.2690   -0.3880    7.5205 O   0  0  0  0  0  0  0  0  0  0  0  0
  1  2  1  0
  2  3  1  0
  2  4  1  0
  4  5  1  0
  5  6  1  0
  6  7  1  0
  7  8  1  0
  8  9  1  0
  9 10  2  0
 10 11  1  0
 11 12  2  0
 12 13  1  0
 13 14  2  0
 14 15  1  0
 15 16  1  0
 16 17  2  0
  6 18  1  0
 14  9  1  0
M  END
$$$$
