
     RDKit          3D

 18 18  0  0  0  0  0  0  0  0999 V2000
    0.8019    1.2222   10.4752 C   0  0  0  0  0  0  0  0  0  0  0  0
   -0.2590    0.1776   10.5422 C   0  0  0  0  0  0  0  0  0  0  0  0
   -1.3938    0.5671   11.4591 C   0  0  0  0  0  0  0  0  0  0  0  0
    0.1984   -1.1172   10.9068 N   0  0  0  0  0  0  0  0  0  0  0  0
    0.9991   -1.7921    9.9418 C   0  0  0  0  0  0  0  0  0  0  0  0
    1.2871   -3.1951   10.4998 C   0  0  0  0  0  0  0  0  0  0  0  0
    1.7305   -4.1189    9.3858 C   0  0  0  0  0  0  0  0  0  0  0  0
    2.9029   -3.8814    8.7967 O   0  0  0  0  0  0  0  0  0  0  0  0
    3.6891   -4.0358    7.7547 C   0  0  0  0  0  0  0  0  0  0  0  0
    3.2793   -4.5428    6.5464 C   0  0  0  0  0  0  0  0  0  0  0  0
    4.1803   -4.6782    5.4831 C   0  0  0  0  0  0  0  0  0  0  0  0
    5.4917   -4.3010    5.6466 C   0  0  0  0  0  0  0  0  0  0  0  0
    5.8995   -3.7956    6.8539 C   0  0  0  0  0  0  0  0  0  0  0  0
    5.0409   -3.6530    7.9065 C   0  0  0  0  0  0  0  0  0  0  0  0
    5.5055   -3.0958    9.2271 C   0  0  0  0  0  0  0  0  0  0  0  0
    6.0392   -4.2075   10.0243 C   0  0  0  0  0  0  0  0  0  0  0  0
    6.7156   -3.9500   11.1305 C   0  0  0  0  0  0  0  0  0  0  0  0
    2.2461   -3.1543   11.4826 O   0  0  0  0  0  0  0  0  0  0  0  0
  1  2  1  0
  2  3  1  0
  2  4  1  0
  4  5  1  0
  5  6  1  0
  6  7  1  0
  7  8  1  0
  8  9  1  0
  9 10  2  0
 10 11  1  0
 11 12  2  0
 12 13  1  0
 13 14  2  0
 14 15  1  0
 15 16  1  0
 16 17  2  0
  6 18  1  0
 14  9  1  0
M  END
$$$$
