
     RDKit          3D

 18 18  0  0  0  0  0  0  0  0999 V2000
   -0.8386   -2.1035   11.4981 C   0  0  0  0  0  0  0  0  0  0  0  0
    0.0097   -0.9090   11.2245 C   0  0  0  0  0  0  0  0  0  0  0  0
   -0.4935    0.3283   11.9289 C   0  0  0  0  0  0  0  0  0  0  0  0
    0.1929   -0.6079    9.8482 N   0  0  0  0  0  0  0  0  0  0  0  0
    1.0682   -1.4719    9.1303 C   0  0  0  0  0  0  0  0  0  0  0  0
    1.2260   -0.8801    7.7204 C   0  0  0  0  0  0  0  0  0  0  0  0
    2.6208   -1.1457    7.1962 C   0  0  0  0  0  0  0  0  0  0  0  0
    3.0865   -2.3942    7.2428 O   0  0  0  0  0  0  0  0  0  0  0  0
    3.8762   -3.3189    6.7437 C   0  0  0  0  0  0  0  0  0  0  0  0
    3.9808   -3.6046    5.4049 C   0  0  0  0  0  0  0  0  0  0  0  0
    4.8456   -4.6084    4.9516 C   0  0  0  0  0  0  0  0  0  0  0  0
    5.6000   -5.3191    5.8541 C   0  0  0  0  0  0  0  0  0  0  0  0
    5.4938   -5.0331    7.1906 C   0  0  0  0  0  0  0  0  0  0  0  0
    4.6585   -4.0591    7.6586 C   0  0  0  0  0  0  0  0  0  0  0  0
    4.5536   -3.7574    9.1311 C   0  0  0  0  0  0  0  0  0  0  0  0
    5.5587   -2.7374    9.4563 C   0  0  0  0  0  0  0  0  0  0  0  0
    6.0621   -2.6849   10.6775 C   0  0  0  0  0  0  0  0  0  0  0  0
    0.2945   -1.3987    6.8541 O   0  0  0  0  0  0  0  0  0  0  0  0
  1  2  1  0
  2  3  1  0
  2  4  1  0
  4  5  1  0
  5  6  1  0
  6  7  1  0
  7  8  1  0
  8  9  1  0
  9 10  2  0
 10 11  1  0
 11 12  2  0
 12 13  1  0
 13 14  2  0
 14 15  1  0
 15 16  1  0
 16 17  2  0
  6 18  1  0
 14  9  1  0
M  END
$$$$
