
     RDKit          3D

 18 18  0  0  0  0  0  0  0  0999 V2000
   -0.9338    1.0475   12.1974 C   0  0  0  0  0  0  0  0  0  0  0  0
    0.3541    0.4630   11.7274 C   0  0  0  0  0  0  0  0  0  0  0  0
    1.2528    1.4920   11.0842 C   0  0  0  0  0  0  0  0  0  0  0  0
    0.2228   -0.6432   10.8457 N   0  0  0  0  0  0  0  0  0  0  0  0
    1.2599   -1.6172   10.9058 C   0  0  0  0  0  0  0  0  0  0  0  0
    0.8791   -2.7391    9.9263 C   0  0  0  0  0  0  0  0  0  0  0  0
    1.5100   -2.4874    8.5738 C   0  0  0  0  0  0  0  0  0  0  0  0
    2.6457   -3.1204    8.2784 O   0  0  0  0  0  0  0  0  0  0  0  0
    3.4994   -3.5317    7.3673 C   0  0  0  0  0  0  0  0  0  0  0  0
    3.2075   -3.6444    6.0305 C   0  0  0  0  0  0  0  0  0  0  0  0
    4.1733   -4.0933    5.1214 C   0  0  0  0  0  0  0  0  0  0  0  0
    5.4294   -4.4268    5.5681 C   0  0  0  0  0  0  0  0  0  0  0  0
    5.7190   -4.3145    6.9034 C   0  0  0  0  0  0  0  0  0  0  0  0
    4.7955   -3.8791    7.8105 C   0  0  0  0  0  0  0  0  0  0  0  0
    5.1302   -3.7614    9.2749 C   0  0  0  0  0  0  0  0  0  0  0  0
    5.8291   -4.9880    9.6790 C   0  0  0  0  0  0  0  0  0  0  0  0
    6.6647   -4.9544   10.7028 C   0  0  0  0  0  0  0  0  0  0  0  0
    1.2660   -3.9688   10.4009 O   0  0  0  0  0  0  0  0  0  0  0  0
  1  2  1  0
  2  3  1  0
  2  4  1  0
  4  5  1  0
  5  6  1  0
  6  7  1  0
  7  8  1  0
  8  9  1  0
  9 10  2  0
 10 11  1  0
 11 12  2  0
 12 13  1  0
 13 14  2  0
 14 15  1  0
 15 16  1  0
 16 17  2  0
  6 18  1  0
 14  9  1  0
M  END
$$$$
