
     RDKit          3D

 18 18  0  0  0  0  0  0  0  0999 V2000
   -1.3568    0.7370   10.9886 C   0  0  0  0  0  0  0  0  0  0  0  0
   -0.4292    0.0629   11.9406 C   0  0  0  0  0  0  0  0  0  0  0  0
    0.5541    1.0241   12.5648 C   0  0  0  0  0  0  0  0  0  0  0  0
    0.2889   -1.0369   11.3989 N   0  0  0  0  0  0  0  0  0  0  0  0
    0.9421   -0.8053   10.1549 C   0  0  0  0  0  0  0  0  0  0  0  0
    0.8859   -2.1236    9.3662 C   0  0  0  0  0  0  0  0  0  0  0  0
    1.7287   -2.0185    8.1135 C   0  0  0  0  0  0  0  0  0  0  0  0
    2.8184   -2.7809    8.0189 O   0  0  0  0  0  0  0  0  0  0  0  0
    3.6945   -3.4007    7.2597 C   0  0  0  0  0  0  0  0  0  0  0  0
    3.6377   -3.4391    5.8885 C   0  0  0  0  0  0  0  0  0  0  0  0
    4.6103   -4.1241    5.1498 C   0  0  0  0  0  0  0  0  0  0  0  0
    5.6354   -4.7675    5.8009 C   0  0  0  0  0  0  0  0  0  0  0  0
    5.6902   -4.7287    7.1702 C   0  0  0  0  0  0  0  0  0  0  0  0
    4.7547   -4.0677    7.9139 C   0  0  0  0  0  0  0  0  0  0  0  0
    4.8296   -4.0349    9.4184 C   0  0  0  0  0  0  0  0  0  0  0  0
    5.7296   -2.9400    9.8026 C   0  0  0  0  0  0  0  0  0  0  0  0
    5.7884   -2.5583   11.0668 C   0  0  0  0  0  0  0  0  0  0  0  0
    1.3149   -3.1813   10.1307 O   0  0  0  0  0  0  0  0  0  0  0  0
  1  2  1  0
  2  3  1  0
  2  4  1  0
  4  5  1  0
  5  6  1  0
  6  7  1  0
  7  8  1  0
  8  9  1  0
  9 10  2  0
 10 11  1  0
 11 12  2  0
 12 13  1  0
 13 14  2  0
 14 15  1  0
 15 16  1  0
 16 17  2  0
  6 18  1  0
 14  9  1  0
M  END
$$$$
