
     RDKit          3D

 18 18  0  0  0  0  0  0  0  0999 V2000
    0.0122    1.1659   11.8824 C   0  0  0  0  0  0  0  0  0  0  0  0
   -0.1365    0.6131   10.5063 C   0  0  0  0  0  0  0  0  0  0  0  0
   -1.4400    1.0184    9.8605 C   0  0  0  0  0  0  0  0  0  0  0  0
    0.0011   -0.7977   10.4101 N   0  0  0  0  0  0  0  0  0  0  0  0
    1.2884   -1.2760   10.0330 C   0  0  0  0  0  0  0  0  0  0  0  0
    1.2074   -2.8109   10.0091 C   0  0  0  0  0  0  0  0  0  0  0  0
    1.5015   -3.3272    8.6170 C   0  0  0  0  0  0  0  0  0  0  0  0
    2.7727   -3.3819    8.2186 O   0  0  0  0  0  0  0  0  0  0  0  0
    3.6420   -3.6279    7.2637 C   0  0  0  0  0  0  0  0  0  0  0  0
    3.3134   -3.7714    5.9385 C   0  0  0  0  0  0  0  0  0  0  0  0
    4.2996   -4.0351    4.9800 C   0  0  0  0  0  0  0  0  0  0  0  0
    5.6133   -4.1532    5.3659 C   0  0  0  0  0  0  0  0  0  0  0  0
    5.9396   -4.0103    6.6897 C   0  0  0  0  0  0  0  0  0  0  0  0
    4.9973   -3.7526    7.6441 C   0  0  0  0  0  0  0  0  0  0  0  0
    5.3729   -3.5984    9.0951 C   0  0  0  0  0  0  0  0  0  0  0  0
    6.0781   -4.8173    9.5116 C   0  0  0  0  0  0  0  0  0  0  0  0
    6.9724   -4.7528   10.4829 C   0  0  0  0  0  0  0  0  0  0  0  0
    2.0808   -3.3710   10.9094 O   0  0  0  0  0  0  0  0  0  0  0  0
  1  2  1  0
  2  3  1  0
  2  4  1  0
  4  5  1  0
  5  6  1  0
  6  7  1  0
  7  8  1  0
  8  9  1  0
  9 10  2  0
 10 11  1  0
 11 12  2  0
 12 13  1  0
 13 14  2  0
 14 15  1  0
 15 16  1  0
 16 17  2  0
  6 18  1  0
 14  9  1  0
M  END
$$$$
