
     RDKit          3D

 18 18  0  0  0  0  0  0  0  0999 V2000
    5.3969   -3.2361    6.3008 C   0  0  0  0  0  0  0  0  0  0  0  0
    4.1114   -3.9769    6.4413 C   0  0  0  0  0  0  0  0  0  0  0  0
    4.0666   -5.2202    5.5855 C   0  0  0  0  0  0  0  0  0  0  0  0
    2.9455   -3.2057    6.1872 N   0  0  0  0  0  0  0  0  0  0  0  0
    2.6046   -2.2425    7.1791 C   0  0  0  0  0  0  0  0  0  0  0  0
    1.1721   -1.7742    6.8761 C   0  0  0  0  0  0  0  0  0  0  0  0
    0.7791   -0.6553    7.8165 C   0  0  0  0  0  0  0  0  0  0  0  0
    0.7295   -0.9159    9.1232 O   0  0  0  0  0  0  0  0  0  0  0  0
    0.2188   -0.6479   10.3045 C   0  0  0  0  0  0  0  0  0  0  0  0
   -0.8406    0.1999   10.5134 C   0  0  0  0  0  0  0  0  0  0  0  0
   -1.3261    0.4354   11.8056 C   0  0  0  0  0  0  0  0  0  0  0  0
   -0.7378   -0.1868   12.8805 C   0  0  0  0  0  0  0  0  0  0  0  0
    0.3205   -1.0325   12.6701 C   0  0  0  0  0  0  0  0  0  0  0  0
    0.8128   -1.2795   11.4204 C   0  0  0  0  0  0  0  0  0  0  0  0
    1.9769   -2.2119   11.2066 C   0  0  0  0  0  0  0  0  0  0  0  0
    1.4395   -3.5508   10.9327 C   0  0  0  0  0  0  0  0  0  0  0  0
    2.2711   -4.5637   10.7599 C   0  0  0  0  0  0  0  0  0  0  0  0
    1.0489   -1.3550    5.5737 O   0  0  0  0  0  0  0  0  0  0  0  0
  1  2  1  0
  2  3  1  0
  2  4  1  0
  4  5  1  0
  5  6  1  0
  6  7  1  0
  7  8  1  0
  8  9  1  0
  9 10  2  0
 10 11  1  0
 11 12  2  0
 12 13  1  0
 13 14  2  0
 14 15  1  0
 15 16  1  0
 16 17  2  0
  6 18  1  0
 14  9  1  0
M  END
$$$$
