
     RDKit          3D

 18 18  0  0  0  0  0  0  0  0999 V2000
   -0.6314   -0.6706   12.5512 C   0  0  0  0  0  0  0  0  0  0  0  0
    0.6462   -0.1720   11.9676 C   0  0  0  0  0  0  0  0  0  0  0  0
    1.0227    1.1945   12.4883 C   0  0  0  0  0  0  0  0  0  0  0  0
    0.6854   -0.1461   10.5476 N   0  0  0  0  0  0  0  0  0  0  0  0
    0.9854   -1.3825    9.9078 C   0  0  0  0  0  0  0  0  0  0  0  0
    0.7247   -1.1852    8.4058 C   0  0  0  0  0  0  0  0  0  0  0  0
    2.0317   -1.2016    7.6428 C   0  0  0  0  0  0  0  0  0  0  0  0
    2.7411   -2.3305    7.6283 O   0  0  0  0  0  0  0  0  0  0  0  0
    3.5826   -3.1215    7.0004 C   0  0  0  0  0  0  0  0  0  0  0  0
    3.6219   -3.2811    5.6374 C   0  0  0  0  0  0  0  0  0  0  0  0
    4.5489   -4.1464    5.0435 C   0  0  0  0  0  0  0  0  0  0  0  0
    5.4314   -4.8469    5.8305 C   0  0  0  0  0  0  0  0  0  0  0  0
    5.3903   -4.6869    7.1914 C   0  0  0  0  0  0  0  0  0  0  0  0
    4.4965   -3.8493    7.7955 C   0  0  0  0  0  0  0  0  0  0  0  0
    4.4646   -3.6850    9.2929 C   0  0  0  0  0  0  0  0  0  0  0  0
    5.6567   -2.9250    9.6899 C   0  0  0  0  0  0  0  0  0  0  0  0
    5.8833   -2.6909   10.9711 C   0  0  0  0  0  0  0  0  0  0  0  0
   -0.1159   -2.1539    7.9136 O   0  0  0  0  0  0  0  0  0  0  0  0
  1  2  1  0
  2  3  1  0
  2  4  1  0
  4  5  1  0
  5  6  1  0
  6  7  1  0
  7  8  1  0
  8  9  1  0
  9 10  2  0
 10 11  1  0
 11 12  2  0
 12 13  1  0
 13 14  2  0
 14 15  1  0
 15 16  1  0
 16 17  2  0
  6 18  1  0
 14  9  1  0
M  END
$$$$
