
     RDKit          3D

 18 18  0  0  0  0  0  0  0  0999 V2000
    4.7246   -5.2374    7.5663 C   0  0  0  0  0  0  0  0  0  0  0  0
    4.4626   -4.2457    6.4850 C   0  0  0  0  0  0  0  0  0  0  0  0
    5.6110   -4.1397    5.5101 C   0  0  0  0  0  0  0  0  0  0  0  0
    4.1265   -2.9416    6.9377 N   0  0  0  0  0  0  0  0  0  0  0  0
    2.9824   -2.8479    7.7805 C   0  0  0  0  0  0  0  0  0  0  0  0
    1.9272   -2.0329    7.0155 C   0  0  0  0  0  0  0  0  0  0  0  0
    0.7329   -1.7607    7.9046 C   0  0  0  0  0  0  0  0  0  0  0  0
    0.9540   -1.3081    9.1392 O   0  0  0  0  0  0  0  0  0  0  0  0
    0.4704   -0.8433   10.2696 C   0  0  0  0  0  0  0  0  0  0  0  0
   -0.8693   -0.7233   10.5450 C   0  0  0  0  0  0  0  0  0  0  0  0
   -1.3055   -0.2157   11.7750 C   0  0  0  0  0  0  0  0  0  0  0  0
   -0.3853    0.1688   12.7206 C   0  0  0  0  0  0  0  0  0  0  0  0
    0.9520    0.0490   12.4437 C   0  0  0  0  0  0  0  0  0  0  0  0
    1.4036   -0.4431   11.2524 C   0  0  0  0  0  0  0  0  0  0  0  0
    2.8772   -0.5682   10.9640 C   0  0  0  0  0  0  0  0  0  0  0  0
    3.3196   -1.8871   11.4342 C   0  0  0  0  0  0  0  0  0  0  0  0
    4.5461   -2.2982   11.1615 C   0  0  0  0  0  0  0  0  0  0  0  0
    2.4481   -0.8475    6.5567 O   0  0  0  0  0  0  0  0  0  0  0  0
  1  2  1  0
  2  3  1  0
  2  4  1  0
  4  5  1  0
  5  6  1  0
  6  7  1  0
  7  8  1  0
  8  9  1  0
  9 10  2  0
 10 11  1  0
 11 12  2  0
 12 13  1  0
 13 14  2  0
 14 15  1  0
 15 16  1  0
 16 17  2  0
  6 18  1  0
 14  9  1  0
M  END
$$$$
