
     RDKit          3D

 18 18  0  0  0  0  0  0  0  0999 V2000
    5.0958   -6.5305    7.6848 C   0  0  0  0  0  0  0  0  0  0  0  0
    4.5457   -5.7500    6.5404 C   0  0  0  0  0  0  0  0  0  0  0  0
    5.0216   -6.2719    5.2057 C   0  0  0  0  0  0  0  0  0  0  0  0
    4.7904   -4.3516    6.5972 N   0  0  0  0  0  0  0  0  0  0  0  0
    3.9563   -3.6063    7.4785 C   0  0  0  0  0  0  0  0  0  0  0  0
    4.2377   -2.1188    7.2119 C   0  0  0  0  0  0  0  0  0  0  0  0
    2.9554   -1.3203    7.3054 C   0  0  0  0  0  0  0  0  0  0  0  0
    2.2507   -1.3861    8.4354 O   0  0  0  0  0  0  0  0  0  0  0  0
    1.1068   -1.2108    9.0588 C   0  0  0  0  0  0  0  0  0  0  0  0
   -0.0799   -0.9270    8.4296 C   0  0  0  0  0  0  0  0  0  0  0  0
   -1.2578   -0.7519    9.1663 C   0  0  0  0  0  0  0  0  0  0  0  0
   -1.2303   -0.8638   10.5357 C   0  0  0  0  0  0  0  0  0  0  0  0
   -0.0442   -1.1465   11.1625 C   0  0  0  0  0  0  0  0  0  0  0  0
    1.1182   -1.3222   10.4675 C   0  0  0  0  0  0  0  0  0  0  0  0
    2.4135   -1.6324   11.1720 C   0  0  0  0  0  0  0  0  0  0  0  0
    2.7551   -0.4815   12.0177 C   0  0  0  0  0  0  0  0  0  0  0  0
    3.8466   -0.5216   12.7624 C   0  0  0  0  0  0  0  0  0  0  0  0
    5.1644   -1.6200    8.0948 O   0  0  0  0  0  0  0  0  0  0  0  0
  1  2  1  0
  2  3  1  0
  2  4  1  0
  4  5  1  0
  5  6  1  0
  6  7  1  0
  7  8  1  0
  8  9  1  0
  9 10  2  0
 10 11  1  0
 11 12  2  0
 12 13  1  0
 13 14  2  0
 14 15  1  0
 15 16  1  0
 16 17  2  0
  6 18  1  0
 14  9  1  0
M  END
$$$$
