
     RDKit          3D

 18 18  0  0  0  0  0  0  0  0999 V2000
    1.0574   -4.0236   14.3201 C   0  0  0  0  0  0  0  0  0  0  0  0
    1.0022   -4.4472   12.8922 C   0  0  0  0  0  0  0  0  0  0  0  0
    0.7300   -5.9247   12.7399 C   0  0  0  0  0  0  0  0  0  0  0  0
    2.1499   -4.1131   12.1242 N   0  0  0  0  0  0  0  0  0  0  0  0
    2.3484   -2.7265   11.8677 C   0  0  0  0  0  0  0  0  0  0  0  0
    3.5668   -2.6123   10.9372 C   0  0  0  0  0  0  0  0  0  0  0  0
    3.1663   -1.9618    9.6307 C   0  0  0  0  0  0  0  0  0  0  0  0
    3.3855   -2.6306    8.4982 O   0  0  0  0  0  0  0  0  0  0  0  0
    3.1440   -2.7773    7.2144 C   0  0  0  0  0  0  0  0  0  0  0  0
    2.2603   -2.0053    6.5017 C   0  0  0  0  0  0  0  0  0  0  0  0
    2.0569   -2.2261    5.1340 C   0  0  0  0  0  0  0  0  0  0  0  0
    2.7473   -3.2269    4.4934 C   0  0  0  0  0  0  0  0  0  0  0  0
    3.6288   -3.9973    5.2067 C   0  0  0  0  0  0  0  0  0  0  0  0
    3.8458   -3.8025    6.5409 C   0  0  0  0  0  0  0  0  0  0  0  0
    4.8182   -4.6584    7.3102 C   0  0  0  0  0  0  0  0  0  0  0  0
    6.1569   -4.0760    7.1516 C   0  0  0  0  0  0  0  0  0  0  0  0
    7.1977   -4.6754    7.7038 C   0  0  0  0  0  0  0  0  0  0  0  0
    4.5790   -1.8941   11.5260 O   0  0  0  0  0  0  0  0  0  0  0  0
  1  2  1  0
  2  3  1  0
  2  4  1  0
  4  5  1  0
  5  6  1  0
  6  7  1  0
  7  8  1  0
  8  9  1  0
  9 10  2  0
 10 11  1  0
 11 12  2  0
 12 13  1  0
 13 14  2  0
 14 15  1  0
 15 16  1  0
 16 17  2  0
  6 18  1  0
 14  9  1  0
M  END
$$$$
