
     RDKit          3D

 18 18  0  0  0  0  0  0  0  0999 V2000
    5.7693   -3.4821    6.7600 C   0  0  0  0  0  0  0  0  0  0  0  0
    4.4262   -4.0898    6.5406 C   0  0  0  0  0  0  0  0  0  0  0  0
    4.3776   -4.9466    5.2982 C   0  0  0  0  0  0  0  0  0  0  0  0
    3.3499   -3.1632    6.4984 N   0  0  0  0  0  0  0  0  0  0  0  0
    3.0647   -2.4804    7.7150 C   0  0  0  0  0  0  0  0  0  0  0  0
    1.6869   -1.8199    7.5466 C   0  0  0  0  0  0  0  0  0  0  0  0
    1.4985   -0.7341    8.5840 C   0  0  0  0  0  0  0  0  0  0  0  0
    1.9409   -0.9586    9.8216 O   0  0  0  0  0  0  0  0  0  0  0  0
    1.9435   -0.6235   11.0927 C   0  0  0  0  0  0  0  0  0  0  0  0
    1.1121    0.3196   11.6443 C   0  0  0  0  0  0  0  0  0  0  0  0
    1.1780    0.6223   13.0099 C   0  0  0  0  0  0  0  0  0  0  0  0
    2.0845   -0.0294   13.8113 C   0  0  0  0  0  0  0  0  0  0  0  0
    2.9144   -0.9704   13.2587 C   0  0  0  0  0  0  0  0  0  0  0  0
    2.8702   -1.2843   11.9302 C   0  0  0  0  0  0  0  0  0  0  0  0
    3.7897   -2.3210   11.3387 C   0  0  0  0  0  0  0  0  0  0  0  0
    5.1403   -1.7475   11.2812 C   0  0  0  0  0  0  0  0  0  0  0  0
    6.1505   -2.4989   10.8781 C   0  0  0  0  0  0  0  0  0  0  0  0
    1.5362   -1.2937    6.2866 O   0  0  0  0  0  0  0  0  0  0  0  0
  1  2  1  0
  2  3  1  0
  2  4  1  0
  4  5  1  0
  5  6  1  0
  6  7  1  0
  7  8  1  0
  8  9  1  0
  9 10  2  0
 10 11  1  0
 11 12  2  0
 12 13  1  0
 13 14  2  0
 14 15  1  0
 15 16  1  0
 16 17  2  0
  6 18  1  0
 14  9  1  0
M  END
$$$$
