
     RDKit          3D

 18 18  0  0  0  0  0  0  0  0999 V2000
   -0.9610    1.0498   11.2865 C   0  0  0  0  0  0  0  0  0  0  0  0
   -1.2426   -0.0869   10.3646 C   0  0  0  0  0  0  0  0  0  0  0  0
   -2.6580   -0.5968   10.4944 C   0  0  0  0  0  0  0  0  0  0  0  0
   -0.3493   -1.1858   10.4794 N   0  0  0  0  0  0  0  0  0  0  0  0
    0.9238   -1.0236    9.8623 C   0  0  0  0  0  0  0  0  0  0  0  0
    1.7140   -2.3173   10.1173 C   0  0  0  0  0  0  0  0  0  0  0  0
    1.8424   -3.1116    8.8353 C   0  0  0  0  0  0  0  0  0  0  0  0
    3.0636   -3.3305    8.3469 O   0  0  0  0  0  0  0  0  0  0  0  0
    3.8201   -3.7452    7.3551 C   0  0  0  0  0  0  0  0  0  0  0  0
    3.3670   -3.9646    6.0778 C   0  0  0  0  0  0  0  0  0  0  0  0
    4.2374   -4.4094    5.0751 C   0  0  0  0  0  0  0  0  0  0  0  0
    5.5615   -4.6309    5.3685 C   0  0  0  0  0  0  0  0  0  0  0  0
    6.0122   -4.4120    6.6446 C   0  0  0  0  0  0  0  0  0  0  0  0
    5.1844   -3.9781    7.6405 C   0  0  0  0  0  0  0  0  0  0  0  0
    5.6959   -3.7424    9.0380 C   0  0  0  0  0  0  0  0  0  0  0  0
    6.4766   -4.9200    9.4383 C   0  0  0  0  0  0  0  0  0  0  0  0
    7.0705   -4.9371   10.6192 C   0  0  0  0  0  0  0  0  0  0  0  0
    2.9609   -2.0483   10.6272 O   0  0  0  0  0  0  0  0  0  0  0  0
  1  2  1  0
  2  3  1  0
  2  4  1  0
  4  5  1  0
  5  6  1  0
  6  7  1  0
  7  8  1  0
  8  9  1  0
  9 10  2  0
 10 11  1  0
 11 12  2  0
 12 13  1  0
 13 14  2  0
 14 15  1  0
 15 16  1  0
 16 17  2  0
  6 18  1  0
 14  9  1  0
M  END
$$$$
