
     RDKit          3D

 18 18  0  0  0  0  0  0  0  0999 V2000
   -0.9351   -2.0460   10.4228 C   0  0  0  0  0  0  0  0  0  0  0  0
   -0.1435   -0.8207   10.7281 C   0  0  0  0  0  0  0  0  0  0  0  0
   -0.6621    0.3964   10.0001 C   0  0  0  0  0  0  0  0  0  0  0  0
    1.2524   -0.9352   10.4889 N   0  0  0  0  0  0  0  0  0  0  0  0
    1.8458   -2.1825   10.8354 C   0  0  0  0  0  0  0  0  0  0  0  0
    3.3692   -1.9798   10.7997 C   0  0  0  0  0  0  0  0  0  0  0  0
    4.0311   -3.1268   10.0668 C   0  0  0  0  0  0  0  0  0  0  0  0
    3.9995   -3.1274    8.7338 O   0  0  0  0  0  0  0  0  0  0  0  0
    4.4112   -3.6492    7.5998 C   0  0  0  0  0  0  0  0  0  0  0  0
    5.3720   -4.6250    7.5025 C   0  0  0  0  0  0  0  0  0  0  0  0
    5.7582   -5.1288    6.2543 C   0  0  0  0  0  0  0  0  0  0  0  0
    5.1715   -4.6433    5.1103 C   0  0  0  0  0  0  0  0  0  0  0  0
    4.2127   -3.6684    5.2092 C   0  0  0  0  0  0  0  0  0  0  0  0
    3.8180   -3.1604    6.4139 C   0  0  0  0  0  0  0  0  0  0  0  0
    2.7627   -2.0888    6.5050 C   0  0  0  0  0  0  0  0  0  0  0  0
    1.4628   -2.7484    6.6830 C   0  0  0  0  0  0  0  0  0  0  0  0
    0.3965   -2.0205    6.9671 C   0  0  0  0  0  0  0  0  0  0  0  0
    3.7005   -0.7890   10.2005 O   0  0  0  0  0  0  0  0  0  0  0  0
  1  2  1  0
  2  3  1  0
  2  4  1  0
  4  5  1  0
  5  6  1  0
  6  7  1  0
  7  8  1  0
  8  9  1  0
  9 10  2  0
 10 11  1  0
 11 12  2  0
 12 13  1  0
 13 14  2  0
 14 15  1  0
 15 16  1  0
 16 17  2  0
  6 18  1  0
 14  9  1  0
M  END
$$$$
