
     RDKit          3D

 18 18  0  0  0  0  0  0  0  0999 V2000
   -1.9786    1.0569   11.1771 C   0  0  0  0  0  0  0  0  0  0  0  0
   -1.4035    0.1468   10.1463 C   0  0  0  0  0  0  0  0  0  0  0  0
   -2.4416   -0.7688    9.5427 C   0  0  0  0  0  0  0  0  0  0  0  0
   -0.3041   -0.6377   10.5872 N   0  0  0  0  0  0  0  0  0  0  0  0
    0.5485   -1.1482    9.5672 C   0  0  0  0  0  0  0  0  0  0  0  0
    1.7094   -1.8686   10.2718 C   0  0  0  0  0  0  0  0  0  0  0  0
    2.0653   -3.1371    9.5267 C   0  0  0  0  0  0  0  0  0  0  0  0
    3.1141   -3.1136    8.7036 O   0  0  0  0  0  0  0  0  0  0  0  0
    3.6297   -3.4083    7.5309 C   0  0  0  0  0  0  0  0  0  0  0  0
    2.9330   -3.3671    6.3487 C   0  0  0  0  0  0  0  0  0  0  0  0
    3.5547   -3.6984    5.1385 C   0  0  0  0  0  0  0  0  0  0  0  0
    4.8776   -4.0703    5.1293 C   0  0  0  0  0  0  0  0  0  0  0  0
    5.5717   -4.1115    6.3108 C   0  0  0  0  0  0  0  0  0  0  0  0
    4.9892   -3.7931    7.5043 C   0  0  0  0  0  0  0  0  0  0  0  0
    5.7665   -3.8436    8.7942 C   0  0  0  0  0  0  0  0  0  0  0  0
    5.6005   -5.1844    9.3698 C   0  0  0  0  0  0  0  0  0  0  0  0
    6.5747   -5.7074   10.0943 C   0  0  0  0  0  0  0  0  0  0  0  0
    2.8143   -1.0582   10.3691 O   0  0  0  0  0  0  0  0  0  0  0  0
  1  2  1  0
  2  3  1  0
  2  4  1  0
  4  5  1  0
  5  6  1  0
  6  7  1  0
  7  8  1  0
  8  9  1  0
  9 10  2  0
 10 11  1  0
 11 12  2  0
 12 13  1  0
 13 14  2  0
 14 15  1  0
 15 16  1  0
 16 17  2  0
  6 18  1  0
 14  9  1  0
M  END
$$$$
