
     RDKit          3D

 36 40  0  0  0  0  0  0  0  0999 V2000
    4.3203    6.6061   12.7597 C   0  0  0  0  0  0  0  0  0  0  0  0
    5.5011    5.9353   12.9768 C   0  0  0  0  0  0  0  0  0  0  0  0
    5.6986    4.6697   12.4775 C   0  0  0  0  0  0  0  0  0  0  0  0
    4.7455    4.0206   11.7495 C   0  0  0  0  0  0  0  0  0  0  0  0
    3.5408    4.6948   11.5233 C   0  0  0  0  0  0  0  0  0  0  0  0
    3.3551    5.9514   12.0237 C   0  0  0  0  0  0  0  0  0  0  0  0
    4.9558    2.6612   11.2124 C   0  0  0  0  0  0  0  0  0  0  0  0
    4.3738    1.6158   12.1248 C   0  0  0  0  0  0  0  0  0  0  0  0
    3.2592    0.8737   11.4282 C   0  0  0  0  0  0  0  0  0  0  0  0
    2.2782    0.3739   12.4681 C   0  0  0  0  0  0  0  0  0  0  0  0
    2.7238   -0.8954   12.8851 O   0  0  0  0  0  0  0  0  0  0  0  0
    1.9068   -1.8037   13.5368 C   0  0  0  0  0  0  0  0  0  0  0  0
    2.4128   -2.9324   14.1605 C   0  0  0  0  0  0  0  0  0  0  0  0
    1.5477   -3.8090   14.7988 C   0  0  0  0  0  0  0  0  0  0  0  0
    0.1934   -3.6043   14.8402 C   0  0  0  0  0  0  0  0  0  0  0  0
   -0.2886   -2.4767   14.2143 C   0  0  0  0  0  0  0  0  0  0  0  0
    0.5479   -1.5772   13.5655 C   0  0  0  0  0  0  0  0  0  0  0  0
   -0.7329   -4.5077   15.5024 C   0  0  0  0  0  0  0  0  0  0  0  0
   -0.5399   -5.7459   15.4217 O   0  0  0  0  0  0  0  0  0  0  0  0
   -1.8601   -4.0831   16.2472 N   0  0  0  0  0  0  0  0  0  0  0  0
   -2.5929   -4.9294   17.1250 C   0  0  0  0  0  0  0  0  0  0  0  0
   -2.8491   -6.2510   16.8256 C   0  0  0  0  0  0  0  0  0  0  0  0
   -3.5637   -7.0832   17.6774 C   0  0  0  0  0  0  0  0  0  0  0  0
   -4.0371   -6.5704   18.8706 C   0  0  0  0  0  0  0  0  0  0  0  0
   -3.8028   -5.2566   19.2063 C   0  0  0  0  0  0  0  0  0  0  0  0
   -3.0896   -4.4569   18.3381 C   0  0  0  0  0  0  0  0  0  0  0  0
   -2.8245   -3.1875   18.5897 O   0  0  0  0  0  0  0  0  0  0  0  0
   -3.2474   -2.6434   19.7064 C   0  0  0  0  0  0  0  0  0  0  0  0
   -3.9691   -3.3892   20.6227 C   0  0  0  0  0  0  0  0  0  0  0  0
   -4.2735   -4.7181   20.4096 C   0  0  0  0  0  0  0  0  0  0  0  0
   -4.9138   -5.4369   21.1887 O   0  0  0  0  0  0  0  0  0  0  0  0
   -2.9737   -1.2324   20.0256 C   0  0  0  0  0  0  0  0  0  0  0  0
   -3.4018   -0.5138   21.0792 N   0  0  0  0  0  0  0  0  0  0  0  0
   -2.9546    0.7131   21.0283 N   0  0  0  0  0  0  0  0  0  0  0  0
   -2.2238    0.7989   19.9265 N   0  0  0  0  0  0  0  0  0  0  0  0
   -2.2233   -0.3868   19.2964 N   0  0  0  0  0  0  0  0  0  0  0  0
  1  2  2  0
  2  3  1  0
  3  4  2  0
  4  5  1  0
  5  6  2  0
  4  7  1  0
  7  8  1  0
  8  9  1  0
  9 10  1  0
 10 11  1  0
 11 12  1  0
 12 13  2  0
 13 14  1  0
 14 15  2  0
 15 16  1  0
 16 17  2  0
 15 18  1  0
 18 19  2  0
 18 20  1  0
 20 21  1  0
 21 22  2  0
 22 23  1  0
 23 24  2  0
 24 25  1  0
 25 26  2  0
 26 27  1  0
 27 28  1  0
 28 29  2  0
 29 30  1  0
 30 31  2  0
 28 32  1  0
 32 33  2  0
 33 34  1  0
 34 35  1  0
 35 36  2  0
  6  1  1  0
 17 12  1  0
 26 21  1  0
 30 25  1  0
 36 32  1  0
M  END
$$$$
