
     RDKit          3D

 36 40  0  0  0  0  0  0  0  0999 V2000
    7.1274    0.4238   18.2862 C   0  0  0  0  0  0  0  0  0  0  0  0
    6.2875    1.4628   18.6125 C   0  0  0  0  0  0  0  0  0  0  0  0
    5.3801    1.9522   17.7031 C   0  0  0  0  0  0  0  0  0  0  0  0
    5.2663    1.4394   16.4446 C   0  0  0  0  0  0  0  0  0  0  0  0
    6.1164    0.3822   16.1030 C   0  0  0  0  0  0  0  0  0  0  0  0
    7.0140   -0.0962   17.0139 C   0  0  0  0  0  0  0  0  0  0  0  0
    4.2923    1.9638   15.4664 C   0  0  0  0  0  0  0  0  0  0  0  0
    2.8845    1.5843   15.8380 C   0  0  0  0  0  0  0  0  0  0  0  0
    1.9250    1.9984   14.7489 C   0  0  0  0  0  0  0  0  0  0  0  0
    2.1900    1.1588   13.5167 C   0  0  0  0  0  0  0  0  0  0  0  0
    1.0548    0.3512   13.3108 O   0  0  0  0  0  0  0  0  0  0  0  0
    1.1074   -1.0323   13.2959 C   0  0  0  0  0  0  0  0  0  0  0  0
    0.0726   -1.8130   13.7845 C   0  0  0  0  0  0  0  0  0  0  0  0
    0.1788   -3.1955   13.7445 C   0  0  0  0  0  0  0  0  0  0  0  0
    1.2797   -3.8329   13.2349 C   0  0  0  0  0  0  0  0  0  0  0  0
    2.2964   -3.0386   12.7546 C   0  0  0  0  0  0  0  0  0  0  0  0
    2.2244   -1.6515   12.7786 C   0  0  0  0  0  0  0  0  0  0  0  0
    1.4142   -5.2792   13.1821 C   0  0  0  0  0  0  0  0  0  0  0  0
    2.4202   -5.7780   12.6197 O   0  0  0  0  0  0  0  0  0  0  0  0
    0.4733   -6.1845   13.7305 N   0  0  0  0  0  0  0  0  0  0  0  0
    0.4613   -7.5792   13.4505 C   0  0  0  0  0  0  0  0  0  0  0  0
    1.5882   -8.3634   13.5816 C   0  0  0  0  0  0  0  0  0  0  0  0
    1.5841   -9.7254   13.3102 C   0  0  0  0  0  0  0  0  0  0  0  0
    0.4081  -10.3200   12.8928 C   0  0  0  0  0  0  0  0  0  0  0  0
   -0.7382   -9.5723   12.7495 C   0  0  0  0  0  0  0  0  0  0  0  0
   -0.7003   -8.2220   13.0273 C   0  0  0  0  0  0  0  0  0  0  0  0
   -1.7580   -7.4389   12.9136 O   0  0  0  0  0  0  0  0  0  0  0  0
   -2.9033   -7.9451   12.5215 C   0  0  0  0  0  0  0  0  0  0  0  0
   -3.0119   -9.2934   12.2262 C   0  0  0  0  0  0  0  0  0  0  0  0
   -1.9391  -10.1553   12.3281 C   0  0  0  0  0  0  0  0  0  0  0  0
   -1.9723  -11.3679   12.0789 O   0  0  0  0  0  0  0  0  0  0  0  0
   -4.1062   -7.1076   12.3817 C   0  0  0  0  0  0  0  0  0  0  0  0
   -5.2941   -7.4318   11.8401 N   0  0  0  0  0  0  0  0  0  0  0  0
   -6.1279   -6.4268   11.8919 N   0  0  0  0  0  0  0  0  0  0  0  0
   -5.4769   -5.4312   12.4753 N   0  0  0  0  0  0  0  0  0  0  0  0
   -4.2325   -5.8300   12.7839 N   0  0  0  0  0  0  0  0  0  0  0  0
  1  2  2  0
  2  3  1  0
  3  4  2  0
  4  5  1  0
  5  6  2  0
  4  7  1  0
  7  8  1  0
  8  9  1  0
  9 10  1  0
 10 11  1  0
 11 12  1  0
 12 13  2  0
 13 14  1  0
 14 15  2  0
 15 16  1  0
 16 17  2  0
 15 18  1  0
 18 19  2  0
 18 20  1  0
 20 21  1  0
 21 22  2  0
 22 23  1  0
 23 24  2  0
 24 25  1  0
 25 26  2  0
 26 27  1  0
 27 28  1  0
 28 29  2  0
 29 30  1  0
 30 31  2  0
 28 32  1  0
 32 33  2  0
 33 34  1  0
 34 35  1  0
 35 36  2  0
  6  1  1  0
 17 12  1  0
 26 21  1  0
 30 25  1  0
 36 32  1  0
M  END
$$$$
