
     RDKit          3D

 36 40  0  0  0  0  0  0  0  0999 V2000
   -7.5618   -5.0070   20.6527 C   0  0  0  0  0  0  0  0  0  0  0  0
   -6.3741   -5.1886   21.3220 C   0  0  0  0  0  0  0  0  0  0  0  0
   -5.2810   -5.7319   20.6896 C   0  0  0  0  0  0  0  0  0  0  0  0
   -5.3163   -6.1148   19.3812 C   0  0  0  0  0  0  0  0  0  0  0  0
   -6.5201   -5.9341   18.6918 C   0  0  0  0  0  0  0  0  0  0  0  0
   -7.5997   -5.3936   19.3294 C   0  0  0  0  0  0  0  0  0  0  0  0
   -4.1432   -6.6986   18.7003 C   0  0  0  0  0  0  0  0  0  0  0  0
   -3.9941   -6.1564   17.3046 C   0  0  0  0  0  0  0  0  0  0  0  0
   -3.6217   -4.6944   17.3470 C   0  0  0  0  0  0  0  0  0  0  0  0
   -2.5503   -4.4310   16.3095 C   0  0  0  0  0  0  0  0  0  0  0  0
   -1.5411   -3.6742   16.9358 O   0  0  0  0  0  0  0  0  0  0  0  0
   -0.4092   -3.2328   16.2717 C   0  0  0  0  0  0  0  0  0  0  0  0
    0.5138   -2.3912   16.8708 C   0  0  0  0  0  0  0  0  0  0  0  0
    1.6306   -1.9799   16.1582 C   0  0  0  0  0  0  0  0  0  0  0  0
    1.8647   -2.3758   14.8673 C   0  0  0  0  0  0  0  0  0  0  0  0
    0.9352   -3.2120   14.2908 C   0  0  0  0  0  0  0  0  0  0  0  0
   -0.1945   -3.6438   14.9742 C   0  0  0  0  0  0  0  0  0  0  0  0
    3.0268   -1.9587   14.1004 C   0  0  0  0  0  0  0  0  0  0  0  0
    3.5007   -2.7392   13.2383 O   0  0  0  0  0  0  0  0  0  0  0  0
    3.6759   -0.7100   14.2587 N   0  0  0  0  0  0  0  0  0  0  0  0
    4.8311   -0.3203   13.5258 C   0  0  0  0  0  0  0  0  0  0  0  0
    5.8424   -1.2082   13.2240 C   0  0  0  0  0  0  0  0  0  0  0  0
    6.9730   -0.8351   12.5091 C   0  0  0  0  0  0  0  0  0  0  0  0
    7.0920    0.4744   12.0826 C   0  0  0  0  0  0  0  0  0  0  0  0
    6.1048    1.3912   12.3633 C   0  0  0  0  0  0  0  0  0  0  0  0
    4.9947    0.9881   13.0754 C   0  0  0  0  0  0  0  0  0  0  0  0
    4.0064    1.8087   13.3834 O   0  0  0  0  0  0  0  0  0  0  0  0
    4.0616    3.0643   13.0063 C   0  0  0  0  0  0  0  0  0  0  0  0
    5.1475    3.5357   12.2883 C   0  0  0  0  0  0  0  0  0  0  0  0
    6.2062    2.7218   11.9405 C   0  0  0  0  0  0  0  0  0  0  0  0
    7.2033    3.0828   11.3011 O   0  0  0  0  0  0  0  0  0  0  0  0
    2.9818    4.0118   13.3286 C   0  0  0  0  0  0  0  0  0  0  0  0
    2.9892    5.3538   13.2344 N   0  0  0  0  0  0  0  0  0  0  0  0
    1.8448    5.8609   13.6099 N   0  0  0  0  0  0  0  0  0  0  0  0
    1.0778    4.8371   13.9546 N   0  0  0  0  0  0  0  0  0  0  0  0
    1.7588    3.6918   13.7886 N   0  0  0  0  0  0  0  0  0  0  0  0
  1  2  2  0
  2  3  1  0
  3  4  2  0
  4  5  1  0
  5  6  2  0
  4  7  1  0
  7  8  1  0
  8  9  1  0
  9 10  1  0
 10 11  1  0
 11 12  1  0
 12 13  2  0
 13 14  1  0
 14 15  2  0
 15 16  1  0
 16 17  2  0
 15 18  1  0
 18 19  2  0
 18 20  1  0
 20 21  1  0
 21 22  2  0
 22 23  1  0
 23 24  2  0
 24 25  1  0
 25 26  2  0
 26 27  1  0
 27 28  1  0
 28 29  2  0
 29 30  1  0
 30 31  2  0
 28 32  1  0
 32 33  2  0
 33 34  1  0
 34 35  1  0
 35 36  2  0
  6  1  1  0
 17 12  1  0
 26 21  1  0
 30 25  1  0
 36 32  1  0
M  END
$$$$
