
     RDKit          3D

 36 40  0  0  0  0  0  0  0  0999 V2000
   -4.6465  -11.4171   15.3909 C   0  0  0  0  0  0  0  0  0  0  0  0
   -4.3029  -10.9216   16.6269 C   0  0  0  0  0  0  0  0  0  0  0  0
   -4.4226   -9.5819   16.9109 C   0  0  0  0  0  0  0  0  0  0  0  0
   -4.8827   -8.6844   15.9930 C   0  0  0  0  0  0  0  0  0  0  0  0
   -5.2348   -9.1788   14.7326 C   0  0  0  0  0  0  0  0  0  0  0  0
   -5.1121  -10.5112   14.4611 C   0  0  0  0  0  0  0  0  0  0  0  0
   -5.0119   -7.2450   16.2961 C   0  0  0  0  0  0  0  0  0  0  0  0
   -3.7057   -6.5244   16.0996 C   0  0  0  0  0  0  0  0  0  0  0  0
   -3.8824   -5.3697   15.1439 C   0  0  0  0  0  0  0  0  0  0  0  0
   -2.9091   -4.2710   15.5170 C   0  0  0  0  0  0  0  0  0  0  0  0
   -1.6536   -4.6300   14.9896 O   0  0  0  0  0  0  0  0  0  0  0  0
   -0.5011   -3.8996   15.2252 C   0  0  0  0  0  0  0  0  0  0  0  0
    0.7616   -4.4350   15.0305 C   0  0  0  0  0  0  0  0  0  0  0  0
    1.8824   -3.6575   15.2824 C   0  0  0  0  0  0  0  0  0  0  0  0
    1.7941   -2.3627   15.7224 C   0  0  0  0  0  0  0  0  0  0  0  0
    0.5300   -1.8501   15.9094 C   0  0  0  0  0  0  0  0  0  0  0  0
   -0.6143   -2.5995   15.6673 C   0  0  0  0  0  0  0  0  0  0  0  0
    2.9531   -1.5284   15.9931 C   0  0  0  0  0  0  0  0  0  0  0  0
    3.4194   -1.4920   17.1585 O   0  0  0  0  0  0  0  0  0  0  0  0
    3.6073   -0.7377   15.0172 N   0  0  0  0  0  0  0  0  0  0  0  0
    4.5314    0.2982   15.3279 C   0  0  0  0  0  0  0  0  0  0  0  0
    5.6149    0.0907   16.1556 C   0  0  0  0  0  0  0  0  0  0  0  0
    6.5210    1.0971   16.4635 C   0  0  0  0  0  0  0  0  0  0  0  0
    6.3325    2.3547   15.9217 C   0  0  0  0  0  0  0  0  0  0  0  0
    5.2637    2.6027   15.0911 C   0  0  0  0  0  0  0  0  0  0  0  0
    4.3822    1.5813   14.8054 C   0  0  0  0  0  0  0  0  0  0  0  0
    3.3338    1.7413   14.0178 O   0  0  0  0  0  0  0  0  0  0  0  0
    3.1016    2.9125   13.4735 C   0  0  0  0  0  0  0  0  0  0  0  0
    3.9467    3.9815   13.7181 C   0  0  0  0  0  0  0  0  0  0  0  0
    5.0551    3.8690   14.5323 C   0  0  0  0  0  0  0  0  0  0  0  0
    5.8471    4.7856   14.7894 O   0  0  0  0  0  0  0  0  0  0  0  0
    1.9448    3.1336   12.5900 C   0  0  0  0  0  0  0  0  0  0  0  0
    1.5865    4.2585   11.9449 N   0  0  0  0  0  0  0  0  0  0  0  0
    0.4955    4.0776   11.2486 N   0  0  0  0  0  0  0  0  0  0  0  0
    0.1347    2.8172   11.4404 N   0  0  0  0  0  0  0  0  0  0  0  0
    1.0130    2.2203   12.2620 N   0  0  0  0  0  0  0  0  0  0  0  0
  1  2  2  0
  2  3  1  0
  3  4  2  0
  4  5  1  0
  5  6  2  0
  4  7  1  0
  7  8  1  0
  8  9  1  0
  9 10  1  0
 10 11  1  0
 11 12  1  0
 12 13  2  0
 13 14  1  0
 14 15  2  0
 15 16  1  0
 16 17  2  0
 15 18  1  0
 18 19  2  0
 18 20  1  0
 20 21  1  0
 21 22  2  0
 22 23  1  0
 23 24  2  0
 24 25  1  0
 25 26  2  0
 26 27  1  0
 27 28  1  0
 28 29  2  0
 29 30  1  0
 30 31  2  0
 28 32  1  0
 32 33  2  0
 33 34  1  0
 34 35  1  0
 35 36  2  0
  6  1  1  0
 17 12  1  0
 26 21  1  0
 30 25  1  0
 36 32  1  0
M  END
$$$$
