
     RDKit          3D

 36 40  0  0  0  0  0  0  0  0999 V2000
    3.3341    5.5413    9.0125 C   0  0  0  0  0  0  0  0  0  0  0  0
    3.2052    6.7038    9.7360 C   0  0  0  0  0  0  0  0  0  0  0  0
    3.3411    6.7051   11.1041 C   0  0  0  0  0  0  0  0  0  0  0  0
    3.6076    5.5674   11.8073 C   0  0  0  0  0  0  0  0  0  0  0  0
    3.7405    4.3797   11.0802 C   0  0  0  0  0  0  0  0  0  0  0  0
    3.6036    4.3897    9.7218 C   0  0  0  0  0  0  0  0  0  0  0  0
    3.7538    5.5668   13.2767 C   0  0  0  0  0  0  0  0  0  0  0  0
    4.0737    4.1907   13.7947 C   0  0  0  0  0  0  0  0  0  0  0  0
    2.8284    3.3383   13.8224 C   0  0  0  0  0  0  0  0  0  0  0  0
    3.2333    1.8811   13.9011 C   0  0  0  0  0  0  0  0  0  0  0  0
    2.0947    1.1532   14.2973 O   0  0  0  0  0  0  0  0  0  0  0  0
    2.0750   -0.2290   14.3781 C   0  0  0  0  0  0  0  0  0  0  0  0
    3.1401   -0.9509   14.8914 C   0  0  0  0  0  0  0  0  0  0  0  0
    3.0662   -2.3349   14.9486 C   0  0  0  0  0  0  0  0  0  0  0  0
    1.9687   -3.0303   14.5128 C   0  0  0  0  0  0  0  0  0  0  0  0
    0.9216   -2.2937   14.0063 C   0  0  0  0  0  0  0  0  0  0  0  0
    0.9608   -0.9070   13.9338 C   0  0  0  0  0  0  0  0  0  0  0  0
    1.8677   -4.4795   14.5623 C   0  0  0  0  0  0  0  0  0  0  0  0
    2.6744   -5.1229   15.2780 O   0  0  0  0  0  0  0  0  0  0  0  0
    0.9053   -5.2330   13.8470 N   0  0  0  0  0  0  0  0  0  0  0  0
    0.8953   -6.6544   13.7915 C   0  0  0  0  0  0  0  0  0  0  0  0
    1.9564   -7.3762   13.2863 C   0  0  0  0  0  0  0  0  0  0  0  0
    1.9538   -8.7638   13.2288 C   0  0  0  0  0  0  0  0  0  0  0  0
    0.8478   -9.4498   13.6946 C   0  0  0  0  0  0  0  0  0  0  0  0
   -0.2315   -8.7665   14.2063 C   0  0  0  0  0  0  0  0  0  0  0  0
   -0.1970   -7.3885   14.2491 C   0  0  0  0  0  0  0  0  0  0  0  0
   -1.1930   -6.6630   14.7254 O   0  0  0  0  0  0  0  0  0  0  0  0
   -2.2702   -7.2569   15.1822 C   0  0  0  0  0  0  0  0  0  0  0  0
   -2.3711   -8.6376   15.1689 C   0  0  0  0  0  0  0  0  0  0  0  0
   -1.3609   -9.4423   14.6830 C   0  0  0  0  0  0  0  0  0  0  0  0
   -1.3910  -10.6797   14.6442 O   0  0  0  0  0  0  0  0  0  0  0  0
   -3.4027   -6.4859   15.7214 C   0  0  0  0  0  0  0  0  0  0  0  0
   -4.5020   -6.9407   16.3495 N   0  0  0  0  0  0  0  0  0  0  0  0
   -5.2942   -5.9579   16.6881 N   0  0  0  0  0  0  0  0  0  0  0  0
   -4.7055   -4.8448   16.2761 N   0  0  0  0  0  0  0  0  0  0  0  0
   -3.5416   -5.1485   15.6794 N   0  0  0  0  0  0  0  0  0  0  0  0
  1  2  2  0
  2  3  1  0
  3  4  2  0
  4  5  1  0
  5  6  2  0
  4  7  1  0
  7  8  1  0
  8  9  1  0
  9 10  1  0
 10 11  1  0
 11 12  1  0
 12 13  2  0
 13 14  1  0
 14 15  2  0
 15 16  1  0
 16 17  2  0
 15 18  1  0
 18 19  2  0
 18 20  1  0
 20 21  1  0
 21 22  2  0
 22 23  1  0
 23 24  2  0
 24 25  1  0
 25 26  2  0
 26 27  1  0
 27 28  1  0
 28 29  2  0
 29 30  1  0
 30 31  2  0
 28 32  1  0
 32 33  2  0
 33 34  1  0
 34 35  1  0
 35 36  2  0
  6  1  1  0
 17 12  1  0
 26 21  1  0
 30 25  1  0
 36 32  1  0
M  END
$$$$
