
     RDKit          3D

 36 40  0  0  0  0  0  0  0  0999 V2000
    4.4817   -9.2429    6.9360 C   0  0  0  0  0  0  0  0  0  0  0  0
    4.0406   -8.1461    7.6387 C   0  0  0  0  0  0  0  0  0  0  0  0
    4.0220   -8.1465    9.0134 C   0  0  0  0  0  0  0  0  0  0  0  0
    4.4350   -9.2216    9.7438 C   0  0  0  0  0  0  0  0  0  0  0  0
    4.8856  -10.3422    9.0379 C   0  0  0  0  0  0  0  0  0  0  0  0
    4.8999  -10.3312    7.6727 C   0  0  0  0  0  0  0  0  0  0  0  0
    4.4158   -9.2239   11.2203 C   0  0  0  0  0  0  0  0  0  0  0  0
    3.8889   -7.9233   11.7633 C   0  0  0  0  0  0  0  0  0  0  0  0
    3.6589   -8.0310   13.2511 C   0  0  0  0  0  0  0  0  0  0  0  0
    2.3546   -7.3431   13.5966 C   0  0  0  0  0  0  0  0  0  0  0  0
    2.6691   -6.0288   13.9929 O   0  0  0  0  0  0  0  0  0  0  0  0
    1.7111   -5.1149   14.3984 C   0  0  0  0  0  0  0  0  0  0  0  0
    1.8941   -3.7485   14.2625 C   0  0  0  0  0  0  0  0  0  0  0  0
    0.9005   -2.8782   14.6860 C   0  0  0  0  0  0  0  0  0  0  0  0
   -0.2726   -3.3175   15.2417 C   0  0  0  0  0  0  0  0  0  0  0  0
   -0.4342   -4.6790   15.3676 C   0  0  0  0  0  0  0  0  0  0  0  0
    0.5393   -5.5798   14.9545 C   0  0  0  0  0  0  0  0  0  0  0  0
   -1.3281   -2.4258   15.6928 C   0  0  0  0  0  0  0  0  0  0  0  0
   -2.3782   -2.9182   16.1741 O   0  0  0  0  0  0  0  0  0  0  0  0
   -1.2556   -1.0130   15.6270 N   0  0  0  0  0  0  0  0  0  0  0  0
   -1.6114   -0.1517   16.7018 C   0  0  0  0  0  0  0  0  0  0  0  0
   -2.7375   -0.3634   17.4695 C   0  0  0  0  0  0  0  0  0  0  0  0
   -3.0913    0.4730   18.5202 C   0  0  0  0  0  0  0  0  0  0  0  0
   -2.2867    1.5591   18.8097 C   0  0  0  0  0  0  0  0  0  0  0  0
   -1.1544    1.8052   18.0674 C   0  0  0  0  0  0  0  0  0  0  0  0
   -0.8314    0.9550   17.0306 C   0  0  0  0  0  0  0  0  0  0  0  0
    0.2379    1.1249   16.2737 O   0  0  0  0  0  0  0  0  0  0  0  0
    1.0406    2.1381   16.4994 C   0  0  0  0  0  0  0  0  0  0  0  0
    0.7757    3.0303   17.5244 C   0  0  0  0  0  0  0  0  0  0  0  0
   -0.3265    2.8994   18.3443 C   0  0  0  0  0  0  0  0  0  0  0  0
   -0.6174    3.6622   19.2754 O   0  0  0  0  0  0  0  0  0  0  0  0
    2.2426    2.3638   15.6796 C   0  0  0  0  0  0  0  0  0  0  0  0
    3.1925    3.3049   15.8272 N   0  0  0  0  0  0  0  0  0  0  0  0
    4.1132    3.1966   14.9061 N   0  0  0  0  0  0  0  0  0  0  0  0
    3.7612    2.1707   14.1452 N   0  0  0  0  0  0  0  0  0  0  0  0
    2.6140    1.6455   14.6045 N   0  0  0  0  0  0  0  0  0  0  0  0
  1  2  2  0
  2  3  1  0
  3  4  2  0
  4  5  1  0
  5  6  2  0
  4  7  1  0
  7  8  1  0
  8  9  1  0
  9 10  1  0
 10 11  1  0
 11 12  1  0
 12 13  2  0
 13 14  1  0
 14 15  2  0
 15 16  1  0
 16 17  2  0
 15 18  1  0
 18 19  2  0
 18 20  1  0
 20 21  1  0
 21 22  2  0
 22 23  1  0
 23 24  2  0
 24 25  1  0
 25 26  2  0
 26 27  1  0
 27 28  1  0
 28 29  2  0
 29 30  1  0
 30 31  2  0
 28 32  1  0
 32 33  2  0
 33 34  1  0
 34 35  1  0
 35 36  2  0
  6  1  1  0
 17 12  1  0
 26 21  1  0
 30 25  1  0
 36 32  1  0
M  END
$$$$
