
     RDKit          3D

 36 40  0  0  0  0  0  0  0  0999 V2000
    1.8647    4.3695    7.1389 C   0  0  0  0  0  0  0  0  0  0  0  0
    0.6350    4.0139    7.6418 C   0  0  0  0  0  0  0  0  0  0  0  0
    0.4119    3.9644    8.9975 C   0  0  0  0  0  0  0  0  0  0  0  0
    1.3863    4.2617    9.9040 C   0  0  0  0  0  0  0  0  0  0  0  0
    2.6407    4.6246    9.4022 C   0  0  0  0  0  0  0  0  0  0  0  0
    2.8515    4.6706    8.0540 C   0  0  0  0  0  0  0  0  0  0  0  0
    1.1486    4.2091   11.3605 C   0  0  0  0  0  0  0  0  0  0  0  0
    0.3091    3.0181   11.7357 C   0  0  0  0  0  0  0  0  0  0  0  0
   -1.0206    3.4678   12.2907 C   0  0  0  0  0  0  0  0  0  0  0  0
   -1.6932    2.2909   12.9661 C   0  0  0  0  0  0  0  0  0  0  0  0
   -1.0594    2.1066   14.2102 O   0  0  0  0  0  0  0  0  0  0  0  0
   -0.3522    0.9607   14.5327 C   0  0  0  0  0  0  0  0  0  0  0  0
   -0.4320   -0.1922   13.7689 C   0  0  0  0  0  0  0  0  0  0  0  0
    0.2989   -1.3117   14.1388 C   0  0  0  0  0  0  0  0  0  0  0  0
    1.1090   -1.3275   15.2439 C   0  0  0  0  0  0  0  0  0  0  0  0
    1.1739   -0.1716   15.9890 C   0  0  0  0  0  0  0  0  0  0  0  0
    0.4562    0.9680   15.6485 C   0  0  0  0  0  0  0  0  0  0  0  0
    1.8841   -2.4875   15.6517 C   0  0  0  0  0  0  0  0  0  0  0  0
    1.8323   -3.5311   14.9551 O   0  0  0  0  0  0  0  0  0  0  0  0
    2.7102   -2.5259   16.8013 N   0  0  0  0  0  0  0  0  0  0  0  0
    3.8014   -3.4243   16.9617 C   0  0  0  0  0  0  0  0  0  0  0  0
    3.6231   -4.7902   17.0297 C   0  0  0  0  0  0  0  0  0  0  0  0
    4.6834   -5.6734   17.1863 C   0  0  0  0  0  0  0  0  0  0  0  0
    5.9665   -5.1675   17.2777 C   0  0  0  0  0  0  0  0  0  0  0  0
    6.1868   -3.8106   17.2143 C   0  0  0  0  0  0  0  0  0  0  0  0
    5.1119   -2.9608   17.0584 C   0  0  0  0  0  0  0  0  0  0  0  0
    5.2427   -1.6481   16.9892 O   0  0  0  0  0  0  0  0  0  0  0  0
    6.4358   -1.1079   17.0699 C   0  0  0  0  0  0  0  0  0  0  0  0
    7.5584   -1.9028   17.2269 C   0  0  0  0  0  0  0  0  0  0  0  0
    7.4782   -3.2782   17.3049 C   0  0  0  0  0  0  0  0  0  0  0  0
    8.4428   -4.0420   17.4449 O   0  0  0  0  0  0  0  0  0  0  0  0
    6.6257    0.3504   16.9972 C   0  0  0  0  0  0  0  0  0  0  0  0
    7.6592    1.0838   17.4485 N   0  0  0  0  0  0  0  0  0  0  0  0
    7.4790    2.3552   17.2054 N   0  0  0  0  0  0  0  0  0  0  0  0
    6.3118    2.4553   16.5866 N   0  0  0  0  0  0  0  0  0  0  0  0
    5.7717    1.2337   16.4493 N   0  0  0  0  0  0  0  0  0  0  0  0
  1  2  2  0
  2  3  1  0
  3  4  2  0
  4  5  1  0
  5  6  2  0
  4  7  1  0
  7  8  1  0
  8  9  1  0
  9 10  1  0
 10 11  1  0
 11 12  1  0
 12 13  2  0
 13 14  1  0
 14 15  2  0
 15 16  1  0
 16 17  2  0
 15 18  1  0
 18 19  2  0
 18 20  1  0
 20 21  1  0
 21 22  2  0
 22 23  1  0
 23 24  2  0
 24 25  1  0
 25 26  2  0
 26 27  1  0
 27 28  1  0
 28 29  2  0
 29 30  1  0
 30 31  2  0
 28 32  1  0
 32 33  2  0
 33 34  1  0
 34 35  1  0
 35 36  2  0
  6  1  1  0
 17 12  1  0
 26 21  1  0
 30 25  1  0
 36 32  1  0
M  END
$$$$
