
     RDKit          3D

 36 40  0  0  0  0  0  0  0  0999 V2000
   -3.4219   -7.3418    5.0101 C   0  0  0  0  0  0  0  0  0  0  0  0
   -2.3956   -8.2418    5.1776 C   0  0  0  0  0  0  0  0  0  0  0  0
   -1.9793   -8.6154    6.4335 C   0  0  0  0  0  0  0  0  0  0  0  0
   -2.5553   -8.1191    7.5657 C   0  0  0  0  0  0  0  0  0  0  0  0
   -3.6003   -7.2029    7.4056 C   0  0  0  0  0  0  0  0  0  0  0  0
   -4.0058   -6.8388    6.1538 C   0  0  0  0  0  0  0  0  0  0  0  0
   -2.1096   -8.5191    8.9154 C   0  0  0  0  0  0  0  0  0  0  0  0
   -1.5759   -7.3427    9.6870 C   0  0  0  0  0  0  0  0  0  0  0  0
   -1.6430   -7.6144   11.1702 C   0  0  0  0  0  0  0  0  0  0  0  0
   -1.0485   -6.4354   11.9120 C   0  0  0  0  0  0  0  0  0  0  0  0
    0.3092   -6.7301   12.1428 O   0  0  0  0  0  0  0  0  0  0  0  0
    1.1629   -5.8708   12.8136 C   0  0  0  0  0  0  0  0  0  0  0  0
    1.1080   -4.4973   12.6420 C   0  0  0  0  0  0  0  0  0  0  0  0
    1.9880   -3.6834   13.3400 C   0  0  0  0  0  0  0  0  0  0  0  0
    2.9240   -4.1862   14.2055 C   0  0  0  0  0  0  0  0  0  0  0  0
    2.9616   -5.5536   14.3614 C   0  0  0  0  0  0  0  0  0  0  0  0
    2.0960   -6.3990   13.6789 C   0  0  0  0  0  0  0  0  0  0  0  0
    3.8564   -3.3543   14.9479 C   0  0  0  0  0  0  0  0  0  0  0  0
    4.3436   -3.7913   16.0196 O   0  0  0  0  0  0  0  0  0  0  0  0
    4.2631   -2.0602   14.5410 N   0  0  0  0  0  0  0  0  0  0  0  0
    4.7251   -1.0575   15.4382 C   0  0  0  0  0  0  0  0  0  0  0  0
    5.5787   -1.3447   16.4827 C   0  0  0  0  0  0  0  0  0  0  0  0
    6.0337   -0.3713   17.3625 C   0  0  0  0  0  0  0  0  0  0  0  0
    5.6172    0.9351   17.1873 C   0  0  0  0  0  0  0  0  0  0  0  0
    4.7657    1.2629   16.1572 C   0  0  0  0  0  0  0  0  0  0  0  0
    4.3323    0.2723   15.3011 C   0  0  0  0  0  0  0  0  0  0  0  0
    3.5153    0.5083   14.2902 O   0  0  0  0  0  0  0  0  0  0  0  0
    3.0852    1.7287   14.0724 C   0  0  0  0  0  0  0  0  0  0  0  0
    3.4810    2.7707   14.8936 C   0  0  0  0  0  0  0  0  0  0  0  0
    4.3323    2.5796   15.9626 C   0  0  0  0  0  0  0  0  0  0  0  0
    4.7220    3.4684   16.7318 O   0  0  0  0  0  0  0  0  0  0  0  0
    2.1739    2.0348   12.9572 C   0  0  0  0  0  0  0  0  0  0  0  0
    2.0823    3.1676   12.2373 N   0  0  0  0  0  0  0  0  0  0  0  0
    1.1526    3.0737   11.3237 N   0  0  0  0  0  0  0  0  0  0  0  0
    0.6286    1.8631   11.4471 N   0  0  0  0  0  0  0  0  0  0  0  0
    1.2431    1.2091   12.4459 N   0  0  0  0  0  0  0  0  0  0  0  0
  1  2  2  0
  2  3  1  0
  3  4  2  0
  4  5  1  0
  5  6  2  0
  4  7  1  0
  7  8  1  0
  8  9  1  0
  9 10  1  0
 10 11  1  0
 11 12  1  0
 12 13  2  0
 13 14  1  0
 14 15  2  0
 15 16  1  0
 16 17  2  0
 15 18  1  0
 18 19  2  0
 18 20  1  0
 20 21  1  0
 21 22  2  0
 22 23  1  0
 23 24  2  0
 24 25  1  0
 25 26  2  0
 26 27  1  0
 27 28  1  0
 28 29  2  0
 29 30  1  0
 30 31  2  0
 28 32  1  0
 32 33  2  0
 33 34  1  0
 34 35  1  0
 35 36  2  0
  6  1  1  0
 17 12  1  0
 26 21  1  0
 30 25  1  0
 36 32  1  0
M  END
$$$$
