
     RDKit          3D

 36 40  0  0  0  0  0  0  0  0999 V2000
   -3.7768  -10.9292   11.0974 C   0  0  0  0  0  0  0  0  0  0  0  0
   -2.6689  -10.8089   10.2915 C   0  0  0  0  0  0  0  0  0  0  0  0
   -1.4451  -10.4673   10.8165 C   0  0  0  0  0  0  0  0  0  0  0  0
   -1.2673  -10.2326   12.1481 C   0  0  0  0  0  0  0  0  0  0  0  0
   -2.3885  -10.3526   12.9762 C   0  0  0  0  0  0  0  0  0  0  0  0
   -3.5992  -10.6924   12.4444 C   0  0  0  0  0  0  0  0  0  0  0  0
    0.0463   -9.8656   12.7138 C   0  0  0  0  0  0  0  0  0  0  0  0
    0.4959   -8.5158   12.2238 C   0  0  0  0  0  0  0  0  0  0  0  0
    1.8235   -8.1493   12.8414 C   0  0  0  0  0  0  0  0  0  0  0  0
    1.7316   -6.7464   13.4045 C   0  0  0  0  0  0  0  0  0  0  0  0
    2.4977   -5.9110   12.5687 O   0  0  0  0  0  0  0  0  0  0  0  0
    2.7152   -4.5706   12.8389 C   0  0  0  0  0  0  0  0  0  0  0  0
    3.8623   -3.9135   12.4248 C   0  0  0  0  0  0  0  0  0  0  0  0
    4.0280   -2.5691   12.7234 C   0  0  0  0  0  0  0  0  0  0  0  0
    3.0922   -1.8510   13.4209 C   0  0  0  0  0  0  0  0  0  0  0  0
    1.9598   -2.5230   13.8230 C   0  0  0  0  0  0  0  0  0  0  0  0
    1.7603   -3.8686   13.5418 C   0  0  0  0  0  0  0  0  0  0  0  0
    3.2430   -0.4423   13.7457 C   0  0  0  0  0  0  0  0  0  0  0  0
    3.2095    0.4042   12.8187 O   0  0  0  0  0  0  0  0  0  0  0  0
    3.4287    0.0540   15.0590 N   0  0  0  0  0  0  0  0  0  0  0  0
    3.2231    1.4125   15.4278 C   0  0  0  0  0  0  0  0  0  0  0  0
    4.0591    2.4229   15.0011 C   0  0  0  0  0  0  0  0  0  0  0  0
    3.8648    3.7512   15.3570 C   0  0  0  0  0  0  0  0  0  0  0  0
    2.7943    4.0756   16.1691 C   0  0  0  0  0  0  0  0  0  0  0  0
    1.9369    3.0966   16.6162 C   0  0  0  0  0  0  0  0  0  0  0  0
    2.1580    1.7871   16.2443 C   0  0  0  0  0  0  0  0  0  0  0  0
    1.3799    0.7927   16.6326 O   0  0  0  0  0  0  0  0  0  0  0  0
    0.3475    1.0375   17.4046 C   0  0  0  0  0  0  0  0  0  0  0  0
    0.0675    2.3297   17.8154 C   0  0  0  0  0  0  0  0  0  0  0  0
    0.8471    3.4042   17.4392 C   0  0  0  0  0  0  0  0  0  0  0  0
    0.6494    4.5803   17.7726 O   0  0  0  0  0  0  0  0  0  0  0  0
   -0.5448   -0.0415   17.8599 C   0  0  0  0  0  0  0  0  0  0  0  0
   -1.5868    0.0349   18.7073 N   0  0  0  0  0  0  0  0  0  0  0  0
   -2.1461   -1.1341   18.8763 N   0  0  0  0  0  0  0  0  0  0  0  0
   -1.4608   -1.9873   18.1295 N   0  0  0  0  0  0  0  0  0  0  0  0
   -0.4724   -1.3349   17.4969 N   0  0  0  0  0  0  0  0  0  0  0  0
  1  2  2  0
  2  3  1  0
  3  4  2  0
  4  5  1  0
  5  6  2  0
  4  7  1  0
  7  8  1  0
  8  9  1  0
  9 10  1  0
 10 11  1  0
 11 12  1  0
 12 13  2  0
 13 14  1  0
 14 15  2  0
 15 16  1  0
 16 17  2  0
 15 18  1  0
 18 19  2  0
 18 20  1  0
 20 21  1  0
 21 22  2  0
 22 23  1  0
 23 24  2  0
 24 25  1  0
 25 26  2  0
 26 27  1  0
 27 28  1  0
 28 29  2  0
 29 30  1  0
 30 31  2  0
 28 32  1  0
 32 33  2  0
 33 34  1  0
 34 35  1  0
 35 36  2  0
  6  1  1  0
 17 12  1  0
 26 21  1  0
 30 25  1  0
 36 32  1  0
M  END
$$$$
