
     RDKit          3D

 36 40  0  0  0  0  0  0  0  0999 V2000
    3.0043  -11.1200   13.4242 C   0  0  0  0  0  0  0  0  0  0  0  0
    2.0186  -11.4144   14.3370 C   0  0  0  0  0  0  0  0  0  0  0  0
    0.8260  -10.7305   14.3366 C   0  0  0  0  0  0  0  0  0  0  0  0
    0.5608   -9.7360   13.4418 C   0  0  0  0  0  0  0  0  0  0  0  0
    1.5573   -9.4292   12.5092 C   0  0  0  0  0  0  0  0  0  0  0  0
    2.7381  -10.1146   12.5185 C   0  0  0  0  0  0  0  0  0  0  0  0
   -0.7196   -9.0003   13.4398 C   0  0  0  0  0  0  0  0  0  0  0  0
   -0.5049   -7.5269   13.6566 C   0  0  0  0  0  0  0  0  0  0  0  0
    0.0848   -7.2785   15.0236 C   0  0  0  0  0  0  0  0  0  0  0  0
    0.6189   -5.8623   15.0772 C   0  0  0  0  0  0  0  0  0  0  0  0
    0.9908   -5.5075   13.7660 O   0  0  0  0  0  0  0  0  0  0  0  0
    1.5793   -4.2940   13.4525 C   0  0  0  0  0  0  0  0  0  0  0  0
    1.7094   -3.2771   14.3843 C   0  0  0  0  0  0  0  0  0  0  0  0
    2.3076   -2.0813   14.0151 C   0  0  0  0  0  0  0  0  0  0  0  0
    2.7830   -1.8581   12.7494 C   0  0  0  0  0  0  0  0  0  0  0  0
    2.6437   -2.8814   11.8390 C   0  0  0  0  0  0  0  0  0  0  0  0
    2.0501   -4.0920   12.1734 C   0  0  0  0  0  0  0  0  0  0  0  0
    3.4133   -0.6144   12.3388 C   0  0  0  0  0  0  0  0  0  0  0  0
    3.8117   -0.4948   11.1539 O   0  0  0  0  0  0  0  0  0  0  0  0
    3.6145    0.4945   13.1965 N   0  0  0  0  0  0  0  0  0  0  0  0
    3.6747    1.8424   12.7459 C   0  0  0  0  0  0  0  0  0  0  0  0
    4.2463    2.1876   11.5392 C   0  0  0  0  0  0  0  0  0  0  0  0
    4.3088    3.5013   11.0928 C   0  0  0  0  0  0  0  0  0  0  0  0
    3.7791    4.5022   11.8854 C   0  0  0  0  0  0  0  0  0  0  0  0
    3.2000    4.1993   13.0964 C   0  0  0  0  0  0  0  0  0  0  0  0
    3.1542    2.8846   13.5104 C   0  0  0  0  0  0  0  0  0  0  0  0
    2.6154    2.5152   14.6586 O   0  0  0  0  0  0  0  0  0  0  0  0
    2.0961    3.4199   15.4546 C   0  0  0  0  0  0  0  0  0  0  0  0
    2.1084    4.7583   15.1006 C   0  0  0  0  0  0  0  0  0  0  0  0
    2.6580    5.1981   13.9138 C   0  0  0  0  0  0  0  0  0  0  0  0
    2.6996    6.3783   13.5412 O   0  0  0  0  0  0  0  0  0  0  0  0
    1.4859    3.0509   16.7428 C   0  0  0  0  0  0  0  0  0  0  0  0
    1.1667    3.8492   17.7775 N   0  0  0  0  0  0  0  0  0  0  0  0
    0.6393    3.1648   18.7580 N   0  0  0  0  0  0  0  0  0  0  0  0
    0.6129    1.9015   18.3598 N   0  0  0  0  0  0  0  0  0  0  0  0
    1.1290    1.8110   17.1236 N   0  0  0  0  0  0  0  0  0  0  0  0
  1  2  2  0
  2  3  1  0
  3  4  2  0
  4  5  1  0
  5  6  2  0
  4  7  1  0
  7  8  1  0
  8  9  1  0
  9 10  1  0
 10 11  1  0
 11 12  1  0
 12 13  2  0
 13 14  1  0
 14 15  2  0
 15 16  1  0
 16 17  2  0
 15 18  1  0
 18 19  2  0
 18 20  1  0
 20 21  1  0
 21 22  2  0
 22 23  1  0
 23 24  2  0
 24 25  1  0
 25 26  2  0
 26 27  1  0
 27 28  1  0
 28 29  2  0
 29 30  1  0
 30 31  2  0
 28 32  1  0
 32 33  2  0
 33 34  1  0
 34 35  1  0
 35 36  2  0
  6  1  1  0
 17 12  1  0
 26 21  1  0
 30 25  1  0
 36 32  1  0
M  END
$$$$
