
     RDKit          3D

 36 40  0  0  0  0  0  0  0  0999 V2000
    1.5714  -13.3626   12.5967 C   0  0  0  0  0  0  0  0  0  0  0  0
    2.4677  -12.8001   13.4752 C   0  0  0  0  0  0  0  0  0  0  0  0
    2.8454  -11.4836   13.3554 C   0  0  0  0  0  0  0  0  0  0  0  0
    2.3572  -10.6759   12.3711 C   0  0  0  0  0  0  0  0  0  0  0  0
    1.4448  -11.2390   11.4724 C   0  0  0  0  0  0  0  0  0  0  0  0
    1.0764  -12.5474   11.6005 C   0  0  0  0  0  0  0  0  0  0  0  0
    2.7617   -9.2617   12.2408 C   0  0  0  0  0  0  0  0  0  0  0  0
    1.6773   -8.3355   12.7206 C   0  0  0  0  0  0  0  0  0  0  0  0
    1.4602   -7.2221   11.7249 C   0  0  0  0  0  0  0  0  0  0  0  0
    1.7807   -5.8999   12.3902 C   0  0  0  0  0  0  0  0  0  0  0  0
    0.5685   -5.3741   12.8776 O   0  0  0  0  0  0  0  0  0  0  0  0
    0.5110   -4.3193   13.7727 C   0  0  0  0  0  0  0  0  0  0  0  0
    1.6029   -3.5030   14.0186 C   0  0  0  0  0  0  0  0  0  0  0  0
    1.4888   -2.4601   14.9261 C   0  0  0  0  0  0  0  0  0  0  0  0
    0.3251   -2.1977   15.6005 C   0  0  0  0  0  0  0  0  0  0  0  0
   -0.7477   -3.0207   15.3414 C   0  0  0  0  0  0  0  0  0  0  0  0
   -0.6697   -4.0742   14.4394 C   0  0  0  0  0  0  0  0  0  0  0  0
    0.1809   -1.1114   16.5555 C   0  0  0  0  0  0  0  0  0  0  0  0
   -0.8969   -0.9959   17.1894 O   0  0  0  0  0  0  0  0  0  0  0  0
    1.1891   -0.1549   16.8278 N   0  0  0  0  0  0  0  0  0  0  0  0
    0.9234    1.1688   17.2762 C   0  0  0  0  0  0  0  0  0  0  0  0
    0.1917    1.4237   18.4171 C   0  0  0  0  0  0  0  0  0  0  0  0
   -0.0718    2.7130   18.8610 C   0  0  0  0  0  0  0  0  0  0  0  0
    0.4163    3.7827   18.1342 C   0  0  0  0  0  0  0  0  0  0  0  0
    1.1509    3.5707   16.9900 C   0  0  0  0  0  0  0  0  0  0  0  0
    1.3947    2.2778   16.5766 C   0  0  0  0  0  0  0  0  0  0  0  0
    2.0907    1.9940   15.4903 O   0  0  0  0  0  0  0  0  0  0  0  0
    2.5803    2.9669   14.7585 C   0  0  0  0  0  0  0  0  0  0  0  0
    2.3732    4.2883   15.1160 C   0  0  0  0  0  0  0  0  0  0  0  0
    1.6541    4.6401   16.2399 C   0  0  0  0  0  0  0  0  0  0  0  0
    1.4347    5.8007   16.6119 O   0  0  0  0  0  0  0  0  0  0  0  0
    3.3614    2.6943   13.5405 C   0  0  0  0  0  0  0  0  0  0  0  0
    4.3280    3.4437   12.9803 N   0  0  0  0  0  0  0  0  0  0  0  0
    4.7975    2.8792   11.8991 N   0  0  0  0  0  0  0  0  0  0  0  0
    4.1293    1.7450   11.7497 N   0  0  0  0  0  0  0  0  0  0  0  0
    3.2420    1.6133   12.7487 N   0  0  0  0  0  0  0  0  0  0  0  0
  1  2  2  0
  2  3  1  0
  3  4  2  0
  4  5  1  0
  5  6  2  0
  4  7  1  0
  7  8  1  0
  8  9  1  0
  9 10  1  0
 10 11  1  0
 11 12  1  0
 12 13  2  0
 13 14  1  0
 14 15  2  0
 15 16  1  0
 16 17  2  0
 15 18  1  0
 18 19  2  0
 18 20  1  0
 20 21  1  0
 21 22  2  0
 22 23  1  0
 23 24  2  0
 24 25  1  0
 25 26  2  0
 26 27  1  0
 27 28  1  0
 28 29  2  0
 29 30  1  0
 30 31  2  0
 28 32  1  0
 32 33  2  0
 33 34  1  0
 34 35  1  0
 35 36  2  0
  6  1  1  0
 17 12  1  0
 26 21  1  0
 30 25  1  0
 36 32  1  0
M  END
$$$$
