
     RDKit          3D

 36 40  0  0  0  0  0  0  0  0999 V2000
   -3.9211   -4.4027   17.6555 C   0  0  0  0  0  0  0  0  0  0  0  0
   -3.6808   -5.5128   18.4310 C   0  0  0  0  0  0  0  0  0  0  0  0
   -2.9473   -6.5697   17.9464 C   0  0  0  0  0  0  0  0  0  0  0  0
   -2.4257   -6.5731   16.6863 C   0  0  0  0  0  0  0  0  0  0  0  0
   -2.6648   -5.4482   15.8897 C   0  0  0  0  0  0  0  0  0  0  0  0
   -3.3945   -4.4040   16.3809 C   0  0  0  0  0  0  0  0  0  0  0  0
   -1.6377   -7.7075   16.1640 C   0  0  0  0  0  0  0  0  0  0  0  0
   -0.4728   -7.2314   15.3391 C   0  0  0  0  0  0  0  0  0  0  0  0
   -0.6025   -7.7207   13.9172 C   0  0  0  0  0  0  0  0  0  0  0  0
    0.5102   -7.1155   13.0870 C   0  0  0  0  0  0  0  0  0  0  0  0
   -0.0317   -6.0062   12.4094 O   0  0  0  0  0  0  0  0  0  0  0  0
    0.5532   -4.7514   12.4308 C   0  0  0  0  0  0  0  0  0  0  0  0
   -0.1702   -3.5983   12.1738 C   0  0  0  0  0  0  0  0  0  0  0  0
    0.4673   -2.3668   12.2087 C   0  0  0  0  0  0  0  0  0  0  0  0
    1.8022   -2.2387   12.4907 C   0  0  0  0  0  0  0  0  0  0  0  0
    2.5025   -3.3969   12.7431 C   0  0  0  0  0  0  0  0  0  0  0  0
    1.8971   -4.6469   12.7168 C   0  0  0  0  0  0  0  0  0  0  0  0
    2.4924   -0.9602   12.5332 C   0  0  0  0  0  0  0  0  0  0  0  0
    3.7395   -0.9450   12.6797 O   0  0  0  0  0  0  0  0  0  0  0  0
    1.8462    0.2948   12.4190 N   0  0  0  0  0  0  0  0  0  0  0  0
    2.5229    1.5081   12.1131 C   0  0  0  0  0  0  0  0  0  0  0  0
    2.9835    1.7914   10.8444 C   0  0  0  0  0  0  0  0  0  0  0  0
    3.6450    2.9736   10.5384 C   0  0  0  0  0  0  0  0  0  0  0  0
    3.8508    3.9029   11.5408 C   0  0  0  0  0  0  0  0  0  0  0  0
    3.4066    3.6581   12.8200 C   0  0  0  0  0  0  0  0  0  0  0  0
    2.7532    2.4741   13.0906 C   0  0  0  0  0  0  0  0  0  0  0  0
    2.2980    2.1673   14.2921 O   0  0  0  0  0  0  0  0  0  0  0  0
    2.4631    3.0092   15.2850 C   0  0  0  0  0  0  0  0  0  0  0  0
    3.1105    4.2162   15.0831 C   0  0  0  0  0  0  0  0  0  0  0  0
    3.6051    4.5860   13.8491 C   0  0  0  0  0  0  0  0  0  0  0  0
    4.1919    5.6489   13.6052 O   0  0  0  0  0  0  0  0  0  0  0  0
    1.9712    2.7064   16.6393 C   0  0  0  0  0  0  0  0  0  0  0  0
    2.6713    2.6208   17.7849 N   0  0  0  0  0  0  0  0  0  0  0  0
    1.8932    2.3322   18.7945 N   0  0  0  0  0  0  0  0  0  0  0  0
    0.6673    2.2273   18.3031 N   0  0  0  0  0  0  0  0  0  0  0  0
    0.6945    2.4539   16.9799 N   0  0  0  0  0  0  0  0  0  0  0  0
  1  2  2  0
  2  3  1  0
  3  4  2  0
  4  5  1  0
  5  6  2  0
  4  7  1  0
  7  8  1  0
  8  9  1  0
  9 10  1  0
 10 11  1  0
 11 12  1  0
 12 13  2  0
 13 14  1  0
 14 15  2  0
 15 16  1  0
 16 17  2  0
 15 18  1  0
 18 19  2  0
 18 20  1  0
 20 21  1  0
 21 22  2  0
 22 23  1  0
 23 24  2  0
 24 25  1  0
 25 26  2  0
 26 27  1  0
 27 28  1  0
 28 29  2  0
 29 30  1  0
 30 31  2  0
 28 32  1  0
 32 33  2  0
 33 34  1  0
 34 35  1  0
 35 36  2  0
  6  1  1  0
 17 12  1  0
 26 21  1  0
 30 25  1  0
 36 32  1  0
M  END
$$$$
