
     RDKit          3D

 36 40  0  0  0  0  0  0  0  0999 V2000
   -1.9051  -11.9026   15.0921 C   0  0  0  0  0  0  0  0  0  0  0  0
   -1.4349  -11.6849   13.8182 C   0  0  0  0  0  0  0  0  0  0  0  0
   -0.1887  -11.1443   13.6061 C   0  0  0  0  0  0  0  0  0  0  0  0
    0.6369  -10.7996   14.6354 C   0  0  0  0  0  0  0  0  0  0  0  0
    0.1675  -11.0173   15.9352 C   0  0  0  0  0  0  0  0  0  0  0  0
   -1.0717  -11.5547   16.1345 C   0  0  0  0  0  0  0  0  0  0  0  0
    1.9756  -10.2189   14.4096 C   0  0  0  0  0  0  0  0  0  0  0  0
    2.0246   -9.4390   13.1237 C   0  0  0  0  0  0  0  0  0  0  0  0
    1.2445   -8.1540   13.2599 C   0  0  0  0  0  0  0  0  0  0  0  0
    2.2176   -6.9972   13.3519 C   0  0  0  0  0  0  0  0  0  0  0  0
    1.5871   -5.8759   12.7788 O   0  0  0  0  0  0  0  0  0  0  0  0
    2.1097   -4.5960   12.8573 C   0  0  0  0  0  0  0  0  0  0  0  0
    3.4020   -4.3548   13.2942 C   0  0  0  0  0  0  0  0  0  0  0  0
    3.8740   -3.0518   13.3528 C   0  0  0  0  0  0  0  0  0  0  0  0
    3.1061   -1.9757   12.9918 C   0  0  0  0  0  0  0  0  0  0  0  0
    1.8251   -2.2375   12.5606 C   0  0  0  0  0  0  0  0  0  0  0  0
    1.3192   -3.5293   12.4890 C   0  0  0  0  0  0  0  0  0  0  0  0
    3.5779   -0.6019   13.0445 C   0  0  0  0  0  0  0  0  0  0  0  0
    4.7573   -0.3758   13.4115 O   0  0  0  0  0  0  0  0  0  0  0  0
    2.7869    0.5225   12.7047 N   0  0  0  0  0  0  0  0  0  0  0  0
    3.0238    1.8351   13.1994 C   0  0  0  0  0  0  0  0  0  0  0  0
    3.9217    2.6937   12.6003 C   0  0  0  0  0  0  0  0  0  0  0  0
    4.1583    3.9763   13.0775 C   0  0  0  0  0  0  0  0  0  0  0  0
    3.4697    4.4113   14.1944 C   0  0  0  0  0  0  0  0  0  0  0  0
    2.5652    3.5851   14.8211 C   0  0  0  0  0  0  0  0  0  0  0  0
    2.3535    2.3171   14.3218 C   0  0  0  0  0  0  0  0  0  0  0  0
    1.5025    1.4669   14.8676 O   0  0  0  0  0  0  0  0  0  0  0  0
    0.8191    1.8219   15.9300 C   0  0  0  0  0  0  0  0  0  0  0  0
    0.9829    3.0805   16.4832 C   0  0  0  0  0  0  0  0  0  0  0  0
    1.8578    4.0065   15.9531 C   0  0  0  0  0  0  0  0  0  0  0  0
    2.0486    5.1453   16.4008 O   0  0  0  0  0  0  0  0  0  0  0  0
   -0.1393    0.9050   16.5692 C   0  0  0  0  0  0  0  0  0  0  0  0
   -0.6856    0.9862   17.7959 N   0  0  0  0  0  0  0  0  0  0  0  0
   -1.4975   -0.0131   18.0195 N   0  0  0  0  0  0  0  0  0  0  0  0
   -1.4825   -0.7587   16.9243 N   0  0  0  0  0  0  0  0  0  0  0  0
   -0.6536   -0.2109   16.0212 N   0  0  0  0  0  0  0  0  0  0  0  0
  1  2  2  0
  2  3  1  0
  3  4  2  0
  4  5  1  0
  5  6  2  0
  4  7  1  0
  7  8  1  0
  8  9  1  0
  9 10  1  0
 10 11  1  0
 11 12  1  0
 12 13  2  0
 13 14  1  0
 14 15  2  0
 15 16  1  0
 16 17  2  0
 15 18  1  0
 18 19  2  0
 18 20  1  0
 20 21  1  0
 21 22  2  0
 22 23  1  0
 23 24  2  0
 24 25  1  0
 25 26  2  0
 26 27  1  0
 27 28  1  0
 28 29  2  0
 29 30  1  0
 30 31  2  0
 28 32  1  0
 32 33  2  0
 33 34  1  0
 34 35  1  0
 35 36  2  0
  6  1  1  0
 17 12  1  0
 26 21  1  0
 30 25  1  0
 36 32  1  0
M  END
$$$$
