
     RDKit          3D

 36 40  0  0  0  0  0  0  0  0999 V2000
    8.7065   -8.0833   14.6785 C   0  0  0  0  0  0  0  0  0  0  0  0
    8.0160   -9.0020   13.9231 C   0  0  0  0  0  0  0  0  0  0  0  0
    6.9537   -8.6189   13.1390 C   0  0  0  0  0  0  0  0  0  0  0  0
    6.5337   -7.3233   13.0698 C   0  0  0  0  0  0  0  0  0  0  0  0
    7.2298   -6.3812   13.8346 C   0  0  0  0  0  0  0  0  0  0  0  0
    8.2833   -6.7725   14.6099 C   0  0  0  0  0  0  0  0  0  0  0  0
    5.3929   -6.9099   12.2282 C   0  0  0  0  0  0  0  0  0  0  0  0
    4.0802   -7.2667   12.8713 C   0  0  0  0  0  0  0  0  0  0  0  0
    2.9322   -6.7201   12.0581 C   0  0  0  0  0  0  0  0  0  0  0  0
    1.7900   -6.3766   12.9914 C   0  0  0  0  0  0  0  0  0  0  0  0
    1.7789   -4.9760   13.1384 O   0  0  0  0  0  0  0  0  0  0  0  0
    0.9680   -4.3208   14.0496 C   0  0  0  0  0  0  0  0  0  0  0  0
    1.3769   -3.1701   14.7037 C   0  0  0  0  0  0  0  0  0  0  0  0
    0.5230   -2.5548   15.6072 C   0  0  0  0  0  0  0  0  0  0  0  0
   -0.7269   -3.0428   15.8856 C   0  0  0  0  0  0  0  0  0  0  0  0
   -1.1135   -4.1871   15.2249 C   0  0  0  0  0  0  0  0  0  0  0  0
   -0.2849   -4.8298   14.3138 C   0  0  0  0  0  0  0  0  0  0  0  0
   -1.6393   -2.4162   16.8277 C   0  0  0  0  0  0  0  0  0  0  0  0
   -2.8577   -2.7179   16.7892 O   0  0  0  0  0  0  0  0  0  0  0  0
   -1.2449   -1.4709   17.8056 N   0  0  0  0  0  0  0  0  0  0  0  0
   -2.1514   -0.6107   18.4854 C   0  0  0  0  0  0  0  0  0  0  0  0
   -3.2212   -1.0960   19.2078 C   0  0  0  0  0  0  0  0  0  0  0  0
   -4.1103   -0.2625   19.8739 C   0  0  0  0  0  0  0  0  0  0  0  0
   -3.9182    1.1050   19.8123 C   0  0  0  0  0  0  0  0  0  0  0  0
   -2.8626    1.6292   19.1020 C   0  0  0  0  0  0  0  0  0  0  0  0
   -1.9979    0.7738   18.4518 C   0  0  0  0  0  0  0  0  0  0  0  0
   -0.9629    1.2006   17.7507 O   0  0  0  0  0  0  0  0  0  0  0  0
   -0.7281    2.4881   17.6550 C   0  0  0  0  0  0  0  0  0  0  0  0
   -1.5565    3.4025   18.2830 C   0  0  0  0  0  0  0  0  0  0  0  0
   -2.6506    3.0108   19.0273 C   0  0  0  0  0  0  0  0  0  0  0  0
   -3.4275    3.7781   19.6114 O   0  0  0  0  0  0  0  0  0  0  0  0
    0.4142    3.0058   16.8837 C   0  0  0  0  0  0  0  0  0  0  0  0
    0.9293    4.2485   16.8819 N   0  0  0  0  0  0  0  0  0  0  0  0
    1.9471    4.3378   16.0671 N   0  0  0  0  0  0  0  0  0  0  0  0
    2.1004    3.1371   15.5282 N   0  0  0  0  0  0  0  0  0  0  0  0
    1.1677    2.3045   16.0175 N   0  0  0  0  0  0  0  0  0  0  0  0
  1  2  2  0
  2  3  1  0
  3  4  2  0
  4  5  1  0
  5  6  2  0
  4  7  1  0
  7  8  1  0
  8  9  1  0
  9 10  1  0
 10 11  1  0
 11 12  1  0
 12 13  2  0
 13 14  1  0
 14 15  2  0
 15 16  1  0
 16 17  2  0
 15 18  1  0
 18 19  2  0
 18 20  1  0
 20 21  1  0
 21 22  2  0
 22 23  1  0
 23 24  2  0
 24 25  1  0
 25 26  2  0
 26 27  1  0
 27 28  1  0
 28 29  2  0
 29 30  1  0
 30 31  2  0
 28 32  1  0
 32 33  2  0
 33 34  1  0
 34 35  1  0
 35 36  2  0
  6  1  1  0
 17 12  1  0
 26 21  1  0
 30 25  1  0
 36 32  1  0
M  END
$$$$
