
     RDKit          3D

 36 40  0  0  0  0  0  0  0  0999 V2000
   -2.7881   -6.2343   23.8509 C   0  0  0  0  0  0  0  0  0  0  0  0
   -3.2861   -4.9948   23.5237 C   0  0  0  0  0  0  0  0  0  0  0  0
   -4.0451   -4.8130   22.3919 C   0  0  0  0  0  0  0  0  0  0  0  0
   -4.3407   -5.8397   21.5444 C   0  0  0  0  0  0  0  0  0  0  0  0
   -3.8386   -7.1045   21.8687 C   0  0  0  0  0  0  0  0  0  0  0  0
   -3.0858   -7.2740   22.9951 C   0  0  0  0  0  0  0  0  0  0  0  0
   -5.1557   -5.6463   20.3283 C   0  0  0  0  0  0  0  0  0  0  0  0
   -4.2896   -5.4281   19.1174 C   0  0  0  0  0  0  0  0  0  0  0  0
   -3.7907   -4.0041   19.0793 C   0  0  0  0  0  0  0  0  0  0  0  0
   -2.9048   -3.8272   17.8638 C   0  0  0  0  0  0  0  0  0  0  0  0
   -2.8757   -2.4510   17.5662 O   0  0  0  0  0  0  0  0  0  0  0  0
   -2.0603   -1.9094   16.5870 C   0  0  0  0  0  0  0  0  0  0  0  0
   -0.9753   -1.1051   16.8954 C   0  0  0  0  0  0  0  0  0  0  0  0
   -0.1920   -0.5890   15.8736 C   0  0  0  0  0  0  0  0  0  0  0  0
   -0.4482   -0.8437   14.5517 C   0  0  0  0  0  0  0  0  0  0  0  0
   -1.5309   -1.6452   14.2671 C   0  0  0  0  0  0  0  0  0  0  0  0
   -2.3371   -2.1792   15.2644 C   0  0  0  0  0  0  0  0  0  0  0  0
    0.3576   -0.3148   13.4637 C   0  0  0  0  0  0  0  0  0  0  0  0
    0.0555   -0.6108   12.2813 O   0  0  0  0  0  0  0  0  0  0  0  0
    1.4816    0.5273   13.6452 N   0  0  0  0  0  0  0  0  0  0  0  0
    1.7866    1.6322   12.8027 C   0  0  0  0  0  0  0  0  0  0  0  0
    0.8820    2.1285   11.8876 C   0  0  0  0  0  0  0  0  0  0  0  0
    1.1726    3.2066   11.0618 C   0  0  0  0  0  0  0  0  0  0  0  0
    2.4140    3.8067   11.1583 C   0  0  0  0  0  0  0  0  0  0  0  0
    3.3448    3.3414   12.0588 C   0  0  0  0  0  0  0  0  0  0  0  0
    3.0245    2.2688   12.8643 C   0  0  0  0  0  0  0  0  0  0  0  0
    3.8637    1.7657   13.7518 O   0  0  0  0  0  0  0  0  0  0  0  0
    5.0575    2.2925   13.8901 C   0  0  0  0  0  0  0  0  0  0  0  0
    5.4444    3.3713   13.1133 C   0  0  0  0  0  0  0  0  0  0  0  0
    4.6075    3.9351   12.1721 C   0  0  0  0  0  0  0  0  0  0  0  0
    4.8942    4.8981   11.4484 O   0  0  0  0  0  0  0  0  0  0  0  0
    6.0230    1.7624   14.8672 C   0  0  0  0  0  0  0  0  0  0  0  0
    7.2429    2.2352   15.1803 N   0  0  0  0  0  0  0  0  0  0  0  0
    7.8140    1.5004   16.0979 N   0  0  0  0  0  0  0  0  0  0  0  0
    6.9563    0.5335   16.3893 N   0  0  0  0  0  0  0  0  0  0  0  0
    5.8493    0.6773   15.6432 N   0  0  0  0  0  0  0  0  0  0  0  0
  1  2  2  0
  2  3  1  0
  3  4  2  0
  4  5  1  0
  5  6  2  0
  4  7  1  0
  7  8  1  0
  8  9  1  0
  9 10  1  0
 10 11  1  0
 11 12  1  0
 12 13  2  0
 13 14  1  0
 14 15  2  0
 15 16  1  0
 16 17  2  0
 15 18  1  0
 18 19  2  0
 18 20  1  0
 20 21  1  0
 21 22  2  0
 22 23  1  0
 23 24  2  0
 24 25  1  0
 25 26  2  0
 26 27  1  0
 27 28  1  0
 28 29  2  0
 29 30  1  0
 30 31  2  0
 28 32  1  0
 32 33  2  0
 33 34  1  0
 34 35  1  0
 35 36  2  0
  6  1  1  0
 17 12  1  0
 26 21  1  0
 30 25  1  0
 36 32  1  0
M  END
$$$$
