
     RDKit          3D

 36 40  0  0  0  0  0  0  0  0999 V2000
    5.4162    2.9092   10.1628 C   0  0  0  0  0  0  0  0  0  0  0  0
    5.3264    3.8904   11.1222 C   0  0  0  0  0  0  0  0  0  0  0  0
    5.0124    3.5809   12.4244 C   0  0  0  0  0  0  0  0  0  0  0  0
    4.7764    2.3000   12.8285 C   0  0  0  0  0  0  0  0  0  0  0  0
    4.8654    1.2946   11.8597 C   0  0  0  0  0  0  0  0  0  0  0  0
    5.1779    1.6131   10.5693 C   0  0  0  0  0  0  0  0  0  0  0  0
    4.4390    1.9655   14.2266 C   0  0  0  0  0  0  0  0  0  0  0  0
    4.6507    3.1439   15.1380 C   0  0  0  0  0  0  0  0  0  0  0  0
    3.3466    3.8669   15.3718 C   0  0  0  0  0  0  0  0  0  0  0  0
    2.5205    3.0788   16.3668 C   0  0  0  0  0  0  0  0  0  0  0  0
    1.3015    2.7610   15.7371 O   0  0  0  0  0  0  0  0  0  0  0  0
    0.4583    1.7606   16.1901 C   0  0  0  0  0  0  0  0  0  0  0  0
    0.0619    1.6766   17.5149 C   0  0  0  0  0  0  0  0  0  0  0  0
   -0.7847    0.6527   17.9137 C   0  0  0  0  0  0  0  0  0  0  0  0
   -1.2536   -0.2942   17.0411 C   0  0  0  0  0  0  0  0  0  0  0  0
   -0.8476   -0.1924   15.7295 C   0  0  0  0  0  0  0  0  0  0  0  0
   -0.0007    0.8192   15.2947 C   0  0  0  0  0  0  0  0  0  0  0  0
   -2.1411   -1.3759   17.4348 C   0  0  0  0  0  0  0  0  0  0  0  0
   -2.4848   -1.4753   18.6385 O   0  0  0  0  0  0  0  0  0  0  0  0
   -2.6563   -2.3454   16.5401 N   0  0  0  0  0  0  0  0  0  0  0  0
   -3.2666   -3.5610   16.9565 C   0  0  0  0  0  0  0  0  0  0  0  0
   -4.4040   -3.5813   17.7363 C   0  0  0  0  0  0  0  0  0  0  0  0
   -5.0053   -4.7639   18.1466 C   0  0  0  0  0  0  0  0  0  0  0  0
   -4.4452   -5.9673   17.7606 C   0  0  0  0  0  0  0  0  0  0  0  0
   -3.3104   -5.9901   16.9826 C   0  0  0  0  0  0  0  0  0  0  0  0
   -2.7380   -4.7977   16.5921 C   0  0  0  0  0  0  0  0  0  0  0  0
   -1.6496   -4.7378   15.8459 O   0  0  0  0  0  0  0  0  0  0  0  0
   -1.0717   -5.8467   15.4479 C   0  0  0  0  0  0  0  0  0  0  0  0
   -1.5938   -7.0786   15.8039 C   0  0  0  0  0  0  0  0  0  0  0  0
   -2.7277   -7.1979   16.5811 C   0  0  0  0  0  0  0  0  0  0  0  0
   -3.2424   -8.2681   16.9322 O   0  0  0  0  0  0  0  0  0  0  0  0
    0.1425   -5.8246   14.6155 C   0  0  0  0  0  0  0  0  0  0  0  0
    0.9886   -6.8340   14.3415 N   0  0  0  0  0  0  0  0  0  0  0  0
    1.9605   -6.4386   13.5624 N   0  0  0  0  0  0  0  0  0  0  0  0
    1.7477   -5.1530   13.3231 N   0  0  0  0  0  0  0  0  0  0  0  0
    0.6350   -4.7570   13.9616 N   0  0  0  0  0  0  0  0  0  0  0  0
  1  2  2  0
  2  3  1  0
  3  4  2  0
  4  5  1  0
  5  6  2  0
  4  7  1  0
  7  8  1  0
  8  9  1  0
  9 10  1  0
 10 11  1  0
 11 12  1  0
 12 13  2  0
 13 14  1  0
 14 15  2  0
 15 16  1  0
 16 17  2  0
 15 18  1  0
 18 19  2  0
 18 20  1  0
 20 21  1  0
 21 22  2  0
 22 23  1  0
 23 24  2  0
 24 25  1  0
 25 26  2  0
 26 27  1  0
 27 28  1  0
 28 29  2  0
 29 30  1  0
 30 31  2  0
 28 32  1  0
 32 33  2  0
 33 34  1  0
 34 35  1  0
 35 36  2  0
  6  1  1  0
 17 12  1  0
 26 21  1  0
 30 25  1  0
 36 32  1  0
M  END
$$$$
