
     RDKit          3D

 36 40  0  0  0  0  0  0  0  0999 V2000
    2.7331   -9.8232   10.4316 C   0  0  0  0  0  0  0  0  0  0  0  0
    1.5477  -10.4365   10.7634 C   0  0  0  0  0  0  0  0  0  0  0  0
    0.7143   -9.8986   11.7154 C   0  0  0  0  0  0  0  0  0  0  0  0
    1.0155   -8.7424   12.3729 C   0  0  0  0  0  0  0  0  0  0  0  0
    2.2193   -8.1110   12.0423 C   0  0  0  0  0  0  0  0  0  0  0  0
    3.0396   -8.6538   11.0954 C   0  0  0  0  0  0  0  0  0  0  0  0
    0.1217   -8.1631   13.3956 C   0  0  0  0  0  0  0  0  0  0  0  0
   -1.1168   -7.5781   12.7726 C   0  0  0  0  0  0  0  0  0  0  0  0
   -1.9931   -6.9561   13.8325 C   0  0  0  0  0  0  0  0  0  0  0  0
   -2.0372   -5.4580   13.6151 C   0  0  0  0  0  0  0  0  0  0  0  0
   -2.0363   -4.8524   14.8866 O   0  0  0  0  0  0  0  0  0  0  0  0
   -1.3068   -3.7119   15.1770 C   0  0  0  0  0  0  0  0  0  0  0  0
   -1.1634   -3.2404   16.4717 C   0  0  0  0  0  0  0  0  0  0  0  0
   -0.4209   -2.0921   16.7049 C   0  0  0  0  0  0  0  0  0  0  0  0
    0.1865   -1.3927   15.6951 C   0  0  0  0  0  0  0  0  0  0  0  0
    0.0315   -1.8783   14.4162 C   0  0  0  0  0  0  0  0  0  0  0  0
   -0.7048   -3.0248   14.1454 C   0  0  0  0  0  0  0  0  0  0  0  0
    0.9692   -0.1877   15.9142 C   0  0  0  0  0  0  0  0  0  0  0  0
    1.1394    0.2238   17.0883 O   0  0  0  0  0  0  0  0  0  0  0  0
    1.5656    0.5708   14.8776 N   0  0  0  0  0  0  0  0  0  0  0  0
    2.8158    1.2377   15.0040 C   0  0  0  0  0  0  0  0  0  0  0  0
    3.6815    0.9817   16.0467 C   0  0  0  0  0  0  0  0  0  0  0  0
    4.9035    1.6287   16.1767 C   0  0  0  0  0  0  0  0  0  0  0  0
    5.2684    2.5647   15.2272 C   0  0  0  0  0  0  0  0  0  0  0  0
    4.4327    2.8487   14.1715 C   0  0  0  0  0  0  0  0  0  0  0  0
    3.2260    2.1884   14.0717 C   0  0  0  0  0  0  0  0  0  0  0  0
    2.3712    2.4063   13.0884 O   0  0  0  0  0  0  0  0  0  0  0  0
    2.6612    3.2834   12.1565 C   0  0  0  0  0  0  0  0  0  0  0  0
    3.8558    3.9821   12.1957 C   0  0  0  0  0  0  0  0  0  0  0  0
    4.7835    3.7930   13.1996 C   0  0  0  0  0  0  0  0  0  0  0  0
    5.8672    4.3855   13.2900 O   0  0  0  0  0  0  0  0  0  0  0  0
    1.7367    3.5563   11.0435 C   0  0  0  0  0  0  0  0  0  0  0  0
    1.1068    2.6774   10.2432 N   0  0  0  0  0  0  0  0  0  0  0  0
    0.3616    3.2899    9.3616 N   0  0  0  0  0  0  0  0  0  0  0  0
    0.5056    4.5874    9.5878 N   0  0  0  0  0  0  0  0  0  0  0  0
    1.3470    4.7715   10.6178 N   0  0  0  0  0  0  0  0  0  0  0  0
  1  2  2  0
  2  3  1  0
  3  4  2  0
  4  5  1  0
  5  6  2  0
  4  7  1  0
  7  8  1  0
  8  9  1  0
  9 10  1  0
 10 11  1  0
 11 12  1  0
 12 13  2  0
 13 14  1  0
 14 15  2  0
 15 16  1  0
 16 17  2  0
 15 18  1  0
 18 19  2  0
 18 20  1  0
 20 21  1  0
 21 22  2  0
 22 23  1  0
 23 24  2  0
 24 25  1  0
 25 26  2  0
 26 27  1  0
 27 28  1  0
 28 29  2  0
 29 30  1  0
 30 31  2  0
 28 32  1  0
 32 33  2  0
 33 34  1  0
 34 35  1  0
 35 36  2  0
  6  1  1  0
 17 12  1  0
 26 21  1  0
 30 25  1  0
 36 32  1  0
M  END
$$$$
