
     RDKit          3D

 36 40  0  0  0  0  0  0  0  0999 V2000
   -2.7649   -8.8561    8.3713 C   0  0  0  0  0  0  0  0  0  0  0  0
   -2.0723   -7.9323    9.1185 C   0  0  0  0  0  0  0  0  0  0  0  0
   -1.3786   -8.3087   10.2442 C   0  0  0  0  0  0  0  0  0  0  0  0
   -1.3410   -9.6024   10.6740 C   0  0  0  0  0  0  0  0  0  0  0  0
   -2.0425  -10.5497    9.9205 C   0  0  0  0  0  0  0  0  0  0  0  0
   -2.7282  -10.1650    8.8042 C   0  0  0  0  0  0  0  0  0  0  0  0
   -0.5965  -10.0087   11.8828 C   0  0  0  0  0  0  0  0  0  0  0  0
   -0.3775   -8.8430   12.8087 C   0  0  0  0  0  0  0  0  0  0  0  0
    0.9162   -8.1421   12.4724 C   0  0  0  0  0  0  0  0  0  0  0  0
    0.9884   -6.8456   13.2519 C   0  0  0  0  0  0  0  0  0  0  0  0
    2.2652   -6.2953   13.0277 O   0  0  0  0  0  0  0  0  0  0  0  0
    2.5540   -4.9561   13.2287 C   0  0  0  0  0  0  0  0  0  0  0  0
    3.7498   -4.3916   12.8159 C   0  0  0  0  0  0  0  0  0  0  0  0
    3.9864   -3.0438   13.0433 C   0  0  0  0  0  0  0  0  0  0  0  0
    3.0748   -2.2335   13.6681 C   0  0  0  0  0  0  0  0  0  0  0  0
    1.8931   -2.8144   14.0702 C   0  0  0  0  0  0  0  0  0  0  0  0
    1.6223   -4.1605   13.8592 C   0  0  0  0  0  0  0  0  0  0  0  0
    3.2994   -0.8193   13.9175 C   0  0  0  0  0  0  0  0  0  0  0  0
    4.4500   -0.4319   14.2384 O   0  0  0  0  0  0  0  0  0  0  0  0
    2.2935    0.1730   13.8227 N   0  0  0  0  0  0  0  0  0  0  0  0
    2.3978    1.4641   14.4109 C   0  0  0  0  0  0  0  0  0  0  0  0
    3.2846    2.4125   13.9458 C   0  0  0  0  0  0  0  0  0  0  0  0
    3.3922    3.6747   14.5149 C   0  0  0  0  0  0  0  0  0  0  0  0
    2.5814    3.9954   15.5876 C   0  0  0  0  0  0  0  0  0  0  0  0
    1.6834    3.0771   16.0814 C   0  0  0  0  0  0  0  0  0  0  0  0
    1.6015    1.8323   15.4934 C   0  0  0  0  0  0  0  0  0  0  0  0
    0.7654    0.8985   15.9103 O   0  0  0  0  0  0  0  0  0  0  0  0
   -0.0302    1.1432   16.9247 C   0  0  0  0  0  0  0  0  0  0  0  0
   -0.0001    2.3722   17.5613 C   0  0  0  0  0  0  0  0  0  0  0  0
    0.8535    3.3821   17.1666 C   0  0  0  0  0  0  0  0  0  0  0  0
    0.9277    4.5001   17.6940 O   0  0  0  0  0  0  0  0  0  0  0  0
   -0.9768    0.1304   17.4208 C   0  0  0  0  0  0  0  0  0  0  0  0
   -1.6910    0.1388   18.5608 N   0  0  0  0  0  0  0  0  0  0  0  0
   -2.4285   -0.9350   18.6651 N   0  0  0  0  0  0  0  0  0  0  0  0
   -2.1939   -1.6561   17.5787 N   0  0  0  0  0  0  0  0  0  0  0  0
   -1.3042   -1.0180   16.8014 N   0  0  0  0  0  0  0  0  0  0  0  0
  1  2  2  0
  2  3  1  0
  3  4  2  0
  4  5  1  0
  5  6  2  0
  4  7  1  0
  7  8  1  0
  8  9  1  0
  9 10  1  0
 10 11  1  0
 11 12  1  0
 12 13  2  0
 13 14  1  0
 14 15  2  0
 15 16  1  0
 16 17  2  0
 15 18  1  0
 18 19  2  0
 18 20  1  0
 20 21  1  0
 21 22  2  0
 22 23  1  0
 23 24  2  0
 24 25  1  0
 25 26  2  0
 26 27  1  0
 27 28  1  0
 28 29  2  0
 29 30  1  0
 30 31  2  0
 28 32  1  0
 32 33  2  0
 33 34  1  0
 34 35  1  0
 35 36  2  0
  6  1  1  0
 17 12  1  0
 26 21  1  0
 30 25  1  0
 36 32  1  0
M  END
$$$$
