
     RDKit          3D

 36 40  0  0  0  0  0  0  0  0999 V2000
   -1.4778  -11.1180   16.9751 C   0  0  0  0  0  0  0  0  0  0  0  0
   -1.7313  -10.1284   16.0543 C   0  0  0  0  0  0  0  0  0  0  0  0
   -0.7525   -9.6975   15.1903 C   0  0  0  0  0  0  0  0  0  0  0  0
    0.5062  -10.2223   15.2008 C   0  0  0  0  0  0  0  0  0  0  0  0
    0.7739  -11.2296   16.1339 C   0  0  0  0  0  0  0  0  0  0  0  0
   -0.2055  -11.6501   16.9873 C   0  0  0  0  0  0  0  0  0  0  0  0
    1.5588   -9.7608   14.2737 C   0  0  0  0  0  0  0  0  0  0  0  0
    1.0454   -8.6873   13.3528 C   0  0  0  0  0  0  0  0  0  0  0  0
    2.0016   -7.5198   13.3239 C   0  0  0  0  0  0  0  0  0  0  0  0
    1.5008   -6.5005   12.3220 C   0  0  0  0  0  0  0  0  0  0  0  0
    0.6465   -5.6206   13.0144 O   0  0  0  0  0  0  0  0  0  0  0  0
    0.6591   -4.2498   12.8196 C   0  0  0  0  0  0  0  0  0  0  0  0
   -0.0741   -3.3868   13.6175 C   0  0  0  0  0  0  0  0  0  0  0  0
   -0.0243   -2.0216   13.3771 C   0  0  0  0  0  0  0  0  0  0  0  0
    0.7302   -1.4805   12.3692 C   0  0  0  0  0  0  0  0  0  0  0  0
    1.4511   -2.3556   11.5882 C   0  0  0  0  0  0  0  0  0  0  0  0
    1.4251   -3.7283   11.7999 C   0  0  0  0  0  0  0  0  0  0  0  0
    0.7987   -0.0542   12.0977 C   0  0  0  0  0  0  0  0  0  0  0  0
    0.9060    0.3358   10.9089 O   0  0  0  0  0  0  0  0  0  0  0  0
    0.7521    0.9473   13.0979 N   0  0  0  0  0  0  0  0  0  0  0  0
    1.3023    2.2495   12.9398 C   0  0  0  0  0  0  0  0  0  0  0  0
    0.6810    3.2216   12.1841 C   0  0  0  0  0  0  0  0  0  0  0  0
    1.2121    4.4949   12.0252 C   0  0  0  0  0  0  0  0  0  0  0  0
    2.4080    4.8024   12.6464 C   0  0  0  0  0  0  0  0  0  0  0  0
    3.0595    3.8604   13.4092 C   0  0  0  0  0  0  0  0  0  0  0  0
    2.5051    2.6052   13.5468 C   0  0  0  0  0  0  0  0  0  0  0  0
    3.0700    1.6487   14.2617 O   0  0  0  0  0  0  0  0  0  0  0  0
    4.2066    1.8800   14.8754 C   0  0  0  0  0  0  0  0  0  0  0  0
    4.8182    3.1184   14.7794 C   0  0  0  0  0  0  0  0  0  0  0  0
    4.2714    4.1517   14.0464 C   0  0  0  0  0  0  0  0  0  0  0  0
    4.7685    5.2791   13.9222 O   0  0  0  0  0  0  0  0  0  0  0  0
    4.8696    0.8420   15.6820 C   0  0  0  0  0  0  0  0  0  0  0  0
    6.1105    0.3405   15.5455 N   0  0  0  0  0  0  0  0  0  0  0  0
    6.3541   -0.5721   16.4487 N   0  0  0  0  0  0  0  0  0  0  0  0
    5.2578   -0.6694   17.1864 N   0  0  0  0  0  0  0  0  0  0  0  0
    4.3339    0.1918   16.7308 N   0  0  0  0  0  0  0  0  0  0  0  0
  1  2  2  0
  2  3  1  0
  3  4  2  0
  4  5  1  0
  5  6  2  0
  4  7  1  0
  7  8  1  0
  8  9  1  0
  9 10  1  0
 10 11  1  0
 11 12  1  0
 12 13  2  0
 13 14  1  0
 14 15  2  0
 15 16  1  0
 16 17  2  0
 15 18  1  0
 18 19  2  0
 18 20  1  0
 20 21  1  0
 21 22  2  0
 22 23  1  0
 23 24  2  0
 24 25  1  0
 25 26  2  0
 26 27  1  0
 27 28  1  0
 28 29  2  0
 29 30  1  0
 30 31  2  0
 28 32  1  0
 32 33  2  0
 33 34  1  0
 34 35  1  0
 35 36  2  0
  6  1  1  0
 17 12  1  0
 26 21  1  0
 30 25  1  0
 36 32  1  0
M  END
$$$$
