
     RDKit          3D

 36 40  0  0  0  0  0  0  0  0999 V2000
   -2.3936   -9.3449    6.2933 C   0  0  0  0  0  0  0  0  0  0  0  0
   -3.0600   -8.4078    7.0477 C   0  0  0  0  0  0  0  0  0  0  0  0
   -2.9027   -8.3554    8.4125 C   0  0  0  0  0  0  0  0  0  0  0  0
   -2.0874   -9.2196    9.0820 C   0  0  0  0  0  0  0  0  0  0  0  0
   -1.4051  -10.1767    8.3233 C   0  0  0  0  0  0  0  0  0  0  0  0
   -1.5686  -10.2198    6.9685 C   0  0  0  0  0  0  0  0  0  0  0  0
   -1.9172   -9.1650   10.5478 C   0  0  0  0  0  0  0  0  0  0  0  0
   -2.1708   -7.7796   11.0774 C   0  0  0  0  0  0  0  0  0  0  0  0
   -1.4976   -7.5986   12.4161 C   0  0  0  0  0  0  0  0  0  0  0  0
   -0.2813   -6.7140   12.2376 C   0  0  0  0  0  0  0  0  0  0  0  0
   -0.6200   -5.4368   12.7249 O   0  0  0  0  0  0  0  0  0  0  0  0
    0.3048   -4.5792   13.2964 C   0  0  0  0  0  0  0  0  0  0  0  0
    0.0160   -3.2479   13.5479 C   0  0  0  0  0  0  0  0  0  0  0  0
    0.9808   -2.4336   14.1225 C   0  0  0  0  0  0  0  0  0  0  0  0
    2.2267   -2.8956   14.4577 C   0  0  0  0  0  0  0  0  0  0  0  0
    2.4930   -4.2215   14.1995 C   0  0  0  0  0  0  0  0  0  0  0  0
    1.5512   -5.0659   13.6252 C   0  0  0  0  0  0  0  0  0  0  0  0
    3.2539   -2.0625   15.0606 C   0  0  0  0  0  0  0  0  0  0  0  0
    4.4393   -2.4762   15.0827 O   0  0  0  0  0  0  0  0  0  0  0  0
    3.0088   -0.7921   15.6363 N   0  0  0  0  0  0  0  0  0  0  0  0
    4.0012    0.2172   15.7778 C   0  0  0  0  0  0  0  0  0  0  0  0
    5.0729    0.0772   16.6345 C   0  0  0  0  0  0  0  0  0  0  0  0
    6.0456    1.0580   16.7779 C   0  0  0  0  0  0  0  0  0  0  0  0
    5.9382    2.2192   16.0356 C   0  0  0  0  0  0  0  0  0  0  0  0
    4.8838    2.3976   15.1695 C   0  0  0  0  0  0  0  0  0  0  0  0
    3.9349    1.4039   15.0506 C   0  0  0  0  0  0  0  0  0  0  0  0
    2.8953    1.5015   14.2414 O   0  0  0  0  0  0  0  0  0  0  0  0
    2.7386    2.5800   13.5106 C   0  0  0  0  0  0  0  0  0  0  0  0
    3.6540    3.6162   13.5809 C   0  0  0  0  0  0  0  0  0  0  0  0
    4.7568    3.5658   14.4089 C   0  0  0  0  0  0  0  0  0  0  0  0
    5.6094    4.4575   14.5163 O   0  0  0  0  0  0  0  0  0  0  0  0
    1.5943    2.7291   12.5961 C   0  0  0  0  0  0  0  0  0  0  0  0
    1.0424    1.8062   11.7878 N   0  0  0  0  0  0  0  0  0  0  0  0
    0.0361    2.3040   11.1189 N   0  0  0  0  0  0  0  0  0  0  0  0
   -0.0722    3.5700   11.4944 N   0  0  0  0  0  0  0  0  0  0  0  0
    0.8768    3.8504   12.4020 N   0  0  0  0  0  0  0  0  0  0  0  0
  1  2  2  0
  2  3  1  0
  3  4  2  0
  4  5  1  0
  5  6  2  0
  4  7  1  0
  7  8  1  0
  8  9  1  0
  9 10  1  0
 10 11  1  0
 11 12  1  0
 12 13  2  0
 13 14  1  0
 14 15  2  0
 15 16  1  0
 16 17  2  0
 15 18  1  0
 18 19  2  0
 18 20  1  0
 20 21  1  0
 21 22  2  0
 22 23  1  0
 23 24  2  0
 24 25  1  0
 25 26  2  0
 26 27  1  0
 27 28  1  0
 28 29  2  0
 29 30  1  0
 30 31  2  0
 28 32  1  0
 32 33  2  0
 33 34  1  0
 34 35  1  0
 35 36  2  0
  6  1  1  0
 17 12  1  0
 26 21  1  0
 30 25  1  0
 36 32  1  0
M  END
$$$$
