
     RDKit          3D

 36 40  0  0  0  0  0  0  0  0999 V2000
   -3.9741    4.6421    8.6678 C   0  0  0  0  0  0  0  0  0  0  0  0
   -4.8559    4.8066    9.7103 C   0  0  0  0  0  0  0  0  0  0  0  0
   -4.6064    4.2516   10.9431 C   0  0  0  0  0  0  0  0  0  0  0  0
   -3.4848    3.5175   11.1942 C   0  0  0  0  0  0  0  0  0  0  0  0
   -2.5816    3.3445   10.1399 C   0  0  0  0  0  0  0  0  0  0  0  0
   -2.8392    3.9001    8.9196 C   0  0  0  0  0  0  0  0  0  0  0  0
   -3.2150    2.9206   12.5176 C   0  0  0  0  0  0  0  0  0  0  0  0
   -3.1507    1.4194   12.4385 C   0  0  0  0  0  0  0  0  0  0  0  0
   -4.0145    0.8003   13.5102 C   0  0  0  0  0  0  0  0  0  0  0  0
   -3.3094   -0.4201   14.0641 C   0  0  0  0  0  0  0  0  0  0  0  0
   -2.1645    0.0343   14.7469 O   0  0  0  0  0  0  0  0  0  0  0  0
   -1.0307   -0.7423   14.9160 C   0  0  0  0  0  0  0  0  0  0  0  0
    0.2162   -0.3288   14.4763 C   0  0  0  0  0  0  0  0  0  0  0  0
    1.3186   -1.1476   14.6721 C   0  0  0  0  0  0  0  0  0  0  0  0
    1.2270   -2.3667   15.2912 C   0  0  0  0  0  0  0  0  0  0  0  0
   -0.0211   -2.7585   15.7204 C   0  0  0  0  0  0  0  0  0  0  0  0
   -1.1469   -1.9646   15.5412 C   0  0  0  0  0  0  0  0  0  0  0  0
    2.3669   -3.2422   15.5080 C   0  0  0  0  0  0  0  0  0  0  0  0
    2.1741   -4.3875   15.9854 O   0  0  0  0  0  0  0  0  0  0  0  0
    3.7063   -2.8889   15.2134 N   0  0  0  0  0  0  0  0  0  0  0  0
    4.8282   -3.3528   15.9550 C   0  0  0  0  0  0  0  0  0  0  0  0
    4.9905   -4.6820   16.2850 C   0  0  0  0  0  0  0  0  0  0  0  0
    6.0829   -5.1422   17.0086 C   0  0  0  0  0  0  0  0  0  0  0  0
    7.0450   -4.2365   17.4146 C   0  0  0  0  0  0  0  0  0  0  0  0
    6.9199   -2.9014   17.1055 C   0  0  0  0  0  0  0  0  0  0  0  0
    5.8229   -2.4771   16.3855 C   0  0  0  0  0  0  0  0  0  0  0  0
    5.6328   -1.2135   16.0507 O   0  0  0  0  0  0  0  0  0  0  0  0
    6.5114   -0.3065   16.4074 C   0  0  0  0  0  0  0  0  0  0  0  0
    7.6360   -0.6636   17.1318 C   0  0  0  0  0  0  0  0  0  0  0  0
    7.8830   -1.9683   17.5072 C   0  0  0  0  0  0  0  0  0  0  0  0
    8.8677   -2.3501   18.1537 O   0  0  0  0  0  0  0  0  0  0  0  0
    6.3377    1.1124   16.0549 C   0  0  0  0  0  0  0  0  0  0  0  0
    6.0301    1.6467   14.8592 N   0  0  0  0  0  0  0  0  0  0  0  0
    5.9598    2.9499   14.9272 N   0  0  0  0  0  0  0  0  0  0  0  0
    6.2250    3.2730   16.1845 N   0  0  0  0  0  0  0  0  0  0  0  0
    6.4599    2.1573   16.8934 N   0  0  0  0  0  0  0  0  0  0  0  0
  1  2  2  0
  2  3  1  0
  3  4  2  0
  4  5  1  0
  5  6  2  0
  4  7  1  0
  7  8  1  0
  8  9  1  0
  9 10  1  0
 10 11  1  0
 11 12  1  0
 12 13  2  0
 13 14  1  0
 14 15  2  0
 15 16  1  0
 16 17  2  0
 15 18  1  0
 18 19  2  0
 18 20  1  0
 20 21  1  0
 21 22  2  0
 22 23  1  0
 23 24  2  0
 24 25  1  0
 25 26  2  0
 26 27  1  0
 27 28  1  0
 28 29  2  0
 29 30  1  0
 30 31  2  0
 28 32  1  0
 32 33  2  0
 33 34  1  0
 34 35  1  0
 35 36  2  0
  6  1  1  0
 17 12  1  0
 26 21  1  0
 30 25  1  0
 36 32  1  0
M  END
$$$$
