
     RDKit          3D

 36 40  0  0  0  0  0  0  0  0999 V2000
    2.4449   -8.8889   12.9430 C   0  0  0  0  0  0  0  0  0  0  0  0
    1.7874   -9.7226   13.8171 C   0  0  0  0  0  0  0  0  0  0  0  0
    0.4829   -9.4826   14.1788 C   0  0  0  0  0  0  0  0  0  0  0  0
   -0.2193   -8.4180   13.6956 C   0  0  0  0  0  0  0  0  0  0  0  0
    0.4410   -7.5641   12.8056 C   0  0  0  0  0  0  0  0  0  0  0  0
    1.7366   -7.8118   12.4532 C   0  0  0  0  0  0  0  0  0  0  0  0
   -1.6205   -8.1586   14.0829 C   0  0  0  0  0  0  0  0  0  0  0  0
   -1.9509   -6.6933   13.9939 C   0  0  0  0  0  0  0  0  0  0  0  0
   -2.3697   -6.1673   15.3453 C   0  0  0  0  0  0  0  0  0  0  0  0
   -1.2871   -5.2477   15.8704 C   0  0  0  0  0  0  0  0  0  0  0  0
   -1.2046   -4.1542   14.9867 O   0  0  0  0  0  0  0  0  0  0  0  0
   -0.3300   -3.0975   15.1758 C   0  0  0  0  0  0  0  0  0  0  0  0
   -0.3065   -2.3633   16.3503 C   0  0  0  0  0  0  0  0  0  0  0  0
    0.5910   -1.3144   16.4854 C   0  0  0  0  0  0  0  0  0  0  0  0
    1.4693   -0.9670   15.4925 C   0  0  0  0  0  0  0  0  0  0  0  0
    1.4295   -1.7094   14.3337 C   0  0  0  0  0  0  0  0  0  0  0  0
    0.5442   -2.7663   14.1635 C   0  0  0  0  0  0  0  0  0  0  0  0
    2.4187    0.1273   15.6103 C   0  0  0  0  0  0  0  0  0  0  0  0
    2.5041    0.7459   16.6998 O   0  0  0  0  0  0  0  0  0  0  0  0
    3.2715    0.5544   14.5635 N   0  0  0  0  0  0  0  0  0  0  0  0
    3.9828    1.7863   14.5753 C   0  0  0  0  0  0  0  0  0  0  0  0
    5.0879    1.9875   15.3755 C   0  0  0  0  0  0  0  0  0  0  0  0
    5.7873    3.1873   15.3925 C   0  0  0  0  0  0  0  0  0  0  0  0
    5.3622    4.2201   14.5780 C   0  0  0  0  0  0  0  0  0  0  0  0
    4.2638    4.0594   13.7647 C   0  0  0  0  0  0  0  0  0  0  0  0
    3.5915    2.8552   13.7717 C   0  0  0  0  0  0  0  0  0  0  0  0
    2.5300    2.6249   13.0199 O   0  0  0  0  0  0  0  0  0  0  0  0
    2.0784    3.5667   12.2256 C   0  0  0  0  0  0  0  0  0  0  0  0
    2.7057    4.7997   12.1693 C   0  0  0  0  0  0  0  0  0  0  0  0
    3.8172    5.0927   12.9327 C   0  0  0  0  0  0  0  0  0  0  0  0
    4.4215    6.1737   12.9271 O   0  0  0  0  0  0  0  0  0  0  0  0
    0.8986    3.3515   11.3715 C   0  0  0  0  0  0  0  0  0  0  0  0
    0.3219    4.2075   10.5087 N   0  0  0  0  0  0  0  0  0  0  0  0
   -0.7129    3.6643    9.9237 N   0  0  0  0  0  0  0  0  0  0  0  0
   -0.8149    2.4362   10.4102 N   0  0  0  0  0  0  0  0  0  0  0  0
    0.1666    2.2249   11.3017 N   0  0  0  0  0  0  0  0  0  0  0  0
  1  2  2  0
  2  3  1  0
  3  4  2  0
  4  5  1  0
  5  6  2  0
  4  7  1  0
  7  8  1  0
  8  9  1  0
  9 10  1  0
 10 11  1  0
 11 12  1  0
 12 13  2  0
 13 14  1  0
 14 15  2  0
 15 16  1  0
 16 17  2  0
 15 18  1  0
 18 19  2  0
 18 20  1  0
 20 21  1  0
 21 22  2  0
 22 23  1  0
 23 24  2  0
 24 25  1  0
 25 26  2  0
 26 27  1  0
 27 28  1  0
 28 29  2  0
 29 30  1  0
 30 31  2  0
 28 32  1  0
 32 33  2  0
 33 34  1  0
 34 35  1  0
 35 36  2  0
  6  1  1  0
 17 12  1  0
 26 21  1  0
 30 25  1  0
 36 32  1  0
M  END
$$$$
