
     RDKit          3D

 36 40  0  0  0  0  0  0  0  0999 V2000
   -4.3068   -4.3234   19.8267 C   0  0  0  0  0  0  0  0  0  0  0  0
   -3.2464   -5.1772   20.0220 C   0  0  0  0  0  0  0  0  0  0  0  0
   -2.7983   -5.9927   19.0100 C   0  0  0  0  0  0  0  0  0  0  0  0
   -3.3747   -5.9980   17.7740 C   0  0  0  0  0  0  0  0  0  0  0  0
   -4.4542   -5.1329   17.5655 C   0  0  0  0  0  0  0  0  0  0  0  0
   -4.8912   -4.3272   18.5775 C   0  0  0  0  0  0  0  0  0  0  0  0
   -2.8948   -6.8731   16.6858 C   0  0  0  0  0  0  0  0  0  0  0  0
   -2.2668   -6.0736   15.5766 C   0  0  0  0  0  0  0  0  0  0  0  0
   -1.2211   -6.8965   14.8642 C   0  0  0  0  0  0  0  0  0  0  0  0
   -0.6485   -6.0809   13.7238 C   0  0  0  0  0  0  0  0  0  0  0  0
    0.6706   -5.7377   14.0784 O   0  0  0  0  0  0  0  0  0  0  0  0
    1.3069   -4.6031   13.6041 C   0  0  0  0  0  0  0  0  0  0  0  0
    2.5883   -4.2580   14.0017 C   0  0  0  0  0  0  0  0  0  0  0  0
    3.1777   -3.1094   13.4943 C   0  0  0  0  0  0  0  0  0  0  0  0
    2.5381   -2.2882   12.6031 C   0  0  0  0  0  0  0  0  0  0  0  0
    1.2656   -2.6493   12.2211 C   0  0  0  0  0  0  0  0  0  0  0  0
    0.6444   -3.7921   12.7086 C   0  0  0  0  0  0  0  0  0  0  0  0
    3.1344   -1.0801   12.0575 C   0  0  0  0  0  0  0  0  0  0  0  0
    3.2293   -0.9558   10.8116 O   0  0  0  0  0  0  0  0  0  0  0  0
    3.6260   -0.0115   12.8463 N   0  0  0  0  0  0  0  0  0  0  0  0
    3.7116    1.3335   12.3913 C   0  0  0  0  0  0  0  0  0  0  0  0
    3.9438    1.6470   11.0685 C   0  0  0  0  0  0  0  0  0  0  0  0
    4.0287    2.9576   10.6169 C   0  0  0  0  0  0  0  0  0  0  0  0
    3.8751    3.9884   11.5249 C   0  0  0  0  0  0  0  0  0  0  0  0
    3.6419    3.7177   12.8538 C   0  0  0  0  0  0  0  0  0  0  0  0
    3.5633    2.4051   13.2696 C   0  0  0  0  0  0  0  0  0  0  0  0
    3.3424    2.0656   14.5269 O   0  0  0  0  0  0  0  0  0  0  0  0
    3.1882    2.9995   15.4357 C   0  0  0  0  0  0  0  0  0  0  0  0
    3.2552    4.3377   15.0870 C   0  0  0  0  0  0  0  0  0  0  0  0
    3.4836    4.7471   13.7891 C   0  0  0  0  0  0  0  0  0  0  0  0
    3.5543    5.9254   13.4149 O   0  0  0  0  0  0  0  0  0  0  0  0
    2.9403    2.6645   16.8478 C   0  0  0  0  0  0  0  0  0  0  0  0
    2.7763    3.4989   17.8902 N   0  0  0  0  0  0  0  0  0  0  0  0
    2.5746    2.8370   18.9989 N   0  0  0  0  0  0  0  0  0  0  0  0
    2.6070    1.5520   18.6779 N   0  0  0  0  0  0  0  0  0  0  0  0
    2.8306    1.4254   17.3600 N   0  0  0  0  0  0  0  0  0  0  0  0
  1  2  2  0
  2  3  1  0
  3  4  2  0
  4  5  1  0
  5  6  2  0
  4  7  1  0
  7  8  1  0
  8  9  1  0
  9 10  1  0
 10 11  1  0
 11 12  1  0
 12 13  2  0
 13 14  1  0
 14 15  2  0
 15 16  1  0
 16 17  2  0
 15 18  1  0
 18 19  2  0
 18 20  1  0
 20 21  1  0
 21 22  2  0
 22 23  1  0
 23 24  2  0
 24 25  1  0
 25 26  2  0
 26 27  1  0
 27 28  1  0
 28 29  2  0
 29 30  1  0
 30 31  2  0
 28 32  1  0
 32 33  2  0
 33 34  1  0
 34 35  1  0
 35 36  2  0
  6  1  1  0
 17 12  1  0
 26 21  1  0
 30 25  1  0
 36 32  1  0
M  END
$$$$
