
     RDKit          3D

 36 40  0  0  0  0  0  0  0  0999 V2000
   -2.8711   -7.4538   19.3040 C   0  0  0  0  0  0  0  0  0  0  0  0
   -2.0068   -6.5760   18.6926 C   0  0  0  0  0  0  0  0  0  0  0  0
   -1.6599   -6.7286   17.3711 C   0  0  0  0  0  0  0  0  0  0  0  0
   -2.1487   -7.7462   16.6060 C   0  0  0  0  0  0  0  0  0  0  0  0
   -3.0287   -8.6445   17.2190 C   0  0  0  0  0  0  0  0  0  0  0  0
   -3.3666   -8.4836   18.5321 C   0  0  0  0  0  0  0  0  0  0  0  0
   -1.7773   -7.9118   15.1865 C   0  0  0  0  0  0  0  0  0  0  0  0
   -0.3806   -7.4172   14.9245 C   0  0  0  0  0  0  0  0  0  0  0  0
   -0.0185   -7.6135   13.4724 C   0  0  0  0  0  0  0  0  0  0  0  0
   -0.1892   -6.2977   12.7423 C   0  0  0  0  0  0  0  0  0  0  0  0
    1.1002   -5.7860   12.4991 O   0  0  0  0  0  0  0  0  0  0  0  0
    1.3644   -4.4312   12.3896 C   0  0  0  0  0  0  0  0  0  0  0  0
    2.5809   -3.8864   12.7670 C   0  0  0  0  0  0  0  0  0  0  0  0
    2.7912   -2.5216   12.6355 C   0  0  0  0  0  0  0  0  0  0  0  0
    1.8335   -1.6753   12.1409 C   0  0  0  0  0  0  0  0  0  0  0  0
    0.6320   -2.2372   11.7719 C   0  0  0  0  0  0  0  0  0  0  0  0
    0.3864   -3.5994   11.8896 C   0  0  0  0  0  0  0  0  0  0  0  0
    2.0301   -0.2427   11.9936 C   0  0  0  0  0  0  0  0  0  0  0  0
    1.1070    0.4520   11.5015 O   0  0  0  0  0  0  0  0  0  0  0  0
    3.2117    0.4395   12.3728 N   0  0  0  0  0  0  0  0  0  0  0  0
    3.2314    1.7740   12.8650 C   0  0  0  0  0  0  0  0  0  0  0  0
    2.9534    2.8575   12.0582 C   0  0  0  0  0  0  0  0  0  0  0  0
    2.9708    4.1630   12.5315 C   0  0  0  0  0  0  0  0  0  0  0  0
    3.2779    4.3880   13.8603 C   0  0  0  0  0  0  0  0  0  0  0  0
    3.5613    3.3339   14.6982 C   0  0  0  0  0  0  0  0  0  0  0  0
    3.5354    2.0495   14.1966 C   0  0  0  0  0  0  0  0  0  0  0  0
    3.7958    0.9874   14.9376 O   0  0  0  0  0  0  0  0  0  0  0  0
    4.0940    1.1366   16.2067 C   0  0  0  0  0  0  0  0  0  0  0  0
    4.1379    2.3983   16.7751 C   0  0  0  0  0  0  0  0  0  0  0  0
    3.8746    3.5404   16.0468 C   0  0  0  0  0  0  0  0  0  0  0  0
    3.8976    4.6941   16.4964 O   0  0  0  0  0  0  0  0  0  0  0  0
    4.3908   -0.0204   17.0676 C   0  0  0  0  0  0  0  0  0  0  0  0
    3.9093   -1.2736   16.9817 N   0  0  0  0  0  0  0  0  0  0  0  0
    4.4005   -2.0348   17.9236 N   0  0  0  0  0  0  0  0  0  0  0  0
    5.2145   -1.2695   18.6357 N   0  0  0  0  0  0  0  0  0  0  0  0
    5.2221   -0.0277   18.1253 N   0  0  0  0  0  0  0  0  0  0  0  0
  1  2  2  0
  2  3  1  0
  3  4  2  0
  4  5  1  0
  5  6  2  0
  4  7  1  0
  7  8  1  0
  8  9  1  0
  9 10  1  0
 10 11  1  0
 11 12  1  0
 12 13  2  0
 13 14  1  0
 14 15  2  0
 15 16  1  0
 16 17  2  0
 15 18  1  0
 18 19  2  0
 18 20  1  0
 20 21  1  0
 21 22  2  0
 22 23  1  0
 23 24  2  0
 24 25  1  0
 25 26  2  0
 26 27  1  0
 27 28  1  0
 28 29  2  0
 29 30  1  0
 30 31  2  0
 28 32  1  0
 32 33  2  0
 33 34  1  0
 34 35  1  0
 35 36  2  0
  6  1  1  0
 17 12  1  0
 26 21  1  0
 30 25  1  0
 36 32  1  0
M  END
$$$$
