
     RDKit          3D

 36 40  0  0  0  0  0  0  0  0999 V2000
    1.4666  -12.6930   14.5208 C   0  0  0  0  0  0  0  0  0  0  0  0
    1.0018  -11.4867   14.0517 C   0  0  0  0  0  0  0  0  0  0  0  0
    1.5769  -10.3031   14.4496 C   0  0  0  0  0  0  0  0  0  0  0  0
    2.6260  -10.2632   15.3200 C   0  0  0  0  0  0  0  0  0  0  0  0
    3.1061  -11.4853   15.8029 C   0  0  0  0  0  0  0  0  0  0  0  0
    2.5276  -12.6550   15.4012 C   0  0  0  0  0  0  0  0  0  0  0  0
    3.2450   -8.9929   15.7486 C   0  0  0  0  0  0  0  0  0  0  0  0
    4.2752   -8.5238   14.7572 C   0  0  0  0  0  0  0  0  0  0  0  0
    4.8300   -7.1830   15.1724 C   0  0  0  0  0  0  0  0  0  0  0  0
    3.6968   -6.1798   15.2291 C   0  0  0  0  0  0  0  0  0  0  0  0
    4.1111   -5.0423   14.5096 O   0  0  0  0  0  0  0  0  0  0  0  0
    3.2472   -4.0203   14.1537 C   0  0  0  0  0  0  0  0  0  0  0  0
    2.0414   -4.2649   13.5171 C   0  0  0  0  0  0  0  0  0  0  0  0
    1.2144   -3.2024   13.1834 C   0  0  0  0  0  0  0  0  0  0  0  0
    1.5428   -1.9011   13.4603 C   0  0  0  0  0  0  0  0  0  0  0  0
    2.7453   -1.6802   14.0933 C   0  0  0  0  0  0  0  0  0  0  0  0
    3.5984   -2.7196   14.4422 C   0  0  0  0  0  0  0  0  0  0  0  0
    0.6934   -0.7715   13.1209 C   0  0  0  0  0  0  0  0  0  0  0  0
   -0.3835   -0.9802   12.5097 O   0  0  0  0  0  0  0  0  0  0  0  0
    0.9994    0.5747   13.4366 N   0  0  0  0  0  0  0  0  0  0  0  0
    0.2037    1.6825   13.0326 C   0  0  0  0  0  0  0  0  0  0  0  0
   -1.1746    1.6466   13.0657 C   0  0  0  0  0  0  0  0  0  0  0  0
   -1.9579    2.7240   12.6729 C   0  0  0  0  0  0  0  0  0  0  0  0
   -1.3357    3.8768   12.2317 C   0  0  0  0  0  0  0  0  0  0  0  0
    0.0374    3.9529   12.1835 C   0  0  0  0  0  0  0  0  0  0  0  0
    0.7862    2.8650   12.5808 C   0  0  0  0  0  0  0  0  0  0  0  0
    2.1070    2.8616   12.5632 O   0  0  0  0  0  0  0  0  0  0  0  0
    2.7551    3.9268   12.1545 C   0  0  0  0  0  0  0  0  0  0  0  0
    2.0655    5.0541   11.7416 C   0  0  0  0  0  0  0  0  0  0  0  0
    0.6867    5.1109   11.7399 C   0  0  0  0  0  0  0  0  0  0  0  0
    0.0136    6.0873   11.3834 O   0  0  0  0  0  0  0  0  0  0  0  0
    4.2265    3.9648   12.1192 C   0  0  0  0  0  0  0  0  0  0  0  0
    5.0298    4.9853   11.7683 N   0  0  0  0  0  0  0  0  0  0  0  0
    6.2894    4.6493   11.8604 N   0  0  0  0  0  0  0  0  0  0  0  0
    6.3109    3.3919   12.2772 N   0  0  0  0  0  0  0  0  0  0  0  0
    5.0527    2.9533   12.4420 N   0  0  0  0  0  0  0  0  0  0  0  0
  1  2  2  0
  2  3  1  0
  3  4  2  0
  4  5  1  0
  5  6  2  0
  4  7  1  0
  7  8  1  0
  8  9  1  0
  9 10  1  0
 10 11  1  0
 11 12  1  0
 12 13  2  0
 13 14  1  0
 14 15  2  0
 15 16  1  0
 16 17  2  0
 15 18  1  0
 18 19  2  0
 18 20  1  0
 20 21  1  0
 21 22  2  0
 22 23  1  0
 23 24  2  0
 24 25  1  0
 25 26  2  0
 26 27  1  0
 27 28  1  0
 28 29  2  0
 29 30  1  0
 30 31  2  0
 28 32  1  0
 32 33  2  0
 33 34  1  0
 34 35  1  0
 35 36  2  0
  6  1  1  0
 17 12  1  0
 26 21  1  0
 30 25  1  0
 36 32  1  0
M  END
$$$$
