
     RDKit          3D

 36 40  0  0  0  0  0  0  0  0999 V2000
    6.4067  -13.0951   11.5910 C   0  0  0  0  0  0  0  0  0  0  0  0
    7.1027  -11.9796   11.1876 C   0  0  0  0  0  0  0  0  0  0  0  0
    6.4550  -10.7933   10.9363 C   0  0  0  0  0  0  0  0  0  0  0  0
    5.1044  -10.6617   11.0722 C   0  0  0  0  0  0  0  0  0  0  0  0
    4.3875  -11.7909   11.4821 C   0  0  0  0  0  0  0  0  0  0  0  0
    5.0408  -12.9642   11.7290 C   0  0  0  0  0  0  0  0  0  0  0  0
    4.4069   -9.3884   10.8027 C   0  0  0  0  0  0  0  0  0  0  0  0
    3.4551   -9.0394   11.9146 C   0  0  0  0  0  0  0  0  0  0  0  0
    2.0447   -8.9417   11.3861 C   0  0  0  0  0  0  0  0  0  0  0  0
    1.6203   -7.4879   11.3869 C   0  0  0  0  0  0  0  0  0  0  0  0
    1.8692   -6.9820   12.6775 O   0  0  0  0  0  0  0  0  0  0  0  0
    1.5997   -5.6726   13.0380 C   0  0  0  0  0  0  0  0  0  0  0  0
    0.6111   -4.9273   12.4166 C   0  0  0  0  0  0  0  0  0  0  0  0
    0.3838   -3.6192   12.8184 C   0  0  0  0  0  0  0  0  0  0  0  0
    1.1056   -3.0225   13.8188 C   0  0  0  0  0  0  0  0  0  0  0  0
    2.0831   -3.7806   14.4231 C   0  0  0  0  0  0  0  0  0  0  0  0
    2.3382   -5.0933   14.0467 C   0  0  0  0  0  0  0  0  0  0  0  0
    0.8863   -1.6542   14.2574 C   0  0  0  0  0  0  0  0  0  0  0  0
   -0.1631   -1.0615   13.9046 O   0  0  0  0  0  0  0  0  0  0  0  0
    1.7893   -0.9269   15.0705 N   0  0  0  0  0  0  0  0  0  0  0  0
    2.3633    0.3196   14.6959 C   0  0  0  0  0  0  0  0  0  0  0  0
    3.1443    0.4580   13.5676 C   0  0  0  0  0  0  0  0  0  0  0  0
    3.7080    1.6715   13.1956 C   0  0  0  0  0  0  0  0  0  0  0  0
    3.4795    2.7839   13.9837 C   0  0  0  0  0  0  0  0  0  0  0  0
    2.7059    2.6877   15.1176 C   0  0  0  0  0  0  0  0  0  0  0  0
    2.1607    1.4678   15.4590 C   0  0  0  0  0  0  0  0  0  0  0  0
    1.4081    1.2960   16.5309 O   0  0  0  0  0  0  0  0  0  0  0  0
    1.1554    2.3146   17.3186 C   0  0  0  0  0  0  0  0  0  0  0  0
    1.6712    3.5677   17.0349 C   0  0  0  0  0  0  0  0  0  0  0  0
    2.4625    3.8021   15.9290 C   0  0  0  0  0  0  0  0  0  0  0  0
    2.9524    4.8971   15.6218 O   0  0  0  0  0  0  0  0  0  0  0  0
    0.3216    2.1664   18.5230 C   0  0  0  0  0  0  0  0  0  0  0  0
   -0.5382    1.1784   18.8300 N   0  0  0  0  0  0  0  0  0  0  0  0
   -1.1028    1.3859   19.9902 N   0  0  0  0  0  0  0  0  0  0  0  0
   -0.6059    2.5252   20.4489 N   0  0  0  0  0  0  0  0  0  0  0  0
    0.2715    3.0204   19.5613 N   0  0  0  0  0  0  0  0  0  0  0  0
  1  2  2  0
  2  3  1  0
  3  4  2  0
  4  5  1  0
  5  6  2  0
  4  7  1  0
  7  8  1  0
  8  9  1  0
  9 10  1  0
 10 11  1  0
 11 12  1  0
 12 13  2  0
 13 14  1  0
 14 15  2  0
 15 16  1  0
 16 17  2  0
 15 18  1  0
 18 19  2  0
 18 20  1  0
 20 21  1  0
 21 22  2  0
 22 23  1  0
 23 24  2  0
 24 25  1  0
 25 26  2  0
 26 27  1  0
 27 28  1  0
 28 29  2  0
 29 30  1  0
 30 31  2  0
 28 32  1  0
 32 33  2  0
 33 34  1  0
 34 35  1  0
 35 36  2  0
  6  1  1  0
 17 12  1  0
 26 21  1  0
 30 25  1  0
 36 32  1  0
M  END
$$$$
