
     RDKit          3D

 36 40  0  0  0  0  0  0  0  0999 V2000
    8.7987   -7.8620   11.7545 C   0  0  0  0  0  0  0  0  0  0  0  0
    7.7735   -8.5545   11.1539 C   0  0  0  0  0  0  0  0  0  0  0  0
    6.5947   -8.7931   11.8198 C   0  0  0  0  0  0  0  0  0  0  0  0
    6.3823   -8.3609   13.0957 C   0  0  0  0  0  0  0  0  0  0  0  0
    7.4194   -7.6554   13.7153 C   0  0  0  0  0  0  0  0  0  0  0  0
    8.5860   -7.4239   13.0448 C   0  0  0  0  0  0  0  0  0  0  0  0
    5.1169   -8.6162   13.8126 C   0  0  0  0  0  0  0  0  0  0  0  0
    4.1495   -7.4770   13.6388 C   0  0  0  0  0  0  0  0  0  0  0  0
    3.1271   -7.8140   12.5809 C   0  0  0  0  0  0  0  0  0  0  0  0
    1.8097   -7.1628   12.9470 C   0  0  0  0  0  0  0  0  0  0  0  0
    2.0003   -5.7692   12.8775 O   0  0  0  0  0  0  0  0  0  0  0  0
    1.2220   -4.8665   13.5822 C   0  0  0  0  0  0  0  0  0  0  0  0
    0.2592   -5.2771   14.4897 C   0  0  0  0  0  0  0  0  0  0  0  0
   -0.4922   -4.3288   15.1681 C   0  0  0  0  0  0  0  0  0  0  0  0
   -0.3213   -2.9826   14.9771 C   0  0  0  0  0  0  0  0  0  0  0  0
    0.6405   -2.5962   14.0710 C   0  0  0  0  0  0  0  0  0  0  0  0
    1.4114   -3.5177   13.3738 C   0  0  0  0  0  0  0  0  0  0  0  0
   -1.0958   -1.9703   15.6757 C   0  0  0  0  0  0  0  0  0  0  0  0
   -2.0237   -2.3323   16.4405 O   0  0  0  0  0  0  0  0  0  0  0  0
   -0.8746   -0.5768   15.5532 N   0  0  0  0  0  0  0  0  0  0  0  0
   -1.2649    0.3755   16.5352 C   0  0  0  0  0  0  0  0  0  0  0  0
   -2.3250    0.1557   17.3896 C   0  0  0  0  0  0  0  0  0  0  0  0
   -2.7118    1.0807   18.3506 C   0  0  0  0  0  0  0  0  0  0  0  0
   -2.0101    2.2668   18.4570 C   0  0  0  0  0  0  0  0  0  0  0  0
   -0.9461    2.5243   17.6232 C   0  0  0  0  0  0  0  0  0  0  0  0
   -0.5877    1.5847   16.6795 C   0  0  0  0  0  0  0  0  0  0  0  0
    0.4208    1.7591   15.8443 O   0  0  0  0  0  0  0  0  0  0  0  0
    1.1251    2.8650   15.8965 C   0  0  0  0  0  0  0  0  0  0  0  0
    0.8196    3.8503   16.8200 C   0  0  0  0  0  0  0  0  0  0  0  0
   -0.2226    3.7192   17.7148 C   0  0  0  0  0  0  0  0  0  0  0  0
   -0.5451    4.5623   18.5625 O   0  0  0  0  0  0  0  0  0  0  0  0
    2.2567    3.0992   14.9842 C   0  0  0  0  0  0  0  0  0  0  0  0
    3.2244    4.0297   15.0718 N   0  0  0  0  0  0  0  0  0  0  0  0
    4.0641    3.9344   14.0749 N   0  0  0  0  0  0  0  0  0  0  0  0
    3.6404    2.9280   13.3246 N   0  0  0  0  0  0  0  0  0  0  0  0
    2.5306    2.4017   13.8670 N   0  0  0  0  0  0  0  0  0  0  0  0
  1  2  2  0
  2  3  1  0
  3  4  2  0
  4  5  1  0
  5  6  2  0
  4  7  1  0
  7  8  1  0
  8  9  1  0
  9 10  1  0
 10 11  1  0
 11 12  1  0
 12 13  2  0
 13 14  1  0
 14 15  2  0
 15 16  1  0
 16 17  2  0
 15 18  1  0
 18 19  2  0
 18 20  1  0
 20 21  1  0
 21 22  2  0
 22 23  1  0
 23 24  2  0
 24 25  1  0
 25 26  2  0
 26 27  1  0
 27 28  1  0
 28 29  2  0
 29 30  1  0
 30 31  2  0
 28 32  1  0
 32 33  2  0
 33 34  1  0
 34 35  1  0
 35 36  2  0
  6  1  1  0
 17 12  1  0
 26 21  1  0
 30 25  1  0
 36 32  1  0
M  END
$$$$
