
     RDKit          3D

 36 40  0  0  0  0  0  0  0  0999 V2000
    7.9588    0.5053   23.0095 C   0  0  0  0  0  0  0  0  0  0  0  0
    7.3857    0.8768   21.8158 C   0  0  0  0  0  0  0  0  0  0  0  0
    7.0284   -0.0637   20.8788 C   0  0  0  0  0  0  0  0  0  0  0  0
    7.2212   -1.3985   21.0813 C   0  0  0  0  0  0  0  0  0  0  0  0
    7.8037   -1.7864   22.2926 C   0  0  0  0  0  0  0  0  0  0  0  0
    8.1547   -0.8441   23.2162 C   0  0  0  0  0  0  0  0  0  0  0  0
    6.8382   -2.4101   20.0761 C   0  0  0  0  0  0  0  0  0  0  0  0
    8.0423   -3.1438   19.5511 C   0  0  0  0  0  0  0  0  0  0  0  0
    7.7872   -3.6324   18.1459 C   0  0  0  0  0  0  0  0  0  0  0  0
    6.2921   -3.6996   17.9141 C   0  0  0  0  0  0  0  0  0  0  0  0
    6.0862   -3.7009   16.5209 O   0  0  0  0  0  0  0  0  0  0  0  0
    4.8626   -3.4131   15.9403 C   0  0  0  0  0  0  0  0  0  0  0  0
    3.6873   -4.0089   16.3677 C   0  0  0  0  0  0  0  0  0  0  0  0
    2.4891   -3.6832   15.7495 C   0  0  0  0  0  0  0  0  0  0  0  0
    2.4157   -2.7837   14.7183 C   0  0  0  0  0  0  0  0  0  0  0  0
    3.5951   -2.2031   14.3090 C   0  0  0  0  0  0  0  0  0  0  0  0
    4.8130   -2.5054   14.9048 C   0  0  0  0  0  0  0  0  0  0  0  0
    1.1728   -2.4261   14.0548 C   0  0  0  0  0  0  0  0  0  0  0  0
    0.1903   -3.2034   14.1404 O   0  0  0  0  0  0  0  0  0  0  0  0
    0.9867   -1.2400   13.3038 N   0  0  0  0  0  0  0  0  0  0  0  0
   -0.2317   -0.5065   13.2723 C   0  0  0  0  0  0  0  0  0  0  0  0
   -1.4557   -1.1084   13.4763 C   0  0  0  0  0  0  0  0  0  0  0  0
   -2.6493   -0.3989   13.4470 C   0  0  0  0  0  0  0  0  0  0  0  0
   -2.6122    0.9615   13.2047 C   0  0  0  0  0  0  0  0  0  0  0  0
   -1.4110    1.5997   12.9962 C   0  0  0  0  0  0  0  0  0  0  0  0
   -0.2438    0.8660   13.0318 C   0  0  0  0  0  0  0  0  0  0  0  0
    0.9464    1.4065   12.8414 O   0  0  0  0  0  0  0  0  0  0  0  0
    1.0465    2.6937   12.6069 C   0  0  0  0  0  0  0  0  0  0  0  0
   -0.0854    3.4895   12.5575 C   0  0  0  0  0  0  0  0  0  0  0  0
   -1.3519    2.9763   12.7492 C   0  0  0  0  0  0  0  0  0  0  0  0
   -2.4004    3.6344   12.7174 O   0  0  0  0  0  0  0  0  0  0  0  0
    2.3534    3.3359   12.3892 C   0  0  0  0  0  0  0  0  0  0  0  0
    2.6119    4.5842   11.9595 N   0  0  0  0  0  0  0  0  0  0  0  0
    3.8984    4.8030   11.8878 N   0  0  0  0  0  0  0  0  0  0  0  0
    4.4899    3.6828   12.2759 N   0  0  0  0  0  0  0  0  0  0  0  0
    3.5571    2.7690   12.5883 N   0  0  0  0  0  0  0  0  0  0  0  0
  1  2  2  0
  2  3  1  0
  3  4  2  0
  4  5  1  0
  5  6  2  0
  4  7  1  0
  7  8  1  0
  8  9  1  0
  9 10  1  0
 10 11  1  0
 11 12  1  0
 12 13  2  0
 13 14  1  0
 14 15  2  0
 15 16  1  0
 16 17  2  0
 15 18  1  0
 18 19  2  0
 18 20  1  0
 20 21  1  0
 21 22  2  0
 22 23  1  0
 23 24  2  0
 24 25  1  0
 25 26  2  0
 26 27  1  0
 27 28  1  0
 28 29  2  0
 29 30  1  0
 30 31  2  0
 28 32  1  0
 32 33  2  0
 33 34  1  0
 34 35  1  0
 35 36  2  0
  6  1  1  0
 17 12  1  0
 26 21  1  0
 30 25  1  0
 36 32  1  0
M  END
$$$$
