
     RDKit          3D

 36 40  0  0  0  0  0  0  0  0999 V2000
    8.3274   -7.2699   16.5834 C   0  0  0  0  0  0  0  0  0  0  0  0
    7.7198   -7.7749   17.7091 C   0  0  0  0  0  0  0  0  0  0  0  0
    6.3522   -7.7500   17.8471 C   0  0  0  0  0  0  0  0  0  0  0  0
    5.5358   -7.2293   16.8868 C   0  0  0  0  0  0  0  0  0  0  0  0
    6.1445   -6.7131   15.7378 C   0  0  0  0  0  0  0  0  0  0  0  0
    7.5036   -6.7429   15.6109 C   0  0  0  0  0  0  0  0  0  0  0  0
    4.0667   -7.2016   17.0333 C   0  0  0  0  0  0  0  0  0  0  0  0
    3.4507   -6.1315   16.1734 C   0  0  0  0  0  0  0  0  0  0  0  0
    2.4529   -6.7374   15.2167 C   0  0  0  0  0  0  0  0  0  0  0  0
    2.2759   -5.8044   14.0369 C   0  0  0  0  0  0  0  0  0  0  0  0
    1.8819   -4.5536   14.5504 O   0  0  0  0  0  0  0  0  0  0  0  0
    1.8563   -3.3997   13.7854 C   0  0  0  0  0  0  0  0  0  0  0  0
    1.3493   -2.2059   14.2720 C   0  0  0  0  0  0  0  0  0  0  0  0
    1.3485   -1.0802   13.4614 C   0  0  0  0  0  0  0  0  0  0  0  0
    1.8349   -1.0975   12.1804 C   0  0  0  0  0  0  0  0  0  0  0  0
    2.3340   -2.2938   11.7165 C   0  0  0  0  0  0  0  0  0  0  0  0
    2.3508   -3.4408   12.5000 C   0  0  0  0  0  0  0  0  0  0  0  0
    1.8449    0.0681   11.3122 C   0  0  0  0  0  0  0  0  0  0  0  0
    2.2271   -0.0605   10.1229 O   0  0  0  0  0  0  0  0  0  0  0  0
    1.4467    1.3647   11.7195 N   0  0  0  0  0  0  0  0  0  0  0  0
    1.7683    2.5521   11.0050 C   0  0  0  0  0  0  0  0  0  0  0  0
    1.7960    2.5940    9.6268 C   0  0  0  0  0  0  0  0  0  0  0  0
    2.1091    3.7493    8.9225 C   0  0  0  0  0  0  0  0  0  0  0  0
    2.4044    4.9017    9.6265 C   0  0  0  0  0  0  0  0  0  0  0  0
    2.3877    4.9014   11.0025 C   0  0  0  0  0  0  0  0  0  0  0  0
    2.0727    3.7373   11.6715 C   0  0  0  0  0  0  0  0  0  0  0  0
    2.0358    3.6580   12.9896 O   0  0  0  0  0  0  0  0  0  0  0  0
    2.3067    4.7187   13.7131 C   0  0  0  0  0  0  0  0  0  0  0  0
    2.6307    5.9200   13.1059 C   0  0  0  0  0  0  0  0  0  0  0  0
    2.6836    6.0576   11.7339 C   0  0  0  0  0  0  0  0  0  0  0  0
    2.9664    7.1025   11.1323 O   0  0  0  0  0  0  0  0  0  0  0  0
    2.2770    4.6734   15.1844 C   0  0  0  0  0  0  0  0  0  0  0  0
    2.5314    5.6642   16.0581 N   0  0  0  0  0  0  0  0  0  0  0  0
    2.4062    5.2512   17.2917 N   0  0  0  0  0  0  0  0  0  0  0  0
    2.0652    3.9727   17.2245 N   0  0  0  0  0  0  0  0  0  0  0  0
    1.9807    3.5989   15.9377 N   0  0  0  0  0  0  0  0  0  0  0  0
  1  2  2  0
  2  3  1  0
  3  4  2  0
  4  5  1  0
  5  6  2  0
  4  7  1  0
  7  8  1  0
  8  9  1  0
  9 10  1  0
 10 11  1  0
 11 12  1  0
 12 13  2  0
 13 14  1  0
 14 15  2  0
 15 16  1  0
 16 17  2  0
 15 18  1  0
 18 19  2  0
 18 20  1  0
 20 21  1  0
 21 22  2  0
 22 23  1  0
 23 24  2  0
 24 25  1  0
 25 26  2  0
 26 27  1  0
 27 28  1  0
 28 29  2  0
 29 30  1  0
 30 31  2  0
 28 32  1  0
 32 33  2  0
 33 34  1  0
 34 35  1  0
 35 36  2  0
  6  1  1  0
 17 12  1  0
 26 21  1  0
 30 25  1  0
 36 32  1  0
M  END
$$$$
