
     RDKit          3D

 36 40  0  0  0  0  0  0  0  0999 V2000
    4.8972    7.3941   15.6056 C   0  0  0  0  0  0  0  0  0  0  0  0
    4.8355    6.7696   14.3819 C   0  0  0  0  0  0  0  0  0  0  0  0
    5.0508    5.4168   14.2657 C   0  0  0  0  0  0  0  0  0  0  0  0
    5.3334    4.6322   15.3448 C   0  0  0  0  0  0  0  0  0  0  0  0
    5.3983    5.2584   16.5941 C   0  0  0  0  0  0  0  0  0  0  0  0
    5.1829    6.6026   16.6982 C   0  0  0  0  0  0  0  0  0  0  0  0
    5.5649    3.1790   15.2220 C   0  0  0  0  0  0  0  0  0  0  0  0
    5.3820    2.7133   13.8029 C   0  0  0  0  0  0  0  0  0  0  0  0
    5.8132    1.2735   13.6639 C   0  0  0  0  0  0  0  0  0  0  0  0
    4.5803    0.3961   13.6034 C   0  0  0  0  0  0  0  0  0  0  0  0
    4.6945   -0.5547   14.6360 O   0  0  0  0  0  0  0  0  0  0  0  0
    4.0105   -1.7586   14.6303 C   0  0  0  0  0  0  0  0  0  0  0  0
    4.6299   -2.9579   14.9417 C   0  0  0  0  0  0  0  0  0  0  0  0
    3.8958   -4.1346   14.9202 C   0  0  0  0  0  0  0  0  0  0  0  0
    2.5639   -4.1634   14.5994 C   0  0  0  0  0  0  0  0  0  0  0  0
    1.9677   -2.9607   14.2932 C   0  0  0  0  0  0  0  0  0  0  0  0
    2.6717   -1.7632   14.3046 C   0  0  0  0  0  0  0  0  0  0  0  0
    1.7737   -5.3830   14.5700 C   0  0  0  0  0  0  0  0  0  0  0  0
    2.2977   -6.4585   14.9516 O   0  0  0  0  0  0  0  0  0  0  0  0
    0.4281   -5.4466   14.1330 N   0  0  0  0  0  0  0  0  0  0  0  0
   -0.5550   -6.2914   14.7192 C   0  0  0  0  0  0  0  0  0  0  0  0
   -0.4711   -7.6667   14.6577 C   0  0  0  0  0  0  0  0  0  0  0  0
   -1.4269   -8.4978   15.2274 C   0  0  0  0  0  0  0  0  0  0  0  0
   -2.5034   -7.9282   15.8811 C   0  0  0  0  0  0  0  0  0  0  0  0
   -2.6237   -6.5599   15.9646 C   0  0  0  0  0  0  0  0  0  0  0  0
   -1.6571   -5.7629   15.3880 C   0  0  0  0  0  0  0  0  0  0  0  0
   -1.7028   -4.4432   15.4261 O   0  0  0  0  0  0  0  0  0  0  0  0
   -2.7003   -3.8439   16.0324 C   0  0  0  0  0  0  0  0  0  0  0  0
   -3.7051   -4.5836   16.6324 C   0  0  0  0  0  0  0  0  0  0  0  0
   -3.7061   -5.9635   16.6220 C   0  0  0  0  0  0  0  0  0  0  0  0
   -4.5736   -6.6800   17.1394 O   0  0  0  0  0  0  0  0  0  0  0  0
   -2.7894   -2.3757   16.0978 C   0  0  0  0  0  0  0  0  0  0  0  0
   -3.8834   -1.6093   16.2578 N   0  0  0  0  0  0  0  0  0  0  0  0
   -3.5743   -0.3395   16.2680 N   0  0  0  0  0  0  0  0  0  0  0  0
   -2.2602   -0.2738   16.1125 N   0  0  0  0  0  0  0  0  0  0  0  0
   -1.7594   -1.5151   16.0061 N   0  0  0  0  0  0  0  0  0  0  0  0
  1  2  2  0
  2  3  1  0
  3  4  2  0
  4  5  1  0
  5  6  2  0
  4  7  1  0
  7  8  1  0
  8  9  1  0
  9 10  1  0
 10 11  1  0
 11 12  1  0
 12 13  2  0
 13 14  1  0
 14 15  2  0
 15 16  1  0
 16 17  2  0
 15 18  1  0
 18 19  2  0
 18 20  1  0
 20 21  1  0
 21 22  2  0
 22 23  1  0
 23 24  2  0
 24 25  1  0
 25 26  2  0
 26 27  1  0
 27 28  1  0
 28 29  2  0
 29 30  1  0
 30 31  2  0
 28 32  1  0
 32 33  2  0
 33 34  1  0
 34 35  1  0
 35 36  2  0
  6  1  1  0
 17 12  1  0
 26 21  1  0
 30 25  1  0
 36 32  1  0
M  END
$$$$
