
     RDKit          3D

 36 40  0  0  0  0  0  0  0  0999 V2000
   -2.5560   -7.5432   16.5814 C   0  0  0  0  0  0  0  0  0  0  0  0
   -2.5878   -7.8127   15.2332 C   0  0  0  0  0  0  0  0  0  0  0  0
   -1.6131   -8.5808   14.6415 C   0  0  0  0  0  0  0  0  0  0  0  0
   -0.5760   -9.1097   15.3518 C   0  0  0  0  0  0  0  0  0  0  0  0
   -0.5349   -8.8411   16.7241 C   0  0  0  0  0  0  0  0  0  0  0  0
   -1.5080   -8.0771   17.3016 C   0  0  0  0  0  0  0  0  0  0  0  0
    0.4718   -9.9349   14.7180 C   0  0  0  0  0  0  0  0  0  0  0  0
    1.7433   -9.1534   14.5266 C   0  0  0  0  0  0  0  0  0  0  0  0
    1.5958   -8.1852   13.3782 C   0  0  0  0  0  0  0  0  0  0  0  0
    1.9409   -6.7927   13.8636 C   0  0  0  0  0  0  0  0  0  0  0  0
    1.7998   -5.9220   12.7657 O   0  0  0  0  0  0  0  0  0  0  0  0
    2.1765   -4.5902   12.8074 C   0  0  0  0  0  0  0  0  0  0  0  0
    2.1927   -3.8672   13.9889 C   0  0  0  0  0  0  0  0  0  0  0  0
    2.5790   -2.5350   13.9723 C   0  0  0  0  0  0  0  0  0  0  0  0
    2.9512   -1.8927   12.8204 C   0  0  0  0  0  0  0  0  0  0  0  0
    2.9280   -2.6294   11.6576 C   0  0  0  0  0  0  0  0  0  0  0  0
    2.5468   -3.9651   11.6367 C   0  0  0  0  0  0  0  0  0  0  0  0
    3.3597   -0.4985   12.7775 C   0  0  0  0  0  0  0  0  0  0  0  0
    3.4780    0.0683   11.6632 O   0  0  0  0  0  0  0  0  0  0  0  0
    3.6395    0.2823   13.9254 N   0  0  0  0  0  0  0  0  0  0  0  0
    3.5817    1.7035   13.9489 C   0  0  0  0  0  0  0  0  0  0  0  0
    4.4333    2.4848   13.1963 C   0  0  0  0  0  0  0  0  0  0  0  0
    4.3828    3.8726   13.2141 C   0  0  0  0  0  0  0  0  0  0  0  0
    3.4449    4.4969   14.0150 C   0  0  0  0  0  0  0  0  0  0  0  0
    2.5769    3.7531   14.7811 C   0  0  0  0  0  0  0  0  0  0  0  0
    2.6534    2.3767   14.7405 C   0  0  0  0  0  0  0  0  0  0  0  0
    1.8557    1.5953   15.4463 O   0  0  0  0  0  0  0  0  0  0  0  0
    0.9448    2.1291   16.2255 C   0  0  0  0  0  0  0  0  0  0  0  0
    0.8133    3.5045   16.3137 C   0  0  0  0  0  0  0  0  0  0  0  0
    1.6200    4.3659   15.5986 C   0  0  0  0  0  0  0  0  0  0  0  0
    1.5520    5.6018   15.6345 O   0  0  0  0  0  0  0  0  0  0  0  0
    0.0358    1.2946   17.0287 C   0  0  0  0  0  0  0  0  0  0  0  0
   -0.0240   -0.0474   17.1021 N   0  0  0  0  0  0  0  0  0  0  0  0
   -0.9631   -0.4350   17.9242 N   0  0  0  0  0  0  0  0  0  0  0  0
   -1.5256    0.6682   18.3954 N   0  0  0  0  0  0  0  0  0  0  0  0
   -0.9255    1.7418   17.8568 N   0  0  0  0  0  0  0  0  0  0  0  0
  1  2  2  0
  2  3  1  0
  3  4  2  0
  4  5  1  0
  5  6  2  0
  4  7  1  0
  7  8  1  0
  8  9  1  0
  9 10  1  0
 10 11  1  0
 11 12  1  0
 12 13  2  0
 13 14  1  0
 14 15  2  0
 15 16  1  0
 16 17  2  0
 15 18  1  0
 18 19  2  0
 18 20  1  0
 20 21  1  0
 21 22  2  0
 22 23  1  0
 23 24  2  0
 24 25  1  0
 25 26  2  0
 26 27  1  0
 27 28  1  0
 28 29  2  0
 29 30  1  0
 30 31  2  0
 28 32  1  0
 32 33  2  0
 33 34  1  0
 34 35  1  0
 35 36  2  0
  6  1  1  0
 17 12  1  0
 26 21  1  0
 30 25  1  0
 36 32  1  0
M  END
$$$$
