
     RDKit          3D

 36 40  0  0  0  0  0  0  0  0999 V2000
    4.5766  -11.8874   14.8777 C   0  0  0  0  0  0  0  0  0  0  0  0
    4.6989  -11.0575   13.7878 C   0  0  0  0  0  0  0  0  0  0  0  0
    3.8971   -9.9496   13.6479 C   0  0  0  0  0  0  0  0  0  0  0  0
    2.9496   -9.6189   14.5714 C   0  0  0  0  0  0  0  0  0  0  0  0
    2.8176  -10.4570   15.6838 C   0  0  0  0  0  0  0  0  0  0  0  0
    3.6190  -11.5549   15.8128 C   0  0  0  0  0  0  0  0  0  0  0  0
    2.0875   -8.4294   14.4230 C   0  0  0  0  0  0  0  0  0  0  0  0
    0.7155   -8.8051   13.9327 C   0  0  0  0  0  0  0  0  0  0  0  0
    0.4887   -8.2628   12.5425 C   0  0  0  0  0  0  0  0  0  0  0  0
    1.4174   -7.0879   12.3170 C   0  0  0  0  0  0  0  0  0  0  0  0
    0.6115   -5.9680   12.0349 O   0  0  0  0  0  0  0  0  0  0  0  0
    1.0462   -4.6647   12.2072 C   0  0  0  0  0  0  0  0  0  0  0  0
    1.9143   -4.3076   13.2259 C   0  0  0  0  0  0  0  0  0  0  0  0
    2.3174   -2.9863   13.3516 C   0  0  0  0  0  0  0  0  0  0  0  0
    1.8879   -2.0033   12.4989 C   0  0  0  0  0  0  0  0  0  0  0  0
    1.0257   -2.3795   11.4936 C   0  0  0  0  0  0  0  0  0  0  0  0
    0.6011   -3.6930   11.3376 C   0  0  0  0  0  0  0  0  0  0  0  0
    2.2959   -0.6126   12.6100 C   0  0  0  0  0  0  0  0  0  0  0  0
    1.9704    0.1927   11.7031 O   0  0  0  0  0  0  0  0  0  0  0  0
    3.0493   -0.0903   13.6894 N   0  0  0  0  0  0  0  0  0  0  0  0
    3.1135    1.2935   14.0130 C   0  0  0  0  0  0  0  0  0  0  0  0
    3.9617    2.1614   13.3577 C   0  0  0  0  0  0  0  0  0  0  0  0
    4.0299    3.5133   13.6680 C   0  0  0  0  0  0  0  0  0  0  0  0
    3.2186    4.0105   14.6707 C   0  0  0  0  0  0  0  0  0  0  0  0
    2.3584    3.1773   15.3486 C   0  0  0  0  0  0  0  0  0  0  0  0
    2.3151    1.8397   15.0158 C   0  0  0  0  0  0  0  0  0  0  0  0
    1.5165    0.9783   15.6203 O   0  0  0  0  0  0  0  0  0  0  0  0
    0.7226    1.3901   16.5804 C   0  0  0  0  0  0  0  0  0  0  0  0
    0.7153    2.7202   16.9648 C   0  0  0  0  0  0  0  0  0  0  0  0
    1.5288    3.6610   16.3670 C   0  0  0  0  0  0  0  0  0  0  0  0
    1.5684    4.8623   16.6651 O   0  0  0  0  0  0  0  0  0  0  0  0
   -0.1827    0.4633   17.2797 C   0  0  0  0  0  0  0  0  0  0  0  0
   -1.0407    0.7270   18.2818 N   0  0  0  0  0  0  0  0  0  0  0  0
   -1.6816   -0.3502   18.6518 N   0  0  0  0  0  0  0  0  0  0  0  0
   -1.2372   -1.3323   17.8815 N   0  0  0  0  0  0  0  0  0  0  0  0
   -0.3153   -0.8523   17.0316 N   0  0  0  0  0  0  0  0  0  0  0  0
  1  2  2  0
  2  3  1  0
  3  4  2  0
  4  5  1  0
  5  6  2  0
  4  7  1  0
  7  8  1  0
  8  9  1  0
  9 10  1  0
 10 11  1  0
 11 12  1  0
 12 13  2  0
 13 14  1  0
 14 15  2  0
 15 16  1  0
 16 17  2  0
 15 18  1  0
 18 19  2  0
 18 20  1  0
 20 21  1  0
 21 22  2  0
 22 23  1  0
 23 24  2  0
 24 25  1  0
 25 26  2  0
 26 27  1  0
 27 28  1  0
 28 29  2  0
 29 30  1  0
 30 31  2  0
 28 32  1  0
 32 33  2  0
 33 34  1  0
 34 35  1  0
 35 36  2  0
  6  1  1  0
 17 12  1  0
 26 21  1  0
 30 25  1  0
 36 32  1  0
M  END
$$$$
