
     RDKit          3D

 37 40  0  0  0  0  0  0  0  0999 V2000
   -8.8027  -12.6909    0.8752 C   0  0  0  0  0  0  0  0  0  0  0  0
   -8.4974  -11.4202    0.0861 C   0  0  0  0  0  0  0  0  0  0  0  0
   -8.3894  -10.1876    0.9276 C   0  0  0  0  0  0  0  0  0  0  0  0
   -9.4938   -9.5054    0.1269 C   0  0  0  0  0  0  0  0  0  0  0  0
   -9.7962  -10.8878   -0.4691 C   0  0  0  0  0  0  0  0  0  0  0  0
   -9.0370   -8.5998   -0.9778 C   0  0  0  0  0  0  0  0  0  0  0  0
   -8.4778   -7.3052   -0.5682 C   0  0  0  0  0  0  0  0  0  0  0  0
   -7.1828   -6.8860   -0.7732 C   0  0  0  0  0  0  0  0  0  0  0  0
   -6.7060   -5.6723   -0.3672 C   0  0  0  0  0  0  0  0  0  0  0  0
   -7.5140   -4.7652    0.2919 C   0  0  0  0  0  0  0  0  0  0  0  0
   -8.8114   -5.1377    0.5200 C   0  0  0  0  0  0  0  0  0  0  0  0
   -9.2808   -6.3702    0.1036 C   0  0  0  0  0  0  0  0  0  0  0  0
   -6.9736   -3.4706    0.7194 C   0  0  0  0  0  0  0  0  0  0  0  0
   -5.7221   -3.2418    0.5418 O   0  0  0  0  0  0  0  0  0  0  0  0
   -7.8132   -2.5160    1.3049 N   0  0  0  0  0  0  0  0  0  0  0  0
   -7.3405   -1.1835    1.6034 C   0  0  0  0  0  0  0  0  0  0  0  0
   -7.5936   -0.2076    0.4654 C   0  0  0  0  0  0  0  0  0  0  0  0
   -8.8900    0.4537    0.7516 C   0  0  0  0  0  0  0  0  0  0  0  0
   -9.8335    0.2767   -0.0538 O   0  0  0  0  0  0  0  0  0  0  0  0
   -9.0190    1.2348    1.8819 O   0  0  0  0  0  0  0  0  0  0  0  0
   -9.8444   -8.6464   -2.1384 N   0  0  0  0  0  0  0  0  0  0  0  0
   -9.6204   -9.1160   -3.4436 C   0  0  0  0  0  0  0  0  0  0  0  0
   -8.4694   -9.7539   -3.8421 C   0  0  0  0  0  0  0  0  0  0  0  0
   -8.3417  -10.1419   -5.1327 N   0  0  0  0  0  0  0  0  0  0  0  0
   -9.2770   -9.9466   -6.0744 C   0  0  0  0  0  0  0  0  0  0  0  0
  -10.4347   -9.3085   -5.6823 C   0  0  0  0  0  0  0  0  0  0  0  0
  -10.6280   -8.8906   -4.3966 C   0  0  0  0  0  0  0  0  0  0  0  0
   -9.1634  -10.3409   -7.4291 N   0  0  0  0  0  0  0  0  0  0  0  0
   -8.0346  -10.7648   -8.0192 C   0  0  0  0  0  0  0  0  0  0  0  0
   -8.2796  -11.0687   -9.3488 C   0  0  0  0  0  0  0  0  0  0  0  0
   -9.5865  -10.8155   -9.5397 N   0  0  0  0  0  0  0  0  0  0  0  0
  -10.1127  -10.3740   -8.3665 C   0  0  0  0  0  0  0  0  0  0  0  0
   -7.3133  -11.5732  -10.3742 C   0  0  0  0  0  0  0  0  0  0  0  0
   -6.0347  -11.3583   -9.9057 F   0  0  0  0  0  0  0  0  0  0  0  0
   -7.5097  -12.9140  -10.5822 F   0  0  0  0  0  0  0  0  0  0  0  0
   -7.5279  -10.8517  -11.5265 F   0  0  0  0  0  0  0  0  0  0  0  0
   -7.3827  -11.6065   -0.8893 C   0  0  0  0  0  0  0  0  0  0  0  0
  1  2  1  0
  2  3  1  0
  3  4  1  0
  4  5  1  0
  4  6  1  0
  6  7  1  0
  7  8  2  0
  8  9  1  0
  9 10  2  0
 10 11  1  0
 11 12  2  0
 10 13  1  0
 13 14  2  0
 13 15  1  0
 15 16  1  0
 16 17  1  0
 17 18  1  0
 18 19  2  0
 18 20  1  0
  6 21  1  0
 21 22  1  0
 22 23  2  0
 23 24  1  0
 24 25  2  0
 25 26  1  0
 26 27  2  0
 25 28  1  0
 28 29  1  0
 29 30  2  0
 30 31  1  0
 31 32  2  0
 30 33  1  0
 33 34  1  0
 33 35  1  0
 33 36  1  0
  2 37  1  0
  5  2  1  0
 12  7  1  0
 27 22  1  0
 32 28  1  0
M  END
$$$$
