
     RDKit          3D

 37 40  0  0  0  0  0  0  0  0999 V2000
   -6.6595   -0.5246   10.6781 C   0  0  0  0  0  0  0  0  0  0  0  0
   -6.9155    0.1269    9.3214 C   0  0  0  0  0  0  0  0  0  0  0  0
   -7.2392   -0.8419    8.2280 C   0  0  0  0  0  0  0  0  0  0  0  0
   -6.0668   -0.3393    7.3918 C   0  0  0  0  0  0  0  0  0  0  0  0
   -5.5817    0.3770    8.6604 C   0  0  0  0  0  0  0  0  0  0  0  0
   -6.3969    0.6951    6.3573 C   0  0  0  0  0  0  0  0  0  0  0  0
   -7.3482    0.2910    5.3141 C   0  0  0  0  0  0  0  0  0  0  0  0
   -7.0582   -0.4894    4.2179 C   0  0  0  0  0  0  0  0  0  0  0  0
   -7.9774   -0.8342    3.2686 C   0  0  0  0  0  0  0  0  0  0  0  0
   -9.2905   -0.4106    3.3505 C   0  0  0  0  0  0  0  0  0  0  0  0
   -9.6274    0.3695    4.4238 C   0  0  0  0  0  0  0  0  0  0  0  0
   -8.6860    0.7113    5.3775 C   0  0  0  0  0  0  0  0  0  0  0  0
  -10.2551   -0.7936    2.3143 C   0  0  0  0  0  0  0  0  0  0  0  0
   -9.8565   -0.8368    1.0940 O   0  0  0  0  0  0  0  0  0  0  0  0
  -11.5753   -1.1026    2.6613 N   0  0  0  0  0  0  0  0  0  0  0  0
  -12.5552   -1.4432    1.6553 C   0  0  0  0  0  0  0  0  0  0  0  0
  -12.7214   -2.9454    1.4898 C   0  0  0  0  0  0  0  0  0  0  0  0
  -13.4317   -3.4311    2.6977 C   0  0  0  0  0  0  0  0  0  0  0  0
  -13.3155   -4.6405    3.0045 O   0  0  0  0  0  0  0  0  0  0  0  0
  -14.1905   -2.5493    3.4400 O   0  0  0  0  0  0  0  0  0  0  0  0
   -5.3066    1.5184    5.9906 N   0  0  0  0  0  0  0  0  0  0  0  0
   -5.1448    2.9112    5.9017 C   0  0  0  0  0  0  0  0  0  0  0  0
   -4.0006    3.5229    5.4467 C   0  0  0  0  0  0  0  0  0  0  0  0
   -3.9364    4.8750    5.4281 N   0  0  0  0  0  0  0  0  0  0  0  0
   -4.9301    5.6821    5.8293 C   0  0  0  0  0  0  0  0  0  0  0  0
   -6.0814    5.0763    6.2859 C   0  0  0  0  0  0  0  0  0  0  0  0
   -6.2121    3.7176    6.3316 C   0  0  0  0  0  0  0  0  0  0  0  0
   -4.8836    7.0968    5.8214 N   0  0  0  0  0  0  0  0  0  0  0  0
   -3.8315    7.8340    5.4315 C   0  0  0  0  0  0  0  0  0  0  0  0
   -4.1266    9.1825    5.5512 C   0  0  0  0  0  0  0  0  0  0  0  0
   -5.3849    9.2338    6.0234 N   0  0  0  0  0  0  0  0  0  0  0  0
   -5.8341    7.9608    6.1835 C   0  0  0  0  0  0  0  0  0  0  0  0
   -3.2499   10.3520    5.2297 C   0  0  0  0  0  0  0  0  0  0  0  0
   -4.0355   11.3427    4.6802 F   0  0  0  0  0  0  0  0  0  0  0  0
   -2.6526   10.8169    6.3728 F   0  0  0  0  0  0  0  0  0  0  0  0
   -2.3146    9.9215    4.3162 F   0  0  0  0  0  0  0  0  0  0  0  0
   -7.8426    1.2934    9.4128 C   0  0  0  0  0  0  0  0  0  0  0  0
  1  2  1  0
  2  3  1  0
  3  4  1  0
  4  5  1  0
  4  6  1  0
  6  7  1  0
  7  8  2  0
  8  9  1  0
  9 10  2  0
 10 11  1  0
 11 12  2  0
 10 13  1  0
 13 14  2  0
 13 15  1  0
 15 16  1  0
 16 17  1  0
 17 18  1  0
 18 19  2  0
 18 20  1  0
  6 21  1  0
 21 22  1  0
 22 23  2  0
 23 24  1  0
 24 25  2  0
 25 26  1  0
 26 27  2  0
 25 28  1  0
 28 29  1  0
 29 30  2  0
 30 31  1  0
 31 32  2  0
 30 33  1  0
 33 34  1  0
 33 35  1  0
 33 36  1  0
  2 37  1  0
  5  2  1  0
 12  7  1  0
 27 22  1  0
 32 28  1  0
M  END
$$$$
