
     RDKit          3D

 37 40  0  0  0  0  0  0  0  0999 V2000
  -11.0226   -8.6601    4.3087 C   0  0  0  0  0  0  0  0  0  0  0  0
  -11.8616   -7.4234    3.9970 C   0  0  0  0  0  0  0  0  0  0  0  0
  -12.6106   -7.5013    2.7039 C   0  0  0  0  0  0  0  0  0  0  0  0
  -11.9347   -6.2307    2.1990 C   0  0  0  0  0  0  0  0  0  0  0  0
  -10.9584   -6.3869    3.3737 C   0  0  0  0  0  0  0  0  0  0  0  0
  -12.7075   -4.9593    2.3875 C   0  0  0  0  0  0  0  0  0  0  0  0
  -14.1658   -5.0945    2.4952 C   0  0  0  0  0  0  0  0  0  0  0  0
  -14.8346   -5.9877    3.3011 C   0  0  0  0  0  0  0  0  0  0  0  0
  -16.1958   -6.0808    3.3625 C   0  0  0  0  0  0  0  0  0  0  0  0
  -17.0084   -5.2633    2.6000 C   0  0  0  0  0  0  0  0  0  0  0  0
  -16.3886   -4.3582    1.7811 C   0  0  0  0  0  0  0  0  0  0  0  0
  -15.0092   -4.2751    1.7287 C   0  0  0  0  0  0  0  0  0  0  0  0
  -18.4673   -5.3882    2.6839 C   0  0  0  0  0  0  0  0  0  0  0  0
  -18.9693   -6.5479    2.9145 O   0  0  0  0  0  0  0  0  0  0  0  0
  -19.2810   -4.2620    2.5154 N   0  0  0  0  0  0  0  0  0  0  0  0
  -20.7220   -4.3702    2.5203 C   0  0  0  0  0  0  0  0  0  0  0  0
  -21.2779   -4.8015    1.1725 C   0  0  0  0  0  0  0  0  0  0  0  0
  -21.6648   -6.2269    1.3077 C   0  0  0  0  0  0  0  0  0  0  0  0
  -22.6307   -6.5081    2.0548 O   0  0  0  0  0  0  0  0  0  0  0  0
  -20.9597   -7.1906    0.6159 O   0  0  0  0  0  0  0  0  0  0  0  0
  -12.1855   -3.8518    1.6790 N   0  0  0  0  0  0  0  0  0  0  0  0
  -10.8784   -3.4514    1.3543 C   0  0  0  0  0  0  0  0  0  0  0  0
   -9.7576   -4.2014    1.6223 C   0  0  0  0  0  0  0  0  0  0  0  0
   -8.5396   -3.7105    1.2939 N   0  0  0  0  0  0  0  0  0  0  0  0
   -8.3395   -2.5184    0.7118 C   0  0  0  0  0  0  0  0  0  0  0  0
   -9.4586   -1.7608    0.4388 C   0  0  0  0  0  0  0  0  0  0  0  0
  -10.7165   -2.1960    0.7443 C   0  0  0  0  0  0  0  0  0  0  0  0
   -7.0759   -1.9845    0.3629 N   0  0  0  0  0  0  0  0  0  0  0  0
   -5.8918   -2.4755    0.7618 C   0  0  0  0  0  0  0  0  0  0  0  0
   -4.8609   -1.7126    0.2372 C   0  0  0  0  0  0  0  0  0  0  0  0
   -5.4594   -0.7506   -0.4875 N   0  0  0  0  0  0  0  0  0  0  0  0
   -6.8048   -0.9262   -0.4036 C   0  0  0  0  0  0  0  0  0  0  0  0
   -3.3875   -1.8988    0.4221 C   0  0  0  0  0  0  0  0  0  0  0  0
   -2.8673   -0.7347    0.9462 F   0  0  0  0  0  0  0  0  0  0  0  0
   -3.1521   -2.9389    1.2838 F   0  0  0  0  0  0  0  0  0  0  0  0
   -2.8488   -2.1468   -0.8200 F   0  0  0  0  0  0  0  0  0  0  0  0
  -12.6801   -6.9786    5.1636 C   0  0  0  0  0  0  0  0  0  0  0  0
  1  2  1  0
  2  3  1  0
  3  4  1  0
  4  5  1  0
  4  6  1  0
  6  7  1  0
  7  8  2  0
  8  9  1  0
  9 10  2  0
 10 11  1  0
 11 12  2  0
 10 13  1  0
 13 14  2  0
 13 15  1  0
 15 16  1  0
 16 17  1  0
 17 18  1  0
 18 19  2  0
 18 20  1  0
  6 21  1  0
 21 22  1  0
 22 23  2  0
 23 24  1  0
 24 25  2  0
 25 26  1  0
 26 27  2  0
 25 28  1  0
 28 29  1  0
 29 30  2  0
 30 31  1  0
 31 32  2  0
 30 33  1  0
 33 34  1  0
 33 35  1  0
 33 36  1  0
  2 37  1  0
  5  2  1  0
 12  7  1  0
 27 22  1  0
 32 28  1  0
M  END
$$$$
