
     RDKit          3D

 37 40  0  0  0  0  0  0  0  0999 V2000
   -3.2579   -0.2312    6.7106 C   0  0  0  0  0  0  0  0  0  0  0  0
   -4.4002   -0.1923    5.6984 C   0  0  0  0  0  0  0  0  0  0  0  0
   -5.6870   -0.7639    6.2047 C   0  0  0  0  0  0  0  0  0  0  0  0
   -5.7256   -1.7729    5.0616 C   0  0  0  0  0  0  0  0  0  0  0  0
   -4.2640   -1.3893    4.7890 C   0  0  0  0  0  0  0  0  0  0  0  0
   -6.5506   -1.3824    3.8717 C   0  0  0  0  0  0  0  0  0  0  0  0
   -7.1402   -0.0378    3.9022 C   0  0  0  0  0  0  0  0  0  0  0  0
   -8.2633    0.3336    4.6062 C   0  0  0  0  0  0  0  0  0  0  0  0
   -8.7788    1.5982    4.5982 C   0  0  0  0  0  0  0  0  0  0  0  0
   -8.1908    2.6108    3.8640 C   0  0  0  0  0  0  0  0  0  0  0  0
   -7.0706    2.2895    3.1458 C   0  0  0  0  0  0  0  0  0  0  0  0
   -6.5595    1.0046    3.1628 C   0  0  0  0  0  0  0  0  0  0  0  0
   -8.7687    3.9587    3.8716 C   0  0  0  0  0  0  0  0  0  0  0  0
   -9.9835    4.1008    4.2643 O   0  0  0  0  0  0  0  0  0  0  0  0
   -8.0031    5.0552    3.4587 N   0  0  0  0  0  0  0  0  0  0  0  0
   -8.1749    6.3585    4.0587 C   0  0  0  0  0  0  0  0  0  0  0  0
   -7.7137    6.3979    5.5069 C   0  0  0  0  0  0  0  0  0  0  0  0
   -7.3278    7.8011    5.7930 C   0  0  0  0  0  0  0  0  0  0  0  0
   -7.3493    8.6237    4.8480 O   0  0  0  0  0  0  0  0  0  0  0  0
   -6.9609    8.1566    7.0750 O   0  0  0  0  0  0  0  0  0  0  0  0
   -7.3140   -2.4389    3.3221 N   0  0  0  0  0  0  0  0  0  0  0  0
   -7.1187   -3.2910    2.2221 C   0  0  0  0  0  0  0  0  0  0  0  0
   -6.0627   -3.1853    1.3480 C   0  0  0  0  0  0  0  0  0  0  0  0
   -5.9827   -4.0402    0.3015 N   0  0  0  0  0  0  0  0  0  0  0  0
   -6.8779   -5.0066    0.0478 C   0  0  0  0  0  0  0  0  0  0  0  0
   -7.9393   -5.1198    0.9204 C   0  0  0  0  0  0  0  0  0  0  0  0
   -8.0807   -4.2898    1.9957 C   0  0  0  0  0  0  0  0  0  0  0  0
   -6.8157   -5.9087   -1.0412 N   0  0  0  0  0  0  0  0  0  0  0  0
   -5.9331   -5.8430   -2.0507 C   0  0  0  0  0  0  0  0  0  0  0  0
   -6.1544   -6.8800   -2.9426 C   0  0  0  0  0  0  0  0  0  0  0  0
   -7.1940   -7.5696   -2.4402 N   0  0  0  0  0  0  0  0  0  0  0  0
   -7.5870   -6.9701   -1.2851 C   0  0  0  0  0  0  0  0  0  0  0  0
   -5.4093   -7.1890   -4.2032 C   0  0  0  0  0  0  0  0  0  0  0  0
   -4.3407   -6.3230   -4.2969 F   0  0  0  0  0  0  0  0  0  0  0  0
   -4.9546   -8.4820   -4.1727 F   0  0  0  0  0  0  0  0  0  0  0  0
   -6.2797   -6.9895   -5.2507 F   0  0  0  0  0  0  0  0  0  0  0  0
   -4.5300    1.1380    5.0334 C   0  0  0  0  0  0  0  0  0  0  0  0
  1  2  1  0
  2  3  1  0
  3  4  1  0
  4  5  1  0
  4  6  1  0
  6  7  1  0
  7  8  2  0
  8  9  1  0
  9 10  2  0
 10 11  1  0
 11 12  2  0
 10 13  1  0
 13 14  2  0
 13 15  1  0
 15 16  1  0
 16 17  1  0
 17 18  1  0
 18 19  2  0
 18 20  1  0
  6 21  1  0
 21 22  1  0
 22 23  2  0
 23 24  1  0
 24 25  2  0
 25 26  1  0
 26 27  2  0
 25 28  1  0
 28 29  1  0
 29 30  2  0
 30 31  1  0
 31 32  2  0
 30 33  1  0
 33 34  1  0
 33 35  1  0
 33 36  1  0
  2 37  1  0
  5  2  1  0
 12  7  1  0
 27 22  1  0
 32 28  1  0
M  END
$$$$
