
     RDKit          3D

 37 40  0  0  0  0  0  0  0  0999 V2000
  -13.2891  -14.6916  -12.7859 C   0  0  0  0  0  0  0  0  0  0  0  0
  -12.3489  -13.4893  -12.8175 C   0  0  0  0  0  0  0  0  0  0  0  0
  -12.1003  -12.8707  -11.4779 C   0  0  0  0  0  0  0  0  0  0  0  0
  -12.6085  -11.5201  -11.9716 C   0  0  0  0  0  0  0  0  0  0  0  0
  -13.1561  -12.2706  -13.1940 C   0  0  0  0  0  0  0  0  0  0  0  0
  -11.5581  -10.5556  -12.4358 C   0  0  0  0  0  0  0  0  0  0  0  0
  -10.2260  -10.7068  -11.8366 C   0  0  0  0  0  0  0  0  0  0  0  0
   -9.2651  -11.6118  -12.2269 C   0  0  0  0  0  0  0  0  0  0  0  0
   -8.0399  -11.7195  -11.6333 C   0  0  0  0  0  0  0  0  0  0  0  0
   -7.6781  -10.9061  -10.5761 C   0  0  0  0  0  0  0  0  0  0  0  0
   -8.6018   -9.9896  -10.1510 C   0  0  0  0  0  0  0  0  0  0  0  0
   -9.8390   -9.8917  -10.7613 C   0  0  0  0  0  0  0  0  0  0  0  0
   -6.3566  -11.0468   -9.9558 C   0  0  0  0  0  0  0  0  0  0  0  0
   -6.2783  -11.0305   -8.6737 O   0  0  0  0  0  0  0  0  0  0  0  0
   -5.2165  -11.1950  -10.7539 N   0  0  0  0  0  0  0  0  0  0  0  0
   -4.0049  -11.7825  -10.2295 C   0  0  0  0  0  0  0  0  0  0  0  0
   -4.1612  -13.2637   -9.9241 C   0  0  0  0  0  0  0  0  0  0  0  0
   -3.5269  -13.9991  -11.0451 C   0  0  0  0  0  0  0  0  0  0  0  0
   -3.1078  -13.3372  -12.0232 O   0  0  0  0  0  0  0  0  0  0  0  0
   -3.4174  -15.3732  -10.9803 O   0  0  0  0  0  0  0  0  0  0  0  0
  -12.0389   -9.2487  -12.6849 N   0  0  0  0  0  0  0  0  0  0  0  0
  -12.8868   -8.7105  -13.6675 C   0  0  0  0  0  0  0  0  0  0  0  0
  -13.0536   -9.2555  -14.9187 C   0  0  0  0  0  0  0  0  0  0  0  0
  -13.8740   -8.6414  -15.8032 N   0  0  0  0  0  0  0  0  0  0  0  0
  -14.5534   -7.5141  -15.5436 C   0  0  0  0  0  0  0  0  0  0  0  0
  -14.3924   -6.9620  -14.2905 C   0  0  0  0  0  0  0  0  0  0  0  0
  -13.5798   -7.5298  -13.3512 C   0  0  0  0  0  0  0  0  0  0  0  0
  -15.4135   -6.8539  -16.4536 N   0  0  0  0  0  0  0  0  0  0  0  0
  -15.5029   -7.1211  -17.7662 C   0  0  0  0  0  0  0  0  0  0  0  0
  -16.4413   -6.2900  -18.3566 C   0  0  0  0  0  0  0  0  0  0  0  0
  -16.9124   -5.5171  -17.3619 N   0  0  0  0  0  0  0  0  0  0  0  0
  -16.2806   -5.8689  -16.2108 C   0  0  0  0  0  0  0  0  0  0  0  0
  -16.8600   -6.2429  -19.7927 C   0  0  0  0  0  0  0  0  0  0  0  0
  -18.2145   -6.4916  -19.8562 F   0  0  0  0  0  0  0  0  0  0  0  0
  -16.5926   -5.0048  -20.3174 F   0  0  0  0  0  0  0  0  0  0  0  0
  -16.1614   -7.2277  -20.4535 F   0  0  0  0  0  0  0  0  0  0  0  0
  -11.1176  -13.7470  -13.6214 C   0  0  0  0  0  0  0  0  0  0  0  0
  1  2  1  0
  2  3  1  0
  3  4  1  0
  4  5  1  0
  4  6  1  0
  6  7  1  0
  7  8  2  0
  8  9  1  0
  9 10  2  0
 10 11  1  0
 11 12  2  0
 10 13  1  0
 13 14  2  0
 13 15  1  0
 15 16  1  0
 16 17  1  0
 17 18  1  0
 18 19  2  0
 18 20  1  0
  6 21  1  0
 21 22  1  0
 22 23  2  0
 23 24  1  0
 24 25  2  0
 25 26  1  0
 26 27  2  0
 25 28  1  0
 28 29  1  0
 29 30  2  0
 30 31  1  0
 31 32  2  0
 30 33  1  0
 33 34  1  0
 33 35  1  0
 33 36  1  0
  2 37  1  0
  5  2  1  0
 12  7  1  0
 27 22  1  0
 32 28  1  0
M  END
$$$$
