
     RDKit          3D

 37 40  0  0  0  0  0  0  0  0999 V2000
  -18.5755  -12.5487   -5.3018 C   0  0  0  0  0  0  0  0  0  0  0  0
  -17.3086  -11.7063   -5.4278 C   0  0  0  0  0  0  0  0  0  0  0  0
  -17.5444  -10.2305   -5.3550 C   0  0  0  0  0  0  0  0  0  0  0  0
  -16.8983  -10.0275   -6.7216 C   0  0  0  0  0  0  0  0  0  0  0  0
  -16.9913  -11.5503   -6.8952 C   0  0  0  0  0  0  0  0  0  0  0  0
  -15.4505   -9.6369   -6.7093 C   0  0  0  0  0  0  0  0  0  0  0  0
  -14.9878   -8.8919   -5.5313 C   0  0  0  0  0  0  0  0  0  0  0  0
  -14.5893   -9.4434   -4.3348 C   0  0  0  0  0  0  0  0  0  0  0  0
  -14.1721   -8.7073   -3.2628 C   0  0  0  0  0  0  0  0  0  0  0  0
  -14.1225   -7.3270   -3.3127 C   0  0  0  0  0  0  0  0  0  0  0  0
  -14.5105   -6.7318   -4.4828 C   0  0  0  0  0  0  0  0  0  0  0  0
  -14.9311   -7.4896   -5.5605 C   0  0  0  0  0  0  0  0  0  0  0  0
  -13.6736   -6.5623   -2.1445 C   0  0  0  0  0  0  0  0  0  0  0  0
  -13.4902   -7.1882   -1.0378 O   0  0  0  0  0  0  0  0  0  0  0  0
  -13.4536   -5.1840   -2.2476 N   0  0  0  0  0  0  0  0  0  0  0  0
  -12.9391   -4.4211   -1.1334 C   0  0  0  0  0  0  0  0  0  0  0  0
  -11.5396   -4.8551   -0.7276 C   0  0  0  0  0  0  0  0  0  0  0  0
  -10.8521   -3.6471   -0.2102 C   0  0  0  0  0  0  0  0  0  0  0  0
  -10.8418   -3.4588    1.0287 O   0  0  0  0  0  0  0  0  0  0  0  0
  -10.2510   -2.7760   -1.0958 O   0  0  0  0  0  0  0  0  0  0  0  0
  -14.9348   -9.2782   -7.9768 N   0  0  0  0  0  0  0  0  0  0  0  0
  -13.7122   -9.5320   -8.6209 C   0  0  0  0  0  0  0  0  0  0  0  0
  -12.7359  -10.3578   -8.1153 C   0  0  0  0  0  0  0  0  0  0  0  0
  -11.5799  -10.5123   -8.8024 N   0  0  0  0  0  0  0  0  0  0  0  0
  -11.3092   -9.9059   -9.9681 C   0  0  0  0  0  0  0  0  0  0  0  0
  -12.2838   -9.0771  -10.4823 C   0  0  0  0  0  0  0  0  0  0  0  0
  -13.4723   -8.8765   -9.8403 C   0  0  0  0  0  0  0  0  0  0  0  0
  -10.1072  -10.0505  -10.7014 N   0  0  0  0  0  0  0  0  0  0  0  0
   -9.0482  -10.7795  -10.3148 C   0  0  0  0  0  0  0  0  0  0  0  0
   -8.0453  -10.7015  -11.2677 C   0  0  0  0  0  0  0  0  0  0  0  0
   -8.5320   -9.9059  -12.2366 N   0  0  0  0  0  0  0  0  0  0  0  0
   -9.7851   -9.5167  -11.8814 C   0  0  0  0  0  0  0  0  0  0  0  0
   -6.6988  -11.3545  -11.2471 C   0  0  0  0  0  0  0  0  0  0  0  0
   -6.6091  -12.1240  -10.1068 F   0  0  0  0  0  0  0  0  0  0  0  0
   -6.5475  -12.1494  -12.3539 F   0  0  0  0  0  0  0  0  0  0  0  0
   -5.7586  -10.3494  -11.2210 F   0  0  0  0  0  0  0  0  0  0  0  0
  -16.2027  -12.2028   -4.5564 C   0  0  0  0  0  0  0  0  0  0  0  0
  1  2  1  0
  2  3  1  0
  3  4  1  0
  4  5  1  0
  4  6  1  0
  6  7  1  0
  7  8  2  0
  8  9  1  0
  9 10  2  0
 10 11  1  0
 11 12  2  0
 10 13  1  0
 13 14  2  0
 13 15  1  0
 15 16  1  0
 16 17  1  0
 17 18  1  0
 18 19  2  0
 18 20  1  0
  6 21  1  0
 21 22  1  0
 22 23  2  0
 23 24  1  0
 24 25  2  0
 25 26  1  0
 26 27  2  0
 25 28  1  0
 28 29  1  0
 29 30  2  0
 30 31  1  0
 31 32  2  0
 30 33  1  0
 33 34  1  0
 33 35  1  0
 33 36  1  0
  2 37  1  0
  5  2  1  0
 12  7  1  0
 27 22  1  0
 32 28  1  0
M  END
$$$$
