
     RDKit          3D

 37 40  0  0  0  0  0  0  0  0999 V2000
  -14.4479   -9.3798   -8.2715 C   0  0  0  0  0  0  0  0  0  0  0  0
  -13.4372   -9.7362   -9.3588 C   0  0  0  0  0  0  0  0  0  0  0  0
  -12.0712   -9.1678   -9.1355 C   0  0  0  0  0  0  0  0  0  0  0  0
  -12.1153   -8.4496  -10.4802 C   0  0  0  0  0  0  0  0  0  0  0  0
  -13.6170   -8.7689  -10.5035 C   0  0  0  0  0  0  0  0  0  0  0  0
  -11.4588   -9.1627  -11.6246 C   0  0  0  0  0  0  0  0  0  0  0  0
  -10.0825   -9.6233  -11.4004 C   0  0  0  0  0  0  0  0  0  0  0  0
   -9.4717   -9.7702  -10.1756 C   0  0  0  0  0  0  0  0  0  0  0  0
   -8.1841  -10.1969  -10.0173 C   0  0  0  0  0  0  0  0  0  0  0  0
   -7.3927  -10.5162  -11.1044 C   0  0  0  0  0  0  0  0  0  0  0  0
   -7.9563  -10.3850  -12.3450 C   0  0  0  0  0  0  0  0  0  0  0  0
   -9.2615   -9.9515  -12.4906 C   0  0  0  0  0  0  0  0  0  0  0  0
   -6.0120  -10.9684  -10.9042 C   0  0  0  0  0  0  0  0  0  0  0  0
   -5.1885  -10.8710  -11.8853 O   0  0  0  0  0  0  0  0  0  0  0  0
   -5.6147  -11.4909   -9.6681 N   0  0  0  0  0  0  0  0  0  0  0  0
   -4.2569  -11.9302   -9.4409 C   0  0  0  0  0  0  0  0  0  0  0  0
   -3.9084  -13.1788  -10.2353 C   0  0  0  0  0  0  0  0  0  0  0  0
   -4.2082  -14.3380   -9.3602 C   0  0  0  0  0  0  0  0  0  0  0  0
   -3.7983  -14.3057   -8.1765 O   0  0  0  0  0  0  0  0  0  0  0  0
   -4.9209  -15.4054   -9.8673 O   0  0  0  0  0  0  0  0  0  0  0  0
  -11.7970   -8.6503  -12.8991 N   0  0  0  0  0  0  0  0  0  0  0  0
  -12.7921   -8.9842  -13.8331 C   0  0  0  0  0  0  0  0  0  0  0  0
  -12.6093   -8.9460  -15.1953 C   0  0  0  0  0  0  0  0  0  0  0  0
  -13.6437   -9.2597  -16.0101 N   0  0  0  0  0  0  0  0  0  0  0  0
  -14.8631   -9.6144  -15.5774 C   0  0  0  0  0  0  0  0  0  0  0  0
  -15.0541   -9.6562  -14.2126 C   0  0  0  0  0  0  0  0  0  0  0  0
  -14.0535   -9.3512  -13.3346 C   0  0  0  0  0  0  0  0  0  0  0  0
  -15.9590   -9.9433  -16.4107 N   0  0  0  0  0  0  0  0  0  0  0  0
  -15.8839  -10.1799  -17.7301 C   0  0  0  0  0  0  0  0  0  0  0  0
  -17.1419  -10.4720  -18.2321 C   0  0  0  0  0  0  0  0  0  0  0  0
  -17.9736  -10.4043  -17.1774 N   0  0  0  0  0  0  0  0  0  0  0  0
  -17.2436  -10.0824  -16.0767 C   0  0  0  0  0  0  0  0  0  0  0  0
  -17.5208  -10.7974  -19.6429 C   0  0  0  0  0  0  0  0  0  0  0  0
  -16.3737  -10.8063  -20.4073 F   0  0  0  0  0  0  0  0  0  0  0  0
  -18.1194  -12.0298  -19.6939 F   0  0  0  0  0  0  0  0  0  0  0  0
  -18.3753   -9.8082  -20.0741 F   0  0  0  0  0  0  0  0  0  0  0  0
  -13.4573  -11.1884   -9.7045 C   0  0  0  0  0  0  0  0  0  0  0  0
  1  2  1  0
  2  3  1  0
  3  4  1  0
  4  5  1  0
  4  6  1  0
  6  7  1  0
  7  8  2  0
  8  9  1  0
  9 10  2  0
 10 11  1  0
 11 12  2  0
 10 13  1  0
 13 14  2  0
 13 15  1  0
 15 16  1  0
 16 17  1  0
 17 18  1  0
 18 19  2  0
 18 20  1  0
  6 21  1  0
 21 22  1  0
 22 23  2  0
 23 24  1  0
 24 25  2  0
 25 26  1  0
 26 27  2  0
 25 28  1  0
 28 29  1  0
 29 30  2  0
 30 31  1  0
 31 32  2  0
 30 33  1  0
 33 34  1  0
 33 35  1  0
 33 36  1  0
  2 37  1  0
  5  2  1  0
 12  7  1  0
 27 22  1  0
 32 28  1  0
M  END
$$$$
