
     RDKit          3D

 37 40  0  0  0  0  0  0  0  0999 V2000
   -3.4341    1.1999   -0.3790 C   0  0  0  0  0  0  0  0  0  0  0  0
   -4.6863    0.5475    0.2016 C   0  0  0  0  0  0  0  0  0  0  0  0
   -5.3417    1.3396    1.2888 C   0  0  0  0  0  0  0  0  0  0  0  0
   -5.2102    0.1728    2.2621 C   0  0  0  0  0  0  0  0  0  0  0  0
   -4.2540   -0.4589    1.2402 C   0  0  0  0  0  0  0  0  0  0  0  0
   -6.4166   -0.7084    2.3939 C   0  0  0  0  0  0  0  0  0  0  0  0
   -7.4441   -0.2664    3.3453 C   0  0  0  0  0  0  0  0  0  0  0  0
   -8.0000   -1.0329    4.3444 C   0  0  0  0  0  0  0  0  0  0  0  0
   -8.9600   -0.5785    5.2029 C   0  0  0  0  0  0  0  0  0  0  0  0
   -9.4465    0.7126    5.1208 C   0  0  0  0  0  0  0  0  0  0  0  0
   -8.9243    1.5137    4.1413 C   0  0  0  0  0  0  0  0  0  0  0  0
   -7.9527    1.0402    3.2785 C   0  0  0  0  0  0  0  0  0  0  0  0
  -10.4802    1.1721    6.0541 C   0  0  0  0  0  0  0  0  0  0  0  0
  -10.8633    0.3728    6.9839 O   0  0  0  0  0  0  0  0  0  0  0  0
  -11.0271    2.4537    5.9235 N   0  0  0  0  0  0  0  0  0  0  0  0
  -12.0579    2.9244    6.8203 C   0  0  0  0  0  0  0  0  0  0  0  0
  -11.7369    2.6365    8.2782 C   0  0  0  0  0  0  0  0  0  0  0  0
  -10.7696    3.6729    8.7142 C   0  0  0  0  0  0  0  0  0  0  0  0
   -9.6844    3.7655    8.0945 O   0  0  0  0  0  0  0  0  0  0  0  0
  -11.0877    4.4952    9.7758 O   0  0  0  0  0  0  0  0  0  0  0  0
   -6.1381   -2.0922    2.2998 N   0  0  0  0  0  0  0  0  0  0  0  0
   -6.9297   -3.2099    1.9863 C   0  0  0  0  0  0  0  0  0  0  0  0
   -6.4458   -4.4945    1.9073 C   0  0  0  0  0  0  0  0  0  0  0  0
   -7.2882   -5.4985    1.5689 N   0  0  0  0  0  0  0  0  0  0  0  0
   -8.5915   -5.3300    1.2990 C   0  0  0  0  0  0  0  0  0  0  0  0
   -9.0847   -4.0448    1.3771 C   0  0  0  0  0  0  0  0  0  0  0  0
   -8.2895   -2.9863    1.7124 C   0  0  0  0  0  0  0  0  0  0  0  0
   -9.4892   -6.3640    0.9404 N   0  0  0  0  0  0  0  0  0  0  0  0
   -9.1325   -7.6044    0.5708 C   0  0  0  0  0  0  0  0  0  0  0  0
  -10.2605   -8.3584    0.2895 C   0  0  0  0  0  0  0  0  0  0  0  0
  -11.3036   -7.5361    0.5008 N   0  0  0  0  0  0  0  0  0  0  0  0
  -10.8225   -6.3276    0.8959 C   0  0  0  0  0  0  0  0  0  0  0  0
  -10.3302   -9.7855   -0.1557 C   0  0  0  0  0  0  0  0  0  0  0  0
   -9.0433  -10.2679   -0.2635 F   0  0  0  0  0  0  0  0  0  0  0  0
  -11.0265  -10.5283    0.7625 F   0  0  0  0  0  0  0  0  0  0  0  0
  -10.9507   -9.7996   -1.3843 F   0  0  0  0  0  0  0  0  0  0  0  0
   -5.6174    0.0548   -0.8563 C   0  0  0  0  0  0  0  0  0  0  0  0
  1  2  1  0
  2  3  1  0
  3  4  1  0
  4  5  1  0
  4  6  1  0
  6  7  1  0
  7  8  2  0
  8  9  1  0
  9 10  2  0
 10 11  1  0
 11 12  2  0
 10 13  1  0
 13 14  2  0
 13 15  1  0
 15 16  1  0
 16 17  1  0
 17 18  1  0
 18 19  2  0
 18 20  1  0
  6 21  1  0
 21 22  1  0
 22 23  2  0
 23 24  1  0
 24 25  2  0
 25 26  1  0
 26 27  2  0
 25 28  1  0
 28 29  1  0
 29 30  2  0
 30 31  1  0
 31 32  2  0
 30 33  1  0
 33 34  1  0
 33 35  1  0
 33 36  1  0
  2 37  1  0
  5  2  1  0
 12  7  1  0
 27 22  1  0
 32 28  1  0
M  END
$$$$
