
     RDKit          3D

 37 40  0  0  0  0  0  0  0  0999 V2000
    1.8205    0.5653    9.9054 C   0  0  0  0  0  0  0  0  0  0  0  0
    0.4685    1.2533    9.7336 C   0  0  0  0  0  0  0  0  0  0  0  0
   -0.3762    1.2610   10.9687 C   0  0  0  0  0  0  0  0  0  0  0  0
   -1.5072    0.5445   10.2383 C   0  0  0  0  0  0  0  0  0  0  0  0
   -0.4905    0.2602    9.1233 C   0  0  0  0  0  0  0  0  0  0  0  0
   -2.5886    1.4236    9.6842 C   0  0  0  0  0  0  0  0  0  0  0  0
   -2.9824    2.5706   10.5123 C   0  0  0  0  0  0  0  0  0  0  0  0
   -2.3030    3.7637   10.6113 C   0  0  0  0  0  0  0  0  0  0  0  0
   -2.7059    4.8018   11.4019 C   0  0  0  0  0  0  0  0  0  0  0  0
   -3.8503    4.7179   12.1724 C   0  0  0  0  0  0  0  0  0  0  0  0
   -4.5601    3.5492   12.1081 C   0  0  0  0  0  0  0  0  0  0  0  0
   -4.1402    2.5059   11.3033 C   0  0  0  0  0  0  0  0  0  0  0  0
   -4.2567    5.8475   13.0149 C   0  0  0  0  0  0  0  0  0  0  0  0
   -3.6360    6.9642   12.8813 O   0  0  0  0  0  0  0  0  0  0  0  0
   -5.2982    5.6983   13.9378 N   0  0  0  0  0  0  0  0  0  0  0  0
   -5.7075    6.7912   14.7900 C   0  0  0  0  0  0  0  0  0  0  0  0
   -6.6017    7.7877   14.0695 C   0  0  0  0  0  0  0  0  0  0  0  0
   -7.7748    7.0272   13.5746 C   0  0  0  0  0  0  0  0  0  0  0  0
   -7.6919    6.4795   12.4506 O   0  0  0  0  0  0  0  0  0  0  0  0
   -8.9097    6.9451   14.3555 O   0  0  0  0  0  0  0  0  0  0  0  0
   -3.5965    0.7282    8.9759 N   0  0  0  0  0  0  0  0  0  0  0  0
   -4.0293    0.7668    7.6397 C   0  0  0  0  0  0  0  0  0  0  0  0
   -4.8883   -0.1523    7.0850 C   0  0  0  0  0  0  0  0  0  0  0  0
   -5.2207   -0.0413    5.7775 N   0  0  0  0  0  0  0  0  0  0  0  0
   -4.7642    0.9221    4.9630 C   0  0  0  0  0  0  0  0  0  0  0  0
   -3.9031    1.8484    5.5122 C   0  0  0  0  0  0  0  0  0  0  0  0
   -3.5265    1.7943    6.8238 C   0  0  0  0  0  0  0  0  0  0  0  0
   -5.0959    1.0554    3.5934 N   0  0  0  0  0  0  0  0  0  0  0  0
   -4.6614    2.0345    2.7841 C   0  0  0  0  0  0  0  0  0  0  0  0
   -5.1780    1.8611    1.5101 C   0  0  0  0  0  0  0  0  0  0  0  0
   -5.9340    0.7509    1.5776 N   0  0  0  0  0  0  0  0  0  0  0  0
   -5.8763    0.2704    2.8480 C   0  0  0  0  0  0  0  0  0  0  0  0
   -4.9566    2.7130    0.2997 C   0  0  0  0  0  0  0  0  0  0  0  0
   -5.2192    4.0230    0.6395 F   0  0  0  0  0  0  0  0  0  0  0  0
   -3.6574    2.5969   -0.1226 F   0  0  0  0  0  0  0  0  0  0  0  0
   -5.8370    2.2840   -0.6674 F   0  0  0  0  0  0  0  0  0  0  0  0
    0.5824    2.5757    9.0502 C   0  0  0  0  0  0  0  0  0  0  0  0
  1  2  1  0
  2  3  1  0
  3  4  1  0
  4  5  1  0
  4  6  1  0
  6  7  1  0
  7  8  2  0
  8  9  1  0
  9 10  2  0
 10 11  1  0
 11 12  2  0
 10 13  1  0
 13 14  2  0
 13 15  1  0
 15 16  1  0
 16 17  1  0
 17 18  1  0
 18 19  2  0
 18 20  1  0
  6 21  1  0
 21 22  1  0
 22 23  2  0
 23 24  1  0
 24 25  2  0
 25 26  1  0
 26 27  2  0
 25 28  1  0
 28 29  1  0
 29 30  2  0
 30 31  1  0
 31 32  2  0
 30 33  1  0
 33 34  1  0
 33 35  1  0
 33 36  1  0
  2 37  1  0
  5  2  1  0
 12  7  1  0
 27 22  1  0
 32 28  1  0
M  END
$$$$
