
     RDKit          3D

 37 40  0  0  0  0  0  0  0  0999 V2000
   -4.5561  -10.7711    0.8979 C   0  0  0  0  0  0  0  0  0  0  0  0
   -5.5485   -9.8479    0.1953 C   0  0  0  0  0  0  0  0  0  0  0  0
   -6.9564   -9.9750    0.6859 C   0  0  0  0  0  0  0  0  0  0  0  0
   -7.4487  -10.3136   -0.7173 C   0  0  0  0  0  0  0  0  0  0  0  0
   -5.9729  -10.5075   -1.0943 C   0  0  0  0  0  0  0  0  0  0  0  0
   -7.9970   -9.1667   -1.5129 C   0  0  0  0  0  0  0  0  0  0  0  0
   -7.9115   -7.8411   -0.8868 C   0  0  0  0  0  0  0  0  0  0  0  0
   -8.6475   -7.4118    0.1943 C   0  0  0  0  0  0  0  0  0  0  0  0
   -8.5373   -6.1642    0.7387 C   0  0  0  0  0  0  0  0  0  0  0  0
   -7.6575   -5.2299    0.2256 C   0  0  0  0  0  0  0  0  0  0  0  0
   -6.9033   -5.6105   -0.8516 C   0  0  0  0  0  0  0  0  0  0  0  0
   -7.0255   -6.8772   -1.3930 C   0  0  0  0  0  0  0  0  0  0  0  0
   -7.5631   -3.8964    0.8287 C   0  0  0  0  0  0  0  0  0  0  0  0
   -8.3007   -3.6323    1.8467 O   0  0  0  0  0  0  0  0  0  0  0  0
   -6.6855   -2.9442    0.2977 N   0  0  0  0  0  0  0  0  0  0  0  0
   -6.7442   -1.5595    0.7067 C   0  0  0  0  0  0  0  0  0  0  0  0
   -8.1235   -1.1574    1.2041 C   0  0  0  0  0  0  0  0  0  0  0  0
   -8.0523    0.2861    1.5368 C   0  0  0  0  0  0  0  0  0  0  0  0
   -8.2922    1.1141    0.6274 O   0  0  0  0  0  0  0  0  0  0  0  0
   -7.7283    0.6717    2.8217 O   0  0  0  0  0  0  0  0  0  0  0  0
   -9.1529   -9.4816   -2.2652 N   0  0  0  0  0  0  0  0  0  0  0  0
   -9.3835   -9.6559   -3.6401 C   0  0  0  0  0  0  0  0  0  0  0  0
   -8.4095   -9.5328   -4.6028 C   0  0  0  0  0  0  0  0  0  0  0  0
   -8.7432   -9.6926   -5.9049 N   0  0  0  0  0  0  0  0  0  0  0  0
   -9.9829   -9.9695   -6.3367 C   0  0  0  0  0  0  0  0  0  0  0  0
  -10.9650  -10.0957   -5.3773 C   0  0  0  0  0  0  0  0  0  0  0  0
  -10.6968   -9.9463   -4.0465 C   0  0  0  0  0  0  0  0  0  0  0  0
  -10.3545  -10.1375   -7.6921 N   0  0  0  0  0  0  0  0  0  0  0  0
   -9.5639   -9.8865   -8.7478 C   0  0  0  0  0  0  0  0  0  0  0  0
  -10.2432  -10.1585   -9.9244 C   0  0  0  0  0  0  0  0  0  0  0  0
  -11.4628  -10.5799   -9.5454 N   0  0  0  0  0  0  0  0  0  0  0  0
  -11.5185  -10.5628   -8.1873 C   0  0  0  0  0  0  0  0  0  0  0  0
   -9.7476  -10.0216  -11.3299 C   0  0  0  0  0  0  0  0  0  0  0  0
   -9.7892  -11.2641  -11.9257 F   0  0  0  0  0  0  0  0  0  0  0  0
  -10.5456   -9.1494  -12.0243 F   0  0  0  0  0  0  0  0  0  0  0  0
   -8.4502   -9.5668  -11.2623 F   0  0  0  0  0  0  0  0  0  0  0  0
   -5.0502   -8.4443    0.0930 C   0  0  0  0  0  0  0  0  0  0  0  0
  1  2  1  0
  2  3  1  0
  3  4  1  0
  4  5  1  0
  4  6  1  0
  6  7  1  0
  7  8  2  0
  8  9  1  0
  9 10  2  0
 10 11  1  0
 11 12  2  0
 10 13  1  0
 13 14  2  0
 13 15  1  0
 15 16  1  0
 16 17  1  0
 17 18  1  0
 18 19  2  0
 18 20  1  0
  6 21  1  0
 21 22  1  0
 22 23  2  0
 23 24  1  0
 24 25  2  0
 25 26  1  0
 26 27  2  0
 25 28  1  0
 28 29  1  0
 29 30  2  0
 30 31  1  0
 31 32  2  0
 30 33  1  0
 33 34  1  0
 33 35  1  0
 33 36  1  0
  2 37  1  0
  5  2  1  0
 12  7  1  0
 27 22  1  0
 32 28  1  0
M  END
$$$$
