
     RDKit          3D

 37 40  0  0  0  0  0  0  0  0999 V2000
   -9.5822  -13.8844    0.4435 C   0  0  0  0  0  0  0  0  0  0  0  0
   -9.6719  -12.5825   -0.3488 C   0  0  0  0  0  0  0  0  0  0  0  0
   -8.7787  -11.4942    0.1579 C   0  0  0  0  0  0  0  0  0  0  0  0
   -9.9709  -10.5638    0.3555 C   0  0  0  0  0  0  0  0  0  0  0  0
  -10.8584  -11.8017    0.1619 C   0  0  0  0  0  0  0  0  0  0  0  0
  -10.2432   -9.6027   -0.7631 C   0  0  0  0  0  0  0  0  0  0  0  0
  -10.0929  -10.1305   -2.1252 C   0  0  0  0  0  0  0  0  0  0  0  0
   -9.0178   -9.9168   -2.9578 C   0  0  0  0  0  0  0  0  0  0  0  0
   -8.9260  -10.4247   -4.2222 C   0  0  0  0  0  0  0  0  0  0  0  0
   -9.9322  -11.2051   -4.7595 C   0  0  0  0  0  0  0  0  0  0  0  0
  -11.0237  -11.4450   -3.9688 C   0  0  0  0  0  0  0  0  0  0  0  0
  -11.1035  -10.9240   -2.6902 C   0  0  0  0  0  0  0  0  0  0  0  0
   -9.8078  -11.7341   -6.1217 C   0  0  0  0  0  0  0  0  0  0  0  0
   -8.8205  -11.3399   -6.8428 O   0  0  0  0  0  0  0  0  0  0  0  0
  -10.7493  -12.6467   -6.6111 N   0  0  0  0  0  0  0  0  0  0  0  0
  -10.6707  -13.1537   -7.9620 C   0  0  0  0  0  0  0  0  0  0  0  0
  -11.1813  -12.1556   -8.9889 C   0  0  0  0  0  0  0  0  0  0  0  0
  -12.6494  -12.0629   -8.7997 C   0  0  0  0  0  0  0  0  0  0  0  0
  -13.2615  -13.0880   -8.4191 O   0  0  0  0  0  0  0  0  0  0  0  0
  -13.2915  -10.8662   -9.0446 O   0  0  0  0  0  0  0  0  0  0  0  0
   -9.8217   -8.2771   -0.5054 N   0  0  0  0  0  0  0  0  0  0  0  0
  -10.4523   -7.1683    0.0837 C   0  0  0  0  0  0  0  0  0  0  0  0
  -11.7895   -7.1256    0.4011 C   0  0  0  0  0  0  0  0  0  0  0  0
  -12.3051   -5.9961    0.9403 N   0  0  0  0  0  0  0  0  0  0  0  0
  -11.5916   -4.8888    1.1950 C   0  0  0  0  0  0  0  0  0  0  0  0
  -10.2496   -4.9242    0.8805 C   0  0  0  0  0  0  0  0  0  0  0  0
   -9.6658   -6.0312    0.3339 C   0  0  0  0  0  0  0  0  0  0  0  0
  -12.1103   -3.6968    1.7550 N   0  0  0  0  0  0  0  0  0  0  0  0
  -13.3987   -3.4857    2.0674 C   0  0  0  0  0  0  0  0  0  0  0  0
  -13.5569   -2.2140    2.5945 C   0  0  0  0  0  0  0  0  0  0  0  0
  -12.3277   -1.6683    2.5898 N   0  0  0  0  0  0  0  0  0  0  0  0
  -11.4574   -2.5784    2.0777 C   0  0  0  0  0  0  0  0  0  0  0  0
  -14.8161   -1.5631    3.0746 C   0  0  0  0  0  0  0  0  0  0  0  0
  -15.8157   -2.5123    3.0866 F   0  0  0  0  0  0  0  0  0  0  0  0
  -14.6336   -1.0684    4.3402 F   0  0  0  0  0  0  0  0  0  0  0  0
  -15.1210   -0.5587    2.1843 F   0  0  0  0  0  0  0  0  0  0  0  0
   -9.6056  -12.8048   -1.8236 C   0  0  0  0  0  0  0  0  0  0  0  0
  1  2  1  0
  2  3  1  0
  3  4  1  0
  4  5  1  0
  4  6  1  0
  6  7  1  0
  7  8  2  0
  8  9  1  0
  9 10  2  0
 10 11  1  0
 11 12  2  0
 10 13  1  0
 13 14  2  0
 13 15  1  0
 15 16  1  0
 16 17  1  0
 17 18  1  0
 18 19  2  0
 18 20  1  0
  6 21  1  0
 21 22  1  0
 22 23  2  0
 23 24  1  0
 24 25  2  0
 25 26  1  0
 26 27  2  0
 25 28  1  0
 28 29  1  0
 29 30  2  0
 30 31  1  0
 31 32  2  0
 30 33  1  0
 33 34  1  0
 33 35  1  0
 33 36  1  0
  2 37  1  0
  5  2  1  0
 12  7  1  0
 27 22  1  0
 32 28  1  0
M  END
$$$$
