
     RDKit          3D

 37 40  0  0  0  0  0  0  0  0999 V2000
   -7.6786    0.2526    9.1178 C   0  0  0  0  0  0  0  0  0  0  0  0
   -7.5152    0.0961    7.6080 C   0  0  0  0  0  0  0  0  0  0  0  0
   -7.4700    1.3908    6.8593 C   0  0  0  0  0  0  0  0  0  0  0  0
   -8.6623    0.9747    6.0040 C   0  0  0  0  0  0  0  0  0  0  0  0
   -8.8774   -0.1635    7.0118 C   0  0  0  0  0  0  0  0  0  0  0  0
   -8.3326    0.3740    4.6700 C   0  0  0  0  0  0  0  0  0  0  0  0
   -7.4008    1.1340    3.8269 C   0  0  0  0  0  0  0  0  0  0  0  0
   -7.2334    2.5002    3.8403 C   0  0  0  0  0  0  0  0  0  0  0  0
   -6.3566    3.1641    3.0307 C   0  0  0  0  0  0  0  0  0  0  0  0
   -5.5618    2.4891    2.1235 C   0  0  0  0  0  0  0  0  0  0  0  0
   -5.6934    1.1275    2.0725 C   0  0  0  0  0  0  0  0  0  0  0  0
   -6.5856    0.4682    2.8982 C   0  0  0  0  0  0  0  0  0  0  0  0
   -4.6316    3.2289    1.2642 C   0  0  0  0  0  0  0  0  0  0  0  0
   -3.8500    2.5623    0.4931 O   0  0  0  0  0  0  0  0  0  0  0  0
   -4.6074    4.6280    1.2935 N   0  0  0  0  0  0  0  0  0  0  0  0
   -3.7643    5.3826    0.3947 C   0  0  0  0  0  0  0  0  0  0  0  0
   -2.3721    4.7859    0.2639 C   0  0  0  0  0  0  0  0  0  0  0  0
   -2.1442    4.5490   -1.1824 C   0  0  0  0  0  0  0  0  0  0  0  0
   -1.6770    3.4402   -1.5326 O   0  0  0  0  0  0  0  0  0  0  0  0
   -2.4492    5.5430   -2.0897 O   0  0  0  0  0  0  0  0  0  0  0  0
   -9.4169   -0.2871    4.0468 N   0  0  0  0  0  0  0  0  0  0  0  0
  -10.3274   -1.2615    4.4890 C   0  0  0  0  0  0  0  0  0  0  0  0
  -11.4840   -1.5895    3.8218 C   0  0  0  0  0  0  0  0  0  0  0  0
  -12.3090   -2.5241    4.3493 N   0  0  0  0  0  0  0  0  0  0  0  0
  -12.0766   -3.1704    5.5018 C   0  0  0  0  0  0  0  0  0  0  0  0
  -10.9181   -2.8479    6.1763 C   0  0  0  0  0  0  0  0  0  0  0  0
  -10.0425   -1.9141    5.7004 C   0  0  0  0  0  0  0  0  0  0  0  0
  -12.9261   -4.1480    6.0728 N   0  0  0  0  0  0  0  0  0  0  0  0
  -14.1911   -4.3900    5.6939 C   0  0  0  0  0  0  0  0  0  0  0  0
  -14.7293   -5.4103    6.4616 C   0  0  0  0  0  0  0  0  0  0  0  0
  -13.7522   -5.7737    7.3112 N   0  0  0  0  0  0  0  0  0  0  0  0
  -12.6618   -4.9999    7.0655 C   0  0  0  0  0  0  0  0  0  0  0  0
  -16.1022   -6.0006    6.3817 C   0  0  0  0  0  0  0  0  0  0  0  0
  -16.7083   -5.8530    7.6111 F   0  0  0  0  0  0  0  0  0  0  0  0
  -16.8362   -5.3498    5.4239 F   0  0  0  0  0  0  0  0  0  0  0  0
  -15.9552   -7.3351    6.0781 F   0  0  0  0  0  0  0  0  0  0  0  0
   -6.4351   -0.8690    7.2466 C   0  0  0  0  0  0  0  0  0  0  0  0
  1  2  1  0
  2  3  1  0
  3  4  1  0
  4  5  1  0
  4  6  1  0
  6  7  1  0
  7  8  2  0
  8  9  1  0
  9 10  2  0
 10 11  1  0
 11 12  2  0
 10 13  1  0
 13 14  2  0
 13 15  1  0
 15 16  1  0
 16 17  1  0
 17 18  1  0
 18 19  2  0
 18 20  1  0
  6 21  1  0
 21 22  1  0
 22 23  2  0
 23 24  1  0
 24 25  2  0
 25 26  1  0
 26 27  2  0
 25 28  1  0
 28 29  1  0
 29 30  2  0
 30 31  1  0
 31 32  2  0
 30 33  1  0
 33 34  1  0
 33 35  1  0
 33 36  1  0
  2 37  1  0
  5  2  1  0
 12  7  1  0
 27 22  1  0
 32 28  1  0
M  END
$$$$
