
     RDKit          3D

 37 40  0  0  0  0  0  0  0  0999 V2000
    2.1926   -0.6747   10.5190 C   0  0  0  0  0  0  0  0  0  0  0  0
    0.8849    0.0379   10.8549 C   0  0  0  0  0  0  0  0  0  0  0  0
   -0.1702   -0.0896    9.8016 C   0  0  0  0  0  0  0  0  0  0  0  0
   -0.2664    1.4268    9.6691 C   0  0  0  0  0  0  0  0  0  0  0  0
    1.0334    1.4934   10.4838 C   0  0  0  0  0  0  0  0  0  0  0  0
   -1.3582    2.0847   10.4592 C   0  0  0  0  0  0  0  0  0  0  0  0
   -2.1373    3.1143    9.7596 C   0  0  0  0  0  0  0  0  0  0  0  0
   -1.6508    3.9898    8.8153 C   0  0  0  0  0  0  0  0  0  0  0  0
   -2.4147    4.9369    8.1954 C   0  0  0  0  0  0  0  0  0  0  0  0
   -3.7587    5.0801    8.4842 C   0  0  0  0  0  0  0  0  0  0  0  0
   -4.2887    4.2318    9.4187 C   0  0  0  0  0  0  0  0  0  0  0  0
   -3.5032    3.2774   10.0390 C   0  0  0  0  0  0  0  0  0  0  0  0
   -4.5536    6.1087    7.8052 C   0  0  0  0  0  0  0  0  0  0  0  0
   -4.2699    6.3943    6.5853 O   0  0  0  0  0  0  0  0  0  0  0  0
   -5.5941    6.7551    8.4821 N   0  0  0  0  0  0  0  0  0  0  0  0
   -6.8480    7.0478    7.8262 C   0  0  0  0  0  0  0  0  0  0  0  0
   -6.7513    6.9434    6.3125 C   0  0  0  0  0  0  0  0  0  0  0  0
   -7.2798    5.6078    5.9428 C   0  0  0  0  0  0  0  0  0  0  0  0
   -6.7886    5.0348    4.9426 O   0  0  0  0  0  0  0  0  0  0  0  0
   -8.2841    5.0413    6.7009 O   0  0  0  0  0  0  0  0  0  0  0  0
   -1.0454    2.2894   11.8235 N   0  0  0  0  0  0  0  0  0  0  0  0
   -1.2799    1.5335   12.9844 C   0  0  0  0  0  0  0  0  0  0  0  0
   -0.5683    1.6800   14.1517 C   0  0  0  0  0  0  0  0  0  0  0  0
   -0.8552    0.8802   15.2055 N   0  0  0  0  0  0  0  0  0  0  0  0
   -1.8052   -0.0670   15.1961 C   0  0  0  0  0  0  0  0  0  0  0  0
   -2.5240   -0.2193   14.0294 C   0  0  0  0  0  0  0  0  0  0  0  0
   -2.2856    0.5538   12.9292 C   0  0  0  0  0  0  0  0  0  0  0  0
   -2.1196   -0.9158   16.2843 N   0  0  0  0  0  0  0  0  0  0  0  0
   -1.7412   -0.7148   17.5566 C   0  0  0  0  0  0  0  0  0  0  0  0
   -2.2201   -1.7363   18.3610 C   0  0  0  0  0  0  0  0  0  0  0  0
   -2.8964   -2.5555   17.5361 N   0  0  0  0  0  0  0  0  0  0  0  0
   -2.8283   -2.0466   16.2774 C   0  0  0  0  0  0  0  0  0  0  0  0
   -2.0381   -1.9131   19.8359 C   0  0  0  0  0  0  0  0  0  0  0  0
   -1.1180   -0.9838   20.2722 F   0  0  0  0  0  0  0  0  0  0  0  0
   -3.2322   -1.7189   20.4811 F   0  0  0  0  0  0  0  0  0  0  0  0
   -1.5622   -3.1887   20.0380 F   0  0  0  0  0  0  0  0  0  0  0  0
    0.4160   -0.2512   12.2425 C   0  0  0  0  0  0  0  0  0  0  0  0
  1  2  1  0
  2  3  1  0
  3  4  1  0
  4  5  1  0
  4  6  1  0
  6  7  1  0
  7  8  2  0
  8  9  1  0
  9 10  2  0
 10 11  1  0
 11 12  2  0
 10 13  1  0
 13 14  2  0
 13 15  1  0
 15 16  1  0
 16 17  1  0
 17 18  1  0
 18 19  2  0
 18 20  1  0
  6 21  1  0
 21 22  1  0
 22 23  2  0
 23 24  1  0
 24 25  2  0
 25 26  1  0
 26 27  2  0
 25 28  1  0
 28 29  1  0
 29 30  2  0
 30 31  1  0
 31 32  2  0
 30 33  1  0
 33 34  1  0
 33 35  1  0
 33 36  1  0
  2 37  1  0
  5  2  1  0
 12  7  1  0
 27 22  1  0
 32 28  1  0
M  END
$$$$
