
     RDKit          3D

 37 40  0  0  0  0  0  0  0  0999 V2000
  -10.8034   -0.1733    5.5377 C   0  0  0  0  0  0  0  0  0  0  0  0
   -9.4264    0.4836    5.5935 C   0  0  0  0  0  0  0  0  0  0  0  0
   -9.4593    1.9520    5.8794 C   0  0  0  0  0  0  0  0  0  0  0  0
   -8.7068    2.2530    4.5874 C   0  0  0  0  0  0  0  0  0  0  0  0
   -8.9991    0.8014    4.1811 C   0  0  0  0  0  0  0  0  0  0  0  0
   -7.2224    2.4214    4.7187 C   0  0  0  0  0  0  0  0  0  0  0  0
   -6.7590    3.2602    5.8315 C   0  0  0  0  0  0  0  0  0  0  0  0
   -5.4506    3.4230    6.2270 C   0  0  0  0  0  0  0  0  0  0  0  0
   -5.0683    4.2108    7.2749 C   0  0  0  0  0  0  0  0  0  0  0  0
   -5.9943    4.9122    8.0237 C   0  0  0  0  0  0  0  0  0  0  0  0
   -7.3099    4.7813    7.6689 C   0  0  0  0  0  0  0  0  0  0  0  0
   -7.6829    3.9797    6.6054 C   0  0  0  0  0  0  0  0  0  0  0  0
   -5.5547    5.7478    9.1460 C   0  0  0  0  0  0  0  0  0  0  0  0
   -6.4445    6.3839    9.8197 O   0  0  0  0  0  0  0  0  0  0  0  0
   -4.1950    5.8402    9.4645 N   0  0  0  0  0  0  0  0  0  0  0  0
   -3.7314    6.6953   10.5332 C   0  0  0  0  0  0  0  0  0  0  0  0
   -2.9837    5.9266   11.6110 C   0  0  0  0  0  0  0  0  0  0  0  0
   -3.5969    4.5777   11.6752 C   0  0  0  0  0  0  0  0  0  0  0  0
   -4.6466    4.4376   12.3450 O   0  0  0  0  0  0  0  0  0  0  0  0
   -3.0021    3.5287   11.0042 O   0  0  0  0  0  0  0  0  0  0  0  0
   -6.5355    2.5019    3.4847 N   0  0  0  0  0  0  0  0  0  0  0  0
   -6.0610    1.5309    2.5868 C   0  0  0  0  0  0  0  0  0  0  0  0
   -5.3945    1.8251    1.4207 C   0  0  0  0  0  0  0  0  0  0  0  0
   -5.0040    0.8143    0.6095 N   0  0  0  0  0  0  0  0  0  0  0  0
   -5.2232   -0.4844    0.8647 C   0  0  0  0  0  0  0  0  0  0  0  0
   -5.8900   -0.7877    2.0328 C   0  0  0  0  0  0  0  0  0  0  0  0
   -6.3120    0.1833    2.8954 C   0  0  0  0  0  0  0  0  0  0  0  0
   -4.8267   -1.5566    0.0300 N   0  0  0  0  0  0  0  0  0  0  0  0
   -4.1284   -1.4321   -1.1098 C   0  0  0  0  0  0  0  0  0  0  0  0
   -3.9128   -2.6798   -1.6727 C   0  0  0  0  0  0  0  0  0  0  0  0
   -4.5008   -3.5560   -0.8390 N   0  0  0  0  0  0  0  0  0  0  0  0
   -5.0526   -2.8619    0.1915 C   0  0  0  0  0  0  0  0  0  0  0  0
   -3.1836   -3.0090   -2.9375 C   0  0  0  0  0  0  0  0  0  0  0  0
   -2.9952   -1.8405   -3.6444 F   0  0  0  0  0  0  0  0  0  0  0  0
   -1.9685   -3.5721   -2.6438 F   0  0  0  0  0  0  0  0  0  0  0  0
   -3.9777   -3.8773   -3.6518 F   0  0  0  0  0  0  0  0  0  0  0  0
   -8.4569   -0.2898    6.4246 C   0  0  0  0  0  0  0  0  0  0  0  0
  1  2  1  0
  2  3  1  0
  3  4  1  0
  4  5  1  0
  4  6  1  0
  6  7  1  0
  7  8  2  0
  8  9  1  0
  9 10  2  0
 10 11  1  0
 11 12  2  0
 10 13  1  0
 13 14  2  0
 13 15  1  0
 15 16  1  0
 16 17  1  0
 17 18  1  0
 18 19  2  0
 18 20  1  0
  6 21  1  0
 21 22  1  0
 22 23  2  0
 23 24  1  0
 24 25  2  0
 25 26  1  0
 26 27  2  0
 25 28  1  0
 28 29  1  0
 29 30  2  0
 30 31  1  0
 31 32  2  0
 30 33  1  0
 33 34  1  0
 33 35  1  0
 33 36  1  0
  2 37  1  0
  5  2  1  0
 12  7  1  0
 27 22  1  0
 32 28  1  0
M  END
$$$$
