
     RDKit          3D

 37 40  0  0  0  0  0  0  0  0999 V2000
   -5.0059   -2.0362    0.2249 C   0  0  0  0  0  0  0  0  0  0  0  0
   -5.5861   -1.0297    1.2153 C   0  0  0  0  0  0  0  0  0  0  0  0
   -4.5671   -0.1334    1.8455 C   0  0  0  0  0  0  0  0  0  0  0  0
   -4.9810   -0.5904    3.2405 C   0  0  0  0  0  0  0  0  0  0  0  0
   -5.7527   -1.7219    2.5463 C   0  0  0  0  0  0  0  0  0  0  0  0
   -5.9643    0.2900    3.9526 C   0  0  0  0  0  0  0  0  0  0  0  0
   -5.5837    1.7002    4.1042 C   0  0  0  0  0  0  0  0  0  0  0  0
   -4.6473    2.1917    4.9852 C   0  0  0  0  0  0  0  0  0  0  0  0
   -4.3313    3.5158    5.0946 C   0  0  0  0  0  0  0  0  0  0  0  0
   -4.9474    4.4704    4.3076 C   0  0  0  0  0  0  0  0  0  0  0  0
   -5.8877    4.0298    3.4156 C   0  0  0  0  0  0  0  0  0  0  0  0
   -6.1981    2.6858    3.3158 C   0  0  0  0  0  0  0  0  0  0  0  0
   -4.5903    5.8857    4.4495 C   0  0  0  0  0  0  0  0  0  0  0  0
   -3.5406    6.1865    5.1261 O   0  0  0  0  0  0  0  0  0  0  0  0
   -5.3831    6.8746    3.8559 N   0  0  0  0  0  0  0  0  0  0  0  0
   -4.9159    8.2364    3.7319 C   0  0  0  0  0  0  0  0  0  0  0  0
   -4.6208    8.8755    5.0795 C   0  0  0  0  0  0  0  0  0  0  0  0
   -5.9302    9.1135    5.7340 C   0  0  0  0  0  0  0  0  0  0  0  0
   -6.7626    9.8398    5.1424 O   0  0  0  0  0  0  0  0  0  0  0  0
   -6.1917    8.5360    6.9598 O   0  0  0  0  0  0  0  0  0  0  0  0
   -6.6422   -0.3421    5.0213 N   0  0  0  0  0  0  0  0  0  0  0  0
   -7.7113    0.0506    5.8440 C   0  0  0  0  0  0  0  0  0  0  0  0
   -8.4777    1.1706    5.6232 C   0  0  0  0  0  0  0  0  0  0  0  0
   -9.4680    1.4762    6.4941 N   0  0  0  0  0  0  0  0  0  0  0  0
   -9.7652    0.7500    7.5823 C   0  0  0  0  0  0  0  0  0  0  0  0
   -9.0019   -0.3754    7.8100 C   0  0  0  0  0  0  0  0  0  0  0  0
   -7.9875   -0.7407    6.9717 C   0  0  0  0  0  0  0  0  0  0  0  0
  -10.7932    1.0522    8.5071 N   0  0  0  0  0  0  0  0  0  0  0  0
  -11.5108    2.1867    8.5225 C   0  0  0  0  0  0  0  0  0  0  0  0
  -12.4308    2.1521    9.5581 C   0  0  0  0  0  0  0  0  0  0  0  0
  -12.2453    0.9655   10.1633 N   0  0  0  0  0  0  0  0  0  0  0  0
  -11.2480    0.3063    9.5160 C   0  0  0  0  0  0  0  0  0  0  0  0
  -13.4293    3.1987    9.9420 C   0  0  0  0  0  0  0  0  0  0  0  0
  -12.8409    4.0409   10.8612 F   0  0  0  0  0  0  0  0  0  0  0  0
  -13.8058    3.9143    8.8348 F   0  0  0  0  0  0  0  0  0  0  0  0
  -14.5036    2.5496   10.5070 F   0  0  0  0  0  0  0  0  0  0  0  0
   -6.7864   -0.3240    0.6766 C   0  0  0  0  0  0  0  0  0  0  0  0
  1  2  1  0
  2  3  1  0
  3  4  1  0
  4  5  1  0
  4  6  1  0
  6  7  1  0
  7  8  2  0
  8  9  1  0
  9 10  2  0
 10 11  1  0
 11 12  2  0
 10 13  1  0
 13 14  2  0
 13 15  1  0
 15 16  1  0
 16 17  1  0
 17 18  1  0
 18 19  2  0
 18 20  1  0
  6 21  1  0
 21 22  1  0
 22 23  2  0
 23 24  1  0
 24 25  2  0
 25 26  1  0
 26 27  2  0
 25 28  1  0
 28 29  1  0
 29 30  2  0
 30 31  1  0
 31 32  2  0
 30 33  1  0
 33 34  1  0
 33 35  1  0
 33 36  1  0
  2 37  1  0
  5  2  1  0
 12  7  1  0
 27 22  1  0
 32 28  1  0
M  END
$$$$
