
     RDKit          3D

 37 40  0  0  0  0  0  0  0  0999 V2000
  -13.6186   -6.5773    5.1550 C   0  0  0  0  0  0  0  0  0  0  0  0
  -13.3863   -6.5594    3.6462 C   0  0  0  0  0  0  0  0  0  0  0  0
  -14.6064   -6.8627    2.8350 C   0  0  0  0  0  0  0  0  0  0  0  0
  -13.9045   -8.0360    2.1591 C   0  0  0  0  0  0  0  0  0  0  0  0
  -12.8234   -7.9000    3.2409 C   0  0  0  0  0  0  0  0  0  0  0  0
  -13.2830   -7.7465    0.8253 C   0  0  0  0  0  0  0  0  0  0  0  0
  -14.0871   -6.9458   -0.1068 C   0  0  0  0  0  0  0  0  0  0  0  0
  -14.5093   -5.6520    0.0997 C   0  0  0  0  0  0  0  0  0  0  0  0
  -15.2629   -4.9487   -0.7961 C   0  0  0  0  0  0  0  0  0  0  0  0
  -15.6596   -5.5057   -1.9972 C   0  0  0  0  0  0  0  0  0  0  0  0
  -15.2644   -6.7922   -2.2477 C   0  0  0  0  0  0  0  0  0  0  0  0
  -14.5015   -7.4927   -1.3313 C   0  0  0  0  0  0  0  0  0  0  0  0
  -16.4717   -4.7278   -2.9386 C   0  0  0  0  0  0  0  0  0  0  0  0
  -16.8990   -5.3081   -4.0019 O   0  0  0  0  0  0  0  0  0  0  0  0
  -16.7670   -3.3860   -2.6716 N   0  0  0  0  0  0  0  0  0  0  0  0
  -17.5538   -2.5942   -3.5893 C   0  0  0  0  0  0  0  0  0  0  0  0
  -18.8971   -2.1884   -3.0040 C   0  0  0  0  0  0  0  0  0  0  0  0
  -19.0114   -0.7200   -3.1777 C   0  0  0  0  0  0  0  0  0  0  0  0
  -18.7438    0.0131   -2.1972 O   0  0  0  0  0  0  0  0  0  0  0  0
  -19.4039   -0.2089   -4.3980 O   0  0  0  0  0  0  0  0  0  0  0  0
  -12.5071   -8.8079    0.3033 N   0  0  0  0  0  0  0  0  0  0  0  0
  -11.1240   -8.9948    0.1419 C   0  0  0  0  0  0  0  0  0  0  0  0
  -10.1840   -8.0243    0.3971 C   0  0  0  0  0  0  0  0  0  0  0  0
   -8.8760   -8.2979    0.1812 N   0  0  0  0  0  0  0  0  0  0  0  0
   -8.4171   -9.4737   -0.2735 C   0  0  0  0  0  0  0  0  0  0  0  0
   -9.3535  -10.4525   -0.5307 C   0  0  0  0  0  0  0  0  0  0  0  0
  -10.6887  -10.2427   -0.3351 C   0  0  0  0  0  0  0  0  0  0  0  0
   -7.0555   -9.7803   -0.5092 N   0  0  0  0  0  0  0  0  0  0  0  0
   -6.5779  -10.9980   -0.8114 C   0  0  0  0  0  0  0  0  0  0  0  0
   -5.2033  -10.9408   -0.9770 C   0  0  0  0  0  0  0  0  0  0  0  0
   -4.8698   -9.6551   -0.7661 N   0  0  0  0  0  0  0  0  0  0  0  0
   -6.0032   -8.9600   -0.4828 C   0  0  0  0  0  0  0  0  0  0  0  0
   -4.2669  -12.0571   -1.3186 C   0  0  0  0  0  0  0  0  0  0  0  0
   -3.2862  -12.1096   -0.3511 F   0  0  0  0  0  0  0  0  0  0  0  0
   -4.9485  -13.2462   -1.3503 F   0  0  0  0  0  0  0  0  0  0  0  0
   -3.7139  -11.7647   -2.5447 F   0  0  0  0  0  0  0  0  0  0  0  0
  -12.6260   -5.3550    3.1988 C   0  0  0  0  0  0  0  0  0  0  0  0
  1  2  1  0
  2  3  1  0
  3  4  1  0
  4  5  1  0
  4  6  1  0
  6  7  1  0
  7  8  2  0
  8  9  1  0
  9 10  2  0
 10 11  1  0
 11 12  2  0
 10 13  1  0
 13 14  2  0
 13 15  1  0
 15 16  1  0
 16 17  1  0
 17 18  1  0
 18 19  2  0
 18 20  1  0
  6 21  1  0
 21 22  1  0
 22 23  2  0
 23 24  1  0
 24 25  2  0
 25 26  1  0
 26 27  2  0
 25 28  1  0
 28 29  1  0
 29 30  2  0
 30 31  1  0
 31 32  2  0
 30 33  1  0
 33 34  1  0
 33 35  1  0
 33 36  1  0
  2 37  1  0
  5  2  1  0
 12  7  1  0
 27 22  1  0
 32 28  1  0
M  END
$$$$
