
     RDKit          3D

 37 40  0  0  0  0  0  0  0  0999 V2000
  -15.0043  -10.5441  -17.5185 C   0  0  0  0  0  0  0  0  0  0  0  0
  -14.2419  -10.3510  -16.2100 C   0  0  0  0  0  0  0  0  0  0  0  0
  -13.4173  -11.5309  -15.8016 C   0  0  0  0  0  0  0  0  0  0  0  0
  -14.1548  -11.6260  -14.4700 C   0  0  0  0  0  0  0  0  0  0  0  0
  -15.1820  -10.6542  -15.0686 C   0  0  0  0  0  0  0  0  0  0  0  0
  -13.4893  -10.9573  -13.3042 C   0  0  0  0  0  0  0  0  0  0  0  0
  -12.0332  -11.1196  -13.2057 C   0  0  0  0  0  0  0  0  0  0  0  0
  -11.3715  -12.2883  -12.9039 C   0  0  0  0  0  0  0  0  0  0  0  0
  -10.0123  -12.3888  -12.8171 C   0  0  0  0  0  0  0  0  0  0  0  0
   -9.1943  -11.2957  -13.0323 C   0  0  0  0  0  0  0  0  0  0  0  0
   -9.8069  -10.1095  -13.3350 C   0  0  0  0  0  0  0  0  0  0  0  0
  -11.1845  -10.0221  -13.4193 C   0  0  0  0  0  0  0  0  0  0  0  0
   -7.7378  -11.4326  -12.9289 C   0  0  0  0  0  0  0  0  0  0  0  0
   -7.2060  -12.5594  -13.2415 O   0  0  0  0  0  0  0  0  0  0  0  0
   -6.9581  -10.3528  -12.4990 N   0  0  0  0  0  0  0  0  0  0  0  0
   -5.5145  -10.4160  -12.5164 C   0  0  0  0  0  0  0  0  0  0  0  0
   -4.9116   -9.6356  -13.6735 C   0  0  0  0  0  0  0  0  0  0  0  0
   -4.6039  -10.6215  -14.7379 C   0  0  0  0  0  0  0  0  0  0  0  0
   -3.4357  -11.0697  -14.8077 O   0  0  0  0  0  0  0  0  0  0  0  0
   -5.5995  -11.0125  -15.6099 O   0  0  0  0  0  0  0  0  0  0  0  0
  -14.2501  -10.9764  -12.1118 N   0  0  0  0  0  0  0  0  0  0  0  0
  -14.5254  -10.0048  -11.1348 C   0  0  0  0  0  0  0  0  0  0  0  0
  -14.1090   -8.6969  -11.2153 C   0  0  0  0  0  0  0  0  0  0  0  0
  -14.4030   -7.8462  -10.2042 N   0  0  0  0  0  0  0  0  0  0  0  0
  -15.0874   -8.1921   -9.1033 C   0  0  0  0  0  0  0  0  0  0  0  0
  -15.5095   -9.5017   -9.0157 C   0  0  0  0  0  0  0  0  0  0  0  0
  -15.2464  -10.4117   -9.9996 C   0  0  0  0  0  0  0  0  0  0  0  0
  -15.4032   -7.3207   -8.0335 N   0  0  0  0  0  0  0  0  0  0  0  0
  -15.0926   -6.0156   -7.9814 C   0  0  0  0  0  0  0  0  0  0  0  0
  -15.5506   -5.4660   -6.7947 C   0  0  0  0  0  0  0  0  0  0  0  0
  -16.1446   -6.4774   -6.1366 N   0  0  0  0  0  0  0  0  0  0  0  0
  -16.0487   -7.5988   -6.8990 C   0  0  0  0  0  0  0  0  0  0  0  0
  -15.4244   -4.0514   -6.3226 C   0  0  0  0  0  0  0  0  0  0  0  0
  -14.9127   -3.2953   -7.3554 F   0  0  0  0  0  0  0  0  0  0  0  0
  -16.6553   -3.5674   -5.9616 F   0  0  0  0  0  0  0  0  0  0  0  0
  -14.5553   -4.0538   -5.2553 F   0  0  0  0  0  0  0  0  0  0  0  0
  -13.5256   -9.0424  -16.1532 C   0  0  0  0  0  0  0  0  0  0  0  0
  1  2  1  0
  2  3  1  0
  3  4  1  0
  4  5  1  0
  4  6  1  0
  6  7  1  0
  7  8  2  0
  8  9  1  0
  9 10  2  0
 10 11  1  0
 11 12  2  0
 10 13  1  0
 13 14  2  0
 13 15  1  0
 15 16  1  0
 16 17  1  0
 17 18  1  0
 18 19  2  0
 18 20  1  0
  6 21  1  0
 21 22  1  0
 22 23  2  0
 23 24  1  0
 24 25  2  0
 25 26  1  0
 26 27  2  0
 25 28  1  0
 28 29  1  0
 29 30  2  0
 30 31  1  0
 31 32  2  0
 30 33  1  0
 33 34  1  0
 33 35  1  0
 33 36  1  0
  2 37  1  0
  5  2  1  0
 12  7  1  0
 27 22  1  0
 32 28  1  0
M  END
$$$$
