
     RDKit          3D

 37 40  0  0  0  0  0  0  0  0999 V2000
  -10.8903  -13.4111    0.1527 C   0  0  0  0  0  0  0  0  0  0  0  0
  -10.4759  -12.3617   -0.8758 C   0  0  0  0  0  0  0  0  0  0  0  0
  -11.3172  -11.1244   -0.8614 C   0  0  0  0  0  0  0  0  0  0  0  0
  -11.6789  -11.3147   -2.3308 C   0  0  0  0  0  0  0  0  0  0  0  0
  -11.0982  -12.7301   -2.2007 C   0  0  0  0  0  0  0  0  0  0  0  0
  -10.8468  -10.5469   -3.3143 C   0  0  0  0  0  0  0  0  0  0  0  0
  -10.2084   -9.3238   -2.8110 C   0  0  0  0  0  0  0  0  0  0  0  0
   -8.9144   -8.9282   -3.0634 C   0  0  0  0  0  0  0  0  0  0  0  0
   -8.3618   -7.7824   -2.5664 C   0  0  0  0  0  0  0  0  0  0  0  0
   -9.0852   -6.9260   -1.7581 C   0  0  0  0  0  0  0  0  0  0  0  0
  -10.3781   -7.2776   -1.4778 C   0  0  0  0  0  0  0  0  0  0  0  0
  -10.9248   -8.4412   -1.9876 C   0  0  0  0  0  0  0  0  0  0  0  0
   -8.4644   -5.7042   -1.2358 C   0  0  0  0  0  0  0  0  0  0  0  0
   -9.1373   -4.9786   -0.4168 O   0  0  0  0  0  0  0  0  0  0  0  0
   -7.1687   -5.3497   -1.6285 N   0  0  0  0  0  0  0  0  0  0  0  0
   -6.4926   -4.2133   -1.0456 C   0  0  0  0  0  0  0  0  0  0  0  0
   -7.1158   -2.8899   -1.4602 C   0  0  0  0  0  0  0  0  0  0  0  0
   -6.3968   -1.8284   -0.7146 C   0  0  0  0  0  0  0  0  0  0  0  0
   -6.1456   -2.0249    0.4973 O   0  0  0  0  0  0  0  0  0  0  0  0
   -6.0294   -0.6696   -1.3677 O   0  0  0  0  0  0  0  0  0  0  0  0
  -11.3606  -10.5436   -4.6322 N   0  0  0  0  0  0  0  0  0  0  0  0
  -10.7515  -10.5562   -5.8984 C   0  0  0  0  0  0  0  0  0  0  0  0
  -11.4320  -10.3703   -7.0786 C   0  0  0  0  0  0  0  0  0  0  0  0
  -10.7542  -10.4300   -8.2488 N   0  0  0  0  0  0  0  0  0  0  0  0
   -9.4363  -10.6618   -8.3454 C   0  0  0  0  0  0  0  0  0  0  0  0
   -8.7466  -10.8482   -7.1661 C   0  0  0  0  0  0  0  0  0  0  0  0
   -9.3690  -10.8013   -5.9514 C   0  0  0  0  0  0  0  0  0  0  0  0
   -8.7084  -10.7315   -9.5574 N   0  0  0  0  0  0  0  0  0  0  0  0
   -9.2453  -10.6733  -10.7865 C   0  0  0  0  0  0  0  0  0  0  0  0
   -8.2488  -10.7707  -11.7445 C   0  0  0  0  0  0  0  0  0  0  0  0
   -7.0996  -10.8887  -11.0560 N   0  0  0  0  0  0  0  0  0  0  0  0
   -7.3915  -10.8636   -9.7285 C   0  0  0  0  0  0  0  0  0  0  0  0
   -8.3943  -10.7509  -13.2339 C   0  0  0  0  0  0  0  0  0  0  0  0
   -7.1487  -10.9438  -13.7922 F   0  0  0  0  0  0  0  0  0  0  0  0
   -9.2403  -11.7527  -13.6345 F   0  0  0  0  0  0  0  0  0  0  0  0
   -8.8866   -9.5127  -13.5790 F   0  0  0  0  0  0  0  0  0  0  0  0
   -9.0040  -12.1126   -0.8776 C   0  0  0  0  0  0  0  0  0  0  0  0
  1  2  1  0
  2  3  1  0
  3  4  1  0
  4  5  1  0
  4  6  1  0
  6  7  1  0
  7  8  2  0
  8  9  1  0
  9 10  2  0
 10 11  1  0
 11 12  2  0
 10 13  1  0
 13 14  2  0
 13 15  1  0
 15 16  1  0
 16 17  1  0
 17 18  1  0
 18 19  2  0
 18 20  1  0
  6 21  1  0
 21 22  1  0
 22 23  2  0
 23 24  1  0
 24 25  2  0
 25 26  1  0
 26 27  2  0
 25 28  1  0
 28 29  1  0
 29 30  2  0
 30 31  1  0
 31 32  2  0
 30 33  1  0
 33 34  1  0
 33 35  1  0
 33 36  1  0
  2 37  1  0
  5  2  1  0
 12  7  1  0
 27 22  1  0
 32 28  1  0
M  END
$$$$
