
     RDKit          3D

 37 40  0  0  0  0  0  0  0  0999 V2000
   -3.1955   -1.2585   -0.9504 C   0  0  0  0  0  0  0  0  0  0  0  0
   -4.4155   -0.9424   -0.0888 C   0  0  0  0  0  0  0  0  0  0  0  0
   -4.1433    0.0100    1.0328 C   0  0  0  0  0  0  0  0  0  0  0  0
   -4.6349   -1.0066    2.0579 C   0  0  0  0  0  0  0  0  0  0  0  0
   -4.5711   -2.0458    0.9294 C   0  0  0  0  0  0  0  0  0  0  0  0
   -6.0632   -0.8607    2.4911 C   0  0  0  0  0  0  0  0  0  0  0  0
   -6.4063    0.3831    3.1923 C   0  0  0  0  0  0  0  0  0  0  0  0
   -5.7686    0.8828    4.3052 C   0  0  0  0  0  0  0  0  0  0  0  0
   -6.1290    2.0436    4.9278 C   0  0  0  0  0  0  0  0  0  0  0  0
   -7.1837    2.8096    4.4683 C   0  0  0  0  0  0  0  0  0  0  0  0
   -7.8502    2.3527    3.3634 C   0  0  0  0  0  0  0  0  0  0  0  0
   -7.4746    1.1751    2.7430 C   0  0  0  0  0  0  0  0  0  0  0  0
   -7.5504    4.0501    5.1594 C   0  0  0  0  0  0  0  0  0  0  0  0
   -8.3943    4.8374    4.5955 O   0  0  0  0  0  0  0  0  0  0  0  0
   -6.9869    4.3558    6.4035 N   0  0  0  0  0  0  0  0  0  0  0  0
   -6.9101    5.7187    6.8776 C   0  0  0  0  0  0  0  0  0  0  0  0
   -8.1732    6.1547    7.6029 C   0  0  0  0  0  0  0  0  0  0  0  0
   -8.5153    7.5034    7.0894 C   0  0  0  0  0  0  0  0  0  0  0  0
   -8.7182    8.4180    7.9217 O   0  0  0  0  0  0  0  0  0  0  0  0
   -8.5993    7.7106    5.7276 O   0  0  0  0  0  0  0  0  0  0  0  0
   -6.6643   -2.0652    2.9257 N   0  0  0  0  0  0  0  0  0  0  0  0
   -7.9815   -2.5516    2.8753 C   0  0  0  0  0  0  0  0  0  0  0  0
   -9.0114   -1.9109    2.2277 C   0  0  0  0  0  0  0  0  0  0  0  0
  -10.2523   -2.4506    2.2638 N   0  0  0  0  0  0  0  0  0  0  0  0
  -10.5597   -3.5917    2.8989 C   0  0  0  0  0  0  0  0  0  0  0  0
   -9.5320   -4.2408    3.5497 C   0  0  0  0  0  0  0  0  0  0  0  0
   -8.2572   -3.7510    3.5533 C   0  0  0  0  0  0  0  0  0  0  0  0
  -11.8496   -4.1720    2.9521 N   0  0  0  0  0  0  0  0  0  0  0  0
  -12.1792   -5.2606    3.6652 C   0  0  0  0  0  0  0  0  0  0  0  0
  -13.5220   -5.5541    3.4898 C   0  0  0  0  0  0  0  0  0  0  0  0
  -13.9887   -4.6112    2.6519 N   0  0  0  0  0  0  0  0  0  0  0  0
  -12.9637   -3.7775    2.3323 C   0  0  0  0  0  0  0  0  0  0  0  0
  -14.3091   -6.6749    4.0931 C   0  0  0  0  0  0  0  0  0  0  0  0
  -13.6374   -7.1219    5.2109 F   0  0  0  0  0  0  0  0  0  0  0  0
  -15.5562   -6.2313    4.4503 F   0  0  0  0  0  0  0  0  0  0  0  0
  -14.3850   -7.6740    3.1494 F   0  0  0  0  0  0  0  0  0  0  0  0
   -5.6220   -0.6137   -0.9043 C   0  0  0  0  0  0  0  0  0  0  0  0
  1  2  1  0
  2  3  1  0
  3  4  1  0
  4  5  1  0
  4  6  1  0
  6  7  1  0
  7  8  2  0
  8  9  1  0
  9 10  2  0
 10 11  1  0
 11 12  2  0
 10 13  1  0
 13 14  2  0
 13 15  1  0
 15 16  1  0
 16 17  1  0
 17 18  1  0
 18 19  2  0
 18 20  1  0
  6 21  1  0
 21 22  1  0
 22 23  2  0
 23 24  1  0
 24 25  2  0
 25 26  1  0
 26 27  2  0
 25 28  1  0
 28 29  1  0
 29 30  2  0
 30 31  1  0
 31 32  2  0
 30 33  1  0
 33 34  1  0
 33 35  1  0
 33 36  1  0
  2 37  1  0
  5  2  1  0
 12  7  1  0
 27 22  1  0
 32 28  1  0
M  END
$$$$
