
     RDKit          3D

 37 40  0  0  0  0  0  0  0  0999 V2000
   -5.9422    7.5982    5.2245 C   0  0  0  0  0  0  0  0  0  0  0  0
   -5.4653    6.1562    5.3785 C   0  0  0  0  0  0  0  0  0  0  0  0
   -6.3781    5.1405    4.7670 C   0  0  0  0  0  0  0  0  0  0  0  0
   -6.5329    4.4266    6.1059 C   0  0  0  0  0  0  0  0  0  0  0  0
   -5.8854    5.6648    6.7425 C   0  0  0  0  0  0  0  0  0  0  0  0
   -5.6305    3.2496    6.3281 C   0  0  0  0  0  0  0  0  0  0  0  0
   -5.2147    3.0014    7.7145 C   0  0  0  0  0  0  0  0  0  0  0  0
   -4.9512    1.7690    8.2681 C   0  0  0  0  0  0  0  0  0  0  0  0
   -4.5727    1.5875    9.5677 C   0  0  0  0  0  0  0  0  0  0  0  0
   -4.4266    2.6567   10.4311 C   0  0  0  0  0  0  0  0  0  0  0  0
   -4.6787    3.9039    9.9262 C   0  0  0  0  0  0  0  0  0  0  0  0
   -5.0616    4.0731    8.6081 C   0  0  0  0  0  0  0  0  0  0  0  0
   -4.0223    2.4312   11.8227 C   0  0  0  0  0  0  0  0  0  0  0  0
   -3.7131    3.4495   12.5422 O   0  0  0  0  0  0  0  0  0  0  0  0
   -3.9794    1.1321   12.3416 N   0  0  0  0  0  0  0  0  0  0  0  0
   -3.4978    0.8741   13.6794 C   0  0  0  0  0  0  0  0  0  0  0  0
   -4.4536    1.3777   14.7492 C   0  0  0  0  0  0  0  0  0  0  0  0
   -5.6163    0.4569   14.7494 C   0  0  0  0  0  0  0  0  0  0  0  0
   -6.7401    0.9251   14.4524 O   0  0  0  0  0  0  0  0  0  0  0  0
   -5.4303   -0.8718   15.0721 O   0  0  0  0  0  0  0  0  0  0  0  0
   -4.6876    3.0375    5.2952 N   0  0  0  0  0  0  0  0  0  0  0  0
   -4.7173    2.2827    4.1104 C   0  0  0  0  0  0  0  0  0  0  0  0
   -3.6062    2.0064    3.3490 C   0  0  0  0  0  0  0  0  0  0  0  0
   -3.7481    1.2933    2.2072 N   0  0  0  0  0  0  0  0  0  0  0  0
   -4.9198    0.8241    1.7524 C   0  0  0  0  0  0  0  0  0  0  0  0
   -6.0385    1.0960    2.5110 C   0  0  0  0  0  0  0  0  0  0  0  0
   -5.9661    1.8102    3.6728 C   0  0  0  0  0  0  0  0  0  0  0  0
   -5.0915    0.0796    0.5608 N   0  0  0  0  0  0  0  0  0  0  0  0
   -4.1138   -0.2293   -0.3059 C   0  0  0  0  0  0  0  0  0  0  0  0
   -4.6299   -0.9652   -1.3605 C   0  0  0  0  0  0  0  0  0  0  0  0
   -5.9439   -1.0893   -1.1022 N   0  0  0  0  0  0  0  0  0  0  0  0
   -6.2123   -0.4506    0.0674 C   0  0  0  0  0  0  0  0  0  0  0  0
   -3.9015   -1.5166   -2.5459 C   0  0  0  0  0  0  0  0  0  0  0  0
   -3.6887   -2.8622   -2.3348 F   0  0  0  0  0  0  0  0  0  0  0  0
   -4.6519   -1.3399   -3.6796 F   0  0  0  0  0  0  0  0  0  0  0  0
   -2.7002   -0.8502   -2.6324 F   0  0  0  0  0  0  0  0  0  0  0  0
   -4.0244    5.9896    5.0252 C   0  0  0  0  0  0  0  0  0  0  0  0
  1  2  1  0
  2  3  1  0
  3  4  1  0
  4  5  1  0
  4  6  1  0
  6  7  1  0
  7  8  2  0
  8  9  1  0
  9 10  2  0
 10 11  1  0
 11 12  2  0
 10 13  1  0
 13 14  2  0
 13 15  1  0
 15 16  1  0
 16 17  1  0
 17 18  1  0
 18 19  2  0
 18 20  1  0
  6 21  1  0
 21 22  1  0
 22 23  2  0
 23 24  1  0
 24 25  2  0
 25 26  1  0
 26 27  2  0
 25 28  1  0
 28 29  1  0
 29 30  2  0
 30 31  1  0
 31 32  2  0
 30 33  1  0
 33 34  1  0
 33 35  1  0
 33 36  1  0
  2 37  1  0
  5  2  1  0
 12  7  1  0
 27 22  1  0
 32 28  1  0
M  END
$$$$
