
     RDKit          3D

 37 40  0  0  0  0  0  0  0  0999 V2000
   -3.5944    1.2557   -0.0573 C   0  0  0  0  0  0  0  0  0  0  0  0
   -4.6067    0.8254    1.0013 C   0  0  0  0  0  0  0  0  0  0  0  0
   -5.8020    0.1124    0.4519 C   0  0  0  0  0  0  0  0  0  0  0  0
   -6.7409    1.1429    1.0703 C   0  0  0  0  0  0  0  0  0  0  0  0
   -5.4942    2.0063    1.3111 C   0  0  0  0  0  0  0  0  0  0  0  0
   -7.3306    0.7763    2.3996 C   0  0  0  0  0  0  0  0  0  0  0  0
   -8.3208   -0.3081    2.3950 C   0  0  0  0  0  0  0  0  0  0  0  0
   -8.0533   -1.6441    2.5913 C   0  0  0  0  0  0  0  0  0  0  0  0
   -9.0093   -2.6191    2.5715 C   0  0  0  0  0  0  0  0  0  0  0  0
  -10.3396   -2.3187    2.3474 C   0  0  0  0  0  0  0  0  0  0  0  0
  -10.6552   -1.0020    2.1456 C   0  0  0  0  0  0  0  0  0  0  0  0
   -9.6768   -0.0249    2.1681 C   0  0  0  0  0  0  0  0  0  0  0  0
  -11.3440   -3.3871    2.3281 C   0  0  0  0  0  0  0  0  0  0  0  0
  -12.5720   -3.0683    2.1264 O   0  0  0  0  0  0  0  0  0  0  0  0
  -10.9596   -4.7183    2.5257 N   0  0  0  0  0  0  0  0  0  0  0  0
  -11.9398   -5.7757    2.6222 C   0  0  0  0  0  0  0  0  0  0  0  0
  -13.0174   -5.6696    1.5549 C   0  0  0  0  0  0  0  0  0  0  0  0
  -12.4826   -6.3345    0.3418 C   0  0  0  0  0  0  0  0  0  0  0  0
  -12.6264   -5.7559   -0.7604 O   0  0  0  0  0  0  0  0  0  0  0  0
  -11.8498   -7.5552    0.4595 O   0  0  0  0  0  0  0  0  0  0  0  0
   -7.5415    1.8756    3.2646 N   0  0  0  0  0  0  0  0  0  0  0  0
   -7.1891    2.1245    4.6017 C   0  0  0  0  0  0  0  0  0  0  0  0
   -7.1655    3.3771    5.1683 C   0  0  0  0  0  0  0  0  0  0  0  0
   -6.7827    3.5113    6.4597 N   0  0  0  0  0  0  0  0  0  0  0  0
   -6.4164    2.4889    7.2473 C   0  0  0  0  0  0  0  0  0  0  0  0
   -6.4385    1.2294    6.6868 C   0  0  0  0  0  0  0  0  0  0  0  0
   -6.8139    1.0235    5.3900 C   0  0  0  0  0  0  0  0  0  0  0  0
   -6.0100    2.6066    8.5981 N   0  0  0  0  0  0  0  0  0  0  0  0
   -5.7742    1.5774    9.4273 C   0  0  0  0  0  0  0  0  0  0  0  0
   -5.3946    2.0497   10.6735 C   0  0  0  0  0  0  0  0  0  0  0  0
   -5.4090    3.3904   10.5687 N   0  0  0  0  0  0  0  0  0  0  0  0
   -5.7843    3.7167    9.3035 C   0  0  0  0  0  0  0  0  0  0  0  0
   -5.0387    1.2576   11.8924 C   0  0  0  0  0  0  0  0  0  0  0  0
   -3.6886    1.4083   12.1267 F   0  0  0  0  0  0  0  0  0  0  0  0
   -5.7489    1.7160   12.9719 F   0  0  0  0  0  0  0  0  0  0  0  0
   -5.3332   -0.0597   11.6229 F   0  0  0  0  0  0  0  0  0  0  0  0
   -3.9630    0.1518    2.1679 C   0  0  0  0  0  0  0  0  0  0  0  0
  1  2  1  0
  2  3  1  0
  3  4  1  0
  4  5  1  0
  4  6  1  0
  6  7  1  0
  7  8  2  0
  8  9  1  0
  9 10  2  0
 10 11  1  0
 11 12  2  0
 10 13  1  0
 13 14  2  0
 13 15  1  0
 15 16  1  0
 16 17  1  0
 17 18  1  0
 18 19  2  0
 18 20  1  0
  6 21  1  0
 21 22  1  0
 22 23  2  0
 23 24  1  0
 24 25  2  0
 25 26  1  0
 26 27  2  0
 25 28  1  0
 28 29  1  0
 29 30  2  0
 30 31  1  0
 31 32  2  0
 30 33  1  0
 33 34  1  0
 33 35  1  0
 33 36  1  0
  2 37  1  0
  5  2  1  0
 12  7  1  0
 27 22  1  0
 32 28  1  0
M  END
$$$$
