
     RDKit          3D

 37 40  0  0  0  0  0  0  0  0999 V2000
   -5.1688   -0.8577    1.3551 C   0  0  0  0  0  0  0  0  0  0  0  0
   -6.3873   -1.7422    1.1028 C   0  0  0  0  0  0  0  0  0  0  0  0
   -7.6433   -1.2549    1.7540 C   0  0  0  0  0  0  0  0  0  0  0  0
   -7.7990   -2.5698    2.5110 C   0  0  0  0  0  0  0  0  0  0  0  0
   -6.3549   -2.8813    2.0927 C   0  0  0  0  0  0  0  0  0  0  0  0
   -8.7068   -3.5839    1.8811 C   0  0  0  0  0  0  0  0  0  0  0  0
  -10.1201   -3.5256    2.2757 C   0  0  0  0  0  0  0  0  0  0  0  0
  -10.6320   -3.9035    3.4963 C   0  0  0  0  0  0  0  0  0  0  0  0
  -11.9582   -3.8370    3.8153 C   0  0  0  0  0  0  0  0  0  0  0  0
  -12.8941   -3.3742    2.9097 C   0  0  0  0  0  0  0  0  0  0  0  0
  -12.4329   -2.9870    1.6804 C   0  0  0  0  0  0  0  0  0  0  0  0
  -11.0870   -3.0601    1.3708 C   0  0  0  0  0  0  0  0  0  0  0  0
  -14.3124   -3.3172    3.2789 C   0  0  0  0  0  0  0  0  0  0  0  0
  -15.1876   -3.2794    2.3393 O   0  0  0  0  0  0  0  0  0  0  0  0
  -14.6890   -3.3054    4.6268 N   0  0  0  0  0  0  0  0  0  0  0  0
  -16.0215   -3.6856    5.0367 C   0  0  0  0  0  0  0  0  0  0  0  0
  -16.6568   -2.6662    5.9687 C   0  0  0  0  0  0  0  0  0  0  0  0
  -16.0966   -2.9162    7.3190 C   0  0  0  0  0  0  0  0  0  0  0  0
  -14.9463   -2.4869    7.5696 O   0  0  0  0  0  0  0  0  0  0  0  0
  -16.8480   -3.6051    8.2491 O   0  0  0  0  0  0  0  0  0  0  0  0
   -8.1143   -4.8539    1.6889 N   0  0  0  0  0  0  0  0  0  0  0  0
   -8.5932   -6.0651    1.1619 C   0  0  0  0  0  0  0  0  0  0  0  0
   -7.8290   -7.2007    1.0325 C   0  0  0  0  0  0  0  0  0  0  0  0
   -8.3796   -8.3092    0.4842 N   0  0  0  0  0  0  0  0  0  0  0  0
   -9.6460   -8.3845    0.0479 C   0  0  0  0  0  0  0  0  0  0  0  0
  -10.4193   -7.2501    0.1752 C   0  0  0  0  0  0  0  0  0  0  0  0
   -9.9262   -6.0984    0.7187 C   0  0  0  0  0  0  0  0  0  0  0  0
  -10.2410   -9.5311   -0.5309 N   0  0  0  0  0  0  0  0  0  0  0  0
   -9.5723  -10.5982   -0.9962 C   0  0  0  0  0  0  0  0  0  0  0  0
  -10.4627  -11.5361   -1.4937 C   0  0  0  0  0  0  0  0  0  0  0  0
  -11.6839  -11.0022   -1.3137 N   0  0  0  0  0  0  0  0  0  0  0  0
  -11.5364   -9.7843   -0.7281 C   0  0  0  0  0  0  0  0  0  0  0  0
  -10.1563  -12.8671   -2.1054 C   0  0  0  0  0  0  0  0  0  0  0  0
  -10.5844  -13.8499   -1.2385 F   0  0  0  0  0  0  0  0  0  0  0  0
  -10.8093  -12.9923   -3.3043 F   0  0  0  0  0  0  0  0  0  0  0  0
   -8.7914  -12.9359   -2.2698 F   0  0  0  0  0  0  0  0  0  0  0  0
   -6.5365   -2.1137   -0.3354 C   0  0  0  0  0  0  0  0  0  0  0  0
  1  2  1  0
  2  3  1  0
  3  4  1  0
  4  5  1  0
  4  6  1  0
  6  7  1  0
  7  8  2  0
  8  9  1  0
  9 10  2  0
 10 11  1  0
 11 12  2  0
 10 13  1  0
 13 14  2  0
 13 15  1  0
 15 16  1  0
 16 17  1  0
 17 18  1  0
 18 19  2  0
 18 20  1  0
  6 21  1  0
 21 22  1  0
 22 23  2  0
 23 24  1  0
 24 25  2  0
 25 26  1  0
 26 27  2  0
 25 28  1  0
 28 29  1  0
 29 30  2  0
 30 31  1  0
 31 32  2  0
 30 33  1  0
 33 34  1  0
 33 35  1  0
 33 36  1  0
  2 37  1  0
  5  2  1  0
 12  7  1  0
 27 22  1  0
 32 28  1  0
M  END
$$$$
