
     RDKit          3D

 37 40  0  0  0  0  0  0  0  0999 V2000
  -10.6911   -2.4770    5.3929 C   0  0  0  0  0  0  0  0  0  0  0  0
   -9.5472   -1.5245    5.0539 C   0  0  0  0  0  0  0  0  0  0  0  0
   -8.5952   -1.2841    6.1830 C   0  0  0  0  0  0  0  0  0  0  0  0
   -8.8494    0.2184    6.1197 C   0  0  0  0  0  0  0  0  0  0  0  0
  -10.0482   -0.1102    5.2183 C   0  0  0  0  0  0  0  0  0  0  0  0
   -7.8598    1.0165    5.3243 C   0  0  0  0  0  0  0  0  0  0  0  0
   -7.3026    2.2046    5.9835 C   0  0  0  0  0  0  0  0  0  0  0  0
   -6.4036    2.2004    7.0259 C   0  0  0  0  0  0  0  0  0  0  0  0
   -5.9177    3.3342    7.6120 C   0  0  0  0  0  0  0  0  0  0  0  0
   -6.3077    4.5894    7.1849 C   0  0  0  0  0  0  0  0  0  0  0  0
   -7.2023    4.6450    6.1501 C   0  0  0  0  0  0  0  0  0  0  0  0
   -7.6864    3.4887    5.5661 C   0  0  0  0  0  0  0  0  0  0  0  0
   -5.7719    5.7895    7.8356 C   0  0  0  0  0  0  0  0  0  0  0  0
   -6.2021    6.9372    7.4509 O   0  0  0  0  0  0  0  0  0  0  0  0
   -4.8156    5.6723    8.8507 N   0  0  0  0  0  0  0  0  0  0  0  0
   -4.0925    6.8252    9.3368 C   0  0  0  0  0  0  0  0  0  0  0  0
   -4.8981    8.1093    9.2199 C   0  0  0  0  0  0  0  0  0  0  0  0
   -4.1192    9.0231    8.3493 C   0  0  0  0  0  0  0  0  0  0  0  0
   -3.7198    8.5879    7.2442 O   0  0  0  0  0  0  0  0  0  0  0  0
   -3.8599   10.3099    8.7750 O   0  0  0  0  0  0  0  0  0  0  0  0
   -8.1490    1.0884    3.9415 N   0  0  0  0  0  0  0  0  0  0  0  0
   -7.3659    0.9127    2.7881 C   0  0  0  0  0  0  0  0  0  0  0  0
   -7.7159    1.3833    1.5445 C   0  0  0  0  0  0  0  0  0  0  0  0
   -6.9032    1.1347    0.4909 N   0  0  0  0  0  0  0  0  0  0  0  0
   -5.7537    0.4476    0.5715 C   0  0  0  0  0  0  0  0  0  0  0  0
   -5.3953   -0.0267    1.8155 C   0  0  0  0  0  0  0  0  0  0  0  0
   -6.1694    0.1880    2.9199 C   0  0  0  0  0  0  0  0  0  0  0  0
   -4.8909    0.1735   -0.5166 N   0  0  0  0  0  0  0  0  0  0  0  0
   -5.0827    0.5873   -1.7792 C   0  0  0  0  0  0  0  0  0  0  0  0
   -4.0483    0.1423   -2.5866 C   0  0  0  0  0  0  0  0  0  0  0  0
   -3.2306   -0.5496   -1.7734 N   0  0  0  0  0  0  0  0  0  0  0  0
   -3.7529   -0.5236   -0.5186 C   0  0  0  0  0  0  0  0  0  0  0  0
   -3.8580    0.3700   -4.0535 C   0  0  0  0  0  0  0  0  0  0  0  0
   -4.9959    0.9704   -4.5488 F   0  0  0  0  0  0  0  0  0  0  0  0
   -2.7764    1.1860   -4.2636 F   0  0  0  0  0  0  0  0  0  0  0  0
   -3.6751   -0.8631   -4.6372 F   0  0  0  0  0  0  0  0  0  0  0  0
   -8.8962   -1.8533    3.7513 C   0  0  0  0  0  0  0  0  0  0  0  0
  1  2  1  0
  2  3  1  0
  3  4  1  0
  4  5  1  0
  4  6  1  0
  6  7  1  0
  7  8  2  0
  8  9  1  0
  9 10  2  0
 10 11  1  0
 11 12  2  0
 10 13  1  0
 13 14  2  0
 13 15  1  0
 15 16  1  0
 16 17  1  0
 17 18  1  0
 18 19  2  0
 18 20  1  0
  6 21  1  0
 21 22  1  0
 22 23  2  0
 23 24  1  0
 24 25  2  0
 25 26  1  0
 26 27  2  0
 25 28  1  0
 28 29  1  0
 29 30  2  0
 30 31  1  0
 31 32  2  0
 30 33  1  0
 33 34  1  0
 33 35  1  0
 33 36  1  0
  2 37  1  0
  5  2  1  0
 12  7  1  0
 27 22  1  0
 32 28  1  0
M  END
$$$$
