
     RDKit          3D

 37 40  0  0  0  0  0  0  0  0999 V2000
   -9.7306  -13.0364    1.6609 C   0  0  0  0  0  0  0  0  0  0  0  0
   -9.9207  -11.7492    0.8625 C   0  0  0  0  0  0  0  0  0  0  0  0
   -9.7245  -10.4988    1.6605 C   0  0  0  0  0  0  0  0  0  0  0  0
  -11.1301  -10.0188    1.3141 C   0  0  0  0  0  0  0  0  0  0  0  0
  -11.3979  -11.4434    0.8076 C   0  0  0  0  0  0  0  0  0  0  0  0
  -11.2314   -9.0738    0.1540 C   0  0  0  0  0  0  0  0  0  0  0  0
  -10.5097   -7.8018    0.2864 C   0  0  0  0  0  0  0  0  0  0  0  0
   -9.4408   -7.3983   -0.4814 C   0  0  0  0  0  0  0  0  0  0  0  0
   -8.7964   -6.2057   -0.3160 C   0  0  0  0  0  0  0  0  0  0  0  0
   -9.1864   -5.3055    0.6575 C   0  0  0  0  0  0  0  0  0  0  0  0
  -10.2456   -5.6629    1.4477 C   0  0  0  0  0  0  0  0  0  0  0  0
  -10.8888   -6.8741    1.2693 C   0  0  0  0  0  0  0  0  0  0  0  0
   -8.4733   -4.0336    0.8144 C   0  0  0  0  0  0  0  0  0  0  0  0
   -7.8730   -3.5392   -0.2080 O   0  0  0  0  0  0  0  0  0  0  0  0
   -8.4560   -3.3846    2.0542 N   0  0  0  0  0  0  0  0  0  0  0  0
   -7.8660   -2.0743    2.2068 C   0  0  0  0  0  0  0  0  0  0  0  0
   -8.5249   -1.0321    1.3173 C   0  0  0  0  0  0  0  0  0  0  0  0
   -9.7287   -0.5546    2.0401 C   0  0  0  0  0  0  0  0  0  0  0  0
   -9.6240   -0.3108    3.2648 O   0  0  0  0  0  0  0  0  0  0  0  0
  -10.9145   -0.3942    1.3528 O   0  0  0  0  0  0  0  0  0  0  0  0
  -12.4957   -9.0666   -0.4806 N   0  0  0  0  0  0  0  0  0  0  0  0
  -12.9678   -8.4862   -1.6699 C   0  0  0  0  0  0  0  0  0  0  0  0
  -14.2887   -8.1854   -1.9048 C   0  0  0  0  0  0  0  0  0  0  0  0
  -14.6435   -7.6535   -3.0980 N   0  0  0  0  0  0  0  0  0  0  0  0
  -13.7817   -7.3911   -4.0921 C   0  0  0  0  0  0  0  0  0  0  0  0
  -12.4550   -7.6889   -3.8639 C   0  0  0  0  0  0  0  0  0  0  0  0
  -12.0294   -8.2274   -2.6832 C   0  0  0  0  0  0  0  0  0  0  0  0
  -14.1308   -6.8385   -5.3477 N   0  0  0  0  0  0  0  0  0  0  0  0
  -15.3780   -6.5308   -5.7376 C   0  0  0  0  0  0  0  0  0  0  0  0
  -15.3589   -6.0105   -7.0217 C   0  0  0  0  0  0  0  0  0  0  0  0
  -14.0658   -6.0146   -7.3912 N   0  0  0  0  0  0  0  0  0  0  0  0
  -13.3294   -6.5197   -6.3661 C   0  0  0  0  0  0  0  0  0  0  0  0
  -16.5164   -5.5372   -7.8439 C   0  0  0  0  0  0  0  0  0  0  0  0
  -17.6618   -6.1331   -7.3609 F   0  0  0  0  0  0  0  0  0  0  0  0
  -16.6301   -4.1741   -7.7502 F   0  0  0  0  0  0  0  0  0  0  0  0
  -16.2829   -5.9316   -9.1418 F   0  0  0  0  0  0  0  0  0  0  0  0
   -9.1967  -11.7735   -0.4429 C   0  0  0  0  0  0  0  0  0  0  0  0
  1  2  1  0
  2  3  1  0
  3  4  1  0
  4  5  1  0
  4  6  1  0
  6  7  1  0
  7  8  2  0
  8  9  1  0
  9 10  2  0
 10 11  1  0
 11 12  2  0
 10 13  1  0
 13 14  2  0
 13 15  1  0
 15 16  1  0
 16 17  1  0
 17 18  1  0
 18 19  2  0
 18 20  1  0
  6 21  1  0
 21 22  1  0
 22 23  2  0
 23 24  1  0
 24 25  2  0
 25 26  1  0
 26 27  2  0
 25 28  1  0
 28 29  1  0
 29 30  2  0
 30 31  1  0
 31 32  2  0
 30 33  1  0
 33 34  1  0
 33 35  1  0
 33 36  1  0
  2 37  1  0
  5  2  1  0
 12  7  1  0
 27 22  1  0
 32 28  1  0
M  END
$$$$
