
     RDKit          3D

 37 40  0  0  0  0  0  0  0  0999 V2000
  -14.7888   -8.5620  -18.0501 C   0  0  0  0  0  0  0  0  0  0  0  0
  -13.7288   -8.9696  -17.0299 C   0  0  0  0  0  0  0  0  0  0  0  0
  -12.6072   -9.7784  -17.6016 C   0  0  0  0  0  0  0  0  0  0  0  0
  -12.8880  -10.9165  -16.6259 C   0  0  0  0  0  0  0  0  0  0  0  0
  -14.2143  -10.2077  -16.3159 C   0  0  0  0  0  0  0  0  0  0  0  0
  -12.0531  -10.9312  -15.3801 C   0  0  0  0  0  0  0  0  0  0  0  0
  -10.6220  -11.2071  -15.5596 C   0  0  0  0  0  0  0  0  0  0  0  0
   -9.8518  -10.8053  -16.6273 C   0  0  0  0  0  0  0  0  0  0  0  0
   -8.5226  -11.0924  -16.7534 C   0  0  0  0  0  0  0  0  0  0  0  0
   -7.8495  -11.8231  -15.7926 C   0  0  0  0  0  0  0  0  0  0  0  0
   -8.5742  -12.2462  -14.7109 C   0  0  0  0  0  0  0  0  0  0  0  0
   -9.9198  -11.9485  -14.5964 C   0  0  0  0  0  0  0  0  0  0  0  0
   -6.4225  -12.1192  -15.9563 C   0  0  0  0  0  0  0  0  0  0  0  0
   -6.0730  -12.9626  -16.8601 O   0  0  0  0  0  0  0  0  0  0  0  0
   -5.4749  -11.4901  -15.1408 N   0  0  0  0  0  0  0  0  0  0  0  0
   -4.1148  -11.2919  -15.5869 C   0  0  0  0  0  0  0  0  0  0  0  0
   -4.0391  -10.5504  -16.9120 C   0  0  0  0  0  0  0  0  0  0  0  0
   -3.8711   -9.1131  -16.5870 C   0  0  0  0  0  0  0  0  0  0  0  0
   -4.8859   -8.4630  -16.2434 O   0  0  0  0  0  0  0  0  0  0  0  0
   -2.6187   -8.5397  -16.6708 O   0  0  0  0  0  0  0  0  0  0  0  0
  -12.7062  -11.4758  -14.2496 N   0  0  0  0  0  0  0  0  0  0  0  0
  -12.4766  -11.3715  -12.8674 C   0  0  0  0  0  0  0  0  0  0  0  0
  -13.0770  -12.1754  -11.9274 C   0  0  0  0  0  0  0  0  0  0  0  0
  -12.8087  -11.9730  -10.6161 N   0  0  0  0  0  0  0  0  0  0  0  0
  -11.9802  -11.0244  -10.1541 C   0  0  0  0  0  0  0  0  0  0  0  0
  -11.3732  -10.2148  -11.0907 C   0  0  0  0  0  0  0  0  0  0  0  0
  -11.6001  -10.3646  -12.4290 C   0  0  0  0  0  0  0  0  0  0  0  0
  -11.6877  -10.7933   -8.7886 N   0  0  0  0  0  0  0  0  0  0  0  0
  -12.2171  -11.4722   -7.7585 C   0  0  0  0  0  0  0  0  0  0  0  0
  -11.7131  -10.9879   -6.5621 C   0  0  0  0  0  0  0  0  0  0  0  0
  -10.8666  -10.0001   -6.9030 N   0  0  0  0  0  0  0  0  0  0  0  0
  -10.8596   -9.8912   -8.2580 C   0  0  0  0  0  0  0  0  0  0  0  0
  -12.0271  -11.4491   -5.1733 C   0  0  0  0  0  0  0  0  0  0  0  0
  -13.3850  -11.3214   -4.9724 F   0  0  0  0  0  0  0  0  0  0  0  0
  -11.6591  -12.7610   -5.0218 F   0  0  0  0  0  0  0  0  0  0  0  0
  -11.3365  -10.6326   -4.3066 F   0  0  0  0  0  0  0  0  0  0  0  0
  -13.2966   -7.8300  -16.1677 C   0  0  0  0  0  0  0  0  0  0  0  0
  1  2  1  0
  2  3  1  0
  3  4  1  0
  4  5  1  0
  4  6  1  0
  6  7  1  0
  7  8  2  0
  8  9  1  0
  9 10  2  0
 10 11  1  0
 11 12  2  0
 10 13  1  0
 13 14  2  0
 13 15  1  0
 15 16  1  0
 16 17  1  0
 17 18  1  0
 18 19  2  0
 18 20  1  0
  6 21  1  0
 21 22  1  0
 22 23  2  0
 23 24  1  0
 24 25  2  0
 25 26  1  0
 26 27  2  0
 25 28  1  0
 28 29  1  0
 29 30  2  0
 30 31  1  0
 31 32  2  0
 30 33  1  0
 33 34  1  0
 33 35  1  0
 33 36  1  0
  2 37  1  0
  5  2  1  0
 12  7  1  0
 27 22  1  0
 32 28  1  0
M  END
$$$$
