
     RDKit          3D

 37 40  0  0  0  0  0  0  0  0999 V2000
  -14.9501  -12.7560  -10.9774 C   0  0  0  0  0  0  0  0  0  0  0  0
  -13.6695  -11.9306  -10.8807 C   0  0  0  0  0  0  0  0  0  0  0  0
  -12.4175  -12.7106  -11.1315 C   0  0  0  0  0  0  0  0  0  0  0  0
  -11.8637  -12.3226   -9.7645 C   0  0  0  0  0  0  0  0  0  0  0  0
  -13.2798  -11.8355   -9.4255 C   0  0  0  0  0  0  0  0  0  0  0  0
  -10.9368  -11.1438   -9.7445 C   0  0  0  0  0  0  0  0  0  0  0  0
   -9.7954  -11.1983  -10.6669 C   0  0  0  0  0  0  0  0  0  0  0  0
   -9.6183  -10.4042  -11.7772 C   0  0  0  0  0  0  0  0  0  0  0  0
   -8.5404  -10.4966  -12.6107 C   0  0  0  0  0  0  0  0  0  0  0  0
   -7.5337  -11.4166  -12.3865 C   0  0  0  0  0  0  0  0  0  0  0  0
   -7.6657  -12.2303  -11.2936 C   0  0  0  0  0  0  0  0  0  0  0  0
   -8.7629  -12.1260  -10.4581 C   0  0  0  0  0  0  0  0  0  0  0  0
   -6.3895  -11.4956  -13.3006 C   0  0  0  0  0  0  0  0  0  0  0  0
   -5.5602  -12.4663  -13.1595 O   0  0  0  0  0  0  0  0  0  0  0  0
   -6.2181  -10.5296  -14.2988 N   0  0  0  0  0  0  0  0  0  0  0  0
   -5.1177  -10.6029  -15.2325 C   0  0  0  0  0  0  0  0  0  0  0  0
   -3.8864   -9.8589  -14.7407 C   0  0  0  0  0  0  0  0  0  0  0  0
   -3.9789   -8.4798  -15.2785 C   0  0  0  0  0  0  0  0  0  0  0  0
   -3.1000   -7.6536  -14.9390 O   0  0  0  0  0  0  0  0  0  0  0  0
   -5.0164   -8.1497  -16.1265 O   0  0  0  0  0  0  0  0  0  0  0  0
  -10.7380  -10.5828   -8.4612 N   0  0  0  0  0  0  0  0  0  0  0  0
  -11.5584   -9.8244   -7.6092 C   0  0  0  0  0  0  0  0  0  0  0  0
  -12.7929   -9.3364   -7.9675 C   0  0  0  0  0  0  0  0  0  0  0  0
  -13.4919   -8.5907   -7.0799 N   0  0  0  0  0  0  0  0  0  0  0  0
  -13.0601   -8.2855   -5.8470 C   0  0  0  0  0  0  0  0  0  0  0  0
  -11.8234   -8.7721   -5.4797 C   0  0  0  0  0  0  0  0  0  0  0  0
  -11.0661   -9.5301   -6.3265 C   0  0  0  0  0  0  0  0  0  0  0  0
  -13.7723   -7.5056   -4.9046 N   0  0  0  0  0  0  0  0  0  0  0  0
  -14.8864   -6.8034   -5.1658 C   0  0  0  0  0  0  0  0  0  0  0  0
  -15.3200   -6.1578   -4.0190 C   0  0  0  0  0  0  0  0  0  0  0  0
  -14.4355   -6.4923   -3.0628 N   0  0  0  0  0  0  0  0  0  0  0  0
  -13.5001   -7.3112   -3.6127 C   0  0  0  0  0  0  0  0  0  0  0  0
  -16.5150   -5.2721   -3.8535 C   0  0  0  0  0  0  0  0  0  0  0  0
  -17.3856   -5.8808   -2.9748 F   0  0  0  0  0  0  0  0  0  0  0  0
  -16.1294   -4.0552   -3.3532 F   0  0  0  0  0  0  0  0  0  0  0  0
  -17.1000   -5.1408   -5.0925 F   0  0  0  0  0  0  0  0  0  0  0  0
  -13.7607  -10.6433  -11.6312 C   0  0  0  0  0  0  0  0  0  0  0  0
  1  2  1  0
  2  3  1  0
  3  4  1  0
  4  5  1  0
  4  6  1  0
  6  7  1  0
  7  8  2  0
  8  9  1  0
  9 10  2  0
 10 11  1  0
 11 12  2  0
 10 13  1  0
 13 14  2  0
 13 15  1  0
 15 16  1  0
 16 17  1  0
 17 18  1  0
 18 19  2  0
 18 20  1  0
  6 21  1  0
 21 22  1  0
 22 23  2  0
 23 24  1  0
 24 25  2  0
 25 26  1  0
 26 27  2  0
 25 28  1  0
 28 29  1  0
 29 30  2  0
 30 31  1  0
 31 32  2  0
 30 33  1  0
 33 34  1  0
 33 35  1  0
 33 36  1  0
  2 37  1  0
  5  2  1  0
 12  7  1  0
 27 22  1  0
 32 28  1  0
M  END
$$$$
