
     RDKit          3D

 37 40  0  0  0  0  0  0  0  0999 V2000
  -10.0477  -13.1021   -4.2668 C   0  0  0  0  0  0  0  0  0  0  0  0
  -10.1658  -11.5885   -4.4276 C   0  0  0  0  0  0  0  0  0  0  0  0
  -10.0097  -10.8230   -3.1515 C   0  0  0  0  0  0  0  0  0  0  0  0
  -11.3818  -10.1816   -3.3310 C   0  0  0  0  0  0  0  0  0  0  0  0
  -11.6316  -11.2283   -4.4263 C   0  0  0  0  0  0  0  0  0  0  0  0
  -11.3905   -8.8208   -3.9614 C   0  0  0  0  0  0  0  0  0  0  0  0
  -10.5073   -7.8170   -3.3541 C   0  0  0  0  0  0  0  0  0  0  0  0
   -9.3228   -7.3593   -3.8853 C   0  0  0  0  0  0  0  0  0  0  0  0
   -8.5304   -6.4270   -3.2786 C   0  0  0  0  0  0  0  0  0  0  0  0
   -8.8764   -5.8701   -2.0620 C   0  0  0  0  0  0  0  0  0  0  0  0
  -10.0467   -6.2948   -1.4929 C   0  0  0  0  0  0  0  0  0  0  0  0
  -10.8393   -7.2399   -2.1183 C   0  0  0  0  0  0  0  0  0  0  0  0
   -8.0040   -4.8735   -1.4322 C   0  0  0  0  0  0  0  0  0  0  0  0
   -8.2997   -4.4606   -0.2523 O   0  0  0  0  0  0  0  0  0  0  0  0
   -6.8790   -4.3928   -2.1120 N   0  0  0  0  0  0  0  0  0  0  0  0
   -6.2606   -3.1390   -1.7464 C   0  0  0  0  0  0  0  0  0  0  0  0
   -6.6502   -2.6834   -0.3492 C   0  0  0  0  0  0  0  0  0  0  0  0
   -5.6524   -1.6656    0.0608 C   0  0  0  0  0  0  0  0  0  0  0  0
   -5.9582   -0.4565   -0.0611 O   0  0  0  0  0  0  0  0  0  0  0  0
   -4.4316   -2.0733    0.5586 O   0  0  0  0  0  0  0  0  0  0  0  0
  -12.6594   -8.4053   -4.4286 N   0  0  0  0  0  0  0  0  0  0  0  0
  -13.2429   -8.3604   -5.7060 C   0  0  0  0  0  0  0  0  0  0  0  0
  -12.6271   -8.8182   -6.8469 C   0  0  0  0  0  0  0  0  0  0  0  0
  -13.2657   -8.7020   -8.0348 N   0  0  0  0  0  0  0  0  0  0  0  0
  -14.4842   -8.1612   -8.1856 C   0  0  0  0  0  0  0  0  0  0  0  0
  -15.1088   -7.7009   -7.0459 C   0  0  0  0  0  0  0  0  0  0  0  0
  -14.5209   -7.7869   -5.8163 C   0  0  0  0  0  0  0  0  0  0  0  0
  -15.1688   -8.0270   -9.4172 N   0  0  0  0  0  0  0  0  0  0  0  0
  -14.7226   -8.4719  -10.6027 C   0  0  0  0  0  0  0  0  0  0  0  0
  -15.6403   -8.1740  -11.5971 C   0  0  0  0  0  0  0  0  0  0  0  0
  -16.6493   -7.5383  -10.9754 N   0  0  0  0  0  0  0  0  0  0  0  0
  -16.3515   -7.4550   -9.6517 C   0  0  0  0  0  0  0  0  0  0  0  0
  -15.5516   -8.4833  -13.0587 C   0  0  0  0  0  0  0  0  0  0  0  0
  -15.7039   -7.3059  -13.7596 F   0  0  0  0  0  0  0  0  0  0  0  0
  -14.3309   -9.0374  -13.3462 F   0  0  0  0  0  0  0  0  0  0  0  0
  -16.5773   -9.3521  -13.3547 F   0  0  0  0  0  0  0  0  0  0  0  0
   -9.3533  -11.0693   -5.5673 C   0  0  0  0  0  0  0  0  0  0  0  0
  1  2  1  0
  2  3  1  0
  3  4  1  0
  4  5  1  0
  4  6  1  0
  6  7  1  0
  7  8  2  0
  8  9  1  0
  9 10  2  0
 10 11  1  0
 11 12  2  0
 10 13  1  0
 13 14  2  0
 13 15  1  0
 15 16  1  0
 16 17  1  0
 17 18  1  0
 18 19  2  0
 18 20  1  0
  6 21  1  0
 21 22  1  0
 22 23  2  0
 23 24  1  0
 24 25  2  0
 25 26  1  0
 26 27  2  0
 25 28  1  0
 28 29  1  0
 29 30  2  0
 30 31  1  0
 31 32  2  0
 30 33  1  0
 33 34  1  0
 33 35  1  0
 33 36  1  0
  2 37  1  0
  5  2  1  0
 12  7  1  0
 27 22  1  0
 32 28  1  0
M  END
$$$$
