
     RDKit          3D

 37 40  0  0  0  0  0  0  0  0999 V2000
   -5.7497  -13.1052   -8.2631 C   0  0  0  0  0  0  0  0  0  0  0  0
   -6.8899  -12.0961   -8.3731 C   0  0  0  0  0  0  0  0  0  0  0  0
   -7.6768  -11.9211   -7.1125 C   0  0  0  0  0  0  0  0  0  0  0  0
   -8.9679  -12.3067   -7.8270 C   0  0  0  0  0  0  0  0  0  0  0  0
   -8.0810  -12.7964   -8.9808 C   0  0  0  0  0  0  0  0  0  0  0  0
   -9.8073  -11.1668   -8.3220 C   0  0  0  0  0  0  0  0  0  0  0  0
  -10.1967  -10.1638   -7.3225 C   0  0  0  0  0  0  0  0  0  0  0  0
   -9.7023   -8.8823   -7.2323 C   0  0  0  0  0  0  0  0  0  0  0  0
  -10.0913   -7.9855   -6.2787 C   0  0  0  0  0  0  0  0  0  0  0  0
  -11.0297   -8.3162   -5.3194 C   0  0  0  0  0  0  0  0  0  0  0  0
  -11.5503   -9.5813   -5.3676 C   0  0  0  0  0  0  0  0  0  0  0  0
  -11.1469  -10.4795   -6.3388 C   0  0  0  0  0  0  0  0  0  0  0  0
  -11.4257   -7.3335   -4.3053 C   0  0  0  0  0  0  0  0  0  0  0  0
  -10.8267   -6.1973   -4.2883 O   0  0  0  0  0  0  0  0  0  0  0  0
  -12.4343   -7.6397   -3.3845 N   0  0  0  0  0  0  0  0  0  0  0  0
  -12.8346   -6.6936   -2.3682 C   0  0  0  0  0  0  0  0  0  0  0  0
  -11.7398   -6.4416   -1.3439 C   0  0  0  0  0  0  0  0  0  0  0  0
  -12.2506   -5.3977   -0.4224 C   0  0  0  0  0  0  0  0  0  0  0  0
  -12.6791   -4.3301   -0.9191 O   0  0  0  0  0  0  0  0  0  0  0  0
  -12.2399   -5.6286    0.9382 O   0  0  0  0  0  0  0  0  0  0  0  0
  -10.7483  -11.5267   -9.3151 N   0  0  0  0  0  0  0  0  0  0  0  0
  -11.3801  -10.8064  -10.3428 C   0  0  0  0  0  0  0  0  0  0  0  0
  -11.0411   -9.5227  -10.6999 C   0  0  0  0  0  0  0  0  0  0  0  0
  -11.7331   -8.9065  -11.6868 N   0  0  0  0  0  0  0  0  0  0  0  0
  -12.7490   -9.4687  -12.3591 C   0  0  0  0  0  0  0  0  0  0  0  0
  -13.0942  -10.7564  -12.0075 C   0  0  0  0  0  0  0  0  0  0  0  0
  -12.4379  -11.4353  -11.0209 C   0  0  0  0  0  0  0  0  0  0  0  0
  -13.4877   -8.8424  -13.3914 N   0  0  0  0  0  0  0  0  0  0  0  0
  -13.2744   -7.5990  -13.8503 C   0  0  0  0  0  0  0  0  0  0  0  0
  -14.1762   -7.3050  -14.8605 C   0  0  0  0  0  0  0  0  0  0  0  0
  -14.9360   -8.4065  -14.9949 N   0  0  0  0  0  0  0  0  0  0  0  0
  -14.5083   -9.3335  -14.0973 C   0  0  0  0  0  0  0  0  0  0  0  0
  -14.2987   -6.0393  -15.6497 C   0  0  0  0  0  0  0  0  0  0  0  0
  -13.9396   -6.3067  -16.9536 F   0  0  0  0  0  0  0  0  0  0  0  0
  -15.5924   -5.5871  -15.6104 F   0  0  0  0  0  0  0  0  0  0  0  0
  -13.4326   -5.1260  -15.0928 F   0  0  0  0  0  0  0  0  0  0  0  0
   -6.4645  -10.8208   -9.0223 C   0  0  0  0  0  0  0  0  0  0  0  0
  1  2  1  0
  2  3  1  0
  3  4  1  0
  4  5  1  0
  4  6  1  0
  6  7  1  0
  7  8  2  0
  8  9  1  0
  9 10  2  0
 10 11  1  0
 11 12  2  0
 10 13  1  0
 13 14  2  0
 13 15  1  0
 15 16  1  0
 16 17  1  0
 17 18  1  0
 18 19  2  0
 18 20  1  0
  6 21  1  0
 21 22  1  0
 22 23  2  0
 23 24  1  0
 24 25  2  0
 25 26  1  0
 26 27  2  0
 25 28  1  0
 28 29  1  0
 29 30  2  0
 30 31  1  0
 31 32  2  0
 30 33  1  0
 33 34  1  0
 33 35  1  0
 33 36  1  0
  2 37  1  0
  5  2  1  0
 12  7  1  0
 27 22  1  0
 32 28  1  0
M  END
$$$$
