
     RDKit          3D

 37 40  0  0  0  0  0  0  0  0999 V2000
   -3.3868   -0.7349    3.1532 C   0  0  0  0  0  0  0  0  0  0  0  0
   -4.9046   -0.5792    3.1007 C   0  0  0  0  0  0  0  0  0  0  0  0
   -5.6366   -1.3548    4.1502 C   0  0  0  0  0  0  0  0  0  0  0  0
   -6.4412   -2.0955    3.0871 C   0  0  0  0  0  0  0  0  0  0  0  0
   -5.4403   -1.5377    2.0650 C   0  0  0  0  0  0  0  0  0  0  0  0
   -7.7973   -1.5322    2.7823 C   0  0  0  0  0  0  0  0  0  0  0  0
   -7.9529   -0.0822    2.9544 C   0  0  0  0  0  0  0  0  0  0  0  0
   -8.8628    0.7141    2.2966 C   0  0  0  0  0  0  0  0  0  0  0  0
   -8.9657    2.0627    2.4857 C   0  0  0  0  0  0  0  0  0  0  0  0
   -8.1418    2.7303    3.3721 C   0  0  0  0  0  0  0  0  0  0  0  0
   -7.2189    1.9803    4.0502 C   0  0  0  0  0  0  0  0  0  0  0  0
   -7.1256    0.6154    3.8485 C   0  0  0  0  0  0  0  0  0  0  0  0
   -8.2727    4.1799    3.5521 C   0  0  0  0  0  0  0  0  0  0  0  0
   -9.1360    4.8090    2.8386 O   0  0  0  0  0  0  0  0  0  0  0  0
   -7.4701    4.8489    4.4833 N   0  0  0  0  0  0  0  0  0  0  0  0
   -7.5037    6.2884    4.6055 C   0  0  0  0  0  0  0  0  0  0  0  0
   -6.9791    6.9904    3.3631 C   0  0  0  0  0  0  0  0  0  0  0  0
   -5.5654    7.3441    3.6385 C   0  0  0  0  0  0  0  0  0  0  0  0
   -5.3354    8.3735    4.3150 O   0  0  0  0  0  0  0  0  0  0  0  0
   -4.5564    6.5402    3.1487 O   0  0  0  0  0  0  0  0  0  0  0  0
   -8.8725   -2.3727    3.1547 N   0  0  0  0  0  0  0  0  0  0  0  0
   -9.3924   -3.5605    2.6136 C   0  0  0  0  0  0  0  0  0  0  0  0
  -10.3503   -4.3297    3.2310 C   0  0  0  0  0  0  0  0  0  0  0  0
  -10.7633   -5.4738    2.6369 N   0  0  0  0  0  0  0  0  0  0  0  0
  -10.2972   -5.9237    1.4622 C   0  0  0  0  0  0  0  0  0  0  0  0
   -9.3371   -5.1573    0.8361 C   0  0  0  0  0  0  0  0  0  0  0  0
   -8.8759   -3.9928    1.3805 C   0  0  0  0  0  0  0  0  0  0  0  0
  -10.7121   -7.1175    0.8248 N   0  0  0  0  0  0  0  0  0  0  0  0
  -11.6655   -7.9461    1.2796 C   0  0  0  0  0  0  0  0  0  0  0  0
  -11.8177   -9.0158    0.4120 C   0  0  0  0  0  0  0  0  0  0  0  0
  -10.9295   -8.8057   -0.5757 N   0  0  0  0  0  0  0  0  0  0  0  0
  -10.2639   -7.6497   -0.3140 C   0  0  0  0  0  0  0  0  0  0  0  0
  -12.7622  -10.1710    0.5268 C   0  0  0  0  0  0  0  0  0  0  0  0
  -13.7592  -10.0088   -0.4114 F   0  0  0  0  0  0  0  0  0  0  0  0
  -12.0949  -11.3456    0.2932 F   0  0  0  0  0  0  0  0  0  0  0  0
  -13.2913  -10.1405    1.7971 F   0  0  0  0  0  0  0  0  0  0  0  0
   -5.3292    0.8463    2.9718 C   0  0  0  0  0  0  0  0  0  0  0  0
  1  2  1  0
  2  3  1  0
  3  4  1  0
  4  5  1  0
  4  6  1  0
  6  7  1  0
  7  8  2  0
  8  9  1  0
  9 10  2  0
 10 11  1  0
 11 12  2  0
 10 13  1  0
 13 14  2  0
 13 15  1  0
 15 16  1  0
 16 17  1  0
 17 18  1  0
 18 19  2  0
 18 20  1  0
  6 21  1  0
 21 22  1  0
 22 23  2  0
 23 24  1  0
 24 25  2  0
 25 26  1  0
 26 27  2  0
 25 28  1  0
 28 29  1  0
 29 30  2  0
 30 31  1  0
 31 32  2  0
 30 33  1  0
 33 34  1  0
 33 35  1  0
 33 36  1  0
  2 37  1  0
  5  2  1  0
 12  7  1  0
 27 22  1  0
 32 28  1  0
M  END
$$$$
