
     RDKit          3D

 37 40  0  0  0  0  0  0  0  0999 V2000
  -10.7318  -16.1493  -13.9140 C   0  0  0  0  0  0  0  0  0  0  0  0
  -10.6358  -14.7125  -13.4069 C   0  0  0  0  0  0  0  0  0  0  0  0
  -11.9515  -14.1058  -13.0329 C   0  0  0  0  0  0  0  0  0  0  0  0
  -11.7415  -12.9628  -14.0206 C   0  0  0  0  0  0  0  0  0  0  0  0
  -10.5892  -13.7935  -14.6035 C   0  0  0  0  0  0  0  0  0  0  0  0
  -11.1747  -11.6983  -13.4470 C   0  0  0  0  0  0  0  0  0  0  0  0
  -10.0793  -11.8559  -12.4817 C   0  0  0  0  0  0  0  0  0  0  0  0
  -10.2184  -11.9674  -11.1167 C   0  0  0  0  0  0  0  0  0  0  0  0
   -9.1665  -12.1061  -10.2568 C   0  0  0  0  0  0  0  0  0  0  0  0
   -7.8629  -12.1441  -10.7141 C   0  0  0  0  0  0  0  0  0  0  0  0
   -7.6736  -12.0359  -12.0656 C   0  0  0  0  0  0  0  0  0  0  0  0
   -8.7480  -11.8955  -12.9249 C   0  0  0  0  0  0  0  0  0  0  0  0
   -6.7528  -12.2904   -9.7668 C   0  0  0  0  0  0  0  0  0  0  0  0
   -5.5522  -12.1830  -10.2108 O   0  0  0  0  0  0  0  0  0  0  0  0
   -7.0102  -12.5402   -8.4140 N   0  0  0  0  0  0  0  0  0  0  0  0
   -5.9360  -12.6465   -7.4532 C   0  0  0  0  0  0  0  0  0  0  0  0
   -4.9641  -11.4802   -7.5355 C   0  0  0  0  0  0  0  0  0  0  0  0
   -4.0548  -11.6004   -6.3699 C   0  0  0  0  0  0  0  0  0  0  0  0
   -4.4083  -12.3357   -5.4188 O   0  0  0  0  0  0  0  0  0  0  0  0
   -2.8609  -10.9084   -6.3658 O   0  0  0  0  0  0  0  0  0  0  0  0
  -12.1336  -10.6842  -13.2163 N   0  0  0  0  0  0  0  0  0  0  0  0
  -12.9469   -9.9218  -14.0714 C   0  0  0  0  0  0  0  0  0  0  0  0
  -14.0380   -9.1993  -13.6495 C   0  0  0  0  0  0  0  0  0  0  0  0
  -14.7737   -8.5203  -14.5607 N   0  0  0  0  0  0  0  0  0  0  0  0
  -14.5110   -8.4985  -15.8761 C   0  0  0  0  0  0  0  0  0  0  0  0
  -13.4176   -9.2196  -16.3069 C   0  0  0  0  0  0  0  0  0  0  0  0
  -12.6334   -9.9270  -15.4411 C   0  0  0  0  0  0  0  0  0  0  0  0
  -15.2677   -7.7985  -16.8461 N   0  0  0  0  0  0  0  0  0  0  0  0
  -16.4726   -7.2452  -16.6355 C   0  0  0  0  0  0  0  0  0  0  0  0
  -16.9263   -6.6402  -17.7966 C   0  0  0  0  0  0  0  0  0  0  0  0
  -15.9601   -6.8457  -18.7093 N   0  0  0  0  0  0  0  0  0  0  0  0
  -14.9579   -7.5503  -18.1202 C   0  0  0  0  0  0  0  0  0  0  0  0
  -18.2129   -5.9073  -18.0144 C   0  0  0  0  0  0  0  0  0  0  0  0
  -17.9339   -4.7333  -18.6809 F   0  0  0  0  0  0  0  0  0  0  0  0
  -19.0660   -6.6736  -18.7659 F   0  0  0  0  0  0  0  0  0  0  0  0
  -18.7440   -5.6383  -16.7734 F   0  0  0  0  0  0  0  0  0  0  0  0
   -9.5581  -14.5359  -12.3891 C   0  0  0  0  0  0  0  0  0  0  0  0
  1  2  1  0
  2  3  1  0
  3  4  1  0
  4  5  1  0
  4  6  1  0
  6  7  1  0
  7  8  2  0
  8  9  1  0
  9 10  2  0
 10 11  1  0
 11 12  2  0
 10 13  1  0
 13 14  2  0
 13 15  1  0
 15 16  1  0
 16 17  1  0
 17 18  1  0
 18 19  2  0
 18 20  1  0
  6 21  1  0
 21 22  1  0
 22 23  2  0
 23 24  1  0
 24 25  2  0
 25 26  1  0
 26 27  2  0
 25 28  1  0
 28 29  1  0
 29 30  2  0
 30 31  1  0
 31 32  2  0
 30 33  1  0
 33 34  1  0
 33 35  1  0
 33 36  1  0
  2 37  1  0
  5  2  1  0
 12  7  1  0
 27 22  1  0
 32 28  1  0
M  END
$$$$
