
     RDKit          3D

 37 40  0  0  0  0  0  0  0  0999 V2000
   -9.8679   -2.1361    3.3979 C   0  0  0  0  0  0  0  0  0  0  0  0
   -9.1701   -1.1898    4.3717 C   0  0  0  0  0  0  0  0  0  0  0  0
  -10.1018   -0.4388    5.2699 C   0  0  0  0  0  0  0  0  0  0  0  0
   -9.5552    0.8960    4.7741 C   0  0  0  0  0  0  0  0  0  0  0  0
   -8.8803    0.1019    3.6464 C   0  0  0  0  0  0  0  0  0  0  0  0
   -8.4875    1.5212    5.6216 C   0  0  0  0  0  0  0  0  0  0  0  0
   -8.5717    1.2676    7.0655 C   0  0  0  0  0  0  0  0  0  0  0  0
   -9.7242    1.0080    7.7720 C   0  0  0  0  0  0  0  0  0  0  0  0
   -9.7532    0.7843    9.1189 C   0  0  0  0  0  0  0  0  0  0  0  0
   -8.5979    0.8049    9.8772 C   0  0  0  0  0  0  0  0  0  0  0  0
   -7.4252    1.0601    9.2186 C   0  0  0  0  0  0  0  0  0  0  0  0
   -7.4106    1.2852    7.8542 C   0  0  0  0  0  0  0  0  0  0  0  0
   -8.6599    0.5646   11.3226 C   0  0  0  0  0  0  0  0  0  0  0  0
   -9.7848    0.7261   11.9215 O   0  0  0  0  0  0  0  0  0  0  0  0
   -7.5130    0.1685   12.0202 N   0  0  0  0  0  0  0  0  0  0  0  0
   -7.5476   -0.0744   13.4443 C   0  0  0  0  0  0  0  0  0  0  0  0
   -6.2685    0.3621   14.1405 C   0  0  0  0  0  0  0  0  0  0  0  0
   -6.4544    1.7833   14.5215 C   0  0  0  0  0  0  0  0  0  0  0  0
   -6.7566    2.0413   15.7099 O   0  0  0  0  0  0  0  0  0  0  0  0
   -6.2915    2.7687   13.5691 O   0  0  0  0  0  0  0  0  0  0  0  0
   -8.0774    2.8034    5.1869 N   0  0  0  0  0  0  0  0  0  0  0  0
   -7.3396    3.2487    4.0772 C   0  0  0  0  0  0  0  0  0  0  0  0
   -6.7686    4.4962    3.9864 C   0  0  0  0  0  0  0  0  0  0  0  0
   -6.1012    4.8371    2.8591 N   0  0  0  0  0  0  0  0  0  0  0  0
   -5.9509    4.0291    1.7987 C   0  0  0  0  0  0  0  0  0  0  0  0
   -6.5197    2.7759    1.8826 C   0  0  0  0  0  0  0  0  0  0  0  0
   -7.2067    2.3683    2.9902 C   0  0  0  0  0  0  0  0  0  0  0  0
   -5.2603    4.3657    0.6099 N   0  0  0  0  0  0  0  0  0  0  0  0
   -4.5109    5.4659    0.4357 C   0  0  0  0  0  0  0  0  0  0  0  0
   -3.9812    5.4812   -0.8446 C   0  0  0  0  0  0  0  0  0  0  0  0
   -4.4334    4.3599   -1.4334 N   0  0  0  0  0  0  0  0  0  0  0  0
   -5.2093    3.6905   -0.5401 C   0  0  0  0  0  0  0  0  0  0  0  0
   -3.0922    6.5136   -1.4641 C   0  0  0  0  0  0  0  0  0  0  0  0
   -2.0247    5.8685   -2.0512 F   0  0  0  0  0  0  0  0  0  0  0  0
   -3.7854    7.2183   -2.4142 F   0  0  0  0  0  0  0  0  0  0  0  0
   -2.6553    7.3365   -0.4509 F   0  0  0  0  0  0  0  0  0  0  0  0
   -8.0186   -1.8344    5.0697 C   0  0  0  0  0  0  0  0  0  0  0  0
  1  2  1  0
  2  3  1  0
  3  4  1  0
  4  5  1  0
  4  6  1  0
  6  7  1  0
  7  8  2  0
  8  9  1  0
  9 10  2  0
 10 11  1  0
 11 12  2  0
 10 13  1  0
 13 14  2  0
 13 15  1  0
 15 16  1  0
 16 17  1  0
 17 18  1  0
 18 19  2  0
 18 20  1  0
  6 21  1  0
 21 22  1  0
 22 23  2  0
 23 24  1  0
 24 25  2  0
 25 26  1  0
 26 27  2  0
 25 28  1  0
 28 29  1  0
 29 30  2  0
 30 31  1  0
 31 32  2  0
 30 33  1  0
 33 34  1  0
 33 35  1  0
 33 36  1  0
  2 37  1  0
  5  2  1  0
 12  7  1  0
 27 22  1  0
 32 28  1  0
M  END
$$$$
