
     RDKit          3D

 26 30  0  0  0  0  0  0  0  0999 V2000
   -3.6721    2.1806    7.0646 O   0  0  0  0  0  0  0  0  0  0  0  0
   -3.2593    3.0190    6.2220 C   0  0  0  0  0  0  0  0  0  0  0  0
   -4.2358    4.0454    5.7503 C   0  0  0  0  0  0  0  0  0  0  0  0
   -3.7852    4.7183    4.5283 C   0  0  0  0  0  0  0  0  0  0  0  0
   -3.8473    4.3753    3.1789 C   0  0  0  0  0  0  0  0  0  0  0  0
   -3.3503    5.1887    2.2826 C   0  0  0  0  0  0  0  0  0  0  0  0
   -2.7594    6.3936    2.6576 C   0  0  0  0  0  0  0  0  0  0  0  0
   -2.9574    6.3066    4.4508 S   0  0  0  0  0  0  0  0  0  0  0  0
   -5.5301    3.3149    5.5356 C   0  0  0  0  0  0  0  0  0  0  0  0
   -5.8988    2.0735    5.7948 C   0  0  0  0  0  0  0  0  0  0  0  0
   -7.1372    1.6390    5.5106 C   0  0  0  0  0  0  0  0  0  0  0  0
   -8.0257    2.5179    4.9386 C   0  0  0  0  0  0  0  0  0  0  0  0
   -7.0149    4.0194    4.8159 S   0  0  0  0  0  0  0  0  0  0  0  0
   -4.4860    4.9606    6.7765 O   0  0  0  0  0  0  0  0  0  0  0  0
   -1.9677    2.9411    5.7976 O   0  0  0  0  0  0  0  0  0  0  0  0
   -1.0344    1.9457    6.2440 C   0  0  2  0  0  0  0  0  0  0  0  0
   -0.0752    1.6968    5.1365 C   0  0  0  0  0  0  0  0  0  0  0  0
    0.0433    0.2625    4.7067 C   0  0  2  0  0  0  0  0  0  0  0  0
   -1.2161   -0.1866    3.9751 C   0  0  2  0  0  0  0  0  0  0  0  0
   -2.0807   -0.8570    5.0516 C   0  0  2  0  0  0  0  0  0  0  0  0
   -1.2907   -0.5641    6.2860 C   0  0  2  0  0  0  0  0  0  0  0  0
   -1.7071    0.7602    6.8215 C   0  0  0  0  0  0  0  0  0  0  0  0
    0.0885   -0.6057    5.8503 N   0  0  0  0  0  4  0  0  0  0  0  0
    0.3680   -1.9837    5.4685 C   0  0  0  0  0  0  0  0  0  0  0  0
    1.0171   -0.2408    6.8658 C   0  0  0  0  0  0  0  0  0  0  0  0
   -1.5468   -1.5179    3.9798 O   0  0  0  0  0  0  0  0  0  0  0  0
  1  2  2  0
  2  3  1  0
  3  4  1  0
  4  5  2  0
  5  6  1  0
  6  7  2  0
  7  8  1  0
  3  9  1  0
  9 10  2  0
 10 11  1  0
 11 12  2  0
 12 13  1  0
  3 14  1  0
  2 15  1  0
 16 15  1  6
 16 17  1  0
 18 17  1  1
 18 19  1  0
 19 20  1  0
 20 21  1  0
 21 22  1  6
 21 23  1  0
 23 24  1  0
 23 25  1  0
 20 26  1  6
  8  4  1  0
 13  9  1  0
 22 16  1  0
 23 18  1  0
 19 26  1  6
M  CHG  1  23   1
M  END
$$$$
