
     RDKit          3D

 26 30  0  0  0  0  0  0  0  0999 V2000
   -5.0568    0.6120    4.6784 O   0  0  0  0  0  0  0  0  0  0  0  0
   -4.4701    1.7060    4.8841 C   0  0  0  0  0  0  0  0  0  0  0  0
   -5.2956    2.9470    4.7944 C   0  0  0  0  0  0  0  0  0  0  0  0
   -5.4807    3.5847    6.1014 C   0  0  0  0  0  0  0  0  0  0  0  0
   -5.7805    3.0839    7.3669 C   0  0  0  0  0  0  0  0  0  0  0  0
   -5.8896    3.9076    8.3778 C   0  0  0  0  0  0  0  0  0  0  0  0
   -5.7101    5.2787    8.2076 C   0  0  0  0  0  0  0  0  0  0  0  0
   -5.3588    5.3416    6.4370 S   0  0  0  0  0  0  0  0  0  0  0  0
   -4.5780    3.8508    3.8336 C   0  0  0  0  0  0  0  0  0  0  0  0
   -3.3025    4.1671    3.7011 C   0  0  0  0  0  0  0  0  0  0  0  0
   -2.8887    5.0139    2.7447 C   0  0  0  0  0  0  0  0  0  0  0  0
   -3.8255    5.5528    1.8954 C   0  0  0  0  0  0  0  0  0  0  0  0
   -5.3515    4.7954    2.5191 S   0  0  0  0  0  0  0  0  0  0  0  0
   -6.5208    2.6522    4.1902 O   0  0  0  0  0  0  0  0  0  0  0  0
   -3.1391    1.6926    5.1714 O   0  0  0  0  0  0  0  0  0  0  0  0
   -2.3214    0.5131    5.1348 C   0  0  2  0  0  0  0  0  0  0  0  0
   -2.0970    0.0752    6.5371 C   0  0  0  0  0  0  0  0  0  0  0  0
   -0.6566   -0.0801    6.9333 C   0  0  2  0  0  0  0  0  0  0  0  0
    0.0210    1.2806    7.0458 C   0  0  2  0  0  0  0  0  0  0  0  0
    0.6943    1.5006    5.6842 C   0  0  2  0  0  0  0  0  0  0  0  0
    0.1850    0.3264    4.9125 C   0  0  2  0  0  0  0  0  0  0  0  0
   -1.1179    0.6869    4.2907 C   0  0  0  0  0  0  0  0  0  0  0  0
    0.0862   -0.7340    5.8921 N   0  0  0  0  0  4  0  0  0  0  0  0
    1.4454   -1.0445    6.3150 C   0  0  0  0  0  0  0  0  0  0  0  0
   -0.4917   -1.9299    5.3795 C   0  0  0  0  0  0  0  0  0  0  0  0
    1.3777    1.3633    6.8609 O   0  0  0  0  0  0  0  0  0  0  0  0
  1  2  2  0
  2  3  1  0
  3  4  1  0
  4  5  2  0
  5  6  1  0
  6  7  2  0
  7  8  1  0
  3  9  1  0
  9 10  2  0
 10 11  1  0
 11 12  2  0
 12 13  1  0
  3 14  1  0
  2 15  1  0
 16 15  1  1
 16 17  1  0
 18 17  1  6
 18 19  1  0
 19 20  1  0
 20 21  1  0
 21 22  1  1
 21 23  1  0
 23 24  1  0
 23 25  1  0
 20 26  1  1
  8  4  1  0
 13  9  1  0
 22 16  1  0
 23 18  1  0
 19 26  1  1
M  CHG  1  23   1
M  END
$$$$
