
     RDKit          3D

 26 30  0  0  0  0  0  0  0  0999 V2000
   -3.2043    2.7140    5.8517 O   0  0  0  0  0  0  0  0  0  0  0  0
   -4.2073    2.1573    5.3346 C   0  0  0  0  0  0  0  0  0  0  0  0
   -5.3396    3.0410    4.9264 C   0  0  0  0  0  0  0  0  0  0  0  0
   -5.8692    3.8178    6.0513 C   0  0  0  0  0  0  0  0  0  0  0  0
   -5.2855    4.7191    6.9397 C   0  0  0  0  0  0  0  0  0  0  0  0
   -6.0186    5.2748    7.8701 C   0  0  0  0  0  0  0  0  0  0  0  0
   -7.3751    4.9787    7.9859 C   0  0  0  0  0  0  0  0  0  0  0  0
   -7.5667    3.8032    6.6280 S   0  0  0  0  0  0  0  0  0  0  0  0
   -4.7986    3.9309    3.8446 C   0  0  0  0  0  0  0  0  0  0  0  0
   -3.9401    3.7113    2.8653 C   0  0  0  0  0  0  0  0  0  0  0  0
   -3.6045    4.6816    2.0000 C   0  0  0  0  0  0  0  0  0  0  0  0
   -4.1759    5.9225    2.1518 C   0  0  0  0  0  0  0  0  0  0  0  0
   -5.2322    5.6548    3.6023 S   0  0  0  0  0  0  0  0  0  0  0  0
   -6.3373    2.2738    4.3189 O   0  0  0  0  0  0  0  0  0  0  0  0
   -4.2001    0.8043    5.1809 O   0  0  0  0  0  0  0  0  0  0  0  0
   -3.0095    0.0020    5.1847 C   0  0  2  0  0  0  0  0  0  0  0  0
   -2.5730   -0.1519    6.5969 C   0  0  0  0  0  0  0  0  0  0  0  0
   -1.1587    0.2698    6.8761 C   0  0  2  0  0  0  0  0  0  0  0  0
   -1.0229    1.7859    6.7968 C   0  0  2  0  0  0  0  0  0  0  0  0
   -0.5435    2.0655    5.3658 C   0  0  2  0  0  0  0  0  0  0  0  0
   -0.6231    0.7021    4.7587 C   0  0  2  0  0  0  0  0  0  0  0  0
   -1.9957    0.4923    4.2239 C   0  0  0  0  0  0  0  0  0  0  0  0
   -0.2788   -0.1953    5.8403 N   0  0  0  0  0  4  0  0  0  0  0  0
    1.1182    0.0569    6.1681 C   0  0  0  0  0  0  0  0  0  0  0  0
   -0.4017   -1.5718    5.4983 C   0  0  0  0  0  0  0  0  0  0  0  0
    0.1983    2.3270    6.4847 O   0  0  0  0  0  0  0  0  0  0  0  0
  1  2  2  0
  2  3  1  0
  3  4  1  0
  4  5  2  0
  5  6  1  0
  6  7  2  0
  7  8  1  0
  3  9  1  0
  9 10  2  0
 10 11  1  0
 11 12  2  0
 12 13  1  0
  3 14  1  0
  2 15  1  0
 16 15  1  1
 16 17  1  0
 18 17  1  6
 18 19  1  0
 19 20  1  0
 20 21  1  0
 21 22  1  1
 21 23  1  0
 23 24  1  0
 23 25  1  0
 20 26  1  1
  8  4  1  0
 13  9  1  0
 22 16  1  0
 23 18  1  0
 19 26  1  1
M  CHG  1  23   1
M  END
$$$$
