
     RDKit          3D

 26 30  0  0  0  0  0  0  0  0999 V2000
   -4.4956    1.1665    6.2841 O   0  0  0  0  0  0  0  0  0  0  0  0
   -3.8191    2.0467    5.6918 C   0  0  0  0  0  0  0  0  0  0  0  0
   -4.3205    3.4513    5.7632 C   0  0  0  0  0  0  0  0  0  0  0  0
   -3.5085    4.3708    4.9605 C   0  0  0  0  0  0  0  0  0  0  0  0
   -2.8481    5.5610    5.2599 C   0  0  0  0  0  0  0  0  0  0  0  0
   -2.1839    6.1845    4.3207 C   0  0  0  0  0  0  0  0  0  0  0  0
   -2.1270    5.6758    3.0248 C   0  0  0  0  0  0  0  0  0  0  0  0
   -3.1223    4.1812    3.2201 S   0  0  0  0  0  0  0  0  0  0  0  0
   -5.7429    3.4060    5.2841 C   0  0  0  0  0  0  0  0  0  0  0  0
   -6.6428    2.4393    5.2744 C   0  0  0  0  0  0  0  0  0  0  0  0
   -7.8778    2.6396    4.7869 C   0  0  0  0  0  0  0  0  0  0  0  0
   -8.1942    3.8823    4.2919 C   0  0  0  0  0  0  0  0  0  0  0  0
   -6.6374    4.7771    4.5502 S   0  0  0  0  0  0  0  0  0  0  0  0
   -4.3860    3.8582    7.0986 O   0  0  0  0  0  0  0  0  0  0  0  0
   -2.6886    1.6715    5.0318 O   0  0  0  0  0  0  0  0  0  0  0  0
   -2.0980    0.3664    5.1285 C   0  0  2  0  0  0  0  0  0  0  0  0
   -1.4650    0.2551    6.4684 C   0  0  0  0  0  0  0  0  0  0  0  0
   -0.0105   -0.1192    6.4569 C   0  0  2  0  0  0  0  0  0  0  0  0
    0.8388    1.0352    5.9382 C   0  0  2  0  0  0  0  0  0  0  0  0
    1.0254    0.7476    4.4421 C   0  0  2  0  0  0  0  0  0  0  0  0
    0.1304   -0.4350    4.2574 C   0  0  2  0  0  0  0  0  0  0  0  0
   -1.2467    0.0446    3.9610 C   0  0  0  0  0  0  0  0  0  0  0  0
    0.2347   -1.1646    5.5026 N   0  0  0  0  0  4  0  0  0  0  0  0
    1.6023   -1.6598    5.5871 C   0  0  0  0  0  0  0  0  0  0  0  0
   -0.6378   -2.2870    5.5790 C   0  0  0  0  0  0  0  0  0  0  0  0
    2.0472    0.7581    5.3511 O   0  0  0  0  0  0  0  0  0  0  0  0
  1  2  2  0
  2  3  1  0
  3  4  1  0
  4  5  2  0
  5  6  1  0
  6  7  2  0
  7  8  1  0
  3  9  1  0
  9 10  2  0
 10 11  1  0
 11 12  2  0
 12 13  1  0
  3 14  1  0
  2 15  1  0
 16 15  1  6
 16 17  1  0
 18 17  1  6
 18 19  1  0
 19 20  1  0
 20 21  1  0
 21 22  1  1
 21 23  1  0
 23 24  1  0
 23 25  1  0
 20 26  1  1
  8  4  1  0
 13  9  1  0
 22 16  1  0
 23 18  1  0
 19 26  1  1
M  CHG  1  23   1
M  END
$$$$
