
     RDKit          3D

 26 30  0  0  0  0  0  0  0  0999 V2000
   -5.5182    0.7361    4.4425 O   0  0  0  0  0  0  0  0  0  0  0  0
   -4.9607    1.7160    5.0013 C   0  0  0  0  0  0  0  0  0  0  0  0
   -5.6597    3.0329    4.9189 C   0  0  0  0  0  0  0  0  0  0  0  0
   -5.6814    3.7300    6.2085 C   0  0  0  0  0  0  0  0  0  0  0  0
   -4.7113    3.9484    7.1848 C   0  0  0  0  0  0  0  0  0  0  0  0
   -5.0211    4.6212    8.2635 C   0  0  0  0  0  0  0  0  0  0  0  0
   -6.3075    5.1228    8.4504 C   0  0  0  0  0  0  0  0  0  0  0  0
   -7.0994    4.5574    6.9288 S   0  0  0  0  0  0  0  0  0  0  0  0
   -4.9268    3.8238    3.8739 C   0  0  0  0  0  0  0  0  0  0  0  0
   -5.2915    4.2723    2.6863 C   0  0  0  0  0  0  0  0  0  0  0  0
   -4.4458    4.9743    1.9149 C   0  0  0  0  0  0  0  0  0  0  0  0
   -3.1788    5.2216    2.3871 C   0  0  0  0  0  0  0  0  0  0  0  0
   -3.2334    4.4017    4.0045 S   0  0  0  0  0  0  0  0  0  0  0  0
   -6.9499    2.8479    4.4149 O   0  0  0  0  0  0  0  0  0  0  0  0
   -3.7727    1.5198    5.6373 O   0  0  0  0  0  0  0  0  0  0  0  0
   -2.9485    0.3580    5.4587 C   0  0  2  0  0  0  0  0  0  0  0  0
   -2.2495    0.0980    6.7442 C   0  0  0  0  0  0  0  0  0  0  0  0
   -0.7528    0.0154    6.6502 C   0  0  2  0  0  0  0  0  0  0  0  0
   -0.1532    1.3903    6.3798 C   0  0  2  0  0  0  0  0  0  0  0  0
    0.0194    1.4536    4.8560 C   0  0  2  0  0  0  0  0  0  0  0  0
   -0.6497    0.1860    4.4326 C   0  0  2  0  0  0  0  0  0  0  0  0
   -2.1028    0.4470    4.2470 C   0  0  0  0  0  0  0  0  0  0  0  0
   -0.3601   -0.7485    5.4987 N   0  0  0  0  0  4  0  0  0  0  0  0
    1.0776   -0.9832    5.4739 C   0  0  0  0  0  0  0  0  0  0  0  0
   -1.0071   -2.0071    5.3432 C   0  0  0  0  0  0  0  0  0  0  0  0
    1.0595    1.4718    5.7439 O   0  0  0  0  0  0  0  0  0  0  0  0
  1  2  2  0
  2  3  1  0
  3  4  1  0
  4  5  2  0
  5  6  1  0
  6  7  2  0
  7  8  1  0
  3  9  1  0
  9 10  2  0
 10 11  1  0
 11 12  2  0
 12 13  1  0
  3 14  1  0
  2 15  1  0
 16 15  1  1
 16 17  1  0
 18 17  1  6
 18 19  1  0
 19 20  1  0
 20 21  1  0
 21 22  1  1
 21 23  1  0
 23 24  1  0
 23 25  1  0
 20 26  1  1
  8  4  1  0
 13  9  1  0
 22 16  1  0
 23 18  1  0
 19 26  1  1
M  CHG  1  23   1
M  END
$$$$
