
     RDKit          3D

 26 30  0  0  0  0  0  0  0  0999 V2000
   -5.1592    0.7615    4.7482 O   0  0  0  0  0  0  0  0  0  0  0  0
   -4.5672    1.8495    4.9700 C   0  0  0  0  0  0  0  0  0  0  0  0
   -5.3558    3.1031    4.7800 C   0  0  0  0  0  0  0  0  0  0  0  0
   -5.5636    3.8230    6.0402 C   0  0  0  0  0  0  0  0  0  0  0  0
   -6.3176    4.9452    6.3780 C   0  0  0  0  0  0  0  0  0  0  0  0
   -6.3140    5.3774    7.6130 C   0  0  0  0  0  0  0  0  0  0  0  0
   -5.5668    4.7317    8.5960 C   0  0  0  0  0  0  0  0  0  0  0  0
   -4.8276    3.4036    7.6203 S   0  0  0  0  0  0  0  0  0  0  0  0
   -4.5851    3.9290    3.7908 C   0  0  0  0  0  0  0  0  0  0  0  0
   -3.3282    3.8818    3.3877 C   0  0  0  0  0  0  0  0  0  0  0  0
   -2.8562    4.7414    2.4705 C   0  0  0  0  0  0  0  0  0  0  0  0
   -3.7127    5.6828    1.9515 C   0  0  0  0  0  0  0  0  0  0  0  0
   -5.2492    5.2938    2.8342 S   0  0  0  0  0  0  0  0  0  0  0  0
   -6.5694    2.8031    4.1554 O   0  0  0  0  0  0  0  0  0  0  0  0
   -3.2639    1.8187    5.3634 O   0  0  0  0  0  0  0  0  0  0  0  0
   -2.3882    0.7003    5.1547 C   0  0  2  0  0  0  0  0  0  0  0  0
   -2.1319    0.0741    6.4778 C   0  0  0  0  0  0  0  0  0  0  0  0
   -0.6826   -0.0640    6.8472 C   0  0  2  0  0  0  0  0  0  0  0  0
   -0.0736    1.2982    7.1578 C   0  0  2  0  0  0  0  0  0  0  0  0
    0.5780    1.7490    5.8433 C   0  0  2  0  0  0  0  0  0  0  0  0
    0.1228    0.6759    4.9079 C   0  0  2  0  0  0  0  0  0  0  0  0
   -1.2010    1.0568    4.3453 C   0  0  0  0  0  0  0  0  0  0  0  0
    0.0846   -0.5200    5.7216 N   0  0  0  0  0  4  0  0  0  0  0  0
    1.4608   -0.8195    6.0948 C   0  0  0  0  0  0  0  0  0  0  0  0
   -0.4361   -1.6559    5.0393 C   0  0  0  0  0  0  0  0  0  0  0  0
    1.2759    1.4760    6.9874 O   0  0  0  0  0  0  0  0  0  0  0  0
  1  2  2  0
  2  3  1  0
  3  4  1  0
  4  5  2  0
  5  6  1  0
  6  7  2  0
  7  8  1  0
  3  9  1  0
  9 10  2  0
 10 11  1  0
 11 12  2  0
 12 13  1  0
  3 14  1  0
  2 15  1  0
 16 15  1  1
 16 17  1  0
 18 17  1  6
 18 19  1  0
 19 20  1  0
 20 21  1  0
 21 22  1  1
 21 23  1  0
 23 24  1  0
 23 25  1  0
 20 26  1  1
  8  4  1  0
 13  9  1  0
 22 16  1  0
 23 18  1  0
 19 26  1  1
M  CHG  1  23   1
M  END
$$$$
