
     RDKit          3D

 26 30  0  0  0  0  0  0  0  0999 V2000
   -5.1579    0.6894    3.8398 O   0  0  0  0  0  0  0  0  0  0  0  0
   -4.7782    1.6798    4.5168 C   0  0  0  0  0  0  0  0  0  0  0  0
   -5.5428    2.9513    4.3482 C   0  0  0  0  0  0  0  0  0  0  0  0
   -5.8659    3.5778    5.6336 C   0  0  0  0  0  0  0  0  0  0  0  0
   -6.7888    3.2722    6.6321 C   0  0  0  0  0  0  0  0  0  0  0  0
   -6.8597    4.0271    7.6985 C   0  0  0  0  0  0  0  0  0  0  0  0
   -6.0254    5.1326    7.8507 C   0  0  0  0  0  0  0  0  0  0  0  0
   -5.0815    5.0395    6.3135 S   0  0  0  0  0  0  0  0  0  0  0  0
   -4.6810    3.8409    3.4993 C   0  0  0  0  0  0  0  0  0  0  0  0
   -3.4726    3.6790    2.9913 C   0  0  0  0  0  0  0  0  0  0  0  0
   -2.8950    4.6341    2.2449 C   0  0  0  0  0  0  0  0  0  0  0  0
   -3.5902    5.7974    2.0153 C   0  0  0  0  0  0  0  0  0  0  0  0
   -5.1304    5.4781    2.9192 S   0  0  0  0  0  0  0  0  0  0  0  0
   -6.6933    2.7095    3.5926 O   0  0  0  0  0  0  0  0  0  0  0  0
   -3.7101    1.5349    5.3489 O   0  0  0  0  0  0  0  0  0  0  0  0
   -2.7702    0.4527    5.2682 C   0  0  2  0  0  0  0  0  0  0  0  0
   -2.3863    0.0834    6.6556 C   0  0  0  0  0  0  0  0  0  0  0  0
   -0.9104    0.1002    6.9341 C   0  0  2  0  0  0  0  0  0  0  0  0
   -0.3838    1.5303    6.9629 C   0  0  2  0  0  0  0  0  0  0  0  0
    0.1492    1.7839    5.5461 C   0  0  2  0  0  0  0  0  0  0  0  0
   -0.2846    0.5384    4.8428 C   0  0  2  0  0  0  0  0  0  0  0  0
   -1.6654    0.7342    4.3240 C   0  0  0  0  0  0  0  0  0  0  0  0
   -0.1844   -0.4974    5.8482 N   0  0  0  0  0  4  0  0  0  0  0  0
    1.2307   -0.6429    6.1631 C   0  0  0  0  0  0  0  0  0  0  0  0
   -0.6629   -1.7643    5.4091 C   0  0  0  0  0  0  0  0  0  0  0  0
    0.9357    1.7574    6.6647 O   0  0  0  0  0  0  0  0  0  0  0  0
  1  2  2  0
  2  3  1  0
  3  4  1  0
  4  5  2  0
  5  6  1  0
  6  7  2  0
  7  8  1  0
  3  9  1  0
  9 10  2  0
 10 11  1  0
 11 12  2  0
 12 13  1  0
  3 14  1  0
  2 15  1  0
 16 15  1  1
 16 17  1  0
 18 17  1  6
 18 19  1  0
 19 20  1  0
 20 21  1  0
 21 22  1  1
 21 23  1  0
 23 24  1  0
 23 25  1  0
 20 26  1  1
  8  4  1  0
 13  9  1  0
 22 16  1  0
 23 18  1  0
 19 26  1  1
M  CHG  1  23   1
M  END
$$$$
