
     RDKit          3D

 26 30  0  0  0  0  0  0  0  0999 V2000
   -2.8056    2.6638    5.2669 O   0  0  0  0  0  0  0  0  0  0  0  0
   -3.7932    1.9194    5.0352 C   0  0  0  0  0  0  0  0  0  0  0  0
   -5.0346    2.5759    4.5278 C   0  0  0  0  0  0  0  0  0  0  0  0
   -5.7277    3.3337    5.5741 C   0  0  0  0  0  0  0  0  0  0  0  0
   -5.7029    3.2690    6.9660 C   0  0  0  0  0  0  0  0  0  0  0  0
   -6.4456    4.0899    7.6636 C   0  0  0  0  0  0  0  0  0  0  0  0
   -7.2613    5.0284    7.0349 C   0  0  0  0  0  0  0  0  0  0  0  0
   -6.8987    4.6640    5.3034 S   0  0  0  0  0  0  0  0  0  0  0  0
   -4.5990    3.4633    3.3974 C   0  0  0  0  0  0  0  0  0  0  0  0
   -4.5536    3.2741    2.0911 C   0  0  0  0  0  0  0  0  0  0  0  0
   -4.1200    4.2360    1.2607 C   0  0  0  0  0  0  0  0  0  0  0  0
   -3.7190    5.4356    1.7988 C   0  0  0  0  0  0  0  0  0  0  0  0
   -3.9866    5.1409    3.5688 S   0  0  0  0  0  0  0  0  0  0  0  0
   -5.8707    1.6156    3.9517 O   0  0  0  0  0  0  0  0  0  0  0  0
   -3.6726    0.5814    5.2577 O   0  0  0  0  0  0  0  0  0  0  0  0
   -2.4901   -0.1781    4.9641 C   0  0  2  0  0  0  0  0  0  0  0  0
   -2.1358   -0.9514    6.1827 C   0  0  0  0  0  0  0  0  0  0  0  0
   -0.7366   -0.7407    6.6865 C   0  0  2  0  0  0  0  0  0  0  0  0
   -0.5852    0.6504    7.2905 C   0  0  2  0  0  0  0  0  0  0  0  0
   -0.0232    1.5158    6.1543 C   0  0  2  0  0  0  0  0  0  0  0  0
   -0.0783    0.5619    5.0051 C   0  0  2  0  0  0  0  0  0  0  0  0
   -1.4197    0.6524    4.3677 C   0  0  0  0  0  0  0  0  0  0  0  0
    0.1973   -0.7303    5.5950 N   0  0  0  0  0  4  0  0  0  0  0  0
    1.5752   -0.6926    6.0668 C   0  0  0  0  0  0  0  0  0  0  0  0
    0.0838   -1.8112    4.6754 C   0  0  0  0  0  0  0  0  0  0  0  0
    0.6557    1.2347    7.3078 O   0  0  0  0  0  0  0  0  0  0  0  0
  1  2  2  0
  2  3  1  0
  3  4  1  0
  4  5  2  0
  5  6  1  0
  6  7  2  0
  7  8  1  0
  3  9  1  0
  9 10  2  0
 10 11  1  0
 11 12  2  0
 12 13  1  0
  3 14  1  0
  2 15  1  0
 16 15  1  1
 16 17  1  0
 18 17  1  6
 18 19  1  0
 19 20  1  0
 20 21  1  0
 21 22  1  1
 21 23  1  0
 23 24  1  0
 23 25  1  0
 20 26  1  1
  8  4  1  0
 13  9  1  0
 22 16  1  0
 23 18  1  0
 19 26  1  1
M  CHG  1  23   1
M  END
$$$$
