
     RDKit          3D

 26 30  0  0  0  0  0  0  0  0999 V2000
   -3.5787    2.8226    6.6947 O   0  0  0  0  0  0  0  0  0  0  0  0
   -4.0099    2.3391    5.6159 C   0  0  0  0  0  0  0  0  0  0  0  0
   -5.1383    3.0578    4.9525 C   0  0  0  0  0  0  0  0  0  0  0  0
   -5.9724    3.7858    5.9135 C   0  0  0  0  0  0  0  0  0  0  0  0
   -7.2700    3.5896    6.3825 C   0  0  0  0  0  0  0  0  0  0  0  0
   -7.7712    4.4197    7.2610 C   0  0  0  0  0  0  0  0  0  0  0  0
   -7.0263    5.4976    7.7348 C   0  0  0  0  0  0  0  0  0  0  0  0
   -5.4899    5.2579    6.8159 S   0  0  0  0  0  0  0  0  0  0  0  0
   -4.5065    3.9842    3.9538 C   0  0  0  0  0  0  0  0  0  0  0  0
   -4.7433    5.2462    3.6445 C   0  0  0  0  0  0  0  0  0  0  0  0
   -4.0311    5.8787    2.6981 C   0  0  0  0  0  0  0  0  0  0  0  0
   -3.0396    5.1830    2.0483 C   0  0  0  0  0  0  0  0  0  0  0  0
   -3.1581    3.5595    2.8492 S   0  0  0  0  0  0  0  0  0  0  0  0
   -5.8931    2.1527    4.2014 O   0  0  0  0  0  0  0  0  0  0  0  0
   -3.4312    1.2080    5.1263 O   0  0  0  0  0  0  0  0  0  0  0  0
   -2.4493    0.4368    5.8352 C   0  0  2  0  0  0  0  0  0  0  0  0
   -1.5180    1.3883    6.4953 C   0  0  0  0  0  0  0  0  0  0  0  0
   -0.0658    1.1896    6.1672 C   0  0  2  0  0  0  0  0  0  0  0  0
    0.2232    1.6039    4.7292 C   0  0  2  0  0  0  0  0  0  0  0  0
    0.1350    0.3039    3.9180 C   0  0  2  0  0  0  0  0  0  0  0  0
   -0.3522   -0.6558    4.9550 C   0  0  2  0  0  0  0  0  0  0  0  0
   -1.8391   -0.6139    4.9895 C   0  0  0  0  0  0  0  0  0  0  0  0
    0.2692   -0.2072    6.1823 N   0  0  0  0  0  4  0  0  0  0  0  0
    1.7027   -0.4180    6.0300 C   0  0  0  0  0  0  0  0  0  0  0  0
   -0.1552   -0.9312    7.3323 C   0  0  0  0  0  0  0  0  0  0  0  0
    1.2832    1.0305    4.0740 O   0  0  0  0  0  0  0  0  0  0  0  0
  1  2  2  0
  2  3  1  0
  3  4  1  0
  4  5  2  0
  5  6  1  0
  6  7  2  0
  7  8  1  0
  3  9  1  0
  9 10  2  0
 10 11  1  0
 11 12  2  0
 12 13  1  0
  3 14  1  0
  2 15  1  0
 16 15  1  6
 16 17  1  0
 18 17  1  6
 18 19  1  0
 19 20  1  0
 20 21  1  0
 21 22  1  1
 21 23  1  0
 23 24  1  0
 23 25  1  0
 20 26  1  1
  8  4  1  0
 13  9  1  0
 22 16  1  0
 23 18  1  0
 19 26  1  1
M  CHG  1  23   1
M  END
$$$$
