
     RDKit          3D

 26 30  0  0  0  0  0  0  0  0999 V2000
   -5.0579    0.7581    7.7671 O   0  0  0  0  0  0  0  0  0  0  0  0
   -4.5491    1.8192    7.3215 C   0  0  0  0  0  0  0  0  0  0  0  0
   -5.2916    3.0889    7.5790 C   0  0  0  0  0  0  0  0  0  0  0  0
   -4.5006    4.0441    8.3607 C   0  0  0  0  0  0  0  0  0  0  0  0
   -3.7021    5.1295    8.0049 C   0  0  0  0  0  0  0  0  0  0  0  0
   -3.0987    5.8203    8.9381 C   0  0  0  0  0  0  0  0  0  0  0  0
   -3.2428    5.4865   10.2832 C   0  0  0  0  0  0  0  0  0  0  0  0
   -4.3419    4.0598   10.1464 S   0  0  0  0  0  0  0  0  0  0  0  0
   -5.6478    3.6392    6.2280 C   0  0  0  0  0  0  0  0  0  0  0  0
   -6.7703    3.6185    5.5322 C   0  0  0  0  0  0  0  0  0  0  0  0
   -6.8519    4.1924    4.3210 C   0  0  0  0  0  0  0  0  0  0  0  0
   -5.7346    4.8094    3.8108 C   0  0  0  0  0  0  0  0  0  0  0  0
   -4.5356    4.5386    5.1451 S   0  0  0  0  0  0  0  0  0  0  0  0
   -6.5094    2.8016    8.2014 O   0  0  0  0  0  0  0  0  0  0  0  0
   -3.3712    1.7470    6.6421 O   0  0  0  0  0  0  0  0  0  0  0  0
   -2.6257    0.5345    6.4538 C   0  0  2  0  0  0  0  0  0  0  0  0
   -1.4390    0.5906    7.3466 C   0  0  0  0  0  0  0  0  0  0  0  0
   -0.1164    0.3998    6.6609 C   0  0  2  0  0  0  0  0  0  0  0  0
    0.2278    1.6142    5.8066 C   0  0  2  0  0  0  0  0  0  0  0  0
   -0.2561    1.2547    4.3952 C   0  0  2  0  0  0  0  0  0  0  0  0
   -0.9599   -0.0394    4.6477 C   0  0  2  0  0  0  0  0  0  0  0  0
   -2.3709    0.2451    5.0246 C   0  0  0  0  0  0  0  0  0  0  0  0
   -0.1934   -0.6673    5.7023 N   0  0  0  0  0  4  0  0  0  0  0  0
    1.1141   -0.9823    5.1421 C   0  0  0  0  0  0  0  0  0  0  0  0
   -0.7658   -1.8819    6.1755 C   0  0  0  0  0  0  0  0  0  0  0  0
    1.0564    1.4515    4.7255 O   0  0  0  0  0  0  0  0  0  0  0  0
  1  2  2  0
  2  3  1  0
  3  4  1  0
  4  5  2  0
  5  6  1  0
  6  7  2  0
  7  8  1  0
  3  9  1  0
  9 10  2  0
 10 11  1  0
 11 12  2  0
 12 13  1  0
  3 14  1  0
  2 15  1  0
 16 15  1  6
 16 17  1  0
 18 17  1  6
 18 19  1  0
 19 20  1  0
 20 21  1  0
 21 22  1  1
 21 23  1  0
 23 24  1  0
 23 25  1  0
 20 26  1  6
  8  4  1  0
 13  9  1  0
 22 16  1  0
 23 18  1  0
 19 26  1  6
M  CHG  1  23   1
M  END
$$$$
