
     RDKit          3D

 26 30  0  0  0  0  0  0  0  0999 V2000
   -5.1059    0.7434    5.8442 O   0  0  0  0  0  0  0  0  0  0  0  0
   -4.4490    1.6867    5.3323 C   0  0  0  0  0  0  0  0  0  0  0  0
   -5.2234    2.8643    4.8390 C   0  0  0  0  0  0  0  0  0  0  0  0
   -5.9604    3.5329    5.9155 C   0  0  0  0  0  0  0  0  0  0  0  0
   -5.9896    3.3548    7.2975 C   0  0  0  0  0  0  0  0  0  0  0  0
   -6.7630    4.1148    8.0299 C   0  0  0  0  0  0  0  0  0  0  0  0
   -7.5582    5.1000    7.4483 C   0  0  0  0  0  0  0  0  0  0  0  0
   -7.1265    4.8788    5.7085 S   0  0  0  0  0  0  0  0  0  0  0  0
   -4.2186    3.7812    4.2030 C   0  0  0  0  0  0  0  0  0  0  0  0
   -3.8921    3.9974    2.9416 C   0  0  0  0  0  0  0  0  0  0  0  0
   -2.9438    4.8877    2.6084 C   0  0  0  0  0  0  0  0  0  0  0  0
   -2.3104    5.5788    3.6136 C   0  0  0  0  0  0  0  0  0  0  0  0
   -3.1299    4.9024    5.0841 S   0  0  0  0  0  0  0  0  0  0  0  0
   -6.0756    2.4652    3.8058 O   0  0  0  0  0  0  0  0  0  0  0  0
   -3.0936    1.5787    5.2600 O   0  0  0  0  0  0  0  0  0  0  0  0
   -2.3862    0.3294    5.2621 C   0  0  2  0  0  0  0  0  0  0  0  0
   -1.5992    0.2579    6.5207 C   0  0  0  0  0  0  0  0  0  0  0  0
   -0.1285    0.0125    6.3394 C   0  0  2  0  0  0  0  0  0  0  0  0
    0.5550    1.2429    5.7546 C   0  0  2  0  0  0  0  0  0  0  0  0
    0.5958    0.9907    4.2412 C   0  0  2  0  0  0  0  0  0  0  0  0
   -0.2098   -0.2635    4.1316 C   0  0  2  0  0  0  0  0  0  0  0  0
   -1.6474    0.0973    4.0005 C   0  0  0  0  0  0  0  0  0  0  0  0
    0.0962   -0.9960    5.3413 N   0  0  0  0  0  4  0  0  0  0  0  0
    1.5020   -1.3705    5.2625 C   0  0  0  0  0  0  0  0  0  0  0  0
   -0.6627   -2.1913    5.4899 C   0  0  0  0  0  0  0  0  0  0  0  0
    1.7088    1.0797    5.0310 O   0  0  0  0  0  0  0  0  0  0  0  0
  1  2  2  0
  2  3  1  0
  3  4  1  0
  4  5  2  0
  5  6  1  0
  6  7  2  0
  7  8  1  0
  3  9  1  0
  9 10  2  0
 10 11  1  0
 11 12  2  0
 12 13  1  0
  3 14  1  0
  2 15  1  0
 16 15  1  6
 16 17  1  0
 18 17  1  6
 18 19  1  0
 19 20  1  0
 20 21  1  0
 21 22  1  1
 21 23  1  0
 23 24  1  0
 23 25  1  0
 20 26  1  1
  8  4  1  0
 13  9  1  0
 22 16  1  0
 23 18  1  0
 19 26  1  1
M  CHG  1  23   1
M  END
$$$$
