
     RDKit          3D

 26 30  0  0  0  0  0  0  0  0999 V2000
   -4.9381    1.3842    5.7333 O   0  0  0  0  0  0  0  0  0  0  0  0
   -4.5745    2.1401    4.7954 C   0  0  0  0  0  0  0  0  0  0  0  0
   -5.3257    3.4191    4.6236 C   0  0  0  0  0  0  0  0  0  0  0  0
   -5.4643    4.1537    5.8847 C   0  0  0  0  0  0  0  0  0  0  0  0
   -4.5513    4.8235    6.6972 C   0  0  0  0  0  0  0  0  0  0  0  0
   -4.9674    5.4028    7.7942 C   0  0  0  0  0  0  0  0  0  0  0  0
   -6.3105    5.3599    8.1622 C   0  0  0  0  0  0  0  0  0  0  0  0
   -6.9908    4.3996    6.7920 S   0  0  0  0  0  0  0  0  0  0  0  0
   -4.5622    4.2115    3.6018 C   0  0  0  0  0  0  0  0  0  0  0  0
   -3.4498    4.9190    3.6816 C   0  0  0  0  0  0  0  0  0  0  0  0
   -2.9460    5.5515    2.6096 C   0  0  0  0  0  0  0  0  0  0  0  0
   -3.6149    5.4494    1.4132 C   0  0  0  0  0  0  0  0  0  0  0  0
   -5.0186    4.3978    1.8768 S   0  0  0  0  0  0  0  0  0  0  0  0
   -6.5701    3.1574    4.0438 O   0  0  0  0  0  0  0  0  0  0  0  0
   -3.5347    1.7526    4.0062 O   0  0  0  0  0  0  0  0  0  0  0  0
   -2.6320    0.6855    4.3339 C   0  0  2  0  0  0  0  0  0  0  0  0
   -2.6769    0.4918    5.8066 C   0  0  0  0  0  0  0  0  0  0  0  0
   -1.3469    0.5682    6.5001 C   0  0  2  0  0  0  0  0  0  0  0  0
   -0.8259    2.0005    6.5101 C   0  0  2  0  0  0  0  0  0  0  0  0
    0.1024    2.0921    5.2913 C   0  0  2  0  0  0  0  0  0  0  0  0
   -0.1294    0.7639    4.6463 C   0  0  2  0  0  0  0  0  0  0  0  0
   -1.2946    0.8715    3.7271 C   0  0  0  0  0  0  0  0  0  0  0  0
   -0.3461   -0.1422    5.7535 N   0  0  0  0  0  4  0  0  0  0  0  0
    0.9122   -0.2237    6.4833 C   0  0  0  0  0  0  0  0  0  0  0  0
   -0.6983   -1.4609    5.3488 C   0  0  0  0  0  0  0  0  0  0  0  0
    0.5271    2.2137    6.5856 O   0  0  0  0  0  0  0  0  0  0  0  0
  1  2  2  0
  2  3  1  0
  3  4  1  0
  4  5  2  0
  5  6  1  0
  6  7  2  0
  7  8  1  0
  3  9  1  0
  9 10  2  0
 10 11  1  0
 11 12  2  0
 12 13  1  0
  3 14  1  0
  2 15  1  0
 16 15  1  1
 16 17  1  0
 18 17  1  6
 18 19  1  0
 19 20  1  0
 20 21  1  0
 21 22  1  6
 21 23  1  0
 23 24  1  0
 23 25  1  0
 20 26  1  1
  8  4  1  0
 13  9  1  0
 22 16  1  0
 23 18  1  0
 19 26  1  1
M  CHG  1  23   1
M  END
$$$$
