
     RDKit          3D

 26 30  0  0  0  0  0  0  0  0999 V2000
   -5.6819    1.0019    4.7956 O   0  0  0  0  0  0  0  0  0  0  0  0
   -5.0594    2.0892    4.9121 C   0  0  0  0  0  0  0  0  0  0  0  0
   -5.8422    3.3450    4.7125 C   0  0  0  0  0  0  0  0  0  0  0  0
   -6.0210    4.0906    5.9620 C   0  0  0  0  0  0  0  0  0  0  0  0
   -5.3355    5.1606    6.5343 C   0  0  0  0  0  0  0  0  0  0  0  0
   -5.7265    5.6337    7.6898 C   0  0  0  0  0  0  0  0  0  0  0  0
   -6.8187    5.0833    8.3571 C   0  0  0  0  0  0  0  0  0  0  0  0
   -7.2886    3.7851    7.1925 S   0  0  0  0  0  0  0  0  0  0  0  0
   -5.0841    4.1456    3.6932 C   0  0  0  0  0  0  0  0  0  0  0  0
   -5.4088    4.5786    2.4884 C   0  0  0  0  0  0  0  0  0  0  0  0
   -4.5474    5.2945    1.7479 C   0  0  0  0  0  0  0  0  0  0  0  0
   -3.3069    5.5729    2.2703 C   0  0  0  0  0  0  0  0  0  0  0  0
   -3.4106    4.7618    3.8898 S   0  0  0  0  0  0  0  0  0  0  0  0
   -7.0695    3.0424    4.1164 O   0  0  0  0  0  0  0  0  0  0  0  0
   -3.7307    2.0558    5.2083 O   0  0  0  0  0  0  0  0  0  0  0  0
   -2.9298    0.8648    5.1737 C   0  0  2  0  0  0  0  0  0  0  0  0
   -2.4471    0.6047    6.5549 C   0  0  0  0  0  0  0  0  0  0  0  0
   -0.9576    0.4717    6.6947 C   0  0  2  0  0  0  0  0  0  0  0  0
   -0.2758    1.8214    6.5035 C   0  0  2  0  0  0  0  0  0  0  0  0
    0.1319    1.8523    5.0241 C   0  0  2  0  0  0  0  0  0  0  0  0
   -0.5078    0.6000    4.5179 C   0  0  2  0  0  0  0  0  0  0  0  0
   -1.9048    0.9050    4.1064 C   0  0  0  0  0  0  0  0  0  0  0  0
   -0.4189   -0.3247    5.6273 N   0  0  0  0  0  4  0  0  0  0  0  0
    0.9964   -0.6065    5.8282 C   0  0  0  0  0  0  0  0  0  0  0  0
   -1.0777   -1.5640    5.3890 C   0  0  0  0  0  0  0  0  0  0  0  0
    1.0226    1.8521    6.0620 O   0  0  0  0  0  0  0  0  0  0  0  0
  1  2  2  0
  2  3  1  0
  3  4  1  0
  4  5  2  0
  5  6  1  0
  6  7  2  0
  7  8  1  0
  3  9  1  0
  9 10  2  0
 10 11  1  0
 11 12  2  0
 12 13  1  0
  3 14  1  0
  2 15  1  0
 16 15  1  1
 16 17  1  0
 18 17  1  6
 18 19  1  0
 19 20  1  0
 20 21  1  0
 21 22  1  1
 21 23  1  0
 23 24  1  0
 23 25  1  0
 20 26  1  1
  8  4  1  0
 13  9  1  0
 22 16  1  0
 23 18  1  0
 19 26  1  1
M  CHG  1  23   1
M  END
$$$$
