
     RDKit          3D

 26 30  0  0  0  0  0  0  0  0999 V2000
   -2.4614    4.1889    4.3784 O   0  0  0  0  0  0  0  0  0  0  0  0
   -3.4304    3.7140    5.0254 C   0  0  0  0  0  0  0  0  0  0  0  0
   -4.6151    4.6012    5.2234 C   0  0  0  0  0  0  0  0  0  0  0  0
   -5.8803    3.8696    5.1078 C   0  0  0  0  0  0  0  0  0  0  0  0
   -6.8657    3.8290    4.1231 C   0  0  0  0  0  0  0  0  0  0  0  0
   -7.9159    3.0670    4.2921 C   0  0  0  0  0  0  0  0  0  0  0  0
   -8.0637    2.2952    5.4426 C   0  0  0  0  0  0  0  0  0  0  0  0
   -6.5480    2.7324    6.3223 S   0  0  0  0  0  0  0  0  0  0  0  0
   -4.4502    5.2111    6.5855 C   0  0  0  0  0  0  0  0  0  0  0  0
   -5.1763    5.1284    7.6857 C   0  0  0  0  0  0  0  0  0  0  0  0
   -4.8202    5.7744    8.8078 C   0  0  0  0  0  0  0  0  0  0  0  0
   -3.6738    6.5325    8.7926 C   0  0  0  0  0  0  0  0  0  0  0  0
   -3.1063    6.2889    7.0867 S   0  0  0  0  0  0  0  0  0  0  0  0
   -4.5566    5.6688    4.3234 O   0  0  0  0  0  0  0  0  0  0  0  0
   -3.3420    2.4403    5.4987 O   0  0  0  0  0  0  0  0  0  0  0  0
   -2.4490    1.4477    4.9709 C   0  0  2  0  0  0  0  0  0  0  0  0
   -2.4952    0.2708    5.8773 C   0  0  0  0  0  0  0  0  0  0  0  0
   -1.1642   -0.1732    6.4132 C   0  0  2  0  0  0  0  0  0  0  0  0
   -0.6301    0.8306    7.4282 C   0  0  2  0  0  0  0  0  0  0  0  0
    0.2985    1.7504    6.6236 C   0  0  2  0  0  0  0  0  0  0  0  0
    0.0543    1.2669    5.2306 C   0  0  2  0  0  0  0  0  0  0  0  0
   -1.1102    1.9995    4.6637 C   0  0  0  0  0  0  0  0  0  0  0  0
   -0.1703   -0.1551    5.3762 N   0  0  0  0  0  4  0  0  0  0  0  0
    1.0875   -0.7360    5.8268 C   0  0  0  0  0  0  0  0  0  0  0  0
   -0.5348   -0.8007    4.1608 C   0  0  0  0  0  0  0  0  0  0  0  0
    0.7248    0.9198    7.6230 O   0  0  0  0  0  0  0  0  0  0  0  0
  1  2  2  0
  2  3  1  0
  3  4  1  0
  4  5  2  0
  5  6  1  0
  6  7  2  0
  7  8  1  0
  3  9  1  0
  9 10  2  0
 10 11  1  0
 11 12  2  0
 12 13  1  0
  3 14  1  0
  2 15  1  0
 16 15  1  1
 16 17  1  0
 18 17  1  6
 18 19  1  0
 19 20  1  0
 20 21  1  0
 21 22  1  1
 21 23  1  0
 23 24  1  0
 23 25  1  0
 20 26  1  1
  8  4  1  0
 13  9  1  0
 22 16  1  0
 23 18  1  0
 19 26  1  1
M  CHG  1  23   1
M  END
$$$$
