
     RDKit          3D

 26 30  0  0  0  0  0  0  0  0999 V2000
   -5.4453    0.7444    4.6652 O   0  0  0  0  0  0  0  0  0  0  0  0
   -4.9045    1.7272    5.2353 C   0  0  0  0  0  0  0  0  0  0  0  0
   -5.5974    3.0449    5.1204 C   0  0  0  0  0  0  0  0  0  0  0  0
   -5.6761    3.7432    6.4070 C   0  0  0  0  0  0  0  0  0  0  0  0
   -4.7531    3.9536    7.4298 C   0  0  0  0  0  0  0  0  0  0  0  0
   -5.1094    4.6301    8.4917 C   0  0  0  0  0  0  0  0  0  0  0  0
   -6.3988    5.1437    8.6149 C   0  0  0  0  0  0  0  0  0  0  0  0
   -7.1201    4.5842    7.0564 S   0  0  0  0  0  0  0  0  0  0  0  0
   -4.8173    3.8339    4.1086 C   0  0  0  0  0  0  0  0  0  0  0  0
   -5.0589    4.1374    2.8461 C   0  0  0  0  0  0  0  0  0  0  0  0
   -4.1964    4.8743    2.1276 C   0  0  0  0  0  0  0  0  0  0  0  0
   -3.0439    5.3129    2.7348 C   0  0  0  0  0  0  0  0  0  0  0  0
   -3.2339    4.6246    4.4025 S   0  0  0  0  0  0  0  0  0  0  0  0
   -6.8639    2.8609    4.5591 O   0  0  0  0  0  0  0  0  0  0  0  0
   -3.7387    1.5332    5.9117 O   0  0  0  0  0  0  0  0  0  0  0  0
   -2.8657    0.4127    5.7025 C   0  0  2  0  0  0  0  0  0  0  0  0
   -1.8661    0.4074    6.8022 C   0  0  0  0  0  0  0  0  0  0  0  0
   -0.4311    0.4065    6.3587 C   0  0  2  0  0  0  0  0  0  0  0  0
   -0.0514    1.7557    5.7600 C   0  0  2  0  0  0  0  0  0  0  0  0
   -0.2429    1.5848    4.2468 C   0  0  2  0  0  0  0  0  0  0  0  0
   -0.8611    0.2256    4.1817 C   0  0  2  0  0  0  0  0  0  0  0  0
   -2.3364    0.3602    4.3211 C   0  0  0  0  0  0  0  0  0  0  0  0
   -0.2406   -0.5055    5.2653 N   0  0  0  0  0  4  0  0  0  0  0  0
    1.1685   -0.6488    4.9239 C   0  0  0  0  0  0  0  0  0  0  0  0
   -0.7763   -1.8114    5.4505 C   0  0  0  0  0  0  0  0  0  0  0  0
    0.9671    1.8114    4.8428 O   0  0  0  0  0  0  0  0  0  0  0  0
  1  2  2  0
  2  3  1  0
  3  4  1  0
  4  5  2  0
  5  6  1  0
  6  7  2  0
  7  8  1  0
  3  9  1  0
  9 10  2  0
 10 11  1  0
 11 12  2  0
 12 13  1  0
  3 14  1  0
  2 15  1  0
 16 15  1  6
 16 17  1  0
 18 17  1  6
 18 19  1  0
 19 20  1  0
 20 21  1  0
 21 22  1  1
 21 23  1  0
 23 24  1  0
 23 25  1  0
 20 26  1  6
  8  4  1  0
 13  9  1  0
 22 16  1  0
 23 18  1  0
 19 26  1  6
M  CHG  1  23   1
M  END
$$$$
