
     RDKit          3D

 26 30  0  0  0  0  0  0  0  0999 V2000
   -5.1838    0.6080    4.0486 O   0  0  0  0  0  0  0  0  0  0  0  0
   -4.7202    1.5521    4.7392 C   0  0  0  0  0  0  0  0  0  0  0  0
   -5.4691    2.8437    4.7140 C   0  0  0  0  0  0  0  0  0  0  0  0
   -5.6301    3.4168    6.0537 C   0  0  0  0  0  0  0  0  0  0  0  0
   -5.8973    2.8536    7.3002 C   0  0  0  0  0  0  0  0  0  0  0  0
   -5.9905    3.6272    8.3514 C   0  0  0  0  0  0  0  0  0  0  0  0
   -5.8262    5.0065    8.2429 C   0  0  0  0  0  0  0  0  0  0  0  0
   -5.5152    5.1568    6.4700 S   0  0  0  0  0  0  0  0  0  0  0  0
   -4.6884    3.7553    3.8117 C   0  0  0  0  0  0  0  0  0  0  0  0
   -5.0652    4.6852    2.9528 C   0  0  0  0  0  0  0  0  0  0  0  0
   -4.1660    5.3883    2.2455 C   0  0  0  0  0  0  0  0  0  0  0  0
   -2.8307    5.1211    2.4320 C   0  0  0  0  0  0  0  0  0  0  0  0
   -2.9000    3.8041    3.6778 S   0  0  0  0  0  0  0  0  0  0  0  0
   -6.7030    2.6577    4.0848 O   0  0  0  0  0  0  0  0  0  0  0  0
   -3.5818    1.3427    5.4565 O   0  0  0  0  0  0  0  0  0  0  0  0
   -2.7504    0.1800    5.3220 C   0  0  2  0  0  0  0  0  0  0  0  0
   -2.1330   -0.0895    6.6466 C   0  0  0  0  0  0  0  0  0  0  0  0
   -0.6334   -0.1751    6.6451 C   0  0  2  0  0  0  0  0  0  0  0  0
   -0.0155    1.2001    6.4210 C   0  0  2  0  0  0  0  0  0  0  0  0
    0.2513    1.2723    4.9113 C   0  0  2  0  0  0  0  0  0  0  0  0
   -0.3928    0.0089    4.4393 C   0  0  2  0  0  0  0  0  0  0  0  0
   -1.8311    0.2745    4.1656 C   0  0  0  0  0  0  0  0  0  0  0  0
   -0.1717   -0.9328    5.5154 N   0  0  0  0  0  4  0  0  0  0  0  0
    1.2643   -1.1707    5.5782 C   0  0  0  0  0  0  0  0  0  0  0  0
   -0.8103   -2.1889    5.3122 C   0  0  0  0  0  0  0  0  0  0  0  0
    1.2344    1.2826    5.8620 O   0  0  0  0  0  0  0  0  0  0  0  0
  1  2  2  0
  2  3  1  0
  3  4  1  0
  4  5  2  0
  5  6  1  0
  6  7  2  0
  7  8  1  0
  3  9  1  0
  9 10  2  0
 10 11  1  0
 11 12  2  0
 12 13  1  0
  3 14  1  0
  2 15  1  0
 16 15  1  1
 16 17  1  0
 18 17  1  6
 18 19  1  0
 19 20  1  0
 20 21  1  0
 21 22  1  1
 21 23  1  0
 23 24  1  0
 23 25  1  0
 20 26  1  1
  8  4  1  0
 13  9  1  0
 22 16  1  0
 23 18  1  0
 19 26  1  1
M  CHG  1  23   1
M  END
$$$$
