
     RDKit          3D

 26 30  0  0  0  0  0  0  0  0999 V2000
   -5.6301    0.7815    4.7526 O   0  0  0  0  0  0  0  0  0  0  0  0
   -5.0543    1.8403    5.1143 C   0  0  0  0  0  0  0  0  0  0  0  0
   -5.8490    3.1027    5.0473 C   0  0  0  0  0  0  0  0  0  0  0  0
   -5.9152    3.7848    6.3433 C   0  0  0  0  0  0  0  0  0  0  0  0
   -5.7256    5.1109    6.7277 C   0  0  0  0  0  0  0  0  0  0  0  0
   -5.8502    5.4419    7.9875 C   0  0  0  0  0  0  0  0  0  0  0  0
   -6.1699    4.4875    8.9509 C   0  0  0  0  0  0  0  0  0  0  0  0
   -6.2912    3.0117    7.9165 S   0  0  0  0  0  0  0  0  0  0  0  0
   -5.1821    3.9548    4.0061 C   0  0  0  0  0  0  0  0  0  0  0  0
   -4.1542    3.7329    3.2070 C   0  0  0  0  0  0  0  0  0  0  0  0
   -3.7318    4.6647    2.3373 C   0  0  0  0  0  0  0  0  0  0  0  0
   -4.3946    5.8680    2.2917 C   0  0  0  0  0  0  0  0  0  0  0  0
   -5.6697    5.6223    3.5587 S   0  0  0  0  0  0  0  0  0  0  0  0
   -7.1248    2.8273    4.5476 O   0  0  0  0  0  0  0  0  0  0  0  0
   -3.7620    1.7724    5.5380 O   0  0  0  0  0  0  0  0  0  0  0  0
   -2.9141    0.6292    5.3498 C   0  0  2  0  0  0  0  0  0  0  0  0
   -2.4967    0.1501    6.6932 C   0  0  0  0  0  0  0  0  0  0  0  0
   -1.0129    0.0392    6.8974 C   0  0  2  0  0  0  0  0  0  0  0  0
   -0.3755    1.4213    6.9793 C   0  0  2  0  0  0  0  0  0  0  0  0
    0.1099    1.7179    5.5538 C   0  0  2  0  0  0  0  0  0  0  0  0
   -0.4516    0.5528    4.8049 C   0  0  2  0  0  0  0  0  0  0  0  0
   -1.8353    0.8825    4.3682 C   0  0  0  0  0  0  0  0  0  0  0  0
   -0.3864   -0.5457    5.7445 N   0  0  0  0  0  4  0  0  0  0  0  0
    1.0259   -0.8158    5.9791 C   0  0  0  0  0  0  0  0  0  0  0  0
   -0.9820   -1.7446    5.2602 C   0  0  0  0  0  0  0  0  0  0  0  0
    0.9426    1.5658    6.6281 O   0  0  0  0  0  0  0  0  0  0  0  0
  1  2  2  0
  2  3  1  0
  3  4  1  0
  4  5  2  0
  5  6  1  0
  6  7  2  0
  7  8  1  0
  3  9  1  0
  9 10  2  0
 10 11  1  0
 11 12  2  0
 12 13  1  0
  3 14  1  0
  2 15  1  0
 16 15  1  1
 16 17  1  0
 18 17  1  6
 18 19  1  0
 19 20  1  0
 20 21  1  0
 21 22  1  1
 21 23  1  0
 23 24  1  0
 23 25  1  0
 20 26  1  1
  8  4  1  0
 13  9  1  0
 22 16  1  0
 23 18  1  0
 19 26  1  1
M  CHG  1  23   1
M  END
$$$$
