
     RDKit          3D

 26 30  0  0  0  0  0  0  0  0999 V2000
   -4.0652    1.5126    4.0055 O   0  0  0  0  0  0  0  0  0  0  0  0
   -3.5884    2.1484    4.9811 C   0  0  0  0  0  0  0  0  0  0  0  0
   -3.7200    3.6355    4.9525 C   0  0  0  0  0  0  0  0  0  0  0  0
   -4.6526    4.0891    3.9162 C   0  0  0  0  0  0  0  0  0  0  0  0
   -6.0094    3.8600    3.6954 C   0  0  0  0  0  0  0  0  0  0  0  0
   -6.5965    4.4071    2.6618 C   0  0  0  0  0  0  0  0  0  0  0  0
   -5.8847    5.2158    1.7783 C   0  0  0  0  0  0  0  0  0  0  0  0
   -4.2453    5.1557    2.5339 S   0  0  0  0  0  0  0  0  0  0  0  0
   -4.1799    4.0351    6.3250 C   0  0  0  0  0  0  0  0  0  0  0  0
   -3.5737    4.0271    7.4984 C   0  0  0  0  0  0  0  0  0  0  0  0
   -4.2000    4.4430    8.6109 C   0  0  0  0  0  0  0  0  0  0  0  0
   -5.4982    4.8825    8.5076 C   0  0  0  0  0  0  0  0  0  0  0  0
   -5.8044    4.6790    6.7311 S   0  0  0  0  0  0  0  0  0  0  0  0
   -2.4580    4.2147    4.7950 O   0  0  0  0  0  0  0  0  0  0  0  0
   -2.9908    1.4534    5.9881 O   0  0  0  0  0  0  0  0  0  0  0  0
   -2.1819    0.2844    5.7871 C   0  0  2  0  0  0  0  0  0  0  0  0
   -1.8700   -0.2845    7.1241 C   0  0  0  0  0  0  0  0  0  0  0  0
   -0.4078   -0.4739    7.4105 C   0  0  2  0  0  0  0  0  0  0  0  0
    0.2811    0.8713    7.6083 C   0  0  2  0  0  0  0  0  0  0  0  0
    0.8668    1.2214    6.2335 C   0  0  2  0  0  0  0  0  0  0  0  0
    0.3044    0.1249    5.3878 C   0  0  2  0  0  0  0  0  0  0  0  0
   -1.0341    0.5403    4.8879 C   0  0  0  0  0  0  0  0  0  0  0  0
    0.2642   -1.0242    6.2663 N   0  0  0  0  0  4  0  0  0  0  0  0
    1.6464   -1.3707    6.5698 C   0  0  0  0  0  0  0  0  0  0  0  0
   -0.3501   -2.1670    5.6804 C   0  0  0  0  0  0  0  0  0  0  0  0
    1.6235    0.9740    7.3456 O   0  0  0  0  0  0  0  0  0  0  0  0
  1  2  2  0
  2  3  1  0
  3  4  1  0
  4  5  2  0
  5  6  1  0
  6  7  2  0
  7  8  1  0
  3  9  1  0
  9 10  2  0
 10 11  1  0
 11 12  2  0
 12 13  1  0
  3 14  1  0
  2 15  1  0
 16 15  1  1
 16 17  1  0
 18 17  1  6
 18 19  1  0
 19 20  1  0
 20 21  1  0
 21 22  1  1
 21 23  1  0
 23 24  1  0
 23 25  1  0
 20 26  1  1
  8  4  1  0
 13  9  1  0
 22 16  1  0
 23 18  1  0
 19 26  1  1
M  CHG  1  23   1
M  END
$$$$
