
     RDKit          3D

 26 30  0  0  0  0  0  0  0  0999 V2000
   -4.8624    1.6398    4.0981 O   0  0  0  0  0  0  0  0  0  0  0  0
   -4.2024    2.2173    5.0005 C   0  0  0  0  0  0  0  0  0  0  0  0
   -4.3150    3.7043    5.0785 C   0  0  0  0  0  0  0  0  0  0  0  0
   -4.1727    4.3401    3.7652 C   0  0  0  0  0  0  0  0  0  0  0  0
   -4.9566    4.3224    2.6131 C   0  0  0  0  0  0  0  0  0  0  0  0
   -4.5737    5.0001    1.5614 C   0  0  0  0  0  0  0  0  0  0  0  0
   -3.3929    5.7397    1.5763 C   0  0  0  0  0  0  0  0  0  0  0  0
   -2.8221    5.4038    3.2567 S   0  0  0  0  0  0  0  0  0  0  0  0
   -5.6589    3.9844    5.6870 C   0  0  0  0  0  0  0  0  0  0  0  0
   -6.0139    4.4660    6.8645 C   0  0  0  0  0  0  0  0  0  0  0  0
   -7.3058    4.6345    7.1895 C   0  0  0  0  0  0  0  0  0  0  0  0
   -8.2646    4.2933    6.2656 C   0  0  0  0  0  0  0  0  0  0  0  0
   -7.2407    3.7109    4.8859 S   0  0  0  0  0  0  0  0  0  0  0  0
   -3.3785    4.1979    5.9908 O   0  0  0  0  0  0  0  0  0  0  0  0
   -3.4375    1.4639    5.8380 O   0  0  0  0  0  0  0  0  0  0  0  0
   -2.6611    0.3322    5.4165 C   0  0  2  0  0  0  0  0  0  0  0  0
   -2.0333   -0.2607    6.6259 C   0  0  0  0  0  0  0  0  0  0  0  0
   -0.5394   -0.4025    6.5638 C   0  0  2  0  0  0  0  0  0  0  0  0
    0.1352    0.9618    6.6460 C   0  0  2  0  0  0  0  0  0  0  0  0
    0.3786    1.3711    5.1869 C   0  0  2  0  0  0  0  0  0  0  0  0
   -0.3293    0.2776    4.4541 C   0  0  2  0  0  0  0  0  0  0  0  0
   -1.7589    0.6556    4.2884 C   0  0  0  0  0  0  0  0  0  0  0  0
   -0.1316   -0.8957    5.2777 N   0  0  0  0  0  4  0  0  0  0  0  0
    1.2933   -1.1979    5.2448 C   0  0  0  0  0  0  0  0  0  0  0  0
   -0.8289   -2.0445    4.8079 C   0  0  0  0  0  0  0  0  0  0  0  0
    1.3776    1.1223    6.0872 O   0  0  0  0  0  0  0  0  0  0  0  0
  1  2  2  0
  2  3  1  0
  3  4  1  0
  4  5  2  0
  5  6  1  0
  6  7  2  0
  7  8  1  0
  3  9  1  0
  9 10  2  0
 10 11  1  0
 11 12  2  0
 12 13  1  0
  3 14  1  0
  2 15  1  0
 16 15  1  1
 16 17  1  0
 18 17  1  6
 18 19  1  0
 19 20  1  0
 20 21  1  0
 21 22  1  1
 21 23  1  0
 23 24  1  0
 23 25  1  0
 20 26  1  6
  8  4  1  0
 13  9  1  0
 22 16  1  0
 23 18  1  0
 19 26  1  1
M  CHG  1  23   1
M  END
$$$$
