
     RDKit          3D

 26 30  0  0  0  0  0  0  0  0999 V2000
   -5.3125    0.6719    5.4709 O   0  0  0  0  0  0  0  0  0  0  0  0
   -4.7555    1.5876    6.1301 C   0  0  0  0  0  0  0  0  0  0  0  0
   -5.5050    2.8707    6.2779 C   0  0  0  0  0  0  0  0  0  0  0  0
   -5.2834    3.4939    7.5862 C   0  0  0  0  0  0  0  0  0  0  0  0
   -4.2664    3.3775    8.5320 C   0  0  0  0  0  0  0  0  0  0  0  0
   -4.3327    4.0711    9.6396 C   0  0  0  0  0  0  0  0  0  0  0  0
   -5.4056    4.9248    9.8875 C   0  0  0  0  0  0  0  0  0  0  0  0
   -6.3705    4.6775    8.3808 S   0  0  0  0  0  0  0  0  0  0  0  0
   -5.0361    3.7533    5.1572 C   0  0  0  0  0  0  0  0  0  0  0  0
   -3.8511    3.9187    4.5978 C   0  0  0  0  0  0  0  0  0  0  0  0
   -3.6711    4.7823    3.5855 C   0  0  0  0  0  0  0  0  0  0  0  0
   -4.7533    5.5003    3.1353 C   0  0  0  0  0  0  0  0  0  0  0  0
   -6.0670    4.8900    4.2277 S   0  0  0  0  0  0  0  0  0  0  0  0
   -6.8641    2.6495    6.0394 O   0  0  0  0  0  0  0  0  0  0  0  0
   -3.5226    1.3574    6.6603 O   0  0  0  0  0  0  0  0  0  0  0  0
   -2.6710    0.2694    6.2700 C   0  0  2  0  0  0  0  0  0  0  0  0
   -1.6436    0.0972    7.3299 C   0  0  0  0  0  0  0  0  0  0  0  0
   -0.2206    0.1450    6.8517 C   0  0  2  0  0  0  0  0  0  0  0  0
    0.1624    1.5618    6.4408 C   0  0  2  0  0  0  0  0  0  0  0  0
   -0.0703    1.6103    4.9245 C   0  0  2  0  0  0  0  0  0  0  0  0
   -0.7089    0.2806    4.6837 C   0  0  2  0  0  0  0  0  0  0  0  0
   -2.1781    0.4090    4.8812 C   0  0  0  0  0  0  0  0  0  0  0  0
   -0.0711   -0.6037    5.6349 N   0  0  0  0  0  4  0  0  0  0  0  0
    1.3267   -0.7112    5.2381 C   0  0  0  0  0  0  0  0  0  0  0  0
   -0.6200   -1.9172    5.6470 C   0  0  0  0  0  0  0  0  0  0  0  0
    1.1576    1.7374    5.5133 O   0  0  0  0  0  0  0  0  0  0  0  0
  1  2  2  0
  2  3  1  0
  3  4  1  0
  4  5  2  0
  5  6  1  0
  6  7  2  0
  7  8  1  0
  3  9  1  0
  9 10  2  0
 10 11  1  0
 11 12  2  0
 12 13  1  0
  3 14  1  0
  2 15  1  0
 16 15  1  1
 16 17  1  0
 18 17  1  6
 18 19  1  0
 19 20  1  0
 20 21  1  0
 21 22  1  1
 21 23  1  0
 23 24  1  0
 23 25  1  0
 20 26  1  6
  8  4  1  0
 13  9  1  0
 22 16  1  0
 23 18  1  0
 19 26  1  6
M  CHG  1  23   1
M  END
$$$$
