
     RDKit          3D

 26 30  0  0  0  0  0  0  0  0999 V2000
   -4.6005    1.5407    4.0776 O   0  0  0  0  0  0  0  0  0  0  0  0
   -4.0644    1.9889    5.1241 C   0  0  0  0  0  0  0  0  0  0  0  0
   -4.5257    3.3252    5.6049 C   0  0  0  0  0  0  0  0  0  0  0  0
   -3.6359    3.8831    6.6278 C   0  0  0  0  0  0  0  0  0  0  0  0
   -2.3310    4.3705    6.5859 C   0  0  0  0  0  0  0  0  0  0  0  0
   -1.7730    4.8163    7.6823 C   0  0  0  0  0  0  0  0  0  0  0  0
   -2.4648    4.8111    8.8918 C   0  0  0  0  0  0  0  0  0  0  0  0
   -4.0380    4.0997    8.3615 S   0  0  0  0  0  0  0  0  0  0  0  0
   -4.5888    4.2020    4.3875 C   0  0  0  0  0  0  0  0  0  0  0  0
   -3.8350    4.2685    3.3051 C   0  0  0  0  0  0  0  0  0  0  0  0
   -4.0936    5.1514    2.3270 C   0  0  0  0  0  0  0  0  0  0  0  0
   -5.1687    5.9953    2.4724 C   0  0  0  0  0  0  0  0  0  0  0  0
   -5.8144    5.4772    4.0867 S   0  0  0  0  0  0  0  0  0  0  0  0
   -5.8409    3.2284    6.0676 O   0  0  0  0  0  0  0  0  0  0  0  0
   -3.1112    1.2406    5.7450 O   0  0  0  0  0  0  0  0  0  0  0  0
   -2.3070    0.2534    5.0818 C   0  0  2  0  0  0  0  0  0  0  0  0
   -1.8907   -0.7474    6.0984 C   0  0  0  0  0  0  0  0  0  0  0  0
   -0.4093   -0.9733    6.2008 C   0  0  2  0  0  0  0  0  0  0  0  0
    0.2778    0.2344    6.8271 C   0  0  2  0  0  0  0  0  0  0  0  0
    0.7562    1.0781    5.6375 C   0  0  2  0  0  0  0  0  0  0  0  0
    0.1445    0.3404    4.4906 C   0  0  2  0  0  0  0  0  0  0  0  0
   -1.2318    0.8585    4.2637 C   0  0  0  0  0  0  0  0  0  0  0  0
    0.1819   -1.0488    4.8937 N   0  0  0  0  0  4  0  0  0  0  0  0
    1.5864   -1.4302    4.9602 C   0  0  0  0  0  0  0  0  0  0  0  0
   -0.4619   -1.9252    3.9749 C   0  0  0  0  0  0  0  0  0  0  0  0
    1.5959    0.4744    6.5325 O   0  0  0  0  0  0  0  0  0  0  0  0
  1  2  2  0
  2  3  1  0
  3  4  1  0
  4  5  2  0
  5  6  1  0
  6  7  2  0
  7  8  1  0
  3  9  1  0
  9 10  2  0
 10 11  1  0
 11 12  2  0
 12 13  1  0
  3 14  1  0
  2 15  1  0
 16 15  1  1
 16 17  1  0
 18 17  1  6
 18 19  1  0
 19 20  1  0
 20 21  1  0
 21 22  1  1
 21 23  1  0
 23 24  1  0
 23 25  1  0
 20 26  1  6
  8  4  1  0
 13  9  1  0
 22 16  1  0
 23 18  1  0
 19 26  1  6
M  CHG  1  23   1
M  END
$$$$
