
     RDKit          3D

 26 30  0  0  0  0  0  0  0  0999 V2000
   -5.5374    0.5297    4.6538 O   0  0  0  0  0  0  0  0  0  0  0  0
   -4.9783    1.6048    4.9928 C   0  0  0  0  0  0  0  0  0  0  0  0
   -5.7572    2.8647    4.8035 C   0  0  0  0  0  0  0  0  0  0  0  0
   -6.1537    3.4676    6.0796 C   0  0  0  0  0  0  0  0  0  0  0  0
   -7.3930    3.7659    6.6431 C   0  0  0  0  0  0  0  0  0  0  0  0
   -7.4472    4.3180    7.8281 C   0  0  0  0  0  0  0  0  0  0  0  0
   -6.2834    4.6123    8.5355 C   0  0  0  0  0  0  0  0  0  0  0  0
   -5.0373    4.0315    7.3641 S   0  0  0  0  0  0  0  0  0  0  0  0
   -4.8719    3.7811    4.0091 C   0  0  0  0  0  0  0  0  0  0  0  0
   -4.6883    5.0884    4.0495 C   0  0  0  0  0  0  0  0  0  0  0  0
   -3.8221    5.6979    3.2242 C   0  0  0  0  0  0  0  0  0  0  0  0
   -3.1210    4.9298    2.3255 C   0  0  0  0  0  0  0  0  0  0  0  0
   -3.7513    3.2713    2.7040 S   0  0  0  0  0  0  0  0  0  0  0  0
   -6.8651    2.6129    3.9898 O   0  0  0  0  0  0  0  0  0  0  0  0
   -3.7170    1.5556    5.5036 O   0  0  0  0  0  0  0  0  0  0  0  0
   -2.8273    0.4408    5.3399 C   0  0  2  0  0  0  0  0  0  0  0  0
   -2.1608    0.1991    6.6460 C   0  0  0  0  0  0  0  0  0  0  0  0
   -0.6594    0.1958    6.6042 C   0  0  2  0  0  0  0  0  0  0  0  0
   -0.1237    1.6037    6.3723 C   0  0  2  0  0  0  0  0  0  0  0  0
    0.0982    1.6976    4.8565 C   0  0  2  0  0  0  0  0  0  0  0  0
   -0.4884    0.4031    4.3940 C   0  0  2  0  0  0  0  0  0  0  0  0
   -1.9459    0.5909    4.1601 C   0  0  0  0  0  0  0  0  0  0  0  0
   -0.1875   -0.5302    5.4579 N   0  0  0  0  0  4  0  0  0  0  0  0
    1.2606   -0.6895    5.4812 C   0  0  0  0  0  0  0  0  0  0  0  0
   -0.7618   -1.8184    5.2640 C   0  0  0  0  0  0  0  0  0  0  0  0
    1.1045    1.7571    5.7808 O   0  0  0  0  0  0  0  0  0  0  0  0
  1  2  2  0
  2  3  1  0
  3  4  1  0
  4  5  2  0
  5  6  1  0
  6  7  2  0
  7  8  1  0
  3  9  1  0
  9 10  2  0
 10 11  1  0
 11 12  2  0
 12 13  1  0
  3 14  1  0
  2 15  1  0
 16 15  1  1
 16 17  1  0
 18 17  1  6
 18 19  1  0
 19 20  1  0
 20 21  1  0
 21 22  1  1
 21 23  1  0
 23 24  1  0
 23 25  1  0
 20 26  1  1
  8  4  1  0
 13  9  1  0
 22 16  1  0
 23 18  1  0
 19 26  1  1
M  CHG  1  23   1
M  END
$$$$
