
     RDKit          3D

 26 30  0  0  0  0  0  0  0  0999 V2000
   -4.5870    0.9243    3.5410 O   0  0  0  0  0  0  0  0  0  0  0  0
   -4.5365    1.6013    4.6005 C   0  0  0  0  0  0  0  0  0  0  0  0
   -5.1949    2.9414    4.5823 C   0  0  0  0  0  0  0  0  0  0  0  0
   -5.5270    3.4135    5.9299 C   0  0  0  0  0  0  0  0  0  0  0  0
   -5.1586    2.9830    7.2032 C   0  0  0  0  0  0  0  0  0  0  0  0
   -5.6204    3.6094    8.2551 C   0  0  0  0  0  0  0  0  0  0  0  0
   -6.4755    4.7013    8.1209 C   0  0  0  0  0  0  0  0  0  0  0  0
   -6.5969    4.7978    6.3214 S   0  0  0  0  0  0  0  0  0  0  0  0
   -4.2315    3.8646    3.8936 C   0  0  0  0  0  0  0  0  0  0  0  0
   -3.2072    4.5684    4.3408 C   0  0  0  0  0  0  0  0  0  0  0  0
   -2.4751    5.3365    3.5180 C   0  0  0  0  0  0  0  0  0  0  0  0
   -2.8131    5.3791    2.1864 C   0  0  0  0  0  0  0  0  0  0  0  0
   -4.2422    4.2623    2.1442 S   0  0  0  0  0  0  0  0  0  0  0  0
   -6.3254    2.8970    3.7620 O   0  0  0  0  0  0  0  0  0  0  0  0
   -3.8948    1.0797    5.6823 O   0  0  0  0  0  0  0  0  0  0  0  0
   -2.8894    0.0578    5.6041 C   0  0  2  0  0  0  0  0  0  0  0  0
   -1.9080    0.3055    6.6922 C   0  0  0  0  0  0  0  0  0  0  0  0
   -0.4791    0.4279    6.2458 C   0  0  2  0  0  0  0  0  0  0  0  0
   -0.2610    1.7329    5.4892 C   0  0  2  0  0  0  0  0  0  0  0  0
   -0.4146    1.3616    4.0079 C   0  0  2  0  0  0  0  0  0  0  0  0
   -0.8613   -0.0612    4.1076 C   0  0  2  0  0  0  0  0  0  0  0  0
   -2.3434   -0.0929    4.2364 C   0  0  0  0  0  0  0  0  0  0  0  0
   -0.1674   -0.5771    5.2678 N   0  0  0  0  0  4  0  0  0  0  0  0
    1.2521   -0.5860    4.9398 C   0  0  0  0  0  0  0  0  0  0  0  0
   -0.5414   -1.9076    5.6093 C   0  0  0  0  0  0  0  0  0  0  0  0
    0.7524    1.8038    4.5674 O   0  0  0  0  0  0  0  0  0  0  0  0
  1  2  2  0
  2  3  1  0
  3  4  1  0
  4  5  2  0
  5  6  1  0
  6  7  2  0
  7  8  1  0
  3  9  1  0
  9 10  2  0
 10 11  1  0
 11 12  2  0
 12 13  1  0
  3 14  1  0
  2 15  1  0
 16 15  1  6
 16 17  1  0
 18 17  1  6
 18 19  1  0
 19 20  1  0
 20 21  1  0
 21 22  1  1
 21 23  1  0
 23 24  1  0
 23 25  1  0
 20 26  1  6
  8  4  1  0
 13  9  1  0
 22 16  1  0
 23 18  1  0
 19 26  1  6
M  CHG  1  23   1
M  END
$$$$
