
     RDKit          3D

 26 30  0  0  0  0  0  0  0  0999 V2000
   -4.7074    0.8646    3.9031 O   0  0  0  0  0  0  0  0  0  0  0  0
   -4.3549    1.7367    4.7389 C   0  0  0  0  0  0  0  0  0  0  0  0
   -5.1784    2.9801    4.8115 C   0  0  0  0  0  0  0  0  0  0  0  0
   -5.0808    3.6333    6.1203 C   0  0  0  0  0  0  0  0  0  0  0  0
   -3.9987    4.0338    6.9020 C   0  0  0  0  0  0  0  0  0  0  0  0
   -4.2148    4.6063    8.0586 C   0  0  0  0  0  0  0  0  0  0  0  0
   -5.5116    4.8217    8.5205 C   0  0  0  0  0  0  0  0  0  0  0  0
   -6.4624    4.1296    7.1495 S   0  0  0  0  0  0  0  0  0  0  0  0
   -4.6794    3.8699    3.7097 C   0  0  0  0  0  0  0  0  0  0  0  0
   -5.1189    5.0213    3.2347 C   0  0  0  0  0  0  0  0  0  0  0  0
   -4.4919    5.6449    2.2242 C   0  0  0  0  0  0  0  0  0  0  0  0
   -3.3716    5.0584    1.6855 C   0  0  0  0  0  0  0  0  0  0  0  0
   -3.2376    3.5536    2.6898 S   0  0  0  0  0  0  0  0  0  0  0  0
   -6.5044    2.6837    4.4845 O   0  0  0  0  0  0  0  0  0  0  0  0
   -3.2613    1.4980    5.5143 O   0  0  0  0  0  0  0  0  0  0  0  0
   -2.3548    0.4037    5.3092 C   0  0  2  0  0  0  0  0  0  0  0  0
   -2.1217   -0.2429    6.6268 C   0  0  0  0  0  0  0  0  0  0  0  0
   -0.6807   -0.3561    7.0350 C   0  0  2  0  0  0  0  0  0  0  0  0
   -0.1119    1.0128    7.3890 C   0  0  2  0  0  0  0  0  0  0  0  0
    0.5661    1.5040    6.1026 C   0  0  2  0  0  0  0  0  0  0  0  0
    0.1621    0.4398    5.1341 C   0  0  2  0  0  0  0  0  0  0  0  0
   -1.1537    0.8024    4.5413 C   0  0  0  0  0  0  0  0  0  0  0  0
    0.1281   -0.7725    5.9232 N   0  0  0  0  0  4  0  0  0  0  0  0
    1.4997   -1.0487    6.3298 C   0  0  0  0  0  0  0  0  0  0  0  0
   -0.3471   -1.9059    5.2045 C   0  0  0  0  0  0  0  0  0  0  0  0
    1.2375    1.2238    7.2608 O   0  0  0  0  0  0  0  0  0  0  0  0
  1  2  2  0
  2  3  1  0
  3  4  1  0
  4  5  2  0
  5  6  1  0
  6  7  2  0
  7  8  1  0
  3  9  1  0
  9 10  2  0
 10 11  1  0
 11 12  2  0
 12 13  1  0
  3 14  1  0
  2 15  1  0
 16 15  1  1
 16 17  1  0
 18 17  1  6
 18 19  1  0
 19 20  1  0
 20 21  1  0
 21 22  1  1
 21 23  1  0
 23 24  1  0
 23 25  1  0
 20 26  1  1
  8  4  1  0
 13  9  1  0
 22 16  1  0
 23 18  1  0
 19 26  1  1
M  CHG  1  23   1
M  END
$$$$
