
     RDKit          3D

 26 30  0  0  0  0  0  0  0  0999 V2000
   -5.5085    0.8322    4.3625 O   0  0  0  0  0  0  0  0  0  0  0  0
   -4.9639    1.8371    4.8888 C   0  0  0  0  0  0  0  0  0  0  0  0
   -5.6652    3.1467    4.7380 C   0  0  0  0  0  0  0  0  0  0  0  0
   -5.8197    3.8429    6.0190 C   0  0  0  0  0  0  0  0  0  0  0  0
   -4.9249    4.5242    6.8420 C   0  0  0  0  0  0  0  0  0  0  0  0
   -5.3525    5.0594    7.9568 C   0  0  0  0  0  0  0  0  0  0  0  0
   -6.6901    4.9581    8.3335 C   0  0  0  0  0  0  0  0  0  0  0  0
   -7.3466    4.0095    6.9437 S   0  0  0  0  0  0  0  0  0  0  0  0
   -4.8422    3.9457    3.7690 C   0  0  0  0  0  0  0  0  0  0  0  0
   -5.1408    4.5191    2.6173 C   0  0  0  0  0  0  0  0  0  0  0  0
   -4.2190    5.1976    1.9151 C   0  0  0  0  0  0  0  0  0  0  0  0
   -2.9439    5.2868    2.4206 C   0  0  0  0  0  0  0  0  0  0  0  0
   -3.1054    4.3500    3.9658 S   0  0  0  0  0  0  0  0  0  0  0  0
   -6.8982    2.9486    4.1107 O   0  0  0  0  0  0  0  0  0  0  0  0
   -3.7869    1.6726    5.5535 O   0  0  0  0  0  0  0  0  0  0  0  0
   -2.9417    0.5201    5.4167 C   0  0  2  0  0  0  0  0  0  0  0  0
   -2.2954    0.2752    6.7323 C   0  0  0  0  0  0  0  0  0  0  0  0
   -0.7951    0.2105    6.7030 C   0  0  2  0  0  0  0  0  0  0  0  0
   -0.2012    1.5914    6.4509 C   0  0  2  0  0  0  0  0  0  0  0  0
    0.0358    1.6492    4.9356 C   0  0  2  0  0  0  0  0  0  0  0  0
   -0.5992    0.3714    4.4910 C   0  0  2  0  0  0  0  0  0  0  0  0
   -2.0460    0.6135    4.2418 C   0  0  0  0  0  0  0  0  0  0  0  0
   -0.3443   -0.5542    5.5736 N   0  0  0  0  0  4  0  0  0  0  0  0
    1.0959   -0.7712    5.6116 C   0  0  0  0  0  0  0  0  0  0  0  0
   -0.9687   -1.8214    5.3974 C   0  0  0  0  0  0  0  0  0  0  0  0
    1.0366    1.6846    5.8671 O   0  0  0  0  0  0  0  0  0  0  0  0
  1  2  2  0
  2  3  1  0
  3  4  1  0
  4  5  2  0
  5  6  1  0
  6  7  2  0
  7  8  1  0
  3  9  1  0
  9 10  2  0
 10 11  1  0
 11 12  2  0
 12 13  1  0
  3 14  1  0
  2 15  1  0
 16 15  1  1
 16 17  1  0
 18 17  1  6
 18 19  1  0
 19 20  1  0
 20 21  1  0
 21 22  1  1
 21 23  1  0
 23 24  1  0
 23 25  1  0
 20 26  1  1
  8  4  1  0
 13  9  1  0
 22 16  1  0
 23 18  1  0
 19 26  1  1
M  CHG  1  23   1
M  END
$$$$
