
     RDKit          3D

 26 30  0  0  0  0  0  0  0  0999 V2000
   -2.9925    2.9501    6.3547 O   0  0  0  0  0  0  0  0  0  0  0  0
   -3.5994    2.1588    5.5874 C   0  0  0  0  0  0  0  0  0  0  0  0
   -4.8357    2.6701    4.9241 C   0  0  0  0  0  0  0  0  0  0  0  0
   -5.6976    3.4078    5.8527 C   0  0  0  0  0  0  0  0  0  0  0  0
   -5.6359    3.6358    7.2261 C   0  0  0  0  0  0  0  0  0  0  0  0
   -6.5681    4.3489    7.8046 C   0  0  0  0  0  0  0  0  0  0  0  0
   -7.6222    4.8840    7.0672 C   0  0  0  0  0  0  0  0  0  0  0  0
   -7.1971    4.2882    5.4159 S   0  0  0  0  0  0  0  0  0  0  0  0
   -4.3672    3.5398    3.7933 C   0  0  0  0  0  0  0  0  0  0  0  0
   -3.1612    3.8189    3.3328 C   0  0  0  0  0  0  0  0  0  0  0  0
   -2.9864    4.6400    2.2849 C   0  0  0  0  0  0  0  0  0  0  0  0
   -4.0967    5.1923    1.6919 C   0  0  0  0  0  0  0  0  0  0  0  0
   -5.4293    4.4863    2.7003 S   0  0  0  0  0  0  0  0  0  0  0  0
   -5.5189    1.6086    4.3245 O   0  0  0  0  0  0  0  0  0  0  0  0
   -3.1005    0.9042    5.4108 O   0  0  0  0  0  0  0  0  0  0  0  0
   -2.1485    0.2873    6.2908 C   0  0  2  0  0  0  0  0  0  0  0  0
   -1.0262    1.2423    6.4832 C   0  0  0  0  0  0  0  0  0  0  0  0
    0.3357    0.6987    6.1586 C   0  0  2  0  0  0  0  0  0  0  0  0
    0.4972    0.5125    4.6545 C   0  0  2  0  0  0  0  0  0  0  0  0
    0.1400   -0.9579    4.3976 C   0  0  2  0  0  0  0  0  0  0  0  0
   -0.3373   -1.3836    5.7484 C   0  0  2  0  0  0  0  0  0  0  0  0
   -1.7903   -1.0837    5.8626 C   0  0  0  0  0  0  0  0  0  0  0  0
    0.4839   -0.6339    6.6743 N   0  0  0  0  0  4  0  0  0  0  0  0
    1.8477   -1.1223    6.5180 C   0  0  0  0  0  0  0  0  0  0  0  0
    0.1132   -0.8131    8.0371 C   0  0  0  0  0  0  0  0  0  0  0  0
    1.3839   -0.4273    4.1938 O   0  0  0  0  0  0  0  0  0  0  0  0
  1  2  2  0
  2  3  1  0
  3  4  1  0
  4  5  2  0
  5  6  1  0
  6  7  2  0
  7  8  1  0
  3  9  1  0
  9 10  2  0
 10 11  1  0
 11 12  2  0
 12 13  1  0
  3 14  1  0
  2 15  1  0
 16 15  1  6
 16 17  1  0
 18 17  1  6
 18 19  1  0
 19 20  1  0
 20 21  1  0
 21 22  1  6
 21 23  1  0
 23 24  1  0
 23 25  1  0
 20 26  1  1
  8  4  1  0
 13  9  1  0
 22 16  1  0
 23 18  1  0
 19 26  1  1
M  CHG  1  23   1
M  END
$$$$
