
     RDKit          3D

 26 30  0  0  0  0  0  0  0  0999 V2000
   -5.3146    1.0360    4.0156 O   0  0  0  0  0  0  0  0  0  0  0  0
   -4.7939    2.0965    4.4486 C   0  0  0  0  0  0  0  0  0  0  0  0
   -5.5458    3.3659    4.2181 C   0  0  0  0  0  0  0  0  0  0  0  0
   -5.9934    3.9798    5.4719 C   0  0  0  0  0  0  0  0  0  0  0  0
   -6.6131    5.1931    5.7653 C   0  0  0  0  0  0  0  0  0  0  0  0
   -6.9030    5.4860    7.0072 C   0  0  0  0  0  0  0  0  0  0  0  0
   -6.6012    4.6022    8.0412 C   0  0  0  0  0  0  0  0  0  0  0  0
   -5.8410    3.2572    7.1055 S   0  0  0  0  0  0  0  0  0  0  0  0
   -4.6119    4.2668    3.4625 C   0  0  0  0  0  0  0  0  0  0  0  0
   -3.5135    4.9053    3.8234 C   0  0  0  0  0  0  0  0  0  0  0  0
   -2.8307    5.6670    2.9535 C   0  0  0  0  0  0  0  0  0  0  0  0
   -3.2992    5.7728    1.6656 C   0  0  0  0  0  0  0  0  0  0  0  0
   -4.7796    4.7265    1.7365 S   0  0  0  0  0  0  0  0  0  0  0  0
   -6.6177    3.1253    3.3542 O   0  0  0  0  0  0  0  0  0  0  0  0
   -3.5953    2.0242    5.0908 O   0  0  0  0  0  0  0  0  0  0  0  0
   -2.7168    0.8905    5.0263 C   0  0  2  0  0  0  0  0  0  0  0  0
   -2.3166    0.5494    6.4162 C   0  0  0  0  0  0  0  0  0  0  0  0
   -0.8351    0.4960    6.6577 C   0  0  2  0  0  0  0  0  0  0  0  0
   -0.2326    1.8955    6.6219 C   0  0  2  0  0  0  0  0  0  0  0  0
    0.2756    2.0704    5.1842 C   0  0  2  0  0  0  0  0  0  0  0  0
   -0.2423    0.8266    4.5373 C   0  0  2  0  0  0  0  0  0  0  0  0
   -1.6239    1.0787    4.0457 C   0  0  0  0  0  0  0  0  0  0  0  0
   -0.1709   -0.1775    5.5766 N   0  0  0  0  0  4  0  0  0  0  0  0
    1.2423   -0.3884    5.8619 C   0  0  0  0  0  0  0  0  0  0  0  0
   -0.7276   -1.4312    5.1956 C   0  0  0  0  0  0  0  0  0  0  0  0
    1.0889    2.0403    6.2834 O   0  0  0  0  0  0  0  0  0  0  0  0
  1  2  2  0
  2  3  1  0
  3  4  1  0
  4  5  2  0
  5  6  1  0
  6  7  2  0
  7  8  1  0
  3  9  1  0
  9 10  2  0
 10 11  1  0
 11 12  2  0
 12 13  1  0
  3 14  1  0
  2 15  1  0
 16 15  1  1
 16 17  1  0
 18 17  1  6
 18 19  1  0
 19 20  1  0
 20 21  1  0
 21 22  1  1
 21 23  1  0
 23 24  1  0
 23 25  1  0
 20 26  1  1
  8  4  1  0
 13  9  1  0
 22 16  1  0
 23 18  1  0
 19 26  1  1
M  CHG  1  23   1
M  END
$$$$
