
     RDKit          3D

 26 30  0  0  0  0  0  0  0  0999 V2000
   -5.2204    0.7686    4.7840 O   0  0  0  0  0  0  0  0  0  0  0  0
   -4.6041    1.8651    4.8164 C   0  0  0  0  0  0  0  0  0  0  0  0
   -5.4219    3.1081    4.6904 C   0  0  0  0  0  0  0  0  0  0  0  0
   -5.5339    3.8286    5.9622 C   0  0  0  0  0  0  0  0  0  0  0  0
   -4.5926    4.2494    6.8998 C   0  0  0  0  0  0  0  0  0  0  0  0
   -4.9893    4.8873    7.9711 C   0  0  0  0  0  0  0  0  0  0  0  0
   -6.3398    5.1523    8.1886 C   0  0  0  0  0  0  0  0  0  0  0  0
   -7.0581    4.4061    6.7088 S   0  0  0  0  0  0  0  0  0  0  0  0
   -4.7464    3.9410    3.6393 C   0  0  0  0  0  0  0  0  0  0  0  0
   -3.4973    4.3469    3.4997 C   0  0  0  0  0  0  0  0  0  0  0  0
   -3.1199    5.0978    2.4525 C   0  0  0  0  0  0  0  0  0  0  0  0
   -4.0661    5.4415    1.5167 C   0  0  0  0  0  0  0  0  0  0  0  0
   -5.5464    4.6406    2.1939 S   0  0  0  0  0  0  0  0  0  0  0  0
   -6.6791    2.7909    4.1689 O   0  0  0  0  0  0  0  0  0  0  0  0
   -3.2502    1.8526    4.9620 O   0  0  0  0  0  0  0  0  0  0  0  0
   -2.4635    0.6552    5.0539 C   0  0  2  0  0  0  0  0  0  0  0  0
   -2.4146    0.2553    6.4844 C   0  0  0  0  0  0  0  0  0  0  0  0
   -1.0344    0.0812    7.0504 C   0  0  2  0  0  0  0  0  0  0  0  0
   -0.3408    1.4297    7.2038 C   0  0  2  0  0  0  0  0  0  0  0  0
    0.4916    1.5939    5.9248 C   0  0  2  0  0  0  0  0  0  0  0  0
    0.0464    0.4080    5.1315 C   0  0  2  0  0  0  0  0  0  0  0  0
   -1.1659    0.7774    4.3519 C   0  0  0  0  0  0  0  0  0  0  0  0
   -0.1920   -0.6199    6.1217 N   0  0  0  0  0  4  0  0  0  0  0  0
    1.1007   -0.9465    6.7091 C   0  0  0  0  0  0  0  0  0  0  0  0
   -0.7359   -1.8180    5.5782 C   0  0  0  0  0  0  0  0  0  0  0  0
    1.0298    1.4776    7.1767 O   0  0  0  0  0  0  0  0  0  0  0  0
  1  2  2  0
  2  3  1  0
  3  4  1  0
  4  5  2  0
  5  6  1  0
  6  7  2  0
  7  8  1  0
  3  9  1  0
  9 10  2  0
 10 11  1  0
 11 12  2  0
 12 13  1  0
  3 14  1  0
  2 15  1  0
 16 15  1  1
 16 17  1  0
 18 17  1  6
 18 19  1  0
 19 20  1  0
 20 21  1  0
 21 22  1  1
 21 23  1  0
 23 24  1  0
 23 25  1  0
 20 26  1  1
  8  4  1  0
 13  9  1  0
 22 16  1  0
 23 18  1  0
 19 26  1  1
M  CHG  1  23   1
M  END
$$$$
