
     RDKit          3D

 26 30  0  0  0  0  0  0  0  0999 V2000
   -5.2684    0.5350    4.9306 O   0  0  0  0  0  0  0  0  0  0  0  0
   -4.6441    1.6275    4.9322 C   0  0  0  0  0  0  0  0  0  0  0  0
   -5.4573    2.8749    4.8208 C   0  0  0  0  0  0  0  0  0  0  0  0
   -5.6127    3.5519    6.1118 C   0  0  0  0  0  0  0  0  0  0  0  0
   -5.3238    3.1737    7.4217 C   0  0  0  0  0  0  0  0  0  0  0  0
   -5.5751    4.0021    8.4030 C   0  0  0  0  0  0  0  0  0  0  0  0
   -6.1276    5.2574    8.1575 C   0  0  0  0  0  0  0  0  0  0  0  0
   -6.2807    5.1972    6.3587 S   0  0  0  0  0  0  0  0  0  0  0  0
   -4.7466    3.7424    3.8223 C   0  0  0  0  0  0  0  0  0  0  0  0
   -4.8953    3.8955    2.5189 C   0  0  0  0  0  0  0  0  0  0  0  0
   -4.1285    4.7512    1.8241 C   0  0  0  0  0  0  0  0  0  0  0  0
   -3.1743    5.4741    2.4997 C   0  0  0  0  0  0  0  0  0  0  0  0
   -3.4114    4.8805    4.1975 S   0  0  0  0  0  0  0  0  0  0  0  0
   -6.6960    2.5769    4.2463 O   0  0  0  0  0  0  0  0  0  0  0  0
   -3.2863    1.6070    5.0338 O   0  0  0  0  0  0  0  0  0  0  0  0
   -2.5015    0.4053    5.0660 C   0  0  2  0  0  0  0  0  0  0  0  0
   -2.1127    0.1573    6.4787 C   0  0  0  0  0  0  0  0  0  0  0  0
   -0.6373    0.0068    6.7165 C   0  0  2  0  0  0  0  0  0  0  0  0
    0.0740    1.3449    6.5531 C   0  0  2  0  0  0  0  0  0  0  0  0
    0.5769    1.3508    5.1030 C   0  0  2  0  0  0  0  0  0  0  0  0
   -0.0460    0.1003    4.5720 C   0  0  2  0  0  0  0  0  0  0  0  0
   -1.4091    0.4179    4.0670 C   0  0  0  0  0  0  0  0  0  0  0  0
   -0.0418   -0.8106    5.6963 N   0  0  0  0  0  4  0  0  0  0  0  0
    1.3534   -1.1081    5.9920 C   0  0  0  0  0  0  0  0  0  0  0  0
   -0.7009   -2.0443    5.4312 C   0  0  0  0  0  0  0  0  0  0  0  0
    1.3986    1.3528    6.1964 O   0  0  0  0  0  0  0  0  0  0  0  0
  1  2  2  0
  2  3  1  0
  3  4  1  0
  4  5  2  0
  5  6  1  0
  6  7  2  0
  7  8  1  0
  3  9  1  0
  9 10  2  0
 10 11  1  0
 11 12  2  0
 12 13  1  0
  3 14  1  0
  2 15  1  0
 16 15  1  1
 16 17  1  0
 18 17  1  6
 18 19  1  0
 19 20  1  0
 20 21  1  0
 21 22  1  1
 21 23  1  0
 23 24  1  0
 23 25  1  0
 20 26  1  1
  8  4  1  0
 13  9  1  0
 22 16  1  0
 23 18  1  0
 19 26  1  1
M  CHG  1  23   1
M  END
$$$$
