
     RDKit          3D

 26 30  0  0  0  0  0  0  0  0999 V2000
   -5.2920    0.8035    4.5839 O   0  0  0  0  0  0  0  0  0  0  0  0
   -4.6777    1.8551    4.9003 C   0  0  0  0  0  0  0  0  0  0  0  0
   -5.4043    3.1469    4.7190 C   0  0  0  0  0  0  0  0  0  0  0  0
   -5.4968    3.9102    5.9672 C   0  0  0  0  0  0  0  0  0  0  0  0
   -4.5397    4.3791    6.8651 C   0  0  0  0  0  0  0  0  0  0  0  0
   -4.9204    5.0481    7.9233 C   0  0  0  0  0  0  0  0  0  0  0  0
   -6.2694    5.2988    8.1656 C   0  0  0  0  0  0  0  0  0  0  0  0
   -7.0116    4.4892    6.7317 S   0  0  0  0  0  0  0  0  0  0  0  0
   -4.6477    3.9007    3.6634 C   0  0  0  0  0  0  0  0  0  0  0  0
   -3.3625    4.1677    3.5168 C   0  0  0  0  0  0  0  0  0  0  0  0
   -2.9110    4.8725    2.4667 C   0  0  0  0  0  0  0  0  0  0  0  0
   -3.8192    5.3170    1.5356 C   0  0  0  0  0  0  0  0  0  0  0  0
   -5.3743    4.6827    2.2215 S   0  0  0  0  0  0  0  0  0  0  0  0
   -6.6675    2.9015    4.1737 O   0  0  0  0  0  0  0  0  0  0  0  0
   -3.4078    1.7535    5.3812 O   0  0  0  0  0  0  0  0  0  0  0  0
   -2.5756    0.5957    5.2132 C   0  0  2  0  0  0  0  0  0  0  0  0
   -2.3191    0.0243    6.5608 C   0  0  0  0  0  0  0  0  0  0  0  0
   -0.8695   -0.1481    6.9143 C   0  0  2  0  0  0  0  0  0  0  0  0
   -0.2077    1.2046    7.1497 C   0  0  2  0  0  0  0  0  0  0  0  0
    0.4368    1.5686    5.8052 C   0  0  2  0  0  0  0  0  0  0  0  0
   -0.0716    0.4693    4.9295 C   0  0  2  0  0  0  0  0  0  0  0  0
   -1.3906    0.8703    4.3696 C   0  0  0  0  0  0  0  0  0  0  0  0
   -0.1380   -0.6844    5.8004 N   0  0  0  0  0  4  0  0  0  0  0  0
    1.2329   -1.0150    6.1665 C   0  0  0  0  0  0  0  0  0  0  0  0
   -0.7098   -1.8320    5.1816 C   0  0  0  0  0  0  0  0  0  0  0  0
    1.1440    1.3254    6.9502 O   0  0  0  0  0  0  0  0  0  0  0  0
  1  2  2  0
  2  3  1  0
  3  4  1  0
  4  5  2  0
  5  6  1  0
  6  7  2  0
  7  8  1  0
  3  9  1  0
  9 10  2  0
 10 11  1  0
 11 12  2  0
 12 13  1  0
  3 14  1  0
  2 15  1  0
 16 15  1  1
 16 17  1  0
 18 17  1  6
 18 19  1  0
 19 20  1  0
 20 21  1  0
 21 22  1  1
 21 23  1  0
 23 24  1  0
 23 25  1  0
 20 26  1  1
  8  4  1  0
 13  9  1  0
 22 16  1  0
 23 18  1  0
 19 26  1  1
M  CHG  1  23   1
M  END
$$$$
