
     RDKit          3D

 26 30  0  0  0  0  0  0  0  0999 V2000
   -5.6218    0.6568    4.8809 O   0  0  0  0  0  0  0  0  0  0  0  0
   -4.9595    1.7260    4.9204 C   0  0  0  0  0  0  0  0  0  0  0  0
   -5.6963    2.9926    4.6329 C   0  0  0  0  0  0  0  0  0  0  0  0
   -5.9564    3.7700    5.8483 C   0  0  0  0  0  0  0  0  0  0  0  0
   -6.7043    4.9194    6.0969 C   0  0  0  0  0  0  0  0  0  0  0  0
   -6.7578    5.4046    7.3109 C   0  0  0  0  0  0  0  0  0  0  0  0
   -6.0778    4.7887    8.3595 C   0  0  0  0  0  0  0  0  0  0  0  0
   -5.3149    3.4063    7.4824 S   0  0  0  0  0  0  0  0  0  0  0  0
   -4.8429    3.7541    3.6601 C   0  0  0  0  0  0  0  0  0  0  0  0
   -4.8311    3.7993    2.3402 C   0  0  0  0  0  0  0  0  0  0  0  0
   -3.9582    4.5735    1.6756 C   0  0  0  0  0  0  0  0  0  0  0  0
   -3.0660    5.3274    2.4001 C   0  0  0  0  0  0  0  0  0  0  0  0
   -3.5227    4.8866    4.0997 S   0  0  0  0  0  0  0  0  0  0  0  0
   -6.8793    2.7014    3.9481 O   0  0  0  0  0  0  0  0  0  0  0  0
   -3.6322    1.6648    5.2181 O   0  0  0  0  0  0  0  0  0  0  0  0
   -2.8542    0.4590    5.1745 C   0  0  2  0  0  0  0  0  0  0  0  0
   -2.3890    0.1712    6.5563 C   0  0  0  0  0  0  0  0  0  0  0  0
   -0.9036    0.0075    6.7073 C   0  0  2  0  0  0  0  0  0  0  0  0
   -0.1943    1.3462    6.5403 C   0  0  2  0  0  0  0  0  0  0  0  0
    0.2273    1.3889    5.0651 C   0  0  2  0  0  0  0  0  0  0  0  0
   -0.4318    0.1560    4.5365 C   0  0  2  0  0  0  0  0  0  0  0  0
   -1.8190    0.4935    4.1169 C   0  0  0  0  0  0  0  0  0  0  0  0
   -0.3708   -0.7849    5.6341 N   0  0  0  0  0  4  0  0  0  0  0  0
    1.0369   -1.0967    5.8435 C   0  0  0  0  0  0  0  0  0  0  0  0
   -1.0512   -2.0079    5.3733 C   0  0  0  0  0  0  0  0  0  0  0  0
    1.1084    1.3575    6.1106 O   0  0  0  0  0  0  0  0  0  0  0  0
  1  2  2  0
  2  3  1  0
  3  4  1  0
  4  5  2  0
  5  6  1  0
  6  7  2  0
  7  8  1  0
  3  9  1  0
  9 10  2  0
 10 11  1  0
 11 12  2  0
 12 13  1  0
  3 14  1  0
  2 15  1  0
 16 15  1  1
 16 17  1  0
 18 17  1  6
 18 19  1  0
 19 20  1  0
 20 21  1  0
 21 22  1  1
 21 23  1  0
 23 24  1  0
 23 25  1  0
 20 26  1  1
  8  4  1  0
 13  9  1  0
 22 16  1  0
 23 18  1  0
 19 26  1  1
M  CHG  1  23   1
M  END
$$$$
