
     RDKit          3D

 26 30  0  0  0  0  0  0  0  0999 V2000
   -4.6574    1.1339    7.3366 O   0  0  0  0  0  0  0  0  0  0  0  0
   -3.7620    1.7536    6.7061 C   0  0  0  0  0  0  0  0  0  0  0  0
   -4.1245    2.2863    5.3590 C   0  0  0  0  0  0  0  0  0  0  0  0
   -4.7444    3.6125    5.4364 C   0  0  0  0  0  0  0  0  0  0  0  0
   -4.3545    4.8697    4.9786 C   0  0  0  0  0  0  0  0  0  0  0  0
   -5.1257    5.9039    5.1970 C   0  0  0  0  0  0  0  0  0  0  0  0
   -6.3318    5.7667    5.8809 C   0  0  0  0  0  0  0  0  0  0  0  0
   -6.3130    3.9922    6.2171 S   0  0  0  0  0  0  0  0  0  0  0  0
   -2.8469    2.3170    4.5706 C   0  0  0  0  0  0  0  0  0  0  0  0
   -1.8938    3.2253    4.4654 C   0  0  0  0  0  0  0  0  0  0  0  0
   -0.8208    3.0245    3.6835 C   0  0  0  0  0  0  0  0  0  0  0  0
   -0.7293    1.8438    2.9857 C   0  0  0  0  0  0  0  0  0  0  0  0
   -2.2585    1.0094    3.4923 S   0  0  0  0  0  0  0  0  0  0  0  0
   -4.9512    1.3720    4.7006 O   0  0  0  0  0  0  0  0  0  0  0  0
   -2.5361    1.8989    7.2808 O   0  0  0  0  0  0  0  0  0  0  0  0
   -2.0166    1.0268    8.2961 C   0  0  2  0  0  0  0  0  0  0  0  0
   -1.8651    1.8232    9.5415 C   0  0  0  0  0  0  0  0  0  0  0  0
   -0.4909    1.8031   10.1474 C   0  0  2  0  0  0  0  0  0  0  0  0
    0.4874    2.5979    9.2905 C   0  0  2  0  0  0  0  0  0  0  0  0
    1.1590    1.5549    8.3867 C   0  0  2  0  0  0  0  0  0  0  0  0
    0.3711    0.3290    8.7187 C   0  0  2  0  0  0  0  0  0  0  0  0
   -0.8273    0.2736    7.8384 C   0  0  0  0  0  0  0  0  0  0  0  0
    0.0528    0.4737   10.1228 N   0  0  0  0  0  4  0  0  0  0  0  0
    1.3126    0.3945   10.8503 C   0  0  0  0  0  0  0  0  0  0  0  0
   -0.8003   -0.5513   10.6212 C   0  0  0  0  0  0  0  0  0  0  0  0
    1.8210    2.2802    9.3386 O   0  0  0  0  0  0  0  0  0  0  0  0
  1  2  2  0
  2  3  1  0
  3  4  1  0
  4  5  2  0
  5  6  1  0
  6  7  2  0
  7  8  1  0
  3  9  1  0
  9 10  2  0
 10 11  1  0
 11 12  2  0
 12 13  1  0
  3 14  1  0
  2 15  1  0
 16 15  1  6
 16 17  1  0
 18 17  1  6
 18 19  1  0
 19 20  1  0
 20 21  1  0
 21 22  1  6
 21 23  1  0
 23 24  1  0
 23 25  1  0
 20 26  1  1
  8  4  1  0
 13  9  1  0
 22 16  1  0
 23 18  1  0
 19 26  1  1
M  CHG  1  23   1
M  END
$$$$
