
     RDKit          3D

 38 43  0  0  0  0  0  0  0  0999 V2000
    3.0128    1.5003   12.1079 C   0  0  0  0  0  0  0  0  0  0  0  0
    2.6871    0.3257   12.9627 C   0  0  0  0  0  0  0  0  0  0  0  0
    3.7142   -0.7454   13.0333 C   0  0  0  0  0  0  0  0  0  0  0  0
    4.3357   -0.8248   11.6196 C   0  0  0  0  0  0  0  0  0  0  0  0
    3.8886   -2.1137   10.9723 C   0  0  0  0  0  0  0  0  0  0  0  0
    4.5405   -3.2430   11.7626 C   0  0  0  0  0  0  0  0  0  0  0  0
    3.9002   -3.2505   13.1212 C   0  0  0  0  0  0  0  0  0  0  0  0
    3.0409   -2.0552   13.3798 C   0  0  0  0  0  0  0  0  0  0  0  0
    1.9795    0.6177   14.1887 N   0  0  0  0  0  0  0  0  0  0  0  0
    2.5929    1.0258   15.3502 C   0  0  0  0  0  0  0  0  0  0  0  0
    1.6527    1.2575   16.3051 C   0  0  0  0  0  0  0  0  0  0  0  0
    2.0066    1.6882   17.6028 C   0  0  0  0  0  0  0  0  0  0  0  0
    3.3164    1.8872   17.9423 C   0  0  0  0  0  0  0  0  0  0  0  0
    4.2669    1.6517   16.9734 C   0  0  0  0  0  0  0  0  0  0  0  0
    3.9184    1.2288   15.6994 C   0  0  0  0  0  0  0  0  0  0  0  0
    3.7254    2.3341   19.2767 C   0  0  0  0  0  0  0  0  0  0  0  0
    2.8431    2.7725   20.0547 O   0  0  0  0  0  0  0  0  0  0  0  0
    5.0630    2.2786   19.6858 N   0  0  0  0  0  0  0  0  0  0  0  0
    5.3452    2.6628   21.0506 C   0  0  0  0  0  0  0  0  0  0  0  0
    6.6370    2.9146   21.4643 C   0  0  0  0  0  0  0  0  0  0  0  0
    6.9455    3.2833   22.7562 C   0  0  0  0  0  0  0  0  0  0  0  0
    5.9188    3.4043   23.6690 C   0  0  0  0  0  0  0  0  0  0  0  0
    4.6009    3.1603   23.2969 C   0  0  0  0  0  0  0  0  0  0  0  0
    4.3429    2.7933   21.9896 C   0  0  0  0  0  0  0  0  0  0  0  0
    6.2425    3.7902   25.0194 C   0  0  0  0  0  0  0  0  0  0  0  0
    6.5212    4.0973   26.1057 N   0  0  0  0  0  0  0  0  0  0  0  0
    0.4801    0.9982   15.7513 N   0  0  0  0  0  0  0  0  0  0  0  0
    0.6669    0.6011   14.4463 C   0  0  0  0  0  0  0  0  0  0  0  0
   -0.5035    0.2906   13.6383 C   0  0  0  0  0  0  0  0  0  0  0  0
   -1.4280    1.1760   13.1760 C   0  0  0  0  0  0  0  0  0  0  0  0
   -2.5638    0.8023   12.4398 C   0  0  0  0  0  0  0  0  0  0  0  0
   -2.7777   -0.5284   12.1552 C   0  0  0  0  0  0  0  0  0  0  0  0
   -1.8445   -1.4259   12.6205 C   0  0  0  0  0  0  0  0  0  0  0  0
   -0.7294   -1.0638   13.3431 C   0  0  0  0  0  0  0  0  0  0  0  0
    0.4938   -2.4227   13.9386 Br  0  0  0  0  0  0  0  0  0  0  0  0
   -3.9616   -0.6356   11.4208 O   0  0  0  0  0  0  0  0  0  0  0  0
   -4.2817    0.6578   10.9222 C   0  0  0  0  0  0  0  0  0  0  0  0
   -3.6257    1.4866   11.8710 O   0  0  0  0  0  0  0  0  0  0  0  0
  1  2  1  0
  2  3  1  0
  3  4  1  0
  4  5  1  0
  5  6  1  0
  6  7  1  0
  7  8  1  0
  2  9  1  0
  9 10  1  0
 10 11  1  0
 11 12  2  0
 12 13  1  0
 13 14  2  0
 14 15  1  0
 13 16  1  0
 16 17  2  0
 16 18  1  0
 18 19  1  0
 19 20  2  0
 20 21  1  0
 21 22  2  0
 22 23  1  0
 23 24  2  0
 22 25  1  0
 25 26  3  0
 11 27  1  0
 27 28  2  0
 28 29  1  0
 29 30  2  0
 30 31  1  0
 31 32  2  0
 32 33  1  0
 33 34  2  0
 34 35  1  0
 32 36  1  0
 36 37  1  0
 37 38  1  0
  8  3  1  0
 28  9  1  0
 15 10  2  0
 24 19  1  0
 34 29  1  0
 38 31  1  0
M  END
$$$$
