
     RDKit          3D

 38 43  0  0  0  0  0  0  0  0999 V2000
    5.2302   -0.3674   16.3495 C   0  0  0  0  0  0  0  0  0  0  0  0
    3.7686   -0.1096   16.4676 C   0  0  0  0  0  0  0  0  0  0  0  0
    2.8975   -1.3030   16.6227 C   0  0  0  0  0  0  0  0  0  0  0  0
    2.9646   -2.0502   15.2705 C   0  0  0  0  0  0  0  0  0  0  0  0
    1.6325   -1.9017   14.5754 C   0  0  0  0  0  0  0  0  0  0  0  0
    0.6195   -2.6748   15.4127 C   0  0  0  0  0  0  0  0  0  0  0  0
    0.4648   -1.9299   16.7075 C   0  0  0  0  0  0  0  0  0  0  0  0
    1.4803   -0.8495   16.8966 C   0  0  0  0  0  0  0  0  0  0  0  0
    3.3965    1.0597   17.2314 N   0  0  0  0  0  0  0  0  0  0  0  0
    3.7455    1.2603   18.5467 C   0  0  0  0  0  0  0  0  0  0  0  0
    3.2808    2.4689   18.9624 C   0  0  0  0  0  0  0  0  0  0  0  0
    3.4970    2.9317   20.2791 C   0  0  0  0  0  0  0  0  0  0  0  0
    4.1860    2.1726   21.1844 C   0  0  0  0  0  0  0  0  0  0  0  0
    4.6556    0.9487   20.7611 C   0  0  0  0  0  0  0  0  0  0  0  0
    4.4428    0.4952   19.4678 C   0  0  0  0  0  0  0  0  0  0  0  0
    4.4324    2.6164   22.5593 C   0  0  0  0  0  0  0  0  0  0  0  0
    4.6777    3.8312   22.7584 O   0  0  0  0  0  0  0  0  0  0  0  0
    4.3980    1.7180   23.6323 N   0  0  0  0  0  0  0  0  0  0  0  0
    4.5895    2.2715   24.9540 C   0  0  0  0  0  0  0  0  0  0  0  0
    5.2890    3.4464   25.1369 C   0  0  0  0  0  0  0  0  0  0  0  0
    5.4920    4.0051   26.3806 C   0  0  0  0  0  0  0  0  0  0  0  0
    4.9734    3.3606   27.4841 C   0  0  0  0  0  0  0  0  0  0  0  0
    4.2613    2.1736   27.3478 C   0  0  0  0  0  0  0  0  0  0  0  0
    4.0847    1.6535   26.0795 C   0  0  0  0  0  0  0  0  0  0  0  0
    5.1861    3.9459   28.7839 C   0  0  0  0  0  0  0  0  0  0  0  0
    5.3739    4.4099   29.8334 N   0  0  0  0  0  0  0  0  0  0  0  0
    2.6551    3.0084   17.9297 N   0  0  0  0  0  0  0  0  0  0  0  0
    2.7175    2.1494   16.8556 C   0  0  0  0  0  0  0  0  0  0  0  0
    2.1108    2.5611   15.5981 C   0  0  0  0  0  0  0  0  0  0  0  0
    0.7886    2.7923   15.3728 C   0  0  0  0  0  0  0  0  0  0  0  0
    0.2620    3.1414   14.1188 C   0  0  0  0  0  0  0  0  0  0  0  0
    1.1093    3.2641   13.0396 C   0  0  0  0  0  0  0  0  0  0  0  0
    2.4467    3.0318   13.2643 C   0  0  0  0  0  0  0  0  0  0  0  0
    2.9674    2.6890   14.4924 C   0  0  0  0  0  0  0  0  0  0  0  0
    4.8583    2.3864   14.6665 Br  0  0  0  0  0  0  0  0  0  0  0  0
    0.3484    3.6150   11.9216 O   0  0  0  0  0  0  0  0  0  0  0  0
   -0.9129    4.0827   12.3843 C   0  0  0  0  0  0  0  0  0  0  0  0
   -1.0067    3.4212   13.6377 O   0  0  0  0  0  0  0  0  0  0  0  0
  1  2  1  0
  2  3  1  0
  3  4  1  0
  4  5  1  0
  5  6  1  0
  6  7  1  0
  7  8  1  0
  2  9  1  0
  9 10  1  0
 10 11  1  0
 11 12  2  0
 12 13  1  0
 13 14  2  0
 14 15  1  0
 13 16  1  0
 16 17  2  0
 16 18  1  0
 18 19  1  0
 19 20  2  0
 20 21  1  0
 21 22  2  0
 22 23  1  0
 23 24  2  0
 22 25  1  0
 25 26  3  0
 11 27  1  0
 27 28  2  0
 28 29  1  0
 29 30  2  0
 30 31  1  0
 31 32  2  0
 32 33  1  0
 33 34  2  0
 34 35  1  0
 32 36  1  0
 36 37  1  0
 37 38  1  0
  8  3  1  0
 28  9  1  0
 15 10  2  0
 24 19  1  0
 34 29  1  0
 38 31  1  0
M  END
$$$$
