
     RDKit          3D

 38 43  0  0  0  0  0  0  0  0999 V2000
    0.0596   -0.5100   11.5533 C   0  0  0  0  0  0  0  0  0  0  0  0
    1.5344   -0.6893   11.6498 C   0  0  0  0  0  0  0  0  0  0  0  0
    2.3668    0.2281   10.8297 C   0  0  0  0  0  0  0  0  0  0  0  0
    1.6350    0.3598    9.4739 C   0  0  0  0  0  0  0  0  0  0  0  0
    2.4438   -0.3604    8.4218 C   0  0  0  0  0  0  0  0  0  0  0  0
    3.7391    0.4272    8.2582 C   0  0  0  0  0  0  0  0  0  0  0  0
    4.5184    0.2541    9.5304 C   0  0  0  0  0  0  0  0  0  0  0  0
    3.7322   -0.3911   10.6258 C   0  0  0  0  0  0  0  0  0  0  0  0
    2.0432   -1.0159   12.9628 N   0  0  0  0  0  0  0  0  0  0  0  0
    2.0473   -0.1405   14.0237 C   0  0  0  0  0  0  0  0  0  0  0  0
    2.5511   -0.7606   15.1243 C   0  0  0  0  0  0  0  0  0  0  0  0
    2.6717   -0.0897   16.3613 C   0  0  0  0  0  0  0  0  0  0  0  0
    2.2828    1.2149   16.4918 C   0  0  0  0  0  0  0  0  0  0  0  0
    1.7730    1.8409   15.3756 C   0  0  0  0  0  0  0  0  0  0  0  0
    1.6549    1.1813   14.1614 C   0  0  0  0  0  0  0  0  0  0  0  0
    2.3907    1.9464   17.7571 C   0  0  0  0  0  0  0  0  0  0  0  0
    1.3410    2.4016   18.2736 O   0  0  0  0  0  0  0  0  0  0  0  0
    3.6273    2.1396   18.3842 N   0  0  0  0  0  0  0  0  0  0  0  0
    3.7251    3.2468   19.3085 C   0  0  0  0  0  0  0  0  0  0  0  0
    2.6739    4.1238   19.4791 C   0  0  0  0  0  0  0  0  0  0  0  0
    2.7293    5.1904   20.3506 C   0  0  0  0  0  0  0  0  0  0  0  0
    3.8837    5.3853   21.0795 C   0  0  0  0  0  0  0  0  0  0  0  0
    4.9689    4.5265   20.9402 C   0  0  0  0  0  0  0  0  0  0  0  0
    4.8643    3.4716   20.0535 C   0  0  0  0  0  0  0  0  0  0  0  0
    3.9403    6.5007   21.9907 C   0  0  0  0  0  0  0  0  0  0  0  0
    3.9687    7.3972   22.7306 N   0  0  0  0  0  0  0  0  0  0  0  0
    2.8551   -1.9941   14.7568 N   0  0  0  0  0  0  0  0  0  0  0  0
    2.5483   -2.1649   13.4255 C   0  0  0  0  0  0  0  0  0  0  0  0
    2.7801   -3.4676   12.8188 C   0  0  0  0  0  0  0  0  0  0  0  0
    3.9738   -3.9625   12.3915 C   0  0  0  0  0  0  0  0  0  0  0  0
    4.1202   -5.2124   11.7686 C   0  0  0  0  0  0  0  0  0  0  0  0
    3.0096   -6.0021   11.5672 C   0  0  0  0  0  0  0  0  0  0  0  0
    1.8015   -5.5050   11.9988 C   0  0  0  0  0  0  0  0  0  0  0  0
    1.6533   -4.2796   12.6099 C   0  0  0  0  0  0  0  0  0  0  0  0
   -0.0965   -3.7028   13.1599 Br  0  0  0  0  0  0  0  0  0  0  0  0
    3.4171   -7.1805   10.9366 O   0  0  0  0  0  0  0  0  0  0  0  0
    4.8272   -7.2896   11.0902 C   0  0  0  0  0  0  0  0  0  0  0  0
    5.1906   -5.9265   11.2551 O   0  0  0  0  0  0  0  0  0  0  0  0
  1  2  1  0
  2  3  1  0
  3  4  1  0
  4  5  1  0
  5  6  1  0
  6  7  1  0
  7  8  1  0
  2  9  1  0
  9 10  1  0
 10 11  1  0
 11 12  2  0
 12 13  1  0
 13 14  2  0
 14 15  1  0
 13 16  1  0
 16 17  2  0
 16 18  1  0
 18 19  1  0
 19 20  2  0
 20 21  1  0
 21 22  2  0
 22 23  1  0
 23 24  2  0
 22 25  1  0
 25 26  3  0
 11 27  1  0
 27 28  2  0
 28 29  1  0
 29 30  2  0
 30 31  1  0
 31 32  2  0
 32 33  1  0
 33 34  2  0
 34 35  1  0
 32 36  1  0
 36 37  1  0
 37 38  1  0
  8  3  1  0
 28  9  1  0
 15 10  2  0
 24 19  1  0
 34 29  1  0
 38 31  1  0
M  END
$$$$
