
     RDKit          3D

 38 43  0  0  0  0  0  0  0  0999 V2000
   -0.3312   -0.5832   12.5208 C   0  0  0  0  0  0  0  0  0  0  0  0
    1.1265   -0.7241   12.2529 C   0  0  0  0  0  0  0  0  0  0  0  0
    1.7153    0.2327   11.2807 C   0  0  0  0  0  0  0  0  0  0  0  0
    0.6737    0.3728   10.1464 C   0  0  0  0  0  0  0  0  0  0  0  0
    1.2184   -0.3030    8.9108 C   0  0  0  0  0  0  0  0  0  0  0  0
    2.4181    0.5229    8.4599 C   0  0  0  0  0  0  0  0  0  0  0  0
    3.4863    0.3444    9.5005 C   0  0  0  0  0  0  0  0  0  0  0  0
    3.0033   -0.3447   10.7358 C   0  0  0  0  0  0  0  0  0  0  0  0
    1.9453   -1.0637   13.3947 N   0  0  0  0  0  0  0  0  0  0  0  0
    2.0324   -0.2955   14.5323 C   0  0  0  0  0  0  0  0  0  0  0  0
    2.8486   -0.9056   15.4329 C   0  0  0  0  0  0  0  0  0  0  0  0
    3.1177   -0.3317   16.6950 C   0  0  0  0  0  0  0  0  0  0  0  0
    2.5616    0.8651   17.0536 C   0  0  0  0  0  0  0  0  0  0  0  0
    1.7353    1.4813   16.1396 C   0  0  0  0  0  0  0  0  0  0  0  0
    1.4716    0.9169   14.9005 C   0  0  0  0  0  0  0  0  0  0  0  0
    2.8146    1.4937   18.3531 C   0  0  0  0  0  0  0  0  0  0  0  0
    3.0827    0.7537   19.3309 O   0  0  0  0  0  0  0  0  0  0  0  0
    2.7617    2.8834   18.5131 N   0  0  0  0  0  0  0  0  0  0  0  0
    3.3727    3.4275   19.7050 C   0  0  0  0  0  0  0  0  0  0  0  0
    3.6366    4.7771   19.8144 C   0  0  0  0  0  0  0  0  0  0  0  0
    4.2174    5.3328   20.9342 C   0  0  0  0  0  0  0  0  0  0  0  0
    4.5466    4.5029   21.9854 C   0  0  0  0  0  0  0  0  0  0  0  0
    4.2991    3.1358   21.9195 C   0  0  0  0  0  0  0  0  0  0  0  0
    3.7148    2.6267   20.7751 C   0  0  0  0  0  0  0  0  0  0  0  0
    5.1535    5.0852   23.1559 C   0  0  0  0  0  0  0  0  0  0  0  0
    5.6449    5.5707   24.0912 N   0  0  0  0  0  0  0  0  0  0  0  0
    3.2617   -2.0280   14.8683 N   0  0  0  0  0  0  0  0  0  0  0  0
    2.7134   -2.1376   13.6102 C   0  0  0  0  0  0  0  0  0  0  0  0
    3.0176   -3.3205   12.8183 C   0  0  0  0  0  0  0  0  0  0  0  0
    4.2455   -3.7067   12.3761 C   0  0  0  0  0  0  0  0  0  0  0  0
    4.4633   -4.8373   11.5723 C   0  0  0  0  0  0  0  0  0  0  0  0
    3.3914   -5.6169   11.1967 C   0  0  0  0  0  0  0  0  0  0  0  0
    2.1490   -5.2295   11.6429 C   0  0  0  0  0  0  0  0  0  0  0  0
    1.9307   -4.1213   12.4310 C   0  0  0  0  0  0  0  0  0  0  0  0
    0.1394   -3.6897   12.9806 Br  0  0  0  0  0  0  0  0  0  0  0  0
    3.8677   -6.6681   10.4092 O   0  0  0  0  0  0  0  0  0  0  0  0
    5.2730   -6.7595   10.6109 C   0  0  0  0  0  0  0  0  0  0  0  0
    5.5796   -5.4298   11.0048 O   0  0  0  0  0  0  0  0  0  0  0  0
  1  2  1  0
  2  3  1  0
  3  4  1  0
  4  5  1  0
  5  6  1  0
  6  7  1  0
  7  8  1  0
  2  9  1  0
  9 10  1  0
 10 11  1  0
 11 12  2  0
 12 13  1  0
 13 14  2  0
 14 15  1  0
 13 16  1  0
 16 17  2  0
 16 18  1  0
 18 19  1  0
 19 20  2  0
 20 21  1  0
 21 22  2  0
 22 23  1  0
 23 24  2  0
 22 25  1  0
 25 26  3  0
 11 27  1  0
 27 28  2  0
 28 29  1  0
 29 30  2  0
 30 31  1  0
 31 32  2  0
 32 33  1  0
 33 34  2  0
 34 35  1  0
 32 36  1  0
 36 37  1  0
 37 38  1  0
  8  3  1  0
 28  9  1  0
 15 10  2  0
 24 19  1  0
 34 29  1  0
 38 31  1  0
M  END
$$$$
