
     RDKit          3D

 38 43  0  0  0  0  0  0  0  0999 V2000
   -2.6068   -1.1024   13.3131 C   0  0  0  0  0  0  0  0  0  0  0  0
   -1.2151   -0.8849   12.8313 C   0  0  0  0  0  0  0  0  0  0  0  0
   -0.9397   -1.2530   11.4185 C   0  0  0  0  0  0  0  0  0  0  0  0
   -2.3105   -1.2280   10.7034 C   0  0  0  0  0  0  0  0  0  0  0  0
   -2.7055   -2.6483   10.3767 C   0  0  0  0  0  0  0  0  0  0  0  0
   -1.7140   -3.1425    9.3292 C   0  0  0  0  0  0  0  0  0  0  0  0
   -0.3810   -3.2593   10.0113 C   0  0  0  0  0  0  0  0  0  0  0  0
   -0.3557   -2.6480   11.3750 C   0  0  0  0  0  0  0  0  0  0  0  0
   -0.5583    0.3047   13.3238 N   0  0  0  0  0  0  0  0  0  0  0  0
   -1.1935    1.5101   13.5118 C   0  0  0  0  0  0  0  0  0  0  0  0
   -0.3146    2.4140   14.0218 C   0  0  0  0  0  0  0  0  0  0  0  0
   -0.7024    3.7407   14.3119 C   0  0  0  0  0  0  0  0  0  0  0  0
   -1.9843    4.1611   14.0870 C   0  0  0  0  0  0  0  0  0  0  0  0
   -2.8727    3.2439   13.5703 C   0  0  0  0  0  0  0  0  0  0  0  0
   -2.4908    1.9413   13.2857 C   0  0  0  0  0  0  0  0  0  0  0  0
   -2.4270    5.5282   14.3750 C   0  0  0  0  0  0  0  0  0  0  0  0
   -3.6378    5.7176   14.6467 O   0  0  0  0  0  0  0  0  0  0  0  0
   -1.5321    6.6044   14.3511 N   0  0  0  0  0  0  0  0  0  0  0  0
   -1.8624    7.7470   15.1728 C   0  0  0  0  0  0  0  0  0  0  0  0
   -1.3440    8.9949   14.8946 C   0  0  0  0  0  0  0  0  0  0  0  0
   -1.6357   10.1075   15.6542 C   0  0  0  0  0  0  0  0  0  0  0  0
   -2.4801    9.9635   16.7350 C   0  0  0  0  0  0  0  0  0  0  0  0
   -3.0264    8.7246   17.0534 C   0  0  0  0  0  0  0  0  0  0  0  0
   -2.7035    7.6392   16.2611 C   0  0  0  0  0  0  0  0  0  0  0  0
   -2.7847   11.1277   17.5283 C   0  0  0  0  0  0  0  0  0  0  0  0
   -3.0374   12.0560   18.1812 N   0  0  0  0  0  0  0  0  0  0  0  0
    0.8425    1.7860   14.1474 N   0  0  0  0  0  0  0  0  0  0  0  0
    0.7070    0.4845   13.7193 C   0  0  0  0  0  0  0  0  0  0  0  0
    1.8618   -0.3982   13.7972 C   0  0  0  0  0  0  0  0  0  0  0  0
    2.1505   -1.2694   14.8022 C   0  0  0  0  0  0  0  0  0  0  0  0
    3.3107   -2.0595   14.8382 C   0  0  0  0  0  0  0  0  0  0  0  0
    4.2240   -1.9676   13.8111 C   0  0  0  0  0  0  0  0  0  0  0  0
    3.9347   -1.0883   12.7932 C   0  0  0  0  0  0  0  0  0  0  0  0
    2.7982   -0.3113   12.7539 C   0  0  0  0  0  0  0  0  0  0  0  0
    2.5196    0.8823   11.2724 Br  0  0  0  0  0  0  0  0  0  0  0  0
    5.2776   -2.8448   14.0804 O   0  0  0  0  0  0  0  0  0  0  0  0
    4.8374   -3.7585   15.0780 C   0  0  0  0  0  0  0  0  0  0  0  0
    3.8257   -2.9959   15.7199 O   0  0  0  0  0  0  0  0  0  0  0  0
  1  2  1  0
  2  3  1  0
  3  4  1  0
  4  5  1  0
  5  6  1  0
  6  7  1  0
  7  8  1  0
  2  9  1  0
  9 10  1  0
 10 11  1  0
 11 12  2  0
 12 13  1  0
 13 14  2  0
 14 15  1  0
 13 16  1  0
 16 17  2  0
 16 18  1  0
 18 19  1  0
 19 20  2  0
 20 21  1  0
 21 22  2  0
 22 23  1  0
 23 24  2  0
 22 25  1  0
 25 26  3  0
 11 27  1  0
 27 28  2  0
 28 29  1  0
 29 30  2  0
 30 31  1  0
 31 32  2  0
 32 33  1  0
 33 34  2  0
 34 35  1  0
 32 36  1  0
 36 37  1  0
 37 38  1  0
  8  3  1  0
 28  9  1  0
 15 10  2  0
 24 19  1  0
 34 29  1  0
 38 31  1  0
M  END
$$$$
