
     RDKit          3D

 38 43  0  0  0  0  0  0  0  0999 V2000
   -0.6296   -1.8215   15.3520 C   0  0  0  0  0  0  0  0  0  0  0  0
    0.2314   -1.1971   14.3103 C   0  0  0  0  0  0  0  0  0  0  0  0
   -0.4710   -0.4787   13.2159 C   0  0  0  0  0  0  0  0  0  0  0  0
   -1.2609   -1.5603   12.4431 C   0  0  0  0  0  0  0  0  0  0  0  0
   -0.6090   -1.7572   11.0954 C   0  0  0  0  0  0  0  0  0  0  0  0
   -0.8282   -0.4650   10.3163 C   0  0  0  0  0  0  0  0  0  0  0  0
   -0.0070    0.5959   10.9915 C   0  0  0  0  0  0  0  0  0  0  0  0
    0.5541    0.1650   12.3082 C   0  0  0  0  0  0  0  0  0  0  0  0
    1.4592   -0.6000   14.7849 N   0  0  0  0  0  0  0  0  0  0  0  0
    1.5150    0.5702   15.5056 C   0  0  0  0  0  0  0  0  0  0  0  0
    2.8062    0.8410   15.8358 C   0  0  0  0  0  0  0  0  0  0  0  0
    3.1543    1.9901   16.5795 C   0  0  0  0  0  0  0  0  0  0  0  0
    2.1960    2.8735   16.9939 C   0  0  0  0  0  0  0  0  0  0  0  0
    0.8889    2.5971   16.6581 C   0  0  0  0  0  0  0  0  0  0  0  0
    0.5481    1.4684   15.9279 C   0  0  0  0  0  0  0  0  0  0  0  0
    2.5151    4.0766   17.7675 C   0  0  0  0  0  0  0  0  0  0  0  0
    3.4532    4.0186   18.5996 O   0  0  0  0  0  0  0  0  0  0  0  0
    1.7994    5.2669   17.5924 N   0  0  0  0  0  0  0  0  0  0  0  0
    1.9848    6.2938   18.5928 C   0  0  0  0  0  0  0  0  0  0  0  0
    1.2305    7.4488   18.5726 C   0  0  0  0  0  0  0  0  0  0  0  0
    1.3780    8.4498   19.5087 C   0  0  0  0  0  0  0  0  0  0  0  0
    2.3185    8.2864   20.5041 C   0  0  0  0  0  0  0  0  0  0  0  0
    3.1017    7.1386   20.5642 C   0  0  0  0  0  0  0  0  0  0  0  0
    2.9160    6.1636   19.6024 C   0  0  0  0  0  0  0  0  0  0  0  0
    2.4715    9.3336   21.4826 C   0  0  0  0  0  0  0  0  0  0  0  0
    2.5777   10.1835   22.2689 N   0  0  0  0  0  0  0  0  0  0  0  0
    3.5384   -0.1378   15.3309 N   0  0  0  0  0  0  0  0  0  0  0  0
    2.7205   -1.0330   14.6788 C   0  0  0  0  0  0  0  0  0  0  0  0
    3.3223   -2.2095   14.0684 C   0  0  0  0  0  0  0  0  0  0  0  0
    3.2560   -3.4874   14.5320 C   0  0  0  0  0  0  0  0  0  0  0  0
    3.9026   -4.5726   13.9187 C   0  0  0  0  0  0  0  0  0  0  0  0
    4.6516   -4.3594   12.7824 C   0  0  0  0  0  0  0  0  0  0  0  0
    4.7199   -3.0687   12.3108 C   0  0  0  0  0  0  0  0  0  0  0  0
    4.0878   -2.0015   12.9093 C   0  0  0  0  0  0  0  0  0  0  0  0
    4.2713   -0.2455   12.1479 Br  0  0  0  0  0  0  0  0  0  0  0  0
    5.1850   -5.5838   12.3719 O   0  0  0  0  0  0  0  0  0  0  0  0
    4.4592   -6.6157   13.0295 C   0  0  0  0  0  0  0  0  0  0  0  0
    3.9924   -5.9297   14.1822 O   0  0  0  0  0  0  0  0  0  0  0  0
  1  2  1  0
  2  3  1  0
  3  4  1  0
  4  5  1  0
  5  6  1  0
  6  7  1  0
  7  8  1  0
  2  9  1  0
  9 10  1  0
 10 11  1  0
 11 12  2  0
 12 13  1  0
 13 14  2  0
 14 15  1  0
 13 16  1  0
 16 17  2  0
 16 18  1  0
 18 19  1  0
 19 20  2  0
 20 21  1  0
 21 22  2  0
 22 23  1  0
 23 24  2  0
 22 25  1  0
 25 26  3  0
 11 27  1  0
 27 28  2  0
 28 29  1  0
 29 30  2  0
 30 31  1  0
 31 32  2  0
 32 33  1  0
 33 34  2  0
 34 35  1  0
 32 36  1  0
 36 37  1  0
 37 38  1  0
  8  3  1  0
 28  9  1  0
 15 10  2  0
 24 19  1  0
 34 29  1  0
 38 31  1  0
M  END
$$$$
