
     RDKit          3D

 38 43  0  0  0  0  0  0  0  0999 V2000
    3.2426   -0.5916   12.3151 C   0  0  0  0  0  0  0  0  0  0  0  0
    2.0658   -0.6116   13.2268 C   0  0  0  0  0  0  0  0  0  0  0  0
    0.8977   -1.4139   12.7806 C   0  0  0  0  0  0  0  0  0  0  0  0
    0.9668   -1.4327   11.2360 C   0  0  0  0  0  0  0  0  0  0  0  0
   -0.1594   -0.5840   10.6964 C   0  0  0  0  0  0  0  0  0  0  0  0
   -1.4539   -1.3079   11.0503 C   0  0  0  0  0  0  0  0  0  0  0  0
   -1.5985   -1.2379   12.5436 C   0  0  0  0  0  0  0  0  0  0  0  0
   -0.3741   -0.7325   13.2362 C   0  0  0  0  0  0  0  0  0  0  0  0
    2.3665   -0.6476   14.6402 N   0  0  0  0  0  0  0  0  0  0  0  0
    2.3997    0.4663   15.4463 C   0  0  0  0  0  0  0  0  0  0  0  0
    2.6700    0.0948   16.7263 C   0  0  0  0  0  0  0  0  0  0  0  0
    2.7641    1.0439   17.7680 C   0  0  0  0  0  0  0  0  0  0  0  0
    2.5852    2.3769   17.5199 C   0  0  0  0  0  0  0  0  0  0  0  0
    2.3117    2.7508   16.2225 C   0  0  0  0  0  0  0  0  0  0  0  0
    2.2194    1.8180   15.2004 C   0  0  0  0  0  0  0  0  0  0  0  0
    2.6738    3.3931   18.5722 C   0  0  0  0  0  0  0  0  0  0  0  0
    2.7328    3.0107   19.7663 O   0  0  0  0  0  0  0  0  0  0  0  0
    2.6931    4.7590   18.2665 N   0  0  0  0  0  0  0  0  0  0  0  0
    2.3241    5.6708   19.3259 C   0  0  0  0  0  0  0  0  0  0  0  0
    2.3508    5.2724   20.6465 C   0  0  0  0  0  0  0  0  0  0  0  0
    2.0065    6.1124   21.6837 C   0  0  0  0  0  0  0  0  0  0  0  0
    1.6203    7.4023   21.3854 C   0  0  0  0  0  0  0  0  0  0  0  0
    1.5783    7.8479   20.0684 C   0  0  0  0  0  0  0  0  0  0  0  0
    1.9329    6.9675   19.0637 C   0  0  0  0  0  0  0  0  0  0  0  0
    1.2609    8.2798   22.4708 C   0  0  0  0  0  0  0  0  0  0  0  0
    0.9639    8.9735   23.3555 N   0  0  0  0  0  0  0  0  0  0  0  0
    2.8034   -1.2209   16.7174 N   0  0  0  0  0  0  0  0  0  0  0  0
    2.6201   -1.6920   15.4368 C   0  0  0  0  0  0  0  0  0  0  0  0
    2.6975   -3.1269   15.2046 C   0  0  0  0  0  0  0  0  0  0  0  0
    3.8081   -3.8340   14.8596 C   0  0  0  0  0  0  0  0  0  0  0  0
    3.8033   -5.2144   14.6024 C   0  0  0  0  0  0  0  0  0  0  0  0
    2.6219   -5.9163   14.6982 C   0  0  0  0  0  0  0  0  0  0  0  0
    1.4976   -5.2045   15.0476 C   0  0  0  0  0  0  0  0  0  0  0  0
    1.4976   -3.8506   15.3004 C   0  0  0  0  0  0  0  0  0  0  0  0
   -0.1485   -2.9771   15.7744 Br  0  0  0  0  0  0  0  0  0  0  0  0
    2.8814   -7.2559   14.3976 O   0  0  0  0  0  0  0  0  0  0  0  0
    4.2868   -7.4568   14.4884 C   0  0  0  0  0  0  0  0  0  0  0  0
    4.7671   -6.1427   14.2436 O   0  0  0  0  0  0  0  0  0  0  0  0
  1  2  1  0
  2  3  1  0
  3  4  1  0
  4  5  1  0
  5  6  1  0
  6  7  1  0
  7  8  1  0
  2  9  1  0
  9 10  1  0
 10 11  1  0
 11 12  2  0
 12 13  1  0
 13 14  2  0
 14 15  1  0
 13 16  1  0
 16 17  2  0
 16 18  1  0
 18 19  1  0
 19 20  2  0
 20 21  1  0
 21 22  2  0
 22 23  1  0
 23 24  2  0
 22 25  1  0
 25 26  3  0
 11 27  1  0
 27 28  2  0
 28 29  1  0
 29 30  2  0
 30 31  1  0
 31 32  2  0
 32 33  1  0
 33 34  2  0
 34 35  1  0
 32 36  1  0
 36 37  1  0
 37 38  1  0
  8  3  1  0
 28  9  1  0
 15 10  2  0
 24 19  1  0
 34 29  1  0
 38 31  1  0
M  END
$$$$
