
     RDKit          3D

 38 43  0  0  0  0  0  0  0  0999 V2000
    2.2995    0.2449   12.3599 C   0  0  0  0  0  0  0  0  0  0  0  0
    1.7097   -0.4561   13.5336 C   0  0  0  0  0  0  0  0  0  0  0  0
    2.3005   -1.7740   13.8816 C   0  0  0  0  0  0  0  0  0  0  0  0
    2.9970   -2.2748   12.5951 C   0  0  0  0  0  0  0  0  0  0  0  0
    2.2071   -3.4383   12.0455 C   0  0  0  0  0  0  0  0  0  0  0  0
    2.3547   -4.5746   13.0514 C   0  0  0  0  0  0  0  0  0  0  0  0
    1.6168   -4.1579   14.2914 C   0  0  0  0  0  0  0  0  0  0  0  0
    1.1919   -2.7249   14.2768 C   0  0  0  0  0  0  0  0  0  0  0  0
    1.3268    0.3882   14.6425 N   0  0  0  0  0  0  0  0  0  0  0  0
    2.0468    0.4958   15.8095 C   0  0  0  0  0  0  0  0  0  0  0  0
    1.4480    1.3972   16.6331 C   0  0  0  0  0  0  0  0  0  0  0  0
    1.9783    1.7028   17.9059 C   0  0  0  0  0  0  0  0  0  0  0  0
    3.1197    1.0967   18.3535 C   0  0  0  0  0  0  0  0  0  0  0  0
    3.7244    0.1839   17.5175 C   0  0  0  0  0  0  0  0  0  0  0  0
    3.2028   -0.1154   16.2678 C   0  0  0  0  0  0  0  0  0  0  0  0
    3.7027    1.3862   19.6665 C   0  0  0  0  0  0  0  0  0  0  0  0
    3.2053    2.3161   20.3474 O   0  0  0  0  0  0  0  0  0  0  0  0
    4.7871    0.6516   20.1605 N   0  0  0  0  0  0  0  0  0  0  0  0
    5.2614    0.9956   21.4821 C   0  0  0  0  0  0  0  0  0  0  0  0
    5.7359    0.0255   22.3406 C   0  0  0  0  0  0  0  0  0  0  0  0
    6.1965    0.3143   23.6073 C   0  0  0  0  0  0  0  0  0  0  0  0
    6.1807    1.6270   24.0298 C   0  0  0  0  0  0  0  0  0  0  0  0
    5.7111    2.6384   23.1985 C   0  0  0  0  0  0  0  0  0  0  0  0
    5.2599    2.2979   21.9373 C   0  0  0  0  0  0  0  0  0  0  0  0
    6.6629    1.9278   25.3544 C   0  0  0  0  0  0  0  0  0  0  0  0
    7.0431    2.1865   26.4223 N   0  0  0  0  0  0  0  0  0  0  0  0
    0.3782    1.8402   15.9940 N   0  0  0  0  0  0  0  0  0  0  0  0
    0.2904    1.2251   14.7654 C   0  0  0  0  0  0  0  0  0  0  0  0
   -0.8066    1.5896   13.8807 C   0  0  0  0  0  0  0  0  0  0  0  0
   -2.1289    1.3373   14.0818 C   0  0  0  0  0  0  0  0  0  0  0  0
   -3.1344    1.6747   13.1617 C   0  0  0  0  0  0  0  0  0  0  0  0
   -2.7907    2.2972   11.9818 C   0  0  0  0  0  0  0  0  0  0  0  0
   -1.4548    2.5542   11.7760 C   0  0  0  0  0  0  0  0  0  0  0  0
   -0.4653    2.2249   12.6755 C   0  0  0  0  0  0  0  0  0  0  0  0
    1.3662    2.6370   12.2594 Br  0  0  0  0  0  0  0  0  0  0  0  0
   -3.9581    2.5233   11.2483 O   0  0  0  0  0  0  0  0  0  0  0  0
   -5.0615    2.3883   12.1360 C   0  0  0  0  0  0  0  0  0  0  0  0
   -4.5120    1.5318   13.1269 O   0  0  0  0  0  0  0  0  0  0  0  0
  1  2  1  0
  2  3  1  0
  3  4  1  0
  4  5  1  0
  5  6  1  0
  6  7  1  0
  7  8  1  0
  2  9  1  0
  9 10  1  0
 10 11  1  0
 11 12  2  0
 12 13  1  0
 13 14  2  0
 14 15  1  0
 13 16  1  0
 16 17  2  0
 16 18  1  0
 18 19  1  0
 19 20  2  0
 20 21  1  0
 21 22  2  0
 22 23  1  0
 23 24  2  0
 22 25  1  0
 25 26  3  0
 11 27  1  0
 27 28  2  0
 28 29  1  0
 29 30  2  0
 30 31  1  0
 31 32  2  0
 32 33  1  0
 33 34  2  0
 34 35  1  0
 32 36  1  0
 36 37  1  0
 37 38  1  0
  8  3  1  0
 28  9  1  0
 15 10  2  0
 24 19  1  0
 34 29  1  0
 38 31  1  0
M  END
$$$$
