
     RDKit          3D

 38 43  0  0  0  0  0  0  0  0999 V2000
    3.1679    1.0732   12.6950 C   0  0  0  0  0  0  0  0  0  0  0  0
    2.9858   -0.1428   13.5345 C   0  0  0  0  0  0  0  0  0  0  0  0
    4.0593   -1.1669   13.4560 C   0  0  0  0  0  0  0  0  0  0  0  0
    4.2988   -1.4092   11.9477 C   0  0  0  0  0  0  0  0  0  0  0  0
    3.7788   -2.7823   11.5954 C   0  0  0  0  0  0  0  0  0  0  0  0
    4.6795   -3.7824   12.3117 C   0  0  0  0  0  0  0  0  0  0  0  0
    4.4131   -3.6339   13.7823 C   0  0  0  0  0  0  0  0  0  0  0  0
    3.5787   -2.4399   14.1175 C   0  0  0  0  0  0  0  0  0  0  0  0
    2.4017    0.0755   14.8384 N   0  0  0  0  0  0  0  0  0  0  0  0
    2.9386    0.9113   15.7897 C   0  0  0  0  0  0  0  0  0  0  0  0
    2.1343    0.9302   16.8862 C   0  0  0  0  0  0  0  0  0  0  0  0
    2.4490    1.7094   18.0213 C   0  0  0  0  0  0  0  0  0  0  0  0
    3.5816    2.4753   18.0535 C   0  0  0  0  0  0  0  0  0  0  0  0
    4.3948    2.4545   16.9417 C   0  0  0  0  0  0  0  0  0  0  0  0
    4.0849    1.6890   15.8275 C   0  0  0  0  0  0  0  0  0  0  0  0
    3.9438    3.2981   19.2109 C   0  0  0  0  0  0  0  0  0  0  0  0
    5.1599    3.5264   19.4226 O   0  0  0  0  0  0  0  0  0  0  0  0
    2.9677    3.8224   20.0665 N   0  0  0  0  0  0  0  0  0  0  0  0
    3.0669    5.2286   20.3868 C   0  0  0  0  0  0  0  0  0  0  0  0
    2.0865    5.8593   21.1245 C   0  0  0  0  0  0  0  0  0  0  0  0
    2.1459    7.1975   21.4500 C   0  0  0  0  0  0  0  0  0  0  0  0
    3.2306    7.9320   21.0190 C   0  0  0  0  0  0  0  0  0  0  0  0
    4.2431    7.3383   20.2726 C   0  0  0  0  0  0  0  0  0  0  0  0
    4.1376    5.9934   19.9720 C   0  0  0  0  0  0  0  0  0  0  0  0
    3.2918    9.3310   21.3602 C   0  0  0  0  0  0  0  0  0  0  0  0
    3.3475   10.4552   21.6521 N   0  0  0  0  0  0  0  0  0  0  0  0
    1.1199    0.1231   16.6243 N   0  0  0  0  0  0  0  0  0  0  0  0
    1.2727   -0.4121   15.3650 C   0  0  0  0  0  0  0  0  0  0  0  0
    0.2464   -1.3134   14.8619 C   0  0  0  0  0  0  0  0  0  0  0  0
    0.1728   -2.6563   15.0710 C   0  0  0  0  0  0  0  0  0  0  0  0
   -0.8209   -3.4775   14.5143 C   0  0  0  0  0  0  0  0  0  0  0  0
   -1.7878   -2.9179   13.7084 C   0  0  0  0  0  0  0  0  0  0  0  0
   -1.7166   -1.5605   13.4957 C   0  0  0  0  0  0  0  0  0  0  0  0
   -0.7437   -0.7513   14.0394 C   0  0  0  0  0  0  0  0  0  0  0  0
   -0.7577    1.1327   13.6557 Br  0  0  0  0  0  0  0  0  0  0  0  0
   -2.6486   -3.9339   13.2851 O   0  0  0  0  0  0  0  0  0  0  0  0
   -2.4429   -5.0580   14.1324 C   0  0  0  0  0  0  0  0  0  0  0  0
   -1.1105   -4.8312   14.5690 O   0  0  0  0  0  0  0  0  0  0  0  0
  1  2  1  0
  2  3  1  0
  3  4  1  0
  4  5  1  0
  5  6  1  0
  6  7  1  0
  7  8  1  0
  2  9  1  0
  9 10  1  0
 10 11  1  0
 11 12  2  0
 12 13  1  0
 13 14  2  0
 14 15  1  0
 13 16  1  0
 16 17  2  0
 16 18  1  0
 18 19  1  0
 19 20  2  0
 20 21  1  0
 21 22  2  0
 22 23  1  0
 23 24  2  0
 22 25  1  0
 25 26  3  0
 11 27  1  0
 27 28  2  0
 28 29  1  0
 29 30  2  0
 30 31  1  0
 31 32  2  0
 32 33  1  0
 33 34  2  0
 34 35  1  0
 32 36  1  0
 36 37  1  0
 37 38  1  0
  8  3  1  0
 28  9  1  0
 15 10  2  0
 24 19  1  0
 34 29  1  0
 38 31  1  0
M  END
$$$$
