
     RDKit          3D

 38 43  0  0  0  0  0  0  0  0999 V2000
   -3.2696    2.8445    9.6179 C   0  0  0  0  0  0  0  0  0  0  0  0
   -3.0306    2.1146   10.8932 C   0  0  0  0  0  0  0  0  0  0  0  0
   -1.7592    1.3520   10.9900 C   0  0  0  0  0  0  0  0  0  0  0  0
   -0.6301    2.3973   10.8367 C   0  0  0  0  0  0  0  0  0  0  0  0
    0.0357    2.1893    9.4976 C   0  0  0  0  0  0  0  0  0  0  0  0
    0.7431    0.8406    9.5715 C   0  0  0  0  0  0  0  0  0  0  0  0
   -0.3278   -0.2104    9.6380 C   0  0  0  0  0  0  0  0  0  0  0  0
   -1.6962    0.3487    9.8593 C   0  0  0  0  0  0  0  0  0  0  0  0
   -3.4669    2.7893   12.0947 N   0  0  0  0  0  0  0  0  0  0  0  0
   -3.0623    4.0537   12.4548 C   0  0  0  0  0  0  0  0  0  0  0  0
   -3.6798    4.4180   13.6104 C   0  0  0  0  0  0  0  0  0  0  0  0
   -3.4448    5.6748   14.2104 C   0  0  0  0  0  0  0  0  0  0  0  0
   -2.5819    6.5717   13.6435 C   0  0  0  0  0  0  0  0  0  0  0  0
   -1.9575    6.2003   12.4731 C   0  0  0  0  0  0  0  0  0  0  0  0
   -2.1890    4.9659   11.8846 C   0  0  0  0  0  0  0  0  0  0  0  0
   -2.3111    7.8856   14.2335 C   0  0  0  0  0  0  0  0  0  0  0  0
   -3.0911    8.3133   15.1192 O   0  0  0  0  0  0  0  0  0  0  0  0
   -1.2136    8.6543   13.8283 N   0  0  0  0  0  0  0  0  0  0  0  0
   -1.0239    9.9237   14.4935 C   0  0  0  0  0  0  0  0  0  0  0  0
    0.2325   10.4802   14.6156 C   0  0  0  0  0  0  0  0  0  0  0  0
    0.4532   11.6879   15.2423 C   0  0  0  0  0  0  0  0  0  0  0  0
   -0.6281   12.3642   15.7671 C   0  0  0  0  0  0  0  0  0  0  0  0
   -1.9132   11.8415   15.6675 C   0  0  0  0  0  0  0  0  0  0  0  0
   -2.0827   10.6271   15.0298 C   0  0  0  0  0  0  0  0  0  0  0  0
   -0.3962   13.6271   16.4218 C   0  0  0  0  0  0  0  0  0  0  0  0
   -0.1934   14.6476   16.9408 N   0  0  0  0  0  0  0  0  0  0  0  0
   -4.4507    3.4028   13.9629 N   0  0  0  0  0  0  0  0  0  0  0  0
   -4.3280    2.3907   13.0377 C   0  0  0  0  0  0  0  0  0  0  0  0
   -5.1168    1.1810   13.2199 C   0  0  0  0  0  0  0  0  0  0  0  0
   -6.4624    1.0579   13.0574 C   0  0  0  0  0  0  0  0  0  0  0  0
   -7.1700   -0.1310   13.2974 C   0  0  0  0  0  0  0  0  0  0  0  0
   -6.4880   -1.2504   13.7210 C   0  0  0  0  0  0  0  0  0  0  0  0
   -5.1274   -1.1294   13.8854 C   0  0  0  0  0  0  0  0  0  0  0  0
   -4.4294    0.0347   13.6516 C   0  0  0  0  0  0  0  0  0  0  0  0
   -2.5267    0.0679   13.9268 Br  0  0  0  0  0  0  0  0  0  0  0  0
   -7.4081   -2.2887   13.8865 O   0  0  0  0  0  0  0  0  0  0  0  0
   -8.6009   -1.9249   13.2019 C   0  0  0  0  0  0  0  0  0  0  0  0
   -8.5003   -0.5082   13.2113 O   0  0  0  0  0  0  0  0  0  0  0  0
  1  2  1  0
  2  3  1  0
  3  4  1  0
  4  5  1  0
  5  6  1  0
  6  7  1  0
  7  8  1  0
  2  9  1  0
  9 10  1  0
 10 11  1  0
 11 12  2  0
 12 13  1  0
 13 14  2  0
 14 15  1  0
 13 16  1  0
 16 17  2  0
 16 18  1  0
 18 19  1  0
 19 20  2  0
 20 21  1  0
 21 22  2  0
 22 23  1  0
 23 24  2  0
 22 25  1  0
 25 26  3  0
 11 27  1  0
 27 28  2  0
 28 29  1  0
 29 30  2  0
 30 31  1  0
 31 32  2  0
 32 33  1  0
 33 34  2  0
 34 35  1  0
 32 36  1  0
 36 37  1  0
 37 38  1  0
  8  3  1  0
 28  9  1  0
 15 10  2  0
 24 19  1  0
 34 29  1  0
 38 31  1  0
M  END
$$$$
