
     RDKit          3D

 38 43  0  0  0  0  0  0  0  0999 V2000
    4.8728   -2.3651   14.0496 C   0  0  0  0  0  0  0  0  0  0  0  0
    3.7572   -1.3938   13.8803 C   0  0  0  0  0  0  0  0  0  0  0  0
    2.8658   -1.6085   12.7113 C   0  0  0  0  0  0  0  0  0  0  0  0
    3.7468   -2.2729   11.6281 C   0  0  0  0  0  0  0  0  0  0  0  0
    3.9774   -1.2736   10.5199 C   0  0  0  0  0  0  0  0  0  0  0  0
    2.6244   -1.0462    9.8546 C   0  0  0  0  0  0  0  0  0  0  0  0
    1.7636   -0.3253   10.8521 C   0  0  0  0  0  0  0  0  0  0  0  0
    2.3605   -0.2692   12.2213 C   0  0  0  0  0  0  0  0  0  0  0  0
    3.1205   -0.9494   15.0994 N   0  0  0  0  0  0  0  0  0  0  0  0
    3.4012    0.2454   15.7204 C   0  0  0  0  0  0  0  0  0  0  0  0
    2.6086    0.3867   16.8164 C   0  0  0  0  0  0  0  0  0  0  0  0
    2.6884    1.5277   17.6450 C   0  0  0  0  0  0  0  0  0  0  0  0
    3.5725    2.5339   17.3688 C   0  0  0  0  0  0  0  0  0  0  0  0
    4.3744    2.3884   16.2582 C   0  0  0  0  0  0  0  0  0  0  0  0
    4.2952    1.2677   15.4451 C   0  0  0  0  0  0  0  0  0  0  0  0
    3.6860    3.7340   18.2024 C   0  0  0  0  0  0  0  0  0  0  0  0
    4.8326    4.1234   18.5333 O   0  0  0  0  0  0  0  0  0  0  0  0
    2.5521    4.4373   18.6256 N   0  0  0  0  0  0  0  0  0  0  0  0
    2.7564    5.4716   19.6148 C   0  0  0  0  0  0  0  0  0  0  0  0
    3.9948    5.6691   20.1897 C   0  0  0  0  0  0  0  0  0  0  0  0
    4.2287    6.6444   21.1353 C   0  0  0  0  0  0  0  0  0  0  0  0
    3.1800    7.4533   21.5196 C   0  0  0  0  0  0  0  0  0  0  0  0
    1.9139    7.2907   20.9669 C   0  0  0  0  0  0  0  0  0  0  0  0
    1.7301    6.2986   20.0224 C   0  0  0  0  0  0  0  0  0  0  0  0
    3.4258    8.4730   22.5081 C   0  0  0  0  0  0  0  0  0  0  0  0
    3.6122    9.2874   23.3168 N   0  0  0  0  0  0  0  0  0  0  0  0
    1.8521   -0.6963   16.8776 N   0  0  0  0  0  0  0  0  0  0  0  0
    2.1583   -1.5298   15.8253 C   0  0  0  0  0  0  0  0  0  0  0  0
    1.4186   -2.7756   15.6855 C   0  0  0  0  0  0  0  0  0  0  0  0
    1.8224   -4.0091   16.0951 C   0  0  0  0  0  0  0  0  0  0  0  0
    1.0786   -5.1814   15.8850 C   0  0  0  0  0  0  0  0  0  0  0  0
   -0.1315   -5.1066   15.2309 C   0  0  0  0  0  0  0  0  0  0  0  0
   -0.5429   -3.8609   14.8162 C   0  0  0  0  0  0  0  0  0  0  0  0
    0.1836   -2.7087   15.0199 C   0  0  0  0  0  0  0  0  0  0  0  0
   -0.5064   -1.0308   14.3827 Br  0  0  0  0  0  0  0  0  0  0  0  0
   -0.6670   -6.3946   15.1494 O   0  0  0  0  0  0  0  0  0  0  0  0
    0.0250   -7.2123   16.0856 C   0  0  0  0  0  0  0  0  0  0  0  0
    1.2605   -6.5199   16.1927 O   0  0  0  0  0  0  0  0  0  0  0  0
  1  2  1  0
  2  3  1  0
  3  4  1  0
  4  5  1  0
  5  6  1  0
  6  7  1  0
  7  8  1  0
  2  9  1  0
  9 10  1  0
 10 11  1  0
 11 12  2  0
 12 13  1  0
 13 14  2  0
 14 15  1  0
 13 16  1  0
 16 17  2  0
 16 18  1  0
 18 19  1  0
 19 20  2  0
 20 21  1  0
 21 22  2  0
 22 23  1  0
 23 24  2  0
 22 25  1  0
 25 26  3  0
 11 27  1  0
 27 28  2  0
 28 29  1  0
 29 30  2  0
 30 31  1  0
 31 32  2  0
 32 33  1  0
 33 34  2  0
 34 35  1  0
 32 36  1  0
 36 37  1  0
 37 38  1  0
  8  3  1  0
 28  9  1  0
 15 10  2  0
 24 19  1  0
 34 29  1  0
 38 31  1  0
M  END
$$$$
