
     RDKit          3D

 38 43  0  0  0  0  0  0  0  0999 V2000
    3.4400    6.4669   18.7973 C   0  0  0  0  0  0  0  0  0  0  0  0
    2.0250    6.1239   19.1084 C   0  0  0  0  0  0  0  0  0  0  0  0
    1.0065    6.5594   18.1183 C   0  0  0  0  0  0  0  0  0  0  0  0
    0.7669    5.3397   17.1985 C   0  0  0  0  0  0  0  0  0  0  0  0
    1.3557    5.6414   15.8412 C   0  0  0  0  0  0  0  0  0  0  0  0
    0.5154    6.7659   15.2458 C   0  0  0  0  0  0  0  0  0  0  0  0
    0.7866    7.9942   16.0663 C   0  0  0  0  0  0  0  0  0  0  0  0
    1.5595    7.7161   17.3151 C   0  0  0  0  0  0  0  0  0  0  0  0
    1.8118    4.8329   19.7224 N   0  0  0  0  0  0  0  0  0  0  0  0
    2.4235    3.6740   19.3048 C   0  0  0  0  0  0  0  0  0  0  0  0
    2.0476    2.6444   20.1098 C   0  0  0  0  0  0  0  0  0  0  0  0
    2.5282    1.3321   19.9059 C   0  0  0  0  0  0  0  0  0  0  0  0
    3.3935    1.0536   18.8841 C   0  0  0  0  0  0  0  0  0  0  0  0
    3.7728    2.0981   18.0698 C   0  0  0  0  0  0  0  0  0  0  0  0
    3.3003    3.3864   18.2710 C   0  0  0  0  0  0  0  0  0  0  0  0
    3.9158   -0.2936   18.6389 C   0  0  0  0  0  0  0  0  0  0  0  0
    3.6560   -1.1944   19.4736 O   0  0  0  0  0  0  0  0  0  0  0  0
    4.6862   -0.5816   17.5062 N   0  0  0  0  0  0  0  0  0  0  0  0
    4.9108   -1.9780   17.2068 C   0  0  0  0  0  0  0  0  0  0  0  0
    4.2627   -2.9688   17.9149 C   0  0  0  0  0  0  0  0  0  0  0  0
    4.4505   -4.3102   17.6587 C   0  0  0  0  0  0  0  0  0  0  0  0
    5.3223   -4.6723   16.6532 C   0  0  0  0  0  0  0  0  0  0  0  0
    5.9978   -3.7077   15.9130 C   0  0  0  0  0  0  0  0  0  0  0  0
    5.7756   -2.3759   16.2081 C   0  0  0  0  0  0  0  0  0  0  0  0
    5.5176   -6.0751   16.3860 C   0  0  0  0  0  0  0  0  0  0  0  0
    5.6796   -7.2093   16.1880 N   0  0  0  0  0  0  0  0  0  0  0  0
    1.2192    3.1505   21.0080 N   0  0  0  0  0  0  0  0  0  0  0  0
    1.0636    4.4993   20.7800 C   0  0  0  0  0  0  0  0  0  0  0  0
    0.2080    5.2631   21.6764 C   0  0  0  0  0  0  0  0  0  0  0  0
   -1.1485    5.3576   21.6183 C   0  0  0  0  0  0  0  0  0  0  0  0
   -1.9112    6.1537   22.4879 C   0  0  0  0  0  0  0  0  0  0  0  0
   -1.2760    6.8897   23.4638 C   0  0  0  0  0  0  0  0  0  0  0  0
    0.0952    6.7956   23.5256 C   0  0  0  0  0  0  0  0  0  0  0  0
    0.8473    6.0164   22.6747 C   0  0  0  0  0  0  0  0  0  0  0  0
    2.7601    5.9806   22.8677 Br  0  0  0  0  0  0  0  0  0  0  0  0
   -2.2455    7.5882   24.1880 O   0  0  0  0  0  0  0  0  0  0  0  0
   -3.5073    6.9929   23.9103 C   0  0  0  0  0  0  0  0  0  0  0  0
   -3.2634    6.4173   22.6349 O   0  0  0  0  0  0  0  0  0  0  0  0
  1  2  1  0
  2  3  1  0
  3  4  1  0
  4  5  1  0
  5  6  1  0
  6  7  1  0
  7  8  1  0
  2  9  1  0
  9 10  1  0
 10 11  1  0
 11 12  2  0
 12 13  1  0
 13 14  2  0
 14 15  1  0
 13 16  1  0
 16 17  2  0
 16 18  1  0
 18 19  1  0
 19 20  2  0
 20 21  1  0
 21 22  2  0
 22 23  1  0
 23 24  2  0
 22 25  1  0
 25 26  3  0
 11 27  1  0
 27 28  2  0
 28 29  1  0
 29 30  2  0
 30 31  1  0
 31 32  2  0
 32 33  1  0
 33 34  2  0
 34 35  1  0
 32 36  1  0
 36 37  1  0
 37 38  1  0
  8  3  1  0
 28  9  1  0
 15 10  2  0
 24 19  1  0
 34 29  1  0
 38 31  1  0
M  END
$$$$
