
     RDKit          3D

 38 43  0  0  0  0  0  0  0  0999 V2000
    3.6016    1.1715   12.4627 C   0  0  0  0  0  0  0  0  0  0  0  0
    2.7277    0.1484   13.1001 C   0  0  0  0  0  0  0  0  0  0  0  0
    3.2378   -1.2470   13.1033 C   0  0  0  0  0  0  0  0  0  0  0  0
    4.4572   -1.2503   12.1525 C   0  0  0  0  0  0  0  0  0  0  0  0
    4.0883   -2.0155   10.9042 C   0  0  0  0  0  0  0  0  0  0  0  0
    3.9035   -3.4688   11.3268 C   0  0  0  0  0  0  0  0  0  0  0  0
    2.6743   -3.5193   12.1884 C   0  0  0  0  0  0  0  0  0  0  0  0
    2.1618   -2.1688   12.5725 C   0  0  0  0  0  0  0  0  0  0  0  0
    2.0219    0.5761   14.2867 N   0  0  0  0  0  0  0  0  0  0  0  0
    2.6261    0.7908   15.5035 C   0  0  0  0  0  0  0  0  0  0  0  0
    1.7013    1.2243   16.4015 C   0  0  0  0  0  0  0  0  0  0  0  0
    2.0500    1.5217   17.7374 C   0  0  0  0  0  0  0  0  0  0  0  0
    3.3387    1.3818   18.1732 C   0  0  0  0  0  0  0  0  0  0  0  0
    4.2736    0.9423   17.2618 C   0  0  0  0  0  0  0  0  0  0  0  0
    3.9303    0.6506   15.9502 C   0  0  0  0  0  0  0  0  0  0  0  0
    3.7417    1.6803   19.5502 C   0  0  0  0  0  0  0  0  0  0  0  0
    3.0860    1.1645   20.4881 O   0  0  0  0  0  0  0  0  0  0  0  0
    4.8288    2.5181   19.8261 N   0  0  0  0  0  0  0  0  0  0  0  0
    5.2743    2.5791   21.2000 C   0  0  0  0  0  0  0  0  0  0  0  0
    6.1797    3.5356   21.6107 C   0  0  0  0  0  0  0  0  0  0  0  0
    6.6276    3.6257   22.9112 C   0  0  0  0  0  0  0  0  0  0  0  0
    6.1491    2.7215   23.8361 C   0  0  0  0  0  0  0  0  0  0  0  0
    5.2352    1.7400   23.4675 C   0  0  0  0  0  0  0  0  0  0  0  0
    4.8165    1.6909   22.1513 C   0  0  0  0  0  0  0  0  0  0  0  0
    6.6180    2.8170   25.1958 C   0  0  0  0  0  0  0  0  0  0  0  0
    7.0105    2.9037   26.2868 N   0  0  0  0  0  0  0  0  0  0  0  0
    0.5467    1.2772   15.7587 N   0  0  0  0  0  0  0  0  0  0  0  0
    0.7295    0.8786   14.4536 C   0  0  0  0  0  0  0  0  0  0  0  0
   -0.4161    0.8877   13.5556 C   0  0  0  0  0  0  0  0  0  0  0  0
   -0.9896    1.9814   12.9836 C   0  0  0  0  0  0  0  0  0  0  0  0
   -2.1271    1.9240   12.1623 C   0  0  0  0  0  0  0  0  0  0  0  0
   -2.7145    0.7050   11.9043 C   0  0  0  0  0  0  0  0  0  0  0  0
   -2.1365   -0.4027   12.4804 C   0  0  0  0  0  0  0  0  0  0  0  0
   -1.0212   -0.3510   13.2868 C   0  0  0  0  0  0  0  0  0  0  0  0
   -0.3182   -1.9774   14.0337 Br  0  0  0  0  0  0  0  0  0  0  0  0
   -3.8164    0.9159   11.0715 O   0  0  0  0  0  0  0  0  0  0  0  0
   -3.6891    2.2140   10.5036 C   0  0  0  0  0  0  0  0  0  0  0  0
   -2.8845    2.8614   11.4788 O   0  0  0  0  0  0  0  0  0  0  0  0
  1  2  1  0
  2  3  1  0
  3  4  1  0
  4  5  1  0
  5  6  1  0
  6  7  1  0
  7  8  1  0
  2  9  1  0
  9 10  1  0
 10 11  1  0
 11 12  2  0
 12 13  1  0
 13 14  2  0
 14 15  1  0
 13 16  1  0
 16 17  2  0
 16 18  1  0
 18 19  1  0
 19 20  2  0
 20 21  1  0
 21 22  2  0
 22 23  1  0
 23 24  2  0
 22 25  1  0
 25 26  3  0
 11 27  1  0
 27 28  2  0
 28 29  1  0
 29 30  2  0
 30 31  1  0
 31 32  2  0
 32 33  1  0
 33 34  2  0
 34 35  1  0
 32 36  1  0
 36 37  1  0
 37 38  1  0
  8  3  1  0
 28  9  1  0
 15 10  2  0
 24 19  1  0
 34 29  1  0
 38 31  1  0
M  END
$$$$
