
     RDKit          3D

 38 43  0  0  0  0  0  0  0  0999 V2000
   -0.5316   -0.3852   12.7726 C   0  0  0  0  0  0  0  0  0  0  0  0
    0.9116   -0.6710   12.5445 C   0  0  0  0  0  0  0  0  0  0  0  0
    1.5212   -0.0675   11.3315 C   0  0  0  0  0  0  0  0  0  0  0  0
    1.1006   -0.9768   10.1536 C   0  0  0  0  0  0  0  0  0  0  0  0
    2.3184   -1.7274    9.6704 C   0  0  0  0  0  0  0  0  0  0  0  0
    3.2537   -0.6879    9.0624 C   0  0  0  0  0  0  0  0  0  0  0  0
    3.7501    0.1666   10.1934 C   0  0  0  0  0  0  0  0  0  0  0  0
    3.0269   -0.0713   11.4797 C   0  0  0  0  0  0  0  0  0  0  0  0
    1.7399   -0.7068   13.7285 N   0  0  0  0  0  0  0  0  0  0  0  0
    1.7590    0.2843   14.6820 C   0  0  0  0  0  0  0  0  0  0  0  0
    2.6069   -0.0654   15.6862 C   0  0  0  0  0  0  0  0  0  0  0  0
    2.8201    0.7751   16.8009 C   0  0  0  0  0  0  0  0  0  0  0  0
    2.1755    1.9767   16.9061 C   0  0  0  0  0  0  0  0  0  0  0  0
    1.3173    2.3289   15.8876 C   0  0  0  0  0  0  0  0  0  0  0  0
    1.1086    1.5027   14.7934 C   0  0  0  0  0  0  0  0  0  0  0  0
    2.3683    2.8772   18.0461 C   0  0  0  0  0  0  0  0  0  0  0  0
    1.7945    3.9935   18.0274 O   0  0  0  0  0  0  0  0  0  0  0  0
    3.1696    2.5135   19.1348 N   0  0  0  0  0  0  0  0  0  0  0  0
    3.3129    3.4865   20.1943 C   0  0  0  0  0  0  0  0  0  0  0  0
    3.7600    3.1133   21.4450 C   0  0  0  0  0  0  0  0  0  0  0  0
    3.9098    4.0115   22.4798 C   0  0  0  0  0  0  0  0  0  0  0  0
    3.5993    5.3357   22.2518 C   0  0  0  0  0  0  0  0  0  0  0  0
    3.1450    5.7578   21.0068 C   0  0  0  0  0  0  0  0  0  0  0  0
    3.0115    4.8189   20.0014 C   0  0  0  0  0  0  0  0  0  0  0  0
    3.7567    6.2741   23.3345 C   0  0  0  0  0  0  0  0  0  0  0  0
    3.8695    7.0233   24.2164 N   0  0  0  0  0  0  0  0  0  0  0  0
    3.1057   -1.2473   15.3647 N   0  0  0  0  0  0  0  0  0  0  0  0
    2.5806   -1.6543   14.1588 C   0  0  0  0  0  0  0  0  0  0  0  0
    2.9778   -2.9502   13.6278 C   0  0  0  0  0  0  0  0  0  0  0  0
    4.2465   -3.3608   13.3554 C   0  0  0  0  0  0  0  0  0  0  0  0
    4.5570   -4.6111   12.7969 C   0  0  0  0  0  0  0  0  0  0  0  0
    3.5393   -5.4905   12.4991 C   0  0  0  0  0  0  0  0  0  0  0  0
    2.2557   -5.0786   12.7740 C   0  0  0  0  0  0  0  0  0  0  0  0
    1.9466   -3.8532   13.3215 C   0  0  0  0  0  0  0  0  0  0  0  0
    0.1068   -3.4013   13.6501 Br  0  0  0  0  0  0  0  0  0  0  0  0
    4.1040   -6.6493   11.9599 O   0  0  0  0  0  0  0  0  0  0  0  0
    5.4911   -6.6434   12.2754 C   0  0  0  0  0  0  0  0  0  0  0  0
    5.7299   -5.2522   12.4327 O   0  0  0  0  0  0  0  0  0  0  0  0
  1  2  1  0
  2  3  1  0
  3  4  1  0
  4  5  1  0
  5  6  1  0
  6  7  1  0
  7  8  1  0
  2  9  1  0
  9 10  1  0
 10 11  1  0
 11 12  2  0
 12 13  1  0
 13 14  2  0
 14 15  1  0
 13 16  1  0
 16 17  2  0
 16 18  1  0
 18 19  1  0
 19 20  2  0
 20 21  1  0
 21 22  2  0
 22 23  1  0
 23 24  2  0
 22 25  1  0
 25 26  3  0
 11 27  1  0
 27 28  2  0
 28 29  1  0
 29 30  2  0
 30 31  1  0
 31 32  2  0
 32 33  1  0
 33 34  2  0
 34 35  1  0
 32 36  1  0
 36 37  1  0
 37 38  1  0
  8  3  1  0
 28  9  1  0
 15 10  2  0
 24 19  1  0
 34 29  1  0
 38 31  1  0
M  END
$$$$
