
     RDKit          3D

 38 43  0  0  0  0  0  0  0  0999 V2000
    3.2680    0.0968   12.0641 C   0  0  0  0  0  0  0  0  0  0  0  0
    2.1913   -0.7460   12.6530 C   0  0  0  0  0  0  0  0  0  0  0  0
    2.3584   -2.2167   12.5246 C   0  0  0  0  0  0  0  0  0  0  0  0
    3.4960   -2.4218   11.4975 C   0  0  0  0  0  0  0  0  0  0  0  0
    2.8982   -2.9740   10.2256 C   0  0  0  0  0  0  0  0  0  0  0  0
    2.3971   -4.3755   10.5566 C   0  0  0  0  0  0  0  0  0  0  0  0
    1.2332   -4.2130   11.4918 C   0  0  0  0  0  0  0  0  0  0  0  0
    1.0717   -2.8176   12.0027 C   0  0  0  0  0  0  0  0  0  0  0  0
    1.6308   -0.2704   13.8975 N   0  0  0  0  0  0  0  0  0  0  0  0
    2.2595   -0.3845   15.1156 C   0  0  0  0  0  0  0  0  0  0  0  0
    1.4944    0.1943   16.0795 C   0  0  0  0  0  0  0  0  0  0  0  0
    1.9019    0.2199   17.4315 C   0  0  0  0  0  0  0  0  0  0  0  0
    3.0882   -0.3412   17.8166 C   0  0  0  0  0  0  0  0  0  0  0  0
    3.8614   -0.9270   16.8385 C   0  0  0  0  0  0  0  0  0  0  0  0
    3.4603   -0.9516   15.5111 C   0  0  0  0  0  0  0  0  0  0  0  0
    3.5477   -0.3353   19.2082 C   0  0  0  0  0  0  0  0  0  0  0  0
    3.0316    0.4884   20.0026 O   0  0  0  0  0  0  0  0  0  0  0  0
    4.5365   -1.2207   19.6531 N   0  0  0  0  0  0  0  0  0  0  0  0
    5.0270   -1.0292   20.9994 C   0  0  0  0  0  0  0  0  0  0  0  0
    5.5497   -2.0825   21.7209 C   0  0  0  0  0  0  0  0  0  0  0  0
    6.0272   -1.9393   23.0060 C   0  0  0  0  0  0  0  0  0  0  0  0
    5.9787   -0.6912   23.5907 C   0  0  0  0  0  0  0  0  0  0  0  0
    5.4603    0.3999   22.9013 C   0  0  0  0  0  0  0  0  0  0  0  0
    4.9939    0.2051   21.6150 C   0  0  0  0  0  0  0  0  0  0  0  0
    6.4786   -0.5426   24.9344 C   0  0  0  0  0  0  0  0  0  0  0  0
    6.8665   -0.4141   26.0230 N   0  0  0  0  0  0  0  0  0  0  0  0
    0.4127    0.6573   15.4756 N   0  0  0  0  0  0  0  0  0  0  0  0
    0.4830    0.3763   14.1296 C   0  0  0  0  0  0  0  0  0  0  0  0
   -0.6004    0.8247   13.2669 C   0  0  0  0  0  0  0  0  0  0  0  0
   -1.7439    0.1444   12.9808 C   0  0  0  0  0  0  0  0  0  0  0  0
   -2.7299    0.6153   12.0989 C   0  0  0  0  0  0  0  0  0  0  0  0
   -2.5551    1.8313   11.4756 C   0  0  0  0  0  0  0  0  0  0  0  0
   -1.4004    2.5218   11.7634 C   0  0  0  0  0  0  0  0  0  0  0  0
   -0.4307    2.0636   12.6274 C   0  0  0  0  0  0  0  0  0  0  0  0
    1.1403    3.1285   12.9362 Br  0  0  0  0  0  0  0  0  0  0  0  0
   -3.6634    2.0694   10.6588 O   0  0  0  0  0  0  0  0  0  0  0  0
   -4.7004    1.1845   11.0654 C   0  0  0  0  0  0  0  0  0  0  0  0
   -3.9476    0.1311   11.6493 O   0  0  0  0  0  0  0  0  0  0  0  0
  1  2  1  0
  2  3  1  0
  3  4  1  0
  4  5  1  0
  5  6  1  0
  6  7  1  0
  7  8  1  0
  2  9  1  0
  9 10  1  0
 10 11  1  0
 11 12  2  0
 12 13  1  0
 13 14  2  0
 14 15  1  0
 13 16  1  0
 16 17  2  0
 16 18  1  0
 18 19  1  0
 19 20  2  0
 20 21  1  0
 21 22  2  0
 22 23  1  0
 23 24  2  0
 22 25  1  0
 25 26  3  0
 11 27  1  0
 27 28  2  0
 28 29  1  0
 29 30  2  0
 30 31  1  0
 31 32  2  0
 32 33  1  0
 33 34  2  0
 34 35  1  0
 32 36  1  0
 36 37  1  0
 37 38  1  0
  8  3  1  0
 28  9  1  0
 15 10  2  0
 24 19  1  0
 34 29  1  0
 38 31  1  0
M  END
$$$$
