
     RDKit          3D

 38 43  0  0  0  0  0  0  0  0999 V2000
    2.2441    1.9750   12.9968 C   0  0  0  0  0  0  0  0  0  0  0  0
    1.0645    1.0922   12.7831 C   0  0  0  0  0  0  0  0  0  0  0  0
    0.9608   -0.0977   13.6666 C   0  0  0  0  0  0  0  0  0  0  0  0
    1.3693    0.3892   15.0763 C   0  0  0  0  0  0  0  0  0  0  0  0
    2.7126   -0.2094   15.4184 C   0  0  0  0  0  0  0  0  0  0  0  0
    2.4930   -1.7117   15.5595 C   0  0  0  0  0  0  0  0  0  0  0  0
    2.1740   -2.2363   14.1888 C   0  0  0  0  0  0  0  0  0  0  0  0
    1.9249   -1.1589   13.1832 C   0  0  0  0  0  0  0  0  0  0  0  0
   -0.1746    1.7652   12.4656 N   0  0  0  0  0  0  0  0  0  0  0  0
   -0.5620    2.9624   13.0211 C   0  0  0  0  0  0  0  0  0  0  0  0
   -1.7516    3.3489   12.4872 C   0  0  0  0  0  0  0  0  0  0  0  0
   -2.3847    4.5483   12.8815 C   0  0  0  0  0  0  0  0  0  0  0  0
   -1.8166    5.3648   13.8201 C   0  0  0  0  0  0  0  0  0  0  0  0
   -0.6118    4.9711   14.3596 C   0  0  0  0  0  0  0  0  0  0  0  0
    0.0091    3.7932   13.9717 C   0  0  0  0  0  0  0  0  0  0  0  0
   -2.4403    6.6173   14.2561 C   0  0  0  0  0  0  0  0  0  0  0  0
   -3.6671    6.6112   14.5216 O   0  0  0  0  0  0  0  0  0  0  0  0
   -1.6975    7.7977   14.3773 N   0  0  0  0  0  0  0  0  0  0  0  0
   -2.1087    8.7253   15.4071 C   0  0  0  0  0  0  0  0  0  0  0  0
   -3.1851    8.4473   16.2240 C   0  0  0  0  0  0  0  0  0  0  0  0
   -3.6068    9.3061   17.2164 C   0  0  0  0  0  0  0  0  0  0  0  0
   -2.9227   10.4899   17.3967 C   0  0  0  0  0  0  0  0  0  0  0  0
   -1.8316   10.8123   16.5966 C   0  0  0  0  0  0  0  0  0  0  0  0
   -1.4475    9.9181   15.6152 C   0  0  0  0  0  0  0  0  0  0  0  0
   -3.3644   11.3869   18.4348 C   0  0  0  0  0  0  0  0  0  0  0  0
   -3.7032   12.1141   19.2764 N   0  0  0  0  0  0  0  0  0  0  0  0
   -2.0980    2.4128   11.6196 N   0  0  0  0  0  0  0  0  0  0  0  0
   -1.1351    1.4291   11.5971 C   0  0  0  0  0  0  0  0  0  0  0  0
   -1.3055    0.3082   10.6842 C   0  0  0  0  0  0  0  0  0  0  0  0
   -0.8811    0.2421    9.3928 C   0  0  0  0  0  0  0  0  0  0  0  0
   -1.1218   -0.8545    8.5494 C   0  0  0  0  0  0  0  0  0  0  0  0
   -1.8238   -1.9373    9.0314 C   0  0  0  0  0  0  0  0  0  0  0  0
   -2.2535   -1.8739   10.3368 C   0  0  0  0  0  0  0  0  0  0  0  0
   -2.0200   -0.8003   11.1674 C   0  0  0  0  0  0  0  0  0  0  0  0
   -2.6829   -0.8391   12.9719 Br  0  0  0  0  0  0  0  0  0  0  0  0
   -1.9277   -2.8837    8.0088 O   0  0  0  0  0  0  0  0  0  0  0  0
   -0.9653   -2.5553    7.0139 C   0  0  0  0  0  0  0  0  0  0  0  0
   -0.8082   -1.1611    7.2352 O   0  0  0  0  0  0  0  0  0  0  0  0
  1  2  1  0
  2  3  1  0
  3  4  1  0
  4  5  1  0
  5  6  1  0
  6  7  1  0
  7  8  1  0
  2  9  1  0
  9 10  1  0
 10 11  1  0
 11 12  2  0
 12 13  1  0
 13 14  2  0
 14 15  1  0
 13 16  1  0
 16 17  2  0
 16 18  1  0
 18 19  1  0
 19 20  2  0
 20 21  1  0
 21 22  2  0
 22 23  1  0
 23 24  2  0
 22 25  1  0
 25 26  3  0
 11 27  1  0
 27 28  2  0
 28 29  1  0
 29 30  2  0
 30 31  1  0
 31 32  2  0
 32 33  1  0
 33 34  2  0
 34 35  1  0
 32 36  1  0
 36 37  1  0
 37 38  1  0
  8  3  1  0
 28  9  1  0
 15 10  2  0
 24 19  1  0
 34 29  1  0
 38 31  1  0
M  END
$$$$
