
     RDKit          3D

 38 43  0  0  0  0  0  0  0  0999 V2000
    3.1425    0.3225   11.5102 C   0  0  0  0  0  0  0  0  0  0  0  0
    1.9387   -0.4128   11.9863 C   0  0  0  0  0  0  0  0  0  0  0  0
    1.8633   -1.8546   11.6358 C   0  0  0  0  0  0  0  0  0  0  0  0
    2.8847   -2.0628   10.4935 C   0  0  0  0  0  0  0  0  0  0  0  0
    2.1253   -2.3191    9.2139 C   0  0  0  0  0  0  0  0  0  0  0  0
    1.4326   -3.6666    9.3850 C   0  0  0  0  0  0  0  0  0  0  0  0
    0.3726   -3.4820   10.4329 C   0  0  0  0  0  0  0  0  0  0  0  0
    0.4667   -2.1736   11.1493 C   0  0  0  0  0  0  0  0  0  0  0  0
    1.4563   -0.0457   13.2985 N   0  0  0  0  0  0  0  0  0  0  0  0
    0.6954    1.0719   13.5514 C   0  0  0  0  0  0  0  0  0  0  0  0
    0.3695    1.1123   14.8712 C   0  0  0  0  0  0  0  0  0  0  0  0
   -0.4104    2.1598   15.4089 C   0  0  0  0  0  0  0  0  0  0  0  0
   -0.8658    3.1743   14.6128 C   0  0  0  0  0  0  0  0  0  0  0  0
   -0.5342    3.1313   13.2764 C   0  0  0  0  0  0  0  0  0  0  0  0
    0.2317    2.1022   12.7493 C   0  0  0  0  0  0  0  0  0  0  0  0
   -1.6779    4.2787   15.1311 C   0  0  0  0  0  0  0  0  0  0  0  0
   -1.3967    4.7455   16.2619 O   0  0  0  0  0  0  0  0  0  0  0  0
   -2.7431    4.8087   14.3935 N   0  0  0  0  0  0  0  0  0  0  0  0
   -3.4504    5.9258   14.9780 C   0  0  0  0  0  0  0  0  0  0  0  0
   -4.5758    6.4476   14.3742 C   0  0  0  0  0  0  0  0  0  0  0  0
   -5.2769    7.5112   14.9008 C   0  0  0  0  0  0  0  0  0  0  0  0
   -4.8322    8.0737   16.0789 C   0  0  0  0  0  0  0  0  0  0  0  0
   -3.7022    7.5808   16.7229 C   0  0  0  0  0  0  0  0  0  0  0  0
   -3.0338    6.5127   16.1549 C   0  0  0  0  0  0  0  0  0  0  0  0
   -5.5662    9.1856   16.6288 C   0  0  0  0  0  0  0  0  0  0  0  0
   -6.1650   10.0862   17.0558 N   0  0  0  0  0  0  0  0  0  0  0  0
    0.9163    0.0446   15.4280 N   0  0  0  0  0  0  0  0  0  0  0  0
    1.5909   -0.6780   14.4697 C   0  0  0  0  0  0  0  0  0  0  0  0
    2.2486   -1.9151   14.8646 C   0  0  0  0  0  0  0  0  0  0  0  0
    1.6571   -3.1285   15.0379 C   0  0  0  0  0  0  0  0  0  0  0  0
    2.3441   -4.2749   15.4686 C   0  0  0  0  0  0  0  0  0  0  0  0
    3.6929   -4.1945   15.7369 C   0  0  0  0  0  0  0  0  0  0  0  0
    4.2939   -2.9693   15.5619 C   0  0  0  0  0  0  0  0  0  0  0  0
    3.6239   -1.8423   15.1400 C   0  0  0  0  0  0  0  0  0  0  0  0
    4.5857   -0.1891   14.9421 Br  0  0  0  0  0  0  0  0  0  0  0  0
    4.1356   -5.4556   16.1440 O   0  0  0  0  0  0  0  0  0  0  0  0
    3.1480   -6.4061   15.7634 C   0  0  0  0  0  0  0  0  0  0  0  0
    1.9864   -5.5900   15.7177 O   0  0  0  0  0  0  0  0  0  0  0  0
  1  2  1  0
  2  3  1  0
  3  4  1  0
  4  5  1  0
  5  6  1  0
  6  7  1  0
  7  8  1  0
  2  9  1  0
  9 10  1  0
 10 11  1  0
 11 12  2  0
 12 13  1  0
 13 14  2  0
 14 15  1  0
 13 16  1  0
 16 17  2  0
 16 18  1  0
 18 19  1  0
 19 20  2  0
 20 21  1  0
 21 22  2  0
 22 23  1  0
 23 24  2  0
 22 25  1  0
 25 26  3  0
 11 27  1  0
 27 28  2  0
 28 29  1  0
 29 30  2  0
 30 31  1  0
 31 32  2  0
 32 33  1  0
 33 34  2  0
 34 35  1  0
 32 36  1  0
 36 37  1  0
 37 38  1  0
  8  3  1  0
 28  9  1  0
 15 10  2  0
 24 19  1  0
 34 29  1  0
 38 31  1  0
M  END
$$$$
