
     RDKit          3D

 38 43  0  0  0  0  0  0  0  0999 V2000
    1.3190    2.0993   11.8288 C   0  0  0  0  0  0  0  0  0  0  0  0
    0.4788    1.1719   12.6353 C   0  0  0  0  0  0  0  0  0  0  0  0
    0.4979   -0.2577   12.2311 C   0  0  0  0  0  0  0  0  0  0  0  0
    0.4216   -0.2583   10.6867 C   0  0  0  0  0  0  0  0  0  0  0  0
   -0.9372   -0.7726   10.2752 C   0  0  0  0  0  0  0  0  0  0  0  0
   -0.9844   -2.2415   10.6812 C   0  0  0  0  0  0  0  0  0  0  0  0
   -0.9956   -2.2789   12.1826 C   0  0  0  0  0  0  0  0  0  0  0  0
   -0.7139   -0.9528   12.8122 C   0  0  0  0  0  0  0  0  0  0  0  0
    0.4367    1.4364   14.0557 N   0  0  0  0  0  0  0  0  0  0  0  0
    1.2802    0.8507   14.9707 C   0  0  0  0  0  0  0  0  0  0  0  0
    1.0141    1.3371   16.2125 C   0  0  0  0  0  0  0  0  0  0  0  0
    1.7353    0.9040   17.3470 C   0  0  0  0  0  0  0  0  0  0  0  0
    2.7316   -0.0257   17.2311 C   0  0  0  0  0  0  0  0  0  0  0  0
    2.9991   -0.5171   15.9723 C   0  0  0  0  0  0  0  0  0  0  0  0
    2.2904   -0.0911   14.8589 C   0  0  0  0  0  0  0  0  0  0  0  0
    3.5037   -0.5009   18.3826 C   0  0  0  0  0  0  0  0  0  0  0  0
    2.8885   -1.0617   19.3221 O   0  0  0  0  0  0  0  0  0  0  0  0
    4.8928   -0.3396   18.4453 N   0  0  0  0  0  0  0  0  0  0  0  0
    5.6797   -1.0710   17.4778 C   0  0  0  0  0  0  0  0  0  0  0  0
    5.2528   -2.2893   16.9912 C   0  0  0  0  0  0  0  0  0  0  0  0
    5.9747   -3.0157   16.0685 C   0  0  0  0  0  0  0  0  0  0  0  0
    7.1713   -2.5006   15.6161 C   0  0  0  0  0  0  0  0  0  0  0  0
    7.6413   -1.2760   16.0788 C   0  0  0  0  0  0  0  0  0  0  0  0
    6.8809   -0.5857   17.0038 C   0  0  0  0  0  0  0  0  0  0  0  0
    7.9251   -3.2609   14.6511 C   0  0  0  0  0  0  0  0  0  0  0  0
    8.5296   -3.8895   13.8821 N   0  0  0  0  0  0  0  0  0  0  0  0
    0.0261    2.2053   16.0742 N   0  0  0  0  0  0  0  0  0  0  0  0
   -0.3410    2.2754   14.7491 C   0  0  0  0  0  0  0  0  0  0  0  0
   -1.4006    3.1976   14.3677 C   0  0  0  0  0  0  0  0  0  0  0  0
   -1.3329    4.5570   14.3706 C   0  0  0  0  0  0  0  0  0  0  0  0
   -2.4119    5.3909   14.0360 C   0  0  0  0  0  0  0  0  0  0  0  0
   -3.6176    4.8273   13.6804 C   0  0  0  0  0  0  0  0  0  0  0  0
   -3.6890    3.4533   13.6758 C   0  0  0  0  0  0  0  0  0  0  0  0
   -2.6334    2.6316   14.0036 C   0  0  0  0  0  0  0  0  0  0  0  0
   -2.8715    0.7241   13.9613 Br  0  0  0  0  0  0  0  0  0  0  0  0
   -4.5176    5.8579   13.3974 O   0  0  0  0  0  0  0  0  0  0  0  0
   -3.7658    7.0505   13.2068 C   0  0  0  0  0  0  0  0  0  0  0  0
   -2.5986    6.7617   13.9628 O   0  0  0  0  0  0  0  0  0  0  0  0
  1  2  1  0
  2  3  1  0
  3  4  1  0
  4  5  1  0
  5  6  1  0
  6  7  1  0
  7  8  1  0
  2  9  1  0
  9 10  1  0
 10 11  1  0
 11 12  2  0
 12 13  1  0
 13 14  2  0
 14 15  1  0
 13 16  1  0
 16 17  2  0
 16 18  1  0
 18 19  1  0
 19 20  2  0
 20 21  1  0
 21 22  2  0
 22 23  1  0
 23 24  2  0
 22 25  1  0
 25 26  3  0
 11 27  1  0
 27 28  2  0
 28 29  1  0
 29 30  2  0
 30 31  1  0
 31 32  2  0
 32 33  1  0
 33 34  2  0
 34 35  1  0
 32 36  1  0
 36 37  1  0
 37 38  1  0
  8  3  1  0
 28  9  1  0
 15 10  2  0
 24 19  1  0
 34 29  1  0
 38 31  1  0
M  END
$$$$
