
     RDKit          3D

 38 43  0  0  0  0  0  0  0  0999 V2000
    1.5587    0.6799   13.4578 C   0  0  0  0  0  0  0  0  0  0  0  0
    0.4405    0.8978   12.4994 C   0  0  0  0  0  0  0  0  0  0  0  0
    0.2948   -0.1067   11.4145 C   0  0  0  0  0  0  0  0  0  0  0  0
    1.4690   -1.0961   11.5980 C   0  0  0  0  0  0  0  0  0  0  0  0
    2.4493   -0.8897   10.4683 C   0  0  0  0  0  0  0  0  0  0  0  0
    1.7412   -1.3373    9.1943 C   0  0  0  0  0  0  0  0  0  0  0  0
    0.6408   -0.3482    8.9366 C   0  0  0  0  0  0  0  0  0  0  0  0
    0.4061    0.5901   10.0761 C   0  0  0  0  0  0  0  0  0  0  0  0
   -0.7856    1.4082   13.0697 N   0  0  0  0  0  0  0  0  0  0  0  0
   -0.9736    2.7206   13.4359 C   0  0  0  0  0  0  0  0  0  0  0  0
   -2.2415    2.8877   13.8984 C   0  0  0  0  0  0  0  0  0  0  0  0
   -2.7064    4.1441   14.3457 C   0  0  0  0  0  0  0  0  0  0  0  0
   -1.8893    5.2407   14.3276 C   0  0  0  0  0  0  0  0  0  0  0  0
   -0.6053    5.0689   13.8589 C   0  0  0  0  0  0  0  0  0  0  0  0
   -0.1498    3.8347   13.4199 C   0  0  0  0  0  0  0  0  0  0  0  0
   -2.3329    6.5615   14.7820 C   0  0  0  0  0  0  0  0  0  0  0  0
   -3.5512    6.7263   15.0353 O   0  0  0  0  0  0  0  0  0  0  0  0
   -1.4306    7.6210   14.9337 N   0  0  0  0  0  0  0  0  0  0  0  0
   -1.9787    8.8903   15.3561 C   0  0  0  0  0  0  0  0  0  0  0  0
   -3.3198    9.0210   15.6520 C   0  0  0  0  0  0  0  0  0  0  0  0
   -3.8790   10.2138   16.0579 C   0  0  0  0  0  0  0  0  0  0  0  0
   -3.0615   11.3187   16.1716 C   0  0  0  0  0  0  0  0  0  0  0  0
   -1.7034   11.2340   15.8837 C   0  0  0  0  0  0  0  0  0  0  0  0
   -1.1904   10.0156   15.4806 C   0  0  0  0  0  0  0  0  0  0  0  0
   -3.6472   12.5653   16.5964 C   0  0  0  0  0  0  0  0  0  0  0  0
   -4.1325   13.5691   16.9263 N   0  0  0  0  0  0  0  0  0  0  0  0
   -2.8297    1.7056   13.8232 N   0  0  0  0  0  0  0  0  0  0  0  0
   -1.9427    0.7833   13.3151 C   0  0  0  0  0  0  0  0  0  0  0  0
   -2.3961   -0.5864   13.1224 C   0  0  0  0  0  0  0  0  0  0  0  0
   -2.2950   -1.6077   14.0164 C   0  0  0  0  0  0  0  0  0  0  0  0
   -2.7104   -2.9217   13.7474 C   0  0  0  0  0  0  0  0  0  0  0  0
   -3.2548   -3.2208   12.5178 C   0  0  0  0  0  0  0  0  0  0  0  0
   -3.3590   -2.1904   11.6121 C   0  0  0  0  0  0  0  0  0  0  0  0
   -2.9526   -0.9003   11.8716 C   0  0  0  0  0  0  0  0  0  0  0  0
   -3.1506    0.4450   10.5121 Br  0  0  0  0  0  0  0  0  0  0  0  0
   -3.5831   -4.5788   12.5015 O   0  0  0  0  0  0  0  0  0  0  0  0
   -3.5962   -5.0384   13.8478 C   0  0  0  0  0  0  0  0  0  0  0  0
   -2.7166   -4.1081   14.4628 O   0  0  0  0  0  0  0  0  0  0  0  0
  1  2  1  0
  2  3  1  0
  3  4  1  0
  4  5  1  0
  5  6  1  0
  6  7  1  0
  7  8  1  0
  2  9  1  0
  9 10  1  0
 10 11  1  0
 11 12  2  0
 12 13  1  0
 13 14  2  0
 14 15  1  0
 13 16  1  0
 16 17  2  0
 16 18  1  0
 18 19  1  0
 19 20  2  0
 20 21  1  0
 21 22  2  0
 22 23  1  0
 23 24  2  0
 22 25  1  0
 25 26  3  0
 11 27  1  0
 27 28  2  0
 28 29  1  0
 29 30  2  0
 30 31  1  0
 31 32  2  0
 32 33  1  0
 33 34  2  0
 34 35  1  0
 32 36  1  0
 36 37  1  0
 37 38  1  0
  8  3  1  0
 28  9  1  0
 15 10  2  0
 24 19  1  0
 34 29  1  0
 38 31  1  0
M  END
$$$$
