
     RDKit          3D

 38 43  0  0  0  0  0  0  0  0999 V2000
   -0.6777   -1.7958   13.8293 C   0  0  0  0  0  0  0  0  0  0  0  0
    0.6415   -1.3660   13.2896 C   0  0  0  0  0  0  0  0  0  0  0  0
    0.6107   -0.4135   12.1497 C   0  0  0  0  0  0  0  0  0  0  0  0
   -0.4998   -0.9267   11.2039 C   0  0  0  0  0  0  0  0  0  0  0  0
    0.1505   -1.4778    9.9576 C   0  0  0  0  0  0  0  0  0  0  0  0
    0.7771   -0.2900    9.2356 C   0  0  0  0  0  0  0  0  0  0  0  0
    1.9180    0.1863   10.0884 C   0  0  0  0  0  0  0  0  0  0  0  0
    1.9489   -0.4417   11.4444 C   0  0  0  0  0  0  0  0  0  0  0  0
    1.6845   -1.1606   14.2690 N   0  0  0  0  0  0  0  0  0  0  0  0
    1.6899   -0.1299   15.1797 C   0  0  0  0  0  0  0  0  0  0  0  0
    2.7808   -0.2384   15.9845 C   0  0  0  0  0  0  0  0  0  0  0  0
    3.0367    0.6943   17.0137 C   0  0  0  0  0  0  0  0  0  0  0  0
    2.1886    1.7442   17.2347 C   0  0  0  0  0  0  0  0  0  0  0  0
    1.0843    1.8521   16.4182 C   0  0  0  0  0  0  0  0  0  0  0  0
    0.8339    0.9356   15.4079 C   0  0  0  0  0  0  0  0  0  0  0  0
    2.4175    2.7330   18.2920 C   0  0  0  0  0  0  0  0  0  0  0  0
    2.7636    2.3227   19.4267 O   0  0  0  0  0  0  0  0  0  0  0  0
    2.2577    4.1034   18.0552 N   0  0  0  0  0  0  0  0  0  0  0  0
    2.5603    4.9954   19.1519 C   0  0  0  0  0  0  0  0  0  0  0  0
    2.4026    4.5896   20.4610 C   0  0  0  0  0  0  0  0  0  0  0  0
    2.6808    5.4107   21.5327 C   0  0  0  0  0  0  0  0  0  0  0  0
    3.1349    6.6886   21.2821 C   0  0  0  0  0  0  0  0  0  0  0  0
    3.3091    7.1410   19.9784 C   0  0  0  0  0  0  0  0  0  0  0  0
    3.0163    6.2797   18.9378 C   0  0  0  0  0  0  0  0  0  0  0  0
    3.4259    7.5461   22.4035 C   0  0  0  0  0  0  0  0  0  0  0  0
    3.6729    8.2467   23.2979 N   0  0  0  0  0  0  0  0  0  0  0  0
    3.4408   -1.3118   15.5831 N   0  0  0  0  0  0  0  0  0  0  0  0
    2.7766   -1.8897   14.5246 C   0  0  0  0  0  0  0  0  0  0  0  0
    3.3205   -3.1079   13.9423 C   0  0  0  0  0  0  0  0  0  0  0  0
    2.7356   -4.3369   13.9396 C   0  0  0  0  0  0  0  0  0  0  0  0
    3.3388   -5.4848   13.4009 C   0  0  0  0  0  0  0  0  0  0  0  0
    4.5920   -5.3892   12.8370 C   0  0  0  0  0  0  0  0  0  0  0  0
    5.1855   -4.1480   12.8375 C   0  0  0  0  0  0  0  0  0  0  0  0
    4.5978   -3.0196   13.3649 C   0  0  0  0  0  0  0  0  0  0  0  0
    5.5420   -1.3457   13.3050 Br  0  0  0  0  0  0  0  0  0  0  0  0
    4.9653   -6.6555   12.3794 O   0  0  0  0  0  0  0  0  0  0  0  0
    3.7918   -7.4570   12.3146 C   0  0  0  0  0  0  0  0  0  0  0  0
    2.9680   -6.8139   13.2764 O   0  0  0  0  0  0  0  0  0  0  0  0
  1  2  1  0
  2  3  1  0
  3  4  1  0
  4  5  1  0
  5  6  1  0
  6  7  1  0
  7  8  1  0
  2  9  1  0
  9 10  1  0
 10 11  1  0
 11 12  2  0
 12 13  1  0
 13 14  2  0
 14 15  1  0
 13 16  1  0
 16 17  2  0
 16 18  1  0
 18 19  1  0
 19 20  2  0
 20 21  1  0
 21 22  2  0
 22 23  1  0
 23 24  2  0
 22 25  1  0
 25 26  3  0
 11 27  1  0
 27 28  2  0
 28 29  1  0
 29 30  2  0
 30 31  1  0
 31 32  2  0
 32 33  1  0
 33 34  2  0
 34 35  1  0
 32 36  1  0
 36 37  1  0
 37 38  1  0
  8  3  1  0
 28  9  1  0
 15 10  2  0
 24 19  1  0
 34 29  1  0
 38 31  1  0
M  END
$$$$
