
     RDKit          3D

 38 43  0  0  0  0  0  0  0  0999 V2000
    1.0481    0.4864    8.9462 C   0  0  0  0  0  0  0  0  0  0  0  0
    1.3689   -0.6523    9.8501 C   0  0  0  0  0  0  0  0  0  0  0  0
    2.6987   -1.2884    9.6652 C   0  0  0  0  0  0  0  0  0  0  0  0
    3.7035   -0.1232    9.5108 C   0  0  0  0  0  0  0  0  0  0  0  0
    4.1793   -0.0887    8.0782 C   0  0  0  0  0  0  0  0  0  0  0  0
    4.9978   -1.3571    7.8639 C   0  0  0  0  0  0  0  0  0  0  0  0
    4.0381   -2.5108    7.9246 C   0  0  0  0  0  0  0  0  0  0  0  0
    2.6762   -2.1262    8.4056 C   0  0  0  0  0  0  0  0  0  0  0  0
    0.9031   -0.5238   11.2123 N   0  0  0  0  0  0  0  0  0  0  0  0
   -0.1198    0.3110   11.5981 C   0  0  0  0  0  0  0  0  0  0  0  0
   -0.3435    0.1714   12.9323 C   0  0  0  0  0  0  0  0  0  0  0  0
   -1.3434    0.9153   13.5966 C   0  0  0  0  0  0  0  0  0  0  0  0
   -2.1240    1.8066   12.9135 C   0  0  0  0  0  0  0  0  0  0  0  0
   -1.8954    1.9464   11.5622 C   0  0  0  0  0  0  0  0  0  0  0  0
   -0.9133    1.2154   10.9107 C   0  0  0  0  0  0  0  0  0  0  0  0
   -3.1722    2.5970   13.5649 C   0  0  0  0  0  0  0  0  0  0  0  0
   -3.2156    2.6103   14.8194 O   0  0  0  0  0  0  0  0  0  0  0  0
   -4.1075    3.3233   12.8184 N   0  0  0  0  0  0  0  0  0  0  0  0
   -4.7000    4.4766   13.4579 C   0  0  0  0  0  0  0  0  0  0  0  0
   -4.3897    4.8024   14.7620 C   0  0  0  0  0  0  0  0  0  0  0  0
   -4.9335    5.8936   15.4054 C   0  0  0  0  0  0  0  0  0  0  0  0
   -5.8231    6.6890   14.7142 C   0  0  0  0  0  0  0  0  0  0  0  0
   -6.1655    6.3990   13.3976 C   0  0  0  0  0  0  0  0  0  0  0  0
   -5.5932    5.2939   12.7965 C   0  0  0  0  0  0  0  0  0  0  0  0
   -6.3908    7.8299   15.3878 C   0  0  0  0  0  0  0  0  0  0  0  0
   -6.8551    8.7563   15.9152 N   0  0  0  0  0  0  0  0  0  0  0  0
    0.5215   -0.7292   13.3679 N   0  0  0  0  0  0  0  0  0  0  0  0
    1.2977   -1.1654   12.3178 C   0  0  0  0  0  0  0  0  0  0  0  0
    2.3042   -2.1858   12.5723 C   0  0  0  0  0  0  0  0  0  0  0  0
    2.1091   -3.5327   12.5829 C   0  0  0  0  0  0  0  0  0  0  0  0
    3.1168   -4.4629   12.8846 C   0  0  0  0  0  0  0  0  0  0  0  0
    4.3828   -4.0136   13.1898 C   0  0  0  0  0  0  0  0  0  0  0  0
    4.5834   -2.6526   13.1792 C   0  0  0  0  0  0  0  0  0  0  0  0
    3.5980   -1.7367   12.8842 C   0  0  0  0  0  0  0  0  0  0  0  0
    4.0131    0.1406   12.9111 Br  0  0  0  0  0  0  0  0  0  0  0  0
    5.1918   -5.1230   13.4488 O   0  0  0  0  0  0  0  0  0  0  0  0
    4.5306   -6.2722   12.9334 C   0  0  0  0  0  0  0  0  0  0  0  0
    3.1764   -5.8448   12.9629 O   0  0  0  0  0  0  0  0  0  0  0  0
  1  2  1  0
  2  3  1  0
  3  4  1  0
  4  5  1  0
  5  6  1  0
  6  7  1  0
  7  8  1  0
  2  9  1  0
  9 10  1  0
 10 11  1  0
 11 12  2  0
 12 13  1  0
 13 14  2  0
 14 15  1  0
 13 16  1  0
 16 17  2  0
 16 18  1  0
 18 19  1  0
 19 20  2  0
 20 21  1  0
 21 22  2  0
 22 23  1  0
 23 24  2  0
 22 25  1  0
 25 26  3  0
 11 27  1  0
 27 28  2  0
 28 29  1  0
 29 30  2  0
 30 31  1  0
 31 32  2  0
 32 33  1  0
 33 34  2  0
 34 35  1  0
 32 36  1  0
 36 37  1  0
 37 38  1  0
  8  3  1  0
 28  9  1  0
 15 10  2  0
 24 19  1  0
 34 29  1  0
 38 31  1  0
M  END
$$$$
