
     RDKit          3D

 38 43  0  0  0  0  0  0  0  0999 V2000
    0.6481   -0.6721   11.7074 C   0  0  0  0  0  0  0  0  0  0  0  0
    0.3640    0.7265   12.1312 C   0  0  0  0  0  0  0  0  0  0  0  0
   -0.3800    1.5723   11.1625 C   0  0  0  0  0  0  0  0  0  0  0  0
    0.0354    1.0694    9.7605 C   0  0  0  0  0  0  0  0  0  0  0  0
    0.9010    2.1227    9.1117 C   0  0  0  0  0  0  0  0  0  0  0  0
   -0.0002    3.3260    8.8569 C   0  0  0  0  0  0  0  0  0  0  0  0
   -0.3588    3.8943   10.2001 C   0  0  0  0  0  0  0  0  0  0  0  0
    0.0376    3.0154   11.3423 C   0  0  0  0  0  0  0  0  0  0  0  0
    0.0313    0.9051   13.5264 N   0  0  0  0  0  0  0  0  0  0  0  0
    0.9524    1.2055   14.5027 C   0  0  0  0  0  0  0  0  0  0  0  0
    0.3197    1.3487   15.6979 C   0  0  0  0  0  0  0  0  0  0  0  0
    1.0299    1.6591   16.8786 C   0  0  0  0  0  0  0  0  0  0  0  0
    2.3871    1.8265   16.8564 C   0  0  0  0  0  0  0  0  0  0  0  0
    3.0258    1.6808   15.6446 C   0  0  0  0  0  0  0  0  0  0  0  0
    2.3275    1.3760   14.4858 C   0  0  0  0  0  0  0  0  0  0  0  0
    3.1608    2.1497   18.0584 C   0  0  0  0  0  0  0  0  0  0  0  0
    2.6480    1.9114   19.1791 O   0  0  0  0  0  0  0  0  0  0  0  0
    4.4407    2.7103   17.9724 N   0  0  0  0  0  0  0  0  0  0  0  0
    5.0421    3.1580   19.2085 C   0  0  0  0  0  0  0  0  0  0  0  0
    4.2634    3.6121   20.2529 C   0  0  0  0  0  0  0  0  0  0  0  0
    4.7997    4.0466   21.4461 C   0  0  0  0  0  0  0  0  0  0  0  0
    6.1702    4.0249   21.5981 C   0  0  0  0  0  0  0  0  0  0  0  0
    6.9948    3.5753   20.5722 C   0  0  0  0  0  0  0  0  0  0  0  0
    6.4090    3.1499   19.3949 C   0  0  0  0  0  0  0  0  0  0  0  0
    6.7299    4.4791   22.8463 C   0  0  0  0  0  0  0  0  0  0  0  0
    7.1979    4.8404   23.8475 N   0  0  0  0  0  0  0  0  0  0  0  0
   -0.9666    1.1408   15.4715 N   0  0  0  0  0  0  0  0  0  0  0  0
   -1.1587    0.8647   14.1364 C   0  0  0  0  0  0  0  0  0  0  0  0
   -2.5144    0.6291   13.6618 C   0  0  0  0  0  0  0  0  0  0  0  0
   -3.4883    1.5646   13.4917 C   0  0  0  0  0  0  0  0  0  0  0  0
   -4.7945    1.2616   13.0751 C   0  0  0  0  0  0  0  0  0  0  0  0
   -5.1355   -0.0478   12.8165 C   0  0  0  0  0  0  0  0  0  0  0  0
   -4.1530   -0.9957   12.9867 C   0  0  0  0  0  0  0  0  0  0  0  0
   -2.8708   -0.7031   13.3955 C   0  0  0  0  0  0  0  0  0  0  0  0
   -1.5950   -2.1272   13.5990 Br  0  0  0  0  0  0  0  0  0  0  0  0
   -6.4757   -0.0830   12.4228 O   0  0  0  0  0  0  0  0  0  0  0  0
   -6.8590    1.2405   12.0689 C   0  0  0  0  0  0  0  0  0  0  0  0
   -5.9380    2.0055   12.8330 O   0  0  0  0  0  0  0  0  0  0  0  0
  1  2  1  0
  2  3  1  0
  3  4  1  0
  4  5  1  0
  5  6  1  0
  6  7  1  0
  7  8  1  0
  2  9  1  0
  9 10  1  0
 10 11  1  0
 11 12  2  0
 12 13  1  0
 13 14  2  0
 14 15  1  0
 13 16  1  0
 16 17  2  0
 16 18  1  0
 18 19  1  0
 19 20  2  0
 20 21  1  0
 21 22  2  0
 22 23  1  0
 23 24  2  0
 22 25  1  0
 25 26  3  0
 11 27  1  0
 27 28  2  0
 28 29  1  0
 29 30  2  0
 30 31  1  0
 31 32  2  0
 32 33  1  0
 33 34  2  0
 34 35  1  0
 32 36  1  0
 36 37  1  0
 37 38  1  0
  8  3  1  0
 28  9  1  0
 15 10  2  0
 24 19  1  0
 34 29  1  0
 38 31  1  0
M  END
$$$$
