
     RDKit          3D

 38 43  0  0  0  0  0  0  0  0999 V2000
    1.3026    2.3024   12.3559 C   0  0  0  0  0  0  0  0  0  0  0  0
   -0.0400    1.8160   11.9348 C   0  0  0  0  0  0  0  0  0  0  0  0
   -0.0798    0.5021   11.2425 C   0  0  0  0  0  0  0  0  0  0  0  0
    1.1838   -0.2569   11.7098 C   0  0  0  0  0  0  0  0  0  0  0  0
    2.1472   -0.3414   10.5502 C   0  0  0  0  0  0  0  0  0  0  0  0
    1.4948   -1.2470    9.5114 C   0  0  0  0  0  0  0  0  0  0  0  0
    0.3052   -0.5056    8.9721 C   0  0  0  0  0  0  0  0  0  0  0  0
   -0.0275    0.7283    9.7474 C   0  0  0  0  0  0  0  0  0  0  0  0
   -1.1239    2.0916   12.8504 N   0  0  0  0  0  0  0  0  0  0  0  0
   -1.5066    3.3577   13.2278 C   0  0  0  0  0  0  0  0  0  0  0  0
   -2.5780    3.2805   14.0619 C   0  0  0  0  0  0  0  0  0  0  0  0
   -3.1781    4.4381   14.6047 C   0  0  0  0  0  0  0  0  0  0  0  0
   -2.6965    5.6827   14.3060 C   0  0  0  0  0  0  0  0  0  0  0  0
   -1.6111    5.7585   13.4611 C   0  0  0  0  0  0  0  0  0  0  0  0
   -1.0226    4.6211   12.9286 C   0  0  0  0  0  0  0  0  0  0  0  0
   -3.2905    6.9083   14.8473 C   0  0  0  0  0  0  0  0  0  0  0  0
   -4.3038    6.8055   15.5811 O   0  0  0  0  0  0  0  0  0  0  0  0
   -2.7511    8.1679   14.5609 N   0  0  0  0  0  0  0  0  0  0  0  0
   -3.2014    9.2724   15.3776 C   0  0  0  0  0  0  0  0  0  0  0  0
   -2.5025   10.4614   15.4111 C   0  0  0  0  0  0  0  0  0  0  0  0
   -2.9003   11.5365   16.1767 C   0  0  0  0  0  0  0  0  0  0  0  0
   -4.0434   11.4147   16.9385 C   0  0  0  0  0  0  0  0  0  0  0  0
   -4.7801   10.2349   16.9361 C   0  0  0  0  0  0  0  0  0  0  0  0
   -4.3401    9.1854   16.1517 C   0  0  0  0  0  0  0  0  0  0  0  0
   -4.4586   12.5396   17.7384 C   0  0  0  0  0  0  0  0  0  0  0  0
   -4.8044   13.4360   18.3932 N   0  0  0  0  0  0  0  0  0  0  0  0
   -2.8555    1.9950   14.2020 N   0  0  0  0  0  0  0  0  0  0  0  0
   -1.9656    1.2501   13.4613 C   0  0  0  0  0  0  0  0  0  0  0  0
   -2.1085   -0.1985   13.4515 C   0  0  0  0  0  0  0  0  0  0  0  0
   -1.6264   -1.0673   14.3816 C   0  0  0  0  0  0  0  0  0  0  0  0
   -1.7583   -2.4620   14.2862 C   0  0  0  0  0  0  0  0  0  0  0  0
   -2.4084   -3.0074   13.2010 C   0  0  0  0  0  0  0  0  0  0  0  0
   -2.8976   -2.1316   12.2594 C   0  0  0  0  0  0  0  0  0  0  0  0
   -2.7701   -0.7632   12.3488 C   0  0  0  0  0  0  0  0  0  0  0  0
   -3.4968    0.3470   10.9572 Br  0  0  0  0  0  0  0  0  0  0  0  0
   -2.4056   -4.3976   13.3406 O   0  0  0  0  0  0  0  0  0  0  0  0
   -2.0922   -4.6972   14.6956 C   0  0  0  0  0  0  0  0  0  0  0  0
   -1.3690   -3.5343   15.0724 O   0  0  0  0  0  0  0  0  0  0  0  0
  1  2  1  0
  2  3  1  0
  3  4  1  0
  4  5  1  0
  5  6  1  0
  6  7  1  0
  7  8  1  0
  2  9  1  0
  9 10  1  0
 10 11  1  0
 11 12  2  0
 12 13  1  0
 13 14  2  0
 14 15  1  0
 13 16  1  0
 16 17  2  0
 16 18  1  0
 18 19  1  0
 19 20  2  0
 20 21  1  0
 21 22  2  0
 22 23  1  0
 23 24  2  0
 22 25  1  0
 25 26  3  0
 11 27  1  0
 27 28  2  0
 28 29  1  0
 29 30  2  0
 30 31  1  0
 31 32  2  0
 32 33  1  0
 33 34  2  0
 34 35  1  0
 32 36  1  0
 36 37  1  0
 37 38  1  0
  8  3  1  0
 28  9  1  0
 15 10  2  0
 24 19  1  0
 34 29  1  0
 38 31  1  0
M  END
$$$$
