
     RDKit          3D

 38 43  0  0  0  0  0  0  0  0999 V2000
    2.1360   -0.5277   17.4204 C   0  0  0  0  0  0  0  0  0  0  0  0
    2.7915    0.1364   16.2603 C   0  0  0  0  0  0  0  0  0  0  0  0
    3.5835   -0.7391   15.3584 C   0  0  0  0  0  0  0  0  0  0  0  0
    3.2219   -2.1888   15.7569 C   0  0  0  0  0  0  0  0  0  0  0  0
    4.4175   -2.8097   16.4388 C   0  0  0  0  0  0  0  0  0  0  0  0
    5.5011   -2.9431   15.3745 C   0  0  0  0  0  0  0  0  0  0  0  0
    5.9383   -1.5506   15.0203 C   0  0  0  0  0  0  0  0  0  0  0  0
    5.0569   -0.4875   15.5923 C   0  0  0  0  0  0  0  0  0  0  0  0
    2.0304    1.1892   15.6265 N   0  0  0  0  0  0  0  0  0  0  0  0
    1.9873    2.4862   16.0824 C   0  0  0  0  0  0  0  0  0  0  0  0
    1.2206    3.2376   15.2474 C   0  0  0  0  0  0  0  0  0  0  0  0
    1.0037    4.6137   15.4799 C   0  0  0  0  0  0  0  0  0  0  0  0
    1.5622    5.2384   16.5608 C   0  0  0  0  0  0  0  0  0  0  0  0
    2.3382    4.4751   17.4052 C   0  0  0  0  0  0  0  0  0  0  0  0
    2.5507    3.1239   17.1759 C   0  0  0  0  0  0  0  0  0  0  0  0
    1.3625    6.6637   16.8372 C   0  0  0  0  0  0  0  0  0  0  0  0
    0.6245    7.3228   16.0647 O   0  0  0  0  0  0  0  0  0  0  0  0
    1.9735    7.2864   17.9320 N   0  0  0  0  0  0  0  0  0  0  0  0
    1.6468    8.6762   18.1591 C   0  0  0  0  0  0  0  0  0  0  0  0
    0.8020    9.3553   17.3056 C   0  0  0  0  0  0  0  0  0  0  0  0
    0.4669   10.6797   17.4890 C   0  0  0  0  0  0  0  0  0  0  0  0
    0.9996   11.3495   18.5705 C   0  0  0  0  0  0  0  0  0  0  0  0
    1.8559   10.7054   19.4574 C   0  0  0  0  0  0  0  0  0  0  0  0
    2.1614    9.3768   19.2303 C   0  0  0  0  0  0  0  0  0  0  0  0
    0.6482   12.7343   18.7615 C   0  0  0  0  0  0  0  0  0  0  0  0
    0.3814   13.8562   18.9098 N   0  0  0  0  0  0  0  0  0  0  0  0
    0.7947    2.4265   14.2936 N   0  0  0  0  0  0  0  0  0  0  0  0
    1.2854    1.1595   14.5158 C   0  0  0  0  0  0  0  0  0  0  0  0
    0.9583    0.1088   13.5629 C   0  0  0  0  0  0  0  0  0  0  0  0
   -0.1225   -0.7173   13.6058 C   0  0  0  0  0  0  0  0  0  0  0  0
   -0.3536   -1.7457   12.6780 C   0  0  0  0  0  0  0  0  0  0  0  0
    0.5482   -1.9509   11.6571 C   0  0  0  0  0  0  0  0  0  0  0  0
    1.6414   -1.1169   11.6106 C   0  0  0  0  0  0  0  0  0  0  0  0
    1.8722   -0.1073   12.5185 C   0  0  0  0  0  0  0  0  0  0  0  0
    3.4458    0.9831   12.3404 Br  0  0  0  0  0  0  0  0  0  0  0  0
    0.0957   -3.0202   10.8799 O   0  0  0  0  0  0  0  0  0  0  0  0
   -1.2762   -3.2327   11.1905 C   0  0  0  0  0  0  0  0  0  0  0  0
   -1.3450   -2.6977   12.5045 O   0  0  0  0  0  0  0  0  0  0  0  0
  1  2  1  0
  2  3  1  0
  3  4  1  0
  4  5  1  0
  5  6  1  0
  6  7  1  0
  7  8  1  0
  2  9  1  0
  9 10  1  0
 10 11  1  0
 11 12  2  0
 12 13  1  0
 13 14  2  0
 14 15  1  0
 13 16  1  0
 16 17  2  0
 16 18  1  0
 18 19  1  0
 19 20  2  0
 20 21  1  0
 21 22  2  0
 22 23  1  0
 23 24  2  0
 22 25  1  0
 25 26  3  0
 11 27  1  0
 27 28  2  0
 28 29  1  0
 29 30  2  0
 30 31  1  0
 31 32  2  0
 32 33  1  0
 33 34  2  0
 34 35  1  0
 32 36  1  0
 36 37  1  0
 37 38  1  0
  8  3  1  0
 28  9  1  0
 15 10  2  0
 24 19  1  0
 34 29  1  0
 38 31  1  0
M  END
$$$$
