
     RDKit          3D

 38 43  0  0  0  0  0  0  0  0999 V2000
   -0.2183   -1.2801   13.4646 C   0  0  0  0  0  0  0  0  0  0  0  0
    1.2234   -1.5841   13.6781 C   0  0  0  0  0  0  0  0  0  0  0  0
    2.1298   -1.3291   12.5290 C   0  0  0  0  0  0  0  0  0  0  0  0
    1.9935    0.1785   12.2133 C   0  0  0  0  0  0  0  0  0  0  0  0
    1.2569    0.3282   10.9037 C   0  0  0  0  0  0  0  0  0  0  0  0
    2.1785   -0.2275    9.8235 C   0  0  0  0  0  0  0  0  0  0  0  0
    2.2698   -1.7097   10.0483 C   0  0  0  0  0  0  0  0  0  0  0  0
    1.6718   -2.1520   11.3448 C   0  0  0  0  0  0  0  0  0  0  0  0
    1.7448   -1.2683   14.9887 N   0  0  0  0  0  0  0  0  0  0  0  0
    1.7846    0.0027   15.5130 C   0  0  0  0  0  0  0  0  0  0  0  0
    2.2913   -0.0402   16.7744 C   0  0  0  0  0  0  0  0  0  0  0  0
    2.4457    1.1300   17.5499 C   0  0  0  0  0  0  0  0  0  0  0  0
    2.0879    2.3526   17.0524 C   0  0  0  0  0  0  0  0  0  0  0  0
    1.5751    2.3936   15.7745 C   0  0  0  0  0  0  0  0  0  0  0  0
    1.4237    1.2439   15.0138 C   0  0  0  0  0  0  0  0  0  0  0  0
    2.2313    3.5901   17.8244 C   0  0  0  0  0  0  0  0  0  0  0  0
    2.5310    3.5026   19.0402 O   0  0  0  0  0  0  0  0  0  0  0  0
    2.0416    4.8445   17.2326 N   0  0  0  0  0  0  0  0  0  0  0  0
    2.0218    5.9878   18.1171 C   0  0  0  0  0  0  0  0  0  0  0  0
    1.7806    5.8366   19.4670 C   0  0  0  0  0  0  0  0  0  0  0  0
    1.7541    6.9018   20.3415 C   0  0  0  0  0  0  0  0  0  0  0  0
    1.9781    8.1681   19.8431 C   0  0  0  0  0  0  0  0  0  0  0  0
    2.2254    8.3684   18.4891 C   0  0  0  0  0  0  0  0  0  0  0  0
    2.2417    7.2682   17.6528 C   0  0  0  0  0  0  0  0  0  0  0  0
    1.9505    9.2810   20.7585 C   0  0  0  0  0  0  0  0  0  0  0  0
    1.9207   10.1892   21.4839 N   0  0  0  0  0  0  0  0  0  0  0  0
    2.5622   -1.3093   17.0295 N   0  0  0  0  0  0  0  0  0  0  0  0
    2.2314   -2.0778   15.9361 C   0  0  0  0  0  0  0  0  0  0  0  0
    2.4249   -3.5185   16.0130 C   0  0  0  0  0  0  0  0  0  0  0  0
    1.6503   -4.4057   16.6951 C   0  0  0  0  0  0  0  0  0  0  0  0
    1.9222   -5.7814   16.7677 C   0  0  0  0  0  0  0  0  0  0  0  0
    3.0280   -6.2875   16.1207 C   0  0  0  0  0  0  0  0  0  0  0  0
    3.8126   -5.3933   15.4296 C   0  0  0  0  0  0  0  0  0  0  0  0
    3.5500   -4.0433   15.3560 C   0  0  0  0  0  0  0  0  0  0  0  0
    4.7339   -2.9026   14.3589 Br  0  0  0  0  0  0  0  0  0  0  0  0
    3.0751   -7.6659   16.3445 O   0  0  0  0  0  0  0  0  0  0  0  0
    1.7941   -8.0742   16.8094 C   0  0  0  0  0  0  0  0  0  0  0  0
    1.3112   -6.8652   17.3773 O   0  0  0  0  0  0  0  0  0  0  0  0
  1  2  1  0
  2  3  1  0
  3  4  1  0
  4  5  1  0
  5  6  1  0
  6  7  1  0
  7  8  1  0
  2  9  1  0
  9 10  1  0
 10 11  1  0
 11 12  2  0
 12 13  1  0
 13 14  2  0
 14 15  1  0
 13 16  1  0
 16 17  2  0
 16 18  1  0
 18 19  1  0
 19 20  2  0
 20 21  1  0
 21 22  2  0
 22 23  1  0
 23 24  2  0
 22 25  1  0
 25 26  3  0
 11 27  1  0
 27 28  2  0
 28 29  1  0
 29 30  2  0
 30 31  1  0
 31 32  2  0
 32 33  1  0
 33 34  2  0
 34 35  1  0
 32 36  1  0
 36 37  1  0
 37 38  1  0
  8  3  1  0
 28  9  1  0
 15 10  2  0
 24 19  1  0
 34 29  1  0
 38 31  1  0
M  END
$$$$
