
     RDKit          3D

 38 43  0  0  0  0  0  0  0  0999 V2000
    0.3761   -1.8323   14.0176 C   0  0  0  0  0  0  0  0  0  0  0  0
    0.4522   -1.5281   12.5622 C   0  0  0  0  0  0  0  0  0  0  0  0
   -0.5051   -2.2504   11.6852 C   0  0  0  0  0  0  0  0  0  0  0  0
   -1.3043   -1.1540   10.9435 C   0  0  0  0  0  0  0  0  0  0  0  0
   -2.7160   -1.1460   11.4794 C   0  0  0  0  0  0  0  0  0  0  0  0
   -3.3486   -2.4653   11.0502 C   0  0  0  0  0  0  0  0  0  0  0  0
   -2.6509   -3.5529   11.8156 C   0  0  0  0  0  0  0  0  0  0  0  0
   -1.4340   -3.0804   12.5438 C   0  0  0  0  0  0  0  0  0  0  0  0
    0.7191   -0.1490   12.2216 N   0  0  0  0  0  0  0  0  0  0  0  0
   -0.0533    0.9087   12.6419 C   0  0  0  0  0  0  0  0  0  0  0  0
    0.4831    2.0734   12.1889 C   0  0  0  0  0  0  0  0  0  0  0  0
   -0.1117    3.3222   12.4740 C   0  0  0  0  0  0  0  0  0  0  0  0
   -1.2549    3.3997   13.2206 C   0  0  0  0  0  0  0  0  0  0  0  0
   -1.7966    2.2187   13.6783 C   0  0  0  0  0  0  0  0  0  0  0  0
   -1.2117    0.9929   13.3977 C   0  0  0  0  0  0  0  0  0  0  0  0
   -1.9028    4.6750   13.5394 C   0  0  0  0  0  0  0  0  0  0  0  0
   -1.5999    5.6842   12.8571 O   0  0  0  0  0  0  0  0  0  0  0  0
   -2.8378    4.7785   14.5761 N   0  0  0  0  0  0  0  0  0  0  0  0
   -2.9792    6.0743   15.2013 C   0  0  0  0  0  0  0  0  0  0  0  0
   -3.4994    6.1955   16.4733 C   0  0  0  0  0  0  0  0  0  0  0  0
   -3.6495    7.4129   17.1024 C   0  0  0  0  0  0  0  0  0  0  0  0
   -3.2627    8.5531   16.4300 C   0  0  0  0  0  0  0  0  0  0  0  0
   -2.7331    8.4792   15.1460 C   0  0  0  0  0  0  0  0  0  0  0  0
   -2.6027    7.2352   14.5580 C   0  0  0  0  0  0  0  0  0  0  0  0
   -3.4197    9.8254   17.0889 C   0  0  0  0  0  0  0  0  0  0  0  0
   -3.5422   10.8602   17.6048 N   0  0  0  0  0  0  0  0  0  0  0  0
    1.5647    1.7483   11.5006 N   0  0  0  0  0  0  0  0  0  0  0  0
    1.7215    0.3805   11.5113 C   0  0  0  0  0  0  0  0  0  0  0  0
    2.8728   -0.1940   10.8307 C   0  0  0  0  0  0  0  0  0  0  0  0
    2.9735   -0.4735    9.5025 C   0  0  0  0  0  0  0  0  0  0  0  0
    4.0992   -1.0746    8.9167 C   0  0  0  0  0  0  0  0  0  0  0  0
    5.1760   -1.4095    9.7079 C   0  0  0  0  0  0  0  0  0  0  0  0
    5.0775   -1.1275   11.0509 C   0  0  0  0  0  0  0  0  0  0  0  0
    3.9753   -0.5384   11.6297 C   0  0  0  0  0  0  0  0  0  0  0  0
    3.9665   -0.2046   13.5233 Br  0  0  0  0  0  0  0  0  0  0  0  0
    6.1554   -1.9864    8.8954 O   0  0  0  0  0  0  0  0  0  0  0  0
    5.8451   -1.6629    7.5453 C   0  0  0  0  0  0  0  0  0  0  0  0
    4.4427   -1.4546    7.6294 O   0  0  0  0  0  0  0  0  0  0  0  0
  1  2  1  0
  2  3  1  0
  3  4  1  0
  4  5  1  0
  5  6  1  0
  6  7  1  0
  7  8  1  0
  2  9  1  0
  9 10  1  0
 10 11  1  0
 11 12  2  0
 12 13  1  0
 13 14  2  0
 14 15  1  0
 13 16  1  0
 16 17  2  0
 16 18  1  0
 18 19  1  0
 19 20  2  0
 20 21  1  0
 21 22  2  0
 22 23  1  0
 23 24  2  0
 22 25  1  0
 25 26  3  0
 11 27  1  0
 27 28  2  0
 28 29  1  0
 29 30  2  0
 30 31  1  0
 31 32  2  0
 32 33  1  0
 33 34  2  0
 34 35  1  0
 32 36  1  0
 36 37  1  0
 37 38  1  0
  8  3  1  0
 28  9  1  0
 15 10  2  0
 24 19  1  0
 34 29  1  0
 38 31  1  0
M  END
$$$$
