
     RDKit          3D

 38 43  0  0  0  0  0  0  0  0999 V2000
    3.2719   -1.4008   13.0270 C   0  0  0  0  0  0  0  0  0  0  0  0
    2.9510   -0.0377   13.5325 C   0  0  0  0  0  0  0  0  0  0  0  0
    2.4340    0.9328   12.5334 C   0  0  0  0  0  0  0  0  0  0  0  0
    3.2498    0.6826   11.2439 C   0  0  0  0  0  0  0  0  0  0  0  0
    4.1754    1.8560   11.0284 C   0  0  0  0  0  0  0  0  0  0  0  0
    3.2873    3.0554   10.7164 C   0  0  0  0  0  0  0  0  0  0  0  0
    2.5368    3.3816   11.9758 C   0  0  0  0  0  0  0  0  0  0  0  0
    2.6759    2.3387   13.0375 C   0  0  0  0  0  0  0  0  0  0  0  0
    2.3587    0.0208   14.8497 N   0  0  0  0  0  0  0  0  0  0  0  0
    2.9476    0.6369   15.9292 C   0  0  0  0  0  0  0  0  0  0  0  0
    2.1228    0.5540   17.0073 C   0  0  0  0  0  0  0  0  0  0  0  0
    2.4809    1.1058   18.2571 C   0  0  0  0  0  0  0  0  0  0  0  0
    3.6781    1.7457   18.4234 C   0  0  0  0  0  0  0  0  0  0  0  0
    4.5119    1.8284   17.3301 C   0  0  0  0  0  0  0  0  0  0  0  0
    4.1593    1.2862   16.1032 C   0  0  0  0  0  0  0  0  0  0  0  0
    4.0869    2.3322   19.7028 C   0  0  0  0  0  0  0  0  0  0  0  0
    3.8474    1.6918   20.7555 O   0  0  0  0  0  0  0  0  0  0  0  0
    4.7292    3.5746   19.7628 N   0  0  0  0  0  0  0  0  0  0  0  0
    4.6674    4.2817   21.0223 C   0  0  0  0  0  0  0  0  0  0  0  0
    4.1089    3.6948   22.1390 C   0  0  0  0  0  0  0  0  0  0  0  0
    4.0322    4.3365   23.3565 C   0  0  0  0  0  0  0  0  0  0  0  0
    4.5351    5.6166   23.4585 C   0  0  0  0  0  0  0  0  0  0  0  0
    5.1072    6.2481   22.3591 C   0  0  0  0  0  0  0  0  0  0  0  0
    5.1606    5.5627   21.1601 C   0  0  0  0  0  0  0  0  0  0  0  0
    4.4546    6.2865   24.7322 C   0  0  0  0  0  0  0  0  0  0  0  0
    4.4058    6.8350   25.7563 N   0  0  0  0  0  0  0  0  0  0  0  0
    1.0449   -0.1004   16.6085 N   0  0  0  0  0  0  0  0  0  0  0  0
    1.1776   -0.4366   15.2800 C   0  0  0  0  0  0  0  0  0  0  0  0
    0.0848   -1.1434   14.6279 C   0  0  0  0  0  0  0  0  0  0  0  0
   -0.0863   -2.4922   14.5660 C   0  0  0  0  0  0  0  0  0  0  0  0
   -1.1408   -3.1122   13.8766 C   0  0  0  0  0  0  0  0  0  0  0  0
   -2.0683   -2.3350   13.2183 C   0  0  0  0  0  0  0  0  0  0  0  0
   -1.8985   -0.9711   13.2797 C   0  0  0  0  0  0  0  0  0  0  0  0
   -0.8656   -0.3587   13.9543 C   0  0  0  0  0  0  0  0  0  0  0  0
   -0.7429    1.5601   13.9551 Br  0  0  0  0  0  0  0  0  0  0  0  0
   -3.0039   -3.1816   12.6181 O   0  0  0  0  0  0  0  0  0  0  0  0
   -2.8770   -4.4645   13.2195 C   0  0  0  0  0  0  0  0  0  0  0  0
   -1.5291   -4.4253   13.6656 O   0  0  0  0  0  0  0  0  0  0  0  0
  1  2  1  0
  2  3  1  0
  3  4  1  0
  4  5  1  0
  5  6  1  0
  6  7  1  0
  7  8  1  0
  2  9  1  0
  9 10  1  0
 10 11  1  0
 11 12  2  0
 12 13  1  0
 13 14  2  0
 14 15  1  0
 13 16  1  0
 16 17  2  0
 16 18  1  0
 18 19  1  0
 19 20  2  0
 20 21  1  0
 21 22  2  0
 22 23  1  0
 23 24  2  0
 22 25  1  0
 25 26  3  0
 11 27  1  0
 27 28  2  0
 28 29  1  0
 29 30  2  0
 30 31  1  0
 31 32  2  0
 32 33  1  0
 33 34  2  0
 34 35  1  0
 32 36  1  0
 36 37  1  0
 37 38  1  0
  8  3  1  0
 28  9  1  0
 15 10  2  0
 24 19  1  0
 34 29  1  0
 38 31  1  0
M  END
$$$$
