
     RDKit          3D

 38 43  0  0  0  0  0  0  0  0999 V2000
    1.3083   -0.5272   16.8045 C   0  0  0  0  0  0  0  0  0  0  0  0
    1.4890   -1.3126   15.5527 C   0  0  0  0  0  0  0  0  0  0  0  0
    0.8398   -2.6483   15.5111 C   0  0  0  0  0  0  0  0  0  0  0  0
    1.1893   -3.3270   16.8558 C   0  0  0  0  0  0  0  0  0  0  0  0
    2.1644   -4.4480   16.5865 C   0  0  0  0  0  0  0  0  0  0  0  0
    1.4025   -5.5015   15.7899 C   0  0  0  0  0  0  0  0  0  0  0  0
    1.1163   -4.9059   14.4412 C   0  0  0  0  0  0  0  0  0  0  0  0
    1.4173   -3.4440   14.3611 C   0  0  0  0  0  0  0  0  0  0  0  0
    1.4685   -0.5509   14.3244 N   0  0  0  0  0  0  0  0  0  0  0  0
    0.3686    0.1357   13.8654 C   0  0  0  0  0  0  0  0  0  0  0  0
    0.6833    0.7808   12.7104 C   0  0  0  0  0  0  0  0  0  0  0  0
   -0.2660    1.5651   12.0186 C   0  0  0  0  0  0  0  0  0  0  0  0
   -1.5417    1.7010   12.4926 C   0  0  0  0  0  0  0  0  0  0  0  0
   -1.8582    1.0464   13.6627 C   0  0  0  0  0  0  0  0  0  0  0  0
   -0.9252    0.2766   14.3412 C   0  0  0  0  0  0  0  0  0  0  0  0
   -2.5559    2.5056   11.8057 C   0  0  0  0  0  0  0  0  0  0  0  0
   -2.4889    2.6090   10.5565 O   0  0  0  0  0  0  0  0  0  0  0  0
   -3.5788    3.1478   12.5134 N   0  0  0  0  0  0  0  0  0  0  0  0
   -3.2491    4.4096   13.1372 C   0  0  0  0  0  0  0  0  0  0  0  0
   -1.9706    4.9233   13.0670 C   0  0  0  0  0  0  0  0  0  0  0  0
   -1.6181    6.1224   13.6483 C   0  0  0  0  0  0  0  0  0  0  0  0
   -2.5851    6.8343   14.3265 C   0  0  0  0  0  0  0  0  0  0  0  0
   -3.8874    6.3554   14.4232 C   0  0  0  0  0  0  0  0  0  0  0  0
   -4.1912    5.1479   13.8233 C   0  0  0  0  0  0  0  0  0  0  0  0
   -2.2154    8.0882   14.9336 C   0  0  0  0  0  0  0  0  0  0  0  0
   -1.9345    9.1053   15.4222 N   0  0  0  0  0  0  0  0  0  0  0  0
    1.9504    0.5013   12.4549 N   0  0  0  0  0  0  0  0  0  0  0  0
    2.4469   -0.3205   13.4417 C   0  0  0  0  0  0  0  0  0  0  0  0
    3.8415   -0.7312   13.3699 C   0  0  0  0  0  0  0  0  0  0  0  0
    4.3920   -1.5767   12.4564 C   0  0  0  0  0  0  0  0  0  0  0  0
    5.7397   -1.9706   12.4733 C   0  0  0  0  0  0  0  0  0  0  0  0
    6.5732   -1.4882   13.4583 C   0  0  0  0  0  0  0  0  0  0  0  0
    6.0199   -0.6326   14.3828 C   0  0  0  0  0  0  0  0  0  0  0  0
    4.6986   -0.2439   14.3702 C   0  0  0  0  0  0  0  0  0  0  0  0
    4.0527    0.9548   15.7277 Br  0  0  0  0  0  0  0  0  0  0  0  0
    7.8479   -2.0235   13.2560 O   0  0  0  0  0  0  0  0  0  0  0  0
    7.8988   -2.5336   11.9290 C   0  0  0  0  0  0  0  0  0  0  0  0
    6.5245   -2.7952   11.6837 O   0  0  0  0  0  0  0  0  0  0  0  0
  1  2  1  0
  2  3  1  0
  3  4  1  0
  4  5  1  0
  5  6  1  0
  6  7  1  0
  7  8  1  0
  2  9  1  0
  9 10  1  0
 10 11  1  0
 11 12  2  0
 12 13  1  0
 13 14  2  0
 14 15  1  0
 13 16  1  0
 16 17  2  0
 16 18  1  0
 18 19  1  0
 19 20  2  0
 20 21  1  0
 21 22  2  0
 22 23  1  0
 23 24  2  0
 22 25  1  0
 25 26  3  0
 11 27  1  0
 27 28  2  0
 28 29  1  0
 29 30  2  0
 30 31  1  0
 31 32  2  0
 32 33  1  0
 33 34  2  0
 34 35  1  0
 32 36  1  0
 36 37  1  0
 37 38  1  0
  8  3  1  0
 28  9  1  0
 15 10  2  0
 24 19  1  0
 34 29  1  0
 38 31  1  0
M  END
$$$$
