
     RDKit          3D

 38 43  0  0  0  0  0  0  0  0999 V2000
   -1.4000   -1.3517   14.2873 C   0  0  0  0  0  0  0  0  0  0  0  0
   -0.1233   -0.7399   13.8265 C   0  0  0  0  0  0  0  0  0  0  0  0
    0.5768   -1.4311   12.7133 C   0  0  0  0  0  0  0  0  0  0  0  0
   -0.2053   -1.0613   11.4316 C   0  0  0  0  0  0  0  0  0  0  0  0
   -0.9378   -2.2895   10.9471 C   0  0  0  0  0  0  0  0  0  0  0  0
    0.1302   -3.2796   10.4954 C   0  0  0  0  0  0  0  0  0  0  0  0
    0.8602   -3.7267   11.7294 C   0  0  0  0  0  0  0  0  0  0  0  0
    0.5200   -2.9253   12.9444 C   0  0  0  0  0  0  0  0  0  0  0  0
   -0.0903    0.7050   13.8061 N   0  0  0  0  0  0  0  0  0  0  0  0
   -1.0312    1.4853   13.1754 C   0  0  0  0  0  0  0  0  0  0  0  0
   -0.7416    2.7990   13.3748 C   0  0  0  0  0  0  0  0  0  0  0  0
   -1.5479    3.8247   12.8338 C   0  0  0  0  0  0  0  0  0  0  0  0
   -2.6537    3.5263   12.0865 C   0  0  0  0  0  0  0  0  0  0  0  0
   -2.9449    2.1949   11.8858 C   0  0  0  0  0  0  0  0  0  0  0  0
   -2.1525    1.1884   12.4175 C   0  0  0  0  0  0  0  0  0  0  0  0
   -3.5165    4.5603   11.5083 C   0  0  0  0  0  0  0  0  0  0  0  0
   -3.0476    5.7158   11.3648 O   0  0  0  0  0  0  0  0  0  0  0  0
   -4.8322    4.2792   11.1217 N   0  0  0  0  0  0  0  0  0  0  0  0
   -5.7075    5.4106   10.9126 C   0  0  0  0  0  0  0  0  0  0  0  0
   -7.0410    5.3501   11.2607 C   0  0  0  0  0  0  0  0  0  0  0  0
   -7.9062    6.4075   11.0772 C   0  0  0  0  0  0  0  0  0  0  0  0
   -7.4151    7.5709   10.5230 C   0  0  0  0  0  0  0  0  0  0  0  0
   -6.0776    7.6775   10.1567 C   0  0  0  0  0  0  0  0  0  0  0  0
   -5.2501    6.5895   10.3609 C   0  0  0  0  0  0  0  0  0  0  0  0
   -8.3206    8.6760   10.3319 C   0  0  0  0  0  0  0  0  0  0  0  0
   -9.0643    9.5577   10.1858 N   0  0  0  0  0  0  0  0  0  0  0  0
    0.3557    2.8362   14.1120 N   0  0  0  0  0  0  0  0  0  0  0  0
    0.7692    1.5515   14.3843 C   0  0  0  0  0  0  0  0  0  0  0  0
    1.9521    1.3609   15.2109 C   0  0  0  0  0  0  0  0  0  0  0  0
    2.0380    1.5394   16.5574 C   0  0  0  0  0  0  0  0  0  0  0  0
    3.2266    1.3846   17.2889 C   0  0  0  0  0  0  0  0  0  0  0  0
    4.3846    1.0320   16.6314 C   0  0  0  0  0  0  0  0  0  0  0  0
    4.3008    0.8500   15.2703 C   0  0  0  0  0  0  0  0  0  0  0  0
    3.1374    1.0011   14.5488 C   0  0  0  0  0  0  0  0  0  0  0  0
    3.1613    0.7215   12.6466 Br  0  0  0  0  0  0  0  0  0  0  0  0
    5.4140    0.9433   17.5720 O   0  0  0  0  0  0  0  0  0  0  0  0
    4.8182    0.8666   18.8616 C   0  0  0  0  0  0  0  0  0  0  0  0
    3.5717    1.5050   18.6253 O   0  0  0  0  0  0  0  0  0  0  0  0
  1  2  1  0
  2  3  1  0
  3  4  1  0
  4  5  1  0
  5  6  1  0
  6  7  1  0
  7  8  1  0
  2  9  1  0
  9 10  1  0
 10 11  1  0
 11 12  2  0
 12 13  1  0
 13 14  2  0
 14 15  1  0
 13 16  1  0
 16 17  2  0
 16 18  1  0
 18 19  1  0
 19 20  2  0
 20 21  1  0
 21 22  2  0
 22 23  1  0
 23 24  2  0
 22 25  1  0
 25 26  3  0
 11 27  1  0
 27 28  2  0
 28 29  1  0
 29 30  2  0
 30 31  1  0
 31 32  2  0
 32 33  1  0
 33 34  2  0
 34 35  1  0
 32 36  1  0
 36 37  1  0
 37 38  1  0
  8  3  1  0
 28  9  1  0
 15 10  2  0
 24 19  1  0
 34 29  1  0
 38 31  1  0
M  END
$$$$
