
     RDKit          3D

 38 43  0  0  0  0  0  0  0  0999 V2000
   -0.3777   -2.1121   13.2463 C   0  0  0  0  0  0  0  0  0  0  0  0
    0.9203   -1.4490   12.9429 C   0  0  0  0  0  0  0  0  0  0  0  0
    0.8662   -0.2752   12.0337 C   0  0  0  0  0  0  0  0  0  0  0  0
   -0.1084   -0.6678   10.8991 C   0  0  0  0  0  0  0  0  0  0  0  0
    0.6882   -0.8668    9.6319 C   0  0  0  0  0  0  0  0  0  0  0  0
    1.2290    0.5044    9.2416 C   0  0  0  0  0  0  0  0  0  0  0  0
    2.2446    0.8845   10.2807 C   0  0  0  0  0  0  0  0  0  0  0  0
    2.2469   -0.0221   11.4691 C   0  0  0  0  0  0  0  0  0  0  0  0
    1.8558   -1.3666   14.0417 N   0  0  0  0  0  0  0  0  0  0  0  0
    1.8451   -0.3660   14.9854 C   0  0  0  0  0  0  0  0  0  0  0  0
    2.8209   -0.5956   15.9043 C   0  0  0  0  0  0  0  0  0  0  0  0
    3.0356    0.2814   16.9904 C   0  0  0  0  0  0  0  0  0  0  0  0
    2.2627    1.3979   17.1530 C   0  0  0  0  0  0  0  0  0  0  0  0
    1.2750    1.6284   16.2208 C   0  0  0  0  0  0  0  0  0  0  0  0
    1.0649    0.7666   15.1547 C   0  0  0  0  0  0  0  0  0  0  0  0
    2.4524    2.3323   18.2659 C   0  0  0  0  0  0  0  0  0  0  0  0
    3.2263    2.0008   19.1970 O   0  0  0  0  0  0  0  0  0  0  0  0
    1.7929    3.5666   18.3018 N   0  0  0  0  0  0  0  0  0  0  0  0
    2.2258    4.5095   19.3085 C   0  0  0  0  0  0  0  0  0  0  0  0
    2.1150    5.8690   19.1018 C   0  0  0  0  0  0  0  0  0  0  0  0
    2.5163    6.7985   20.0374 C   0  0  0  0  0  0  0  0  0  0  0  0
    3.0494    6.3473   21.2265 C   0  0  0  0  0  0  0  0  0  0  0  0
    3.1803    4.9857   21.4786 C   0  0  0  0  0  0  0  0  0  0  0  0
    2.7634    4.0934   20.5089 C   0  0  0  0  0  0  0  0  0  0  0  0
    3.4682    7.3200   22.2042 C   0  0  0  0  0  0  0  0  0  0  0  0
    3.8234    8.1027   22.9873 N   0  0  0  0  0  0  0  0  0  0  0  0
    3.4268   -1.7134   15.5404 N   0  0  0  0  0  0  0  0  0  0  0  0
    2.8426   -2.1990   14.3922 C   0  0  0  0  0  0  0  0  0  0  0  0
    3.3420   -3.4454   13.8300 C   0  0  0  0  0  0  0  0  0  0  0  0
    2.8148   -4.6867   14.0136 C   0  0  0  0  0  0  0  0  0  0  0  0
    3.3764   -5.8577   13.4797 C   0  0  0  0  0  0  0  0  0  0  0  0
    4.5248   -5.7734   12.7235 C   0  0  0  0  0  0  0  0  0  0  0  0
    5.0597   -4.5199   12.5355 C   0  0  0  0  0  0  0  0  0  0  0  0
    4.5124   -3.3688   13.0574 C   0  0  0  0  0  0  0  0  0  0  0  0
    5.3666   -1.6792   12.7219 Br  0  0  0  0  0  0  0  0  0  0  0  0
    4.8766   -7.0622   12.3142 O   0  0  0  0  0  0  0  0  0  0  0  0
    3.7410   -7.8999   12.4940 C   0  0  0  0  0  0  0  0  0  0  0  0
    3.0464   -7.2027   13.5182 O   0  0  0  0  0  0  0  0  0  0  0  0
  1  2  1  0
  2  3  1  0
  3  4  1  0
  4  5  1  0
  5  6  1  0
  6  7  1  0
  7  8  1  0
  2  9  1  0
  9 10  1  0
 10 11  1  0
 11 12  2  0
 12 13  1  0
 13 14  2  0
 14 15  1  0
 13 16  1  0
 16 17  2  0
 16 18  1  0
 18 19  1  0
 19 20  2  0
 20 21  1  0
 21 22  2  0
 22 23  1  0
 23 24  2  0
 22 25  1  0
 25 26  3  0
 11 27  1  0
 27 28  2  0
 28 29  1  0
 29 30  2  0
 30 31  1  0
 31 32  2  0
 32 33  1  0
 33 34  2  0
 34 35  1  0
 32 36  1  0
 36 37  1  0
 37 38  1  0
  8  3  1  0
 28  9  1  0
 15 10  2  0
 24 19  1  0
 34 29  1  0
 38 31  1  0
M  END
$$$$
