
     RDKit          3D

 38 43  0  0  0  0  0  0  0  0999 V2000
    0.7499   -1.0151   11.6133 C   0  0  0  0  0  0  0  0  0  0  0  0
    1.7964   -1.4811   12.5642 C   0  0  0  0  0  0  0  0  0  0  0  0
    3.1569   -1.6832   12.0026 C   0  0  0  0  0  0  0  0  0  0  0  0
    3.2214   -0.8042   10.7321 C   0  0  0  0  0  0  0  0  0  0  0  0
    3.2317   -1.7098    9.5240 C   0  0  0  0  0  0  0  0  0  0  0  0
    4.5568   -2.4632    9.5599 C   0  0  0  0  0  0  0  0  0  0  0  0
    4.4985   -3.3921   10.7386 C   0  0  0  0  0  0  0  0  0  0  0  0
    3.3298   -3.1409   11.6360 C   0  0  0  0  0  0  0  0  0  0  0  0
    1.7285   -0.9236   13.8960 N   0  0  0  0  0  0  0  0  0  0  0  0
    1.4073    0.3867   14.1640 C   0  0  0  0  0  0  0  0  0  0  0  0
    1.3887    0.5856   15.5092 C   0  0  0  0  0  0  0  0  0  0  0  0
    1.0876    1.8479   16.0665 C   0  0  0  0  0  0  0  0  0  0  0  0
    0.8031    2.9183   15.2641 C   0  0  0  0  0  0  0  0  0  0  0  0
    0.8226    2.7145   13.9018 C   0  0  0  0  0  0  0  0  0  0  0  0
    1.1184    1.4745   13.3556 C   0  0  0  0  0  0  0  0  0  0  0  0
    0.4850    4.2439   15.8021 C   0  0  0  0  0  0  0  0  0  0  0  0
   -0.3529    4.3236   16.7334 O   0  0  0  0  0  0  0  0  0  0  0  0
    1.0934    5.3999   15.2990 N   0  0  0  0  0  0  0  0  0  0  0  0
    1.2618    6.5025   16.2187 C   0  0  0  0  0  0  0  0  0  0  0  0
    0.9628    6.3616   17.5580 C   0  0  0  0  0  0  0  0  0  0  0  0
    1.1104    7.3890   18.4651 C   0  0  0  0  0  0  0  0  0  0  0  0
    1.5761    8.6053   18.0115 C   0  0  0  0  0  0  0  0  0  0  0  0
    1.8903    8.7935   16.6697 C   0  0  0  0  0  0  0  0  0  0  0  0
    1.7252    7.7326   15.7995 C   0  0  0  0  0  0  0  0  0  0  0  0
    1.7304    9.6787   18.9609 C   0  0  0  0  0  0  0  0  0  0  0  0
    1.8710   10.5377   19.7319 N   0  0  0  0  0  0  0  0  0  0  0  0
    1.6929   -0.5745   16.0666 N   0  0  0  0  0  0  0  0  0  0  0  0
    1.9065   -1.5141   15.0832 C   0  0  0  0  0  0  0  0  0  0  0  0
    2.2297   -2.8767   15.4800 C   0  0  0  0  0  0  0  0  0  0  0  0
    3.4125   -3.3133   15.9927 C   0  0  0  0  0  0  0  0  0  0  0  0
    3.6751   -4.6556   16.3104 C   0  0  0  0  0  0  0  0  0  0  0  0
    2.6979   -5.6038   16.1018 C   0  0  0  0  0  0  0  0  0  0  0  0
    1.5008   -5.1655   15.5843 C   0  0  0  0  0  0  0  0  0  0  0  0
    1.2390   -3.8502   15.2710 C   0  0  0  0  0  0  0  0  0  0  0  0
   -0.4777   -3.3741   14.5477 Br  0  0  0  0  0  0  0  0  0  0  0  0
    3.2017   -6.8470   16.4929 O   0  0  0  0  0  0  0  0  0  0  0  0
    4.3512   -6.6156   17.2985 C   0  0  0  0  0  0  0  0  0  0  0  0
    4.7628   -5.3403   16.8277 O   0  0  0  0  0  0  0  0  0  0  0  0
  1  2  1  0
  2  3  1  0
  3  4  1  0
  4  5  1  0
  5  6  1  0
  6  7  1  0
  7  8  1  0
  2  9  1  0
  9 10  1  0
 10 11  1  0
 11 12  2  0
 12 13  1  0
 13 14  2  0
 14 15  1  0
 13 16  1  0
 16 17  2  0
 16 18  1  0
 18 19  1  0
 19 20  2  0
 20 21  1  0
 21 22  2  0
 22 23  1  0
 23 24  2  0
 22 25  1  0
 25 26  3  0
 11 27  1  0
 27 28  2  0
 28 29  1  0
 29 30  2  0
 30 31  1  0
 31 32  2  0
 32 33  1  0
 33 34  2  0
 34 35  1  0
 32 36  1  0
 36 37  1  0
 37 38  1  0
  8  3  1  0
 28  9  1  0
 15 10  2  0
 24 19  1  0
 34 29  1  0
 38 31  1  0
M  END
$$$$
