
     RDKit          3D

 38 43  0  0  0  0  0  0  0  0999 V2000
   -0.6317   -1.5360   14.4626 C   0  0  0  0  0  0  0  0  0  0  0  0
    0.8010   -1.6070   14.0639 C   0  0  0  0  0  0  0  0  0  0  0  0
    1.1475   -1.0320   12.7386 C   0  0  0  0  0  0  0  0  0  0  0  0
    1.9014    0.2848   13.0365 C   0  0  0  0  0  0  0  0  0  0  0  0
    1.0143    1.4427   12.6464 C   0  0  0  0  0  0  0  0  0  0  0  0
    0.8787    1.3910   11.1286 C   0  0  0  0  0  0  0  0  0  0  0  0
    0.0768    0.1634   10.8039 C   0  0  0  0  0  0  0  0  0  0  0  0
   -0.1268   -0.7408   11.9766 C   0  0  0  0  0  0  0  0  0  0  0  0
    1.7597   -1.3964   15.1249 N   0  0  0  0  0  0  0  0  0  0  0  0
    1.8958   -0.2130   15.8125 C   0  0  0  0  0  0  0  0  0  0  0  0
    2.8509   -0.3499   16.7709 C   0  0  0  0  0  0  0  0  0  0  0  0
    3.1973    0.7178   17.6281 C   0  0  0  0  0  0  0  0  0  0  0  0
    2.5781    1.9324   17.5200 C   0  0  0  0  0  0  0  0  0  0  0  0
    1.6112    2.0688   16.5483 C   0  0  0  0  0  0  0  0  0  0  0  0
    1.2717    1.0197   15.7071 C   0  0  0  0  0  0  0  0  0  0  0  0
    2.9076    3.0650   18.3898 C   0  0  0  0  0  0  0  0  0  0  0  0
    3.9731    3.0176   19.0519 O   0  0  0  0  0  0  0  0  0  0  0  0
    2.0639    4.1776   18.4888 N   0  0  0  0  0  0  0  0  0  0  0  0
    2.3614    5.1322   19.5329 C   0  0  0  0  0  0  0  0  0  0  0  0
    3.4307    4.9431   20.3838 C   0  0  0  0  0  0  0  0  0  0  0  0
    3.7461    5.8305   21.3903 C   0  0  0  0  0  0  0  0  0  0  0  0
    2.9586    6.9513   21.5501 C   0  0  0  0  0  0  0  0  0  0  0  0
    1.8702    7.1833   20.7157 C   0  0  0  0  0  0  0  0  0  0  0  0
    1.5950    6.2639   19.7211 C   0  0  0  0  0  0  0  0  0  0  0  0
    3.2896    7.8787   22.6026 C   0  0  0  0  0  0  0  0  0  0  0  0
    3.5427    8.6202   23.4617 N   0  0  0  0  0  0  0  0  0  0  0  0
    3.3005   -1.5904   16.6815 N   0  0  0  0  0  0  0  0  0  0  0  0
    2.6371   -2.2470   15.6693 C   0  0  0  0  0  0  0  0  0  0  0  0
    2.9608   -3.6432   15.4153 C   0  0  0  0  0  0  0  0  0  0  0  0
    2.7138   -4.6963   16.2414 C   0  0  0  0  0  0  0  0  0  0  0  0
    3.0971   -6.0166   15.9555 C   0  0  0  0  0  0  0  0  0  0  0  0
    3.7609   -6.2887   14.7795 C   0  0  0  0  0  0  0  0  0  0  0  0
    4.0114   -5.2263   13.9420 C   0  0  0  0  0  0  0  0  0  0  0  0
    3.6376   -3.9299   14.2185 C   0  0  0  0  0  0  0  0  0  0  0  0
    4.0559   -2.5366   12.9612 Br  0  0  0  0  0  0  0  0  0  0  0  0
    4.0280   -7.6593   14.7331 O   0  0  0  0  0  0  0  0  0  0  0  0
    3.1968   -8.2964   15.6959 C   0  0  0  0  0  0  0  0  0  0  0  0
    2.9701   -7.2319   16.6085 O   0  0  0  0  0  0  0  0  0  0  0  0
  1  2  1  0
  2  3  1  0
  3  4  1  0
  4  5  1  0
  5  6  1  0
  6  7  1  0
  7  8  1  0
  2  9  1  0
  9 10  1  0
 10 11  1  0
 11 12  2  0
 12 13  1  0
 13 14  2  0
 14 15  1  0
 13 16  1  0
 16 17  2  0
 16 18  1  0
 18 19  1  0
 19 20  2  0
 20 21  1  0
 21 22  2  0
 22 23  1  0
 23 24  2  0
 22 25  1  0
 25 26  3  0
 11 27  1  0
 27 28  2  0
 28 29  1  0
 29 30  2  0
 30 31  1  0
 31 32  2  0
 32 33  1  0
 33 34  2  0
 34 35  1  0
 32 36  1  0
 36 37  1  0
 37 38  1  0
  8  3  1  0
 28  9  1  0
 15 10  2  0
 24 19  1  0
 34 29  1  0
 38 31  1  0
M  END
$$$$
