
     RDKit          3D

 38 43  0  0  0  0  0  0  0  0999 V2000
   -0.2584   -0.7590   12.5202 C   0  0  0  0  0  0  0  0  0  0  0  0
    1.2279   -0.7581   12.4340 C   0  0  0  0  0  0  0  0  0  0  0  0
    1.8231   -0.0193   11.2906 C   0  0  0  0  0  0  0  0  0  0  0  0
    0.8971   -0.2970   10.0838 C   0  0  0  0  0  0  0  0  0  0  0  0
    1.6284   -1.1972    9.1170 C   0  0  0  0  0  0  0  0  0  0  0  0
    2.7863   -0.3791    8.5560 C   0  0  0  0  0  0  0  0  0  0  0  0
    3.7520   -0.1591    9.6851 C   0  0  0  0  0  0  0  0  0  0  0  0
    3.2092   -0.5615   11.0183 C   0  0  0  0  0  0  0  0  0  0  0  0
    1.9304   -0.6644   13.6937 N   0  0  0  0  0  0  0  0  0  0  0  0
    1.8808    0.4340   14.5202 C   0  0  0  0  0  0  0  0  0  0  0  0
    2.6121    0.1941   15.6414 C   0  0  0  0  0  0  0  0  0  0  0  0
    2.7349    1.1593   16.6652 C   0  0  0  0  0  0  0  0  0  0  0  0
    2.1174    2.3750   16.5599 C   0  0  0  0  0  0  0  0  0  0  0  0
    1.3774    2.6157   15.4232 C   0  0  0  0  0  0  0  0  0  0  0  0
    1.2574    1.6672   14.4185 C   0  0  0  0  0  0  0  0  0  0  0  0
    2.2190    3.4030   17.5994 C   0  0  0  0  0  0  0  0  0  0  0  0
    1.9893    3.0728   18.7885 O   0  0  0  0  0  0  0  0  0  0  0  0
    2.5629    4.7236   17.2873 N   0  0  0  0  0  0  0  0  0  0  0  0
    2.0382    5.7569   18.1515 C   0  0  0  0  0  0  0  0  0  0  0  0
    2.1190    7.0876   17.7967 C   0  0  0  0  0  0  0  0  0  0  0  0
    1.6303    8.1007   18.5935 C   0  0  0  0  0  0  0  0  0  0  0  0
    1.0373    7.7666   19.7930 C   0  0  0  0  0  0  0  0  0  0  0  0
    0.9336    6.4382   20.1919 C   0  0  0  0  0  0  0  0  0  0  0  0
    1.4389    5.4587   19.3579 C   0  0  0  0  0  0  0  0  0  0  0  0
    0.5263    8.8267   20.6251 C   0  0  0  0  0  0  0  0  0  0  0  0
    0.1210    9.6736   21.3111 N   0  0  0  0  0  0  0  0  0  0  0  0
    3.1072   -1.0258   15.5155 N   0  0  0  0  0  0  0  0  0  0  0  0
    2.6959   -1.5665   14.3181 C   0  0  0  0  0  0  0  0  0  0  0  0
    3.1079   -2.9231   13.9883 C   0  0  0  0  0  0  0  0  0  0  0  0
    4.3372   -3.3148   13.5551 C   0  0  0  0  0  0  0  0  0  0  0  0
    4.6550   -4.6375   13.2070 C   0  0  0  0  0  0  0  0  0  0  0  0
    3.6869   -5.6129   13.3008 C   0  0  0  0  0  0  0  0  0  0  0  0
    2.4432   -5.2203   13.7391 C   0  0  0  0  0  0  0  0  0  0  0  0
    2.1271   -3.9242   14.0812 C   0  0  0  0  0  0  0  0  0  0  0  0
    0.3455   -3.5106   14.6744 Br  0  0  0  0  0  0  0  0  0  0  0  0
    4.2483   -6.8287   12.9021 O   0  0  0  0  0  0  0  0  0  0  0  0
    5.6632   -6.6819   12.9259 C   0  0  0  0  0  0  0  0  0  0  0  0
    5.7954   -5.2786   12.7510 O   0  0  0  0  0  0  0  0  0  0  0  0
  1  2  1  0
  2  3  1  0
  3  4  1  0
  4  5  1  0
  5  6  1  0
  6  7  1  0
  7  8  1  0
  2  9  1  0
  9 10  1  0
 10 11  1  0
 11 12  2  0
 12 13  1  0
 13 14  2  0
 14 15  1  0
 13 16  1  0
 16 17  2  0
 16 18  1  0
 18 19  1  0
 19 20  2  0
 20 21  1  0
 21 22  2  0
 22 23  1  0
 23 24  2  0
 22 25  1  0
 25 26  3  0
 11 27  1  0
 27 28  2  0
 28 29  1  0
 29 30  2  0
 30 31  1  0
 31 32  2  0
 32 33  1  0
 33 34  2  0
 34 35  1  0
 32 36  1  0
 36 37  1  0
 37 38  1  0
  8  3  1  0
 28  9  1  0
 15 10  2  0
 24 19  1  0
 34 29  1  0
 38 31  1  0
M  END
$$$$
