
     RDKit          3D

 38 43  0  0  0  0  0  0  0  0999 V2000
    3.4993   -1.3227   12.7615 C   0  0  0  0  0  0  0  0  0  0  0  0
    2.1776   -1.0536   13.3919 C   0  0  0  0  0  0  0  0  0  0  0  0
    1.0334   -1.8633   12.8993 C   0  0  0  0  0  0  0  0  0  0  0  0
    1.3277   -2.1415   11.4069 C   0  0  0  0  0  0  0  0  0  0  0  0
    0.3568   -1.3423   10.5710 C   0  0  0  0  0  0  0  0  0  0  0  0
   -1.0241   -1.9362   10.8265 C   0  0  0  0  0  0  0  0  0  0  0  0
   -1.3816   -1.6127   12.2490 C   0  0  0  0  0  0  0  0  0  0  0  0
   -0.2395   -1.0572   13.0371 C   0  0  0  0  0  0  0  0  0  0  0  0
    2.2027   -0.7749   14.8099 N   0  0  0  0  0  0  0  0  0  0  0  0
    2.0901    0.4867   15.3461 C   0  0  0  0  0  0  0  0  0  0  0  0
    2.1084    0.4083   16.7037 C   0  0  0  0  0  0  0  0  0  0  0  0
    2.0094    1.5616   17.5129 C   0  0  0  0  0  0  0  0  0  0  0  0
    1.8913    2.8033   16.9518 C   0  0  0  0  0  0  0  0  0  0  0  0
    1.8733    2.8802   15.5765 C   0  0  0  0  0  0  0  0  0  0  0  0
    1.9705    1.7470   14.7828 C   0  0  0  0  0  0  0  0  0  0  0  0
    1.7854    4.0242   17.7554 C   0  0  0  0  0  0  0  0  0  0  0  0
    1.2043    3.9579   18.8662 O   0  0  0  0  0  0  0  0  0  0  0  0
    2.3147    5.2401   17.3071 N   0  0  0  0  0  0  0  0  0  0  0  0
    2.3356    6.3323   18.2540 C   0  0  0  0  0  0  0  0  0  0  0  0
    1.7338    6.2119   19.4895 C   0  0  0  0  0  0  0  0  0  0  0  0
    1.7330    7.2302   20.4187 C   0  0  0  0  0  0  0  0  0  0  0  0
    2.3600    8.4155   20.0964 C   0  0  0  0  0  0  0  0  0  0  0  0
    2.9800    8.5821   18.8625 C   0  0  0  0  0  0  0  0  0  0  0  0
    2.9535    7.5314   17.9649 C   0  0  0  0  0  0  0  0  0  0  0  0
    2.3588    9.4794   21.0688 C   0  0  0  0  0  0  0  0  0  0  0  0
    2.3698   10.3469   21.8430 N   0  0  0  0  0  0  0  0  0  0  0  0
    2.2309   -0.8733   17.0063 N   0  0  0  0  0  0  0  0  0  0  0  0
    2.2917   -1.6145   15.8476 C   0  0  0  0  0  0  0  0  0  0  0  0
    2.4010   -3.0623   15.9517 C   0  0  0  0  0  0  0  0  0  0  0  0
    3.4765   -3.8214   15.6062 C   0  0  0  0  0  0  0  0  0  0  0  0
    3.4980   -5.2231   15.6869 C   0  0  0  0  0  0  0  0  0  0  0  0
    2.3816   -5.8920   16.1384 C   0  0  0  0  0  0  0  0  0  0  0  0
    1.2930   -5.1273   16.4891 C   0  0  0  0  0  0  0  0  0  0  0  0
    1.2674   -3.7525   16.4113 C   0  0  0  0  0  0  0  0  0  0  0  0
   -0.3241   -2.8056   16.9288 Br  0  0  0  0  0  0  0  0  0  0  0  0
    2.6551   -7.2622   16.1245 O   0  0  0  0  0  0  0  0  0  0  0  0
    4.0654   -7.4223   16.0284 C   0  0  0  0  0  0  0  0  0  0  0  0
    4.4373   -6.2017   15.4046 O   0  0  0  0  0  0  0  0  0  0  0  0
  1  2  1  0
  2  3  1  0
  3  4  1  0
  4  5  1  0
  5  6  1  0
  6  7  1  0
  7  8  1  0
  2  9  1  0
  9 10  1  0
 10 11  1  0
 11 12  2  0
 12 13  1  0
 13 14  2  0
 14 15  1  0
 13 16  1  0
 16 17  2  0
 16 18  1  0
 18 19  1  0
 19 20  2  0
 20 21  1  0
 21 22  2  0
 22 23  1  0
 23 24  2  0
 22 25  1  0
 25 26  3  0
 11 27  1  0
 27 28  2  0
 28 29  1  0
 29 30  2  0
 30 31  1  0
 31 32  2  0
 32 33  1  0
 33 34  2  0
 34 35  1  0
 32 36  1  0
 36 37  1  0
 37 38  1  0
  8  3  1  0
 28  9  1  0
 15 10  2  0
 24 19  1  0
 34 29  1  0
 38 31  1  0
M  END
$$$$
