
     RDKit          3D

 38 43  0  0  0  0  0  0  0  0999 V2000
    0.0566    0.2830   13.0268 C   0  0  0  0  0  0  0  0  0  0  0  0
    1.4505   -0.2245   13.1540 C   0  0  0  0  0  0  0  0  0  0  0  0
    2.4467    0.3351   12.2044 C   0  0  0  0  0  0  0  0  0  0  0  0
    1.6279    1.1037   11.1416 C   0  0  0  0  0  0  0  0  0  0  0  0
    1.6960    0.3399    9.8409 C   0  0  0  0  0  0  0  0  0  0  0  0
    3.1436    0.4190    9.3685 C   0  0  0  0  0  0  0  0  0  0  0  0
    3.9622   -0.3888   10.3344 C   0  0  0  0  0  0  0  0  0  0  0  0
    3.2048   -0.8019   11.5550 C   0  0  0  0  0  0  0  0  0  0  0  0
    1.9125   -0.4610   14.5030 N   0  0  0  0  0  0  0  0  0  0  0  0
    2.1234    0.5351   15.4277 C   0  0  0  0  0  0  0  0  0  0  0  0
    2.5147   -0.0145   16.6085 C   0  0  0  0  0  0  0  0  0  0  0  0
    2.8016    0.7844   17.7373 C   0  0  0  0  0  0  0  0  0  0  0  0
    2.6941    2.1464   17.6776 C   0  0  0  0  0  0  0  0  0  0  0  0
    2.2978    2.7008   16.4804 C   0  0  0  0  0  0  0  0  0  0  0  0
    2.0162    1.9155   15.3725 C   0  0  0  0  0  0  0  0  0  0  0  0
    2.9817    3.0107   18.8257 C   0  0  0  0  0  0  0  0  0  0  0  0
    4.0399    2.8118   19.4709 O   0  0  0  0  0  0  0  0  0  0  0  0
    2.1064    4.0357   19.2037 N   0  0  0  0  0  0  0  0  0  0  0  0
    2.5794    4.9611   20.2086 C   0  0  0  0  0  0  0  0  0  0  0  0
    3.7948    4.7706   20.8329 C   0  0  0  0  0  0  0  0  0  0  0  0
    4.2795    5.6306   21.7950 C   0  0  0  0  0  0  0  0  0  0  0  0
    3.5157    6.7243   22.1449 C   0  0  0  0  0  0  0  0  0  0  0  0
    2.2839    6.9565   21.5421 C   0  0  0  0  0  0  0  0  0  0  0  0
    1.8416    6.0651   20.5829 C   0  0  0  0  0  0  0  0  0  0  0  0
    4.0237    7.6230   23.1508 C   0  0  0  0  0  0  0  0  0  0  0  0
    4.4426    8.3571   23.9492 N   0  0  0  0  0  0  0  0  0  0  0  0
    2.5480   -1.3235   16.4231 N   0  0  0  0  0  0  0  0  0  0  0  0
    2.1802   -1.6130   15.1283 C   0  0  0  0  0  0  0  0  0  0  0  0
    2.1228   -3.0077   14.7157 C   0  0  0  0  0  0  0  0  0  0  0  0
    1.1061   -3.8816   14.9498 C   0  0  0  0  0  0  0  0  0  0  0  0
    1.1359   -5.2317   14.5649 C   0  0  0  0  0  0  0  0  0  0  0  0
    2.2440   -5.7246   13.9117 C   0  0  0  0  0  0  0  0  0  0  0  0
    3.2732   -4.8434   13.6728 C   0  0  0  0  0  0  0  0  0  0  0  0
    3.2484   -3.5187   14.0488 C   0  0  0  0  0  0  0  0  0  0  0  0
    4.7597   -2.3963   13.6574 Br  0  0  0  0  0  0  0  0  0  0  0  0
    2.0280   -7.0782   13.6408 O   0  0  0  0  0  0  0  0  0  0  0  0
    0.6357   -7.3328   13.7837 C   0  0  0  0  0  0  0  0  0  0  0  0
    0.2594   -6.2983   14.6813 O   0  0  0  0  0  0  0  0  0  0  0  0
  1  2  1  0
  2  3  1  0
  3  4  1  0
  4  5  1  0
  5  6  1  0
  6  7  1  0
  7  8  1  0
  2  9  1  0
  9 10  1  0
 10 11  1  0
 11 12  2  0
 12 13  1  0
 13 14  2  0
 14 15  1  0
 13 16  1  0
 16 17  2  0
 16 18  1  0
 18 19  1  0
 19 20  2  0
 20 21  1  0
 21 22  2  0
 22 23  1  0
 23 24  2  0
 22 25  1  0
 25 26  3  0
 11 27  1  0
 27 28  2  0
 28 29  1  0
 29 30  2  0
 30 31  1  0
 31 32  2  0
 32 33  1  0
 33 34  2  0
 34 35  1  0
 32 36  1  0
 36 37  1  0
 37 38  1  0
  8  3  1  0
 28  9  1  0
 15 10  2  0
 24 19  1  0
 34 29  1  0
 38 31  1  0
M  END
$$$$
