
     RDKit          3D

 38 43  0  0  0  0  0  0  0  0999 V2000
    0.8603   -1.4478    9.8991 C   0  0  0  0  0  0  0  0  0  0  0  0
    1.9365   -1.3728   10.9251 C   0  0  0  0  0  0  0  0  0  0  0  0
    3.2182   -0.7569   10.4947 C   0  0  0  0  0  0  0  0  0  0  0  0
    3.3181    0.5828   11.2604 C   0  0  0  0  0  0  0  0  0  0  0  0
    3.1280    1.7118   10.2759 C   0  0  0  0  0  0  0  0  0  0  0  0
    4.3390    1.6861    9.3499 C   0  0  0  0  0  0  0  0  0  0  0  0
    4.2326    0.4341    8.5273 C   0  0  0  0  0  0  0  0  0  0  0  0
    3.1691   -0.5017    9.0042 C   0  0  0  0  0  0  0  0  0  0  0  0
    1.5019   -1.0750   12.2711 N   0  0  0  0  0  0  0  0  0  0  0  0
    0.7446    0.0227   12.6078 C   0  0  0  0  0  0  0  0  0  0  0  0
    0.4685   -0.0050   13.9392 C   0  0  0  0  0  0  0  0  0  0  0  0
   -0.2966    1.0084   14.5573 C   0  0  0  0  0  0  0  0  0  0  0  0
   -0.7876    2.0578   13.8305 C   0  0  0  0  0  0  0  0  0  0  0  0
   -0.5065    2.0837   12.4822 C   0  0  0  0  0  0  0  0  0  0  0  0
    0.2450    1.0880   11.8761 C   0  0  0  0  0  0  0  0  0  0  0  0
   -1.5860    3.1288   14.4333 C   0  0  0  0  0  0  0  0  0  0  0  0
   -2.0307    2.9588   15.5948 O   0  0  0  0  0  0  0  0  0  0  0  0
   -1.8529    4.3163   13.7418 N   0  0  0  0  0  0  0  0  0  0  0  0
   -2.7418    4.2247   12.6053 C   0  0  0  0  0  0  0  0  0  0  0  0
   -3.0005    5.3263   11.8161 C   0  0  0  0  0  0  0  0  0  0  0  0
   -3.8413    5.2783   10.7249 C   0  0  0  0  0  0  0  0  0  0  0  0
   -4.4465    4.0790   10.4127 C   0  0  0  0  0  0  0  0  0  0  0  0
   -4.2152    2.9422   11.1801 C   0  0  0  0  0  0  0  0  0  0  0  0
   -3.3639    3.0415   12.2643 C   0  0  0  0  0  0  0  0  0  0  0  0
   -5.3251    4.0299    9.2712 C   0  0  0  0  0  0  0  0  0  0  0  0
   -6.0220    4.0004    8.3409 N   0  0  0  0  0  0  0  0  0  0  0  0
    1.0421   -1.0949   14.4211 N   0  0  0  0  0  0  0  0  0  0  0  0
    1.6843   -1.7637   13.4034 C   0  0  0  0  0  0  0  0  0  0  0  0
    2.3635   -3.0138   13.7112 C   0  0  0  0  0  0  0  0  0  0  0  0
    1.9222   -4.2688   13.4239 C   0  0  0  0  0  0  0  0  0  0  0  0
    2.6061   -5.4381   13.7935 C   0  0  0  0  0  0  0  0  0  0  0  0
    3.7930   -5.3375   14.4855 C   0  0  0  0  0  0  0  0  0  0  0  0
    4.2423   -4.0702   14.7767 C   0  0  0  0  0  0  0  0  0  0  0  0
    3.5746   -2.9207   14.4165 C   0  0  0  0  0  0  0  0  0  0  0  0
    4.3123   -1.2100   14.8925 Br  0  0  0  0  0  0  0  0  0  0  0  0
    4.2687   -6.6281   14.7314 O   0  0  0  0  0  0  0  0  0  0  0  0
    3.5774   -7.5182   13.8632 C   0  0  0  0  0  0  0  0  0  0  0  0
    2.3780   -6.7946   13.6284 O   0  0  0  0  0  0  0  0  0  0  0  0
  1  2  1  0
  2  3  1  0
  3  4  1  0
  4  5  1  0
  5  6  1  0
  6  7  1  0
  7  8  1  0
  2  9  1  0
  9 10  1  0
 10 11  1  0
 11 12  2  0
 12 13  1  0
 13 14  2  0
 14 15  1  0
 13 16  1  0
 16 17  2  0
 16 18  1  0
 18 19  1  0
 19 20  2  0
 20 21  1  0
 21 22  2  0
 22 23  1  0
 23 24  2  0
 22 25  1  0
 25 26  3  0
 11 27  1  0
 27 28  2  0
 28 29  1  0
 29 30  2  0
 30 31  1  0
 31 32  2  0
 32 33  1  0
 33 34  2  0
 34 35  1  0
 32 36  1  0
 36 37  1  0
 37 38  1  0
  8  3  1  0
 28  9  1  0
 15 10  2  0
 24 19  1  0
 34 29  1  0
 38 31  1  0
M  END
$$$$
