
     RDKit          3D

 38 43  0  0  0  0  0  0  0  0999 V2000
    0.4073   -0.1700   12.2690 C   0  0  0  0  0  0  0  0  0  0  0  0
    1.8578   -0.4650   12.4285 C   0  0  0  0  0  0  0  0  0  0  0  0
    2.7860    0.2851   11.5436 C   0  0  0  0  0  0  0  0  0  0  0  0
    2.0169    0.5076   10.2207 C   0  0  0  0  0  0  0  0  0  0  0  0
    2.6417   -0.3580    9.1529 C   0  0  0  0  0  0  0  0  0  0  0  0
    4.0384    0.2015    8.9055 C   0  0  0  0  0  0  0  0  0  0  0  0
    4.8431   -0.0714   10.1439 C   0  0  0  0  0  0  0  0  0  0  0  0
    4.0192   -0.5550   11.2935 C   0  0  0  0  0  0  0  0  0  0  0  0
    2.3073   -0.6938   13.7830 N   0  0  0  0  0  0  0  0  0  0  0  0
    2.3040    0.2687   14.7656 C   0  0  0  0  0  0  0  0  0  0  0  0
    2.7459   -0.2704   15.9333 C   0  0  0  0  0  0  0  0  0  0  0  0
    2.8454    0.4998   17.1129 C   0  0  0  0  0  0  0  0  0  0  0  0
    2.4979    1.8225   17.1176 C   0  0  0  0  0  0  0  0  0  0  0  0
    2.0507    2.3665   15.9336 C   0  0  0  0  0  0  0  0  0  0  0  0
    1.9533    1.6092   14.7758 C   0  0  0  0  0  0  0  0  0  0  0  0
    2.5857    2.6561   18.3198 C   0  0  0  0  0  0  0  0  0  0  0  0
    3.6902    2.7344   18.9111 O   0  0  0  0  0  0  0  0  0  0  0  0
    1.4733    3.3525   18.8068 N   0  0  0  0  0  0  0  0  0  0  0  0
    1.6610    4.7535   19.1097 C   0  0  0  0  0  0  0  0  0  0  0  0
    2.8982    5.2405   19.4774 C   0  0  0  0  0  0  0  0  0  0  0  0
    3.1165    6.5690   19.7734 C   0  0  0  0  0  0  0  0  0  0  0  0
    2.0526    7.4434   19.6978 C   0  0  0  0  0  0  0  0  0  0  0  0
    0.7872    6.9973   19.3315 C   0  0  0  0  0  0  0  0  0  0  0  0
    0.6194    5.6558   19.0443 C   0  0  0  0  0  0  0  0  0  0  0  0
    2.2821    8.8323   20.0072 C   0  0  0  0  0  0  0  0  0  0  0  0
    2.4630    9.9494   20.2742 N   0  0  0  0  0  0  0  0  0  0  0  0
    3.0196   -1.5399   15.6834 N   0  0  0  0  0  0  0  0  0  0  0  0
    2.7550   -1.8144   14.3604 C   0  0  0  0  0  0  0  0  0  0  0  0
    2.9628   -3.1711   13.8754 C   0  0  0  0  0  0  0  0  0  0  0  0
    4.1597   -3.7676   13.6224 C   0  0  0  0  0  0  0  0  0  0  0  0
    4.2881   -5.0678   13.1078 C   0  0  0  0  0  0  0  0  0  0  0  0
    3.1551   -5.8026   12.8358 C   0  0  0  0  0  0  0  0  0  0  0  0
    1.9437   -5.2027   13.0912 C   0  0  0  0  0  0  0  0  0  0  0  0
    1.8130   -3.9277   13.5955 C   0  0  0  0  0  0  0  0  0  0  0  0
    0.0568   -3.2070   13.9009 Br  0  0  0  0  0  0  0  0  0  0  0  0
    3.5483   -7.0478   12.3386 O   0  0  0  0  0  0  0  0  0  0  0  0
    4.9223   -7.2292   12.6594 C   0  0  0  0  0  0  0  0  0  0  0  0
    5.3573   -5.8817   12.7705 O   0  0  0  0  0  0  0  0  0  0  0  0
  1  2  1  0
  2  3  1  0
  3  4  1  0
  4  5  1  0
  5  6  1  0
  6  7  1  0
  7  8  1  0
  2  9  1  0
  9 10  1  0
 10 11  1  0
 11 12  2  0
 12 13  1  0
 13 14  2  0
 14 15  1  0
 13 16  1  0
 16 17  2  0
 16 18  1  0
 18 19  1  0
 19 20  2  0
 20 21  1  0
 21 22  2  0
 22 23  1  0
 23 24  2  0
 22 25  1  0
 25 26  3  0
 11 27  1  0
 27 28  2  0
 28 29  1  0
 29 30  2  0
 30 31  1  0
 31 32  2  0
 32 33  1  0
 33 34  2  0
 34 35  1  0
 32 36  1  0
 36 37  1  0
 37 38  1  0
  8  3  1  0
 28  9  1  0
 15 10  2  0
 24 19  1  0
 34 29  1  0
 38 31  1  0
M  END
$$$$
