
     RDKit          3D

 25 27  0  0  0  0  0  0  0  0999 V2000
   -1.0075    0.6496    6.8285 C   0  0  0  0  0  0  0  0  0  0  0  0
   -0.3999    1.2066    8.1247 C   0  0  0  0  0  0  0  0  0  0  0  0
    0.6600    2.2072    7.8009 C   0  0  0  0  0  0  0  0  0  0  0  0
    1.3384    2.8169    8.9440 C   0  0  0  0  0  0  0  0  0  0  0  0
    0.8929    4.0155    9.4659 C   0  0  0  0  0  0  0  0  0  0  0  0
    1.5185    4.6060   10.5494 C   0  0  0  0  0  0  0  0  0  0  0  0
    2.6045    4.0039   11.1314 C   0  0  0  0  0  0  0  0  0  0  0  0
    3.0527    2.8085   10.6143 C   0  0  0  0  0  0  0  0  0  0  0  0
    2.4149    2.2381    9.5341 C   0  0  0  0  0  0  0  0  0  0  0  0
    2.9747    1.0153    9.1068 O   0  0  0  0  0  0  0  0  0  0  0  0
    4.0189    1.0007    8.2097 C   0  0  0  0  0  0  0  0  0  0  0  0
    4.5642    2.1097    7.9613 O   0  0  0  0  0  0  0  0  0  0  0  0
    4.5023   -0.2456    7.5495 C   0  0  0  0  0  0  0  0  0  0  0  0
    3.2137    4.5599   12.1733 O   0  0  0  0  0  0  0  0  0  0  0  0
    2.8075    5.6893   12.6791 C   0  0  0  0  0  0  0  0  0  0  0  0
    1.7405    6.3328   12.1489 C   0  0  0  0  0  0  0  0  0  0  0  0
    1.0603    5.8078   11.0625 C   0  0  0  0  0  0  0  0  0  0  0  0
    0.0774    6.3732   10.5522 O   0  0  0  0  0  0  0  0  0  0  0  0
    1.2118    7.5969   12.6429 C   0  0  0  0  0  0  0  0  0  0  0  0
    0.9895    8.1590   13.6925 N   0  0  0  0  0  0  0  0  0  0  0  0
    0.4959    9.3308   13.9207 C   0  0  0  0  0  0  0  0  0  0  0  0
    0.1730   10.0508   12.7744 C   0  0  0  0  0  0  0  0  0  0  0  0
    0.6370    8.9093   11.4652 S   0  0  0  0  0  0  0  0  0  0  0  0
    0.2759    9.8957   15.3241 C   0  0  0  0  0  0  0  0  0  0  0  0
    3.5568    6.2312   13.8457 C   0  0  0  0  0  0  0  0  0  0  0  0
  1  2  1  0
  2  3  1  0
  3  4  1  0
  4  5  2  0
  5  6  1  0
  6  7  2  0
  7  8  1  0
  8  9  2  0
  9 10  1  0
 10 11  1  0
 11 12  2  0
 11 13  1  0
  7 14  1  0
 14 15  1  0
 15 16  2  0
 16 17  1  0
 17 18  2  0
 16 19  1  0
 19 20  2  0
 20 21  1  0
 21 22  2  0
 22 23  1  0
 21 24  1  0
 15 25  1  0
  9  4  1  0
 17  6  1  0
 23 19  1  0
M  END
$$$$
