
     RDKit          3D

 25 27  0  0  0  0  0  0  0  0999 V2000
    5.8849    6.4609   15.6094 C   0  0  0  0  0  0  0  0  0  0  0  0
    5.2103    6.4877   14.2296 C   0  0  0  0  0  0  0  0  0  0  0  0
    3.7542    6.1885   14.3691 C   0  0  0  0  0  0  0  0  0  0  0  0
    3.0062    6.0421   13.1211 C   0  0  0  0  0  0  0  0  0  0  0  0
    3.1266    4.8945   12.3621 C   0  0  0  0  0  0  0  0  0  0  0  0
    2.4241    4.7354   11.1809 C   0  0  0  0  0  0  0  0  0  0  0  0
    1.5854    5.7260   10.7382 C   0  0  0  0  0  0  0  0  0  0  0  0
    1.4621    6.8725   11.4915 C   0  0  0  0  0  0  0  0  0  0  0  0
    2.1716    7.0104   12.6648 C   0  0  0  0  0  0  0  0  0  0  0  0
    1.9519    8.2310   13.3379 O   0  0  0  0  0  0  0  0  0  0  0  0
    0.8237    8.4121   14.1057 C   0  0  0  0  0  0  0  0  0  0  0  0
   -0.0383    7.4932   14.0667 O   0  0  0  0  0  0  0  0  0  0  0  0
    0.6038    9.6213   14.9497 C   0  0  0  0  0  0  0  0  0  0  0  0
    0.9040    5.5852    9.6060 O   0  0  0  0  0  0  0  0  0  0  0  0
    1.0046    4.5103    8.8775 C   0  0  0  0  0  0  0  0  0  0  0  0
    1.8164    3.4965    9.2612 C   0  0  0  0  0  0  0  0  0  0  0  0
    2.5543    3.5789   10.4304 C   0  0  0  0  0  0  0  0  0  0  0  0
    3.3085    2.6665   10.8108 O   0  0  0  0  0  0  0  0  0  0  0  0
    1.9954    2.2575    8.5165 C   0  0  0  0  0  0  0  0  0  0  0  0
    2.5951    1.8372    7.5518 N   0  0  0  0  0  0  0  0  0  0  0  0
    2.6171    0.6526    7.0369 C   0  0  0  0  0  0  0  0  0  0  0  0
    1.8248   -0.2776    7.7029 C   0  0  0  0  0  0  0  0  0  0  0  0
    1.1222    0.7054    9.0342 S   0  0  0  0  0  0  0  0  0  0  0  0
    3.4367    0.2847    5.7999 C   0  0  0  0  0  0  0  0  0  0  0  0
    0.2012    4.4481    7.6259 C   0  0  0  0  0  0  0  0  0  0  0  0
  1  2  1  0
  2  3  1  0
  3  4  1  0
  4  5  2  0
  5  6  1  0
  6  7  2  0
  7  8  1  0
  8  9  2  0
  9 10  1  0
 10 11  1  0
 11 12  2  0
 11 13  1  0
  7 14  1  0
 14 15  1  0
 15 16  2  0
 16 17  1  0
 17 18  2  0
 16 19  1  0
 19 20  2  0
 20 21  1  0
 21 22  2  0
 22 23  1  0
 21 24  1  0
 15 25  1  0
  9  4  1  0
 17  6  1  0
 23 19  1  0
M  END
$$$$
