
     RDKit          3D

 25 27  0  0  0  0  0  0  0  0999 V2000
   -3.7557    2.7506    9.7297 C   0  0  0  0  0  0  0  0  0  0  0  0
   -2.3356    2.9961   10.2612 C   0  0  0  0  0  0  0  0  0  0  0  0
   -1.4037    3.2537    9.1235 C   0  0  0  0  0  0  0  0  0  0  0  0
   -0.0319    3.6091    9.4846 C   0  0  0  0  0  0  0  0  0  0  0  0
    0.2340    4.2579   10.6745 C   0  0  0  0  0  0  0  0  0  0  0  0
    1.5253    4.5988   11.0358 C   0  0  0  0  0  0  0  0  0  0  0  0
    2.5762    4.2939   10.2093 C   0  0  0  0  0  0  0  0  0  0  0  0
    2.3161    3.6470    9.0215 C   0  0  0  0  0  0  0  0  0  0  0  0
    1.0222    3.3173    8.6808 C   0  0  0  0  0  0  0  0  0  0  0  0
    0.8971    2.6571    7.4400 O   0  0  0  0  0  0  0  0  0  0  0  0
    1.1865    1.3157    7.3302 C   0  0  0  0  0  0  0  0  0  0  0  0
    1.7746    0.7837    8.3100 O   0  0  0  0  0  0  0  0  0  0  0  0
    0.8357    0.5071    6.1276 C   0  0  0  0  0  0  0  0  0  0  0  0
    3.8214    4.6146   10.5452 O   0  0  0  0  0  0  0  0  0  0  0  0
    4.0912    5.2261   11.6630 C   0  0  0  0  0  0  0  0  0  0  0  0
    3.0967    5.5542   12.5216 C   0  0  0  0  0  0  0  0  0  0  0  0
    1.7771    5.2487   12.2324 C   0  0  0  0  0  0  0  0  0  0  0  0
    0.8409    5.5358   12.9988 O   0  0  0  0  0  0  0  0  0  0  0  0
    3.2973    6.2366   13.7927 C   0  0  0  0  0  0  0  0  0  0  0  0
    3.6958    6.0061   14.9129 N   0  0  0  0  0  0  0  0  0  0  0  0
    3.7961    6.7866   15.9374 C   0  0  0  0  0  0  0  0  0  0  0  0
    3.3785    8.0938   15.7063 C   0  0  0  0  0  0  0  0  0  0  0  0
    2.8755    8.0328   13.9813 S   0  0  0  0  0  0  0  0  0  0  0  0
    4.3250    6.3309   17.2975 C   0  0  0  0  0  0  0  0  0  0  0  0
    5.5174    5.5428   11.9485 C   0  0  0  0  0  0  0  0  0  0  0  0
  1  2  1  0
  2  3  1  0
  3  4  1  0
  4  5  2  0
  5  6  1  0
  6  7  2  0
  7  8  1  0
  8  9  2  0
  9 10  1  0
 10 11  1  0
 11 12  2  0
 11 13  1  0
  7 14  1  0
 14 15  1  0
 15 16  2  0
 16 17  1  0
 17 18  2  0
 16 19  1  0
 19 20  2  0
 20 21  1  0
 21 22  2  0
 22 23  1  0
 21 24  1  0
 15 25  1  0
  9  4  1  0
 17  6  1  0
 23 19  1  0
M  END
$$$$
