
     RDKit          3D

 25 27  0  0  0  0  0  0  0  0999 V2000
    4.1386   -1.1305    8.4681 C   0  0  0  0  0  0  0  0  0  0  0  0
    3.3588    0.0405    9.0846 C   0  0  0  0  0  0  0  0  0  0  0  0
    3.9711    1.3363    8.6661 C   0  0  0  0  0  0  0  0  0  0  0  0
    3.2939    2.5464    9.1305 C   0  0  0  0  0  0  0  0  0  0  0  0
    3.6368    3.1219   10.3382 C   0  0  0  0  0  0  0  0  0  0  0  0
    3.0108    4.2689   10.7928 C   0  0  0  0  0  0  0  0  0  0  0  0
    2.0278    4.8618   10.0428 C   0  0  0  0  0  0  0  0  0  0  0  0
    1.6821    4.2915    8.8376 C   0  0  0  0  0  0  0  0  0  0  0  0
    2.3181    3.1485    8.4041 C   0  0  0  0  0  0  0  0  0  0  0  0
    1.8695    2.6711    7.1543 O   0  0  0  0  0  0  0  0  0  0  0  0
    0.5245    2.6334    6.8628 C   0  0  0  0  0  0  0  0  0  0  0  0
   -0.2540    3.1129    7.7305 O   0  0  0  0  0  0  0  0  0  0  0  0
   -0.0140    2.0614    5.5957 C   0  0  0  0  0  0  0  0  0  0  0  0
    1.4195    5.9644   10.4673 O   0  0  0  0  0  0  0  0  0  0  0  0
    1.7298    6.5214   11.6031 C   0  0  0  0  0  0  0  0  0  0  0  0
    2.6925    5.9835   12.3892 C   0  0  0  0  0  0  0  0  0  0  0  0
    3.3654    4.8353   12.0057 C   0  0  0  0  0  0  0  0  0  0  0  0
    4.2539    4.3163   12.7039 O   0  0  0  0  0  0  0  0  0  0  0  0
    3.1095    6.5315   13.6727 C   0  0  0  0  0  0  0  0  0  0  0  0
    4.0842    7.0268   14.1936 N   0  0  0  0  0  0  0  0  0  0  0  0
    4.2522    7.4651   15.3972 C   0  0  0  0  0  0  0  0  0  0  0  0
    3.1317    7.3445   16.2136 C   0  0  0  0  0  0  0  0  0  0  0  0
    1.9343    6.5878   15.1064 S   0  0  0  0  0  0  0  0  0  0  0  0
    5.5639    8.0673   15.9011 C   0  0  0  0  0  0  0  0  0  0  0  0
    0.9907    7.7539   11.9911 C   0  0  0  0  0  0  0  0  0  0  0  0
  1  2  1  0
  2  3  1  0
  3  4  1  0
  4  5  2  0
  5  6  1  0
  6  7  2  0
  7  8  1  0
  8  9  2  0
  9 10  1  0
 10 11  1  0
 11 12  2  0
 11 13  1  0
  7 14  1  0
 14 15  1  0
 15 16  2  0
 16 17  1  0
 17 18  2  0
 16 19  1  0
 19 20  2  0
 20 21  1  0
 21 22  2  0
 22 23  1  0
 21 24  1  0
 15 25  1  0
  9  4  1  0
 17  6  1  0
 23 19  1  0
M  END
$$$$
