
     RDKit          3D

 25 27  0  0  0  0  0  0  0  0999 V2000
    1.8309    7.9241   16.0968 C   0  0  0  0  0  0  0  0  0  0  0  0
    1.4876    7.1062   14.8428 C   0  0  0  0  0  0  0  0  0  0  0  0
    1.2011    8.0231   13.6998 C   0  0  0  0  0  0  0  0  0  0  0  0
    0.7623    7.3853   12.4592 C   0  0  0  0  0  0  0  0  0  0  0  0
    1.3751    6.2324   12.0088 C   0  0  0  0  0  0  0  0  0  0  0  0
    0.9717    5.6120   10.8399 C   0  0  0  0  0  0  0  0  0  0  0  0
   -0.0565    6.1367   10.0997 C   0  0  0  0  0  0  0  0  0  0  0  0
   -0.6708    7.2864   10.5446 C   0  0  0  0  0  0  0  0  0  0  0  0
   -0.2526    7.8885   11.7115 C   0  0  0  0  0  0  0  0  0  0  0  0
   -0.9672    9.0566   12.0523 O   0  0  0  0  0  0  0  0  0  0  0  0
   -0.6085   10.2749   11.5208 C   0  0  0  0  0  0  0  0  0  0  0  0
    0.1482   10.9964   12.2249 O   0  0  0  0  0  0  0  0  0  0  0  0
   -1.0749   10.7447   10.1849 C   0  0  0  0  0  0  0  0  0  0  0  0
   -0.4546    5.5498    8.9758 O   0  0  0  0  0  0  0  0  0  0  0  0
    0.1110    4.4622    8.5359 C   0  0  0  0  0  0  0  0  0  0  0  0
    1.1317    3.8954    9.2220 C   0  0  0  0  0  0  0  0  0  0  0  0
    1.5951    4.4560   10.4007 C   0  0  0  0  0  0  0  0  0  0  0  0
    2.5298    3.9609   11.0545 O   0  0  0  0  0  0  0  0  0  0  0  0
    1.8265    2.6824    8.8126 C   0  0  0  0  0  0  0  0  0  0  0  0
    1.6036    1.6366    8.2438 N   0  0  0  0  0  0  0  0  0  0  0  0
    2.3948    0.6525    7.9713 C   0  0  0  0  0  0  0  0  0  0  0  0
    3.7054    0.8331    8.4030 C   0  0  0  0  0  0  0  0  0  0  0  0
    3.6311    2.4551    9.1750 S   0  0  0  0  0  0  0  0  0  0  0  0
    1.9476   -0.6126    7.2387 C   0  0  0  0  0  0  0  0  0  0  0  0
   -0.4061    3.8812    7.2667 C   0  0  0  0  0  0  0  0  0  0  0  0
  1  2  1  0
  2  3  1  0
  3  4  1  0
  4  5  2  0
  5  6  1  0
  6  7  2  0
  7  8  1  0
  8  9  2  0
  9 10  1  0
 10 11  1  0
 11 12  2  0
 11 13  1  0
  7 14  1  0
 14 15  1  0
 15 16  2  0
 16 17  1  0
 17 18  2  0
 16 19  1  0
 19 20  2  0
 20 21  1  0
 21 22  2  0
 22 23  1  0
 21 24  1  0
 15 25  1  0
  9  4  1  0
 17  6  1  0
 23 19  1  0
M  END
$$$$
