
     RDKit          3D

 25 27  0  0  0  0  0  0  0  0999 V2000
    3.7936   -0.1421    6.9035 C   0  0  0  0  0  0  0  0  0  0  0  0
    3.6745    1.2019    7.6377 C   0  0  0  0  0  0  0  0  0  0  0  0
    2.5203    1.1643    8.5840 C   0  0  0  0  0  0  0  0  0  0  0  0
    2.2309    2.4096    9.2938 C   0  0  0  0  0  0  0  0  0  0  0  0
    3.0071    2.8016   10.3669 C   0  0  0  0  0  0  0  0  0  0  0  0
    2.7519    3.9782   11.0485 C   0  0  0  0  0  0  0  0  0  0  0  0
    1.7118    4.7857   10.6655 C   0  0  0  0  0  0  0  0  0  0  0  0
    0.9347    4.3990    9.5961 C   0  0  0  0  0  0  0  0  0  0  0  0
    1.2062    3.2227    8.9316 C   0  0  0  0  0  0  0  0  0  0  0  0
    0.3354    2.9474    7.8558 O   0  0  0  0  0  0  0  0  0  0  0  0
   -1.0291    2.9800    8.0357 C   0  0  0  0  0  0  0  0  0  0  0  0
   -1.4686    3.8224    8.8641 O   0  0  0  0  0  0  0  0  0  0  0  0
   -1.9643    2.0784    7.3040 C   0  0  0  0  0  0  0  0  0  0  0  0
    1.4567    5.9190   11.3109 O   0  0  0  0  0  0  0  0  0  0  0  0
    2.1780    6.3049   12.3245 C   0  0  0  0  0  0  0  0  0  0  0  0
    3.2190    5.5510   12.7508 C   0  0  0  0  0  0  0  0  0  0  0  0
    3.5390    4.3589   12.1224 C   0  0  0  0  0  0  0  0  0  0  0  0
    4.4879    3.6436   12.4887 O   0  0  0  0  0  0  0  0  0  0  0  0
    4.0822    5.8970   13.8718 C   0  0  0  0  0  0  0  0  0  0  0  0
    4.6058    6.8690   14.3698 N   0  0  0  0  0  0  0  0  0  0  0  0
    5.3673    6.9632   15.4091 C   0  0  0  0  0  0  0  0  0  0  0  0
    5.6182    5.7529   16.0485 C   0  0  0  0  0  0  0  0  0  0  0  0
    4.6935    4.5895   15.0366 S   0  0  0  0  0  0  0  0  0  0  0  0
    5.9541    8.2834   15.9090 C   0  0  0  0  0  0  0  0  0  0  0  0
    1.8119    7.5894   12.9816 C   0  0  0  0  0  0  0  0  0  0  0  0
  1  2  1  0
  2  3  1  0
  3  4  1  0
  4  5  2  0
  5  6  1  0
  6  7  2  0
  7  8  1  0
  8  9  2  0
  9 10  1  0
 10 11  1  0
 11 12  2  0
 11 13  1  0
  7 14  1  0
 14 15  1  0
 15 16  2  0
 16 17  1  0
 17 18  2  0
 16 19  1  0
 19 20  2  0
 20 21  1  0
 21 22  2  0
 22 23  1  0
 21 24  1  0
 15 25  1  0
  9  4  1  0
 17  6  1  0
 23 19  1  0
M  END
$$$$
