
     RDKit          3D

 25 27  0  0  0  0  0  0  0  0999 V2000
    4.5470   -0.4899    7.5662 C   0  0  0  0  0  0  0  0  0  0  0  0
    4.1673    0.8727    8.1651 C   0  0  0  0  0  0  0  0  0  0  0  0
    2.8107    0.7964    8.7841 C   0  0  0  0  0  0  0  0  0  0  0  0
    2.2957    2.0390    9.3578 C   0  0  0  0  0  0  0  0  0  0  0  0
    2.9127    2.6150   10.4509 C   0  0  0  0  0  0  0  0  0  0  0  0
    2.4431    3.7923   11.0054 C   0  0  0  0  0  0  0  0  0  0  0  0
    1.3441    4.4158   10.4723 C   0  0  0  0  0  0  0  0  0  0  0  0
    0.7252    3.8451    9.3822 C   0  0  0  0  0  0  0  0  0  0  0  0
    1.2093    2.6716    8.8460 C   0  0  0  0  0  0  0  0  0  0  0  0
    0.4836    2.1974    7.7325 O   0  0  0  0  0  0  0  0  0  0  0  0
    0.4645    2.9115    6.5557 C   0  0  0  0  0  0  0  0  0  0  0  0
    1.3833    3.7596    6.3959 O   0  0  0  0  0  0  0  0  0  0  0  0
   -0.5756    2.7150    5.5058 C   0  0  0  0  0  0  0  0  0  0  0  0
    0.8837    5.5477   10.9946 O   0  0  0  0  0  0  0  0  0  0  0  0
    1.4526    6.1055   12.0248 C   0  0  0  0  0  0  0  0  0  0  0  0
    2.5416    5.5385   12.5963 C   0  0  0  0  0  0  0  0  0  0  0  0
    3.0723    4.3588   12.1012 C   0  0  0  0  0  0  0  0  0  0  0  0
    4.0706    3.8125   12.6024 O   0  0  0  0  0  0  0  0  0  0  0  0
    3.2462    6.0848   13.7480 C   0  0  0  0  0  0  0  0  0  0  0  0
    3.7865    5.7092   14.7648 N   0  0  0  0  0  0  0  0  0  0  0  0
    4.3769    6.3869   15.6927 C   0  0  0  0  0  0  0  0  0  0  0  0
    4.3880    7.7622   15.4803 C   0  0  0  0  0  0  0  0  0  0  0  0
    3.5156    7.9122   13.9155 S   0  0  0  0  0  0  0  0  0  0  0  0
    5.0140    5.7503   16.9280 C   0  0  0  0  0  0  0  0  0  0  0  0
    0.8615    7.3722   12.5368 C   0  0  0  0  0  0  0  0  0  0  0  0
  1  2  1  0
  2  3  1  0
  3  4  1  0
  4  5  2  0
  5  6  1  0
  6  7  2  0
  7  8  1  0
  8  9  2  0
  9 10  1  0
 10 11  1  0
 11 12  2  0
 11 13  1  0
  7 14  1  0
 14 15  1  0
 15 16  2  0
 16 17  1  0
 17 18  2  0
 16 19  1  0
 19 20  2  0
 20 21  1  0
 21 22  2  0
 22 23  1  0
 21 24  1  0
 15 25  1  0
  9  4  1  0
 17  6  1  0
 23 19  1  0
M  END
$$$$
