
     RDKit          3D

 25 27  0  0  0  0  0  0  0  0999 V2000
    2.1926    0.3172    6.2675 C   0  0  0  0  0  0  0  0  0  0  0  0
    2.5068    1.4695    7.2334 C   0  0  0  0  0  0  0  0  0  0  0  0
    1.2686    1.8742    7.9629 C   0  0  0  0  0  0  0  0  0  0  0  0
    1.3964    3.0249    8.8562 C   0  0  0  0  0  0  0  0  0  0  0  0
    2.3066    3.0084    9.8948 C   0  0  0  0  0  0  0  0  0  0  0  0
    2.4453    4.0886   10.7479 C   0  0  0  0  0  0  0  0  0  0  0  0
    1.6728    5.2083   10.5746 C   0  0  0  0  0  0  0  0  0  0  0  0
    0.7634    5.2295    9.5403 C   0  0  0  0  0  0  0  0  0  0  0  0
    0.6411    4.1422    8.7026 C   0  0  0  0  0  0  0  0  0  0  0  0
   -0.3249    4.2965    7.6857 O   0  0  0  0  0  0  0  0  0  0  0  0
   -1.6476    4.0013    7.9282 C   0  0  0  0  0  0  0  0  0  0  0  0
   -1.9600    3.7543    9.1241 O   0  0  0  0  0  0  0  0  0  0  0  0
   -2.6801    3.9673    6.8532 C   0  0  0  0  0  0  0  0  0  0  0  0
    1.7970    6.2532   11.3863 O   0  0  0  0  0  0  0  0  0  0  0  0
    2.6500    6.2558   12.3705 C   0  0  0  0  0  0  0  0  0  0  0  0
    3.4416    5.1798   12.5936 C   0  0  0  0  0  0  0  0  0  0  0  0
    3.3627    4.0582   11.7848 C   0  0  0  0  0  0  0  0  0  0  0  0
    4.0747    3.0544   11.9624 O   0  0  0  0  0  0  0  0  0  0  0  0
    4.4237    5.0876   13.6653 C   0  0  0  0  0  0  0  0  0  0  0  0
    4.6156    4.4765   14.6932 N   0  0  0  0  0  0  0  0  0  0  0  0
    5.5937    4.5488   15.5340 C   0  0  0  0  0  0  0  0  0  0  0  0
    6.5741    5.4768   15.1957 C   0  0  0  0  0  0  0  0  0  0  0  0
    5.9417    6.1531   13.6546 S   0  0  0  0  0  0  0  0  0  0  0  0
    5.6837    3.6965   16.8000 C   0  0  0  0  0  0  0  0  0  0  0  0
    2.7137    7.4735   13.2242 C   0  0  0  0  0  0  0  0  0  0  0  0
  1  2  1  0
  2  3  1  0
  3  4  1  0
  4  5  2  0
  5  6  1  0
  6  7  2  0
  7  8  1  0
  8  9  2  0
  9 10  1  0
 10 11  1  0
 11 12  2  0
 11 13  1  0
  7 14  1  0
 14 15  1  0
 15 16  2  0
 16 17  1  0
 17 18  2  0
 16 19  1  0
 19 20  2  0
 20 21  1  0
 21 22  2  0
 22 23  1  0
 21 24  1  0
 15 25  1  0
  9  4  1  0
 17  6  1  0
 23 19  1  0
M  END
$$$$
