
     RDKit          3D

 25 27  0  0  0  0  0  0  0  0999 V2000
    4.4367   -0.9178    8.0338 C   0  0  0  0  0  0  0  0  0  0  0  0
    3.6873    0.1873    8.7931 C   0  0  0  0  0  0  0  0  0  0  0  0
    3.6826    1.4447    7.9879 C   0  0  0  0  0  0  0  0  0  0  0  0
    2.9789    2.5827    8.5781 C   0  0  0  0  0  0  0  0  0  0  0  0
    3.3751    3.0961    9.7975 C   0  0  0  0  0  0  0  0  0  0  0  0
    2.7249    4.1747   10.3701 C   0  0  0  0  0  0  0  0  0  0  0  0
    1.6635    4.7603    9.7289 C   0  0  0  0  0  0  0  0  0  0  0  0
    1.2645    4.2517    8.5126 C   0  0  0  0  0  0  0  0  0  0  0  0
    1.9260    3.1762    7.9605 C   0  0  0  0  0  0  0  0  0  0  0  0
    1.4166    2.7575    6.7130 O   0  0  0  0  0  0  0  0  0  0  0  0
    0.2521    2.0266    6.6438 C   0  0  0  0  0  0  0  0  0  0  0  0
   -0.3938    1.8921    7.7178 O   0  0  0  0  0  0  0  0  0  0  0  0
   -0.2454    1.4132    5.3792 C   0  0  0  0  0  0  0  0  0  0  0  0
    1.0312    5.7976   10.2675 O   0  0  0  0  0  0  0  0  0  0  0  0
    1.3908    6.2954   11.4160 C   0  0  0  0  0  0  0  0  0  0  0  0
    2.4316    5.7613   12.0983 C   0  0  0  0  0  0  0  0  0  0  0  0
    3.1335    4.6794   11.5932 C   0  0  0  0  0  0  0  0  0  0  0  0
    4.0933    4.1657   12.1941 O   0  0  0  0  0  0  0  0  0  0  0  0
    2.9082    6.2464   13.3863 C   0  0  0  0  0  0  0  0  0  0  0  0
    2.4715    6.6614   14.4370 N   0  0  0  0  0  0  0  0  0  0  0  0
    3.0929    7.0559   15.4986 C   0  0  0  0  0  0  0  0  0  0  0  0
    4.4801    6.9891   15.4100 C   0  0  0  0  0  0  0  0  0  0  0  0
    4.7243    6.3439   13.7498 S   0  0  0  0  0  0  0  0  0  0  0  0
    2.3822    7.5585   16.7554 C   0  0  0  0  0  0  0  0  0  0  0  0
    0.6190    7.4574   11.9357 C   0  0  0  0  0  0  0  0  0  0  0  0
  1  2  1  0
  2  3  1  0
  3  4  1  0
  4  5  2  0
  5  6  1  0
  6  7  2  0
  7  8  1  0
  8  9  2  0
  9 10  1  0
 10 11  1  0
 11 12  2  0
 11 13  1  0
  7 14  1  0
 14 15  1  0
 15 16  2  0
 16 17  1  0
 17 18  2  0
 16 19  1  0
 19 20  2  0
 20 21  1  0
 21 22  2  0
 22 23  1  0
 21 24  1  0
 15 25  1  0
  9  4  1  0
 17  6  1  0
 23 19  1  0
M  END
$$$$
