
     RDKit          3D

 25 27  0  0  0  0  0  0  0  0999 V2000
    4.3146   -0.9455    8.2671 C   0  0  0  0  0  0  0  0  0  0  0  0
    3.6954    0.2012    9.0803 C   0  0  0  0  0  0  0  0  0  0  0  0
    3.2978    1.3148    8.1686 C   0  0  0  0  0  0  0  0  0  0  0  0
    2.7033    2.4876    8.8086 C   0  0  0  0  0  0  0  0  0  0  0  0
    3.1683    2.9300   10.0315 C   0  0  0  0  0  0  0  0  0  0  0  0
    2.6219    4.0399   10.6510 C   0  0  0  0  0  0  0  0  0  0  0  0
    1.5974    4.7287   10.0540 C   0  0  0  0  0  0  0  0  0  0  0  0
    1.1301    4.2913    8.8344 C   0  0  0  0  0  0  0  0  0  0  0  0
    1.6885    3.1830    8.2352 C   0  0  0  0  0  0  0  0  0  0  0  0
    1.1178    2.8449    6.9898 O   0  0  0  0  0  0  0  0  0  0  0  0
    0.0403    1.9905    6.9240 C   0  0  0  0  0  0  0  0  0  0  0  0
   -0.6108    1.8212    7.9900 O   0  0  0  0  0  0  0  0  0  0  0  0
   -0.3605    1.2872    5.6720 C   0  0  0  0  0  0  0  0  0  0  0  0
    1.0646    5.7970   10.6377 O   0  0  0  0  0  0  0  0  0  0  0  0
    1.4902    6.2290   11.7903 C   0  0  0  0  0  0  0  0  0  0  0  0
    2.4993    5.5918   12.4303 C   0  0  0  0  0  0  0  0  0  0  0  0
    3.0986    4.4724   11.8771 C   0  0  0  0  0  0  0  0  0  0  0  0
    4.0269    3.8646   12.4384 O   0  0  0  0  0  0  0  0  0  0  0  0
    3.0437    5.9974   13.7190 C   0  0  0  0  0  0  0  0  0  0  0  0
    2.6700    6.2422   14.8447 N   0  0  0  0  0  0  0  0  0  0  0  0
    3.3451    6.6004   15.8863 C   0  0  0  0  0  0  0  0  0  0  0  0
    4.7145    6.7202   15.6694 C   0  0  0  0  0  0  0  0  0  0  0  0
    4.8634    6.2870   13.9309 S   0  0  0  0  0  0  0  0  0  0  0  0
    2.7112    6.8754   17.2499 C   0  0  0  0  0  0  0  0  0  0  0  0
    0.8282    7.4334   12.3623 C   0  0  0  0  0  0  0  0  0  0  0  0
  1  2  1  0
  2  3  1  0
  3  4  1  0
  4  5  2  0
  5  6  1  0
  6  7  2  0
  7  8  1  0
  8  9  2  0
  9 10  1  0
 10 11  1  0
 11 12  2  0
 11 13  1  0
  7 14  1  0
 14 15  1  0
 15 16  2  0
 16 17  1  0
 17 18  2  0
 16 19  1  0
 19 20  2  0
 20 21  1  0
 21 22  2  0
 22 23  1  0
 21 24  1  0
 15 25  1  0
  9  4  1  0
 17  6  1  0
 23 19  1  0
M  END
$$$$
