
     RDKit          3D

 25 27  0  0  0  0  0  0  0  0999 V2000
    4.7637   -0.8328    8.0816 C   0  0  0  0  0  0  0  0  0  0  0  0
    4.4522    0.5863    8.5804 C   0  0  0  0  0  0  0  0  0  0  0  0
    2.9901    0.7212    8.8510 C   0  0  0  0  0  0  0  0  0  0  0  0
    2.5358    2.0428    9.2817 C   0  0  0  0  0  0  0  0  0  0  0  0
    2.9950    2.5912   10.4631 C   0  0  0  0  0  0  0  0  0  0  0  0
    2.5804    3.8417   10.8856 C   0  0  0  0  0  0  0  0  0  0  0  0
    1.6962    4.5673   10.1291 C   0  0  0  0  0  0  0  0  0  0  0  0
    1.2352    4.0246    8.9502 C   0  0  0  0  0  0  0  0  0  0  0  0
    1.6609    2.7770    8.5485 C   0  0  0  0  0  0  0  0  0  0  0  0
    1.1131    2.3416    7.3230 O   0  0  0  0  0  0  0  0  0  0  0  0
   -0.1026    1.6963    7.2914 C   0  0  0  0  0  0  0  0  0  0  0  0
   -0.4680    1.1297    8.3565 O   0  0  0  0  0  0  0  0  0  0  0  0
   -0.9647    1.6519    6.0758 C   0  0  0  0  0  0  0  0  0  0  0  0
    1.2910    5.7701   10.5229 O   0  0  0  0  0  0  0  0  0  0  0  0
    1.7135    6.3035   11.6334 C   0  0  0  0  0  0  0  0  0  0  0  0
    2.5876    5.6367   12.4242 C   0  0  0  0  0  0  0  0  0  0  0  0
    3.0497    4.3794   12.0723 C   0  0  0  0  0  0  0  0  0  0  0  0
    3.8521    3.7409   12.7756 O   0  0  0  0  0  0  0  0  0  0  0  0
    3.1167    6.1480   13.6813 C   0  0  0  0  0  0  0  0  0  0  0  0
    4.1789    6.4282   14.1914 N   0  0  0  0  0  0  0  0  0  0  0  0
    4.4405    6.8875   15.3701 C   0  0  0  0  0  0  0  0  0  0  0  0
    3.3194    7.0881   16.1699 C   0  0  0  0  0  0  0  0  0  0  0  0
    1.9816    6.5713   15.0856 S   0  0  0  0  0  0  0  0  0  0  0  0
    5.8554    7.1899   15.8637 C   0  0  0  0  0  0  0  0  0  0  0  0
    1.2005    7.6551   11.9879 C   0  0  0  0  0  0  0  0  0  0  0  0
  1  2  1  0
  2  3  1  0
  3  4  1  0
  4  5  2  0
  5  6  1  0
  6  7  2  0
  7  8  1  0
  8  9  2  0
  9 10  1  0
 10 11  1  0
 11 12  2  0
 11 13  1  0
  7 14  1  0
 14 15  1  0
 15 16  2  0
 16 17  1  0
 17 18  2  0
 16 19  1  0
 19 20  2  0
 20 21  1  0
 21 22  2  0
 22 23  1  0
 21 24  1  0
 15 25  1  0
  9  4  1  0
 17  6  1  0
 23 19  1  0
M  END
$$$$
