
     RDKit          3D

 25 27  0  0  0  0  0  0  0  0999 V2000
    4.0298   -0.3005    6.7900 C   0  0  0  0  0  0  0  0  0  0  0  0
    3.8701    1.0150    7.5668 C   0  0  0  0  0  0  0  0  0  0  0  0
    2.4469    1.1914    7.9821 C   0  0  0  0  0  0  0  0  0  0  0  0
    2.1383    2.4204    8.7121 C   0  0  0  0  0  0  0  0  0  0  0  0
    2.8420    2.7536    9.8528 C   0  0  0  0  0  0  0  0  0  0  0  0
    2.5678    3.9138   10.5548 C   0  0  0  0  0  0  0  0  0  0  0  0
    1.5814    4.7637   10.1247 C   0  0  0  0  0  0  0  0  0  0  0  0
    0.8767    4.4356    8.9876 C   0  0  0  0  0  0  0  0  0  0  0  0
    1.1658    3.2746    8.3038 C   0  0  0  0  0  0  0  0  0  0  0  0
    0.3711    3.0609    7.1575 O   0  0  0  0  0  0  0  0  0  0  0  0
    0.6223    3.7533    5.9944 C   0  0  0  0  0  0  0  0  0  0  0  0
    1.3802    4.7562    6.0879 O   0  0  0  0  0  0  0  0  0  0  0  0
    0.0426    3.3623    4.6777 C   0  0  0  0  0  0  0  0  0  0  0  0
    1.3089    5.8818   10.7891 O   0  0  0  0  0  0  0  0  0  0  0  0
    1.9621    6.2125   11.8663 C   0  0  0  0  0  0  0  0  0  0  0  0
    2.9478    5.4147   12.3416 C   0  0  0  0  0  0  0  0  0  0  0  0
    3.2820    4.2354   11.6969 C   0  0  0  0  0  0  0  0  0  0  0  0
    4.1813    3.4809   12.1069 O   0  0  0  0  0  0  0  0  0  0  0  0
    3.7333    5.6979   13.5350 C   0  0  0  0  0  0  0  0  0  0  0  0
    4.0529    6.6367   14.2302 N   0  0  0  0  0  0  0  0  0  0  0  0
    4.7893    6.6741   15.2909 C   0  0  0  0  0  0  0  0  0  0  0  0
    5.2876    5.4368   15.6877 C   0  0  0  0  0  0  0  0  0  0  0  0
    4.6093    4.3356   14.4388 S   0  0  0  0  0  0  0  0  0  0  0  0
    5.0999    7.9593   16.0584 C   0  0  0  0  0  0  0  0  0  0  0  0
    1.5822    7.4847   12.5395 C   0  0  0  0  0  0  0  0  0  0  0  0
  1  2  1  0
  2  3  1  0
  3  4  1  0
  4  5  2  0
  5  6  1  0
  6  7  2  0
  7  8  1  0
  8  9  2  0
  9 10  1  0
 10 11  1  0
 11 12  2  0
 11 13  1  0
  7 14  1  0
 14 15  1  0
 15 16  2  0
 16 17  1  0
 17 18  2  0
 16 19  1  0
 19 20  2  0
 20 21  1  0
 21 22  2  0
 22 23  1  0
 21 24  1  0
 15 25  1  0
  9  4  1  0
 17  6  1  0
 23 19  1  0
M  END
$$$$
