
     RDKit          3D

 25 27  0  0  0  0  0  0  0  0999 V2000
    4.1291   -0.8815    7.8578 C   0  0  0  0  0  0  0  0  0  0  0  0
    3.8495    0.4291    8.6085 C   0  0  0  0  0  0  0  0  0  0  0  0
    2.5305    0.9864    8.1858 C   0  0  0  0  0  0  0  0  0  0  0  0
    2.1326    2.2442    8.8167 C   0  0  0  0  0  0  0  0  0  0  0  0
    2.7623    2.6823    9.9652 C   0  0  0  0  0  0  0  0  0  0  0  0
    2.4032    3.8713   10.5746 C   0  0  0  0  0  0  0  0  0  0  0  0
    1.4043    4.6453   10.0419 C   0  0  0  0  0  0  0  0  0  0  0  0
    0.7731    4.2126    8.8967 C   0  0  0  0  0  0  0  0  0  0  0  0
    1.1463    3.0246    8.3064 C   0  0  0  0  0  0  0  0  0  0  0  0
    0.4210    2.7011    7.1400 O   0  0  0  0  0  0  0  0  0  0  0  0
    0.8242    3.1762    5.9124 C   0  0  0  0  0  0  0  0  0  0  0  0
    1.7454    4.0365    5.9157 O   0  0  0  0  0  0  0  0  0  0  0  0
    0.2217    2.7168    4.6283 C   0  0  0  0  0  0  0  0  0  0  0  0
    1.0505    5.7901   10.6167 O   0  0  0  0  0  0  0  0  0  0  0  0
    1.6332    6.2192   11.6996 C   0  0  0  0  0  0  0  0  0  0  0  0
    2.6268    5.5000   12.2736 C   0  0  0  0  0  0  0  0  0  0  0  0
    3.0438    4.2984   11.7256 C   0  0  0  0  0  0  0  0  0  0  0  0
    3.9527    3.6142   12.2276 O   0  0  0  0  0  0  0  0  0  0  0  0
    3.3377    5.8954   13.4819 C   0  0  0  0  0  0  0  0  0  0  0  0
    4.4706    6.0728   13.8717 N   0  0  0  0  0  0  0  0  0  0  0  0
    4.9034    6.4388   15.0326 C   0  0  0  0  0  0  0  0  0  0  0  0
    3.9032    6.6613   15.9742 C   0  0  0  0  0  0  0  0  0  0  0  0
    2.4118    6.3025   15.0365 S   0  0  0  0  0  0  0  0  0  0  0  0
    6.3853    6.6164   15.3637 C   0  0  0  0  0  0  0  0  0  0  0  0
    1.1652    7.5131   12.2677 C   0  0  0  0  0  0  0  0  0  0  0  0
  1  2  1  0
  2  3  1  0
  3  4  1  0
  4  5  2  0
  5  6  1  0
  6  7  2  0
  7  8  1  0
  8  9  2  0
  9 10  1  0
 10 11  1  0
 11 12  2  0
 11 13  1  0
  7 14  1  0
 14 15  1  0
 15 16  2  0
 16 17  1  0
 17 18  2  0
 16 19  1  0
 19 20  2  0
 20 21  1  0
 21 22  2  0
 22 23  1  0
 21 24  1  0
 15 25  1  0
  9  4  1  0
 17  6  1  0
 23 19  1  0
M  END
$$$$
