
     RDKit          3D

 25 27  0  0  0  0  0  0  0  0999 V2000
    6.2185    3.8410   14.9635 C   0  0  0  0  0  0  0  0  0  0  0  0
    4.9718    4.7151   15.1659 C   0  0  0  0  0  0  0  0  0  0  0  0
    4.9516    5.8146   14.1561 C   0  0  0  0  0  0  0  0  0  0  0  0
    3.8354    5.7987   13.2114 C   0  0  0  0  0  0  0  0  0  0  0  0
    3.7390    4.8053   12.2569 C   0  0  0  0  0  0  0  0  0  0  0  0
    2.6885    4.7706   11.3572 C   0  0  0  0  0  0  0  0  0  0  0  0
    1.7127    5.7332   11.3985 C   0  0  0  0  0  0  0  0  0  0  0  0
    1.8046    6.7262   12.3486 C   0  0  0  0  0  0  0  0  0  0  0  0
    2.8598    6.7421   13.2348 C   0  0  0  0  0  0  0  0  0  0  0  0
    2.8312    7.8115   14.1549 O   0  0  0  0  0  0  0  0  0  0  0  0
    1.8201    7.9063   15.0845 C   0  0  0  0  0  0  0  0  0  0  0  0
    0.7405    7.3189   14.8050 O   0  0  0  0  0  0  0  0  0  0  0  0
    1.9642    8.6577   16.3641 C   0  0  0  0  0  0  0  0  0  0  0  0
    0.6978    5.7107   10.5410 O   0  0  0  0  0  0  0  0  0  0  0  0
    0.5901    4.7817    9.6345 C   0  0  0  0  0  0  0  0  0  0  0  0
    1.5217    3.8031    9.5427 C   0  0  0  0  0  0  0  0  0  0  0  0
    2.6045    3.7679   10.4058 C   0  0  0  0  0  0  0  0  0  0  0  0
    3.4769    2.8838   10.3482 O   0  0  0  0  0  0  0  0  0  0  0  0
    1.4888    2.7233    8.5658 C   0  0  0  0  0  0  0  0  0  0  0  0
    1.6389    1.5228    8.5093 N   0  0  0  0  0  0  0  0  0  0  0  0
    1.5628    0.7213    7.4991 C   0  0  0  0  0  0  0  0  0  0  0  0
    1.2604    1.3455    6.2926 C   0  0  0  0  0  0  0  0  0  0  0  0
    1.1189    3.0697    6.7817 S   0  0  0  0  0  0  0  0  0  0  0  0
    1.7845   -0.7879    7.6000 C   0  0  0  0  0  0  0  0  0  0  0  0
   -0.5827    4.8437    8.7199 C   0  0  0  0  0  0  0  0  0  0  0  0
  1  2  1  0
  2  3  1  0
  3  4  1  0
  4  5  2  0
  5  6  1  0
  6  7  2  0
  7  8  1  0
  8  9  2  0
  9 10  1  0
 10 11  1  0
 11 12  2  0
 11 13  1  0
  7 14  1  0
 14 15  1  0
 15 16  2  0
 16 17  1  0
 17 18  2  0
 16 19  1  0
 19 20  2  0
 20 21  1  0
 21 22  2  0
 22 23  1  0
 21 24  1  0
 15 25  1  0
  9  4  1  0
 17  6  1  0
 23 19  1  0
M  END
$$$$
