
     RDKit          3D

 25 27  0  0  0  0  0  0  0  0999 V2000
    6.6410    5.1785   15.3444 C   0  0  0  0  0  0  0  0  0  0  0  0
    5.6449    4.9350   14.2008 C   0  0  0  0  0  0  0  0  0  0  0  0
    4.5823    5.9837   14.2193 C   0  0  0  0  0  0  0  0  0  0  0  0
    3.5738    5.8950   13.1641 C   0  0  0  0  0  0  0  0  0  0  0  0
    3.5550    4.8168   12.3013 C   0  0  0  0  0  0  0  0  0  0  0  0
    2.6065    4.7126   11.2995 C   0  0  0  0  0  0  0  0  0  0  0  0
    1.6567    5.6895   11.1445 C   0  0  0  0  0  0  0  0  0  0  0  0
    1.6714    6.7669   12.0024 C   0  0  0  0  0  0  0  0  0  0  0  0
    2.6256    6.8510   12.9931 C   0  0  0  0  0  0  0  0  0  0  0  0
    2.5257    8.0035   13.8012 O   0  0  0  0  0  0  0  0  0  0  0  0
    1.7327    8.0010   14.9265 C   0  0  0  0  0  0  0  0  0  0  0  0
    1.0004    6.9894   15.0978 O   0  0  0  0  0  0  0  0  0  0  0  0
    1.7184    9.1215   15.9099 C   0  0  0  0  0  0  0  0  0  0  0  0
    0.7393    5.6010   10.1871 O   0  0  0  0  0  0  0  0  0  0  0  0
    0.7058    4.5916    9.3646 C   0  0  0  0  0  0  0  0  0  0  0  0
    1.6166    3.5947    9.4664 C   0  0  0  0  0  0  0  0  0  0  0  0
    2.5994    3.6253   10.4419 C   0  0  0  0  0  0  0  0  0  0  0  0
    3.4502    2.7265   10.5624 O   0  0  0  0  0  0  0  0  0  0  0  0
    1.6612    2.4274    8.5964 C   0  0  0  0  0  0  0  0  0  0  0  0
    1.5770    2.1466    7.4212 N   0  0  0  0  0  0  0  0  0  0  0  0
    1.6471    0.9986    6.8329 C   0  0  0  0  0  0  0  0  0  0  0  0
    1.8516   -0.0759    7.6934 C   0  0  0  0  0  0  0  0  0  0  0  0
    1.9194    0.7305    9.2989 S   0  0  0  0  0  0  0  0  0  0  0  0
    1.5171    0.8154    5.3208 C   0  0  0  0  0  0  0  0  0  0  0  0
   -0.3603    4.5842    8.3257 C   0  0  0  0  0  0  0  0  0  0  0  0
  1  2  1  0
  2  3  1  0
  3  4  1  0
  4  5  2  0
  5  6  1  0
  6  7  2  0
  7  8  1  0
  8  9  2  0
  9 10  1  0
 10 11  1  0
 11 12  2  0
 11 13  1  0
  7 14  1  0
 14 15  1  0
 15 16  2  0
 16 17  1  0
 17 18  2  0
 16 19  1  0
 19 20  2  0
 20 21  1  0
 21 22  2  0
 22 23  1  0
 21 24  1  0
 15 25  1  0
  9  4  1  0
 17  6  1  0
 23 19  1  0
M  END
$$$$
