
     RDKit          3D

 25 27  0  0  0  0  0  0  0  0999 V2000
    2.9593    0.0012    8.4717 C   0  0  0  0  0  0  0  0  0  0  0  0
    2.2359    1.2496    8.9986 C   0  0  0  0  0  0  0  0  0  0  0  0
    3.1671    2.0616    9.8369 C   0  0  0  0  0  0  0  0  0  0  0  0
    2.5961    3.2558   10.4585 C   0  0  0  0  0  0  0  0  0  0  0  0
    1.7948    4.1113    9.7280 C   0  0  0  0  0  0  0  0  0  0  0  0
    1.2420    5.2436   10.2991 C   0  0  0  0  0  0  0  0  0  0  0  0
    1.4823    5.5394   11.6164 C   0  0  0  0  0  0  0  0  0  0  0  0
    2.2809    4.6894   12.3491 C   0  0  0  0  0  0  0  0  0  0  0  0
    2.8219    3.5671   11.7602 C   0  0  0  0  0  0  0  0  0  0  0  0
    3.6179    2.7835   12.6225 O   0  0  0  0  0  0  0  0  0  0  0  0
    4.8840    3.1961   12.9717 C   0  0  0  0  0  0  0  0  0  0  0  0
    5.3501    4.1821   12.3396 O   0  0  0  0  0  0  0  0  0  0  0  0
    5.6874    2.5315   14.0374 C   0  0  0  0  0  0  0  0  0  0  0  0
    0.9563    6.6232   12.1775 O   0  0  0  0  0  0  0  0  0  0  0  0
    0.1982    7.4410   11.5045 C   0  0  0  0  0  0  0  0  0  0  0  0
   -0.0763    7.2037   10.1998 C   0  0  0  0  0  0  0  0  0  0  0  0
    0.4399    6.0922    9.5546 C   0  0  0  0  0  0  0  0  0  0  0  0
    0.2073    5.8454    8.3583 O   0  0  0  0  0  0  0  0  0  0  0  0
   -0.9112    8.0569    9.3652 C   0  0  0  0  0  0  0  0  0  0  0  0
   -1.0660    9.2297    9.1056 N   0  0  0  0  0  0  0  0  0  0  0  0
   -1.8998    9.8008    8.3010 C   0  0  0  0  0  0  0  0  0  0  0  0
   -2.7475    8.9217    7.6337 C   0  0  0  0  0  0  0  0  0  0  0  0
   -2.2187    7.3261    8.2715 S   0  0  0  0  0  0  0  0  0  0  0  0
   -1.9663   11.3132    8.0877 C   0  0  0  0  0  0  0  0  0  0  0  0
   -0.3427    8.6278   12.2221 C   0  0  0  0  0  0  0  0  0  0  0  0
  1  2  1  0
  2  3  1  0
  3  4  1  0
  4  5  2  0
  5  6  1  0
  6  7  2  0
  7  8  1  0
  8  9  2  0
  9 10  1  0
 10 11  1  0
 11 12  2  0
 11 13  1  0
  7 14  1  0
 14 15  1  0
 15 16  2  0
 16 17  1  0
 17 18  2  0
 16 19  1  0
 19 20  2  0
 20 21  1  0
 21 22  2  0
 22 23  1  0
 21 24  1  0
 15 25  1  0
  9  4  1  0
 17  6  1  0
 23 19  1  0
M  END
$$$$
