
     RDKit          3D

 25 27  0  0  0  0  0  0  0  0999 V2000
    5.0644    0.0645    8.1428 C   0  0  0  0  0  0  0  0  0  0  0  0
    3.7781    0.6363    7.5280 C   0  0  0  0  0  0  0  0  0  0  0  0
    2.6890    0.6516    8.5492 C   0  0  0  0  0  0  0  0  0  0  0  0
    2.2767    1.9701    9.0288 C   0  0  0  0  0  0  0  0  0  0  0  0
    2.7563    2.4616   10.2271 C   0  0  0  0  0  0  0  0  0  0  0  0
    2.3815    3.7082   10.6957 C   0  0  0  0  0  0  0  0  0  0  0  0
    1.5175    4.4870    9.9696 C   0  0  0  0  0  0  0  0  0  0  0  0
    1.0362    4.0012    8.7740 C   0  0  0  0  0  0  0  0  0  0  0  0
    1.4222    2.7564    8.3261 C   0  0  0  0  0  0  0  0  0  0  0  0
    0.8574    2.3822    7.0883 O   0  0  0  0  0  0  0  0  0  0  0  0
   -0.4528    1.9657    7.0158 C   0  0  0  0  0  0  0  0  0  0  0  0
   -1.1514    2.1191    8.0537 O   0  0  0  0  0  0  0  0  0  0  0  0
   -1.0436    1.3606    5.7879 C   0  0  0  0  0  0  0  0  0  0  0  0
    1.1505    5.6867   10.4078 O   0  0  0  0  0  0  0  0  0  0  0  0
    1.5927    6.1668   11.5349 C   0  0  0  0  0  0  0  0  0  0  0  0
    2.4486    5.4458   12.2976 C   0  0  0  0  0  0  0  0  0  0  0  0
    2.8709    4.1884   11.8989 C   0  0  0  0  0  0  0  0  0  0  0  0
    3.6557    3.5010   12.5754 O   0  0  0  0  0  0  0  0  0  0  0  0
    2.9972    5.8953   13.5698 C   0  0  0  0  0  0  0  0  0  0  0  0
    2.6355    6.4258   14.5967 N   0  0  0  0  0  0  0  0  0  0  0  0
    3.3117    6.7509   15.6483 C   0  0  0  0  0  0  0  0  0  0  0  0
    4.6660    6.4381   15.5794 C   0  0  0  0  0  0  0  0  0  0  0  0
    4.8005    5.6885   13.9508 S   0  0  0  0  0  0  0  0  0  0  0  0
    2.6947    7.4246   16.8741 C   0  0  0  0  0  0  0  0  0  0  0  0
    1.1224    7.5198   11.9397 C   0  0  0  0  0  0  0  0  0  0  0  0
  1  2  1  0
  2  3  1  0
  3  4  1  0
  4  5  2  0
  5  6  1  0
  6  7  2  0
  7  8  1  0
  8  9  2  0
  9 10  1  0
 10 11  1  0
 11 12  2  0
 11 13  1  0
  7 14  1  0
 14 15  1  0
 15 16  2  0
 16 17  1  0
 17 18  2  0
 16 19  1  0
 19 20  2  0
 20 21  1  0
 21 22  2  0
 22 23  1  0
 21 24  1  0
 15 25  1  0
  9  4  1  0
 17  6  1  0
 23 19  1  0
M  END
$$$$
