
     RDKit          3D

 25 27  0  0  0  0  0  0  0  0999 V2000
    4.0072   -0.6413    7.2052 C   0  0  0  0  0  0  0  0  0  0  0  0
    3.7516    0.6826    7.9408 C   0  0  0  0  0  0  0  0  0  0  0  0
    2.2885    0.8565    8.1823 C   0  0  0  0  0  0  0  0  0  0  0  0
    1.8917    2.0885    8.8629 C   0  0  0  0  0  0  0  0  0  0  0  0
    2.6026    2.5463    9.9549 C   0  0  0  0  0  0  0  0  0  0  0  0
    2.2456    3.7116   10.6095 C   0  0  0  0  0  0  0  0  0  0  0  0
    1.1671    4.4416   10.1799 C   0  0  0  0  0  0  0  0  0  0  0  0
    0.4548    3.9891    9.0914 C   0  0  0  0  0  0  0  0  0  0  0  0
    0.8275    2.8253    8.4544 C   0  0  0  0  0  0  0  0  0  0  0  0
    0.0144    2.4775    7.3548 O   0  0  0  0  0  0  0  0  0  0  0  0
    0.3171    2.9318    6.0909 C   0  0  0  0  0  0  0  0  0  0  0  0
    1.0061    3.9850    6.0204 O   0  0  0  0  0  0  0  0  0  0  0  0
   -0.1323    2.2364    4.8510 C   0  0  0  0  0  0  0  0  0  0  0  0
    0.8144    5.5633   10.7991 O   0  0  0  0  0  0  0  0  0  0  0  0
    1.4730    6.0105   11.8299 C   0  0  0  0  0  0  0  0  0  0  0  0
    2.5474    5.3346   12.3020 C   0  0  0  0  0  0  0  0  0  0  0  0
    2.9682    4.1589   11.7029 C   0  0  0  0  0  0  0  0  0  0  0  0
    3.9501    3.5146   12.1114 O   0  0  0  0  0  0  0  0  0  0  0  0
    3.3466    5.7531   13.4456 C   0  0  0  0  0  0  0  0  0  0  0  0
    3.8578    6.7526   13.9000 N   0  0  0  0  0  0  0  0  0  0  0  0
    4.5554    6.9153   14.9750 C   0  0  0  0  0  0  0  0  0  0  0  0
    4.7422    5.7543   15.7194 C   0  0  0  0  0  0  0  0  0  0  0  0
    3.8585    4.5305   14.7429 S   0  0  0  0  0  0  0  0  0  0  0  0
    5.1367    8.2610   15.4089 C   0  0  0  0  0  0  0  0  0  0  0  0
    0.9990    7.2757   12.4548 C   0  0  0  0  0  0  0  0  0  0  0  0
  1  2  1  0
  2  3  1  0
  3  4  1  0
  4  5  2  0
  5  6  1  0
  6  7  2  0
  7  8  1  0
  8  9  2  0
  9 10  1  0
 10 11  1  0
 11 12  2  0
 11 13  1  0
  7 14  1  0
 14 15  1  0
 15 16  2  0
 16 17  1  0
 17 18  2  0
 16 19  1  0
 19 20  2  0
 20 21  1  0
 21 22  2  0
 22 23  1  0
 21 24  1  0
 15 25  1  0
  9  4  1  0
 17  6  1  0
 23 19  1  0
M  END
$$$$
