
     RDKit          3D

 25 27  0  0  0  0  0  0  0  0999 V2000
    4.7395   -0.3839    7.7317 C   0  0  0  0  0  0  0  0  0  0  0  0
    4.4018    0.8757    8.5432 C   0  0  0  0  0  0  0  0  0  0  0  0
    2.9213    1.0578    8.6080 C   0  0  0  0  0  0  0  0  0  0  0  0
    2.4518    2.2679    9.2815 C   0  0  0  0  0  0  0  0  0  0  0  0
    3.0806    2.7232   10.4238 C   0  0  0  0  0  0  0  0  0  0  0  0
    2.6540    3.8681   11.0729 C   0  0  0  0  0  0  0  0  0  0  0  0
    1.5872    4.5796   10.5872 C   0  0  0  0  0  0  0  0  0  0  0  0
    0.9566    4.1295    9.4484 C   0  0  0  0  0  0  0  0  0  0  0  0
    1.3976    2.9862    8.8179 C   0  0  0  0  0  0  0  0  0  0  0  0
    0.6647    2.6386    7.6632 O   0  0  0  0  0  0  0  0  0  0  0  0
   -0.3643    1.7271    7.7372 C   0  0  0  0  0  0  0  0  0  0  0  0
   -0.6722    1.3167    8.8886 O   0  0  0  0  0  0  0  0  0  0  0  0
   -1.0956    1.2317    6.5361 C   0  0  0  0  0  0  0  0  0  0  0  0
    1.1682    5.6816   11.2004 O   0  0  0  0  0  0  0  0  0  0  0  0
    1.7489    6.1262   12.2781 C   0  0  0  0  0  0  0  0  0  0  0  0
    2.8077    5.4679   12.8069 C   0  0  0  0  0  0  0  0  0  0  0  0
    3.2946    4.3132   12.2171 C   0  0  0  0  0  0  0  0  0  0  0  0
    4.2644    3.6853   12.6770 O   0  0  0  0  0  0  0  0  0  0  0  0
    3.5222    5.8851   14.0056 C   0  0  0  0  0  0  0  0  0  0  0  0
    3.7013    6.8772   14.6768 N   0  0  0  0  0  0  0  0  0  0  0  0
    4.4020    7.0406   15.7497 C   0  0  0  0  0  0  0  0  0  0  0  0
    5.0473    5.8907   16.1947 C   0  0  0  0  0  0  0  0  0  0  0  0
    4.5463    4.6751   14.9684 S   0  0  0  0  0  0  0  0  0  0  0  0
    4.5257    8.3768   16.4822 C   0  0  0  0  0  0  0  0  0  0  0  0
    1.2050    7.3686   12.8917 C   0  0  0  0  0  0  0  0  0  0  0  0
  1  2  1  0
  2  3  1  0
  3  4  1  0
  4  5  2  0
  5  6  1  0
  6  7  2  0
  7  8  1  0
  8  9  2  0
  9 10  1  0
 10 11  1  0
 11 12  2  0
 11 13  1  0
  7 14  1  0
 14 15  1  0
 15 16  2  0
 16 17  1  0
 17 18  2  0
 16 19  1  0
 19 20  2  0
 20 21  1  0
 21 22  2  0
 22 23  1  0
 21 24  1  0
 15 25  1  0
  9  4  1  0
 17  6  1  0
 23 19  1  0
M  END
$$$$
