
     RDKit          3D

 25 27  0  0  0  0  0  0  0  0999 V2000
    4.6024   -0.6795    7.6905 C   0  0  0  0  0  0  0  0  0  0  0  0
    4.4012    0.6178    8.4880 C   0  0  0  0  0  0  0  0  0  0  0  0
    2.9999    1.1056    8.3214 C   0  0  0  0  0  0  0  0  0  0  0  0
    2.7048    2.4189    8.8928 C   0  0  0  0  0  0  0  0  0  0  0  0
    3.2093    2.7755   10.1280 C   0  0  0  0  0  0  0  0  0  0  0  0
    2.9449    4.0147   10.6834 C   0  0  0  0  0  0  0  0  0  0  0  0
    2.1685    4.9216   10.0087 C   0  0  0  0  0  0  0  0  0  0  0  0
    1.6629    4.5706    8.7766 C   0  0  0  0  0  0  0  0  0  0  0  0
    1.9382    3.3307    8.2421 C   0  0  0  0  0  0  0  0  0  0  0  0
    1.3604    3.1015    6.9753 O   0  0  0  0  0  0  0  0  0  0  0  0
    0.0169    2.8239    6.8603 C   0  0  0  0  0  0  0  0  0  0  0  0
   -0.5811    2.4842    7.9166 O   0  0  0  0  0  0  0  0  0  0  0  0
   -0.7205    2.9112    5.5674 C   0  0  0  0  0  0  0  0  0  0  0  0
    1.9080    6.1157   10.5305 O   0  0  0  0  0  0  0  0  0  0  0  0
    2.3753    6.4695   11.6936 C   0  0  0  0  0  0  0  0  0  0  0  0
    3.1484    5.6182   12.4088 C   0  0  0  0  0  0  0  0  0  0  0  0
    3.4580    4.3588   11.9228 C   0  0  0  0  0  0  0  0  0  0  0  0
    4.1647    3.5536   12.5540 O   0  0  0  0  0  0  0  0  0  0  0  0
    3.7166    5.9213   13.7153 C   0  0  0  0  0  0  0  0  0  0  0  0
    3.4217    6.4926   14.7417 N   0  0  0  0  0  0  0  0  0  0  0  0
    4.0999    6.6527   15.8294 C   0  0  0  0  0  0  0  0  0  0  0  0
    5.3653    6.0739   15.8072 C   0  0  0  0  0  0  0  0  0  0  0  0
    5.4218    5.3463   14.1642 S   0  0  0  0  0  0  0  0  0  0  0  0
    3.5748    7.4118   17.0480 C   0  0  0  0  0  0  0  0  0  0  0  0
    2.0268    7.8281   12.1923 C   0  0  0  0  0  0  0  0  0  0  0  0
  1  2  1  0
  2  3  1  0
  3  4  1  0
  4  5  2  0
  5  6  1  0
  6  7  2  0
  7  8  1  0
  8  9  2  0
  9 10  1  0
 10 11  1  0
 11 12  2  0
 11 13  1  0
  7 14  1  0
 14 15  1  0
 15 16  2  0
 16 17  1  0
 17 18  2  0
 16 19  1  0
 19 20  2  0
 20 21  1  0
 21 22  2  0
 22 23  1  0
 21 24  1  0
 15 25  1  0
  9  4  1  0
 17  6  1  0
 23 19  1  0
M  END
$$$$
