
     RDKit          3D

 25 27  0  0  0  0  0  0  0  0999 V2000
    3.9882   -0.9704    7.9795 C   0  0  0  0  0  0  0  0  0  0  0  0
    3.2061    0.0911    8.7675 C   0  0  0  0  0  0  0  0  0  0  0  0
    3.6028    1.4570    8.3134 C   0  0  0  0  0  0  0  0  0  0  0  0
    2.9592    2.5750    9.0021 C   0  0  0  0  0  0  0  0  0  0  0  0
    3.4752    3.0581   10.1886 C   0  0  0  0  0  0  0  0  0  0  0  0
    2.8831    4.1175   10.8529 C   0  0  0  0  0  0  0  0  0  0  0  0
    1.7607    4.7139   10.3382 C   0  0  0  0  0  0  0  0  0  0  0  0
    1.2421    4.2355    9.1553 C   0  0  0  0  0  0  0  0  0  0  0  0
    1.8474    3.1787    8.5104 C   0  0  0  0  0  0  0  0  0  0  0  0
    1.2156    2.7903    7.3099 O   0  0  0  0  0  0  0  0  0  0  0  0
   -0.0606    2.2743    7.3275 C   0  0  0  0  0  0  0  0  0  0  0  0
   -0.6352    2.2296    8.4485 O   0  0  0  0  0  0  0  0  0  0  0  0
   -0.7535    1.7852    6.1013 C   0  0  0  0  0  0  0  0  0  0  0  0
    1.1830    5.7330   10.9656 O   0  0  0  0  0  0  0  0  0  0  0  0
    1.6556    6.2022   12.0850 C   0  0  0  0  0  0  0  0  0  0  0  0
    2.7616    5.6561   12.6439 C   0  0  0  0  0  0  0  0  0  0  0  0
    3.4120    4.5919   12.0415 C   0  0  0  0  0  0  0  0  0  0  0  0
    4.4292    4.0678   12.5283 O   0  0  0  0  0  0  0  0  0  0  0  0
    3.3647    6.1096   13.8897 C   0  0  0  0  0  0  0  0  0  0  0  0
    3.5409    7.1332   14.5126 N   0  0  0  0  0  0  0  0  0  0  0  0
    4.1254    7.3260   15.6484 C   0  0  0  0  0  0  0  0  0  0  0  0
    4.6269    6.1702   16.2395 C   0  0  0  0  0  0  0  0  0  0  0  0
    4.1780    4.9058   15.0427 S   0  0  0  0  0  0  0  0  0  0  0  0
    4.2659    8.7002   16.3033 C   0  0  0  0  0  0  0  0  0  0  0  0
    0.9370    7.3457   12.7111 C   0  0  0  0  0  0  0  0  0  0  0  0
  1  2  1  0
  2  3  1  0
  3  4  1  0
  4  5  2  0
  5  6  1  0
  6  7  2  0
  7  8  1  0
  8  9  2  0
  9 10  1  0
 10 11  1  0
 11 12  2  0
 11 13  1  0
  7 14  1  0
 14 15  1  0
 15 16  2  0
 16 17  1  0
 17 18  2  0
 16 19  1  0
 19 20  2  0
 20 21  1  0
 21 22  2  0
 22 23  1  0
 21 24  1  0
 15 25  1  0
  9  4  1  0
 17  6  1  0
 23 19  1  0
M  END
$$$$
