
     RDKit          3D

 25 27  0  0  0  0  0  0  0  0999 V2000
    1.9452   -0.4214    6.6936 C   0  0  0  0  0  0  0  0  0  0  0  0
    1.7406    0.5672    7.8513 C   0  0  0  0  0  0  0  0  0  0  0  0
    1.8020    1.9689    7.3406 C   0  0  0  0  0  0  0  0  0  0  0  0
    1.5887    3.0233    8.3311 C   0  0  0  0  0  0  0  0  0  0  0  0
    2.3788    3.0934    9.4617 C   0  0  0  0  0  0  0  0  0  0  0  0
    2.1953    4.0857   10.4080 C   0  0  0  0  0  0  0  0  0  0  0  0
    1.2145    5.0288   10.2375 C   0  0  0  0  0  0  0  0  0  0  0  0
    0.4237    4.9631    9.1117 C   0  0  0  0  0  0  0  0  0  0  0  0
    0.6233    3.9657    8.1819 C   0  0  0  0  0  0  0  0  0  0  0  0
   -0.2535    4.0156    7.0773 O   0  0  0  0  0  0  0  0  0  0  0  0
    0.1079    4.6820    5.9282 C   0  0  0  0  0  0  0  0  0  0  0  0
    1.2430    5.2301    5.9276 O   0  0  0  0  0  0  0  0  0  0  0  0
   -0.7755    4.7688    4.7303 C   0  0  0  0  0  0  0  0  0  0  0  0
    1.0286    5.9880   11.1383 O   0  0  0  0  0  0  0  0  0  0  0  0
    1.7640    6.0701   12.2101 C   0  0  0  0  0  0  0  0  0  0  0  0
    2.7490    5.1685   12.4355 C   0  0  0  0  0  0  0  0  0  0  0  0
    2.9956    4.1440   11.5367 C   0  0  0  0  0  0  0  0  0  0  0  0
    3.8917    3.3003   11.7138 O   0  0  0  0  0  0  0  0  0  0  0  0
    3.6225    5.1767   13.6011 C   0  0  0  0  0  0  0  0  0  0  0  0
    4.7934    5.0418   13.8798 N   0  0  0  0  0  0  0  0  0  0  0  0
    5.3864    5.0878   15.0266 C   0  0  0  0  0  0  0  0  0  0  0  0
    4.5378    5.3311   16.1024 C   0  0  0  0  0  0  0  0  0  0  0  0
    2.9352    5.4676   15.2990 S   0  0  0  0  0  0  0  0  0  0  0  0
    6.8918    4.8924   15.2071 C   0  0  0  0  0  0  0  0  0  0  0  0
    1.4773    7.1802   13.1594 C   0  0  0  0  0  0  0  0  0  0  0  0
  1  2  1  0
  2  3  1  0
  3  4  1  0
  4  5  2  0
  5  6  1  0
  6  7  2  0
  7  8  1  0
  8  9  2  0
  9 10  1  0
 10 11  1  0
 11 12  2  0
 11 13  1  0
  7 14  1  0
 14 15  1  0
 15 16  2  0
 16 17  1  0
 17 18  2  0
 16 19  1  0
 19 20  2  0
 20 21  1  0
 21 22  2  0
 22 23  1  0
 21 24  1  0
 15 25  1  0
  9  4  1  0
 17  6  1  0
 23 19  1  0
M  END
$$$$
