
     RDKit          3D

 25 27  0  0  0  0  0  0  0  0999 V2000
    4.4234   -0.6728    8.1629 C   0  0  0  0  0  0  0  0  0  0  0  0
    3.4634    0.3969    8.7049 C   0  0  0  0  0  0  0  0  0  0  0  0
    3.9825    1.7584    8.3794 C   0  0  0  0  0  0  0  0  0  0  0  0
    3.2221    2.8828    8.9237 C   0  0  0  0  0  0  0  0  0  0  0  0
    3.5467    3.4181   10.1547 C   0  0  0  0  0  0  0  0  0  0  0  0
    2.8422    4.4843   10.6846 C   0  0  0  0  0  0  0  0  0  0  0  0
    1.7972    5.0352    9.9881 C   0  0  0  0  0  0  0  0  0  0  0  0
    1.4695    4.5046    8.7600 C   0  0  0  0  0  0  0  0  0  0  0  0
    2.1843    3.4420    8.2511 C   0  0  0  0  0  0  0  0  0  0  0  0
    1.7454    2.9980    6.9856 O   0  0  0  0  0  0  0  0  0  0  0  0
    0.6224    2.2097    6.8728 C   0  0  0  0  0  0  0  0  0  0  0  0
   -0.0520    2.0355    7.9234 O   0  0  0  0  0  0  0  0  0  0  0  0
    0.2001    1.5805    5.5888 C   0  0  0  0  0  0  0  0  0  0  0  0
    1.1131    6.0603   10.4853 O   0  0  0  0  0  0  0  0  0  0  0  0
    1.4050    6.5784   11.6440 C   0  0  0  0  0  0  0  0  0  0  0  0
    2.4261    6.0788   12.3800 C   0  0  0  0  0  0  0  0  0  0  0  0
    3.1793    5.0113   11.9201 C   0  0  0  0  0  0  0  0  0  0  0  0
    4.1229    4.5292   12.5708 O   0  0  0  0  0  0  0  0  0  0  0  0
    2.8286    6.5887   13.6837 C   0  0  0  0  0  0  0  0  0  0  0  0
    2.3609    6.7879   14.7830 N   0  0  0  0  0  0  0  0  0  0  0  0
    2.9131    7.2682   15.8476 C   0  0  0  0  0  0  0  0  0  0  0  0
    4.2546    7.6056   15.6962 C   0  0  0  0  0  0  0  0  0  0  0  0
    4.5637    7.1739   13.9785 S   0  0  0  0  0  0  0  0  0  0  0  0
    2.1715    7.4588   17.1708 C   0  0  0  0  0  0  0  0  0  0  0  0
    0.5793    7.7242   12.1145 C   0  0  0  0  0  0  0  0  0  0  0  0
  1  2  1  0
  2  3  1  0
  3  4  1  0
  4  5  2  0
  5  6  1  0
  6  7  2  0
  7  8  1  0
  8  9  2  0
  9 10  1  0
 10 11  1  0
 11 12  2  0
 11 13  1  0
  7 14  1  0
 14 15  1  0
 15 16  2  0
 16 17  1  0
 17 18  2  0
 16 19  1  0
 19 20  2  0
 20 21  1  0
 21 22  2  0
 22 23  1  0
 21 24  1  0
 15 25  1  0
  9  4  1  0
 17  6  1  0
 23 19  1  0
M  END
$$$$
