
     RDKit          3D

 25 27  0  0  0  0  0  0  0  0999 V2000
    4.4970   -0.4295    7.3508 C   0  0  0  0  0  0  0  0  0  0  0  0
    4.1351    0.9257    7.9769 C   0  0  0  0  0  0  0  0  0  0  0  0
    2.6827    0.9556    8.3215 C   0  0  0  0  0  0  0  0  0  0  0  0
    2.1983    2.1804    8.9568 C   0  0  0  0  0  0  0  0  0  0  0  0
    2.8526    2.7076   10.0528 C   0  0  0  0  0  0  0  0  0  0  0  0
    2.4124    3.8675   10.6651 C   0  0  0  0  0  0  0  0  0  0  0  0
    1.3058    4.5221   10.1881 C   0  0  0  0  0  0  0  0  0  0  0  0
    0.6496    4.0002    9.0954 C   0  0  0  0  0  0  0  0  0  0  0  0
    1.1049    2.8432    8.5011 C   0  0  0  0  0  0  0  0  0  0  0  0
    0.3426    2.4196    7.3918 O   0  0  0  0  0  0  0  0  0  0  0  0
    0.6652    2.8398    6.1211 C   0  0  0  0  0  0  0  0  0  0  0  0
    1.3134    3.9172    6.0311 O   0  0  0  0  0  0  0  0  0  0  0  0
    0.2818    2.0822    4.8956 C   0  0  0  0  0  0  0  0  0  0  0  0
    0.8733    5.6378   10.7663 O   0  0  0  0  0  0  0  0  0  0  0  0
    1.4776    6.1498   11.8002 C   0  0  0  0  0  0  0  0  0  0  0  0
    2.5759    5.5501   12.3179 C   0  0  0  0  0  0  0  0  0  0  0  0
    3.0789    4.3850   11.7631 C   0  0  0  0  0  0  0  0  0  0  0  0
    4.0848    3.8097   12.2140 O   0  0  0  0  0  0  0  0  0  0  0  0
    3.3192    6.0446   13.4688 C   0  0  0  0  0  0  0  0  0  0  0  0
    3.8299    5.6316   14.4864 N   0  0  0  0  0  0  0  0  0  0  0  0
    4.4691    6.2652   15.4131 C   0  0  0  0  0  0  0  0  0  0  0  0
    4.5827    7.6354   15.1982 C   0  0  0  0  0  0  0  0  0  0  0  0
    3.7239    7.8471   13.6329 S   0  0  0  0  0  0  0  0  0  0  0  0
    5.0569    5.5851   16.6497 C   0  0  0  0  0  0  0  0  0  0  0  0
    0.9157    7.4018   12.3769 C   0  0  0  0  0  0  0  0  0  0  0  0
  1  2  1  0
  2  3  1  0
  3  4  1  0
  4  5  2  0
  5  6  1  0
  6  7  2  0
  7  8  1  0
  8  9  2  0
  9 10  1  0
 10 11  1  0
 11 12  2  0
 11 13  1  0
  7 14  1  0
 14 15  1  0
 15 16  2  0
 16 17  1  0
 17 18  2  0
 16 19  1  0
 19 20  2  0
 20 21  1  0
 21 22  2  0
 22 23  1  0
 21 24  1  0
 15 25  1  0
  9  4  1  0
 17  6  1  0
 23 19  1  0
M  END
$$$$
