
     RDKit          3D

 25 27  0  0  0  0  0  0  0  0999 V2000
    3.4928   -0.9088    7.5248 C   0  0  0  0  0  0  0  0  0  0  0  0
    2.9086    0.1281    8.4959 C   0  0  0  0  0  0  0  0  0  0  0  0
    3.0799    1.5020    7.9370 C   0  0  0  0  0  0  0  0  0  0  0  0
    2.5030    2.5917    8.7233 C   0  0  0  0  0  0  0  0  0  0  0  0
    3.1590    3.0750    9.8385 C   0  0  0  0  0  0  0  0  0  0  0  0
    2.6317    4.1080   10.5927 C   0  0  0  0  0  0  0  0  0  0  0  0
    1.4346    4.6774   10.2415 C   0  0  0  0  0  0  0  0  0  0  0  0
    0.7765    4.1987    9.1303 C   0  0  0  0  0  0  0  0  0  0  0  0
    1.3195    3.1685    8.3935 C   0  0  0  0  0  0  0  0  0  0  0  0
    0.5443    2.7767    7.2813 O   0  0  0  0  0  0  0  0  0  0  0  0
    0.7432    3.3607    6.0506 C   0  0  0  0  0  0  0  0  0  0  0  0
    1.4025    4.4350    6.0364 O   0  0  0  0  0  0  0  0  0  0  0  0
    0.2185    2.7774    4.7829 C   0  0  0  0  0  0  0  0  0  0  0  0
    0.9178    5.6710   10.9567 O   0  0  0  0  0  0  0  0  0  0  0  0
    1.5221    6.1399   12.0109 C   0  0  0  0  0  0  0  0  0  0  0  0
    2.7073    5.6197   12.4089 C   0  0  0  0  0  0  0  0  0  0  0  0
    3.3009    4.5829   11.7082 C   0  0  0  0  0  0  0  0  0  0  0  0
    4.3879    4.0830   12.0469 O   0  0  0  0  0  0  0  0  0  0  0  0
    3.4583    6.0752   13.5709 C   0  0  0  0  0  0  0  0  0  0  0  0
    3.8528    7.1053   14.0710 N   0  0  0  0  0  0  0  0  0  0  0  0
    4.5321    7.2984   15.1527 C   0  0  0  0  0  0  0  0  0  0  0  0
    4.8553    6.1341   15.8431 C   0  0  0  0  0  0  0  0  0  0  0  0
    4.1142    4.8620   14.8111 S   0  0  0  0  0  0  0  0  0  0  0  0
    4.9561    8.6811   15.6482 C   0  0  0  0  0  0  0  0  0  0  0  0
    0.8620    7.2537   12.7455 C   0  0  0  0  0  0  0  0  0  0  0  0
  1  2  1  0
  2  3  1  0
  3  4  1  0
  4  5  2  0
  5  6  1  0
  6  7  2  0
  7  8  1  0
  8  9  2  0
  9 10  1  0
 10 11  1  0
 11 12  2  0
 11 13  1  0
  7 14  1  0
 14 15  1  0
 15 16  2  0
 16 17  1  0
 17 18  2  0
 16 19  1  0
 19 20  2  0
 20 21  1  0
 21 22  2  0
 22 23  1  0
 21 24  1  0
 15 25  1  0
  9  4  1  0
 17  6  1  0
 23 19  1  0
M  END
$$$$
