
     RDKit          3D

 25 27  0  0  0  0  0  0  0  0999 V2000
    6.2442    4.7927   15.7969 C   0  0  0  0  0  0  0  0  0  0  0  0
    5.5901    4.6873   14.4111 C   0  0  0  0  0  0  0  0  0  0  0  0
    4.6097    5.7978   14.2251 C   0  0  0  0  0  0  0  0  0  0  0  0
    3.5991    5.5955   13.1877 C   0  0  0  0  0  0  0  0  0  0  0  0
    3.7402    4.5823   12.2597 C   0  0  0  0  0  0  0  0  0  0  0  0
    2.7931    4.3723   11.2733 C   0  0  0  0  0  0  0  0  0  0  0  0
    1.6841    5.1755   11.1994 C   0  0  0  0  0  0  0  0  0  0  0  0
    1.5390    6.1874   12.1225 C   0  0  0  0  0  0  0  0  0  0  0  0
    2.4948    6.3794   13.0964 C   0  0  0  0  0  0  0  0  0  0  0  0
    2.2224    7.4480   13.9769 O   0  0  0  0  0  0  0  0  0  0  0  0
    2.2898    8.7505   13.5364 C   0  0  0  0  0  0  0  0  0  0  0  0
    2.3162    8.9228   12.2880 O   0  0  0  0  0  0  0  0  0  0  0  0
    2.3312    9.9178   14.4629 C   0  0  0  0  0  0  0  0  0  0  0  0
    0.7664    4.9836   10.2577 O   0  0  0  0  0  0  0  0  0  0  0  0
    0.8823    4.0333    9.3747 C   0  0  0  0  0  0  0  0  0  0  0  0
    1.9548    3.2066    9.3950 C   0  0  0  0  0  0  0  0  0  0  0  0
    2.9475    3.3519   10.3498 C   0  0  0  0  0  0  0  0  0  0  0  0
    3.9444    2.6102   10.3961 O   0  0  0  0  0  0  0  0  0  0  0  0
    2.1734    2.1174    8.4529 C   0  0  0  0  0  0  0  0  0  0  0  0
    1.5392    1.3580    7.7545 N   0  0  0  0  0  0  0  0  0  0  0  0
    1.9444    0.4245    6.9586 C   0  0  0  0  0  0  0  0  0  0  0  0
    3.3271    0.2778    6.9029 C   0  0  0  0  0  0  0  0  0  0  0  0
    3.8904    1.5474    8.0445 S   0  0  0  0  0  0  0  0  0  0  0  0
    1.0001   -0.4561    6.1401 C   0  0  0  0  0  0  0  0  0  0  0  0
   -0.1984    3.8998    8.3597 C   0  0  0  0  0  0  0  0  0  0  0  0
  1  2  1  0
  2  3  1  0
  3  4  1  0
  4  5  2  0
  5  6  1  0
  6  7  2  0
  7  8  1  0
  8  9  2  0
  9 10  1  0
 10 11  1  0
 11 12  2  0
 11 13  1  0
  7 14  1  0
 14 15  1  0
 15 16  2  0
 16 17  1  0
 17 18  2  0
 16 19  1  0
 19 20  2  0
 20 21  1  0
 21 22  2  0
 22 23  1  0
 21 24  1  0
 15 25  1  0
  9  4  1  0
 17  6  1  0
 23 19  1  0
M  END
$$$$
