
     RDKit          3D

 25 27  0  0  0  0  0  0  0  0999 V2000
    4.6588    0.3024    7.3305 C   0  0  0  0  0  0  0  0  0  0  0  0
    3.9750    0.3096    8.7059 C   0  0  0  0  0  0  0  0  0  0  0  0
    2.5170    0.5896    8.5481 C   0  0  0  0  0  0  0  0  0  0  0  0
    2.0546    1.8857    9.0429 C   0  0  0  0  0  0  0  0  0  0  0  0
    2.6541    2.4714   10.1407 C   0  0  0  0  0  0  0  0  0  0  0  0
    2.2338    3.6988   10.6213 C   0  0  0  0  0  0  0  0  0  0  0  0
    1.2029    4.3635   10.0082 C   0  0  0  0  0  0  0  0  0  0  0  0
    0.6017    3.7834    8.9132 C   0  0  0  0  0  0  0  0  0  0  0  0
    1.0358    2.5597    8.4514 C   0  0  0  0  0  0  0  0  0  0  0  0
    0.3354    2.0813    7.3236 O   0  0  0  0  0  0  0  0  0  0  0  0
    0.5821    2.6045    6.0744 C   0  0  0  0  0  0  0  0  0  0  0  0
    1.4417    3.5242    6.0081 O   0  0  0  0  0  0  0  0  0  0  0  0
   -0.1151    2.1296    4.8451 C   0  0  0  0  0  0  0  0  0  0  0  0
    0.7904    5.5436   10.4591 O   0  0  0  0  0  0  0  0  0  0  0  0
    1.3438    6.1113   11.4924 C   0  0  0  0  0  0  0  0  0  0  0  0
    2.3665    5.5051   12.1409 C   0  0  0  0  0  0  0  0  0  0  0  0
    2.8448    4.2743   11.7227 C   0  0  0  0  0  0  0  0  0  0  0  0
    3.7817    3.6912   12.2957 O   0  0  0  0  0  0  0  0  0  0  0  0
    3.0487    6.0585   13.3028 C   0  0  0  0  0  0  0  0  0  0  0  0
    2.8395    6.2945   14.4721 N   0  0  0  0  0  0  0  0  0  0  0  0
    3.6138    6.8103   15.3684 C   0  0  0  0  0  0  0  0  0  0  0  0
    4.8841    7.1426   14.9072 C   0  0  0  0  0  0  0  0  0  0  0  0
    4.8010    6.6534   13.1792 S   0  0  0  0  0  0  0  0  0  0  0  0
    3.1883    7.0453   16.8178 C   0  0  0  0  0  0  0  0  0  0  0  0
    0.8101    7.4332   11.9208 C   0  0  0  0  0  0  0  0  0  0  0  0
  1  2  1  0
  2  3  1  0
  3  4  1  0
  4  5  2  0
  5  6  1  0
  6  7  2  0
  7  8  1  0
  8  9  2  0
  9 10  1  0
 10 11  1  0
 11 12  2  0
 11 13  1  0
  7 14  1  0
 14 15  1  0
 15 16  2  0
 16 17  1  0
 17 18  2  0
 16 19  1  0
 19 20  2  0
 20 21  1  0
 21 22  2  0
 22 23  1  0
 21 24  1  0
 15 25  1  0
  9  4  1  0
 17  6  1  0
 23 19  1  0
M  END
$$$$
