
     RDKit          3D

 32 34  0  0  0  0  0  0  0  0999 V2000
    4.3327    2.8091   10.5489 C   0  0  0  0  0  0  0  0  0  0  0  0
    3.0868    3.6265   10.4986 C   0  0  0  0  0  0  0  0  0  0  0  0
    1.8906    2.8661   10.8872 N   0  0  0  0  0  0  0  0  0  0  0  0
    2.0210    1.9240   11.9601 C   0  0  0  0  0  0  0  0  0  0  0  0
    1.9092    2.4934   13.3174 C   0  0  0  0  0  0  0  0  0  0  0  0
    1.6960    3.8193   13.5856 C   0  0  0  0  0  0  0  0  0  0  0  0
    1.5870    4.2913   14.8600 N   0  0  0  0  0  0  0  0  0  0  0  0
    1.6824    3.4854   15.9323 C   0  0  0  0  0  0  0  0  0  0  0  0
    1.8983    2.1379   15.7066 C   0  0  0  0  0  0  0  0  0  0  0  0
    2.0106    1.6470   14.4118 C   0  0  0  0  0  0  0  0  0  0  0  0
    0.7066    3.1133   10.1894 C   0  0  0  0  0  0  0  0  0  0  0  0
   -0.3634    2.5822   10.5819 O   0  0  0  0  0  0  0  0  0  0  0  0
    0.6795    3.9690    9.0171 C   0  0  0  0  0  0  0  0  0  0  0  0
    0.7096    3.2988    7.7347 N   0  0  0  0  0  0  0  0  0  0  0  0
    0.6233    1.8887    7.7474 C   0  0  0  0  0  0  0  0  0  0  0  0
    1.8006    1.1834    8.0216 C   0  0  0  0  0  0  0  0  0  0  0  0
    1.8626   -0.1498    8.0867 N   0  0  0  0  0  0  0  0  0  0  0  0
    0.7469   -0.8600    7.8809 C   0  0  0  0  0  0  0  0  0  0  0  0
   -0.4421   -0.2189    7.6068 C   0  0  0  0  0  0  0  0  0  0  0  0
   -0.5076    1.1519    7.5392 C   0  0  0  0  0  0  0  0  0  0  0  0
    0.7351   -2.2654    7.9335 O   0  0  0  0  0  0  0  0  0  0  0  0
    1.9596   -2.9183    8.1854 C   0  0  0  0  0  0  0  0  0  0  0  0
    0.8447    4.1440    6.2580 S   0  0  0  0  0  6  0  0  0  0  0  0
    0.8266    3.1392    5.0934 O   0  0  0  0  0  0  0  0  0  0  0  0
    2.2182    4.7988    6.1919 O   0  0  0  0  0  0  0  0  0  0  0  0
   -0.3174    5.3677    5.9565 C   0  0  0  0  0  0  0  0  0  0  0  0
    0.0693    6.7059    6.1177 C   0  0  0  0  0  0  0  0  0  0  0  0
   -0.7943    7.7426    5.8785 C   0  0  0  0  0  0  0  0  0  0  0  0
   -2.0882    7.4815    5.4657 C   0  0  0  0  0  0  0  0  0  0  0  0
   -2.4747    6.1913    5.3063 C   0  0  0  0  0  0  0  0  0  0  0  0
   -1.5867    5.1406    5.5531 C   0  0  0  0  0  0  0  0  0  0  0  0
   -2.1310    3.7944    5.3644 C   0  0  0  0  0  0  0  0  0  0  0  0
  1  2  1  0
  2  3  1  0
  3  4  1  0
  4  5  1  0
  5  6  2  0
  6  7  1  0
  7  8  2  0
  8  9  1  0
  9 10  2  0
  3 11  1  0
 11 12  2  0
 11 13  1  0
 13 14  1  0
 14 15  1  0
 15 16  2  0
 16 17  1  0
 17 18  2  0
 18 19  1  0
 19 20  2  0
 18 21  1  0
 21 22  1  0
 14 23  1  0
 23 24  2  0
 23 25  2  0
 23 26  1  0
 26 27  2  0
 27 28  1  0
 28 29  2  0
 29 30  1  0
 30 31  2  0
 31 32  1  0
 10  5  1  0
 20 15  1  0
 31 26  1  0
M  END
$$$$
