
     RDKit          3D

 32 34  0  0  0  0  0  0  0  0999 V2000
   -0.2951    3.1886    6.9504 C   0  0  0  0  0  0  0  0  0  0  0  0
   -0.7499    3.6948    8.2770 C   0  0  0  0  0  0  0  0  0  0  0  0
    0.1873    4.6589    8.8706 N   0  0  0  0  0  0  0  0  0  0  0  0
    0.2820    5.9542    8.2634 C   0  0  0  0  0  0  0  0  0  0  0  0
   -0.9393    6.4213    7.5785 C   0  0  0  0  0  0  0  0  0  0  0  0
   -2.0976    5.6971    7.4815 C   0  0  0  0  0  0  0  0  0  0  0  0
   -3.2031    6.1821    6.8481 N   0  0  0  0  0  0  0  0  0  0  0  0
   -3.2254    7.4005    6.2791 C   0  0  0  0  0  0  0  0  0  0  0  0
   -2.0756    8.1657    6.3535 C   0  0  0  0  0  0  0  0  0  0  0  0
   -0.9439    7.6808    6.9968 C   0  0  0  0  0  0  0  0  0  0  0  0
    0.9201    4.2519    9.9873 C   0  0  0  0  0  0  0  0  0  0  0  0
    1.6229    5.0925   10.6042 O   0  0  0  0  0  0  0  0  0  0  0  0
    0.8932    2.8778   10.4549 C   0  0  0  0  0  0  0  0  0  0  0  0
    2.0240    2.0536   10.0854 N   0  0  0  0  0  0  0  0  0  0  0  0
    1.8230    1.1215    9.0429 C   0  0  0  0  0  0  0  0  0  0  0  0
    0.9008    0.0954    9.2783 C   0  0  0  0  0  0  0  0  0  0  0  0
    0.5956   -0.8422    8.3765 N   0  0  0  0  0  0  0  0  0  0  0  0
    1.1963   -0.8094    7.1808 C   0  0  0  0  0  0  0  0  0  0  0  0
    2.1134    0.1784    6.8927 C   0  0  0  0  0  0  0  0  0  0  0  0
    2.4287    1.1430    7.8190 C   0  0  0  0  0  0  0  0  0  0  0  0
    0.9255   -1.7620    6.1820 O   0  0  0  0  0  0  0  0  0  0  0  0
    0.0711   -2.8327    6.5171 C   0  0  0  0  0  0  0  0  0  0  0  0
    3.5423    2.1762   10.8553 S   0  0  0  0  0  6  0  0  0  0  0  0
    3.7347    3.6112   11.3750 O   0  0  0  0  0  0  0  0  0  0  0  0
    4.6369    1.9844    9.8139 O   0  0  0  0  0  0  0  0  0  0  0  0
    3.8553    1.0747   12.1310 C   0  0  0  0  0  0  0  0  0  0  0  0
    4.6172   -0.0686   11.8502 C   0  0  0  0  0  0  0  0  0  0  0  0
    4.9271   -0.9875   12.8184 C   0  0  0  0  0  0  0  0  0  0  0  0
    4.4846   -0.7994   14.1152 C   0  0  0  0  0  0  0  0  0  0  0  0
    3.7464    0.3023   14.3997 C   0  0  0  0  0  0  0  0  0  0  0  0
    3.4352    1.2338   13.4053 C   0  0  0  0  0  0  0  0  0  0  0  0
    2.6155    2.3684   13.8352 C   0  0  0  0  0  0  0  0  0  0  0  0
  1  2  1  0
  2  3  1  0
  3  4  1  0
  4  5  1  0
  5  6  2  0
  6  7  1  0
  7  8  2  0
  8  9  1  0
  9 10  2  0
  3 11  1  0
 11 12  2  0
 11 13  1  0
 13 14  1  0
 14 15  1  0
 15 16  2  0
 16 17  1  0
 17 18  2  0
 18 19  1  0
 19 20  2  0
 18 21  1  0
 21 22  1  0
 14 23  1  0
 23 24  2  0
 23 25  2  0
 23 26  1  0
 26 27  2  0
 27 28  1  0
 28 29  2  0
 29 30  1  0
 30 31  2  0
 31 32  1  0
 10  5  1  0
 20 15  1  0
 31 26  1  0
M  END
$$$$
