
     RDKit          3D

 32 34  0  0  0  0  0  0  0  0999 V2000
    2.3388    6.2841    7.3048 C   0  0  0  0  0  0  0  0  0  0  0  0
    2.5258    5.9346    8.7421 C   0  0  0  0  0  0  0  0  0  0  0  0
    1.3204    6.1744    9.5481 N   0  0  0  0  0  0  0  0  0  0  0  0
    0.8877    7.5317    9.7097 C   0  0  0  0  0  0  0  0  0  0  0  0
    1.2280    8.1529   11.0048 C   0  0  0  0  0  0  0  0  0  0  0  0
    1.9732    7.5479   11.9816 C   0  0  0  0  0  0  0  0  0  0  0  0
    2.2703    8.1729   13.1563 N   0  0  0  0  0  0  0  0  0  0  0  0
    1.8503    9.4209   13.4293 C   0  0  0  0  0  0  0  0  0  0  0  0
    1.0938   10.0689   12.4696 C   0  0  0  0  0  0  0  0  0  0  0  0
    0.7858    9.4410   11.2693 C   0  0  0  0  0  0  0  0  0  0  0  0
    0.6747    5.0660   10.0998 C   0  0  0  0  0  0  0  0  0  0  0  0
   -0.4192    5.2242   10.6993 O   0  0  0  0  0  0  0  0  0  0  0  0
    1.2368    3.7313   10.0005 C   0  0  0  0  0  0  0  0  0  0  0  0
    0.3556    2.7017    9.4927 N   0  0  0  0  0  0  0  0  0  0  0  0
    0.8415    1.3753    9.5149 C   0  0  0  0  0  0  0  0  0  0  0  0
    1.3025    0.8480    8.3032 C   0  0  0  0  0  0  0  0  0  0  0  0
    1.8079   -0.3828    8.1800 N   0  0  0  0  0  0  0  0  0  0  0  0
    1.8830   -1.1627    9.2652 C   0  0  0  0  0  0  0  0  0  0  0  0
    1.4440   -0.6963   10.4857 C   0  0  0  0  0  0  0  0  0  0  0  0
    0.9238    0.5689   10.6141 C   0  0  0  0  0  0  0  0  0  0  0  0
    2.4029   -2.4685    9.2126 O   0  0  0  0  0  0  0  0  0  0  0  0
    3.0003   -2.8839    8.0045 C   0  0  0  0  0  0  0  0  0  0  0  0
   -1.2031    3.0419    8.8861 S   0  0  0  0  0  6  0  0  0  0  0  0
   -1.8154    4.2072    9.6819 O   0  0  0  0  0  0  0  0  0  0  0  0
   -2.1101    1.8517    9.1700 O   0  0  0  0  0  0  0  0  0  0  0  0
   -1.3246    3.3860    7.2111 C   0  0  0  0  0  0  0  0  0  0  0  0
   -1.4826    4.7224    6.8168 C   0  0  0  0  0  0  0  0  0  0  0  0
   -1.5685    5.0822    5.4973 C   0  0  0  0  0  0  0  0  0  0  0  0
   -1.4996    4.1139    4.5122 C   0  0  0  0  0  0  0  0  0  0  0  0
   -1.3473    2.8175    4.8806 C   0  0  0  0  0  0  0  0  0  0  0  0
   -1.2609    2.4603    6.2290 C   0  0  0  0  0  0  0  0  0  0  0  0
   -1.1183    1.0277    6.4963 C   0  0  0  0  0  0  0  0  0  0  0  0
  1  2  1  0
  2  3  1  0
  3  4  1  0
  4  5  1  0
  5  6  2  0
  6  7  1  0
  7  8  2  0
  8  9  1  0
  9 10  2  0
  3 11  1  0
 11 12  2  0
 11 13  1  0
 13 14  1  0
 14 15  1  0
 15 16  2  0
 16 17  1  0
 17 18  2  0
 18 19  1  0
 19 20  2  0
 18 21  1  0
 21 22  1  0
 14 23  1  0
 23 24  2  0
 23 25  2  0
 23 26  1  0
 26 27  2  0
 27 28  1  0
 28 29  2  0
 29 30  1  0
 30 31  2  0
 31 32  1  0
 10  5  1  0
 20 15  1  0
 31 26  1  0
M  END
$$$$
