
     RDKit          3D

 32 34  0  0  0  0  0  0  0  0999 V2000
   -0.5211    7.3120    9.8812 C   0  0  0  0  0  0  0  0  0  0  0  0
    0.5147    6.2525    9.7146 C   0  0  0  0  0  0  0  0  0  0  0  0
    0.3192    5.4512    8.4981 N   0  0  0  0  0  0  0  0  0  0  0  0
    0.2653    6.1465    7.2454 C   0  0  0  0  0  0  0  0  0  0  0  0
   -0.9369    5.8852    6.4295 C   0  0  0  0  0  0  0  0  0  0  0  0
   -2.0105    5.1451    6.8478 C   0  0  0  0  0  0  0  0  0  0  0  0
   -3.1035    4.9455    6.0577 N   0  0  0  0  0  0  0  0  0  0  0  0
   -3.1954    5.4618    4.8193 C   0  0  0  0  0  0  0  0  0  0  0  0
   -2.1322    6.2160    4.3568 C   0  0  0  0  0  0  0  0  0  0  0  0
   -1.0141    6.4255    5.1542 C   0  0  0  0  0  0  0  0  0  0  0  0
    0.2027    4.0672    8.6417 C   0  0  0  0  0  0  0  0  0  0  0  0
   -0.2291    3.3812    7.6804 O   0  0  0  0  0  0  0  0  0  0  0  0
    0.5664    3.3977    9.8774 C   0  0  0  0  0  0  0  0  0  0  0  0
    1.7157    2.5202    9.8157 N   0  0  0  0  0  0  0  0  0  0  0  0
    1.6307    1.4151    8.9397 C   0  0  0  0  0  0  0  0  0  0  0  0
    0.9048    0.3052    9.3871 C   0  0  0  0  0  0  0  0  0  0  0  0
    0.7240   -0.7997    8.6577 N   0  0  0  0  0  0  0  0  0  0  0  0
    1.2600   -0.8609    7.4327 C   0  0  0  0  0  0  0  0  0  0  0  0
    1.9851    0.2024    6.9395 C   0  0  0  0  0  0  0  0  0  0  0  0
    2.1723    1.3392    7.6883 C   0  0  0  0  0  0  0  0  0  0  0  0
    1.1116   -1.9902    6.6076 O   0  0  0  0  0  0  0  0  0  0  0  0
    0.0141   -2.8400    6.8573 C   0  0  0  0  0  0  0  0  0  0  0  0
    3.1223    2.7799   10.7468 S   0  0  0  0  0  6  0  0  0  0  0  0
    2.9657    4.0805   11.5531 O   0  0  0  0  0  0  0  0  0  0  0  0
    4.2920    3.0382    9.8061 O   0  0  0  0  0  0  0  0  0  0  0  0
    3.5923    1.5189   11.8087 C   0  0  0  0  0  0  0  0  0  0  0  0
    3.1455    1.5672   13.1370 C   0  0  0  0  0  0  0  0  0  0  0  0
    3.4615    0.5887   14.0429 C   0  0  0  0  0  0  0  0  0  0  0  0
    4.2422   -0.4848   13.6547 C   0  0  0  0  0  0  0  0  0  0  0  0
    4.6811   -0.5431   12.3727 C   0  0  0  0  0  0  0  0  0  0  0  0
    4.3538    0.4599   11.4561 C   0  0  0  0  0  0  0  0  0  0  0  0
    4.9053    0.2917   10.1101 C   0  0  0  0  0  0  0  0  0  0  0  0
  1  2  1  0
  2  3  1  0
  3  4  1  0
  4  5  1  0
  5  6  2  0
  6  7  1  0
  7  8  2  0
  8  9  1  0
  9 10  2  0
  3 11  1  0
 11 12  2  0
 11 13  1  0
 13 14  1  0
 14 15  1  0
 15 16  2  0
 16 17  1  0
 17 18  2  0
 18 19  1  0
 19 20  2  0
 18 21  1  0
 21 22  1  0
 14 23  1  0
 23 24  2  0
 23 25  2  0
 23 26  1  0
 26 27  2  0
 27 28  1  0
 28 29  2  0
 29 30  1  0
 30 31  2  0
 31 32  1  0
 10  5  1  0
 20 15  1  0
 31 26  1  0
M  END
$$$$
