
     RDKit          3D

 32 34  0  0  0  0  0  0  0  0999 V2000
    1.4188    3.4713    6.0560 C   0  0  0  0  0  0  0  0  0  0  0  0
    0.4533    2.8342    6.9967 C   0  0  0  0  0  0  0  0  0  0  0  0
   -0.2144    3.8071    7.8730 N   0  0  0  0  0  0  0  0  0  0  0  0
   -1.5000    4.2949    7.4669 C   0  0  0  0  0  0  0  0  0  0  0  0
   -1.4777    5.3508    6.4355 C   0  0  0  0  0  0  0  0  0  0  0  0
   -0.3368    5.9081    5.9227 C   0  0  0  0  0  0  0  0  0  0  0  0
   -0.3723    6.8726    4.9598 N   0  0  0  0  0  0  0  0  0  0  0  0
   -1.5288    7.3370    4.4542 C   0  0  0  0  0  0  0  0  0  0  0  0
   -2.7059    6.8014    4.9449 C   0  0  0  0  0  0  0  0  0  0  0  0
   -2.6804    5.8181    5.9259 C   0  0  0  0  0  0  0  0  0  0  0  0
    0.4444    4.1891    9.0434 C   0  0  0  0  0  0  0  0  0  0  0  0
   -0.0516    5.0921    9.7642 O   0  0  0  0  0  0  0  0  0  0  0  0
    1.6929    3.5698    9.4497 C   0  0  0  0  0  0  0  0  0  0  0  0
    1.5822    2.4059   10.3028 N   0  0  0  0  0  0  0  0  0  0  0  0
    1.0793    1.2252    9.7122 C   0  0  0  0  0  0  0  0  0  0  0  0
    1.9222    0.5537    8.8193 C   0  0  0  0  0  0  0  0  0  0  0  0
    1.5873   -0.5842    8.2039 N   0  0  0  0  0  0  0  0  0  0  0  0
    0.3852   -1.1207    8.4459 C   0  0  0  0  0  0  0  0  0  0  0  0
   -0.4869   -0.5033    9.3165 C   0  0  0  0  0  0  0  0  0  0  0  0
   -0.1443    0.6670    9.9498 C   0  0  0  0  0  0  0  0  0  0  0  0
   -0.0365   -2.3157    7.8356 O   0  0  0  0  0  0  0  0  0  0  0  0
    0.8335   -2.9114    6.8990 C   0  0  0  0  0  0  0  0  0  0  0  0
    2.0278    2.4271   11.9502 S   0  0  0  0  0  6  0  0  0  0  0  0
    0.8086    2.0561   12.8118 O   0  0  0  0  0  0  0  0  0  0  0  0
    2.3699    3.8572   12.3471 O   0  0  0  0  0  0  0  0  0  0  0  0
    3.3539    1.4414   12.4070 C   0  0  0  0  0  0  0  0  0  0  0  0
    3.1063    0.3340   13.2310 C   0  0  0  0  0  0  0  0  0  0  0  0
    4.1085   -0.5133   13.6250 C   0  0  0  0  0  0  0  0  0  0  0  0
    5.4076   -0.2863   13.2083 C   0  0  0  0  0  0  0  0  0  0  0  0
    5.6603    0.7816   12.4113 C   0  0  0  0  0  0  0  0  0  0  0  0
    4.6314    1.6405   12.0150 C   0  0  0  0  0  0  0  0  0  0  0  0
    5.0368    2.7672   11.1721 C   0  0  0  0  0  0  0  0  0  0  0  0
  1  2  1  0
  2  3  1  0
  3  4  1  0
  4  5  1  0
  5  6  2  0
  6  7  1  0
  7  8  2  0
  8  9  1  0
  9 10  2  0
  3 11  1  0
 11 12  2  0
 11 13  1  0
 13 14  1  0
 14 15  1  0
 15 16  2  0
 16 17  1  0
 17 18  2  0
 18 19  1  0
 19 20  2  0
 18 21  1  0
 21 22  1  0
 14 23  1  0
 23 24  2  0
 23 25  2  0
 23 26  1  0
 26 27  2  0
 27 28  1  0
 28 29  2  0
 29 30  1  0
 30 31  2  0
 31 32  1  0
 10  5  1  0
 20 15  1  0
 31 26  1  0
M  END
$$$$
