
     RDKit          3D

 32 34  0  0  0  0  0  0  0  0999 V2000
    0.4576    4.3425   13.2997 C   0  0  0  0  0  0  0  0  0  0  0  0
    1.1671    4.6330   12.0210 C   0  0  0  0  0  0  0  0  0  0  0  0
    2.0176    3.5201   11.5758 N   0  0  0  0  0  0  0  0  0  0  0  0
    3.2407    3.2917   12.2881 C   0  0  0  0  0  0  0  0  0  0  0  0
    3.2793    2.0577   13.0972 C   0  0  0  0  0  0  0  0  0  0  0  0
    2.2904    1.1105   13.1121 C   0  0  0  0  0  0  0  0  0  0  0  0
    2.3825   -0.0198   13.8688 N   0  0  0  0  0  0  0  0  0  0  0  0
    3.4488   -0.2748   14.6476 C   0  0  0  0  0  0  0  0  0  0  0  0
    4.4712    0.6566   14.6628 C   0  0  0  0  0  0  0  0  0  0  0  0
    4.3871    1.8114   13.8951 C   0  0  0  0  0  0  0  0  0  0  0  0
    1.5774    2.7571   10.4923 C   0  0  0  0  0  0  0  0  0  0  0  0
    2.1785    1.6911   10.2034 O   0  0  0  0  0  0  0  0  0  0  0  0
    0.4409    3.1655    9.6866 C   0  0  0  0  0  0  0  0  0  0  0  0
    0.5230    2.8761    8.2710 N   0  0  0  0  0  0  0  0  0  0  0  0
    0.3770    1.5251    7.8845 C   0  0  0  0  0  0  0  0  0  0  0  0
    1.5515    0.7833    7.7143 C   0  0  0  0  0  0  0  0  0  0  0  0
    1.5641   -0.5082    7.3717 N   0  0  0  0  0  0  0  0  0  0  0  0
    0.3988   -1.1375    7.1785 C   0  0  0  0  0  0  0  0  0  0  0  0
   -0.7901   -0.4573    7.3322 C   0  0  0  0  0  0  0  0  0  0  0  0
   -0.8050    0.8708    7.6840 C   0  0  0  0  0  0  0  0  0  0  0  0
    0.3335   -2.4952    6.8169 O   0  0  0  0  0  0  0  0  0  0  0  0
    1.3828   -3.0106    6.0280 C   0  0  0  0  0  0  0  0  0  0  0  0
    0.7853    4.0879    7.0981 S   0  0  0  0  0  6  0  0  0  0  0  0
    1.2835    3.4367    5.7965 O   0  0  0  0  0  0  0  0  0  0  0  0
    1.9339    4.9757    7.5589 O   0  0  0  0  0  0  0  0  0  0  0  0
   -0.5382    5.1154    6.7361 C   0  0  0  0  0  0  0  0  0  0  0  0
   -0.5398    6.4113    7.2721 C   0  0  0  0  0  0  0  0  0  0  0  0
   -1.5511    7.2995    7.0150 C   0  0  0  0  0  0  0  0  0  0  0  0
   -2.6089    6.9256    6.2063 C   0  0  0  0  0  0  0  0  0  0  0  0
   -2.6193    5.6748    5.6819 C   0  0  0  0  0  0  0  0  0  0  0  0
   -1.5834    4.7758    5.9501 C   0  0  0  0  0  0  0  0  0  0  0  0
   -1.7218    3.4510    5.3418 C   0  0  0  0  0  0  0  0  0  0  0  0
  1  2  1  0
  2  3  1  0
  3  4  1  0
  4  5  1  0
  5  6  2  0
  6  7  1  0
  7  8  2  0
  8  9  1  0
  9 10  2  0
  3 11  1  0
 11 12  2  0
 11 13  1  0
 13 14  1  0
 14 15  1  0
 15 16  2  0
 16 17  1  0
 17 18  2  0
 18 19  1  0
 19 20  2  0
 18 21  1  0
 21 22  1  0
 14 23  1  0
 23 24  2  0
 23 25  2  0
 23 26  1  0
 26 27  2  0
 27 28  1  0
 28 29  2  0
 29 30  1  0
 30 31  2  0
 31 32  1  0
 10  5  1  0
 20 15  1  0
 31 26  1  0
M  END
$$$$
