
     RDKit          3D

 32 34  0  0  0  0  0  0  0  0999 V2000
    1.0205    4.7456    5.3407 C   0  0  0  0  0  0  0  0  0  0  0  0
    1.4317    4.2183    6.6733 C   0  0  0  0  0  0  0  0  0  0  0  0
    0.5956    4.7271    7.7698 N   0  0  0  0  0  0  0  0  0  0  0  0
    0.2906    6.1279    7.7786 C   0  0  0  0  0  0  0  0  0  0  0  0
   -0.9692    6.5040    7.1074 C   0  0  0  0  0  0  0  0  0  0  0  0
   -1.9001    5.6093    6.6509 C   0  0  0  0  0  0  0  0  0  0  0  0
   -3.0555    6.0113    6.0489 N   0  0  0  0  0  0  0  0  0  0  0  0
   -3.3528    7.3099    5.8655 C   0  0  0  0  0  0  0  0  0  0  0  0
   -2.4391    8.2477    6.3115 C   0  0  0  0  0  0  0  0  0  0  0  0
   -1.2591    7.8485    6.9264 C   0  0  0  0  0  0  0  0  0  0  0  0
    0.1511    3.8134    8.7277 C   0  0  0  0  0  0  0  0  0  0  0  0
   -0.4023    4.2367    9.7744 O   0  0  0  0  0  0  0  0  0  0  0  0
    0.3139    2.3823    8.5465 C   0  0  0  0  0  0  0  0  0  0  0  0
    1.0701    1.6897    9.5678 N   0  0  0  0  0  0  0  0  0  0  0  0
    1.1117    0.2798    9.4875 C   0  0  0  0  0  0  0  0  0  0  0  0
    2.2009   -0.2855    8.8147 C   0  0  0  0  0  0  0  0  0  0  0  0
    2.3808   -1.6028    8.6800 N   0  0  0  0  0  0  0  0  0  0  0  0
    1.4790   -2.4364    9.2123 C   0  0  0  0  0  0  0  0  0  0  0  0
    0.3858   -1.9363    9.8864 C   0  0  0  0  0  0  0  0  0  0  0  0
    0.1991   -0.5822   10.0255 C   0  0  0  0  0  0  0  0  0  0  0  0
    1.6018   -3.8339    9.1110 O   0  0  0  0  0  0  0  0  0  0  0  0
    2.3929   -4.3441    8.0608 C   0  0  0  0  0  0  0  0  0  0  0  0
    1.8829    2.5090   10.8252 S   0  0  0  0  0  6  0  0  0  0  0  0
    0.8550    3.0072   11.8554 O   0  0  0  0  0  0  0  0  0  0  0  0
    2.5160    3.7727   10.2578 O   0  0  0  0  0  0  0  0  0  0  0  0
    3.1172    1.6444   11.6423 C   0  0  0  0  0  0  0  0  0  0  0  0
    2.7886    0.9853   12.8357 C   0  0  0  0  0  0  0  0  0  0  0  0
    3.7129    0.2576   13.5386 C   0  0  0  0  0  0  0  0  0  0  0  0
    5.0117    0.1589   13.0738 C   0  0  0  0  0  0  0  0  0  0  0  0
    5.3423    0.7922   11.9208 C   0  0  0  0  0  0  0  0  0  0  0  0
    4.3927    1.5323   11.2111 C   0  0  0  0  0  0  0  0  0  0  0  0
    4.8793    2.1844    9.9937 C   0  0  0  0  0  0  0  0  0  0  0  0
  1  2  1  0
  2  3  1  0
  3  4  1  0
  4  5  1  0
  5  6  2  0
  6  7  1  0
  7  8  2  0
  8  9  1  0
  9 10  2  0
  3 11  1  0
 11 12  2  0
 11 13  1  0
 13 14  1  0
 14 15  1  0
 15 16  2  0
 16 17  1  0
 17 18  2  0
 18 19  1  0
 19 20  2  0
 18 21  1  0
 21 22  1  0
 14 23  1  0
 23 24  2  0
 23 25  2  0
 23 26  1  0
 26 27  2  0
 27 28  1  0
 28 29  2  0
 29 30  1  0
 30 31  2  0
 31 32  1  0
 10  5  1  0
 20 15  1  0
 31 26  1  0
M  END
$$$$
