
     RDKit          3D

 32 34  0  0  0  0  0  0  0  0999 V2000
    1.5793    7.7080    9.4943 C   0  0  0  0  0  0  0  0  0  0  0  0
    1.2914    6.4335    8.7762 C   0  0  0  0  0  0  0  0  0  0  0  0
    0.0038    5.8398    9.1634 N   0  0  0  0  0  0  0  0  0  0  0  0
   -1.1751    6.3203    8.5038 C   0  0  0  0  0  0  0  0  0  0  0  0
   -1.4893    5.6676    7.2176 C   0  0  0  0  0  0  0  0  0  0  0  0
   -0.9068    4.5103    6.7741 C   0  0  0  0  0  0  0  0  0  0  0  0
   -1.2440    3.9414    5.5818 N   0  0  0  0  0  0  0  0  0  0  0  0
   -2.1683    4.4808    4.7674 C   0  0  0  0  0  0  0  0  0  0  0  0
   -2.7815    5.6510    5.1769 C   0  0  0  0  0  0  0  0  0  0  0  0
   -2.4452    6.2385    6.3900 C   0  0  0  0  0  0  0  0  0  0  0  0
    0.0136    4.8459   10.1441 C   0  0  0  0  0  0  0  0  0  0  0  0
   -1.0476    4.2224   10.4015 O   0  0  0  0  0  0  0  0  0  0  0  0
    1.2211    4.5142   10.8785 C   0  0  0  0  0  0  0  0  0  0  0  0
    1.7541    3.1854   10.6672 N   0  0  0  0  0  0  0  0  0  0  0  0
    1.9706    2.3927   11.8165 C   0  0  0  0  0  0  0  0  0  0  0  0
    0.8891    1.6325   12.2760 C   0  0  0  0  0  0  0  0  0  0  0  0
    0.9555    0.8227   13.3368 N   0  0  0  0  0  0  0  0  0  0  0  0
    2.1118    0.7240   14.0037 C   0  0  0  0  0  0  0  0  0  0  0  0
    3.2109    1.4493   13.5966 C   0  0  0  0  0  0  0  0  0  0  0  0
    3.1442    2.2828   12.5063 C   0  0  0  0  0  0  0  0  0  0  0  0
    2.2571   -0.1076   15.1287 O   0  0  0  0  0  0  0  0  0  0  0  0
    1.1065   -0.7734   15.5998 C   0  0  0  0  0  0  0  0  0  0  0  0
    2.1167    2.5757    9.1149 S   0  0  0  0  0  6  0  0  0  0  0  0
    2.9172    3.6283    8.3292 O   0  0  0  0  0  0  0  0  0  0  0  0
    0.8173    2.4085    8.3381 O   0  0  0  0  0  0  0  0  0  0  0  0
    2.9472    1.0776    9.0454 C   0  0  0  0  0  0  0  0  0  0  0  0
    4.3493    1.0945    9.0393 C   0  0  0  0  0  0  0  0  0  0  0  0
    5.0869   -0.0599    9.0040 C   0  0  0  0  0  0  0  0  0  0  0  0
    4.4480   -1.2862    8.9733 C   0  0  0  0  0  0  0  0  0  0  0  0
    3.0920   -1.3161    8.9785 C   0  0  0  0  0  0  0  0  0  0  0  0
    2.3485   -0.1333    9.0142 C   0  0  0  0  0  0  0  0  0  0  0  0
    0.8937   -0.2993    8.9955 C   0  0  0  0  0  0  0  0  0  0  0  0
  1  2  1  0
  2  3  1  0
  3  4  1  0
  4  5  1  0
  5  6  2  0
  6  7  1  0
  7  8  2  0
  8  9  1  0
  9 10  2  0
  3 11  1  0
 11 12  2  0
 11 13  1  0
 13 14  1  0
 14 15  1  0
 15 16  2  0
 16 17  1  0
 17 18  2  0
 18 19  1  0
 19 20  2  0
 18 21  1  0
 21 22  1  0
 14 23  1  0
 23 24  2  0
 23 25  2  0
 23 26  1  0
 26 27  2  0
 27 28  1  0
 28 29  2  0
 29 30  1  0
 30 31  2  0
 31 32  1  0
 10  5  1  0
 20 15  1  0
 31 26  1  0
M  END
$$$$
