
     RDKit          3D

 32 34  0  0  0  0  0  0  0  0999 V2000
    1.9580    3.2727    5.5632 C   0  0  0  0  0  0  0  0  0  0  0  0
    1.0181    3.2999    6.7202 C   0  0  0  0  0  0  0  0  0  0  0  0
    1.3801    4.3100    7.7246 N   0  0  0  0  0  0  0  0  0  0  0  0
    1.1974    5.6888    7.3767 C   0  0  0  0  0  0  0  0  0  0  0  0
   -0.1850    6.1924    7.4967 C   0  0  0  0  0  0  0  0  0  0  0  0
   -1.3019    5.4768    7.1566 C   0  0  0  0  0  0  0  0  0  0  0  0
   -2.5586    5.9855    7.3002 N   0  0  0  0  0  0  0  0  0  0  0  0
   -2.7799    7.2207    7.7837 C   0  0  0  0  0  0  0  0  0  0  0  0
   -1.6788    7.9786    8.1392 C   0  0  0  0  0  0  0  0  0  0  0  0
   -0.3941    7.4693    7.9970 C   0  0  0  0  0  0  0  0  0  0  0  0
    1.8741    3.8611    8.9511 C   0  0  0  0  0  0  0  0  0  0  0  0
    1.7186    4.5719    9.9765 O   0  0  0  0  0  0  0  0  0  0  0  0
    2.5671    2.5912    9.0727 C   0  0  0  0  0  0  0  0  0  0  0  0
    1.8360    1.5224    9.7191 N   0  0  0  0  0  0  0  0  0  0  0  0
    1.2504    0.5488    8.8794 C   0  0  0  0  0  0  0  0  0  0  0  0
   -0.1466    0.5402    8.7961 C   0  0  0  0  0  0  0  0  0  0  0  0
   -0.8337   -0.3092    8.0267 N   0  0  0  0  0  0  0  0  0  0  0  0
   -0.1622   -1.2039    7.2917 C   0  0  0  0  0  0  0  0  0  0  0  0
    1.2149   -1.2419    7.3337 C   0  0  0  0  0  0  0  0  0  0  0  0
    1.9229   -0.3695    8.1246 C   0  0  0  0  0  0  0  0  0  0  0  0
   -0.8169   -2.1290    6.4586 O   0  0  0  0  0  0  0  0  0  0  0  0
   -2.1135   -1.7998    6.0119 C   0  0  0  0  0  0  0  0  0  0  0  0
    1.6690    1.4163   11.4143 S   0  0  0  0  0  6  0  0  0  0  0  0
    0.5963    0.3677   11.7550 O   0  0  0  0  0  0  0  0  0  0  0  0
    1.1109    2.7341   11.9354 O   0  0  0  0  0  0  0  0  0  0  0  0
    3.0882    1.0741   12.3128 C   0  0  0  0  0  0  0  0  0  0  0  0
    3.6732   -0.1929   12.1747 C   0  0  0  0  0  0  0  0  0  0  0  0
    4.8183   -0.5381   12.8435 C   0  0  0  0  0  0  0  0  0  0  0  0
    5.4290    0.3755   13.6832 C   0  0  0  0  0  0  0  0  0  0  0  0
    4.8729    1.6044   13.8257 C   0  0  0  0  0  0  0  0  0  0  0  0
    3.7046    1.9471   13.1395 C   0  0  0  0  0  0  0  0  0  0  0  0
    3.1936    3.2955   13.3940 C   0  0  0  0  0  0  0  0  0  0  0  0
  1  2  1  0
  2  3  1  0
  3  4  1  0
  4  5  1  0
  5  6  2  0
  6  7  1  0
  7  8  2  0
  8  9  1  0
  9 10  2  0
  3 11  1  0
 11 12  2  0
 11 13  1  0
 13 14  1  0
 14 15  1  0
 15 16  2  0
 16 17  1  0
 17 18  2  0
 18 19  1  0
 19 20  2  0
 18 21  1  0
 21 22  1  0
 14 23  1  0
 23 24  2  0
 23 25  2  0
 23 26  1  0
 26 27  2  0
 27 28  1  0
 28 29  2  0
 29 30  1  0
 30 31  2  0
 31 32  1  0
 10  5  1  0
 20 15  1  0
 31 26  1  0
M  END
$$$$
