
     RDKit          3D

 32 34  0  0  0  0  0  0  0  0999 V2000
    2.5651    5.8994    7.4958 C   0  0  0  0  0  0  0  0  0  0  0  0
    2.2281    5.3643    8.8460 C   0  0  0  0  0  0  0  0  0  0  0  0
    0.7797    5.2485    9.0675 N   0  0  0  0  0  0  0  0  0  0  0  0
   -0.0693    6.2134    8.4323 C   0  0  0  0  0  0  0  0  0  0  0  0
   -0.6478    5.7925    7.1410 C   0  0  0  0  0  0  0  0  0  0  0  0
   -1.9187    5.3075    6.9835 C   0  0  0  0  0  0  0  0  0  0  0  0
   -2.4087    4.9451    5.7640 N   0  0  0  0  0  0  0  0  0  0  0  0
   -1.6754    5.0404    4.6407 C   0  0  0  0  0  0  0  0  0  0  0  0
   -0.3850    5.5252    4.7548 C   0  0  0  0  0  0  0  0  0  0  0  0
    0.1236    5.8975    5.9928 C   0  0  0  0  0  0  0  0  0  0  0  0
    0.3262    4.2058    9.8780 C   0  0  0  0  0  0  0  0  0  0  0  0
   -0.9036    3.9472    9.9205 O   0  0  0  0  0  0  0  0  0  0  0  0
    1.2410    3.4112   10.6775 C   0  0  0  0  0  0  0  0  0  0  0  0
    1.2747    1.9929   10.3915 N   0  0  0  0  0  0  0  0  0  0  0  0
    0.7130    1.5740    9.1647 C   0  0  0  0  0  0  0  0  0  0  0  0
   -0.5964    1.0814    9.2017 C   0  0  0  0  0  0  0  0  0  0  0  0
   -1.2600    0.6702    8.1172 N   0  0  0  0  0  0  0  0  0  0  0  0
   -0.6516    0.7276    6.9264 C   0  0  0  0  0  0  0  0  0  0  0  0
    0.6381    1.2040    6.8292 C   0  0  0  0  0  0  0  0  0  0  0  0
    1.3220    1.6269    7.9434 C   0  0  0  0  0  0  0  0  0  0  0  0
   -1.2866    0.3129    5.7419 O   0  0  0  0  0  0  0  0  0  0  0  0
   -2.4367   -0.4937    5.8671 C   0  0  0  0  0  0  0  0  0  0  0  0
    1.9523    0.8535   11.4664 S   0  0  0  0  0  6  0  0  0  0  0  0
    1.5564   -0.5645   11.0207 O   0  0  0  0  0  0  0  0  0  0  0  0
    1.3099    1.0295   12.8362 O   0  0  0  0  0  0  0  0  0  0  0  0
    3.6509    0.9137   11.6897 C   0  0  0  0  0  0  0  0  0  0  0  0
    4.4721    0.3648   10.6943 C   0  0  0  0  0  0  0  0  0  0  0  0
    5.8390    0.3898   10.7887 C   0  0  0  0  0  0  0  0  0  0  0  0
    6.4442    0.9684   11.8895 C   0  0  0  0  0  0  0  0  0  0  0  0
    5.6609    1.5025   12.8595 C   0  0  0  0  0  0  0  0  0  0  0  0
    4.2676    1.4719   12.7544 C   0  0  0  0  0  0  0  0  0  0  0  0
    3.5352    2.0630   13.8762 C   0  0  0  0  0  0  0  0  0  0  0  0
  1  2  1  0
  2  3  1  0
  3  4  1  0
  4  5  1  0
  5  6  2  0
  6  7  1  0
  7  8  2  0
  8  9  1  0
  9 10  2  0
  3 11  1  0
 11 12  2  0
 11 13  1  0
 13 14  1  0
 14 15  1  0
 15 16  2  0
 16 17  1  0
 17 18  2  0
 18 19  1  0
 19 20  2  0
 18 21  1  0
 21 22  1  0
 14 23  1  0
 23 24  2  0
 23 25  2  0
 23 26  1  0
 26 27  2  0
 27 28  1  0
 28 29  2  0
 29 30  1  0
 30 31  2  0
 31 32  1  0
 10  5  1  0
 20 15  1  0
 31 26  1  0
M  END
$$$$
