
     RDKit          3D

 32 34  0  0  0  0  0  0  0  0999 V2000
    2.0013    5.8163    7.5806 C   0  0  0  0  0  0  0  0  0  0  0  0
    0.8854    6.4869    8.3072 C   0  0  0  0  0  0  0  0  0  0  0  0
   -0.1565    5.5467    8.7438 N   0  0  0  0  0  0  0  0  0  0  0  0
   -1.4967    5.7829    8.2927 C   0  0  0  0  0  0  0  0  0  0  0  0
   -1.7273    5.5562    6.8524 C   0  0  0  0  0  0  0  0  0  0  0  0
   -0.7325    5.4096    5.9228 C   0  0  0  0  0  0  0  0  0  0  0  0
   -1.0010    5.1882    4.6046 N   0  0  0  0  0  0  0  0  0  0  0  0
   -2.2581    5.1006    4.1351 C   0  0  0  0  0  0  0  0  0  0  0  0
   -3.2939    5.2435    5.0406 C   0  0  0  0  0  0  0  0  0  0  0  0
   -3.0309    5.4690    6.3860 C   0  0  0  0  0  0  0  0  0  0  0  0
    0.2274    4.4847    9.5652 C   0  0  0  0  0  0  0  0  0  0  0  0
   -0.5479    3.5056    9.7108 O   0  0  0  0  0  0  0  0  0  0  0  0
    1.5023    4.4829   10.2595 C   0  0  0  0  0  0  0  0  0  0  0  0
    1.7684    3.3397   11.1062 N   0  0  0  0  0  0  0  0  0  0  0  0
    0.7981    3.0286   12.0848 C   0  0  0  0  0  0  0  0  0  0  0  0
    0.4612    4.0422   12.9890 C   0  0  0  0  0  0  0  0  0  0  0  0
   -0.4537    3.8964   13.9520 N   0  0  0  0  0  0  0  0  0  0  0  0
   -1.0888    2.7240   14.0685 C   0  0  0  0  0  0  0  0  0  0  0  0
   -0.7980    1.6894   13.2056 C   0  0  0  0  0  0  0  0  0  0  0  0
    0.1427    1.8374   12.2151 C   0  0  0  0  0  0  0  0  0  0  0  0
   -2.0634    2.4970   15.0570 O   0  0  0  0  0  0  0  0  0  0  0  0
   -2.8219    3.6040   15.4907 C   0  0  0  0  0  0  0  0  0  0  0  0
    3.1804    2.3926   10.9562 S   0  0  0  0  0  6  0  0  0  0  0  0
    4.3426    3.0940   11.6797 O   0  0  0  0  0  0  0  0  0  0  0  0
    3.5931    2.3568    9.4906 O   0  0  0  0  0  0  0  0  0  0  0  0
    3.0854    0.7689   11.4978 C   0  0  0  0  0  0  0  0  0  0  0  0
    3.3459    0.5027   12.8497 C   0  0  0  0  0  0  0  0  0  0  0  0
    3.2725   -0.7649   13.3649 C   0  0  0  0  0  0  0  0  0  0  0  0
    2.9334   -1.8249   12.5438 C   0  0  0  0  0  0  0  0  0  0  0  0
    2.6794   -1.5807   11.2340 C   0  0  0  0  0  0  0  0  0  0  0  0
    2.7571   -0.2843   10.7177 C   0  0  0  0  0  0  0  0  0  0  0  0
    2.4801   -0.1558    9.2856 C   0  0  0  0  0  0  0  0  0  0  0  0
  1  2  1  0
  2  3  1  0
  3  4  1  0
  4  5  1  0
  5  6  2  0
  6  7  1  0
  7  8  2  0
  8  9  1  0
  9 10  2  0
  3 11  1  0
 11 12  2  0
 11 13  1  0
 13 14  1  0
 14 15  1  0
 15 16  2  0
 16 17  1  0
 17 18  2  0
 18 19  1  0
 19 20  2  0
 18 21  1  0
 21 22  1  0
 14 23  1  0
 23 24  2  0
 23 25  2  0
 23 26  1  0
 26 27  2  0
 27 28  1  0
 28 29  2  0
 29 30  1  0
 30 31  2  0
 31 32  1  0
 10  5  1  0
 20 15  1  0
 31 26  1  0
M  END
$$$$
