
     RDKit          3D

 32 34  0  0  0  0  0  0  0  0999 V2000
    0.0714   -0.3247    7.7751 C   0  0  0  0  0  0  0  0  0  0  0  0
    0.3183    0.2602    9.1242 C   0  0  0  0  0  0  0  0  0  0  0  0
    1.6340    0.9061    9.2328 N   0  0  0  0  0  0  0  0  0  0  0  0
    2.7881    0.0578    9.2965 C   0  0  0  0  0  0  0  0  0  0  0  0
    3.5117    0.0718   10.5830 C   0  0  0  0  0  0  0  0  0  0  0  0
    3.1790    0.8633   11.6499 C   0  0  0  0  0  0  0  0  0  0  0  0
    3.8741    0.8271   12.8221 N   0  0  0  0  0  0  0  0  0  0  0  0
    4.9291    0.0132   13.0040 C   0  0  0  0  0  0  0  0  0  0  0  0
    5.2999   -0.8034   11.9510 C   0  0  0  0  0  0  0  0  0  0  0  0
    4.5980   -0.7743   10.7524 C   0  0  0  0  0  0  0  0  0  0  0  0
    1.6739    2.3016    9.2633 C   0  0  0  0  0  0  0  0  0  0  0  0
    2.7819    2.8894    9.1748 O   0  0  0  0  0  0  0  0  0  0  0  0
    0.4649    3.0940    9.3971 C   0  0  0  0  0  0  0  0  0  0  0  0
    0.4318    4.3403    8.6622 N   0  0  0  0  0  0  0  0  0  0  0  0
   -0.3522    4.3697    7.4873 C   0  0  0  0  0  0  0  0  0  0  0  0
    0.3261    4.2536    6.2687 C   0  0  0  0  0  0  0  0  0  0  0  0
   -0.2875    4.2447    5.0817 N   0  0  0  0  0  0  0  0  0  0  0  0
   -1.6211    4.3514    5.0423 C   0  0  0  0  0  0  0  0  0  0  0  0
   -2.3420    4.4684    6.2112 C   0  0  0  0  0  0  0  0  0  0  0  0
   -1.7126    4.4781    7.4326 C   0  0  0  0  0  0  0  0  0  0  0  0
   -2.3355    4.3493    3.8308 O   0  0  0  0  0  0  0  0  0  0  0  0
   -1.9188    3.4470    2.8301 C   0  0  0  0  0  0  0  0  0  0  0  0
    1.2906    5.7272    9.1640 S   0  0  0  0  0  6  0  0  0  0  0  0
    1.2285    6.7925    8.0561 O   0  0  0  0  0  0  0  0  0  0  0  0
    2.7667    5.3721    9.2865 O   0  0  0  0  0  0  0  0  0  0  0  0
    0.8138    6.4388   10.6489 C   0  0  0  0  0  0  0  0  0  0  0  0
    1.2319    5.8314   11.8417 C   0  0  0  0  0  0  0  0  0  0  0  0
    0.9088    6.3484   13.0690 C   0  0  0  0  0  0  0  0  0  0  0  0
    0.1495    7.5012   13.1539 C   0  0  0  0  0  0  0  0  0  0  0  0
   -0.2614    8.0982   12.0075 C   0  0  0  0  0  0  0  0  0  0  0  0
    0.0729    7.5632   10.7604 C   0  0  0  0  0  0  0  0  0  0  0  0
   -0.4480    8.2889    9.6001 C   0  0  0  0  0  0  0  0  0  0  0  0
  1  2  1  0
  2  3  1  0
  3  4  1  0
  4  5  1  0
  5  6  2  0
  6  7  1  0
  7  8  2  0
  8  9  1  0
  9 10  2  0
  3 11  1  0
 11 12  2  0
 11 13  1  0
 13 14  1  0
 14 15  1  0
 15 16  2  0
 16 17  1  0
 17 18  2  0
 18 19  1  0
 19 20  2  0
 18 21  1  0
 21 22  1  0
 14 23  1  0
 23 24  2  0
 23 25  2  0
 23 26  1  0
 26 27  2  0
 27 28  1  0
 28 29  2  0
 29 30  1  0
 30 31  2  0
 31 32  1  0
 10  5  1  0
 20 15  1  0
 31 26  1  0
M  END
$$$$
