
     RDKit          3D

 32 34  0  0  0  0  0  0  0  0999 V2000
    1.8714    6.6129    7.5860 C   0  0  0  0  0  0  0  0  0  0  0  0
    1.3315    6.3285    8.9463 C   0  0  0  0  0  0  0  0  0  0  0  0
    0.1087    5.5136    8.9150 N   0  0  0  0  0  0  0  0  0  0  0  0
   -1.0198    6.0352    8.2009 C   0  0  0  0  0  0  0  0  0  0  0  0
   -1.1815    5.5333    6.8221 C   0  0  0  0  0  0  0  0  0  0  0  0
   -0.5489    4.4264    6.3220 C   0  0  0  0  0  0  0  0  0  0  0  0
   -0.7444    3.9976    5.0427 N   0  0  0  0  0  0  0  0  0  0  0  0
   -1.5693    4.6343    4.1926 C   0  0  0  0  0  0  0  0  0  0  0  0
   -2.2285    5.7581    4.6570 C   0  0  0  0  0  0  0  0  0  0  0  0
   -2.0363    6.2031    5.9589 C   0  0  0  0  0  0  0  0  0  0  0  0
    0.1275    4.2852    9.5787 C   0  0  0  0  0  0  0  0  0  0  0  0
   -0.7453    3.4225    9.3050 O   0  0  0  0  0  0  0  0  0  0  0  0
    1.1311    3.9783   10.5817 C   0  0  0  0  0  0  0  0  0  0  0  0
    2.0015    2.8583   10.2945 N   0  0  0  0  0  0  0  0  0  0  0  0
    1.3825    1.6534    9.8932 C   0  0  0  0  0  0  0  0  0  0  0  0
    0.8070    0.8698   10.8999 C   0  0  0  0  0  0  0  0  0  0  0  0
    0.1711   -0.2817   10.6645 N   0  0  0  0  0  0  0  0  0  0  0  0
    0.0721   -0.7197    9.4036 C   0  0  0  0  0  0  0  0  0  0  0  0
    0.6199    0.0106    8.3710 C   0  0  0  0  0  0  0  0  0  0  0  0
    1.2744    1.1946    8.6113 C   0  0  0  0  0  0  0  0  0  0  0  0
   -0.5824   -1.9217    9.0792 O   0  0  0  0  0  0  0  0  0  0  0  0
   -0.2969   -3.0534    9.8709 C   0  0  0  0  0  0  0  0  0  0  0  0
    3.7003    2.9557   10.4272 S   0  0  0  0  0  6  0  0  0  0  0  0
    4.0737    4.1653   11.3009 O   0  0  0  0  0  0  0  0  0  0  0  0
    4.2821    3.2668    9.0544 O   0  0  0  0  0  0  0  0  0  0  0  0
    4.5120    1.5674   11.0209 C   0  0  0  0  0  0  0  0  0  0  0  0
    5.0229    0.6484   10.0930 C   0  0  0  0  0  0  0  0  0  0  0  0
    5.7003   -0.4761   10.4860 C   0  0  0  0  0  0  0  0  0  0  0  0
    5.8956   -0.7290   11.8316 C   0  0  0  0  0  0  0  0  0  0  0  0
    5.4060    0.1520   12.7392 C   0  0  0  0  0  0  0  0  0  0  0  0
    4.7161    1.2960   12.3286 C   0  0  0  0  0  0  0  0  0  0  0  0
    4.2204    2.1565   13.4048 C   0  0  0  0  0  0  0  0  0  0  0  0
  1  2  1  0
  2  3  1  0
  3  4  1  0
  4  5  1  0
  5  6  2  0
  6  7  1  0
  7  8  2  0
  8  9  1  0
  9 10  2  0
  3 11  1  0
 11 12  2  0
 11 13  1  0
 13 14  1  0
 14 15  1  0
 15 16  2  0
 16 17  1  0
 17 18  2  0
 18 19  1  0
 19 20  2  0
 18 21  1  0
 21 22  1  0
 14 23  1  0
 23 24  2  0
 23 25  2  0
 23 26  1  0
 26 27  2  0
 27 28  1  0
 28 29  2  0
 29 30  1  0
 30 31  2  0
 31 32  1  0
 10  5  1  0
 20 15  1  0
 31 26  1  0
M  END
$$$$
