
     RDKit          3D

 32 34  0  0  0  0  0  0  0  0999 V2000
   -2.1912    7.0638    9.1616 C   0  0  0  0  0  0  0  0  0  0  0  0
   -0.7364    6.7388    9.1294 C   0  0  0  0  0  0  0  0  0  0  0  0
   -0.2642    6.1160   10.3740 N   0  0  0  0  0  0  0  0  0  0  0  0
   -1.0766    6.2713   11.5452 C   0  0  0  0  0  0  0  0  0  0  0  0
   -1.7429    5.0422   12.0188 C   0  0  0  0  0  0  0  0  0  0  0  0
   -1.6054    3.8120   11.4330 C   0  0  0  0  0  0  0  0  0  0  0  0
   -2.2339    2.7045   11.9199 N   0  0  0  0  0  0  0  0  0  0  0  0
   -3.0279    2.7507   13.0044 C   0  0  0  0  0  0  0  0  0  0  0  0
   -3.1951    3.9745   13.6269 C   0  0  0  0  0  0  0  0  0  0  0  0
   -2.5588    5.1089   13.1388 C   0  0  0  0  0  0  0  0  0  0  0  0
    0.9410    5.4119   10.3335 C   0  0  0  0  0  0  0  0  0  0  0  0
    1.3369    4.8064   11.3619 O   0  0  0  0  0  0  0  0  0  0  0  0
    1.7527    5.3628    9.1309 C   0  0  0  0  0  0  0  0  0  0  0  0
    1.9744    4.0508    8.5615 N   0  0  0  0  0  0  0  0  0  0  0  0
    1.2090    3.7092    7.4243 C   0  0  0  0  0  0  0  0  0  0  0  0
    0.0953    2.8876    7.6324 C   0  0  0  0  0  0  0  0  0  0  0  0
   -0.7294    2.5025    6.6541 N   0  0  0  0  0  0  0  0  0  0  0  0
   -0.4889    2.9176    5.4046 C   0  0  0  0  0  0  0  0  0  0  0  0
    0.5937    3.7286    5.1399 C   0  0  0  0  0  0  0  0  0  0  0  0
    1.4429    4.1253    6.1446 C   0  0  0  0  0  0  0  0  0  0  0  0
   -1.3128    2.5534    4.3244 O   0  0  0  0  0  0  0  0  0  0  0  0
   -2.1651    1.4436    4.5002 C   0  0  0  0  0  0  0  0  0  0  0  0
    3.0993    2.9440    9.2116 S   0  0  0  0  0  6  0  0  0  0  0  0
    3.7860    3.5758   10.4345 O   0  0  0  0  0  0  0  0  0  0  0  0
    4.2170    2.7297    8.1994 O   0  0  0  0  0  0  0  0  0  0  0  0
    2.5020    1.3968    9.6451 C   0  0  0  0  0  0  0  0  0  0  0  0
    2.3565    0.4337    8.6362 C   0  0  0  0  0  0  0  0  0  0  0  0
    1.9036   -0.8316    8.9035 C   0  0  0  0  0  0  0  0  0  0  0  0
    1.5755   -1.1878   10.1990 C   0  0  0  0  0  0  0  0  0  0  0  0
    1.7115   -0.2653   11.1839 C   0  0  0  0  0  0  0  0  0  0  0  0
    2.1740    1.0230   10.9013 C   0  0  0  0  0  0  0  0  0  0  0  0
    2.2569    1.9311   12.0470 C   0  0  0  0  0  0  0  0  0  0  0  0
  1  2  1  0
  2  3  1  0
  3  4  1  0
  4  5  1  0
  5  6  2  0
  6  7  1  0
  7  8  2  0
  8  9  1  0
  9 10  2  0
  3 11  1  0
 11 12  2  0
 11 13  1  0
 13 14  1  0
 14 15  1  0
 15 16  2  0
 16 17  1  0
 17 18  2  0
 18 19  1  0
 19 20  2  0
 18 21  1  0
 21 22  1  0
 14 23  1  0
 23 24  2  0
 23 25  2  0
 23 26  1  0
 26 27  2  0
 27 28  1  0
 28 29  2  0
 29 30  1  0
 30 31  2  0
 31 32  1  0
 10  5  1  0
 20 15  1  0
 31 26  1  0
M  END
$$$$
