
     RDKit          3D

 32 34  0  0  0  0  0  0  0  0999 V2000
    0.0812    2.8010    5.6813 C   0  0  0  0  0  0  0  0  0  0  0  0
    0.2299    2.6008    7.1513 C   0  0  0  0  0  0  0  0  0  0  0  0
   -0.3791    3.6826    7.9380 N   0  0  0  0  0  0  0  0  0  0  0  0
   -1.6745    4.1482    7.5371 C   0  0  0  0  0  0  0  0  0  0  0  0
   -1.6734    5.2835    6.5936 C   0  0  0  0  0  0  0  0  0  0  0  0
   -0.5576    5.9935    6.2382 C   0  0  0  0  0  0  0  0  0  0  0  0
   -0.6101    7.0267    5.3502 N   0  0  0  0  0  0  0  0  0  0  0  0
   -1.7595    7.4132    4.7689 C   0  0  0  0  0  0  0  0  0  0  0  0
   -2.9114    6.7230    5.1004 C   0  0  0  0  0  0  0  0  0  0  0  0
   -2.8685    5.6685    6.0039 C   0  0  0  0  0  0  0  0  0  0  0  0
    0.3412    4.1827    9.0246 C   0  0  0  0  0  0  0  0  0  0  0  0
   -0.1526    5.1068    9.7197 O   0  0  0  0  0  0  0  0  0  0  0  0
    1.6513    3.6628    9.3725 C   0  0  0  0  0  0  0  0  0  0  0  0
    1.6734    2.5509   10.2986 N   0  0  0  0  0  0  0  0  0  0  0  0
    1.3241    1.2824    9.7839 C   0  0  0  0  0  0  0  0  0  0  0  0
    0.1252    0.7215   10.2383 C   0  0  0  0  0  0  0  0  0  0  0  0
   -0.3398   -0.4601    9.8221 N   0  0  0  0  0  0  0  0  0  0  0  0
    0.3688   -1.1538    8.9231 C   0  0  0  0  0  0  0  0  0  0  0  0
    1.5575   -0.6506    8.4399 C   0  0  0  0  0  0  0  0  0  0  0  0
    2.0373    0.5640    8.8670 C   0  0  0  0  0  0  0  0  0  0  0  0
   -0.0574   -2.4036    8.4388 O   0  0  0  0  0  0  0  0  0  0  0  0
   -0.5446   -3.3351    9.3789 C   0  0  0  0  0  0  0  0  0  0  0  0
    2.0952    2.7312   11.9425 S   0  0  0  0  0  6  0  0  0  0  0  0
    0.8171    2.7323   12.7984 O   0  0  0  0  0  0  0  0  0  0  0  0
    2.7049    4.1123   12.1435 O   0  0  0  0  0  0  0  0  0  0  0  0
    3.1981    1.5892   12.5892 C   0  0  0  0  0  0  0  0  0  0  0  0
    2.8265    0.8866   13.7445 C   0  0  0  0  0  0  0  0  0  0  0  0
    3.6433   -0.0558   14.3124 C   0  0  0  0  0  0  0  0  0  0  0  0
    4.8728   -0.3358   13.7445 C   0  0  0  0  0  0  0  0  0  0  0  0
    5.2441    0.3372   12.6270 C   0  0  0  0  0  0  0  0  0  0  0  0
    4.4044    1.2969   12.0552 C   0  0  0  0  0  0  0  0  0  0  0  0
    4.9285    1.9673   10.8635 C   0  0  0  0  0  0  0  0  0  0  0  0
  1  2  1  0
  2  3  1  0
  3  4  1  0
  4  5  1  0
  5  6  2  0
  6  7  1  0
  7  8  2  0
  8  9  1  0
  9 10  2  0
  3 11  1  0
 11 12  2  0
 11 13  1  0
 13 14  1  0
 14 15  1  0
 15 16  2  0
 16 17  1  0
 17 18  2  0
 18 19  1  0
 19 20  2  0
 18 21  1  0
 21 22  1  0
 14 23  1  0
 23 24  2  0
 23 25  2  0
 23 26  1  0
 26 27  2  0
 27 28  1  0
 28 29  2  0
 29 30  1  0
 30 31  2  0
 31 32  1  0
 10  5  1  0
 20 15  1  0
 31 26  1  0
M  END
$$$$
