
     RDKit          3D

 32 34  0  0  0  0  0  0  0  0999 V2000
    3.5774    2.1518   12.7930 C   0  0  0  0  0  0  0  0  0  0  0  0
    2.5733    3.2075   13.1095 C   0  0  0  0  0  0  0  0  0  0  0  0
    1.1882    2.7310   12.9883 N   0  0  0  0  0  0  0  0  0  0  0  0
    0.7745    1.6632   13.8509 C   0  0  0  0  0  0  0  0  0  0  0  0
    0.6565    0.3404   13.2063 C   0  0  0  0  0  0  0  0  0  0  0  0
    0.9764    0.0848   11.8995 C   0  0  0  0  0  0  0  0  0  0  0  0
    0.8612   -1.1606   11.3569 N   0  0  0  0  0  0  0  0  0  0  0  0
    0.4263   -2.2147   12.0698 C   0  0  0  0  0  0  0  0  0  0  0  0
    0.0915   -2.0005   13.3947 C   0  0  0  0  0  0  0  0  0  0  0  0
    0.2055   -0.7354   13.9572 C   0  0  0  0  0  0  0  0  0  0  0  0
    0.3664    3.3510   12.0449 C   0  0  0  0  0  0  0  0  0  0  0  0
   -0.7499    2.8421   11.7695 O   0  0  0  0  0  0  0  0  0  0  0  0
    0.7701    4.5712   11.3698 C   0  0  0  0  0  0  0  0  0  0  0  0
    0.9675    4.4759    9.9393 N   0  0  0  0  0  0  0  0  0  0  0  0
   -0.1554    4.1163    9.1609 C   0  0  0  0  0  0  0  0  0  0  0  0
   -0.8899    5.1599    8.5866 C   0  0  0  0  0  0  0  0  0  0  0  0
   -1.9608    4.9674    7.8109 N   0  0  0  0  0  0  0  0  0  0  0  0
   -2.3624    3.7151    7.5620 C   0  0  0  0  0  0  0  0  0  0  0  0
   -1.6773    2.6475    8.1009 C   0  0  0  0  0  0  0  0  0  0  0  0
   -0.5761    2.8436    8.8991 C   0  0  0  0  0  0  0  0  0  0  0  0
   -3.4799    3.4350    6.7551 O   0  0  0  0  0  0  0  0  0  0  0  0
   -4.3085    4.5167    6.3913 C   0  0  0  0  0  0  0  0  0  0  0  0
    2.4747    4.7757    9.1966 S   0  0  0  0  0  6  0  0  0  0  0  0
    3.5938    4.1497   10.0462 O   0  0  0  0  0  0  0  0  0  0  0  0
    2.7474    6.2738    9.2283 O   0  0  0  0  0  0  0  0  0  0  0  0
    2.6539    4.2604    7.5715 C   0  0  0  0  0  0  0  0  0  0  0  0
    2.4350    5.1954    6.5496 C   0  0  0  0  0  0  0  0  0  0  0  0
    2.5761    4.8678    5.2265 C   0  0  0  0  0  0  0  0  0  0  0  0
    2.9442    3.5834    4.8692 C   0  0  0  0  0  0  0  0  0  0  0  0
    3.1586    2.6695    5.8482 C   0  0  0  0  0  0  0  0  0  0  0  0
    3.0118    3.0131    7.1950 C   0  0  0  0  0  0  0  0  0  0  0  0
    3.2515    1.9325    8.1536 C   0  0  0  0  0  0  0  0  0  0  0  0
  1  2  1  0
  2  3  1  0
  3  4  1  0
  4  5  1  0
  5  6  2  0
  6  7  1  0
  7  8  2  0
  8  9  1  0
  9 10  2  0
  3 11  1  0
 11 12  2  0
 11 13  1  0
 13 14  1  0
 14 15  1  0
 15 16  2  0
 16 17  1  0
 17 18  2  0
 18 19  1  0
 19 20  2  0
 18 21  1  0
 21 22  1  0
 14 23  1  0
 23 24  2  0
 23 25  2  0
 23 26  1  0
 26 27  2  0
 27 28  1  0
 28 29  2  0
 29 30  1  0
 30 31  2  0
 31 32  1  0
 10  5  1  0
 20 15  1  0
 31 26  1  0
M  END
$$$$
