
     RDKit          3D

 32 34  0  0  0  0  0  0  0  0999 V2000
    2.4712    5.6333    8.7275 C   0  0  0  0  0  0  0  0  0  0  0  0
    1.5877    4.4521    8.5105 C   0  0  0  0  0  0  0  0  0  0  0  0
    0.2951    4.5733    9.1995 N   0  0  0  0  0  0  0  0  0  0  0  0
   -0.5722    5.6437    8.8025 C   0  0  0  0  0  0  0  0  0  0  0  0
   -1.4234    5.3646    7.6292 C   0  0  0  0  0  0  0  0  0  0  0  0
   -1.5073    4.1484    7.0054 C   0  0  0  0  0  0  0  0  0  0  0  0
   -2.3211    3.9407    5.9315 N   0  0  0  0  0  0  0  0  0  0  0  0
   -3.0912    4.9162    5.4177 C   0  0  0  0  0  0  0  0  0  0  0  0
   -3.0365    6.1613    6.0175 C   0  0  0  0  0  0  0  0  0  0  0  0
   -2.2107    6.3832    7.1124 C   0  0  0  0  0  0  0  0  0  0  0  0
   -0.0045    3.6374   10.1915 C   0  0  0  0  0  0  0  0  0  0  0  0
   -1.1662    3.1612   10.2601 O   0  0  0  0  0  0  0  0  0  0  0  0
    0.9938    3.2000   11.1505 C   0  0  0  0  0  0  0  0  0  0  0  0
    1.5150    1.8624   10.9668 N   0  0  0  0  0  0  0  0  0  0  0  0
    0.7913    0.8061   11.5638 C   0  0  0  0  0  0  0  0  0  0  0  0
    0.6036    0.8691   12.9493 C   0  0  0  0  0  0  0  0  0  0  0  0
   -0.0776   -0.0476   13.6430 N   0  0  0  0  0  0  0  0  0  0  0  0
   -0.6140   -1.0857   12.9902 C   0  0  0  0  0  0  0  0  0  0  0  0
   -0.4615   -1.1999   11.6252 C   0  0  0  0  0  0  0  0  0  0  0  0
    0.2390   -0.2584   10.9103 C   0  0  0  0  0  0  0  0  0  0  0  0
   -1.3440   -2.0888   13.6530 O   0  0  0  0  0  0  0  0  0  0  0  0
   -2.2793   -1.6792   14.6257 C   0  0  0  0  0  0  0  0  0  0  0  0
    2.9365    1.5430   10.0778 S   0  0  0  0  0  6  0  0  0  0  0  0
    3.5257    2.8690    9.5670 O   0  0  0  0  0  0  0  0  0  0  0  0
    2.5648    0.7671    8.8210 O   0  0  0  0  0  0  0  0  0  0  0  0
    4.1676    0.6572   10.8770 C   0  0  0  0  0  0  0  0  0  0  0  0
    4.4703   -0.6299   10.4099 C   0  0  0  0  0  0  0  0  0  0  0  0
    5.4531   -1.3947   10.9819 C   0  0  0  0  0  0  0  0  0  0  0  0
    6.1777   -0.9003   12.0511 C   0  0  0  0  0  0  0  0  0  0  0  0
    5.8943    0.3433   12.5125 C   0  0  0  0  0  0  0  0  0  0  0  0
    4.8899    1.1157   11.9227 C   0  0  0  0  0  0  0  0  0  0  0  0
    4.6673    2.4315   12.5253 C   0  0  0  0  0  0  0  0  0  0  0  0
  1  2  1  0
  2  3  1  0
  3  4  1  0
  4  5  1  0
  5  6  2  0
  6  7  1  0
  7  8  2  0
  8  9  1  0
  9 10  2  0
  3 11  1  0
 11 12  2  0
 11 13  1  0
 13 14  1  0
 14 15  1  0
 15 16  2  0
 16 17  1  0
 17 18  2  0
 18 19  1  0
 19 20  2  0
 18 21  1  0
 21 22  1  0
 14 23  1  0
 23 24  2  0
 23 25  2  0
 23 26  1  0
 26 27  2  0
 27 28  1  0
 28 29  2  0
 29 30  1  0
 30 31  2  0
 31 32  1  0
 10  5  1  0
 20 15  1  0
 31 26  1  0
M  END
$$$$
