
     RDKit          3D

 32 34  0  0  0  0  0  0  0  0999 V2000
   -2.0920    2.8991    6.6873 C   0  0  0  0  0  0  0  0  0  0  0  0
   -0.6896    2.9809    7.1867 C   0  0  0  0  0  0  0  0  0  0  0  0
   -0.3635    4.2962    7.7558 N   0  0  0  0  0  0  0  0  0  0  0  0
   -1.3257    5.3470    7.5960 C   0  0  0  0  0  0  0  0  0  0  0  0
   -1.2524    6.0811    6.3175 C   0  0  0  0  0  0  0  0  0  0  0  0
   -0.4249    5.7465    5.2789 C   0  0  0  0  0  0  0  0  0  0  0  0
   -0.4065    6.4517    4.1123 N   0  0  0  0  0  0  0  0  0  0  0  0
   -1.1986    7.5193    3.9088 C   0  0  0  0  0  0  0  0  0  0  0  0
   -2.0502    7.8924    4.9329 C   0  0  0  0  0  0  0  0  0  0  0  0
   -2.0767    7.1803    6.1253 C   0  0  0  0  0  0  0  0  0  0  0  0
    0.8587    4.4349    8.4168 C   0  0  0  0  0  0  0  0  0  0  0  0
    1.1157    5.5076    9.0203 O   0  0  0  0  0  0  0  0  0  0  0  0
    1.8447    3.3694    8.4234 C   0  0  0  0  0  0  0  0  0  0  0  0
    1.7995    2.4624    9.5502 N   0  0  0  0  0  0  0  0  0  0  0  0
    2.5086    2.8470   10.7101 C   0  0  0  0  0  0  0  0  0  0  0  0
    1.7862    3.5219   11.7007 C   0  0  0  0  0  0  0  0  0  0  0  0
    2.3213    3.9260   12.8565 N   0  0  0  0  0  0  0  0  0  0  0  0
    3.6154    3.6782   13.0918 C   0  0  0  0  0  0  0  0  0  0  0  0
    4.3764    3.0167   12.1521 C   0  0  0  0  0  0  0  0  0  0  0  0
    3.8280    2.6008   10.9629 C   0  0  0  0  0  0  0  0  0  0  0  0
    4.2471    4.0729   14.2849 O   0  0  0  0  0  0  0  0  0  0  0  0
    3.6695    5.1380   15.0066 C   0  0  0  0  0  0  0  0  0  0  0  0
    0.9405    0.9881    9.5106 S   0  0  0  0  0  6  0  0  0  0  0  0
   -0.2775    1.1338    8.5824 O   0  0  0  0  0  0  0  0  0  0  0  0
    0.3542    0.7251   10.8914 O   0  0  0  0  0  0  0  0  0  0  0  0
    1.8224   -0.4105    9.0576 C   0  0  0  0  0  0  0  0  0  0  0  0
    2.3377   -1.2292   10.0728 C   0  0  0  0  0  0  0  0  0  0  0  0
    3.0373   -2.3740    9.7941 C   0  0  0  0  0  0  0  0  0  0  0  0
    3.2513   -2.7493    8.4802 C   0  0  0  0  0  0  0  0  0  0  0  0
    2.7582   -1.9657    7.4890 C   0  0  0  0  0  0  0  0  0  0  0  0
    2.0462   -0.7997    7.7833 C   0  0  0  0  0  0  0  0  0  0  0  0
    1.5844   -0.0309    6.6257 C   0  0  0  0  0  0  0  0  0  0  0  0
  1  2  1  0
  2  3  1  0
  3  4  1  0
  4  5  1  0
  5  6  2  0
  6  7  1  0
  7  8  2  0
  8  9  1  0
  9 10  2  0
  3 11  1  0
 11 12  2  0
 11 13  1  0
 13 14  1  0
 14 15  1  0
 15 16  2  0
 16 17  1  0
 17 18  2  0
 18 19  1  0
 19 20  2  0
 18 21  1  0
 21 22  1  0
 14 23  1  0
 23 24  2  0
 23 25  2  0
 23 26  1  0
 26 27  2  0
 27 28  1  0
 28 29  2  0
 29 30  1  0
 30 31  2  0
 31 32  1  0
 10  5  1  0
 20 15  1  0
 31 26  1  0
M  END
$$$$
