
     RDKit          3D

 32 34  0  0  0  0  0  0  0  0999 V2000
    1.0634    6.3546    7.8829 C   0  0  0  0  0  0  0  0  0  0  0  0
    1.1362    4.8902    7.6120 C   0  0  0  0  0  0  0  0  0  0  0  0
   -0.1188    4.1906    7.9213 N   0  0  0  0  0  0  0  0  0  0  0  0
   -0.9424    3.7845    6.8203 C   0  0  0  0  0  0  0  0  0  0  0  0
   -1.6749    4.8735    6.1444 C   0  0  0  0  0  0  0  0  0  0  0  0
   -1.6798    6.1781    6.5608 C   0  0  0  0  0  0  0  0  0  0  0  0
   -2.3637    7.1487    5.8909 N   0  0  0  0  0  0  0  0  0  0  0  0
   -3.0759    6.8861    4.7808 C   0  0  0  0  0  0  0  0  0  0  0  0
   -3.0985    5.5802    4.3255 C   0  0  0  0  0  0  0  0  0  0  0  0
   -2.4048    4.5839    5.0008 C   0  0  0  0  0  0  0  0  0  0  0  0
   -0.4243    3.9646    9.2649 C   0  0  0  0  0  0  0  0  0  0  0  0
   -1.5789    3.5778    9.5786 O   0  0  0  0  0  0  0  0  0  0  0  0
    0.5596    4.1675   10.3129 C   0  0  0  0  0  0  0  0  0  0  0  0
    0.8991    3.0053   11.1057 N   0  0  0  0  0  0  0  0  0  0  0  0
    0.4956    1.7479   10.6035 C   0  0  0  0  0  0  0  0  0  0  0  0
    0.8438    1.4515    9.2809 C   0  0  0  0  0  0  0  0  0  0  0  0
    0.5469    0.2942    8.6824 N   0  0  0  0  0  0  0  0  0  0  0  0
   -0.1182   -0.6393    9.3736 C   0  0  0  0  0  0  0  0  0  0  0  0
   -0.4872   -0.4027   10.6803 C   0  0  0  0  0  0  0  0  0  0  0  0
   -0.1830    0.7868   11.2971 C   0  0  0  0  0  0  0  0  0  0  0  0
   -0.4650   -1.8807    8.8105 O   0  0  0  0  0  0  0  0  0  0  0  0
    0.0962   -2.2080    7.5588 C   0  0  0  0  0  0  0  0  0  0  0  0
    1.7450    3.1153   12.5840 S   0  0  0  0  0  6  0  0  0  0  0  0
    0.8044    2.7290   13.7383 O   0  0  0  0  0  0  0  0  0  0  0  0
    2.1009    4.5744   12.8377 O   0  0  0  0  0  0  0  0  0  0  0  0
    3.1932    2.2078   12.7175 C   0  0  0  0  0  0  0  0  0  0  0  0
    3.1657    1.0170   13.4575 C   0  0  0  0  0  0  0  0  0  0  0  0
    4.2756    0.2253   13.5961 C   0  0  0  0  0  0  0  0  0  0  0  0
    5.4659    0.5947   12.9965 C   0  0  0  0  0  0  0  0  0  0  0  0
    5.5057    1.7445   12.2783 C   0  0  0  0  0  0  0  0  0  0  0  0
    4.3685    2.5456   12.1428 C   0  0  0  0  0  0  0  0  0  0  0  0
    4.5466    3.7704   11.3604 C   0  0  0  0  0  0  0  0  0  0  0  0
  1  2  1  0
  2  3  1  0
  3  4  1  0
  4  5  1  0
  5  6  2  0
  6  7  1  0
  7  8  2  0
  8  9  1  0
  9 10  2  0
  3 11  1  0
 11 12  2  0
 11 13  1  0
 13 14  1  0
 14 15  1  0
 15 16  2  0
 16 17  1  0
 17 18  2  0
 18 19  1  0
 19 20  2  0
 18 21  1  0
 21 22  1  0
 14 23  1  0
 23 24  2  0
 23 25  2  0
 23 26  1  0
 26 27  2  0
 27 28  1  0
 28 29  2  0
 29 30  1  0
 30 31  2  0
 31 32  1  0
 10  5  1  0
 20 15  1  0
 31 26  1  0
M  END
$$$$
