
     RDKit          3D

 32 34  0  0  0  0  0  0  0  0999 V2000
    1.8399    5.1590    6.3743 C   0  0  0  0  0  0  0  0  0  0  0  0
    1.7044    5.8743    7.6755 C   0  0  0  0  0  0  0  0  0  0  0  0
    0.4720    5.5208    8.3941 N   0  0  0  0  0  0  0  0  0  0  0  0
   -0.6769    6.3546    8.1939 C   0  0  0  0  0  0  0  0  0  0  0  0
   -1.5016    6.0211    7.0159 C   0  0  0  0  0  0  0  0  0  0  0  0
   -1.4150    4.8461    6.3178 C   0  0  0  0  0  0  0  0  0  0  0  0
   -2.2113    4.5828    5.2430 N   0  0  0  0  0  0  0  0  0  0  0  0
   -3.1303    5.4596    4.8011 C   0  0  0  0  0  0  0  0  0  0  0  0
   -3.2506    6.6602    5.4773 C   0  0  0  0  0  0  0  0  0  0  0  0
   -2.4441    6.9380    6.5738 C   0  0  0  0  0  0  0  0  0  0  0  0
    0.5001    4.3956    9.2206 C   0  0  0  0  0  0  0  0  0  0  0  0
   -0.4955    4.1358    9.9433 O   0  0  0  0  0  0  0  0  0  0  0  0
    1.6541    3.5162    9.2688 C   0  0  0  0  0  0  0  0  0  0  0  0
    1.5037    2.3048   10.0462 N   0  0  0  0  0  0  0  0  0  0  0  0
    1.0589    1.1539    9.3580 C   0  0  0  0  0  0  0  0  0  0  0  0
    2.0431    0.2973    8.8519 C   0  0  0  0  0  0  0  0  0  0  0  0
    1.7688   -0.8360    8.1993 N   0  0  0  0  0  0  0  0  0  0  0  0
    0.4892   -1.1819    8.0135 C   0  0  0  0  0  0  0  0  0  0  0  0
   -0.5227   -0.3767    8.4904 C   0  0  0  0  0  0  0  0  0  0  0  0
   -0.2425    0.7892    9.1612 C   0  0  0  0  0  0  0  0  0  0  0  0
    0.1240   -2.3595    7.3366 O   0  0  0  0  0  0  0  0  0  0  0  0
    1.1596   -3.1416    6.7845 C   0  0  0  0  0  0  0  0  0  0  0  0
    1.8377    2.2376   11.7186 S   0  0  0  0  0  6  0  0  0  0  0  0
    0.5658    1.8176   12.4749 O   0  0  0  0  0  0  0  0  0  0  0  0
    2.1440    3.6448   12.2143 O   0  0  0  0  0  0  0  0  0  0  0  0
    3.1360    1.2315   12.2096 C   0  0  0  0  0  0  0  0  0  0  0  0
    4.4378    1.7493   12.1493 C   0  0  0  0  0  0  0  0  0  0  0  0
    5.5272    1.0161   12.5412 C   0  0  0  0  0  0  0  0  0  0  0  0
    5.3579   -0.2732   13.0124 C   0  0  0  0  0  0  0  0  0  0  0  0
    4.1037   -0.7858   13.0753 C   0  0  0  0  0  0  0  0  0  0  0  0
    2.9989   -0.0302   12.6730 C   0  0  0  0  0  0  0  0  0  0  0  0
    1.7023   -0.7037   12.7702 C   0  0  0  0  0  0  0  0  0  0  0  0
  1  2  1  0
  2  3  1  0
  3  4  1  0
  4  5  1  0
  5  6  2  0
  6  7  1  0
  7  8  2  0
  8  9  1  0
  9 10  2  0
  3 11  1  0
 11 12  2  0
 11 13  1  0
 13 14  1  0
 14 15  1  0
 15 16  2  0
 16 17  1  0
 17 18  2  0
 18 19  1  0
 19 20  2  0
 18 21  1  0
 21 22  1  0
 14 23  1  0
 23 24  2  0
 23 25  2  0
 23 26  1  0
 26 27  2  0
 27 28  1  0
 28 29  2  0
 29 30  1  0
 30 31  2  0
 31 32  1  0
 10  5  1  0
 20 15  1  0
 31 26  1  0
M  END
$$$$
