
     RDKit          3D

 32 34  0  0  0  0  0  0  0  0999 V2000
    1.0809    6.3346    8.2832 C   0  0  0  0  0  0  0  0  0  0  0  0
    1.1787    5.2369    7.2790 C   0  0  0  0  0  0  0  0  0  0  0  0
    0.1131    4.2352    7.4245 N   0  0  0  0  0  0  0  0  0  0  0  0
   -0.9826    4.2911    6.5016 C   0  0  0  0  0  0  0  0  0  0  0  0
   -1.4791    5.6464    6.1924 C   0  0  0  0  0  0  0  0  0  0  0  0
   -1.1906    6.7636    6.9300 C   0  0  0  0  0  0  0  0  0  0  0  0
   -1.6652    7.9961    6.5919 N   0  0  0  0  0  0  0  0  0  0  0  0
   -2.4460    8.1918    5.5146 C   0  0  0  0  0  0  0  0  0  0  0  0
   -2.7626    7.0894    4.7416 C   0  0  0  0  0  0  0  0  0  0  0  0
   -2.2839    5.8292    5.0773 C   0  0  0  0  0  0  0  0  0  0  0  0
    0.2395    3.2940    8.4483 C   0  0  0  0  0  0  0  0  0  0  0  0
   -0.7957    2.8121    8.9748 O   0  0  0  0  0  0  0  0  0  0  0  0
    1.5399    2.8576    8.9236 C   0  0  0  0  0  0  0  0  0  0  0  0
    1.5423    1.7492    9.8542 N   0  0  0  0  0  0  0  0  0  0  0  0
    1.2208    0.4758    9.3334 C   0  0  0  0  0  0  0  0  0  0  0  0
    1.4210    0.2821    7.9619 C   0  0  0  0  0  0  0  0  0  0  0  0
    1.1804   -0.8749    7.3383 N   0  0  0  0  0  0  0  0  0  0  0  0
    0.7237   -1.9113    8.0516 C   0  0  0  0  0  0  0  0  0  0  0  0
    0.5078   -1.7789    9.4064 C   0  0  0  0  0  0  0  0  0  0  0  0
    0.7544   -0.5898   10.0492 C   0  0  0  0  0  0  0  0  0  0  0  0
    0.4482   -3.1593    7.4644 O   0  0  0  0  0  0  0  0  0  0  0  0
    0.2704   -3.1964    6.0658 C   0  0  0  0  0  0  0  0  0  0  0  0
    1.9098    1.9390   11.5100 S   0  0  0  0  0  6  0  0  0  0  0  0
    0.7097    1.4763   12.3537 O   0  0  0  0  0  0  0  0  0  0  0  0
    2.0547    3.4246   11.8128 O   0  0  0  0  0  0  0  0  0  0  0  0
    3.3266    1.1625   12.0832 C   0  0  0  0  0  0  0  0  0  0  0  0
    3.1808    0.0369   12.9067 C   0  0  0  0  0  0  0  0  0  0  0  0
    4.2629   -0.6509   13.3905 C   0  0  0  0  0  0  0  0  0  0  0  0
    5.5430   -0.2382   13.0684 C   0  0  0  0  0  0  0  0  0  0  0  0
    5.6975    0.8494   12.2729 C   0  0  0  0  0  0  0  0  0  0  0  0
    4.5877    1.5445   11.7846 C   0  0  0  0  0  0  0  0  0  0  0  0
    4.8877    2.7124   10.9538 C   0  0  0  0  0  0  0  0  0  0  0  0
  1  2  1  0
  2  3  1  0
  3  4  1  0
  4  5  1  0
  5  6  2  0
  6  7  1  0
  7  8  2  0
  8  9  1  0
  9 10  2  0
  3 11  1  0
 11 12  2  0
 11 13  1  0
 13 14  1  0
 14 15  1  0
 15 16  2  0
 16 17  1  0
 17 18  2  0
 18 19  1  0
 19 20  2  0
 18 21  1  0
 21 22  1  0
 14 23  1  0
 23 24  2  0
 23 25  2  0
 23 26  1  0
 26 27  2  0
 27 28  1  0
 28 29  2  0
 29 30  1  0
 30 31  2  0
 31 32  1  0
 10  5  1  0
 20 15  1  0
 31 26  1  0
M  END
$$$$
