
     RDKit          3D

 32 34  0  0  0  0  0  0  0  0999 V2000
    1.1336    4.2720    6.2371 C   0  0  0  0  0  0  0  0  0  0  0  0
    0.0879    3.4693    6.9338 C   0  0  0  0  0  0  0  0  0  0  0  0
   -0.4504    4.1447    8.1230 N   0  0  0  0  0  0  0  0  0  0  0  0
   -1.7793    4.6764    8.0412 C   0  0  0  0  0  0  0  0  0  0  0  0
   -2.0194    5.6067    6.9205 C   0  0  0  0  0  0  0  0  0  0  0  0
   -1.0743    5.9665    5.9971 C   0  0  0  0  0  0  0  0  0  0  0  0
   -1.3530    6.8208    4.9718 N   0  0  0  0  0  0  0  0  0  0  0  0
   -2.5719    7.3634    4.8034 C   0  0  0  0  0  0  0  0  0  0  0  0
   -3.5567    7.0270    5.7147 C   0  0  0  0  0  0  0  0  0  0  0  0
   -3.2829    6.1572    6.7628 C   0  0  0  0  0  0  0  0  0  0  0  0
    0.3653    4.2210    9.2538 C   0  0  0  0  0  0  0  0  0  0  0  0
   -0.0567    4.8118   10.2804 O   0  0  0  0  0  0  0  0  0  0  0  0
    1.6935    3.6355    9.2741 C   0  0  0  0  0  0  0  0  0  0  0  0
    1.8547    2.4419   10.0765 N   0  0  0  0  0  0  0  0  0  0  0  0
    1.4067    1.2264    9.5127 C   0  0  0  0  0  0  0  0  0  0  0  0
    2.1133    0.7418    8.4062 C   0  0  0  0  0  0  0  0  0  0  0  0
    1.8153   -0.4035    7.7856 N   0  0  0  0  0  0  0  0  0  0  0  0
    0.7893   -1.1354    8.2363 C   0  0  0  0  0  0  0  0  0  0  0  0
    0.0572   -0.7075    9.3229 C   0  0  0  0  0  0  0  0  0  0  0  0
    0.3620    0.4700    9.9620 C   0  0  0  0  0  0  0  0  0  0  0  0
    0.4171   -2.3510    7.6346 O   0  0  0  0  0  0  0  0  0  0  0  0
    1.3821   -3.0094    6.8446 C   0  0  0  0  0  0  0  0  0  0  0  0
    2.5478    2.4685   11.6360 S   0  0  0  0  0  6  0  0  0  0  0  0
    1.8283    3.5228   12.4945 O   0  0  0  0  0  0  0  0  0  0  0  0
    3.9839    2.9637   11.5257 O   0  0  0  0  0  0  0  0  0  0  0  0
    2.5860    0.9839   12.4924 C   0  0  0  0  0  0  0  0  0  0  0  0
    1.5150    0.6809   13.3454 C   0  0  0  0  0  0  0  0  0  0  0  0
    1.4612   -0.4930   14.0505 C   0  0  0  0  0  0  0  0  0  0  0  0
    2.4829   -1.4174   13.9304 C   0  0  0  0  0  0  0  0  0  0  0  0
    3.5246   -1.1360   13.1087 C   0  0  0  0  0  0  0  0  0  0  0  0
    3.5707    0.0641   12.3939 C   0  0  0  0  0  0  0  0  0  0  0  0
    4.7572    0.2576   11.5578 C   0  0  0  0  0  0  0  0  0  0  0  0
  1  2  1  0
  2  3  1  0
  3  4  1  0
  4  5  1  0
  5  6  2  0
  6  7  1  0
  7  8  2  0
  8  9  1  0
  9 10  2  0
  3 11  1  0
 11 12  2  0
 11 13  1  0
 13 14  1  0
 14 15  1  0
 15 16  2  0
 16 17  1  0
 17 18  2  0
 18 19  1  0
 19 20  2  0
 18 21  1  0
 21 22  1  0
 14 23  1  0
 23 24  2  0
 23 25  2  0
 23 26  1  0
 26 27  2  0
 27 28  1  0
 28 29  2  0
 29 30  1  0
 30 31  2  0
 31 32  1  0
 10  5  1  0
 20 15  1  0
 31 26  1  0
M  END
$$$$
