
     RDKit          3D

 32 34  0  0  0  0  0  0  0  0999 V2000
    1.1561    2.1645   11.7909 C   0  0  0  0  0  0  0  0  0  0  0  0
    2.5839    2.5840   11.8810 C   0  0  0  0  0  0  0  0  0  0  0  0
    3.1616    2.9233   10.5729 N   0  0  0  0  0  0  0  0  0  0  0  0
    4.4229    2.3341   10.2300 C   0  0  0  0  0  0  0  0  0  0  0  0
    5.0651    1.5484   11.3021 C   0  0  0  0  0  0  0  0  0  0  0  0
    4.5013    1.3028   12.5257 C   0  0  0  0  0  0  0  0  0  0  0  0
    5.1331    0.5582   13.4770 N   0  0  0  0  0  0  0  0  0  0  0  0
    6.3484    0.0193   13.2739 C   0  0  0  0  0  0  0  0  0  0  0  0
    6.9546    0.2434   12.0511 C   0  0  0  0  0  0  0  0  0  0  0  0
    6.3191    1.0005   11.0750 C   0  0  0  0  0  0  0  0  0  0  0  0
    2.4436    3.7931    9.7496 C   0  0  0  0  0  0  0  0  0  0  0  0
    2.9265    4.1313    8.6390 O   0  0  0  0  0  0  0  0  0  0  0  0
    1.1503    4.3205   10.1454 C   0  0  0  0  0  0  0  0  0  0  0  0
    0.0257    3.9489    9.3136 N   0  0  0  0  0  0  0  0  0  0  0  0
   -0.1636    4.6895    8.1254 C   0  0  0  0  0  0  0  0  0  0  0  0
    0.0707    4.0221    6.9177 C   0  0  0  0  0  0  0  0  0  0  0  0
   -0.0885    4.5905    5.7189 N   0  0  0  0  0  0  0  0  0  0  0  0
   -0.4932    5.8648    5.6559 C   0  0  0  0  0  0  0  0  0  0  0  0
   -0.7393    6.5719    6.8131 C   0  0  0  0  0  0  0  0  0  0  0  0
   -0.5758    5.9892    8.0466 C   0  0  0  0  0  0  0  0  0  0  0  0
   -0.6827    6.5291    4.4307 O   0  0  0  0  0  0  0  0  0  0  0  0
   -0.4604    5.7924    3.2488 C   0  0  0  0  0  0  0  0  0  0  0  0
   -1.0418    2.6815    9.7223 S   0  0  0  0  0  6  0  0  0  0  0  0
   -2.4916    3.1862    9.6246 O   0  0  0  0  0  0  0  0  0  0  0  0
   -0.8454    2.3298   11.1912 O   0  0  0  0  0  0  0  0  0  0  0  0
   -0.8963    1.2269    8.8271 C   0  0  0  0  0  0  0  0  0  0  0  0
   -0.2175    0.1496    9.4147 C   0  0  0  0  0  0  0  0  0  0  0  0
   -0.0745   -1.0525    8.7727 C   0  0  0  0  0  0  0  0  0  0  0  0
   -0.6079   -1.2275    7.5087 C   0  0  0  0  0  0  0  0  0  0  0  0
   -1.2665   -0.1931    6.9292 C   0  0  0  0  0  0  0  0  0  0  0  0
   -1.4070    1.0294    7.5918 C   0  0  0  0  0  0  0  0  0  0  0  0
   -2.1205    2.0722    6.8518 C   0  0  0  0  0  0  0  0  0  0  0  0
  1  2  1  0
  2  3  1  0
  3  4  1  0
  4  5  1  0
  5  6  2  0
  6  7  1  0
  7  8  2  0
  8  9  1  0
  9 10  2  0
  3 11  1  0
 11 12  2  0
 11 13  1  0
 13 14  1  0
 14 15  1  0
 15 16  2  0
 16 17  1  0
 17 18  2  0
 18 19  1  0
 19 20  2  0
 18 21  1  0
 21 22  1  0
 14 23  1  0
 23 24  2  0
 23 25  2  0
 23 26  1  0
 26 27  2  0
 27 28  1  0
 28 29  2  0
 29 30  1  0
 30 31  2  0
 31 32  1  0
 10  5  1  0
 20 15  1  0
 31 26  1  0
M  END
$$$$
