
     RDKit          3D

 32 34  0  0  0  0  0  0  0  0999 V2000
   -2.3750    1.8860    7.6734 C   0  0  0  0  0  0  0  0  0  0  0  0
   -1.0047    2.4480    7.5018 C   0  0  0  0  0  0  0  0  0  0  0  0
   -0.8162    3.7180    8.2172 N   0  0  0  0  0  0  0  0  0  0  0  0
   -1.6392    4.8269    7.8316 C   0  0  0  0  0  0  0  0  0  0  0  0
   -1.2424    5.5028    6.5807 C   0  0  0  0  0  0  0  0  0  0  0  0
   -0.2266    5.0842    5.7632 C   0  0  0  0  0  0  0  0  0  0  0  0
    0.0904    5.7388    4.6101 N   0  0  0  0  0  0  0  0  0  0  0  0
   -0.5736    6.8354    4.2037 C   0  0  0  0  0  0  0  0  0  0  0  0
   -1.6074    7.2929    5.0006 C   0  0  0  0  0  0  0  0  0  0  0  0
   -1.9384    6.6330    6.1775 C   0  0  0  0  0  0  0  0  0  0  0  0
    0.1481    3.7602    9.2262 C   0  0  0  0  0  0  0  0  0  0  0  0
    0.3795    4.8476    9.8136 O   0  0  0  0  0  0  0  0  0  0  0  0
    0.8944    2.5771    9.6146 C   0  0  0  0  0  0  0  0  0  0  0  0
    1.6095    2.6550   10.8704 N   0  0  0  0  0  0  0  0  0  0  0  0
    0.8959    2.2980   12.0363 C   0  0  0  0  0  0  0  0  0  0  0  0
    0.7324    0.9308   12.2864 C   0  0  0  0  0  0  0  0  0  0  0  0
    0.0988    0.4487   13.3596 N   0  0  0  0  0  0  0  0  0  0  0  0
   -0.4107    1.3082   14.2502 C   0  0  0  0  0  0  0  0  0  0  0  0
   -0.2799    2.6664   14.0559 C   0  0  0  0  0  0  0  0  0  0  0  0
    0.3709    3.1639   12.9528 C   0  0  0  0  0  0  0  0  0  0  0  0
   -1.0900    0.8748   15.4031 O   0  0  0  0  0  0  0  0  0  0  0  0
   -1.6785   -0.4064   15.3697 C   0  0  0  0  0  0  0  0  0  0  0  0
    3.2387    3.1535   10.9720 S   0  0  0  0  0  6  0  0  0  0  0  0
    3.3634    4.2743   12.0180 O   0  0  0  0  0  0  0  0  0  0  0  0
    3.6364    3.8007    9.6519 O   0  0  0  0  0  0  0  0  0  0  0  0
    4.4003    1.9400   11.3139 C   0  0  0  0  0  0  0  0  0  0  0  0
    5.0206    1.9491   12.5715 C   0  0  0  0  0  0  0  0  0  0  0  0
    5.9455    1.0033   12.9291 C   0  0  0  0  0  0  0  0  0  0  0  0
    6.2899    0.0034   12.0379 C   0  0  0  0  0  0  0  0  0  0  0  0
    5.6972   -0.0163   10.8180 C   0  0  0  0  0  0  0  0  0  0  0  0
    4.7552    0.9529   10.4623 C   0  0  0  0  0  0  0  0  0  0  0  0
    4.2038    0.8337    9.1111 C   0  0  0  0  0  0  0  0  0  0  0  0
  1  2  1  0
  2  3  1  0
  3  4  1  0
  4  5  1  0
  5  6  2  0
  6  7  1  0
  7  8  2  0
  8  9  1  0
  9 10  2  0
  3 11  1  0
 11 12  2  0
 11 13  1  0
 13 14  1  0
 14 15  1  0
 15 16  2  0
 16 17  1  0
 17 18  2  0
 18 19  1  0
 19 20  2  0
 18 21  1  0
 21 22  1  0
 14 23  1  0
 23 24  2  0
 23 25  2  0
 23 26  1  0
 26 27  2  0
 27 28  1  0
 28 29  2  0
 29 30  1  0
 30 31  2  0
 31 32  1  0
 10  5  1  0
 20 15  1  0
 31 26  1  0
M  END
$$$$
