
     RDKit          3D

 32 34  0  0  0  0  0  0  0  0999 V2000
    1.9031    6.4123    6.9429 C   0  0  0  0  0  0  0  0  0  0  0  0
    1.4684    6.3188    8.3660 C   0  0  0  0  0  0  0  0  0  0  0  0
    0.3467    5.3890    8.5590 N   0  0  0  0  0  0  0  0  0  0  0  0
   -0.9815    5.9144    8.4346 C   0  0  0  0  0  0  0  0  0  0  0  0
   -1.6346    5.6780    7.1321 C   0  0  0  0  0  0  0  0  0  0  0  0
   -1.6897    4.4628    6.5030 C   0  0  0  0  0  0  0  0  0  0  0  0
   -2.3185    4.2964    5.3048 N   0  0  0  0  0  0  0  0  0  0  0  0
   -2.9228    5.3139    4.6661 C   0  0  0  0  0  0  0  0  0  0  0  0
   -2.8904    6.5596    5.2665 C   0  0  0  0  0  0  0  0  0  0  0  0
   -2.2526    6.7396    6.4875 C   0  0  0  0  0  0  0  0  0  0  0  0
    0.6477    4.0562    8.8470 C   0  0  0  0  0  0  0  0  0  0  0  0
   -0.2844    3.2590    9.1241 O   0  0  0  0  0  0  0  0  0  0  0  0
    2.0141    3.5661    8.8367 C   0  0  0  0  0  0  0  0  0  0  0  0
    2.2979    2.4433    9.7047 N   0  0  0  0  0  0  0  0  0  0  0  0
    2.2095    1.1543    9.1331 C   0  0  0  0  0  0  0  0  0  0  0  0
    1.0172    0.8326    8.4746 C   0  0  0  0  0  0  0  0  0  0  0  0
    0.8021   -0.3399    7.8708 N   0  0  0  0  0  0  0  0  0  0  0  0
    1.7702   -1.2640    7.8892 C   0  0  0  0  0  0  0  0  0  0  0  0
    2.9660   -1.0027    8.5229 C   0  0  0  0  0  0  0  0  0  0  0  0
    3.1887    0.2023    9.1445 C   0  0  0  0  0  0  0  0  0  0  0  0
    1.6162   -2.5201    7.2753 O   0  0  0  0  0  0  0  0  0  0  0  0
    0.3018   -2.9878    7.0691 C   0  0  0  0  0  0  0  0  0  0  0  0
    2.7202    2.6341   11.3473 S   0  0  0  0  0  6  0  0  0  0  0  0
    1.6241    3.4410   12.0639 O   0  0  0  0  0  0  0  0  0  0  0  0
    3.9688    3.5019   11.4348 O   0  0  0  0  0  0  0  0  0  0  0  0
    3.0318    1.2032   12.2384 C   0  0  0  0  0  0  0  0  0  0  0  0
    4.3666    0.8513   12.4856 C   0  0  0  0  0  0  0  0  0  0  0  0
    4.6990   -0.2662   13.2057 C   0  0  0  0  0  0  0  0  0  0  0  0
    3.7036   -1.0826   13.7111 C   0  0  0  0  0  0  0  0  0  0  0  0
    2.4085   -0.7535   13.4787 C   0  0  0  0  0  0  0  0  0  0  0  0
    2.0795    0.3882   12.7428 C   0  0  0  0  0  0  0  0  0  0  0  0
    0.6477    0.6224   12.5443 C   0  0  0  0  0  0  0  0  0  0  0  0
  1  2  1  0
  2  3  1  0
  3  4  1  0
  4  5  1  0
  5  6  2  0
  6  7  1  0
  7  8  2  0
  8  9  1  0
  9 10  2  0
  3 11  1  0
 11 12  2  0
 11 13  1  0
 13 14  1  0
 14 15  1  0
 15 16  2  0
 16 17  1  0
 17 18  2  0
 18 19  1  0
 19 20  2  0
 18 21  1  0
 21 22  1  0
 14 23  1  0
 23 24  2  0
 23 25  2  0
 23 26  1  0
 26 27  2  0
 27 28  1  0
 28 29  2  0
 29 30  1  0
 30 31  2  0
 31 32  1  0
 10  5  1  0
 20 15  1  0
 31 26  1  0
M  END
$$$$
