
     RDKit          3D

 32 34  0  0  0  0  0  0  0  0999 V2000
    0.3850    4.0503    5.8086 C   0  0  0  0  0  0  0  0  0  0  0  0
    0.4207    5.0815    6.8848 C   0  0  0  0  0  0  0  0  0  0  0  0
   -0.0646    4.5742    8.1761 N   0  0  0  0  0  0  0  0  0  0  0  0
   -1.0042    5.3821    8.8972 C   0  0  0  0  0  0  0  0  0  0  0  0
   -1.3339    6.6777    8.2713 C   0  0  0  0  0  0  0  0  0  0  0  0
   -0.8797    7.0828    7.0446 C   0  0  0  0  0  0  0  0  0  0  0  0
   -1.2262    8.2863    6.5061 N   0  0  0  0  0  0  0  0  0  0  0  0
   -2.0344    9.1505    7.1453 C   0  0  0  0  0  0  0  0  0  0  0  0
   -2.5158    8.7810    8.3883 C   0  0  0  0  0  0  0  0  0  0  0  0
   -2.1688    7.5568    8.9457 C   0  0  0  0  0  0  0  0  0  0  0  0
    0.4179    3.3389    8.6134 C   0  0  0  0  0  0  0  0  0  0  0  0
   -0.2192    2.7034    9.4915 O   0  0  0  0  0  0  0  0  0  0  0  0
    1.6416    2.7686    8.0799 C   0  0  0  0  0  0  0  0  0  0  0  0
    2.3144    1.7991    8.9178 N   0  0  0  0  0  0  0  0  0  0  0  0
    2.1628    0.4382    8.5702 C   0  0  0  0  0  0  0  0  0  0  0  0
    1.0091   -0.2088    9.0276 C   0  0  0  0  0  0  0  0  0  0  0  0
    0.7248   -1.4863    8.7579 N   0  0  0  0  0  0  0  0  0  0  0  0
    1.5801   -2.1957    8.0118 C   0  0  0  0  0  0  0  0  0  0  0  0
    2.7329   -1.6106    7.5337 C   0  0  0  0  0  0  0  0  0  0  0  0
    3.0270   -0.2973    7.8103 C   0  0  0  0  0  0  0  0  0  0  0  0
    1.3478   -3.5443    7.6870 O   0  0  0  0  0  0  0  0  0  0  0  0
    0.0067   -3.9648    7.5704 C   0  0  0  0  0  0  0  0  0  0  0  0
    3.2528    2.2469   10.2712 S   0  0  0  0  0  6  0  0  0  0  0  0
    3.1463    3.7667   10.4838 O   0  0  0  0  0  0  0  0  0  0  0  0
    4.7212    1.9956    9.9544 O   0  0  0  0  0  0  0  0  0  0  0  0
    2.9083    1.4517   11.7503 C   0  0  0  0  0  0  0  0  0  0  0  0
    1.8775    1.9600   12.5539 C   0  0  0  0  0  0  0  0  0  0  0  0
    1.5281    1.3712   13.7409 C   0  0  0  0  0  0  0  0  0  0  0  0
    2.1996    0.2429   14.1755 C   0  0  0  0  0  0  0  0  0  0  0  0
    3.1988   -0.2584   13.4075 C   0  0  0  0  0  0  0  0  0  0  0  0
    3.5482    0.3494   12.1984 C   0  0  0  0  0  0  0  0  0  0  0  0
    4.6561   -0.2755   11.4729 C   0  0  0  0  0  0  0  0  0  0  0  0
  1  2  1  0
  2  3  1  0
  3  4  1  0
  4  5  1  0
  5  6  2  0
  6  7  1  0
  7  8  2  0
  8  9  1  0
  9 10  2  0
  3 11  1  0
 11 12  2  0
 11 13  1  0
 13 14  1  0
 14 15  1  0
 15 16  2  0
 16 17  1  0
 17 18  2  0
 18 19  1  0
 19 20  2  0
 18 21  1  0
 21 22  1  0
 14 23  1  0
 23 24  2  0
 23 25  2  0
 23 26  1  0
 26 27  2  0
 27 28  1  0
 28 29  2  0
 29 30  1  0
 30 31  2  0
 31 32  1  0
 10  5  1  0
 20 15  1  0
 31 26  1  0
M  END
$$$$
