
     RDKit          3D

 32 34  0  0  0  0  0  0  0  0999 V2000
    3.0318    5.4711   13.5797 C   0  0  0  0  0  0  0  0  0  0  0  0
    2.2693    4.2516   13.1867 C   0  0  0  0  0  0  0  0  0  0  0  0
    2.9184    3.4983   12.1044 N   0  0  0  0  0  0  0  0  0  0  0  0
    4.1129    2.7724   12.4230 C   0  0  0  0  0  0  0  0  0  0  0  0
    3.9069    1.3758   12.8546 C   0  0  0  0  0  0  0  0  0  0  0  0
    2.6951    0.7379   12.8599 C   0  0  0  0  0  0  0  0  0  0  0  0
    2.5624   -0.5598   13.2564 N   0  0  0  0  0  0  0  0  0  0  0  0
    3.6118   -1.2937   13.6671 C   0  0  0  0  0  0  0  0  0  0  0  0
    4.8551   -0.6876   13.6779 C   0  0  0  0  0  0  0  0  0  0  0  0
    5.0010    0.6340   13.2756 C   0  0  0  0  0  0  0  0  0  0  0  0
    2.3278    3.5360   10.8396 C   0  0  0  0  0  0  0  0  0  0  0  0
    2.7430    2.7604    9.9412 O   0  0  0  0  0  0  0  0  0  0  0  0
    1.2445    4.4525   10.5334 C   0  0  0  0  0  0  0  0  0  0  0  0
    0.7978    4.4787    9.1570 N   0  0  0  0  0  0  0  0  0  0  0  0
    0.8159    3.2527    8.4551 C   0  0  0  0  0  0  0  0  0  0  0  0
   -0.2940    2.4149    8.6128 C   0  0  0  0  0  0  0  0  0  0  0  0
   -0.4221    1.2373    7.9943 N   0  0  0  0  0  0  0  0  0  0  0  0
    0.5555    0.8258    7.1779 C   0  0  0  0  0  0  0  0  0  0  0  0
    1.6725    1.6097    6.9841 C   0  0  0  0  0  0  0  0  0  0  0  0
    1.8060    2.8206    7.6195 C   0  0  0  0  0  0  0  0  0  0  0  0
    0.4905   -0.4010    6.4931 O   0  0  0  0  0  0  0  0  0  0  0  0
   -0.7886   -0.9035    6.1765 C   0  0  0  0  0  0  0  0  0  0  0  0
    0.2701    5.9081    8.3880 S   0  0  0  0  0  6  0  0  0  0  0  0
    1.4274    6.9207    8.3472 O   0  0  0  0  0  0  0  0  0  0  0  0
   -0.7974    6.5648    9.2534 O   0  0  0  0  0  0  0  0  0  0  0  0
   -0.3830    5.7440    6.8116 C   0  0  0  0  0  0  0  0  0  0  0  0
    0.4997    5.7538    5.7220 C   0  0  0  0  0  0  0  0  0  0  0  0
    0.0591    5.6093    4.4324 C   0  0  0  0  0  0  0  0  0  0  0  0
   -1.2908    5.4482    4.1784 C   0  0  0  0  0  0  0  0  0  0  0  0
   -2.1550    5.4374    5.2237 C   0  0  0  0  0  0  0  0  0  0  0  0
   -1.6961    5.5858    6.5355 C   0  0  0  0  0  0  0  0  0  0  0  0
   -2.7300    5.5773    7.5724 C   0  0  0  0  0  0  0  0  0  0  0  0
  1  2  1  0
  2  3  1  0
  3  4  1  0
  4  5  1  0
  5  6  2  0
  6  7  1  0
  7  8  2  0
  8  9  1  0
  9 10  2  0
  3 11  1  0
 11 12  2  0
 11 13  1  0
 13 14  1  0
 14 15  1  0
 15 16  2  0
 16 17  1  0
 17 18  2  0
 18 19  1  0
 19 20  2  0
 18 21  1  0
 21 22  1  0
 14 23  1  0
 23 24  2  0
 23 25  2  0
 23 26  1  0
 26 27  2  0
 27 28  1  0
 28 29  2  0
 29 30  1  0
 30 31  2  0
 31 32  1  0
 10  5  1  0
 20 15  1  0
 31 26  1  0
M  END
$$$$
