
     RDKit          3D

 32 34  0  0  0  0  0  0  0  0999 V2000
    0.6339    7.2556   10.9797 C   0  0  0  0  0  0  0  0  0  0  0  0
    1.4381    6.0652   11.3787 C   0  0  0  0  0  0  0  0  0  0  0  0
    0.9988    4.8314   10.7116 N   0  0  0  0  0  0  0  0  0  0  0  0
    0.6803    3.7050   11.5394 C   0  0  0  0  0  0  0  0  0  0  0  0
    1.8106    2.8058   11.8443 C   0  0  0  0  0  0  0  0  0  0  0  0
    3.1089    3.0429   11.4787 C   0  0  0  0  0  0  0  0  0  0  0  0
    4.1187    2.1844   11.7981 N   0  0  0  0  0  0  0  0  0  0  0  0
    3.9033    1.0520   12.4907 C   0  0  0  0  0  0  0  0  0  0  0  0
    2.6054    0.7733   12.8795 C   0  0  0  0  0  0  0  0  0  0  0  0
    1.5695    1.6418   12.5594 C   0  0  0  0  0  0  0  0  0  0  0  0
    0.9173    4.8384    9.3176 C   0  0  0  0  0  0  0  0  0  0  0  0
   -0.0755    5.3718    8.7601 O   0  0  0  0  0  0  0  0  0  0  0  0
    1.9521    4.2417    8.4925 C   0  0  0  0  0  0  0  0  0  0  0  0
    1.5430    3.1365    7.6525 N   0  0  0  0  0  0  0  0  0  0  0  0
    1.7296    1.8356    8.1709 C   0  0  0  0  0  0  0  0  0  0  0  0
    0.5770    1.0931    8.4517 C   0  0  0  0  0  0  0  0  0  0  0  0
    0.6025   -0.1562    8.9251 N   0  0  0  0  0  0  0  0  0  0  0  0
    1.7864   -0.7400    9.1465 C   0  0  0  0  0  0  0  0  0  0  0  0
    2.9552   -0.0567    8.8880 C   0  0  0  0  0  0  0  0  0  0  0  0
    2.9309    1.2281    8.4016 C   0  0  0  0  0  0  0  0  0  0  0  0
    1.8918   -2.0516    9.6433 O   0  0  0  0  0  0  0  0  0  0  0  0
    0.6936   -2.7382    9.9295 C   0  0  0  0  0  0  0  0  0  0  0  0
    0.8655    3.3610    6.1021 S   0  0  0  0  0  6  0  0  0  0  0  0
    0.5133    1.9911    5.4977 O   0  0  0  0  0  0  0  0  0  0  0  0
    1.9324    3.9360    5.1796 O   0  0  0  0  0  0  0  0  0  0  0  0
   -0.5046    4.3859    5.9962 C   0  0  0  0  0  0  0  0  0  0  0  0
   -1.7735    3.8217    6.1913 C   0  0  0  0  0  0  0  0  0  0  0  0
   -2.9163    4.5762    6.1417 C   0  0  0  0  0  0  0  0  0  0  0  0
   -2.8363    5.9343    5.8932 C   0  0  0  0  0  0  0  0  0  0  0  0
   -1.6148    6.4922    5.7024 C   0  0  0  0  0  0  0  0  0  0  0  0
   -0.4548    5.7143    5.7547 C   0  0  0  0  0  0  0  0  0  0  0  0
    0.7991    6.4307    5.5121 C   0  0  0  0  0  0  0  0  0  0  0  0
  1  2  1  0
  2  3  1  0
  3  4  1  0
  4  5  1  0
  5  6  2  0
  6  7  1  0
  7  8  2  0
  8  9  1  0
  9 10  2  0
  3 11  1  0
 11 12  2  0
 11 13  1  0
 13 14  1  0
 14 15  1  0
 15 16  2  0
 16 17  1  0
 17 18  2  0
 18 19  1  0
 19 20  2  0
 18 21  1  0
 21 22  1  0
 14 23  1  0
 23 24  2  0
 23 25  2  0
 23 26  1  0
 26 27  2  0
 27 28  1  0
 28 29  2  0
 29 30  1  0
 30 31  2  0
 31 32  1  0
 10  5  1  0
 20 15  1  0
 31 26  1  0
M  END
$$$$
