
     RDKit          3D

 32 34  0  0  0  0  0  0  0  0999 V2000
    2.9268    5.4941   12.2516 C   0  0  0  0  0  0  0  0  0  0  0  0
    3.4301    4.1007   12.0838 C   0  0  0  0  0  0  0  0  0  0  0  0
    2.3480    3.1213   11.9106 N   0  0  0  0  0  0  0  0  0  0  0  0
    2.3404    1.9787   12.7766 C   0  0  0  0  0  0  0  0  0  0  0  0
    3.4174    0.9980   12.5374 C   0  0  0  0  0  0  0  0  0  0  0  0
    4.3532    1.1029   11.5431 C   0  0  0  0  0  0  0  0  0  0  0  0
    5.3367    0.1740   11.3742 N   0  0  0  0  0  0  0  0  0  0  0  0
    5.4491   -0.9026   12.1723 C   0  0  0  0  0  0  0  0  0  0  0  0
    4.5235   -1.0479   13.1898 C   0  0  0  0  0  0  0  0  0  0  0  0
    3.5177   -0.1068   13.3704 C   0  0  0  0  0  0  0  0  0  0  0  0
    1.3979    3.3693   10.9178 C   0  0  0  0  0  0  0  0  0  0  0  0
    0.4985    2.5185   10.6979 O   0  0  0  0  0  0  0  0  0  0  0  0
    1.4230    4.5875   10.1287 C   0  0  0  0  0  0  0  0  0  0  0  0
    0.8974    4.4900    8.7838 N   0  0  0  0  0  0  0  0  0  0  0  0
    0.7636    3.1922    8.2416 C   0  0  0  0  0  0  0  0  0  0  0  0
   -0.3605    2.4549    8.6304 C   0  0  0  0  0  0  0  0  0  0  0  0
   -0.6261    1.2246    8.1816 N   0  0  0  0  0  0  0  0  0  0  0  0
    0.2196    0.6562    7.3137 C   0  0  0  0  0  0  0  0  0  0  0  0
    1.3435    1.3354    6.8951 C   0  0  0  0  0  0  0  0  0  0  0  0
    1.6183    2.6003    7.3559 C   0  0  0  0  0  0  0  0  0  0  0  0
    0.0057   -0.6348    6.7981 O   0  0  0  0  0  0  0  0  0  0  0  0
   -1.3230   -1.1050    6.7489 C   0  0  0  0  0  0  0  0  0  0  0  0
    0.4527    5.8600    7.8682 S   0  0  0  0  0  6  0  0  0  0  0  0
    1.7215    6.5978    7.4078 O   0  0  0  0  0  0  0  0  0  0  0  0
   -0.2674    6.8457    8.7791 O   0  0  0  0  0  0  0  0  0  0  0  0
   -0.5586    5.5898    6.5107 C   0  0  0  0  0  0  0  0  0  0  0  0
    0.0451    5.4028    5.2588 C   0  0  0  0  0  0  0  0  0  0  0  0
   -0.6919    5.1630    4.1286 C   0  0  0  0  0  0  0  0  0  0  0  0
   -2.0714    5.1001    4.2048 C   0  0  0  0  0  0  0  0  0  0  0  0
   -2.6674    5.2797    5.4099 C   0  0  0  0  0  0  0  0  0  0  0  0
   -1.9073    5.5240    6.5569 C   0  0  0  0  0  0  0  0  0  0  0  0
   -2.6698    5.7206    7.7915 C   0  0  0  0  0  0  0  0  0  0  0  0
  1  2  1  0
  2  3  1  0
  3  4  1  0
  4  5  1  0
  5  6  2  0
  6  7  1  0
  7  8  2  0
  8  9  1  0
  9 10  2  0
  3 11  1  0
 11 12  2  0
 11 13  1  0
 13 14  1  0
 14 15  1  0
 15 16  2  0
 16 17  1  0
 17 18  2  0
 18 19  1  0
 19 20  2  0
 18 21  1  0
 21 22  1  0
 14 23  1  0
 23 24  2  0
 23 25  2  0
 23 26  1  0
 26 27  2  0
 27 28  1  0
 28 29  2  0
 29 30  1  0
 30 31  2  0
 31 32  1  0
 10  5  1  0
 20 15  1  0
 31 26  1  0
M  END
$$$$
