
     RDKit          3D

 32 34  0  0  0  0  0  0  0  0999 V2000
    4.5194    4.4202   10.0746 C   0  0  0  0  0  0  0  0  0  0  0  0
    3.4499    3.3891    9.9485 C   0  0  0  0  0  0  0  0  0  0  0  0
    2.5826    3.3202   11.1331 N   0  0  0  0  0  0  0  0  0  0  0  0
    3.0473    2.5564   12.2539 C   0  0  0  0  0  0  0  0  0  0  0  0
    2.9823    1.0908   12.0896 C   0  0  0  0  0  0  0  0  0  0  0  0
    2.5907    0.4572   10.9405 C   0  0  0  0  0  0  0  0  0  0  0  0
    2.5616   -0.9020   10.8377 N   0  0  0  0  0  0  0  0  0  0  0  0
    2.9147   -1.7047   11.8573 C   0  0  0  0  0  0  0  0  0  0  0  0
    3.3166   -1.1057   13.0375 C   0  0  0  0  0  0  0  0  0  0  0  0
    3.3500    0.2784   13.1523 C   0  0  0  0  0  0  0  0  0  0  0  0
    1.3665    4.0051   11.0906 C   0  0  0  0  0  0  0  0  0  0  0  0
    0.4936    3.7676   11.9640 O   0  0  0  0  0  0  0  0  0  0  0  0
    1.0820    4.9861   10.0591 C   0  0  0  0  0  0  0  0  0  0  0  0
    0.0273    4.6480    9.1275 N   0  0  0  0  0  0  0  0  0  0  0  0
   -0.2214    3.2738    8.9138 C   0  0  0  0  0  0  0  0  0  0  0  0
    0.4572    2.6637    7.8527 C   0  0  0  0  0  0  0  0  0  0  0  0
    0.3352    1.3685    7.5476 N   0  0  0  0  0  0  0  0  0  0  0  0
   -0.4754    0.6031    8.2883 C   0  0  0  0  0  0  0  0  0  0  0  0
   -1.1693    1.1498    9.3463 C   0  0  0  0  0  0  0  0  0  0  0  0
   -1.0453    2.4815    9.6612 C   0  0  0  0  0  0  0  0  0  0  0  0
   -0.6538   -0.7674    8.0274 O   0  0  0  0  0  0  0  0  0  0  0  0
   -0.3176   -1.2348    6.7400 C   0  0  0  0  0  0  0  0  0  0  0  0
   -0.8900    5.8309    8.3076 S   0  0  0  0  0  6  0  0  0  0  0  0
   -0.3197    7.2247    8.6215 O   0  0  0  0  0  0  0  0  0  0  0  0
   -2.3001    5.8436    8.8831 O   0  0  0  0  0  0  0  0  0  0  0  0
   -1.0356    5.6580    6.6083 C   0  0  0  0  0  0  0  0  0  0  0  0
   -0.0529    6.2394    5.7942 C   0  0  0  0  0  0  0  0  0  0  0  0
   -0.0870    6.1306    4.4287 C   0  0  0  0  0  0  0  0  0  0  0  0
   -1.1119    5.4314    3.8176 C   0  0  0  0  0  0  0  0  0  0  0  0
   -2.0689    4.8646    4.5938 C   0  0  0  0  0  0  0  0  0  0  0  0
   -2.0257    4.9813    5.9859 C   0  0  0  0  0  0  0  0  0  0  0  0
   -3.1272    4.3427    6.7090 C   0  0  0  0  0  0  0  0  0  0  0  0
  1  2  1  0
  2  3  1  0
  3  4  1  0
  4  5  1  0
  5  6  2  0
  6  7  1  0
  7  8  2  0
  8  9  1  0
  9 10  2  0
  3 11  1  0
 11 12  2  0
 11 13  1  0
 13 14  1  0
 14 15  1  0
 15 16  2  0
 16 17  1  0
 17 18  2  0
 18 19  1  0
 19 20  2  0
 18 21  1  0
 21 22  1  0
 14 23  1  0
 23 24  2  0
 23 25  2  0
 23 26  1  0
 26 27  2  0
 27 28  1  0
 28 29  2  0
 29 30  1  0
 30 31  2  0
 31 32  1  0
 10  5  1  0
 20 15  1  0
 31 26  1  0
M  END
$$$$
