
     RDKit          3D

 32 34  0  0  0  0  0  0  0  0999 V2000
    0.1819    2.6680    5.8013 C   0  0  0  0  0  0  0  0  0  0  0  0
    0.9452    2.8292    7.0718 C   0  0  0  0  0  0  0  0  0  0  0  0
    0.6317    4.0843    7.7694 N   0  0  0  0  0  0  0  0  0  0  0  0
    0.6060    5.2886    6.9919 C   0  0  0  0  0  0  0  0  0  0  0  0
   -0.7326    5.7257    6.5488 C   0  0  0  0  0  0  0  0  0  0  0  0
   -1.9000    5.0816    6.8612 C   0  0  0  0  0  0  0  0  0  0  0  0
   -3.1131    5.5362    6.4363 N   0  0  0  0  0  0  0  0  0  0  0  0
   -3.2391    6.6439    5.6843 C   0  0  0  0  0  0  0  0  0  0  0  0
   -2.0842    7.3253    5.3450 C   0  0  0  0  0  0  0  0  0  0  0  0
   -0.8433    6.8705    5.7731 C   0  0  0  0  0  0  0  0  0  0  0  0
    0.3763    4.0210    9.1407 C   0  0  0  0  0  0  0  0  0  0  0  0
    0.1856    5.0852    9.7827 O   0  0  0  0  0  0  0  0  0  0  0  0
    0.3274    2.7538    9.8473 C   0  0  0  0  0  0  0  0  0  0  0  0
    1.5480    1.9763    9.8526 N   0  0  0  0  0  0  0  0  0  0  0  0
    1.5084    0.7185    9.2105 C   0  0  0  0  0  0  0  0  0  0  0  0
    0.8509   -0.3172    9.8839 C   0  0  0  0  0  0  0  0  0  0  0  0
    0.7180   -1.5509    9.3880 N   0  0  0  0  0  0  0  0  0  0  0  0
    1.2363   -1.8234    8.1844 C   0  0  0  0  0  0  0  0  0  0  0  0
    1.8949   -0.8422    7.4750 C   0  0  0  0  0  0  0  0  0  0  0  0
    2.0327    0.4268    7.9836 C   0  0  0  0  0  0  0  0  0  0  0  0
    1.1356   -3.0981    7.5985 O   0  0  0  0  0  0  0  0  0  0  0  0
    0.8056   -4.1789    8.4422 C   0  0  0  0  0  0  0  0  0  0  0  0
    2.9845    2.5245   10.5936 S   0  0  0  0  0  6  0  0  0  0  0  0
    2.7058    3.8476   11.3269 O   0  0  0  0  0  0  0  0  0  0  0  0
    3.9912    2.8806    9.5075 O   0  0  0  0  0  0  0  0  0  0  0  0
    3.7616    1.4423   11.6723 C   0  0  0  0  0  0  0  0  0  0  0  0
    3.4598    1.5345   13.0386 C   0  0  0  0  0  0  0  0  0  0  0  0
    4.0239    0.6944   13.9627 C   0  0  0  0  0  0  0  0  0  0  0  0
    4.9186   -0.2785   13.5553 C   0  0  0  0  0  0  0  0  0  0  0  0
    5.2191   -0.3778   12.2365 C   0  0  0  0  0  0  0  0  0  0  0  0
    4.6389    0.4839   11.3015 C   0  0  0  0  0  0  0  0  0  0  0  0
    5.0605    0.2878    9.9130 C   0  0  0  0  0  0  0  0  0  0  0  0
  1  2  1  0
  2  3  1  0
  3  4  1  0
  4  5  1  0
  5  6  2  0
  6  7  1  0
  7  8  2  0
  8  9  1  0
  9 10  2  0
  3 11  1  0
 11 12  2  0
 11 13  1  0
 13 14  1  0
 14 15  1  0
 15 16  2  0
 16 17  1  0
 17 18  2  0
 18 19  1  0
 19 20  2  0
 18 21  1  0
 21 22  1  0
 14 23  1  0
 23 24  2  0
 23 25  2  0
 23 26  1  0
 26 27  2  0
 27 28  1  0
 28 29  2  0
 29 30  1  0
 30 31  2  0
 31 32  1  0
 10  5  1  0
 20 15  1  0
 31 26  1  0
M  END
$$$$
