
     RDKit          3D

 32 34  0  0  0  0  0  0  0  0999 V2000
    0.5045    2.7132    6.0336 C   0  0  0  0  0  0  0  0  0  0  0  0
    0.2484    2.9738    7.4791 C   0  0  0  0  0  0  0  0  0  0  0  0
    0.5247    4.3649    7.8647 N   0  0  0  0  0  0  0  0  0  0  0  0
    0.7990    5.3036    6.8163 C   0  0  0  0  0  0  0  0  0  0  0  0
   -0.3794    5.7611    6.0541 C   0  0  0  0  0  0  0  0  0  0  0  0
   -1.6705    5.6833    6.5042 C   0  0  0  0  0  0  0  0  0  0  0  0
   -2.7230    6.1338    5.7640 N   0  0  0  0  0  0  0  0  0  0  0  0
   -2.5597    6.6815    4.5467 C   0  0  0  0  0  0  0  0  0  0  0  0
   -1.2712    6.7790    4.0533 C   0  0  0  0  0  0  0  0  0  0  0  0
   -0.1919    6.3232    4.7997 C   0  0  0  0  0  0  0  0  0  0  0  0
    0.4983    4.6812    9.2245 C   0  0  0  0  0  0  0  0  0  0  0  0
    0.8334    5.8347    9.5964 O   0  0  0  0  0  0  0  0  0  0  0  0
    0.0947    3.7085   10.2237 C   0  0  0  0  0  0  0  0  0  0  0  0
    1.0581    2.6749   10.5366 N   0  0  0  0  0  0  0  0  0  0  0  0
    0.8454    1.4048    9.9553 C   0  0  0  0  0  0  0  0  0  0  0  0
    1.6733    1.0507    8.8839 C   0  0  0  0  0  0  0  0  0  0  0  0
    1.5993   -0.1248    8.2528 N   0  0  0  0  0  0  0  0  0  0  0  0
    0.6898   -1.0198    8.6571 C   0  0  0  0  0  0  0  0  0  0  0  0
   -0.1527   -0.7258    9.7076 C   0  0  0  0  0  0  0  0  0  0  0  0
   -0.0782    0.4826   10.3574 C   0  0  0  0  0  0  0  0  0  0  0  0
    0.5536   -2.2771    8.0416 O   0  0  0  0  0  0  0  0  0  0  0  0
    0.8689   -2.3688    6.6700 C   0  0  0  0  0  0  0  0  0  0  0  0
    2.3981    2.9451   11.5585 S   0  0  0  0  0  6  0  0  0  0  0  0
    1.9210    2.9972   13.0199 O   0  0  0  0  0  0  0  0  0  0  0  0
    2.9572    4.3336   11.2769 O   0  0  0  0  0  0  0  0  0  0  0  0
    3.7012    1.8378   11.4367 C   0  0  0  0  0  0  0  0  0  0  0  0
    4.6741    2.0619   10.4520 C   0  0  0  0  0  0  0  0  0  0  0  0
    5.7559    1.2342   10.3019 C   0  0  0  0  0  0  0  0  0  0  0  0
    5.9098    0.1417   11.1360 C   0  0  0  0  0  0  0  0  0  0  0  0
    4.9754   -0.0862   12.0923 C   0  0  0  0  0  0  0  0  0  0  0  0
    3.8752    0.7635   12.2374 C   0  0  0  0  0  0  0  0  0  0  0  0
    2.9281    0.3980   13.2926 C   0  0  0  0  0  0  0  0  0  0  0  0
  1  2  1  0
  2  3  1  0
  3  4  1  0
  4  5  1  0
  5  6  2  0
  6  7  1  0
  7  8  2  0
  8  9  1  0
  9 10  2  0
  3 11  1  0
 11 12  2  0
 11 13  1  0
 13 14  1  0
 14 15  1  0
 15 16  2  0
 16 17  1  0
 17 18  2  0
 18 19  1  0
 19 20  2  0
 18 21  1  0
 21 22  1  0
 14 23  1  0
 23 24  2  0
 23 25  2  0
 23 26  1  0
 26 27  2  0
 27 28  1  0
 28 29  2  0
 29 30  1  0
 30 31  2  0
 31 32  1  0
 10  5  1  0
 20 15  1  0
 31 26  1  0
M  END
$$$$
