
     RDKit          3D

 32 34  0  0  0  0  0  0  0  0999 V2000
   -2.5912    5.0368   11.1327 C   0  0  0  0  0  0  0  0  0  0  0  0
   -2.0287    4.4076    9.9036 C   0  0  0  0  0  0  0  0  0  0  0  0
   -0.9643    5.2125    9.2877 N   0  0  0  0  0  0  0  0  0  0  0  0
   -1.3574    6.2642    8.3960 C   0  0  0  0  0  0  0  0  0  0  0  0
   -1.6347    5.8446    7.0082 C   0  0  0  0  0  0  0  0  0  0  0  0
   -1.6588    4.5430    6.5830 C   0  0  0  0  0  0  0  0  0  0  0  0
   -1.9341    4.2092    5.2902 N   0  0  0  0  0  0  0  0  0  0  0  0
   -2.1984    5.1361    4.3523 C   0  0  0  0  0  0  0  0  0  0  0  0
   -2.1839    6.4641    4.7390 C   0  0  0  0  0  0  0  0  0  0  0  0
   -1.9048    6.8147    6.0539 C   0  0  0  0  0  0  0  0  0  0  0  0
    0.3577    4.9029    9.6136 C   0  0  0  0  0  0  0  0  0  0  0  0
    1.2930    5.5545    9.0830 O   0  0  0  0  0  0  0  0  0  0  0  0
    0.6813    3.8427   10.5511 C   0  0  0  0  0  0  0  0  0  0  0  0
    1.7367    2.9361   10.1527 N   0  0  0  0  0  0  0  0  0  0  0  0
    1.4226    1.9882    9.1533 C   0  0  0  0  0  0  0  0  0  0  0  0
    0.6871    0.8662    9.5516 C   0  0  0  0  0  0  0  0  0  0  0  0
    0.3020   -0.0988    8.7113 N   0  0  0  0  0  0  0  0  0  0  0  0
    0.6304    0.0012    7.4176 C   0  0  0  0  0  0  0  0  0  0  0  0
    1.3541    1.0846    6.9679 C   0  0  0  0  0  0  0  0  0  0  0  0
    1.7512    2.0776    7.8307 C   0  0  0  0  0  0  0  0  0  0  0  0
    0.2601   -0.9747    6.4749 O   0  0  0  0  0  0  0  0  0  0  0  0
    0.0512   -2.2881    6.9444 C   0  0  0  0  0  0  0  0  0  0  0  0
    3.2979    2.9828   10.8408 S   0  0  0  0  0  6  0  0  0  0  0  0
    3.4765    4.3042   11.6077 O   0  0  0  0  0  0  0  0  0  0  0  0
    4.3266    3.0365    9.7189 O   0  0  0  0  0  0  0  0  0  0  0  0
    3.7317    1.6797   11.8668 C   0  0  0  0  0  0  0  0  0  0  0  0
    3.5256    1.8229   13.2464 C   0  0  0  0  0  0  0  0  0  0  0  0
    3.8285    0.8212   14.1312 C   0  0  0  0  0  0  0  0  0  0  0  0
    4.3532   -0.3721   13.6692 C   0  0  0  0  0  0  0  0  0  0  0  0
    4.5576   -0.5230   12.3369 C   0  0  0  0  0  0  0  0  0  0  0  0
    4.2459    0.5046   11.4423 C   0  0  0  0  0  0  0  0  0  0  0  0
    4.5319    0.2257   10.0335 C   0  0  0  0  0  0  0  0  0  0  0  0
  1  2  1  0
  2  3  1  0
  3  4  1  0
  4  5  1  0
  5  6  2  0
  6  7  1  0
  7  8  2  0
  8  9  1  0
  9 10  2  0
  3 11  1  0
 11 12  2  0
 11 13  1  0
 13 14  1  0
 14 15  1  0
 15 16  2  0
 16 17  1  0
 17 18  2  0
 18 19  1  0
 19 20  2  0
 18 21  1  0
 21 22  1  0
 14 23  1  0
 23 24  2  0
 23 25  2  0
 23 26  1  0
 26 27  2  0
 27 28  1  0
 28 29  2  0
 29 30  1  0
 30 31  2  0
 31 32  1  0
 10  5  1  0
 20 15  1  0
 31 26  1  0
M  END
$$$$
