tmp_mol_0_123.sdf
     RDKit          3D

 20 21  0  0  0  0  0  0  0  0999 V2000
   -2.0794   -5.9538    5.8382 C   0  0  0  0  0  0  0  0  0  0  0  0
   -1.2115   -1.0391   11.3813 N   0  0  0  0  0  4  0  0  0  0  0  0
   -0.3519   -3.7492    9.6309 O   0  0  0  0  0  0  0  0  0  0  0  0
   -1.2510   -4.7162    5.4523 C   0  0  0  0  0  0  0  0  0  0  0  0
    1.9711   -2.5787   10.5242 O   0  0  0  0  0  0  0  0  0  0  0  0
   -1.2682   -3.9261    6.7157 C   0  0  0  0  0  0  0  0  0  0  0  0
   -1.2349   -4.9564    7.7786 C   0  0  0  0  0  0  0  0  0  0  0  0
   -1.7133   -6.1434    7.2746 C   0  0  0  0  0  0  0  0  0  0  0  0
   -1.8233   -7.3125    8.0004 C   0  0  0  0  0  0  0  0  0  0  0  0
   -2.3443   -8.5817    7.4301 C   0  0  0  0  0  0  0  0  0  0  0  0
   -1.4208   -7.2676    9.3191 C   0  0  0  0  0  0  0  0  0  0  0  0
   -0.9325   -6.0952    9.8698 C   0  0  0  0  0  0  0  0  0  0  0  0
   -0.8357   -4.9450    9.1175 C   0  0  0  0  0  0  0  0  0  0  0  0
   -0.1136   -3.5885   11.0104 C   0  0  0  0  0  0  0  0  0  0  0  0
    0.7721   -2.3756   11.2052 C   0  0  2  0  0  0  0  0  0  0  0  0
    0.0726   -1.1047   10.7506 C   0  0  2  0  0  0  0  0  0  0  0  0
    0.9134    0.1034   11.0088 C   0  0  0  0  0  0  0  0  0  0  0  0
   -2.0935   -0.0683   10.7866 C   0  0  1  0  0  0  0  0  0  0  0  0
   -2.8133   -0.7186    9.6070 C   0  0  0  0  0  0  0  0  0  0  0  0
   -3.1438    0.3047   11.7980 C   0  0  0  0  0  0  0  0  0  0  0  0
  4  1  1  6
  1  8  1  1
  2 16  1  6
  2 18  1  0
  3 13  1  0
 14  3  1  6
  4  6  1  0
 15  5  1  6
  6  7  1  1
  7  8  2  0
  7 13  1  0
  8  9  1  0
 10  9  1  6
  9 11  2  0
 11 12  1  0
 12 13  2  0
 14 15  1  0
 15 16  1  0
 16 17  1  1
 18 19  1  6
 20 18  1  6
M  CHG  1   2   1
M  END
$$$$
