tmp_mol_0_123.sdf
     RDKit          3D

 20 21  0  0  0  0  0  0  0  0999 V2000
   -2.3234   -7.4114    9.5094 C   0  0  0  0  0  0  0  0  0  0  0  0
    0.1038   -0.2743   10.8157 N   0  0  0  0  0  4  0  0  0  0  0  0
   -1.0367   -2.9865    8.5126 O   0  0  0  0  0  0  0  0  0  0  0  0
   -2.5522   -6.4670   10.7020 C   0  0  0  0  0  0  0  0  0  0  0  0
   -0.7241    0.1194    7.6380 O   0  0  0  0  0  0  0  0  0  0  0  0
   -1.6370   -5.3356   10.3809 C   0  0  0  0  0  0  0  0  0  0  0  0
   -1.6955   -5.2404    8.9044 C   0  0  0  0  0  0  0  0  0  0  0  0
   -2.0906   -6.4522    8.3873 C   0  0  0  0  0  0  0  0  0  0  0  0
   -2.2448   -6.7140    7.0407 C   0  0  0  0  0  0  0  0  0  0  0  0
   -2.6731   -8.0338    6.5093 C   0  0  0  0  0  0  0  0  0  0  0  0
   -1.9803   -5.6773    6.1700 C   0  0  0  0  0  0  0  0  0  0  0  0
   -1.5801   -4.4400    6.6445 C   0  0  0  0  0  0  0  0  0  0  0  0
   -1.4356   -4.2116    7.9955 C   0  0  0  0  0  0  0  0  0  0  0  0
   -0.1252   -2.1630    7.8224 C   0  0  0  0  0  0  0  0  0  0  0  0
   -0.1120   -0.8018    8.4861 C   0  0  2  0  0  0  0  0  0  0  0  0
   -0.7837   -0.8478    9.8492 C   0  0  2  0  0  0  0  0  0  0  0  0
   -2.1234   -0.1862    9.8201 C   0  0  0  0  0  0  0  0  0  0  0  0
   -0.3822   -0.3695   12.1681 C   0  0  1  0  0  0  0  0  0  0  0  0
    0.3586   -1.5022   12.8758 C   0  0  0  0  0  0  0  0  0  0  0  0
   -0.0387    0.9060   12.8894 C   0  0  0  0  0  0  0  0  0  0  0  0
  4  1  1  6
  1  8  1  1
  2 16  1  6
  2 18  1  0
  3 13  1  0
 14  3  1  6
  4  6  1  0
 15  5  1  6
  6  7  1  1
  7  8  2  0
  7 13  1  0
  8  9  1  0
 10  9  1  6
  9 11  2  0
 11 12  1  0
 12 13  2  0
 14 15  1  0
 15 16  1  0
 16 17  1  6
 18 19  1  1
 20 18  1  6
M  CHG  1   2   1
M  END
$$$$
