tmp_mol_0_123.sdf
     RDKit          3D

 20 21  0  0  0  0  0  0  0  0999 V2000
   -2.3343   -6.8247    6.2452 C   0  0  0  0  0  0  0  0  0  0  0  0
   -0.1424    0.0955    9.9367 N   0  0  0  0  0  4  0  0  0  0  0  0
   -1.0672   -3.8096    9.6412 O   0  0  0  0  0  0  0  0  0  0  0  0
   -1.8994   -5.4657    5.6703 C   0  0  0  0  0  0  0  0  0  0  0  0
   -0.2218   -1.5241   12.2269 O   0  0  0  0  0  0  0  0  0  0  0  0
   -2.0615   -4.5657    6.8468 C   0  0  0  0  0  0  0  0  0  0  0  0
   -1.6880   -5.4175    7.9989 C   0  0  0  0  0  0  0  0  0  0  0  0
   -1.8504   -6.7397    7.6567 C   0  0  0  0  0  0  0  0  0  0  0  0
   -1.5953   -7.8021    8.5003 C   0  0  0  0  0  0  0  0  0  0  0  0
   -1.7799   -9.2221    8.1040 C   0  0  0  0  0  0  0  0  0  0  0  0
   -1.1475   -7.4969    9.7689 C   0  0  0  0  0  0  0  0  0  0  0  0
   -0.9689   -6.1805   10.1580 C   0  0  0  0  0  0  0  0  0  0  0  0
   -1.2330   -5.1428    9.2910 C   0  0  0  0  0  0  0  0  0  0  0  0
   -0.9002   -3.4217   10.9856 C   0  0  0  0  0  0  0  0  0  0  0  0
   -0.8526   -1.9092   11.0452 C   0  0  2  0  0  0  0  0  0  0  0  0
   -0.1600   -1.3318    9.8212 C   0  0  2  0  0  0  0  0  0  0  0  0
    1.2010   -1.9205    9.6356 C   0  0  0  0  0  0  0  0  0  0  0  0
   -1.4562    0.6845    9.9682 C   0  0  1  0  0  0  0  0  0  0  0  0
   -1.5961    1.5010   11.2512 C   0  0  0  0  0  0  0  0  0  0  0  0
   -1.5768    1.6438    8.8147 C   0  0  0  0  0  0  0  0  0  0  0  0
  4  1  1  6
  1  8  1  1
  2 16  1  6
  2 18  1  0
  3 13  1  0
 14  3  1  6
  4  6  1  0
 15  5  1  1
  6  7  1  1
  7  8  2  0
  7 13  1  0
  8  9  1  0
 10  9  1  6
  9 11  2  0
 11 12  1  0
 12 13  2  0
 14 15  1  0
 15 16  1  0
 16 17  1  1
 18 19  1  1
 20 18  1  6
M  CHG  1   2   1
M  END
$$$$
