tmp_mol_0_123.sdf
     RDKit          3D

 20 21  0  0  0  0  0  0  0  0999 V2000
   -1.8694   -6.2737    5.8533 C   0  0  0  0  0  0  0  0  0  0  0  0
   -0.1389    0.3959   11.5089 N   0  0  0  0  0  4  0  0  0  0  0  0
   -1.5331   -3.1328    9.3535 O   0  0  0  0  0  0  0  0  0  0  0  0
   -1.1718   -4.9809    5.3964 C   0  0  0  0  0  0  0  0  0  0  0  0
   -2.6054   -0.5206   11.5282 O   0  0  0  0  0  0  0  0  0  0  0  0
   -1.6338   -4.0015    6.4201 C   0  0  0  0  0  0  0  0  0  0  0  0
   -1.7147   -4.8005    7.6641 C   0  0  0  0  0  0  0  0  0  0  0  0
   -1.8584   -6.1296    7.3408 C   0  0  0  0  0  0  0  0  0  0  0  0
   -1.9681   -7.1507    8.2633 C   0  0  0  0  0  0  0  0  0  0  0  0
   -2.1228   -8.5793    7.8855 C   0  0  0  0  0  0  0  0  0  0  0  0
   -1.9286   -6.7940    9.5953 C   0  0  0  0  0  0  0  0  0  0  0  0
   -1.7851   -5.4687    9.9684 C   0  0  0  0  0  0  0  0  0  0  0  0
   -1.6783   -4.4732    9.0219 C   0  0  0  0  0  0  0  0  0  0  0  0
   -2.0923   -2.6069   10.5351 C   0  0  0  0  0  0  0  0  0  0  0  0
   -1.7538   -1.1327   10.6102 C   0  0  2  0  0  0  0  0  0  0  0  0
   -0.2915   -0.9214   10.9683 C   0  0  2  0  0  0  0  0  0  0  0  0
    0.2059   -1.9913   11.8856 C   0  0  0  0  0  0  0  0  0  0  0  0
   -0.2563    1.4380   10.5217 C   0  0  1  0  0  0  0  0  0  0  0  0
   -1.6927    1.9568   10.5260 C   0  0  0  0  0  0  0  0  0  0  0  0
    0.6317    2.5829   10.9287 C   0  0  0  0  0  0  0  0  0  0  0  0
  4  1  1  6
  1  8  1  1
  2 16  1  6
  2 18  1  0
  3 13  1  0
 14  3  1  6
  4  6  1  0
 15  5  1  1
  6  7  1  1
  7  8  2  0
  7 13  1  0
  8  9  1  0
 10  9  1  6
  9 11  2  0
 11 12  1  0
 12 13  2  0
 14 15  1  0
 15 16  1  0
 16 17  1  1
 18 19  1  1
 20 18  1  6
M  CHG  1   2   1
M  END
$$$$
