tmp_mol_0_123.sdf
     RDKit          3D

 20 21  0  0  0  0  0  0  0  0999 V2000
   -1.6219   -7.8912    9.6336 C   0  0  0  0  0  0  0  0  0  0  0  0
    0.4378   -0.3568   11.4092 N   0  0  0  0  0  4  0  0  0  0  0  0
   -1.1494   -3.2230    9.1706 O   0  0  0  0  0  0  0  0  0  0  0  0
   -1.6774   -7.1732   10.9930 C   0  0  0  0  0  0  0  0  0  0  0  0
   -2.2993   -0.0942   10.4301 O   0  0  0  0  0  0  0  0  0  0  0  0
   -1.0067   -5.8782   10.6867 C   0  0  0  0  0  0  0  0  0  0  0  0
   -1.4205   -5.5849    9.2956 C   0  0  0  0  0  0  0  0  0  0  0  0
   -1.7762   -6.7579    8.6716 C   0  0  0  0  0  0  0  0  0  0  0  0
   -2.2087   -6.8470    7.3637 C   0  0  0  0  0  0  0  0  0  0  0  0
   -2.5867   -8.1288    6.7142 C   0  0  0  0  0  0  0  0  0  0  0  0
   -2.2830   -5.6687    6.6502 C   0  0  0  0  0  0  0  0  0  0  0  0
   -1.9354   -4.4640    7.2366 C   0  0  0  0  0  0  0  0  0  0  0  0
   -1.5072   -4.4097    8.5451 C   0  0  0  0  0  0  0  0  0  0  0  0
   -2.0624   -2.1567    9.2935 C   0  0  0  0  0  0  0  0  0  0  0  0
   -1.3487   -0.9871    9.9384 C   0  0  2  0  0  0  0  0  0  0  0  0
   -0.3974   -1.4558   11.0278 C   0  0  2  0  0  0  0  0  0  0  0  0
   -1.1385   -2.0544   12.1792 C   0  0  0  0  0  0  0  0  0  0  0  0
   -0.1302    0.9298   11.0991 C   0  0  1  0  0  0  0  0  0  0  0  0
    0.2559    1.9140   12.2013 C   0  0  0  0  0  0  0  0  0  0  0  0
    0.4877    1.4285    9.8206 C   0  0  0  0  0  0  0  0  0  0  0  0
  4  1  1  6
  1  8  1  1
  2 16  1  6
  2 18  1  0
  3 13  1  0
 14  3  1  6
  4  6  1  0
 15  5  1  1
  6  7  1  1
  7  8  2  0
  7 13  1  0
  8  9  1  0
 10  9  1  6
  9 11  2  0
 11 12  1  0
 12 13  2  0
 14 15  1  0
 15 16  1  0
 16 17  1  1
 18 19  1  1
 20 18  1  6
M  CHG  1   2   1
M  END
$$$$
