tmp_mol_0_123.sdf
     RDKit          3D

 20 21  0  0  0  0  0  0  0  0999 V2000
   -1.8632   -7.4033    9.6150 C   0  0  0  0  0  0  0  0  0  0  0  0
   -0.3766    0.1879   11.4983 N   0  0  0  0  0  4  0  0  0  0  0  0
   -1.3719   -2.7687    8.9015 O   0  0  0  0  0  0  0  0  0  0  0  0
   -2.2313   -6.5897   10.8676 C   0  0  0  0  0  0  0  0  0  0  0  0
   -1.0700    0.0966    8.2937 O   0  0  0  0  0  0  0  0  0  0  0  0
   -1.5294   -5.2995   10.6161 C   0  0  0  0  0  0  0  0  0  0  0  0
   -1.6273   -5.1227    9.1492 C   0  0  0  0  0  0  0  0  0  0  0  0
   -1.8168   -6.3493    8.5564 C   0  0  0  0  0  0  0  0  0  0  0  0
   -1.9456   -6.5482    7.1965 C   0  0  0  0  0  0  0  0  0  0  0  0
   -2.1494   -7.8858    6.5826 C   0  0  0  0  0  0  0  0  0  0  0  0
   -1.8772   -5.4284    6.3936 C   0  0  0  0  0  0  0  0  0  0  0  0
   -1.6878   -4.1732    6.9456 C   0  0  0  0  0  0  0  0  0  0  0  0
   -1.5628   -4.0091    8.3079 C   0  0  0  0  0  0  0  0  0  0  0  0
   -0.1724   -2.0504    8.7257 C   0  0  0  0  0  0  0  0  0  0  0  0
   -0.3755   -0.6438    9.2488 C   0  0  2  0  0  0  0  0  0  0  0  0
   -1.0944   -0.6533   10.5884 C   0  0  2  0  0  0  0  0  0  0  0  0
   -2.5297   -0.2644   10.4404 C   0  0  0  0  0  0  0  0  0  0  0  0
    0.4045   -0.5443   12.4615 C   0  0  1  0  0  0  0  0  0  0  0  0
    1.4431    0.3975   13.0672 C   0  0  0  0  0  0  0  0  0  0  0  0
   -0.5040   -0.9826   13.5785 C   0  0  0  0  0  0  0  0  0  0  0  0
  4  1  1  6
  1  8  1  1
  2 16  1  6
  2 18  1  0
  3 13  1  0
 14  3  1  6
  4  6  1  0
 15  5  1  6
  6  7  1  1
  7  8  2  0
  7 13  1  0
  8  9  1  0
 10  9  1  6
  9 11  2  0
 11 12  1  0
 12 13  2  0
 14 15  1  0
 15 16  1  0
 16 17  1  6
 18 19  1  1
 20 18  1  6
M  CHG  1   2   1
M  END
$$$$
