tmp_mol_0_123.sdf
     RDKit          3D

 20 21  0  0  0  0  0  0  0  0999 V2000
   -1.9508   -7.6735    9.0937 C   0  0  0  0  0  0  0  0  0  0  0  0
   -0.9459   -0.0211   12.2309 N   0  0  0  0  0  4  0  0  0  0  0  0
   -1.0935   -3.0515    9.4554 O   0  0  0  0  0  0  0  0  0  0  0  0
   -2.1591   -7.1640   10.5303 C   0  0  0  0  0  0  0  0  0  0  0  0
   -2.4169   -0.4613    9.8023 O   0  0  0  0  0  0  0  0  0  0  0  0
   -1.3624   -5.9047   10.5306 C   0  0  0  0  0  0  0  0  0  0  0  0
   -1.5425   -5.3709    9.1613 C   0  0  0  0  0  0  0  0  0  0  0  0
   -1.8810   -6.4003    8.3142 C   0  0  0  0  0  0  0  0  0  0  0  0
   -2.1185   -6.2538    6.9623 C   0  0  0  0  0  0  0  0  0  0  0  0
   -2.4827   -7.3845    6.0699 C   0  0  0  0  0  0  0  0  0  0  0  0
   -2.0038   -4.9805    6.4439 C   0  0  0  0  0  0  0  0  0  0  0  0
   -1.6655   -3.9134    7.2581 C   0  0  0  0  0  0  0  0  0  0  0  0
   -1.4348   -4.0940    8.6044 C   0  0  0  0  0  0  0  0  0  0  0  0
   -0.6651   -1.8069    8.9522 C   0  0  0  0  0  0  0  0  0  0  0  0
   -1.0564   -0.7298    9.9423 C   0  0  2  0  0  0  0  0  0  0  0  0
   -0.7043   -1.1355   11.3645 C   0  0  2  0  0  0  0  0  0  0  0  0
   -1.4401   -2.3686   11.7785 C   0  0  0  0  0  0  0  0  0  0  0  0
    0.0183    1.0386   12.0846 C   0  0  1  0  0  0  0  0  0  0  0  0
   -0.6796    2.3736   12.3358 C   0  0  0  0  0  0  0  0  0  0  0  0
    1.0689    0.8782   13.1503 C   0  0  0  0  0  0  0  0  0  0  0  0
  4  1  1  6
  1  8  1  1
  2 16  1  6
  2 18  1  0
  3 13  1  0
 14  3  1  6
  4  6  1  0
 15  5  1  1
  6  7  1  1
  7  8  2  0
  7 13  1  0
  8  9  1  0
 10  9  1  6
  9 11  2  0
 11 12  1  0
 12 13  2  0
 14 15  1  0
 15 16  1  0
 16 17  1  1
 18 19  1  1
 20 18  1  6
M  CHG  1   2   1
M  END
$$$$
