tmp_mol_0_123.sdf
     RDKit          3D

 20 21  0  0  0  0  0  0  0  0999 V2000
   -3.3087   -7.0690    9.1218 C   0  0  0  0  0  0  0  0  0  0  0  0
   -1.2176    0.5848   11.6247 N   0  0  0  0  0  4  0  0  0  0  0  0
   -1.4708   -2.7297    9.2729 O   0  0  0  0  0  0  0  0  0  0  0  0
   -3.9407   -6.2188   10.2373 C   0  0  0  0  0  0  0  0  0  0  0  0
   -1.0018    0.1746    8.5803 O   0  0  0  0  0  0  0  0  0  0  0  0
   -2.9085   -5.1644   10.4455 C   0  0  0  0  0  0  0  0  0  0  0  0
   -2.3635   -4.9291    9.0889 C   0  0  0  0  0  0  0  0  0  0  0  0
   -2.5886   -6.0407    8.3109 C   0  0  0  0  0  0  0  0  0  0  0  0
   -2.2043   -6.1609    6.9904 C   0  0  0  0  0  0  0  0  0  0  0  0
   -2.4604   -7.3748    6.1727 C   0  0  0  0  0  0  0  0  0  0  0  0
   -1.5516   -5.0822    6.4306 C   0  0  0  0  0  0  0  0  0  0  0  0
   -1.3033   -3.9420    7.1751 C   0  0  0  0  0  0  0  0  0  0  0  0
   -1.7002   -3.8542    8.4916 C   0  0  0  0  0  0  0  0  0  0  0  0
   -0.2709   -1.9985    9.1680 C   0  0  0  0  0  0  0  0  0  0  0  0
   -0.5277   -0.5854    9.6482 C   0  0  2  0  0  0  0  0  0  0  0  0
   -1.4914   -0.5704   10.8239 C   0  0  2  0  0  0  0  0  0  0  0  0
   -2.9122   -0.6413   10.3660 C   0  0  0  0  0  0  0  0  0  0  0  0
   -0.1579    0.3831   12.5789 C   0  0  1  0  0  0  0  0  0  0  0  0
    0.8809    1.4878   12.3979 C   0  0  0  0  0  0  0  0  0  0  0  0
   -0.7284    0.5311   13.9638 C   0  0  0  0  0  0  0  0  0  0  0  0
  4  1  1  6
  1  8  1  1
  2 16  1  6
  2 18  1  0
  3 13  1  0
 14  3  1  6
  4  6  1  0
 15  5  1  6
  6  7  1  1
  7  8  2  0
  7 13  1  0
  8  9  1  0
 10  9  1  6
  9 11  2  0
 11 12  1  0
 12 13  2  0
 14 15  1  0
 15 16  1  0
 16 17  1  6
 18 19  1  6
 20 18  1  6
M  CHG  1   2   1
M  END
$$$$
