tmp_mol_0_123.sdf
     RDKit          3D

 20 21  0  0  0  0  0  0  0  0999 V2000
   -2.1193   -6.2780    5.9309 C   0  0  0  0  0  0  0  0  0  0  0  0
   -0.1499    0.1392   10.1868 N   0  0  0  0  0  4  0  0  0  0  0  0
   -1.6631   -3.1582    9.4364 O   0  0  0  0  0  0  0  0  0  0  0  0
   -1.4472   -4.9783    5.4559 C   0  0  0  0  0  0  0  0  0  0  0  0
   -1.1439   -2.0668   12.4613 O   0  0  0  0  0  0  0  0  0  0  0  0
   -1.8741   -4.0082    6.5034 C   0  0  0  0  0  0  0  0  0  0  0  0
   -1.9016   -4.8158    7.7442 C   0  0  0  0  0  0  0  0  0  0  0  0
   -2.0506   -6.1436    7.4178 C   0  0  0  0  0  0  0  0  0  0  0  0
   -2.1185   -7.1712    8.3370 C   0  0  0  0  0  0  0  0  0  0  0  0
   -2.2801   -8.5982    7.9560 C   0  0  0  0  0  0  0  0  0  0  0  0
   -2.0287   -6.8230    9.6688 C   0  0  0  0  0  0  0  0  0  0  0  0
   -1.8780   -5.4994   10.0449 C   0  0  0  0  0  0  0  0  0  0  0  0
   -1.8138   -4.4971    9.1018 C   0  0  0  0  0  0  0  0  0  0  0  0
   -2.3767   -2.5875   10.5091 C   0  0  0  0  0  0  0  0  0  0  0  0
   -1.4801   -1.5807   11.1990 C   0  0  2  0  0  0  0  0  0  0  0  0
   -0.2466   -1.2787   10.3631 C   0  0  2  0  0  0  0  0  0  0  0  0
    0.9820   -1.8783   10.9666 C   0  0  0  0  0  0  0  0  0  0  0  0
   -1.0782    0.8827   10.9989 C   0  0  1  0  0  0  0  0  0  0  0  0
   -0.5182    0.9819   12.4163 C   0  0  0  0  0  0  0  0  0  0  0  0
   -1.1697    2.2840   10.4574 C   0  0  0  0  0  0  0  0  0  0  0  0
  4  1  1  6
  1  8  1  1
  2 16  1  6
  2 18  1  0
  3 13  1  0
 14  3  1  6
  4  6  1  0
 15  5  1  1
  6  7  1  1
  7  8  2  0
  7 13  1  0
  8  9  1  0
 10  9  1  6
  9 11  2  0
 11 12  1  0
 12 13  2  0
 14 15  1  0
 15 16  1  0
 16 17  1  1
 18 19  1  1
 20 18  1  6
M  CHG  1   2   1
M  END
$$$$
