tmp_mol_0_123.sdf
     RDKit          3D

 20 21  0  0  0  0  0  0  0  0999 V2000
   -0.6369   -6.8217   12.9661 C   0  0  0  0  0  0  0  0  0  0  0  0
   -0.5879   -1.2558    7.5632 N   0  0  0  0  0  4  0  0  0  0  0  0
   -0.5756   -5.0197    8.6097 O   0  0  0  0  0  0  0  0  0  0  0  0
   -0.5419   -5.2863   12.9837 C   0  0  0  0  0  0  0  0  0  0  0  0
   -0.6745   -3.5584    5.3798 O   0  0  0  0  0  0  0  0  0  0  0  0
   -0.0190   -4.9929   11.6195 C   0  0  0  0  0  0  0  0  0  0  0  0
   -0.6544   -6.0235   10.7670 C   0  0  0  0  0  0  0  0  0  0  0  0
   -1.0131   -7.0984   11.5465 C   0  0  0  0  0  0  0  0  0  0  0  0
   -1.6271   -8.2391   11.0694 C   0  0  0  0  0  0  0  0  0  0  0  0
   -2.0038   -9.3865   11.9349 C   0  0  0  0  0  0  0  0  0  0  0  0
   -1.8908   -8.2853    9.7161 C   0  0  0  0  0  0  0  0  0  0  0  0
   -1.5479   -7.2271    8.8924 C   0  0  0  0  0  0  0  0  0  0  0  0
   -0.9356   -6.1023    9.4007 C   0  0  0  0  0  0  0  0  0  0  0  0
   -1.1055   -4.8514    7.3149 C   0  0  0  0  0  0  0  0  0  0  0  0
   -0.6304   -3.5196    6.7724 C   0  0  2  0  0  0  0  0  0  0  0  0
   -1.4552   -2.3717    7.3319 C   0  0  2  0  0  0  0  0  0  0  0  0
   -2.6076   -2.0417    6.4394 C   0  0  0  0  0  0  0  0  0  0  0  0
   -0.8850   -0.5406    8.7774 C   0  0  1  0  0  0  0  0  0  0  0  0
   -0.0837   -1.1614    9.9198 C   0  0  0  0  0  0  0  0  0  0  0  0
   -0.4120    0.8797    8.6223 C   0  0  0  0  0  0  0  0  0  0  0  0
  4  1  1  6
  1  8  1  1
  2 16  1  6
  2 18  1  0
  3 13  1  0
 14  3  1  6
  4  6  1  0
 15  5  1  6
  6  7  1  1
  7  8  2  0
  7 13  1  0
  8  9  1  0
 10  9  1  6
  9 11  2  0
 11 12  1  0
 12 13  2  0
 14 15  1  0
 15 16  1  0
 16 17  1  6
 18 19  1  1
 20 18  1  6
M  CHG  1   2   1
M  END
$$$$
