tmp_mol_0_123.sdf
     RDKit          3D

 20 21  0  0  0  0  0  0  0  0999 V2000
   -1.8438   -6.1727    5.8420 C   0  0  0  0  0  0  0  0  0  0  0  0
   -0.2183    0.4843   11.0795 N   0  0  0  0  0  4  0  0  0  0  0  0
   -1.6219   -3.2301    9.5192 O   0  0  0  0  0  0  0  0  0  0  0  0
   -1.2123   -4.8236    5.4575 C   0  0  0  0  0  0  0  0  0  0  0  0
   -2.0551   -0.9832   12.2783 O   0  0  0  0  0  0  0  0  0  0  0  0
   -1.7100   -3.9290    6.5404 C   0  0  0  0  0  0  0  0  0  0  0  0
   -1.7410   -4.8025    7.7356 C   0  0  0  0  0  0  0  0  0  0  0  0
   -1.8251   -6.1157    7.3353 C   0  0  0  0  0  0  0  0  0  0  0  0
   -1.8777   -7.1932    8.1967 C   0  0  0  0  0  0  0  0  0  0  0  0
   -1.9686   -8.6029    7.7363 C   0  0  0  0  0  0  0  0  0  0  0  0
   -1.8421   -6.9138    9.5471 C   0  0  0  0  0  0  0  0  0  0  0  0
   -1.7576   -5.6073    9.9968 C   0  0  0  0  0  0  0  0  0  0  0  0
   -1.7069   -4.5540    9.1101 C   0  0  0  0  0  0  0  0  0  0  0  0
   -1.8071   -2.8680   10.8683 C   0  0  0  0  0  0  0  0  0  0  0  0
   -1.7498   -1.3581   10.9710 C   0  0  2  0  0  0  0  0  0  0  0  0
   -0.3939   -0.8278   10.5333 C   0  0  2  0  0  0  0  0  0  0  0  0
    0.7061   -1.7684   10.9055 C   0  0  0  0  0  0  0  0  0  0  0  0
   -0.5630    1.5387   10.1611 C   0  0  1  0  0  0  0  0  0  0  0  0
   -1.7458    2.3180   10.7321 C   0  0  0  0  0  0  0  0  0  0  0  0
    0.5977    2.4927   10.0726 C   0  0  0  0  0  0  0  0  0  0  0  0
  4  1  1  6
  1  8  1  1
  2 16  1  6
  2 18  1  0
  3 13  1  0
 14  3  1  6
  4  6  1  0
 15  5  1  1
  6  7  1  1
  7  8  2  0
  7 13  1  0
  8  9  1  0
 10  9  1  6
  9 11  2  0
 11 12  1  0
 12 13  2  0
 14 15  1  0
 15 16  1  0
 16 17  1  1
 18 19  1  1
 20 18  1  6
M  CHG  1   2   1
M  END
$$$$
