tmp_mol_0_123.sdf
     RDKit          3D

 20 21  0  0  0  0  0  0  0  0999 V2000
   -2.0549   -6.5492    5.6895 C   0  0  0  0  0  0  0  0  0  0  0  0
   -1.3190    0.4153   10.5484 N   0  0  0  0  0  4  0  0  0  0  0  0
   -0.7790   -3.6171    9.1541 O   0  0  0  0  0  0  0  0  0  0  0  0
   -1.3477   -5.2957    5.1463 C   0  0  0  0  0  0  0  0  0  0  0  0
    0.7664   -1.4636    9.6763 O   0  0  0  0  0  0  0  0  0  0  0  0
   -1.5170   -4.3329    6.2710 C   0  0  0  0  0  0  0  0  0  0  0  0
   -1.4269   -5.1818    7.4809 C   0  0  0  0  0  0  0  0  0  0  0  0
   -1.7457   -6.4782    7.1499 C   0  0  0  0  0  0  0  0  0  0  0  0
   -1.7651   -7.5304    8.0433 C   0  0  0  0  0  0  0  0  0  0  0  0
   -2.1138   -8.9224    7.6580 C   0  0  0  0  0  0  0  0  0  0  0  0
   -1.4394   -7.2425    9.3525 C   0  0  0  0  0  0  0  0  0  0  0  0
   -1.1115   -5.9523    9.7321 C   0  0  0  0  0  0  0  0  0  0  0  0
   -1.1018   -4.9241    8.8151 C   0  0  0  0  0  0  0  0  0  0  0  0
   -0.5653   -3.2407   10.4951 C   0  0  0  0  0  0  0  0  0  0  0  0
   -0.2915   -1.7518   10.5368 C   0  0  2  0  0  0  0  0  0  0  0  0
   -1.5372   -0.9533   10.1877 C   0  0  2  0  0  0  0  0  0  0  0  0
   -1.9122   -1.1270    8.7515 C   0  0  0  0  0  0  0  0  0  0  0  0
   -1.0633    0.6043   11.9531 C   0  0  1  0  0  0  0  0  0  0  0  0
   -0.3448    1.9382   12.1448 C   0  0  0  0  0  0  0  0  0  0  0  0
   -2.3834    0.7028   12.6692 C   0  0  0  0  0  0  0  0  0  0  0  0
  4  1  1  6
  1  8  1  1
  2 16  1  6
  2 18  1  0
  3 13  1  0
 14  3  1  6
  4  6  1  0
 15  5  1  6
  6  7  1  1
  7  8  2  0
  7 13  1  0
  8  9  1  0
 10  9  1  6
  9 11  2  0
 11 12  1  0
 12 13  2  0
 14 15  1  0
 15 16  1  0
 16 17  1  6
 18 19  1  6
 20 18  1  6
M  CHG  1   2   1
M  END
$$$$
