tmp_mol_0_123.sdf
     RDKit          3D

 20 21  0  0  0  0  0  0  0  0999 V2000
   -1.1111   -7.8384    9.3915 C   0  0  0  0  0  0  0  0  0  0  0  0
   -0.2697   -0.2794   11.3874 N   0  0  0  0  0  4  0  0  0  0  0  0
   -1.8017   -3.2061    9.9338 O   0  0  0  0  0  0  0  0  0  0  0  0
   -1.5940   -7.4946   10.8111 C   0  0  0  0  0  0  0  0  0  0  0  0
   -3.6557   -1.5294   10.9191 O   0  0  0  0  0  0  0  0  0  0  0  0
   -1.2420   -6.0504   10.9165 C   0  0  0  0  0  0  0  0  0  0  0  0
   -1.4632   -5.5308    9.5477 C   0  0  0  0  0  0  0  0  0  0  0  0
   -1.3824   -6.5696    8.6498 C   0  0  0  0  0  0  0  0  0  0  0  0
   -1.5362   -6.4359    7.2845 C   0  0  0  0  0  0  0  0  0  0  0  0
   -1.4436   -7.5765    6.3368 C   0  0  0  0  0  0  0  0  0  0  0  0
   -1.7876   -5.1663    6.8071 C   0  0  0  0  0  0  0  0  0  0  0  0
   -1.8777   -4.0902    7.6731 C   0  0  0  0  0  0  0  0  0  0  0  0
   -1.7190   -4.2580    9.0314 C   0  0  0  0  0  0  0  0  0  0  0  0
   -1.7931   -1.8661    9.4980 C   0  0  0  0  0  0  0  0  0  0  0  0
   -2.4086   -1.0061   10.5820 C   0  0  2  0  0  0  0  0  0  0  0  0
   -1.4926   -0.9056   11.7911 C   0  0  2  0  0  0  0  0  0  0  0  0
   -2.1628   -0.2024   12.9268 C   0  0  0  0  0  0  0  0  0  0  0  0
    0.6757   -0.1212   12.4623 C   0  0  1  0  0  0  0  0  0  0  0  0
    2.0884   -0.1972   11.8870 C   0  0  0  0  0  0  0  0  0  0  0  0
    0.5069    1.2551   13.0475 C   0  0  0  0  0  0  0  0  0  0  0  0
  4  1  1  6
  1  8  1  1
  2 16  1  6
  2 18  1  0
  3 13  1  0
 14  3  1  6
  4  6  1  0
 15  5  1  1
  6  7  1  1
  7  8  2  0
  7 13  1  0
  8  9  1  0
 10  9  1  6
  9 11  2  0
 11 12  1  0
 12 13  2  0
 14 15  1  0
 15 16  1  0
 16 17  1  1
 18 19  1  6
 20 18  1  6
M  CHG  1   2   1
M  END
$$$$
