
     RDKit          3D

 25 25  0  0  0  0  0  0  0  0999 V2000
    9.8378    0.0244    3.7393 C   0  0  0  0  0  0  0  0  0  0  0  0
    8.8399    0.0946    4.8859 C   0  0  0  0  0  0  0  0  0  0  0  0
    8.3677   -1.2815    5.2813 C   0  0  0  0  0  0  0  0  0  0  0  0
    7.4236   -1.2624    6.4472 C   0  0  0  0  0  0  0  0  0  0  0  0
    7.0006   -2.6731    6.8024 C   0  0  0  0  0  0  0  0  0  0  0  0
    8.0946   -3.4262    7.5140 C   0  0  0  0  0  0  0  0  0  0  0  0
    7.8066   -3.4466    8.9723 C   0  0  0  0  0  0  0  0  0  0  0  0
    7.8318   -2.3434    9.7175 C   0  0  0  0  0  0  0  0  0  0  0  0
    7.7462   -2.4096   11.1889 C   0  0  0  0  0  0  0  0  0  0  0  0
    8.6062   -1.3982   11.8976 C   0  0  0  0  0  0  0  0  0  0  0  0
    7.8850   -1.0680   13.1939 C   0  0  0  0  0  0  0  0  0  0  0  0
    6.6498   -1.8937   13.1580 C   0  0  0  0  0  0  0  0  0  0  0  0
    5.9994   -2.3033   14.0724 O   0  0  0  0  0  0  0  0  0  0  0  0
    6.3638   -2.1235   11.7161 C   0  0  0  0  0  0  0  0  0  0  0  0
    5.8020   -0.8266   11.1745 C   0  0  0  0  0  0  0  0  0  0  0  0
    6.4696   -0.6139    9.8394 C   0  0  0  0  0  0  0  0  0  0  0  0
    6.1338    0.3791    9.0432 C   0  0  0  0  0  0  0  0  0  0  0  0
    5.0270    0.2414    8.0612 C   0  0  0  0  0  0  0  0  0  0  0  0
    5.5191   -0.0891    6.6912 C   0  0  0  0  0  0  0  0  0  0  0  0
    4.4039   -0.1810    5.6943 C   0  0  0  0  0  0  0  0  0  0  0  0
    3.8831    1.1625    5.3946 C   0  0  0  0  0  0  0  0  0  0  0  0
    2.7838    1.5549    5.8381 O   0  0  0  0  0  0  0  0  0  0  0  0
    4.6473    2.0120    4.5919 O   0  0  0  0  0  0  0  0  0  0  0  0
    8.8423   -0.2658   11.1257 O   0  0  0  0  0  0  0  0  0  0  0  0
    8.1189   -4.7055    6.9629 O   0  0  0  0  0  0  0  0  0  0  0  0
  1  2  1  0
  2  3  1  0
  3  4  1  0
  4  5  1  0
  5  6  1  0
  6  7  1  0
  7  8  2  3
  8  9  1  0
  9 10  1  0
 10 11  1  0
 11 12  1  0
 12 13  2  0
 12 14  1  0
 14 15  1  0
 15 16  1  0
 16 17  2  3
 17 18  1  0
 18 19  1  0
 19 20  1  0
 20 21  1  0
 21 22  2  0
 21 23  1  0
 10 24  1  0
  6 25  1  0
 14  9  1  0
M  END
$$$$
