
     RDKit          3D

 25 25  0  0  0  0  0  0  0  0999 V2000
   -0.4723    2.7407    6.7959 C   0  0  0  0  0  0  0  0  0  0  0  0
    0.9161    2.1295    6.9151 C   0  0  0  0  0  0  0  0  0  0  0  0
    1.7235    2.3653    5.6639 C   0  0  0  0  0  0  0  0  0  0  0  0
    3.1536    1.9330    5.8016 C   0  0  0  0  0  0  0  0  0  0  0  0
    3.8992    2.1665    4.5037 C   0  0  0  0  0  0  0  0  0  0  0  0
    5.3712    1.8752    4.6401 C   0  0  0  0  0  0  0  0  0  0  0  0
    5.5765    0.4038    4.6926 C   0  0  0  0  0  0  0  0  0  0  0  0
    6.7360   -0.1397    5.0578 C   0  0  0  0  0  0  0  0  0  0  0  0
    7.0004   -1.5793    4.8727 C   0  0  0  0  0  0  0  0  0  0  0  0
    8.4062   -1.8917    4.4360 C   0  0  0  0  0  0  0  0  0  0  0  0
    8.7319   -3.2589    5.0142 C   0  0  0  0  0  0  0  0  0  0  0  0
    7.5074   -3.6541    5.7580 C   0  0  0  0  0  0  0  0  0  0  0  0
    7.1112   -4.7517    6.0132 O   0  0  0  0  0  0  0  0  0  0  0  0
    6.8422   -2.3792    6.1400 C   0  0  0  0  0  0  0  0  0  0  0  0
    7.6433   -1.7997    7.2860 C   0  0  0  0  0  0  0  0  0  0  0  0
    6.7184   -0.8407    7.9919 C   0  0  0  0  0  0  0  0  0  0  0  0
    6.9349   -0.4480    9.2295 C   0  0  0  0  0  0  0  0  0  0  0  0
    7.2412   -1.4242   10.3073 C   0  0  0  0  0  0  0  0  0  0  0  0
    8.4022   -1.0018   11.1451 C   0  0  0  0  0  0  0  0  0  0  0  0
    8.0921   -1.0497   12.6105 C   0  0  0  0  0  0  0  0  0  0  0  0
    7.9382   -2.4464   13.0482 C   0  0  0  0  0  0  0  0  0  0  0  0
    8.9196   -3.2089   13.1687 O   0  0  0  0  0  0  0  0  0  0  0  0
    6.6560   -2.9202   13.3334 O   0  0  0  0  0  0  0  0  0  0  0  0
    9.3170   -0.9213    4.8391 O   0  0  0  0  0  0  0  0  0  0  0  0
    5.9945    2.4560    3.5377 O   0  0  0  0  0  0  0  0  0  0  0  0
  1  2  1  0
  2  3  1  0
  3  4  1  0
  4  5  1  0
  5  6  1  0
  6  7  1  0
  7  8  2  3
  8  9  1  0
  9 10  1  0
 10 11  1  0
 11 12  1  0
 12 13  2  0
 12 14  1  0
 14 15  1  0
 15 16  1  0
 16 17  2  3
 17 18  1  0
 18 19  1  0
 19 20  1  0
 20 21  1  0
 21 22  2  0
 21 23  1  0
 10 24  1  0
  6 25  1  0
 14  9  1  0
M  END
$$$$
