
     RDKit          3D

 25 25  0  0  0  0  0  0  0  0999 V2000
   -2.0103    3.1236    6.0892 C   0  0  0  0  0  0  0  0  0  0  0  0
   -0.5838    3.5485    6.4054 C   0  0  0  0  0  0  0  0  0  0  0  0
    0.4156    2.6539    5.7169 C   0  0  0  0  0  0  0  0  0  0  0  0
    1.8279    3.1412    5.8549 C   0  0  0  0  0  0  0  0  0  0  0  0
    2.7378    2.3866    4.9074 C   0  0  0  0  0  0  0  0  0  0  0  0
    4.1228    2.2140    5.4752 C   0  0  0  0  0  0  0  0  0  0  0  0
    4.6975    0.9339    4.9841 C   0  0  0  0  0  0  0  0  0  0  0  0
    5.7251    0.3386    5.5862 C   0  0  0  0  0  0  0  0  0  0  0  0
    6.0635   -1.0709    5.3113 C   0  0  0  0  0  0  0  0  0  0  0  0
    7.3182   -1.2516    4.5003 C   0  0  0  0  0  0  0  0  0  0  0  0
    7.9182   -2.5756    4.9437 C   0  0  0  0  0  0  0  0  0  0  0  0
    6.9884   -3.0789    5.9884 C   0  0  0  0  0  0  0  0  0  0  0  0
    6.7834   -4.2067    6.3238 O   0  0  0  0  0  0  0  0  0  0  0  0
    6.3362   -1.8698    6.5597 C   0  0  0  0  0  0  0  0  0  0  0  0
    7.3627   -1.2050    7.4515 C   0  0  0  0  0  0  0  0  0  0  0  0
    7.5505   -2.1320    8.6257 C   0  0  0  0  0  0  0  0  0  0  0  0
    8.3912   -1.8587    9.6011 C   0  0  0  0  0  0  0  0  0  0  0  0
    7.9091   -1.4163   10.9353 C   0  0  0  0  0  0  0  0  0  0  0  0
    8.6610   -2.0577   12.0540 C   0  0  0  0  0  0  0  0  0  0  0  0
    7.8039   -2.9939   12.8508 C   0  0  0  0  0  0  0  0  0  0  0  0
    8.3129   -3.0953   14.2281 C   0  0  0  0  0  0  0  0  0  0  0  0
    7.8505   -2.3947   15.1524 O   0  0  0  0  0  0  0  0  0  0  0  0
    9.3400   -4.0025   14.4961 O   0  0  0  0  0  0  0  0  0  0  0  0
    8.2086   -0.1946    4.6544 O   0  0  0  0  0  0  0  0  0  0  0  0
    4.8627    3.3187    5.0592 O   0  0  0  0  0  0  0  0  0  0  0  0
  1  2  1  0
  2  3  1  0
  3  4  1  0
  4  5  1  0
  5  6  1  0
  6  7  1  0
  7  8  2  3
  8  9  1  0
  9 10  1  0
 10 11  1  0
 11 12  1  0
 12 13  2  0
 12 14  1  0
 14 15  1  0
 15 16  1  0
 16 17  2  3
 17 18  1  0
 18 19  1  0
 19 20  1  0
 20 21  1  0
 21 22  2  0
 21 23  1  0
 10 24  1  0
  6 25  1  0
 14  9  1  0
M  END
$$$$
