
     RDKit          3D

 25 25  0  0  0  0  0  0  0  0999 V2000
   -0.7246    4.3682    6.7177 C   0  0  0  0  0  0  0  0  0  0  0  0
    0.6281    3.8306    7.1613 C   0  0  0  0  0  0  0  0  0  0  0  0
    1.1589    2.8166    6.1799 C   0  0  0  0  0  0  0  0  0  0  0  0
    2.4675    2.2198    6.6072 C   0  0  0  0  0  0  0  0  0  0  0  0
    2.8497    1.0799    5.6854 C   0  0  0  0  0  0  0  0  0  0  0  0
    4.3111    1.1172    5.3205 C   0  0  0  0  0  0  0  0  0  0  0  0
    4.9466   -0.1685    5.7115 C   0  0  0  0  0  0  0  0  0  0  0  0
    6.2516   -0.2713    5.9555 C   0  0  0  0  0  0  0  0  0  0  0  0
    6.8869   -1.5818    6.1915 C   0  0  0  0  0  0  0  0  0  0  0  0
    8.2977   -1.6790    5.6770 C   0  0  0  0  0  0  0  0  0  0  0  0
    9.0153   -2.6511    6.5989 C   0  0  0  0  0  0  0  0  0  0  0  0
    7.9885   -3.0513    7.5961 C   0  0  0  0  0  0  0  0  0  0  0  0
    7.9210   -4.0589    8.2340 O   0  0  0  0  0  0  0  0  0  0  0  0
    7.0241   -1.9198    7.6537 C   0  0  0  0  0  0  0  0  0  0  0  0
    7.7005   -0.8142    8.4354 C   0  0  0  0  0  0  0  0  0  0  0  0
    6.6575   -0.2845    9.3867 C   0  0  0  0  0  0  0  0  0  0  0  0
    6.7218   -0.5038   10.6830 C   0  0  0  0  0  0  0  0  0  0  0  0
    7.7521   -1.4033   11.2642 C   0  0  0  0  0  0  0  0  0  0  0  0
    7.1743   -2.6901   11.7529 C   0  0  0  0  0  0  0  0  0  0  0  0
    8.2282   -3.7243   12.0094 C   0  0  0  0  0  0  0  0  0  0  0  0
    8.3879   -3.9335   13.4574 C   0  0  0  0  0  0  0  0  0  0  0  0
    8.1757   -5.0437   13.9881 O   0  0  0  0  0  0  0  0  0  0  0  0
    8.7878   -2.8547   14.2486 O   0  0  0  0  0  0  0  0  0  0  0  0
    8.9314   -0.4422    5.6235 O   0  0  0  0  0  0  0  0  0  0  0  0
    4.3715    1.3393    3.9464 O   0  0  0  0  0  0  0  0  0  0  0  0
  1  2  1  0
  2  3  1  0
  3  4  1  0
  4  5  1  0
  5  6  1  0
  6  7  1  0
  7  8  2  3
  8  9  1  0
  9 10  1  0
 10 11  1  0
 11 12  1  0
 12 13  2  0
 12 14  1  0
 14 15  1  0
 15 16  1  0
 16 17  2  3
 17 18  1  0
 18 19  1  0
 19 20  1  0
 20 21  1  0
 21 22  2  0
 21 23  1  0
 10 24  1  0
  6 25  1  0
 14  9  1  0
M  END
$$$$
