
     RDKit          3D

 25 25  0  0  0  0  0  0  0  0999 V2000
    3.2440    2.6622    2.5577 C   0  0  0  0  0  0  0  0  0  0  0  0
    3.4290    3.8809    3.4498 C   0  0  0  0  0  0  0  0  0  0  0  0
    3.6638    3.4755    4.8829 C   0  0  0  0  0  0  0  0  0  0  0  0
    3.8583    1.9969    5.0471 C   0  0  0  0  0  0  0  0  0  0  0  0
    4.2932    1.6793    6.4631 C   0  0  0  0  0  0  0  0  0  0  0  0
    3.7034    0.3832    6.9556 C   0  0  0  0  0  0  0  0  0  0  0  0
    4.6317   -0.7318    6.6314 C   0  0  0  0  0  0  0  0  0  0  0  0
    5.9536   -0.5731    6.6105 C   0  0  0  0  0  0  0  0  0  0  0  0
    6.8390   -1.5907    6.0129 C   0  0  0  0  0  0  0  0  0  0  0  0
    8.2087   -1.0777    5.6589 C   0  0  0  0  0  0  0  0  0  0  0  0
    9.1523   -2.2594    5.8105 C   0  0  0  0  0  0  0  0  0  0  0  0
    8.2826   -3.3809    6.2520 C   0  0  0  0  0  0  0  0  0  0  0  0
    8.4463   -4.5547    6.1037 O   0  0  0  0  0  0  0  0  0  0  0  0
    7.1265   -2.7443    6.9390 C   0  0  0  0  0  0  0  0  0  0  0  0
    7.6273   -2.2820    8.2904 C   0  0  0  0  0  0  0  0  0  0  0  0
    6.3957   -2.0421    9.1263 C   0  0  0  0  0  0  0  0  0  0  0  0
    6.4602   -1.8812   10.4312 C   0  0  0  0  0  0  0  0  0  0  0  0
    7.6649   -2.2868   11.2010 C   0  0  0  0  0  0  0  0  0  0  0  0
    7.5393   -1.9832   12.6571 C   0  0  0  0  0  0  0  0  0  0  0  0
    8.7639   -2.3757   13.4265 C   0  0  0  0  0  0  0  0  0  0  0  0
    8.9292   -3.8380   13.4001 C   0  0  0  0  0  0  0  0  0  0  0  0
    9.8766   -4.3810   12.7946 O   0  0  0  0  0  0  0  0  0  0  0  0
    7.9958   -4.6285   14.0734 O   0  0  0  0  0  0  0  0  0  0  0  0
    8.5919    0.0036    6.4449 O   0  0  0  0  0  0  0  0  0  0  0  0
    3.5136    0.5297    8.3280 O   0  0  0  0  0  0  0  0  0  0  0  0
  1  2  1  0
  2  3  1  0
  3  4  1  0
  4  5  1  0
  5  6  1  0
  6  7  1  0
  7  8  2  3
  8  9  1  0
  9 10  1  0
 10 11  1  0
 11 12  1  0
 12 13  2  0
 12 14  1  0
 14 15  1  0
 15 16  1  0
 16 17  2  3
 17 18  1  0
 18 19  1  0
 19 20  1  0
 20 21  1  0
 21 22  2  0
 21 23  1  0
 10 24  1  0
  6 25  1  0
 14  9  1  0
M  END
$$$$
