
     RDKit          3D

 25 25  0  0  0  0  0  0  0  0999 V2000
   -0.6932    3.4361    7.2955 C   0  0  0  0  0  0  0  0  0  0  0  0
   -0.2776    2.3621    6.3009 C   0  0  0  0  0  0  0  0  0  0  0  0
    1.1976    2.4408    6.0000 C   0  0  0  0  0  0  0  0  0  0  0  0
    1.9406    1.1973    6.3910 C   0  0  0  0  0  0  0  0  0  0  0  0
    3.1257    0.9838    5.4717 C   0  0  0  0  0  0  0  0  0  0  0  0
    4.4139    1.4543    6.0958 C   0  0  0  0  0  0  0  0  0  0  0  0
    5.1673    0.2798    6.6087 C   0  0  0  0  0  0  0  0  0  0  0  0
    6.4260    0.0317    6.2522 C   0  0  0  0  0  0  0  0  0  0  0  0
    6.7827   -1.1802    5.4901 C   0  0  0  0  0  0  0  0  0  0  0  0
    8.0563   -1.0523    4.6989 C   0  0  0  0  0  0  0  0  0  0  0  0
    8.6581   -2.4467    4.6427 C   0  0  0  0  0  0  0  0  0  0  0  0
    7.7101   -3.2966    5.4095 C   0  0  0  0  0  0  0  0  0  0  0  0
    7.5077   -4.4692    5.3055 O   0  0  0  0  0  0  0  0  0  0  0  0
    7.0350   -2.3795    6.3671 C   0  0  0  0  0  0  0  0  0  0  0  0
    8.0359   -2.0859    7.4638 C   0  0  0  0  0  0  0  0  0  0  0  0
    7.2404   -2.0288    8.7433 C   0  0  0  0  0  0  0  0  0  0  0  0
    7.7365   -2.4415    9.8907 C   0  0  0  0  0  0  0  0  0  0  0  0
    8.5815   -1.5538   10.7310 C   0  0  0  0  0  0  0  0  0  0  0  0
    8.0954   -1.4716   12.1400 C   0  0  0  0  0  0  0  0  0  0  0  0
    9.2001   -1.6663   13.1338 C   0  0  0  0  0  0  0  0  0  0  0  0
    9.3812   -3.1001   13.4125 C   0  0  0  0  0  0  0  0  0  0  0  0
   10.4549   -3.6870   13.1638 O   0  0  0  0  0  0  0  0  0  0  0  0
    8.3173   -3.8124   13.9695 O   0  0  0  0  0  0  0  0  0  0  0  0
    8.9339   -0.1242    5.2488 O   0  0  0  0  0  0  0  0  0  0  0  0
    5.1116    2.1351    5.1004 O   0  0  0  0  0  0  0  0  0  0  0  0
  1  2  1  0
  2  3  1  0
  3  4  1  0
  4  5  1  0
  5  6  1  0
  6  7  1  0
  7  8  2  3
  8  9  1  0
  9 10  1  0
 10 11  1  0
 11 12  1  0
 12 13  2  0
 12 14  1  0
 14 15  1  0
 15 16  1  0
 16 17  2  3
 17 18  1  0
 18 19  1  0
 19 20  1  0
 20 21  1  0
 21 22  2  0
 21 23  1  0
 10 24  1  0
  6 25  1  0
 14  9  1  0
M  END
$$$$
