
     RDKit          3D

 25 25  0  0  0  0  0  0  0  0999 V2000
    6.9015   -7.9917    8.3998 C   0  0  0  0  0  0  0  0  0  0  0  0
    6.7103   -6.4825    8.3660 C   0  0  0  0  0  0  0  0  0  0  0  0
    7.6063   -5.8436    7.3355 C   0  0  0  0  0  0  0  0  0  0  0  0
    7.1924   -4.4436    6.9891 C   0  0  0  0  0  0  0  0  0  0  0  0
    8.1637   -3.8405    5.9951 C   0  0  0  0  0  0  0  0  0  0  0  0
    7.5140   -2.7775    5.1477 C   0  0  0  0  0  0  0  0  0  0  0  0
    7.6267   -1.4650    5.8367 C   0  0  0  0  0  0  0  0  0  0  0  0
    6.5590   -0.7835    6.2474 C   0  0  0  0  0  0  0  0  0  0  0  0
    6.6315    0.6646    6.5200 C   0  0  0  0  0  0  0  0  0  0  0  0
    5.3330    1.3934    6.3030 C   0  0  0  0  0  0  0  0  0  0  0  0
    5.3328    2.5533    7.2851 C   0  0  0  0  0  0  0  0  0  0  0  0
    6.6190    2.4250    8.0188 C   0  0  0  0  0  0  0  0  0  0  0  0
    7.2580    3.2775    8.5589 O   0  0  0  0  0  0  0  0  0  0  0  0
    6.9753    0.9820    7.9525 C   0  0  0  0  0  0  0  0  0  0  0  0
    6.0681    0.2670    8.9306 C   0  0  0  0  0  0  0  0  0  0  0  0
    6.9719   -0.5906    9.7798 C   0  0  0  0  0  0  0  0  0  0  0  0
    6.7838   -0.7305   11.0751 C   0  0  0  0  0  0  0  0  0  0  0  0
    7.4062   -1.8492   11.8297 C   0  0  0  0  0  0  0  0  0  0  0  0
    6.6037   -2.2464   13.0241 C   0  0  0  0  0  0  0  0  0  0  0  0
    7.3262   -3.2323   13.8911 C   0  0  0  0  0  0  0  0  0  0  0  0
    8.1068   -4.1605   13.0572 C   0  0  0  0  0  0  0  0  0  0  0  0
    9.3230   -3.9820   12.8377 O   0  0  0  0  0  0  0  0  0  0  0  0
    7.4595   -5.2662   12.5021 O   0  0  0  0  0  0  0  0  0  0  0  0
    4.2255    0.5683    6.4659 O   0  0  0  0  0  0  0  0  0  0  0  0
    8.1752   -2.7883    3.9215 O   0  0  0  0  0  0  0  0  0  0  0  0
  1  2  1  0
  2  3  1  0
  3  4  1  0
  4  5  1  0
  5  6  1  0
  6  7  1  0
  7  8  2  3
  8  9  1  0
  9 10  1  0
 10 11  1  0
 11 12  1  0
 12 13  2  0
 12 14  1  0
 14 15  1  0
 15 16  1  0
 16 17  2  3
 17 18  1  0
 18 19  1  0
 19 20  1  0
 20 21  1  0
 21 22  2  0
 21 23  1  0
 10 24  1  0
  6 25  1  0
 14  9  1  0
M  END
$$$$
