
     RDKit          3D

 25 25  0  0  0  0  0  0  0  0999 V2000
    1.4849    2.8826    7.8140 C   0  0  0  0  0  0  0  0  0  0  0  0
    2.5839    1.8335    7.7308 C   0  0  0  0  0  0  0  0  0  0  0  0
    2.7693    1.3509    6.3146 C   0  0  0  0  0  0  0  0  0  0  0  0
    4.2093    1.1281    5.9572 C   0  0  0  0  0  0  0  0  0  0  0  0
    4.3243    0.6255    4.5327 C   0  0  0  0  0  0  0  0  0  0  0  0
    5.7596    0.5259    4.0853 C   0  0  0  0  0  0  0  0  0  0  0  0
    6.4244   -0.5850    4.8160 C   0  0  0  0  0  0  0  0  0  0  0  0
    7.3947   -0.3725    5.7028 C   0  0  0  0  0  0  0  0  0  0  0  0
    8.3628   -1.4306    6.0489 C   0  0  0  0  0  0  0  0  0  0  0  0
    9.6824   -0.9113    6.5524 C   0  0  0  0  0  0  0  0  0  0  0  0
   10.2029   -1.9577    7.5240 C   0  0  0  0  0  0  0  0  0  0  0  0
    9.1561   -3.0127    7.5366 C   0  0  0  0  0  0  0  0  0  0  0  0
    9.2716   -4.1750    7.7866 O   0  0  0  0  0  0  0  0  0  0  0  0
    7.8900   -2.3248    7.1660 C   0  0  0  0  0  0  0  0  0  0  0  0
    7.4530   -1.5379    8.3828 C   0  0  0  0  0  0  0  0  0  0  0  0
    5.9458   -1.5211    8.3433 C   0  0  0  0  0  0  0  0  0  0  0  0
    5.2293   -1.0053    9.3197 C   0  0  0  0  0  0  0  0  0  0  0  0
    5.2258   -1.6091   10.6776 C   0  0  0  0  0  0  0  0  0  0  0  0
    5.7501   -0.6753   11.7174 C   0  0  0  0  0  0  0  0  0  0  0  0
    5.3988   -1.1167   13.1058 C   0  0  0  0  0  0  0  0  0  0  0  0
    5.8273   -2.5089   13.3162 C   0  0  0  0  0  0  0  0  0  0  0  0
    5.0209   -3.4005   13.6536 O   0  0  0  0  0  0  0  0  0  0  0  0
    7.1736   -2.8293   13.1306 O   0  0  0  0  0  0  0  0  0  0  0  0
    9.5708    0.3429    7.1427 O   0  0  0  0  0  0  0  0  0  0  0  0
    5.7324    0.3105    2.7091 O   0  0  0  0  0  0  0  0  0  0  0  0
  1  2  1  0
  2  3  1  0
  3  4  1  0
  4  5  1  0
  5  6  1  0
  6  7  1  0
  7  8  2  3
  8  9  1  0
  9 10  1  0
 10 11  1  0
 11 12  1  0
 12 13  2  0
 12 14  1  0
 14 15  1  0
 15 16  1  0
 16 17  2  3
 17 18  1  0
 18 19  1  0
 19 20  1  0
 20 21  1  0
 21 22  2  0
 21 23  1  0
 10 24  1  0
  6 25  1  0
 14  9  1  0
M  END
$$$$
