
     RDKit          3D

 25 25  0  0  0  0  0  0  0  0999 V2000
    9.6064   -3.1828    1.6638 C   0  0  0  0  0  0  0  0  0  0  0  0
    9.7332   -1.8706    2.4238 C   0  0  0  0  0  0  0  0  0  0  0  0
    8.3773   -1.3039    2.7606 C   0  0  0  0  0  0  0  0  0  0  0  0
    8.4550    0.0299    3.4433 C   0  0  0  0  0  0  0  0  0  0  0  0
    7.2347    0.2446    4.3151 C   0  0  0  0  0  0  0  0  0  0  0  0
    7.4595   -0.2351    5.7256 C   0  0  0  0  0  0  0  0  0  0  0  0
    6.6863    0.6212    6.6632 C   0  0  0  0  0  0  0  0  0  0  0  0
    5.5156    0.2415    7.1717 C   0  0  0  0  0  0  0  0  0  0  0  0
    4.6966    1.1627    7.9824 C   0  0  0  0  0  0  0  0  0  0  0  0
    3.2300    0.8262    7.9960 C   0  0  0  0  0  0  0  0  0  0  0  0
    2.7058    1.2855    9.3466 C   0  0  0  0  0  0  0  0  0  0  0  0
    3.8940    1.8488   10.0393 C   0  0  0  0  0  0  0  0  0  0  0  0
    3.9333    2.6793   10.8969 O   0  0  0  0  0  0  0  0  0  0  0  0
    5.0695    1.1591    9.4426 C   0  0  0  0  0  0  0  0  0  0  0  0
    5.0923   -0.2382   10.0238 C   0  0  0  0  0  0  0  0  0  0  0  0
    6.5425   -0.6502   10.0495 C   0  0  0  0  0  0  0  0  0  0  0  0
    6.9134   -1.8730   10.3658 C   0  0  0  0  0  0  0  0  0  0  0  0
    7.6660   -2.1529   11.6163 C   0  0  0  0  0  0  0  0  0  0  0  0
    8.8095   -3.0867   11.3958 C   0  0  0  0  0  0  0  0  0  0  0  0
    9.2274   -3.7801   12.6570 C   0  0  0  0  0  0  0  0  0  0  0  0
    8.0756   -3.9167   13.5630 C   0  0  0  0  0  0  0  0  0  0  0  0
    7.9438   -3.1924   14.5716 O   0  0  0  0  0  0  0  0  0  0  0  0
    7.1114   -4.8853   13.2771 O   0  0  0  0  0  0  0  0  0  0  0  0
    2.9917   -0.5257    7.7731 O   0  0  0  0  0  0  0  0  0  0  0  0
    7.0467   -1.5651    5.7631 O   0  0  0  0  0  0  0  0  0  0  0  0
  1  2  1  0
  2  3  1  0
  3  4  1  0
  4  5  1  0
  5  6  1  0
  6  7  1  0
  7  8  2  3
  8  9  1  0
  9 10  1  0
 10 11  1  0
 11 12  1  0
 12 13  2  0
 12 14  1  0
 14 15  1  0
 15 16  1  0
 16 17  2  3
 17 18  1  0
 18 19  1  0
 19 20  1  0
 20 21  1  0
 21 22  2  0
 21 23  1  0
 10 24  1  0
  6 25  1  0
 14  9  1  0
M  END
$$$$
