
     RDKit          3D

 25 25  0  0  0  0  0  0  0  0999 V2000
    0.0940    4.8455    7.9821 C   0  0  0  0  0  0  0  0  0  0  0  0
    0.1228    3.5802    7.1374 C   0  0  0  0  0  0  0  0  0  0  0  0
    1.2871    3.5917    6.1797 C   0  0  0  0  0  0  0  0  0  0  0  0
    2.3098    2.5390    6.4909 C   0  0  0  0  0  0  0  0  0  0  0  0
    2.6977    1.7956    5.2291 C   0  0  0  0  0  0  0  0  0  0  0  0
    4.1758    1.8903    4.9522 C   0  0  0  0  0  0  0  0  0  0  0  0
    4.8308    0.6156    5.3475 C   0  0  0  0  0  0  0  0  0  0  0  0
    6.1504    0.4469    5.2908 C   0  0  0  0  0  0  0  0  0  0  0  0
    6.7494   -0.8997    5.2253 C   0  0  0  0  0  0  0  0  0  0  0  0
    8.1524   -0.9192    4.6814 C   0  0  0  0  0  0  0  0  0  0  0  0
    8.8493   -2.0881    5.3579 C   0  0  0  0  0  0  0  0  0  0  0  0
    7.8198   -2.6697    6.2584 C   0  0  0  0  0  0  0  0  0  0  0  0
    7.7286   -3.7904    6.6615 O   0  0  0  0  0  0  0  0  0  0  0  0
    6.8892   -1.5531    6.5761 C   0  0  0  0  0  0  0  0  0  0  0  0
    7.6039   -0.6638    7.5706 C   0  0  0  0  0  0  0  0  0  0  0  0
    6.6532   -0.4928    8.7282 C   0  0  0  0  0  0  0  0  0  0  0  0
    6.6369   -1.3285    9.7452 C   0  0  0  0  0  0  0  0  0  0  0  0
    7.3632   -1.0256   11.0058 C   0  0  0  0  0  0  0  0  0  0  0  0
    7.5600   -2.2374   11.8549 C   0  0  0  0  0  0  0  0  0  0  0  0
    8.2569   -1.9207   13.1433 C   0  0  0  0  0  0  0  0  0  0  0  0
    8.4522   -3.1510   13.9270 C   0  0  0  0  0  0  0  0  0  0  0  0
    8.1186   -3.2246   15.1280 O   0  0  0  0  0  0  0  0  0  0  0  0
    9.0266   -4.2587   13.3003 O   0  0  0  0  0  0  0  0  0  0  0  0
    8.8212    0.2821    4.8902 O   0  0  0  0  0  0  0  0  0  0  0  0
    4.3085    2.1515    3.5902 O   0  0  0  0  0  0  0  0  0  0  0  0
  1  2  1  0
  2  3  1  0
  3  4  1  0
  4  5  1  0
  5  6  1  0
  6  7  1  0
  7  8  2  3
  8  9  1  0
  9 10  1  0
 10 11  1  0
 11 12  1  0
 12 13  2  0
 12 14  1  0
 14 15  1  0
 15 16  1  0
 16 17  2  3
 17 18  1  0
 18 19  1  0
 19 20  1  0
 20 21  1  0
 21 22  2  0
 21 23  1  0
 10 24  1  0
  6 25  1  0
 14  9  1  0
M  END
$$$$
