
     RDKit          3D

 25 25  0  0  0  0  0  0  0  0999 V2000
   -0.5378    4.4051    7.4547 C   0  0  0  0  0  0  0  0  0  0  0  0
    0.1979    3.6111    6.3852 C   0  0  0  0  0  0  0  0  0  0  0  0
    1.6021    3.2801    6.8229 C   0  0  0  0  0  0  0  0  0  0  0  0
    2.3643    2.4957    5.7958 C   0  0  0  0  0  0  0  0  0  0  0  0
    3.7571    2.1823    6.3029 C   0  0  0  0  0  0  0  0  0  0  0  0
    4.7043    1.8524    5.1785 C   0  0  0  0  0  0  0  0  0  0  0  0
    5.2714    0.4958    5.3979 C   0  0  0  0  0  0  0  0  0  0  0  0
    6.4097    0.2997    6.0605 C   0  0  0  0  0  0  0  0  0  0  0  0
    7.0637   -1.0225    6.0869 C   0  0  0  0  0  0  0  0  0  0  0  0
    8.4929   -1.0073    5.6160 C   0  0  0  0  0  0  0  0  0  0  0  0
    9.1989   -2.1156    6.3796 C   0  0  0  0  0  0  0  0  0  0  0  0
    8.1473   -2.6996    7.2526 C   0  0  0  0  0  0  0  0  0  0  0  0
    8.0792   -3.8044    7.7014 O   0  0  0  0  0  0  0  0  0  0  0  0
    7.1582   -1.6099    7.4715 C   0  0  0  0  0  0  0  0  0  0  0  0
    7.7845   -0.6490    8.4591 C   0  0  0  0  0  0  0  0  0  0  0  0
    6.7904   -0.5080    9.5840 C   0  0  0  0  0  0  0  0  0  0  0  0
    7.1027   -0.7975   10.8296 C   0  0  0  0  0  0  0  0  0  0  0  0
    8.3110   -1.5981   11.1570 C   0  0  0  0  0  0  0  0  0  0  0  0
    8.2500   -2.1866   12.5276 C   0  0  0  0  0  0  0  0  0  0  0  0
    9.5048   -2.9239   12.8851 C   0  0  0  0  0  0  0  0  0  0  0  0
    9.3158   -3.6597   14.1456 C   0  0  0  0  0  0  0  0  0  0  0  0
    9.7680   -3.2339   15.2288 O   0  0  0  0  0  0  0  0  0  0  0  0
    8.6108   -4.8646   14.1171 O   0  0  0  0  0  0  0  0  0  0  0  0
    9.1021    0.2288    5.8032 O   0  0  0  0  0  0  0  0  0  0  0  0
    3.9646    1.9310    4.0005 O   0  0  0  0  0  0  0  0  0  0  0  0
  1  2  1  0
  2  3  1  0
  3  4  1  0
  4  5  1  0
  5  6  1  0
  6  7  1  0
  7  8  2  3
  8  9  1  0
  9 10  1  0
 10 11  1  0
 11 12  1  0
 12 13  2  0
 12 14  1  0
 14 15  1  0
 15 16  1  0
 16 17  2  3
 17 18  1  0
 18 19  1  0
 19 20  1  0
 20 21  1  0
 21 22  2  0
 21 23  1  0
 10 24  1  0
  6 25  1  0
 14  9  1  0
M  END
$$$$
