
     RDKit          3D

 25 25  0  0  0  0  0  0  0  0999 V2000
   -1.4467    3.7531    7.9299 C   0  0  0  0  0  0  0  0  0  0  0  0
   -0.6950    3.1721    6.7412 C   0  0  0  0  0  0  0  0  0  0  0  0
    0.7823    3.0753    7.0265 C   0  0  0  0  0  0  0  0  0  0  0  0
    1.5622    2.5028    5.8797 C   0  0  0  0  0  0  0  0  0  0  0  0
    3.0403    2.4784    6.2112 C   0  0  0  0  0  0  0  0  0  0  0  0
    3.8573    1.8798    5.0957 C   0  0  0  0  0  0  0  0  0  0  0  0
    4.5309    0.6493    5.5878 C   0  0  0  0  0  0  0  0  0  0  0  0
    5.8287    0.4231    5.3938 C   0  0  0  0  0  0  0  0  0  0  0  0
    6.3337   -0.9276    5.0822 C   0  0  0  0  0  0  0  0  0  0  0  0
    7.6027   -0.9345    4.2733 C   0  0  0  0  0  0  0  0  0  0  0  0
    8.3558   -2.1892    4.6835 C   0  0  0  0  0  0  0  0  0  0  0  0
    7.4906   -2.8288    5.7089 C   0  0  0  0  0  0  0  0  0  0  0  0
    7.4212   -3.9820    6.0122 O   0  0  0  0  0  0  0  0  0  0  0  0
    6.6974   -1.7227    6.3096 C   0  0  0  0  0  0  0  0  0  0  0  0
    7.6352   -0.9652    7.2248 C   0  0  0  0  0  0  0  0  0  0  0  0
    7.0791   -1.1340    8.6160 C   0  0  0  0  0  0  0  0  0  0  0  0
    7.8591   -1.3194    9.6600 C   0  0  0  0  0  0  0  0  0  0  0  0
    7.4577   -2.2163   10.7748 C   0  0  0  0  0  0  0  0  0  0  0  0
    8.4854   -2.2763   11.8558 C   0  0  0  0  0  0  0  0  0  0  0  0
    7.8808   -2.1517   13.2213 C   0  0  0  0  0  0  0  0  0  0  0  0
    8.0203   -3.4213   13.9526 C   0  0  0  0  0  0  0  0  0  0  0  0
    9.0693   -3.7166   14.5620 O   0  0  0  0  0  0  0  0  0  0  0  0
    6.9443   -4.3113   13.9580 O   0  0  0  0  0  0  0  0  0  0  0  0
    8.3601    0.2166    4.4611 O   0  0  0  0  0  0  0  0  0  0  0  0
    2.9720    1.6157    4.0529 O   0  0  0  0  0  0  0  0  0  0  0  0
  1  2  1  0
  2  3  1  0
  3  4  1  0
  4  5  1  0
  5  6  1  0
  6  7  1  0
  7  8  2  3
  8  9  1  0
  9 10  1  0
 10 11  1  0
 11 12  1  0
 12 13  2  0
 12 14  1  0
 14 15  1  0
 15 16  1  0
 16 17  2  3
 17 18  1  0
 18 19  1  0
 19 20  1  0
 20 21  1  0
 21 22  2  0
 21 23  1  0
 10 24  1  0
  6 25  1  0
 14  9  1  0
M  END
$$$$
