
     RDKit          3D

 25 25  0  0  0  0  0  0  0  0999 V2000
   -0.2357    3.9068    8.5551 C   0  0  0  0  0  0  0  0  0  0  0  0
    0.5112    3.7932    7.2342 C   0  0  0  0  0  0  0  0  0  0  0  0
    1.4297    2.5976    7.2297 C   0  0  0  0  0  0  0  0  0  0  0  0
    2.1650    2.4310    5.9326 C   0  0  0  0  0  0  0  0  0  0  0  0
    3.0828    1.2276    6.0011 C   0  0  0  0  0  0  0  0  0  0  0  0
    3.8824    1.0570    4.7354 C   0  0  0  0  0  0  0  0  0  0  0  0
    4.7830   -0.1170    4.8795 C   0  0  0  0  0  0  0  0  0  0  0  0
    6.0894    0.0122    5.1022 C   0  0  0  0  0  0  0  0  0  0  0  0
    6.9846   -1.1604    5.1174 C   0  0  0  0  0  0  0  0  0  0  0  0
    8.4085   -0.8476    4.7445 C   0  0  0  0  0  0  0  0  0  0  0  0
    9.2705   -1.8404    5.5068 C   0  0  0  0  0  0  0  0  0  0  0  0
    8.3033   -2.6604    6.2822 C   0  0  0  0  0  0  0  0  0  0  0  0
    8.4247   -3.7805    6.6789 O   0  0  0  0  0  0  0  0  0  0  0  0
    7.1108   -1.7928    6.4794 C   0  0  0  0  0  0  0  0  0  0  0  0
    7.4809   -0.7847    7.5461 C   0  0  0  0  0  0  0  0  0  0  0  0
    6.4162   -0.8983    8.6077 C   0  0  0  0  0  0  0  0  0  0  0  0
    6.6718   -1.3943    9.7999 C   0  0  0  0  0  0  0  0  0  0  0  0
    8.0589   -1.4568   10.3295 C   0  0  0  0  0  0  0  0  0  0  0  0
    8.1558   -2.2700   11.5776 C   0  0  0  0  0  0  0  0  0  0  0  0
    6.9987   -2.0337   12.5002 C   0  0  0  0  0  0  0  0  0  0  0  0
    7.0989   -2.9187   13.6720 C   0  0  0  0  0  0  0  0  0  0  0  0
    6.4440   -3.9787   13.7525 O   0  0  0  0  0  0  0  0  0  0  0  0
    7.9521   -2.5528   14.7150 O   0  0  0  0  0  0  0  0  0  0  0  0
    8.7548    0.4701    5.0236 O   0  0  0  0  0  0  0  0  0  0  0  0
    2.9613    0.8920    3.7033 O   0  0  0  0  0  0  0  0  0  0  0  0
  1  2  1  0
  2  3  1  0
  3  4  1  0
  4  5  1  0
  5  6  1  0
  6  7  1  0
  7  8  2  3
  8  9  1  0
  9 10  1  0
 10 11  1  0
 11 12  1  0
 12 13  2  0
 12 14  1  0
 14 15  1  0
 15 16  1  0
 16 17  2  3
 17 18  1  0
 18 19  1  0
 19 20  1  0
 20 21  1  0
 21 22  2  0
 21 23  1  0
 10 24  1  0
  6 25  1  0
 14  9  1  0
M  END
$$$$
