
     RDKit          3D

 25 25  0  0  0  0  0  0  0  0999 V2000
    2.2372    5.4797    4.8072 C   0  0  0  0  0  0  0  0  0  0  0  0
    1.7117    4.1010    5.1794 C   0  0  0  0  0  0  0  0  0  0  0  0
    2.7529    3.3050    5.9246 C   0  0  0  0  0  0  0  0  0  0  0  0
    2.2546    1.9604    6.3661 C   0  0  0  0  0  0  0  0  0  0  0  0
    3.3728    1.1762    7.0217 C   0  0  0  0  0  0  0  0  0  0  0  0
    3.1170   -0.3082    6.9828 C   0  0  0  0  0  0  0  0  0  0  0  0
    4.3420   -1.0040    6.5081 C   0  0  0  0  0  0  0  0  0  0  0  0
    5.4793   -0.3553    6.2655 C   0  0  0  0  0  0  0  0  0  0  0  0
    6.6673   -1.0583    5.7448 C   0  0  0  0  0  0  0  0  0  0  0  0
    7.6430   -0.1633    5.0297 C   0  0  0  0  0  0  0  0  0  0  0  0
    9.0158   -0.7768    5.2503 C   0  0  0  0  0  0  0  0  0  0  0  0
    8.7604   -1.9796    6.0852 C   0  0  0  0  0  0  0  0  0  0  0  0
    9.4061   -2.9811    6.1678 O   0  0  0  0  0  0  0  0  0  0  0  0
    7.5029   -1.6924    6.8268 C   0  0  0  0  0  0  0  0  0  0  0  0
    7.8611   -0.7110    7.9220 C   0  0  0  0  0  0  0  0  0  0  0  0
    6.5973   -0.5015    8.7172 C   0  0  0  0  0  0  0  0  0  0  0  0
    6.4602   -0.9648    9.9416 C   0  0  0  0  0  0  0  0  0  0  0  0
    7.6374   -1.3868   10.7444 C   0  0  0  0  0  0  0  0  0  0  0  0
    7.2524   -1.9084   12.0890 C   0  0  0  0  0  0  0  0  0  0  0  0
    8.4457   -2.2647   12.9226 C   0  0  0  0  0  0  0  0  0  0  0  0
    8.3873   -3.6844   13.3064 C   0  0  0  0  0  0  0  0  0  0  0  0
    7.9873   -4.0442   14.4332 O   0  0  0  0  0  0  0  0  0  0  0  0
    8.7924   -4.6452   12.3777 O   0  0  0  0  0  0  0  0  0  0  0  0
    7.5800    1.1538    5.4717 O   0  0  0  0  0  0  0  0  0  0  0  0
    2.7647   -0.6842    8.2772 O   0  0  0  0  0  0  0  0  0  0  0  0
  1  2  1  0
  2  3  1  0
  3  4  1  0
  4  5  1  0
  5  6  1  0
  6  7  1  0
  7  8  2  3
  8  9  1  0
  9 10  1  0
 10 11  1  0
 11 12  1  0
 12 13  2  0
 12 14  1  0
 14 15  1  0
 15 16  1  0
 16 17  2  3
 17 18  1  0
 18 19  1  0
 19 20  1  0
 20 21  1  0
 21 22  2  0
 21 23  1  0
 10 24  1  0
  6 25  1  0
 14  9  1  0
M  END
$$$$
