
     RDKit          3D

 25 25  0  0  0  0  0  0  0  0999 V2000
   -1.0076    3.1710    7.9434 C   0  0  0  0  0  0  0  0  0  0  0  0
   -0.0666    2.9716    6.7643 C   0  0  0  0  0  0  0  0  0  0  0  0
    1.0946    2.0860    7.1388 C   0  0  0  0  0  0  0  0  0  0  0  0
    2.0456    1.8576    6.0009 C   0  0  0  0  0  0  0  0  0  0  0  0
    3.2281    1.0314    6.4637 C   0  0  0  0  0  0  0  0  0  0  0  0
    4.1871    0.7417    5.3382 C   0  0  0  0  0  0  0  0  0  0  0  0
    4.9092   -0.5259    5.6240 C   0  0  0  0  0  0  0  0  0  0  0  0
    6.1446   -0.5440    6.1206 C   0  0  0  0  0  0  0  0  0  0  0  0
    6.9844   -1.7545    6.0439 C   0  0  0  0  0  0  0  0  0  0  0  0
    8.4073   -1.4867    5.6336 C   0  0  0  0  0  0  0  0  0  0  0  0
    9.2487   -2.5547    6.3129 C   0  0  0  0  0  0  0  0  0  0  0  0
    8.2725   -3.3694    7.0826 C   0  0  0  0  0  0  0  0  0  0  0  0
    8.3558   -4.5126    7.4185 O   0  0  0  0  0  0  0  0  0  0  0  0
    7.1293   -2.4607    7.3673 C   0  0  0  0  0  0  0  0  0  0  0  0
    7.5832   -1.5260    8.4678 C   0  0  0  0  0  0  0  0  0  0  0  0
    7.1540   -2.1724    9.7606 C   0  0  0  0  0  0  0  0  0  0  0  0
    7.4118   -1.6274   10.9308 C   0  0  0  0  0  0  0  0  0  0  0  0
    6.9713   -2.2701   12.1962 C   0  0  0  0  0  0  0  0  0  0  0  0
    7.0132   -1.3316   13.3563 C   0  0  0  0  0  0  0  0  0  0  0  0
    6.4673   -1.9505   14.6072 C   0  0  0  0  0  0  0  0  0  0  0  0
    7.4970   -2.7841   15.2485 C   0  0  0  0  0  0  0  0  0  0  0  0
    8.3575   -2.2951   16.0098 O   0  0  0  0  0  0  0  0  0  0  0  0
    7.5017   -4.1565   14.9913 O   0  0  0  0  0  0  0  0  0  0  0  0
    8.8240   -0.2018    5.9644 O   0  0  0  0  0  0  0  0  0  0  0  0
    3.4229    0.6632    4.1760 O   0  0  0  0  0  0  0  0  0  0  0  0
  1  2  1  0
  2  3  1  0
  3  4  1  0
  4  5  1  0
  5  6  1  0
  6  7  1  0
  7  8  2  3
  8  9  1  0
  9 10  1  0
 10 11  1  0
 11 12  1  0
 12 13  2  0
 12 14  1  0
 14 15  1  0
 15 16  1  0
 16 17  2  3
 17 18  1  0
 18 19  1  0
 19 20  1  0
 20 21  1  0
 21 22  2  0
 21 23  1  0
 10 24  1  0
  6 25  1  0
 14  9  1  0
M  END
$$$$
