
     RDKit          3D

 25 25  0  0  0  0  0  0  0  0999 V2000
    0.3956    3.8227    7.4865 C   0  0  0  0  0  0  0  0  0  0  0  0
    1.8402    3.5399    7.1011 C   0  0  0  0  0  0  0  0  0  0  0  0
    1.9534    2.2550    6.3205 C   0  0  0  0  0  0  0  0  0  0  0  0
    3.3221    2.0401    5.7446 C   0  0  0  0  0  0  0  0  0  0  0  0
    3.3621    0.7472    4.9561 C   0  0  0  0  0  0  0  0  0  0  0  0
    4.6845    0.5530    4.2605 C   0  0  0  0  0  0  0  0  0  0  0  0
    5.3983   -0.5959    4.8774 C   0  0  0  0  0  0  0  0  0  0  0  0
    6.5848   -0.4622    5.4669 C   0  0  0  0  0  0  0  0  0  0  0  0
    7.3404   -1.6357    5.9449 C   0  0  0  0  0  0  0  0  0  0  0  0
    8.8331   -1.4964    5.8148 C   0  0  0  0  0  0  0  0  0  0  0  0
    9.4317   -2.3070    6.9525 C   0  0  0  0  0  0  0  0  0  0  0  0
    8.2583   -2.8578    7.6797 C   0  0  0  0  0  0  0  0  0  0  0  0
    8.1907   -3.8470    8.3458 O   0  0  0  0  0  0  0  0  0  0  0  0
    7.1418   -1.9113    7.4131 C   0  0  0  0  0  0  0  0  0  0  0  0
    7.3996   -0.6871    8.2650 C   0  0  0  0  0  0  0  0  0  0  0  0
    6.1463   -0.4783    9.0766 C   0  0  0  0  0  0  0  0  0  0  0  0
    6.1572   -0.5007   10.3928 C   0  0  0  0  0  0  0  0  0  0  0  0
    6.6615   -1.6813   11.1412 C   0  0  0  0  0  0  0  0  0  0  0  0
    7.7084   -1.3170   12.1411 C   0  0  0  0  0  0  0  0  0  0  0  0
    7.4703   -1.9619   13.4727 C   0  0  0  0  0  0  0  0  0  0  0  0
    7.4833   -3.4271   13.3332 C   0  0  0  0  0  0  0  0  0  0  0  0
    8.5169   -4.0466   13.0063 O   0  0  0  0  0  0  0  0  0  0  0  0
    6.3026   -4.1321   13.5754 O   0  0  0  0  0  0  0  0  0  0  0  0
    9.2483   -0.1695    5.8411 O   0  0  0  0  0  0  0  0  0  0  0  0
    4.3968    0.3346    2.9149 O   0  0  0  0  0  0  0  0  0  0  0  0
  1  2  1  0
  2  3  1  0
  3  4  1  0
  4  5  1  0
  5  6  1  0
  6  7  1  0
  7  8  2  3
  8  9  1  0
  9 10  1  0
 10 11  1  0
 11 12  1  0
 12 13  2  0
 12 14  1  0
 14 15  1  0
 15 16  1  0
 16 17  2  3
 17 18  1  0
 18 19  1  0
 19 20  1  0
 20 21  1  0
 21 22  2  0
 21 23  1  0
 10 24  1  0
  6 25  1  0
 14  9  1  0
M  END
$$$$
