
     RDKit          3D

 25 25  0  0  0  0  0  0  0  0999 V2000
    6.5397   -2.6082   13.7910 C   0  0  0  0  0  0  0  0  0  0  0  0
    7.1328   -2.2640   12.4326 C   0  0  0  0  0  0  0  0  0  0  0  0
    8.6177   -2.5238   12.4058 C   0  0  0  0  0  0  0  0  0  0  0  0
    9.2352   -2.2452   11.0670 C   0  0  0  0  0  0  0  0  0  0  0  0
    8.4238   -2.9013    9.9686 C   0  0  0  0  0  0  0  0  0  0  0  0
    9.2861   -3.3217    8.8067 C   0  0  0  0  0  0  0  0  0  0  0  0
    9.1638   -2.3174    7.7175 C   0  0  0  0  0  0  0  0  0  0  0  0
    8.2030   -2.3795    6.7977 C   0  0  0  0  0  0  0  0  0  0  0  0
    8.2472   -1.5413    5.5844 C   0  0  0  0  0  0  0  0  0  0  0  0
    7.2883   -1.9726    4.5078 C   0  0  0  0  0  0  0  0  0  0  0  0
    6.8963   -0.7074    3.7626 C   0  0  0  0  0  0  0  0  0  0  0  0
    7.6375    0.3805    4.4527 C   0  0  0  0  0  0  0  0  0  0  0  0
    7.9925    1.4343    4.0167 O   0  0  0  0  0  0  0  0  0  0  0  0
    7.8632   -0.1067    5.8403 C   0  0  0  0  0  0  0  0  0  0  0  0
    6.5375    0.0108    6.5610 C   0  0  0  0  0  0  0  0  0  0  0  0
    6.7589    1.0064    7.6715 C   0  0  0  0  0  0  0  0  0  0  0  0
    5.8184    1.2944    8.5463 C   0  0  0  0  0  0  0  0  0  0  0  0
    5.6071    0.4586    9.7567 C   0  0  0  0  0  0  0  0  0  0  0  0
    4.3066    0.7493   10.4296 C   0  0  0  0  0  0  0  0  0  0  0  0
    4.0996   -0.0923   11.6522 C   0  0  0  0  0  0  0  0  0  0  0  0
    4.3811    0.6974   12.8618 C   0  0  0  0  0  0  0  0  0  0  0  0
    3.5064    1.4060   13.4020 O   0  0  0  0  0  0  0  0  0  0  0  0
    5.6639    0.6448   13.4108 O   0  0  0  0  0  0  0  0  0  0  0  0
    6.1828   -2.6448    5.0175 O   0  0  0  0  0  0  0  0  0  0  0  0
   10.5882   -3.4170    9.2929 O   0  0  0  0  0  0  0  0  0  0  0  0
  1  2  1  0
  2  3  1  0
  3  4  1  0
  4  5  1  0
  5  6  1  0
  6  7  1  0
  7  8  2  3
  8  9  1  0
  9 10  1  0
 10 11  1  0
 11 12  1  0
 12 13  2  0
 12 14  1  0
 14 15  1  0
 15 16  1  0
 16 17  2  3
 17 18  1  0
 18 19  1  0
 19 20  1  0
 20 21  1  0
 21 22  2  0
 21 23  1  0
 10 24  1  0
  6 25  1  0
 14  9  1  0
M  END
$$$$
