
     RDKit          3D

 25 25  0  0  0  0  0  0  0  0999 V2000
   -0.4378    4.3661    8.7337 C   0  0  0  0  0  0  0  0  0  0  0  0
    0.2332    4.0926    7.3956 C   0  0  0  0  0  0  0  0  0  0  0  0
    1.3091    3.0451    7.5305 C   0  0  0  0  0  0  0  0  0  0  0  0
    1.9644    2.7092    6.2233 C   0  0  0  0  0  0  0  0  0  0  0  0
    2.9308    1.5563    6.4023 C   0  0  0  0  0  0  0  0  0  0  0  0
    4.1144    1.6653    5.4762 C   0  0  0  0  0  0  0  0  0  0  0  0
    4.8512    0.3741    5.4690 C   0  0  0  0  0  0  0  0  0  0  0  0
    6.1699    0.3071    5.6409 C   0  0  0  0  0  0  0  0  0  0  0  0
    6.9410   -0.8733    5.2064 C   0  0  0  0  0  0  0  0  0  0  0  0
    8.2188   -0.5377    4.4858 C   0  0  0  0  0  0  0  0  0  0  0  0
    9.1849   -1.6697    4.7939 C   0  0  0  0  0  0  0  0  0  0  0  0
    8.4201   -2.5863    5.6794 C   0  0  0  0  0  0  0  0  0  0  0  0
    8.5647   -3.7610    5.8404 O   0  0  0  0  0  0  0  0  0  0  0  0
    7.4025   -1.7353    6.3531 C   0  0  0  0  0  0  0  0  0  0  0  0
    8.1365   -0.9374    7.4093 C   0  0  0  0  0  0  0  0  0  0  0  0
    7.2137   -0.8834    8.6005 C   0  0  0  0  0  0  0  0  0  0  0  0
    7.4139   -1.6235    9.6705 C   0  0  0  0  0  0  0  0  0  0  0  0
    7.0678   -1.1282   11.0282 C   0  0  0  0  0  0  0  0  0  0  0  0
    5.9890   -1.9353   11.6709 C   0  0  0  0  0  0  0  0  0  0  0  0
    6.5358   -3.0767   12.4735 C   0  0  0  0  0  0  0  0  0  0  0  0
    7.8000   -2.6821   13.1156 C   0  0  0  0  0  0  0  0  0  0  0  0
    8.8946   -3.1707   12.7662 O   0  0  0  0  0  0  0  0  0  0  0  0
    7.7618   -1.7355   14.1414 O   0  0  0  0  0  0  0  0  0  0  0  0
    8.7288    0.7021    4.8556 O   0  0  0  0  0  0  0  0  0  0  0  0
    3.6069    1.9902    4.2201 O   0  0  0  0  0  0  0  0  0  0  0  0
  1  2  1  0
  2  3  1  0
  3  4  1  0
  4  5  1  0
  5  6  1  0
  6  7  1  0
  7  8  2  3
  8  9  1  0
  9 10  1  0
 10 11  1  0
 11 12  1  0
 12 13  2  0
 12 14  1  0
 14 15  1  0
 15 16  1  0
 16 17  2  3
 17 18  1  0
 18 19  1  0
 19 20  1  0
 20 21  1  0
 21 22  2  0
 21 23  1  0
 10 24  1  0
  6 25  1  0
 14  9  1  0
M  END
$$$$
