
     RDKit          3D

 25 25  0  0  0  0  0  0  0  0999 V2000
   12.1218   -3.0393    7.6038 C   0  0  0  0  0  0  0  0  0  0  0  0
   11.0742   -3.0962    6.5017 C   0  0  0  0  0  0  0  0  0  0  0  0
    9.9824   -2.0833    6.7361 C   0  0  0  0  0  0  0  0  0  0  0  0
    8.9437   -2.0830    5.6535 C   0  0  0  0  0  0  0  0  0  0  0  0
    7.8772   -1.0487    5.9503 C   0  0  0  0  0  0  0  0  0  0  0  0
    6.8623   -0.9526    4.8408 C   0  0  0  0  0  0  0  0  0  0  0  0
    5.9824    0.2211    5.0822 C   0  0  0  0  0  0  0  0  0  0  0  0
    4.6984    0.0916    5.4103 C   0  0  0  0  0  0  0  0  0  0  0  0
    3.7879    1.2524    5.4184 C   0  0  0  0  0  0  0  0  0  0  0  0
    2.3724    0.9167    5.8034 C   0  0  0  0  0  0  0  0  0  0  0  0
    1.8183    2.1549    6.4887 C   0  0  0  0  0  0  0  0  0  0  0  0
    2.9413    3.1284    6.4718 C   0  0  0  0  0  0  0  0  0  0  0  0
    2.8944    4.3217    6.4946 O   0  0  0  0  0  0  0  0  0  0  0  0
    4.1814    2.3079    6.4194 C   0  0  0  0  0  0  0  0  0  0  0  0
    4.3803    1.7353    7.8062 C   0  0  0  0  0  0  0  0  0  0  0  0
    5.7591    2.1675    8.2367 C   0  0  0  0  0  0  0  0  0  0  0  0
    6.3661    1.6283    9.2729 C   0  0  0  0  0  0  0  0  0  0  0  0
    5.9493    0.3073    9.8110 C   0  0  0  0  0  0  0  0  0  0  0  0
    6.9815   -0.2945   10.7058 C   0  0  0  0  0  0  0  0  0  0  0  0
    6.3753   -0.9650   11.9012 C   0  0  0  0  0  0  0  0  0  0  0  0
    6.3536   -2.4234   11.7047 C   0  0  0  0  0  0  0  0  0  0  0  0
    5.2927   -3.0789   11.7667 O   0  0  0  0  0  0  0  0  0  0  0  0
    7.5575   -3.0806   11.4427 O   0  0  0  0  0  0  0  0  0  0  0  0
    2.2941   -0.2106    6.6139 O   0  0  0  0  0  0  0  0  0  0  0  0
    7.5819   -0.8374    3.6535 O   0  0  0  0  0  0  0  0  0  0  0  0
  1  2  1  0
  2  3  1  0
  3  4  1  0
  4  5  1  0
  5  6  1  0
  6  7  1  0
  7  8  2  3
  8  9  1  0
  9 10  1  0
 10 11  1  0
 11 12  1  0
 12 13  2  0
 12 14  1  0
 14 15  1  0
 15 16  1  0
 16 17  2  3
 17 18  1  0
 18 19  1  0
 19 20  1  0
 20 21  1  0
 21 22  2  0
 21 23  1  0
 10 24  1  0
  6 25  1  0
 14  9  1  0
M  END
$$$$
