
     RDKit          3D

 25 25  0  0  0  0  0  0  0  0999 V2000
    1.4549    0.2651    6.9701 C   0  0  0  0  0  0  0  0  0  0  0  0
    1.7025    1.7665    6.9656 C   0  0  0  0  0  0  0  0  0  0  0  0
    2.2239    2.2278    5.6283 C   0  0  0  0  0  0  0  0  0  0  0  0
    3.6488    2.6941    5.6863 C   0  0  0  0  0  0  0  0  0  0  0  0
    4.2828    2.6147    4.3126 C   0  0  0  0  0  0  0  0  0  0  0  0
    5.7829    2.4973    4.3912 C   0  0  0  0  0  0  0  0  0  0  0  0
    6.1942    1.1500    3.9163 C   0  0  0  0  0  0  0  0  0  0  0  0
    7.0724    0.3999    4.5792 C   0  0  0  0  0  0  0  0  0  0  0  0
    7.0479   -1.0723    4.4866 C   0  0  0  0  0  0  0  0  0  0  0  0
    8.3854   -1.6878    4.1758 C   0  0  0  0  0  0  0  0  0  0  0  0
    8.3857   -3.0526    4.8445 C   0  0  0  0  0  0  0  0  0  0  0  0
    7.0601   -3.1454    5.5103 C   0  0  0  0  0  0  0  0  0  0  0  0
    6.4318   -4.1224    5.7882 O   0  0  0  0  0  0  0  0  0  0  0  0
    6.6466   -1.7411    5.7761 C   0  0  0  0  0  0  0  0  0  0  0  0
    7.4725   -1.2617    6.9504 C   0  0  0  0  0  0  0  0  0  0  0  0
    7.0472   -2.1057    8.1252 C   0  0  0  0  0  0  0  0  0  0  0  0
    7.7883   -2.2166    9.2075 C   0  0  0  0  0  0  0  0  0  0  0  0
    7.8367   -1.1344   10.2248 C   0  0  0  0  0  0  0  0  0  0  0  0
    8.6071   -1.5300   11.4408 C   0  0  0  0  0  0  0  0  0  0  0  0
    7.7545   -2.2441   12.4454 C   0  0  0  0  0  0  0  0  0  0  0  0
    8.4046   -2.2217   13.7656 C   0  0  0  0  0  0  0  0  0  0  0  0
    8.7486   -3.2721   14.3463 O   0  0  0  0  0  0  0  0  0  0  0  0
    8.6376   -0.9872   14.3751 O   0  0  0  0  0  0  0  0  0  0  0  0
    9.4473   -0.8961    4.5995 O   0  0  0  0  0  0  0  0  0  0  0  0
    6.3029    3.5178    3.5980 O   0  0  0  0  0  0  0  0  0  0  0  0
  1  2  1  0
  2  3  1  0
  3  4  1  0
  4  5  1  0
  5  6  1  0
  6  7  1  0
  7  8  2  3
  8  9  1  0
  9 10  1  0
 10 11  1  0
 11 12  1  0
 12 13  2  0
 12 14  1  0
 14 15  1  0
 15 16  1  0
 16 17  2  3
 17 18  1  0
 18 19  1  0
 19 20  1  0
 20 21  1  0
 21 22  2  0
 21 23  1  0
 10 24  1  0
  6 25  1  0
 14  9  1  0
M  END
$$$$
