
     RDKit          3D

 25 25  0  0  0  0  0  0  0  0999 V2000
    0.6149    3.9552    8.4649 C   0  0  0  0  0  0  0  0  0  0  0  0
    1.7862    4.0346    7.4968 C   0  0  0  0  0  0  0  0  0  0  0  0
    2.9731    3.2623    8.0144 C   0  0  0  0  0  0  0  0  0  0  0  0
    2.9759    1.8291    7.5706 C   0  0  0  0  0  0  0  0  0  0  0  0
    4.0535    1.6048    6.5296 C   0  0  0  0  0  0  0  0  0  0  0  0
    4.0488    0.1902    6.0107 C   0  0  0  0  0  0  0  0  0  0  0  0
    5.2799   -0.0420    5.2103 C   0  0  0  0  0  0  0  0  0  0  0  0
    6.4845   -0.1361    5.7699 C   0  0  0  0  0  0  0  0  0  0  0  0
    7.5278   -1.0111    5.2020 C   0  0  0  0  0  0  0  0  0  0  0  0
    8.9302   -0.5095    5.4169 C   0  0  0  0  0  0  0  0  0  0  0  0
    9.8095   -1.7458    5.5080 C   0  0  0  0  0  0  0  0  0  0  0  0
    8.8705   -2.8874    5.3525 C   0  0  0  0  0  0  0  0  0  0  0  0
    9.0944   -3.9870    4.9435 O   0  0  0  0  0  0  0  0  0  0  0  0
    7.5498   -2.3857    5.8193 C   0  0  0  0  0  0  0  0  0  0  0  0
    7.6165   -2.3332    7.3305 C   0  0  0  0  0  0  0  0  0  0  0  0
    6.1916   -2.1857    7.8010 C   0  0  0  0  0  0  0  0  0  0  0  0
    5.7809   -2.6881    8.9463 C   0  0  0  0  0  0  0  0  0  0  0  0
    6.0937   -2.0233   10.2380 C   0  0  0  0  0  0  0  0  0  0  0  0
    6.5409   -2.9911   11.2829 C   0  0  0  0  0  0  0  0  0  0  0  0
    6.7642   -2.3310   12.6096 C   0  0  0  0  0  0  0  0  0  0  0  0
    8.1706   -1.9161   12.7364 C   0  0  0  0  0  0  0  0  0  0  0  0
    8.4941   -0.7148   12.8428 O   0  0  0  0  0  0  0  0  0  0  0  0
    9.1606   -2.9009   12.7365 O   0  0  0  0  0  0  0  0  0  0  0  0
    9.0404    0.2965    6.5448 O   0  0  0  0  0  0  0  0  0  0  0  0
    3.9800   -0.6415    7.1262 O   0  0  0  0  0  0  0  0  0  0  0  0
  1  2  1  0
  2  3  1  0
  3  4  1  0
  4  5  1  0
  5  6  1  0
  6  7  1  0
  7  8  2  3
  8  9  1  0
  9 10  1  0
 10 11  1  0
 11 12  1  0
 12 13  2  0
 12 14  1  0
 14 15  1  0
 15 16  1  0
 16 17  2  3
 17 18  1  0
 18 19  1  0
 19 20  1  0
 20 21  1  0
 21 22  2  0
 21 23  1  0
 10 24  1  0
  6 25  1  0
 14  9  1  0
M  END
$$$$
