
     RDKit          3D

 25 25  0  0  0  0  0  0  0  0999 V2000
   -0.4200    3.4001    6.4872 C   0  0  0  0  0  0  0  0  0  0  0  0
    0.9098    2.7634    6.8634 C   0  0  0  0  0  0  0  0  0  0  0  0
    1.7587    2.5148    5.6425 C   0  0  0  0  0  0  0  0  0  0  0  0
    3.1129    1.9614    5.9755 C   0  0  0  0  0  0  0  0  0  0  0  0
    3.8871    1.6705    4.7062 C   0  0  0  0  0  0  0  0  0  0  0  0
    5.2255    1.0417    4.9950 C   0  0  0  0  0  0  0  0  0  0  0  0
    5.0161   -0.3045    5.5899 C   0  0  0  0  0  0  0  0  0  0  0  0
    5.8010   -0.7869    6.5513 C   0  0  0  0  0  0  0  0  0  0  0  0
    7.1811   -1.2243    6.2674 C   0  0  0  0  0  0  0  0  0  0  0  0
    8.2048   -0.1266    6.3751 C   0  0  0  0  0  0  0  0  0  0  0  0
    9.4947   -0.7968    6.8188 C   0  0  0  0  0  0  0  0  0  0  0  0
    9.1444   -2.2349    6.9529 C   0  0  0  0  0  0  0  0  0  0  0  0
    9.8583   -3.1882    6.8615 O   0  0  0  0  0  0  0  0  0  0  0  0
    7.6835   -2.2666    7.2330 C   0  0  0  0  0  0  0  0  0  0  0  0
    7.5101   -1.8413    8.6752 C   0  0  0  0  0  0  0  0  0  0  0  0
    6.2531   -2.5204    9.1569 C   0  0  0  0  0  0  0  0  0  0  0  0
    6.0649   -2.8185   10.4251 C   0  0  0  0  0  0  0  0  0  0  0  0
    7.1845   -2.7823   11.4016 C   0  0  0  0  0  0  0  0  0  0  0  0
    6.9035   -1.8799   12.5570 C   0  0  0  0  0  0  0  0  0  0  0  0
    6.5142   -2.6393   13.7889 C   0  0  0  0  0  0  0  0  0  0  0  0
    7.6677   -3.3971   14.3001 C   0  0  0  0  0  0  0  0  0  0  0  0
    8.5266   -2.8687   15.0364 O   0  0  0  0  0  0  0  0  0  0  0  0
    7.7944   -4.7417   13.9455 O   0  0  0  0  0  0  0  0  0  0  0  0
    7.8124    0.8839    7.2462 O   0  0  0  0  0  0  0  0  0  0  0  0
    5.9063    0.9821    3.7809 O   0  0  0  0  0  0  0  0  0  0  0  0
  1  2  1  0
  2  3  1  0
  3  4  1  0
  4  5  1  0
  5  6  1  0
  6  7  1  0
  7  8  2  3
  8  9  1  0
  9 10  1  0
 10 11  1  0
 11 12  1  0
 12 13  2  0
 12 14  1  0
 14 15  1  0
 15 16  1  0
 16 17  2  3
 17 18  1  0
 18 19  1  0
 19 20  1  0
 20 21  1  0
 21 22  2  0
 21 23  1  0
 10 24  1  0
  6 25  1  0
 14  9  1  0
M  END
$$$$
