
     RDKit          3D

 25 25  0  0  0  0  0  0  0  0999 V2000
    1.4406    2.5344    3.7489 C   0  0  0  0  0  0  0  0  0  0  0  0
    1.9561    2.3689    5.1710 C   0  0  0  0  0  0  0  0  0  0  0  0
    3.4612    2.4436    5.2162 C   0  0  0  0  0  0  0  0  0  0  0  0
    4.1214    1.1443    4.8599 C   0  0  0  0  0  0  0  0  0  0  0  0
    5.6284    1.2961    4.8908 C   0  0  0  0  0  0  0  0  0  0  0  0
    6.2952    0.1478    5.6028 C   0  0  0  0  0  0  0  0  0  0  0  0
    5.4231   -0.3110    6.7159 C   0  0  0  0  0  0  0  0  0  0  0  0
    5.9118   -0.6603    7.9044 C   0  0  0  0  0  0  0  0  0  0  0  0
    5.0329   -1.1631    8.9774 C   0  0  0  0  0  0  0  0  0  0  0  0
    4.6994   -2.6258    8.8597 C   0  0  0  0  0  0  0  0  0  0  0  0
    4.5065   -3.1286   10.2808 C   0  0  0  0  0  0  0  0  0  0  0  0
    4.7485   -1.9381   11.1371 C   0  0  0  0  0  0  0  0  0  0  0  0
    4.3263   -1.7073   12.2303 O   0  0  0  0  0  0  0  0  0  0  0  0
    5.6488   -1.0543   10.3484 C   0  0  0  0  0  0  0  0  0  0  0  0
    7.0270   -1.6772   10.4075 C   0  0  0  0  0  0  0  0  0  0  0  0
    7.9981   -0.5250   10.4604 C   0  0  0  0  0  0  0  0  0  0  0  0
    9.0764   -0.5572   11.2148 C   0  0  0  0  0  0  0  0  0  0  0  0
    9.7459   -1.8405   11.5511 C   0  0  0  0  0  0  0  0  0  0  0  0
   10.9778   -1.6425   12.3706 C   0  0  0  0  0  0  0  0  0  0  0  0
   11.2652   -2.8167   13.2563 C   0  0  0  0  0  0  0  0  0  0  0  0
   10.2916   -2.8671   14.3590 C   0  0  0  0  0  0  0  0  0  0  0  0
   10.2599   -1.9907   15.2478 O   0  0  0  0  0  0  0  0  0  0  0  0
    9.3845   -3.9277   14.4019 O   0  0  0  0  0  0  0  0  0  0  0  0
    5.6778   -3.3418    8.1784 O   0  0  0  0  0  0  0  0  0  0  0  0
    6.4994   -0.8462    4.6483 O   0  0  0  0  0  0  0  0  0  0  0  0
  1  2  1  0
  2  3  1  0
  3  4  1  0
  4  5  1  0
  5  6  1  0
  6  7  1  0
  7  8  2  3
  8  9  1  0
  9 10  1  0
 10 11  1  0
 11 12  1  0
 12 13  2  0
 12 14  1  0
 14 15  1  0
 15 16  1  0
 16 17  2  3
 17 18  1  0
 18 19  1  0
 19 20  1  0
 20 21  1  0
 21 22  2  0
 21 23  1  0
 10 24  1  0
  6 25  1  0
 14  9  1  0
M  END
$$$$
