
     RDKit          3D

 25 25  0  0  0  0  0  0  0  0999 V2000
   -1.1762    4.0307    7.7112 C   0  0  0  0  0  0  0  0  0  0  0  0
   -0.0522    4.2607    6.7115 C   0  0  0  0  0  0  0  0  0  0  0  0
    1.2481    3.6856    7.2131 C   0  0  0  0  0  0  0  0  0  0  0  0
    1.8468    2.6850    6.2690 C   0  0  0  0  0  0  0  0  0  0  0  0
    3.2377    2.2979    6.7281 C   0  0  0  0  0  0  0  0  0  0  0  0
    4.0435    1.6744    5.6181 C   0  0  0  0  0  0  0  0  0  0  0  0
    4.6656    0.4173    6.1109 C   0  0  0  0  0  0  0  0  0  0  0  0
    5.9857    0.2509    6.1647 C   0  0  0  0  0  0  0  0  0  0  0  0
    6.6206   -0.9986    5.7039 C   0  0  0  0  0  0  0  0  0  0  0  0
    7.8767   -0.7870    4.9028 C   0  0  0  0  0  0  0  0  0  0  0  0
    8.7552   -1.9979    5.1707 C   0  0  0  0  0  0  0  0  0  0  0  0
    7.9673   -2.8324    6.1151 C   0  0  0  0  0  0  0  0  0  0  0  0
    8.0163   -4.0136    6.2861 O   0  0  0  0  0  0  0  0  0  0  0  0
    7.0727   -1.8862    6.8348 C   0  0  0  0  0  0  0  0  0  0  0  0
    7.9380   -1.1463    7.8320 C   0  0  0  0  0  0  0  0  0  0  0  0
    7.0046   -0.6770    8.9192 C   0  0  0  0  0  0  0  0  0  0  0  0
    7.3937   -0.5681   10.1720 C   0  0  0  0  0  0  0  0  0  0  0  0
    6.9650   -1.5495   11.2022 C   0  0  0  0  0  0  0  0  0  0  0  0
    7.8854   -1.5806   12.3771 C   0  0  0  0  0  0  0  0  0  0  0  0
    7.4117   -2.5198   13.4445 C   0  0  0  0  0  0  0  0  0  0  0  0
    8.2050   -3.7592   13.4142 C   0  0  0  0  0  0  0  0  0  0  0  0
    7.6746   -4.8819   13.5458 O   0  0  0  0  0  0  0  0  0  0  0  0
    9.5863   -3.6645   13.2332 O   0  0  0  0  0  0  0  0  0  0  0  0
    8.5167    0.4059    5.2212 O   0  0  0  0  0  0  0  0  0  0  0  0
    3.1599    1.4482    4.5650 O   0  0  0  0  0  0  0  0  0  0  0  0
  1  2  1  0
  2  3  1  0
  3  4  1  0
  4  5  1  0
  5  6  1  0
  6  7  1  0
  7  8  2  3
  8  9  1  0
  9 10  1  0
 10 11  1  0
 11 12  1  0
 12 13  2  0
 12 14  1  0
 14 15  1  0
 15 16  1  0
 16 17  2  3
 17 18  1  0
 18 19  1  0
 19 20  1  0
 20 21  1  0
 21 22  2  0
 21 23  1  0
 10 24  1  0
  6 25  1  0
 14  9  1  0
M  END
$$$$
