
     RDKit          3D

 25 25  0  0  0  0  0  0  0  0999 V2000
    1.8902    3.5175    6.1178 C   0  0  0  0  0  0  0  0  0  0  0  0
    3.2929    3.1766    5.6363 C   0  0  0  0  0  0  0  0  0  0  0  0
    3.5520    1.6938    5.7219 C   0  0  0  0  0  0  0  0  0  0  0  0
    4.8777    1.2982    5.1414 C   0  0  0  0  0  0  0  0  0  0  0  0
    5.0829   -0.1970    5.2737 C   0  0  0  0  0  0  0  0  0  0  0  0
    6.4285   -0.6288    4.7512 C   0  0  0  0  0  0  0  0  0  0  0  0
    7.0041   -1.6503    5.6652 C   0  0  0  0  0  0  0  0  0  0  0  0
    7.8830   -1.3392    6.6159 C   0  0  0  0  0  0  0  0  0  0  0  0
    8.4092   -2.3630    7.5387 C   0  0  0  0  0  0  0  0  0  0  0  0
    9.8749   -2.2142    7.8455 C   0  0  0  0  0  0  0  0  0  0  0  0
   10.0653   -2.7470    9.2560 C   0  0  0  0  0  0  0  0  0  0  0  0
    8.7050   -3.1617    9.6881 C   0  0  0  0  0  0  0  0  0  0  0  0
    8.3980   -3.9876   10.4946 O   0  0  0  0  0  0  0  0  0  0  0  0
    7.7618   -2.3244    8.8990 C   0  0  0  0  0  0  0  0  0  0  0  0
    7.7967   -0.9402    9.5102 C   0  0  0  0  0  0  0  0  0  0  0  0
    6.4769   -0.3012    9.1592 C   0  0  0  0  0  0  0  0  0  0  0  0
    5.4753   -0.2584   10.0123 C   0  0  0  0  0  0  0  0  0  0  0  0
    5.6135   -0.7895   11.3932 C   0  0  0  0  0  0  0  0  0  0  0  0
    4.3002   -1.1752   11.9891 C   0  0  0  0  0  0  0  0  0  0  0  0
    4.1960   -0.7868   13.4328 C   0  0  0  0  0  0  0  0  0  0  0  0
    4.6121   -1.9095   14.2886 C   0  0  0  0  0  0  0  0  0  0  0  0
    5.5562   -1.8031   15.0988 O   0  0  0  0  0  0  0  0  0  0  0  0
    3.9255   -3.1208   14.1829 O   0  0  0  0  0  0  0  0  0  0  0  0
   10.3153   -0.9014    7.7170 O   0  0  0  0  0  0  0  0  0  0  0  0
    6.2143   -1.1290    3.4687 O   0  0  0  0  0  0  0  0  0  0  0  0
  1  2  1  0
  2  3  1  0
  3  4  1  0
  4  5  1  0
  5  6  1  0
  6  7  1  0
  7  8  2  3
  8  9  1  0
  9 10  1  0
 10 11  1  0
 11 12  1  0
 12 13  2  0
 12 14  1  0
 14 15  1  0
 15 16  1  0
 16 17  2  3
 17 18  1  0
 18 19  1  0
 19 20  1  0
 20 21  1  0
 21 22  2  0
 21 23  1  0
 10 24  1  0
  6 25  1  0
 14  9  1  0
M  END
$$$$
