
     RDKit          3D

 25 25  0  0  0  0  0  0  0  0999 V2000
    9.8820   -3.0951    3.6300 C   0  0  0  0  0  0  0  0  0  0  0  0
    8.4930   -2.4776    3.5596 C   0  0  0  0  0  0  0  0  0  0  0  0
    8.2043   -1.6468    4.7841 C   0  0  0  0  0  0  0  0  0  0  0  0
    6.8029   -1.1114    4.8095 C   0  0  0  0  0  0  0  0  0  0  0  0
    6.5924   -0.2515    6.0390 C   0  0  0  0  0  0  0  0  0  0  0  0
    5.1548    0.1744    6.1883 C   0  0  0  0  0  0  0  0  0  0  0  0
    4.9848    0.8779    7.4869 C   0  0  0  0  0  0  0  0  0  0  0  0
    5.4406    0.3755    8.6327 C   0  0  0  0  0  0  0  0  0  0  0  0
    5.7811    1.2492    9.7717 C   0  0  0  0  0  0  0  0  0  0  0  0
    4.7349    1.2801   10.8529 C   0  0  0  0  0  0  0  0  0  0  0  0
    5.4822    1.5214   12.1541 C   0  0  0  0  0  0  0  0  0  0  0  0
    6.9119    1.6052   11.7567 C   0  0  0  0  0  0  0  0  0  0  0  0
    7.8061    2.1769   12.3046 O   0  0  0  0  0  0  0  0  0  0  0  0
    7.0255    0.8140   10.5018 C   0  0  0  0  0  0  0  0  0  0  0  0
    6.9726   -0.6443   10.9035 C   0  0  0  0  0  0  0  0  0  0  0  0
    8.3826   -1.1608   10.7673 C   0  0  0  0  0  0  0  0  0  0  0  0
    8.6472   -2.4470   10.6753 C   0  0  0  0  0  0  0  0  0  0  0  0
    8.2155   -3.4018   11.7289 C   0  0  0  0  0  0  0  0  0  0  0  0
    9.3615   -3.9164   12.5354 C   0  0  0  0  0  0  0  0  0  0  0  0
    9.1142   -5.3004   13.0543 C   0  0  0  0  0  0  0  0  0  0  0  0
    8.7195   -5.2450   14.4711 C   0  0  0  0  0  0  0  0  0  0  0  0
    8.0583   -6.1597   15.0050 O   0  0  0  0  0  0  0  0  0  0  0  0
    9.1003   -4.1352   15.2282 O   0  0  0  0  0  0  0  0  0  0  0  0
    3.9755    0.1158   10.8924 O   0  0  0  0  0  0  0  0  0  0  0  0
    4.8697    0.9974    5.1010 O   0  0  0  0  0  0  0  0  0  0  0  0
  1  2  1  0
  2  3  1  0
  3  4  1  0
  4  5  1  0
  5  6  1  0
  6  7  1  0
  7  8  2  3
  8  9  1  0
  9 10  1  0
 10 11  1  0
 11 12  1  0
 12 13  2  0
 12 14  1  0
 14 15  1  0
 15 16  1  0
 16 17  2  3
 17 18  1  0
 18 19  1  0
 19 20  1  0
 20 21  1  0
 21 22  2  0
 21 23  1  0
 10 24  1  0
  6 25  1  0
 14  9  1  0
M  END
$$$$
