
     RDKit          3D

 25 25  0  0  0  0  0  0  0  0999 V2000
    5.1604    6.3031   11.0052 C   0  0  0  0  0  0  0  0  0  0  0  0
    4.8894    5.2512    9.9395 C   0  0  0  0  0  0  0  0  0  0  0  0
    5.8729    4.1126   10.0366 C   0  0  0  0  0  0  0  0  0  0  0  0
    5.2655    2.8630   10.6028 C   0  0  0  0  0  0  0  0  0  0  0  0
    6.3003    1.7581   10.6635 C   0  0  0  0  0  0  0  0  0  0  0  0
    6.4920    1.2431   12.0664 C   0  0  0  0  0  0  0  0  0  0  0  0
    7.4558    0.1114   12.0454 C   0  0  0  0  0  0  0  0  0  0  0  0
    7.0880   -1.1300   11.7345 C   0  0  0  0  0  0  0  0  0  0  0  0
    7.5621   -2.2887   12.5151 C   0  0  0  0  0  0  0  0  0  0  0  0
    6.5357   -3.3768   12.6791 C   0  0  0  0  0  0  0  0  0  0  0  0
    7.3142   -4.6791   12.7680 C   0  0  0  0  0  0  0  0  0  0  0  0
    8.7388   -4.2750   12.6402 C   0  0  0  0  0  0  0  0  0  0  0  0
    9.7119   -4.8317   13.0524 O   0  0  0  0  0  0  0  0  0  0  0  0
    8.7258   -2.9997   11.8739 C   0  0  0  0  0  0  0  0  0  0  0  0
    8.4489   -3.3646   10.4313 C   0  0  0  0  0  0  0  0  0  0  0  0
    9.2135   -2.3662    9.5996 C   0  0  0  0  0  0  0  0  0  0  0  0
    9.2976   -2.4699    8.2900 C   0  0  0  0  0  0  0  0  0  0  0  0
    8.1932   -2.0139    7.4065 C   0  0  0  0  0  0  0  0  0  0  0  0
    7.7201   -3.0890    6.4852 C   0  0  0  0  0  0  0  0  0  0  0  0
    6.2948   -2.8911    6.0666 C   0  0  0  0  0  0  0  0  0  0  0  0
    6.2044   -1.7989    5.0843 C   0  0  0  0  0  0  0  0  0  0  0  0
    5.5294   -0.7717    5.3045 O   0  0  0  0  0  0  0  0  0  0  0  0
    6.8959   -1.9258    3.8779 O   0  0  0  0  0  0  0  0  0  0  0  0
    5.6054   -3.3915   11.6455 O   0  0  0  0  0  0  0  0  0  0  0  0
    6.9554    2.3169   12.8235 O   0  0  0  0  0  0  0  0  0  0  0  0
  1  2  1  0
  2  3  1  0
  3  4  1  0
  4  5  1  0
  5  6  1  0
  6  7  1  0
  7  8  2  3
  8  9  1  0
  9 10  1  0
 10 11  1  0
 11 12  1  0
 12 13  2  0
 12 14  1  0
 14 15  1  0
 15 16  1  0
 16 17  2  3
 17 18  1  0
 18 19  1  0
 19 20  1  0
 20 21  1  0
 21 22  2  0
 21 23  1  0
 10 24  1  0
  6 25  1  0
 14  9  1  0
M  END
$$$$
