
     RDKit          3D

 25 25  0  0  0  0  0  0  0  0999 V2000
    9.9673    5.4784   11.5886 C   0  0  0  0  0  0  0  0  0  0  0  0
   10.0521    4.4132   10.5053 C   0  0  0  0  0  0  0  0  0  0  0  0
    8.7887    3.5924   10.4494 C   0  0  0  0  0  0  0  0  0  0  0  0
    8.8260    2.5346    9.3861 C   0  0  0  0  0  0  0  0  0  0  0  0
    7.5018    1.8008    9.3298 C   0  0  0  0  0  0  0  0  0  0  0  0
    6.8737    1.8774    7.9624 C   0  0  0  0  0  0  0  0  0  0  0  0
    7.5108    0.8703    7.0736 C   0  0  0  0  0  0  0  0  0  0  0  0
    7.9094   -0.3197    7.5186 C   0  0  0  0  0  0  0  0  0  0  0  0
    7.9843   -1.4884    6.6213 C   0  0  0  0  0  0  0  0  0  0  0  0
    9.2624   -2.2731    6.7445 C   0  0  0  0  0  0  0  0  0  0  0  0
    8.9037   -3.7142    6.4213 C   0  0  0  0  0  0  0  0  0  0  0  0
    7.4443   -3.6848    6.1415 C   0  0  0  0  0  0  0  0  0  0  0  0
    6.8000   -4.4261    5.4618 O   0  0  0  0  0  0  0  0  0  0  0  0
    6.9159   -2.5155    6.8946 C   0  0  0  0  0  0  0  0  0  0  0  0
    6.8733   -2.9227    8.3518 C   0  0  0  0  0  0  0  0  0  0  0  0
    5.9471   -1.9429    9.0266 C   0  0  0  0  0  0  0  0  0  0  0  0
    5.8527   -1.8633   10.3372 C   0  0  0  0  0  0  0  0  0  0  0  0
    6.6418   -2.7570   11.2243 C   0  0  0  0  0  0  0  0  0  0  0  0
    7.3370   -2.0092   12.3132 C   0  0  0  0  0  0  0  0  0  0  0  0
    8.0707   -2.9211   13.2491 C   0  0  0  0  0  0  0  0  0  0  0  0
    7.9051   -4.3203   12.8235 C   0  0  0  0  0  0  0  0  0  0  0  0
    8.7570   -4.8967   12.1156 O   0  0  0  0  0  0  0  0  0  0  0  0
    6.7612   -5.0112   13.2282 O   0  0  0  0  0  0  0  0  0  0  0  0
    9.8457   -2.1470    8.0006 O   0  0  0  0  0  0  0  0  0  0  0  0
    5.5120    1.6406    8.1373 O   0  0  0  0  0  0  0  0  0  0  0  0
  1  2  1  0
  2  3  1  0
  3  4  1  0
  4  5  1  0
  5  6  1  0
  6  7  1  0
  7  8  2  3
  8  9  1  0
  9 10  1  0
 10 11  1  0
 11 12  1  0
 12 13  2  0
 12 14  1  0
 14 15  1  0
 15 16  1  0
 16 17  2  3
 17 18  1  0
 18 19  1  0
 19 20  1  0
 20 21  1  0
 21 22  2  0
 21 23  1  0
 10 24  1  0
  6 25  1  0
 14  9  1  0
M  END
$$$$
