
     RDKit          3D

 25 25  0  0  0  0  0  0  0  0999 V2000
    0.1201    4.5112    8.4283 C   0  0  0  0  0  0  0  0  0  0  0  0
    1.4908    3.9429    8.0908 C   0  0  0  0  0  0  0  0  0  0  0  0
    1.4079    2.9668    6.9448 C   0  0  0  0  0  0  0  0  0  0  0  0
    2.7547    2.5001    6.4766 C   0  0  0  0  0  0  0  0  0  0  0  0
    2.6007    1.5109    5.3395 C   0  0  0  0  0  0  0  0  0  0  0  0
    3.9126    1.2360    4.6512 C   0  0  0  0  0  0  0  0  0  0  0  0
    4.7436    0.3561    5.5144 C   0  0  0  0  0  0  0  0  0  0  0  0
    6.0709    0.3128    5.4169 C   0  0  0  0  0  0  0  0  0  0  0  0
    6.8132   -0.9482    5.6054 C   0  0  0  0  0  0  0  0  0  0  0  0
    8.2150   -0.9203    5.0589 C   0  0  0  0  0  0  0  0  0  0  0  0
    9.0283   -1.8541    5.9398 C   0  0  0  0  0  0  0  0  0  0  0  0
    8.0597   -2.3588    6.9478 C   0  0  0  0  0  0  0  0  0  0  0  0
    8.0868   -3.3838    7.5606 O   0  0  0  0  0  0  0  0  0  0  0  0
    7.0104   -1.3095    7.0551 C   0  0  0  0  0  0  0  0  0  0  0  0
    7.6151   -0.1727    7.8507 C   0  0  0  0  0  0  0  0  0  0  0  0
    6.5137    0.3350    8.7465 C   0  0  0  0  0  0  0  0  0  0  0  0
    6.3767   -0.0830    9.9872 C   0  0  0  0  0  0  0  0  0  0  0  0
    7.5345   -0.6055   10.7585 C   0  0  0  0  0  0  0  0  0  0  0  0
    7.1695   -1.7754   11.6110 C   0  0  0  0  0  0  0  0  0  0  0  0
    8.3243   -2.2605   12.4337 C   0  0  0  0  0  0  0  0  0  0  0  0
    7.8926   -3.3619   13.3093 C   0  0  0  0  0  0  0  0  0  0  0  0
    7.1219   -4.2579   12.9064 O   0  0  0  0  0  0  0  0  0  0  0  0
    8.3638   -3.3952   14.6233 O   0  0  0  0  0  0  0  0  0  0  0  0
    8.7474    0.3640    5.0240 O   0  0  0  0  0  0  0  0  0  0  0  0
    3.6032    0.6386    3.4313 O   0  0  0  0  0  0  0  0  0  0  0  0
  1  2  1  0
  2  3  1  0
  3  4  1  0
  4  5  1  0
  5  6  1  0
  6  7  1  0
  7  8  2  3
  8  9  1  0
  9 10  1  0
 10 11  1  0
 11 12  1  0
 12 13  2  0
 12 14  1  0
 14 15  1  0
 15 16  1  0
 16 17  2  3
 17 18  1  0
 18 19  1  0
 19 20  1  0
 20 21  1  0
 21 22  2  0
 21 23  1  0
 10 24  1  0
  6 25  1  0
 14  9  1  0
M  END
$$$$
