
     RDKit          3D

 25 25  0  0  0  0  0  0  0  0999 V2000
   -1.4484    4.7445    8.8499 C   0  0  0  0  0  0  0  0  0  0  0  0
   -0.1945    4.4260    8.0488 C   0  0  0  0  0  0  0  0  0  0  0  0
    0.2740    3.0168    8.3090 C   0  0  0  0  0  0  0  0  0  0  0  0
    1.4449    2.6239    7.4571 C   0  0  0  0  0  0  0  0  0  0  0  0
    2.1472    1.4213    8.0535 C   0  0  0  0  0  0  0  0  0  0  0  0
    3.3694    1.0338    7.2622 C   0  0  0  0  0  0  0  0  0  0  0  0
    4.5651    1.1021    8.1430 C   0  0  0  0  0  0  0  0  0  0  0  0
    5.0728    0.0240    8.7373 C   0  0  0  0  0  0  0  0  0  0  0  0
    6.2812    0.1099    9.5794 C   0  0  0  0  0  0  0  0  0  0  0  0
    6.1757   -0.6417   10.8788 C   0  0  0  0  0  0  0  0  0  0  0  0
    7.5854   -1.0994   11.2152 C   0  0  0  0  0  0  0  0  0  0  0  0
    8.4211   -0.5994   10.0925 C   0  0  0  0  0  0  0  0  0  0  0  0
    9.5856   -0.3335   10.0903 O   0  0  0  0  0  0  0  0  0  0  0  0
    7.5018   -0.4876    8.9281 C   0  0  0  0  0  0  0  0  0  0  0  0
    7.2549   -1.8971    8.4349 C   0  0  0  0  0  0  0  0  0  0  0  0
    6.4855   -1.7541    7.1462 C   0  0  0  0  0  0  0  0  0  0  0  0
    7.0907   -1.6430    5.9825 C   0  0  0  0  0  0  0  0  0  0  0  0
    8.4317   -2.2394    5.7491 C   0  0  0  0  0  0  0  0  0  0  0  0
    8.8827   -2.0905    4.3340 C   0  0  0  0  0  0  0  0  0  0  0  0
    9.3778   -3.3820    3.7571 C   0  0  0  0  0  0  0  0  0  0  0  0
   10.0604   -3.1340    2.4770 C   0  0  0  0  0  0  0  0  0  0  0  0
    9.7471   -3.7480    1.4358 O   0  0  0  0  0  0  0  0  0  0  0  0
   11.0838   -2.1848    2.4379 O   0  0  0  0  0  0  0  0  0  0  0  0
    5.2821   -1.7048   10.8080 O   0  0  0  0  0  0  0  0  0  0  0  0
    3.1400   -0.2540    6.7828 O   0  0  0  0  0  0  0  0  0  0  0  0
  1  2  1  0
  2  3  1  0
  3  4  1  0
  4  5  1  0
  5  6  1  0
  6  7  1  0
  7  8  2  3
  8  9  1  0
  9 10  1  0
 10 11  1  0
 11 12  1  0
 12 13  2  0
 12 14  1  0
 14 15  1  0
 15 16  1  0
 16 17  2  3
 17 18  1  0
 18 19  1  0
 19 20  1  0
 20 21  1  0
 21 22  2  0
 21 23  1  0
 10 24  1  0
  6 25  1  0
 14  9  1  0
M  END
$$$$
