
     RDKit          3D

 25 25  0  0  0  0  0  0  0  0999 V2000
    0.1895    2.5124    6.3193 C   0  0  0  0  0  0  0  0  0  0  0  0
    1.3209    1.7729    5.6203 C   0  0  0  0  0  0  0  0  0  0  0  0
    2.3060    2.7374    5.0102 C   0  0  0  0  0  0  0  0  0  0  0  0
    3.6479    2.1173    4.7534 C   0  0  0  0  0  0  0  0  0  0  0  0
    4.6645    2.6363    5.7496 C   0  0  0  0  0  0  0  0  0  0  0  0
    6.0693    2.2363    5.3801 C   0  0  0  0  0  0  0  0  0  0  0  0
    6.1385    0.7573    5.2467 C   0  0  0  0  0  0  0  0  0  0  0  0
    6.2133   -0.0491    6.3037 C   0  0  0  0  0  0  0  0  0  0  0  0
    6.2961   -1.5137    6.1468 C   0  0  0  0  0  0  0  0  0  0  0  0
    7.2398   -1.9602    5.0629 C   0  0  0  0  0  0  0  0  0  0  0  0
    7.7853   -3.3067    5.5089 C   0  0  0  0  0  0  0  0  0  0  0  0
    7.1389   -3.5576    6.8236 C   0  0  0  0  0  0  0  0  0  0  0  0
    6.9099   -4.6025    7.3549 O   0  0  0  0  0  0  0  0  0  0  0  0
    6.8186   -2.2133    7.3750 C   0  0  0  0  0  0  0  0  0  0  0  0
    8.1250   -1.6214    7.8584 C   0  0  0  0  0  0  0  0  0  0  0  0
    7.8724   -1.1650    9.2730 C   0  0  0  0  0  0  0  0  0  0  0  0
    8.4712   -1.7251   10.3028 C   0  0  0  0  0  0  0  0  0  0  0  0
    8.1012   -1.3712   11.6979 C   0  0  0  0  0  0  0  0  0  0  0  0
    7.8982   -2.5755   12.5562 C   0  0  0  0  0  0  0  0  0  0  0  0
    8.0682   -2.2693   14.0133 C   0  0  0  0  0  0  0  0  0  0  0  0
    8.4743   -3.4831   14.7399 C   0  0  0  0  0  0  0  0  0  0  0  0
    9.6755   -3.7538   14.9469 O   0  0  0  0  0  0  0  0  0  0  0  0
    7.4812   -4.3473   15.2054 O   0  0  0  0  0  0  0  0  0  0  0  0
    8.2522   -1.0370    4.8248 O   0  0  0  0  0  0  0  0  0  0  0  0
    6.3663    2.8883    4.1852 O   0  0  0  0  0  0  0  0  0  0  0  0
  1  2  1  0
  2  3  1  0
  3  4  1  0
  4  5  1  0
  5  6  1  0
  6  7  1  0
  7  8  2  3
  8  9  1  0
  9 10  1  0
 10 11  1  0
 11 12  1  0
 12 13  2  0
 12 14  1  0
 14 15  1  0
 15 16  1  0
 16 17  2  3
 17 18  1  0
 18 19  1  0
 19 20  1  0
 20 21  1  0
 21 22  2  0
 21 23  1  0
 10 24  1  0
  6 25  1  0
 14  9  1  0
M  END
$$$$
