
     RDKit          3D

 25 25  0  0  0  0  0  0  0  0999 V2000
   -0.6277    3.6813    6.6719 C   0  0  0  0  0  0  0  0  0  0  0  0
    0.6617    3.8031    7.4707 C   0  0  0  0  0  0  0  0  0  0  0  0
    1.5434    2.5970    7.2677 C   0  0  0  0  0  0  0  0  0  0  0  0
    1.8083    1.8466    8.5396 C   0  0  0  0  0  0  0  0  0  0  0  0
    2.6942    0.6483    8.2665 C   0  0  0  0  0  0  0  0  0  0  0  0
    3.0050   -0.1201    9.5248 C   0  0  0  0  0  0  0  0  0  0  0  0
    4.4770   -0.1475    9.7309 C   0  0  0  0  0  0  0  0  0  0  0  0
    5.2311   -1.1721    9.3374 C   0  0  0  0  0  0  0  0  0  0  0  0
    6.3597   -1.6530   10.1568 C   0  0  0  0  0  0  0  0  0  0  0  0
    6.7540   -3.0783    9.8783 C   0  0  0  0  0  0  0  0  0  0  0  0
    8.2471   -3.1620   10.1490 C   0  0  0  0  0  0  0  0  0  0  0  0
    8.6332   -1.7857   10.5561 C   0  0  0  0  0  0  0  0  0  0  0  0
    9.5448   -1.4400   11.2461 O   0  0  0  0  0  0  0  0  0  0  0  0
    7.6345   -0.8851    9.9196 C   0  0  0  0  0  0  0  0  0  0  0  0
    7.9929   -0.8109    8.4510 C   0  0  0  0  0  0  0  0  0  0  0  0
    6.7396   -0.3616    7.7431 C   0  0  0  0  0  0  0  0  0  0  0  0
    6.4597   -0.7417    6.5143 C   0  0  0  0  0  0  0  0  0  0  0  0
    7.2836   -0.2953    5.3610 C   0  0  0  0  0  0  0  0  0  0  0  0
    7.0829   -1.1495    4.1533 C   0  0  0  0  0  0  0  0  0  0  0  0
    7.8846   -0.6718    2.9807 C   0  0  0  0  0  0  0  0  0  0  0  0
    9.1641   -1.3962    2.9156 C   0  0  0  0  0  0  0  0  0  0  0  0
   10.2104   -0.9268    3.4096 O   0  0  0  0  0  0  0  0  0  0  0  0
    9.1966   -2.6402    2.2823 O   0  0  0  0  0  0  0  0  0  0  0  0
    6.4323   -3.4768    8.5853 O   0  0  0  0  0  0  0  0  0  0  0  0
    2.3390    0.5300   10.5615 O   0  0  0  0  0  0  0  0  0  0  0  0
  1  2  1  0
  2  3  1  0
  3  4  1  0
  4  5  1  0
  5  6  1  0
  6  7  1  0
  7  8  2  3
  8  9  1  0
  9 10  1  0
 10 11  1  0
 11 12  1  0
 12 13  2  0
 12 14  1  0
 14 15  1  0
 15 16  1  0
 16 17  2  3
 17 18  1  0
 18 19  1  0
 19 20  1  0
 20 21  1  0
 21 22  2  0
 21 23  1  0
 10 24  1  0
  6 25  1  0
 14  9  1  0
M  END
$$$$
