
     RDKit          3D

 25 25  0  0  0  0  0  0  0  0999 V2000
    3.3133    2.9571    7.2855 C   0  0  0  0  0  0  0  0  0  0  0  0
    3.9368    1.7093    7.8936 C   0  0  0  0  0  0  0  0  0  0  0  0
    3.6388    1.6158    9.3686 C   0  0  0  0  0  0  0  0  0  0  0  0
    4.2462    0.4038   10.0115 C   0  0  0  0  0  0  0  0  0  0  0  0
    3.8740    0.3467   11.4789 C   0  0  0  0  0  0  0  0  0  0  0  0
    4.0204   -1.0429   12.0428 C   0  0  0  0  0  0  0  0  0  0  0  0
    5.4283   -1.2515   12.4722 C   0  0  0  0  0  0  0  0  0  0  0  0
    6.1370   -2.3134   12.0940 C   0  0  0  0  0  0  0  0  0  0  0  0
    7.4298   -2.6376   12.7265 C   0  0  0  0  0  0  0  0  0  0  0  0
    7.6482   -4.1093   12.9521 C   0  0  0  0  0  0  0  0  0  0  0  0
    9.1482   -4.3321   12.8508 C   0  0  0  0  0  0  0  0  0  0  0  0
    9.7096   -2.9863   12.5631 C   0  0  0  0  0  0  0  0  0  0  0  0
   10.8011   -2.5661   12.8053 O   0  0  0  0  0  0  0  0  0  0  0  0
    8.6170   -2.2321   11.8915 C   0  0  0  0  0  0  0  0  0  0  0  0
    8.5301   -2.7639   10.4771 C   0  0  0  0  0  0  0  0  0  0  0  0
    8.9107   -1.6134    9.5801 C   0  0  0  0  0  0  0  0  0  0  0  0
    8.2680   -1.3622    8.4591 C   0  0  0  0  0  0  0  0  0  0  0  0
    8.4764   -2.1947    7.2459 C   0  0  0  0  0  0  0  0  0  0  0  0
    7.2134   -2.4118    6.4804 C   0  0  0  0  0  0  0  0  0  0  0  0
    7.4245   -3.2665    5.2677 C   0  0  0  0  0  0  0  0  0  0  0  0
    7.5607   -2.4201    4.0713 C   0  0  0  0  0  0  0  0  0  0  0  0
    7.9395   -2.8862    2.9766 O   0  0  0  0  0  0  0  0  0  0  0  0
    7.2555   -1.0616    4.1753 O   0  0  0  0  0  0  0  0  0  0  0  0
    6.9392   -4.8970   12.0517 O   0  0  0  0  0  0  0  0  0  0  0  0
    3.1251   -1.1360   13.1062 O   0  0  0  0  0  0  0  0  0  0  0  0
  1  2  1  0
  2  3  1  0
  3  4  1  0
  4  5  1  0
  5  6  1  0
  6  7  1  0
  7  8  2  3
  8  9  1  0
  9 10  1  0
 10 11  1  0
 11 12  1  0
 12 13  2  0
 12 14  1  0
 14 15  1  0
 15 16  1  0
 16 17  2  3
 17 18  1  0
 18 19  1  0
 19 20  1  0
 20 21  1  0
 21 22  2  0
 21 23  1  0
 10 24  1  0
  6 25  1  0
 14  9  1  0
M  END
$$$$
