
     RDKit          3D

 25 28  0  0  0  0  0  0  0  0999 V2000
    1.0991    1.6013    6.5173 C   0  0  0  0  0  0  0  0  0  0  0  0
    2.2963    1.0033    6.7985 C   0  0  0  0  0  0  0  0  0  0  0  0
    2.7800    1.5379    7.8712 O   0  0  0  0  0  0  0  0  0  0  0  0
    1.9886    2.4605    8.3369 C   0  0  0  0  0  0  0  0  0  0  0  0
    0.9014    2.5349    7.5023 C   0  0  0  0  0  0  0  0  0  0  0  0
    2.2318    3.2760    9.5516 C   0  0  0  0  0  0  0  0  0  0  0  0
    3.1737    3.1390   10.4835 N   0  0  0  0  0  0  0  0  0  0  0  0
    3.0813    4.0619   11.4305 N   0  0  0  0  0  0  0  0  0  0  0  0
    3.7767    4.3388   12.5483 C   0  0  0  0  0  0  0  0  0  0  0  0
    3.4053    5.3806   13.3067 N   0  0  0  0  0  0  0  0  0  0  0  0
    2.3608    6.1621   12.9919 C   0  0  0  0  0  0  0  0  0  0  0  0
    1.6937    5.8527   11.8701 N   0  0  0  0  0  0  0  0  0  0  0  0
    2.0100    4.8236   11.0626 C   0  0  0  0  0  0  0  0  0  0  0  0
    1.4972    4.3376    9.9151 N   0  0  0  0  0  0  0  0  0  0  0  0
    2.0106    7.2441   13.8146 N   0  0  0  0  0  0  0  0  0  0  0  0
    1.0972    8.2606   13.3609 C   0  0  0  0  0  0  0  0  0  0  0  0
    1.8278    9.3168   12.6109 C   0  0  0  0  0  0  0  0  0  0  0  0
    1.3433   10.6850   12.8943 C   0  0  0  0  0  0  0  0  0  0  0  0
    2.0200   11.6221   13.6438 C   0  0  0  0  0  0  0  0  0  0  0  0
    1.5159   12.8848   13.8759 C   0  0  0  0  0  0  0  0  0  0  0  0
    0.2922   13.2047   13.3326 C   0  0  0  0  0  0  0  0  0  0  0  0
   -0.4318   12.3041   12.5718 C   0  0  0  0  0  0  0  0  0  0  0  0
    0.1218   11.0584   12.3738 C   0  0  0  0  0  0  0  0  0  0  0  0
   -0.2606   14.4629   13.5362 O   0  0  0  0  0  0  0  0  0  0  0  0
    4.8858    3.5605   12.9424 N   0  0  0  0  0  0  0  0  0  0  0  0
  1  2  2  0
  2  3  1  0
  3  4  1  0
  4  5  2  0
  4  6  1  0
  6  7  2  0
  7  8  1  0
  8  9  1  0
  9 10  2  0
 10 11  1  0
 11 12  2  0
 12 13  1  0
 13 14  2  0
 11 15  1  0
 15 16  1  0
 16 17  1  0
 17 18  1  0
 18 19  2  0
 19 20  1  0
 20 21  2  0
 21 22  1  0
 22 23  2  0
 21 24  1  0
  9 25  1  0
  5  1  1  0
 14  6  1  0
 13  8  1  0
 23 18  1  0
M  END
$$$$
