
     RDKit          3D

 25 28  0  0  0  0  0  0  0  0999 V2000
    1.6416    0.5048    6.6722 C   0  0  0  0  0  0  0  0  0  0  0  0
    2.8810    0.2070    7.1673 C   0  0  0  0  0  0  0  0  0  0  0  0
    3.1633    1.0531    8.1027 O   0  0  0  0  0  0  0  0  0  0  0  0
    2.1957    1.9064    8.2750 C   0  0  0  0  0  0  0  0  0  0  0  0
    1.2020    1.5933    7.3814 C   0  0  0  0  0  0  0  0  0  0  0  0
    2.1838    3.0125    9.2631 C   0  0  0  0  0  0  0  0  0  0  0  0
    2.9937    3.2251   10.2991 N   0  0  0  0  0  0  0  0  0  0  0  0
    2.6785    4.3270   10.9650 N   0  0  0  0  0  0  0  0  0  0  0  0
    3.1787    4.9503   12.0472 C   0  0  0  0  0  0  0  0  0  0  0  0
    2.6036    6.0856   12.4704 N   0  0  0  0  0  0  0  0  0  0  0  0
    1.5423    6.6269   11.8527 C   0  0  0  0  0  0  0  0  0  0  0  0
    1.0738    5.9749   10.7781 N   0  0  0  0  0  0  0  0  0  0  0  0
    1.6003    4.8332   10.2983 C   0  0  0  0  0  0  0  0  0  0  0  0
    1.3047    4.0253    9.2611 N   0  0  0  0  0  0  0  0  0  0  0  0
    0.9751    7.8188   12.3300 N   0  0  0  0  0  0  0  0  0  0  0  0
    1.5681    8.5399   13.4262 C   0  0  0  0  0  0  0  0  0  0  0  0
    1.1837    7.9206   14.7226 C   0  0  0  0  0  0  0  0  0  0  0  0
    2.0487    8.3272   15.8511 C   0  0  0  0  0  0  0  0  0  0  0  0
    1.6180    9.0037   16.9712 C   0  0  0  0  0  0  0  0  0  0  0  0
    2.4737    9.3584   17.9931 C   0  0  0  0  0  0  0  0  0  0  0  0
    3.8021    9.0173   17.8747 C   0  0  0  0  0  0  0  0  0  0  0  0
    4.2907    8.3381   16.7729 C   0  0  0  0  0  0  0  0  0  0  0  0
    3.3893    8.0103   15.7841 C   0  0  0  0  0  0  0  0  0  0  0  0
    4.7059    9.3509   18.8757 O   0  0  0  0  0  0  0  0  0  0  0  0
    4.2921    4.4394   12.7476 N   0  0  0  0  0  0  0  0  0  0  0  0
  1  2  2  0
  2  3  1  0
  3  4  1  0
  4  5  2  0
  4  6  1  0
  6  7  2  0
  7  8  1  0
  8  9  1  0
  9 10  2  0
 10 11  1  0
 11 12  2  0
 12 13  1  0
 13 14  2  0
 11 15  1  0
 15 16  1  0
 16 17  1  0
 17 18  1  0
 18 19  2  0
 19 20  1  0
 20 21  2  0
 21 22  1  0
 22 23  2  0
 21 24  1  0
  9 25  1  0
  5  1  1  0
 14  6  1  0
 13  8  1  0
 23 18  1  0
M  END
$$$$
