
     RDKit          3D

 25 28  0  0  0  0  0  0  0  0999 V2000
    0.8119    0.7725    7.3007 C   0  0  0  0  0  0  0  0  0  0  0  0
    2.0430    0.2585    7.6009 C   0  0  0  0  0  0  0  0  0  0  0  0
    2.6126    1.0350    8.4629 O   0  0  0  0  0  0  0  0  0  0  0  0
    1.8479    2.0433    8.7677 C   0  0  0  0  0  0  0  0  0  0  0  0
    0.6863    1.9157    8.0478 C   0  0  0  0  0  0  0  0  0  0  0  0
    2.1852    3.1268    9.7227 C   0  0  0  0  0  0  0  0  0  0  0  0
    3.1381    3.1634   10.6527 N   0  0  0  0  0  0  0  0  0  0  0  0
    3.1421    4.3071   11.3228 N   0  0  0  0  0  0  0  0  0  0  0  0
    3.8861    4.8106   12.3242 C   0  0  0  0  0  0  0  0  0  0  0  0
    3.6161    6.0417   12.7825 N   0  0  0  0  0  0  0  0  0  0  0  0
    2.6268    6.7951   12.2781 C   0  0  0  0  0  0  0  0  0  0  0  0
    1.9085    6.2570   11.2813 N   0  0  0  0  0  0  0  0  0  0  0  0
    2.1232    5.0297   10.7725 C   0  0  0  0  0  0  0  0  0  0  0  0
    1.5442    4.3026    9.7968 N   0  0  0  0  0  0  0  0  0  0  0  0
    2.3828    8.0800   12.7877 N   0  0  0  0  0  0  0  0  0  0  0  0
    1.0731    8.4634   13.2471 C   0  0  0  0  0  0  0  0  0  0  0  0
    1.1793    9.4875   14.3203 C   0  0  0  0  0  0  0  0  0  0  0  0
    1.4624    8.9173   15.6551 C   0  0  0  0  0  0  0  0  0  0  0  0
    0.5468    8.2489   16.4377 C   0  0  0  0  0  0  0  0  0  0  0  0
    0.8694    7.7392   17.6781 C   0  0  0  0  0  0  0  0  0  0  0  0
    2.1559    7.9128   18.1362 C   0  0  0  0  0  0  0  0  0  0  0  0
    3.1168    8.5755   17.3936 C   0  0  0  0  0  0  0  0  0  0  0  0
    2.7367    9.0628   16.1625 C   0  0  0  0  0  0  0  0  0  0  0  0
    2.5327    7.4189   19.3788 O   0  0  0  0  0  0  0  0  0  0  0  0
    4.9421    4.0759   12.9040 N   0  0  0  0  0  0  0  0  0  0  0  0
  1  2  2  0
  2  3  1  0
  3  4  1  0
  4  5  2  0
  4  6  1  0
  6  7  2  0
  7  8  1  0
  8  9  1  0
  9 10  2  0
 10 11  1  0
 11 12  2  0
 12 13  1  0
 13 14  2  0
 11 15  1  0
 15 16  1  0
 16 17  1  0
 17 18  1  0
 18 19  2  0
 19 20  1  0
 20 21  2  0
 21 22  1  0
 22 23  2  0
 21 24  1  0
  9 25  1  0
  5  1  1  0
 14  6  1  0
 13  8  1  0
 23 18  1  0
M  END
$$$$
