
     RDKit          3D

 25 28  0  0  0  0  0  0  0  0999 V2000
    2.1277    0.4757    6.3951 C   0  0  0  0  0  0  0  0  0  0  0  0
    3.2318    0.1649    7.1397 C   0  0  0  0  0  0  0  0  0  0  0  0
    3.2685    0.9494    8.1661 O   0  0  0  0  0  0  0  0  0  0  0  0
    2.2607    1.7731    8.1669 C   0  0  0  0  0  0  0  0  0  0  0  0
    1.5052    1.5058    7.0526 C   0  0  0  0  0  0  0  0  0  0  0  0
    1.9910    2.8087    9.1939 C   0  0  0  0  0  0  0  0  0  0  0  0
    2.5645    2.9849   10.3831 N   0  0  0  0  0  0  0  0  0  0  0  0
    2.0626    4.0253   11.0335 N   0  0  0  0  0  0  0  0  0  0  0  0
    2.3015    4.5948   12.2286 C   0  0  0  0  0  0  0  0  0  0  0  0
    1.5921    5.6738   12.5908 N   0  0  0  0  0  0  0  0  0  0  0  0
    0.6476    6.2103   11.8028 C   0  0  0  0  0  0  0  0  0  0  0  0
    0.4399    5.6131   10.6198 N   0  0  0  0  0  0  0  0  0  0  0  0
    1.1134    4.5294   10.1920 C   0  0  0  0  0  0  0  0  0  0  0  0
    1.0758    3.7814    9.0717 N   0  0  0  0  0  0  0  0  0  0  0  0
   -0.0679    7.3424   12.2226 N   0  0  0  0  0  0  0  0  0  0  0  0
    0.1674    7.9369   13.5128 C   0  0  0  0  0  0  0  0  0  0  0  0
    1.2800    8.9208   13.4352 C   0  0  0  0  0  0  0  0  0  0  0  0
    2.3495    8.6829   14.4285 C   0  0  0  0  0  0  0  0  0  0  0  0
    3.6244    8.2562   14.1281 C   0  0  0  0  0  0  0  0  0  0  0  0
    4.5812    8.0497   15.0999 C   0  0  0  0  0  0  0  0  0  0  0  0
    4.2344    8.2825   16.4115 C   0  0  0  0  0  0  0  0  0  0  0  0
    2.9695    8.7118   16.7718 C   0  0  0  0  0  0  0  0  0  0  0  0
    2.0558    8.9009   15.7584 C   0  0  0  0  0  0  0  0  0  0  0  0
    5.1607    8.0898   17.4288 O   0  0  0  0  0  0  0  0  0  0  0  0
    3.2787    4.0852   13.1098 N   0  0  0  0  0  0  0  0  0  0  0  0
  1  2  2  0
  2  3  1  0
  3  4  1  0
  4  5  2  0
  4  6  1  0
  6  7  2  0
  7  8  1  0
  8  9  1  0
  9 10  2  0
 10 11  1  0
 11 12  2  0
 12 13  1  0
 13 14  2  0
 11 15  1  0
 15 16  1  0
 16 17  1  0
 17 18  1  0
 18 19  2  0
 19 20  1  0
 20 21  2  0
 21 22  1  0
 22 23  2  0
 21 24  1  0
  9 25  1  0
  5  1  1  0
 14  6  1  0
 13  8  1  0
 23 18  1  0
M  END
$$$$
