
     RDKit          3D

 25 28  0  0  0  0  0  0  0  0999 V2000
    3.4185   -0.3409    7.4517 C   0  0  0  0  0  0  0  0  0  0  0  0
    2.6132   -0.0322    6.3904 C   0  0  0  0  0  0  0  0  0  0  0  0
    1.9223    1.0178    6.6914 O   0  0  0  0  0  0  0  0  0  0  0  0
    2.2062    1.4424    7.8886 C   0  0  0  0  0  0  0  0  0  0  0  0
    3.1582    0.6033    8.4117 C   0  0  0  0  0  0  0  0  0  0  0  0
    1.6013    2.6219    8.5539 C   0  0  0  0  0  0  0  0  0  0  0  0
    0.7009    3.4839    8.0845 N   0  0  0  0  0  0  0  0  0  0  0  0
    0.3914    4.4194    8.9712 N   0  0  0  0  0  0  0  0  0  0  0  0
   -0.4388    5.4781    8.9741 C   0  0  0  0  0  0  0  0  0  0  0  0
   -0.5157    6.2440   10.0724 N   0  0  0  0  0  0  0  0  0  0  0  0
    0.2076    5.9940   11.1747 C   0  0  0  0  0  0  0  0  0  0  0  0
    1.0229    4.9297   11.1313 N   0  0  0  0  0  0  0  0  0  0  0  0
    1.1505    4.1187   10.0651 C   0  0  0  0  0  0  0  0  0  0  0  0
    1.8860    3.0205    9.8025 N   0  0  0  0  0  0  0  0  0  0  0  0
    0.0919    6.8218   12.3023 N   0  0  0  0  0  0  0  0  0  0  0  0
    1.0051    6.7052   13.4095 C   0  0  0  0  0  0  0  0  0  0  0  0
    2.3348    7.2635   13.0460 C   0  0  0  0  0  0  0  0  0  0  0  0
    3.4303    6.8007   13.9250 C   0  0  0  0  0  0  0  0  0  0  0  0
    4.7628    7.1037   13.7509 C   0  0  0  0  0  0  0  0  0  0  0  0
    5.7421    6.6406   14.6048 C   0  0  0  0  0  0  0  0  0  0  0  0
    5.3583    5.8489   15.6635 C   0  0  0  0  0  0  0  0  0  0  0  0
    4.0352    5.5124   15.8873 C   0  0  0  0  0  0  0  0  0  0  0  0
    3.1015    6.0039   15.0017 C   0  0  0  0  0  0  0  0  0  0  0  0
    6.3051    5.3564   16.5529 O   0  0  0  0  0  0  0  0  0  0  0  0
   -1.2293    5.8025    7.8512 N   0  0  0  0  0  0  0  0  0  0  0  0
  1  2  2  0
  2  3  1  0
  3  4  1  0
  4  5  2  0
  4  6  1  0
  6  7  2  0
  7  8  1  0
  8  9  1  0
  9 10  2  0
 10 11  1  0
 11 12  2  0
 12 13  1  0
 13 14  2  0
 11 15  1  0
 15 16  1  0
 16 17  1  0
 17 18  1  0
 18 19  2  0
 19 20  1  0
 20 21  2  0
 21 22  1  0
 22 23  2  0
 21 24  1  0
  9 25  1  0
  5  1  1  0
 14  6  1  0
 13  8  1  0
 23 18  1  0
M  END
$$$$
