
     RDKit          3D

 25 28  0  0  0  0  0  0  0  0999 V2000
    2.4137    0.2463    6.7075 C   0  0  0  0  0  0  0  0  0  0  0  0
    1.3808    0.9740    6.1846 C   0  0  0  0  0  0  0  0  0  0  0  0
    1.1105    1.9438    6.9952 O   0  0  0  0  0  0  0  0  0  0  0  0
    1.8933    1.9218    8.0350 C   0  0  0  0  0  0  0  0  0  0  0  0
    2.7425    0.8529    7.8928 C   0  0  0  0  0  0  0  0  0  0  0  0
    1.8610    2.8852    9.1622 C   0  0  0  0  0  0  0  0  0  0  0  0
    2.5979    2.9086   10.2715 N   0  0  0  0  0  0  0  0  0  0  0  0
    2.2883    3.9292   11.0587 N   0  0  0  0  0  0  0  0  0  0  0  0
    2.7342    4.3715   12.2484 C   0  0  0  0  0  0  0  0  0  0  0  0
    2.1862    5.4731   12.7821 N   0  0  0  0  0  0  0  0  0  0  0  0
    1.2047    6.1552   12.1719 C   0  0  0  0  0  0  0  0  0  0  0  0
    0.7885    5.6816   10.9880 N   0  0  0  0  0  0  0  0  0  0  0  0
    1.2920    4.5840   10.3940 C   0  0  0  0  0  0  0  0  0  0  0  0
    1.0371    3.9407    9.2377 N   0  0  0  0  0  0  0  0  0  0  0  0
    0.6634    7.3051   12.7673 N   0  0  0  0  0  0  0  0  0  0  0  0
    1.1390    7.7794   14.0410 C   0  0  0  0  0  0  0  0  0  0  0  0
    2.5456    8.2489   13.9271 C   0  0  0  0  0  0  0  0  0  0  0  0
    3.1590    8.5981   15.2267 C   0  0  0  0  0  0  0  0  0  0  0  0
    4.4763    8.9589   15.4056 C   0  0  0  0  0  0  0  0  0  0  0  0
    4.9932    9.2730   16.6453 C   0  0  0  0  0  0  0  0  0  0  0  0
    4.1501    9.2195   17.7321 C   0  0  0  0  0  0  0  0  0  0  0  0
    2.8185    8.8640   17.6120 C   0  0  0  0  0  0  0  0  0  0  0  0
    2.3586    8.5609   16.3494 C   0  0  0  0  0  0  0  0  0  0  0  0
    4.6203    9.5264   19.0029 O   0  0  0  0  0  0  0  0  0  0  0  0
    3.7626    3.7053   12.9481 N   0  0  0  0  0  0  0  0  0  0  0  0
  1  2  2  0
  2  3  1  0
  3  4  1  0
  4  5  2  0
  4  6  1  0
  6  7  2  0
  7  8  1  0
  8  9  1  0
  9 10  2  0
 10 11  1  0
 11 12  2  0
 12 13  1  0
 13 14  2  0
 11 15  1  0
 15 16  1  0
 16 17  1  0
 17 18  1  0
 18 19  2  0
 19 20  1  0
 20 21  2  0
 21 22  1  0
 22 23  2  0
 21 24  1  0
  9 25  1  0
  5  1  1  0
 14  6  1  0
 13  8  1  0
 23 18  1  0
M  END
$$$$
