
     RDKit          3D

 25 28  0  0  0  0  0  0  0  0999 V2000
    2.3872    9.9653   12.4540 C   0  0  0  0  0  0  0  0  0  0  0  0
    3.3024    9.5745   13.3919 C   0  0  0  0  0  0  0  0  0  0  0  0
    3.3788    8.2844   13.3780 O   0  0  0  0  0  0  0  0  0  0  0  0
    2.5747    7.7735   12.4911 C   0  0  0  0  0  0  0  0  0  0  0  0
    1.9208    8.8120   11.8766 C   0  0  0  0  0  0  0  0  0  0  0  0
    2.4066    6.3274   12.2075 C   0  0  0  0  0  0  0  0  0  0  0  0
    3.0098    5.2827   12.7722 N   0  0  0  0  0  0  0  0  0  0  0  0
    2.6032    4.1302   12.2588 N   0  0  0  0  0  0  0  0  0  0  0  0
    2.9033    2.8386   12.4860 C   0  0  0  0  0  0  0  0  0  0  0  0
    2.2871    1.8891   11.7665 N   0  0  0  0  0  0  0  0  0  0  0  0
    1.3777    2.1792   10.8233 C   0  0  0  0  0  0  0  0  0  0  0  0
    1.1068    3.4783   10.6274 N   0  0  0  0  0  0  0  0  0  0  0  0
    1.6858    4.4823   11.3113 C   0  0  0  0  0  0  0  0  0  0  0  0
    1.5715    5.8248   11.2862 N   0  0  0  0  0  0  0  0  0  0  0  0
    0.7560    1.1516   10.0970 N   0  0  0  0  0  0  0  0  0  0  0  0
   -0.0917    1.4428    8.9700 C   0  0  0  0  0  0  0  0  0  0  0  0
    0.6724    1.3169    7.7003 C   0  0  0  0  0  0  0  0  0  0  0  0
    0.3876    2.3958    6.7299 C   0  0  0  0  0  0  0  0  0  0  0  0
    0.0191    2.1991    5.4172 C   0  0  0  0  0  0  0  0  0  0  0  0
   -0.2327    3.2473    4.5568 C   0  0  0  0  0  0  0  0  0  0  0  0
   -0.1071    4.5294    5.0421 C   0  0  0  0  0  0  0  0  0  0  0  0
    0.2597    4.7868    6.3510 C   0  0  0  0  0  0  0  0  0  0  0  0
    0.4984    3.7004    7.1637 C   0  0  0  0  0  0  0  0  0  0  0  0
   -0.3493    5.6207    4.2171 O   0  0  0  0  0  0  0  0  0  0  0  0
    3.8497    2.4586   13.4611 N   0  0  0  0  0  0  0  0  0  0  0  0
  1  2  2  0
  2  3  1  0
  3  4  1  0
  4  5  2  0
  4  6  1  0
  6  7  2  0
  7  8  1  0
  8  9  1  0
  9 10  2  0
 10 11  1  0
 11 12  2  0
 12 13  1  0
 13 14  2  0
 11 15  1  0
 15 16  1  0
 16 17  1  0
 17 18  1  0
 18 19  2  0
 19 20  1  0
 20 21  2  0
 21 22  1  0
 22 23  2  0
 21 24  1  0
  9 25  1  0
  5  1  1  0
 14  6  1  0
 13  8  1  0
 23 18  1  0
M  END
$$$$
