
     RDKit          3D

 25 28  0  0  0  0  0  0  0  0999 V2000
    2.0123    1.7934    6.0831 C   0  0  0  0  0  0  0  0  0  0  0  0
    3.2644    1.4129    6.4799 C   0  0  0  0  0  0  0  0  0  0  0  0
    3.4959    1.9175    7.6470 O   0  0  0  0  0  0  0  0  0  0  0  0
    2.4819    2.6162    8.0688 C   0  0  0  0  0  0  0  0  0  0  0  0
    1.5105    2.5642    7.1005 C   0  0  0  0  0  0  0  0  0  0  0  0
    2.4051    3.3335    9.3646 C   0  0  0  0  0  0  0  0  0  0  0  0
    3.2354    3.2844   10.4050 N   0  0  0  0  0  0  0  0  0  0  0  0
    2.8431    4.0698   11.3982 N   0  0  0  0  0  0  0  0  0  0  0  0
    3.3271    4.3582   12.6198 C   0  0  0  0  0  0  0  0  0  0  0  0
    2.6623    5.2257   13.3971 N   0  0  0  0  0  0  0  0  0  0  0  0
    1.5264    5.8205   13.0012 C   0  0  0  0  0  0  0  0  0  0  0  0
    1.0771    5.5062   11.7771 N   0  0  0  0  0  0  0  0  0  0  0  0
    1.6916    4.6457   10.9446 C   0  0  0  0  0  0  0  0  0  0  0  0
    1.4312    4.1913    9.7030 N   0  0  0  0  0  0  0  0  0  0  0  0
    0.8663    6.7245   13.8480 N   0  0  0  0  0  0  0  0  0  0  0  0
    0.6435    8.0907   13.4514 C   0  0  0  0  0  0  0  0  0  0  0  0
    1.4884    9.0096   14.2599 C   0  0  0  0  0  0  0  0  0  0  0  0
    1.6410   10.3529   13.6604 C   0  0  0  0  0  0  0  0  0  0  0  0
    1.3891   10.6614   12.3417 C   0  0  0  0  0  0  0  0  0  0  0  0
    1.5514   11.9353   11.8383 C   0  0  0  0  0  0  0  0  0  0  0  0
    1.9808   12.9222   12.6965 C   0  0  0  0  0  0  0  0  0  0  0  0
    2.2489   12.6702   14.0302 C   0  0  0  0  0  0  0  0  0  0  0  0
    2.0689   11.3794   14.4762 C   0  0  0  0  0  0  0  0  0  0  0  0
    2.1604   14.2221   12.2402 O   0  0  0  0  0  0  0  0  0  0  0  0
    4.5155    3.7708   13.1032 N   0  0  0  0  0  0  0  0  0  0  0  0
  1  2  2  0
  2  3  1  0
  3  4  1  0
  4  5  2  0
  4  6  1  0
  6  7  2  0
  7  8  1  0
  8  9  1  0
  9 10  2  0
 10 11  1  0
 11 12  2  0
 12 13  1  0
 13 14  2  0
 11 15  1  0
 15 16  1  0
 16 17  1  0
 17 18  1  0
 18 19  2  0
 19 20  1  0
 20 21  2  0
 21 22  1  0
 22 23  2  0
 21 24  1  0
  9 25  1  0
  5  1  1  0
 14  6  1  0
 13  8  1  0
 23 18  1  0
M  END
$$$$
