
     RDKit          3D

 25 28  0  0  0  0  0  0  0  0999 V2000
    2.2830   -0.2980    7.2435 C   0  0  0  0  0  0  0  0  0  0  0  0
    1.1591    0.3200    6.7694 C   0  0  0  0  0  0  0  0  0  0  0  0
    0.9452    1.3809    7.4759 O   0  0  0  0  0  0  0  0  0  0  0  0
    1.8513    1.5235    8.3994 C   0  0  0  0  0  0  0  0  0  0  0  0
    2.7269    0.4725    8.2877 C   0  0  0  0  0  0  0  0  0  0  0  0
    1.9129    2.6282    9.3872 C   0  0  0  0  0  0  0  0  0  0  0  0
    2.7658    2.8113   10.3939 N   0  0  0  0  0  0  0  0  0  0  0  0
    2.5129    3.9228   11.0704 N   0  0  0  0  0  0  0  0  0  0  0  0
    3.0725    4.5271   12.1342 C   0  0  0  0  0  0  0  0  0  0  0  0
    2.5525    5.6812   12.5773 N   0  0  0  0  0  0  0  0  0  0  0  0
    1.4896    6.2599   11.9975 C   0  0  0  0  0  0  0  0  0  0  0  0
    0.9610    5.6258   10.9402 N   0  0  0  0  0  0  0  0  0  0  0  0
    1.4301    4.4670   10.4422 C   0  0  0  0  0  0  0  0  0  0  0  0
    1.0701    3.6710    9.4161 N   0  0  0  0  0  0  0  0  0  0  0  0
    0.9815    7.4702   12.4944 N   0  0  0  0  0  0  0  0  0  0  0  0
    1.6635    8.1934   13.5362 C   0  0  0  0  0  0  0  0  0  0  0  0
    1.3637    7.5951   14.8644 C   0  0  0  0  0  0  0  0  0  0  0  0
    2.3502    7.9485   15.9078 C   0  0  0  0  0  0  0  0  0  0  0  0
    3.2305    7.0649   16.4928 C   0  0  0  0  0  0  0  0  0  0  0  0
    4.1289    7.4534   17.4645 C   0  0  0  0  0  0  0  0  0  0  0  0
    4.1339    8.7740   17.8527 C   0  0  0  0  0  0  0  0  0  0  0  0
    3.2730    9.7054   17.3000 C   0  0  0  0  0  0  0  0  0  0  0  0
    2.3980    9.2593   16.3340 C   0  0  0  0  0  0  0  0  0  0  0  0
    5.0189    9.2174   18.8276 O   0  0  0  0  0  0  0  0  0  0  0  0
    4.1914    3.9770   12.7948 N   0  0  0  0  0  0  0  0  0  0  0  0
  1  2  2  0
  2  3  1  0
  3  4  1  0
  4  5  2  0
  4  6  1  0
  6  7  2  0
  7  8  1  0
  8  9  1  0
  9 10  2  0
 10 11  1  0
 11 12  2  0
 12 13  1  0
 13 14  2  0
 11 15  1  0
 15 16  1  0
 16 17  1  0
 17 18  1  0
 18 19  2  0
 19 20  1  0
 20 21  2  0
 21 22  1  0
 22 23  2  0
 21 24  1  0
  9 25  1  0
  5  1  1  0
 14  6  1  0
 13  8  1  0
 23 18  1  0
M  END
$$$$
