
     RDKit          3D

 25 28  0  0  0  0  0  0  0  0999 V2000
    1.3115    1.2879    6.6662 C   0  0  0  0  0  0  0  0  0  0  0  0
    2.5269    0.7660    7.0132 C   0  0  0  0  0  0  0  0  0  0  0  0
    2.9329    1.3530    8.0907 O   0  0  0  0  0  0  0  0  0  0  0  0
    2.0719    2.2400    8.4981 C   0  0  0  0  0  0  0  0  0  0  0  0
    1.0195    2.2322    7.6170 C   0  0  0  0  0  0  0  0  0  0  0  0
    2.2163    3.0971    9.6999 C   0  0  0  0  0  0  0  0  0  0  0  0
    3.1353    3.0495   10.6629 N   0  0  0  0  0  0  0  0  0  0  0  0
    2.9460    3.9834   11.5844 N   0  0  0  0  0  0  0  0  0  0  0  0
    3.5834    4.3345   12.7159 C   0  0  0  0  0  0  0  0  0  0  0  0
    3.1133    5.3625   13.4376 N   0  0  0  0  0  0  0  0  0  0  0  0
    2.0254    6.0584   13.0728 C   0  0  0  0  0  0  0  0  0  0  0  0
    1.4189    5.6768   11.9389 N   0  0  0  0  0  0  0  0  0  0  0  0
    1.8346    4.6565   11.1661 C   0  0  0  0  0  0  0  0  0  0  0  0
    1.3953    4.1097   10.0155 N   0  0  0  0  0  0  0  0  0  0  0  0
    1.5716    7.1293   13.8584 N   0  0  0  0  0  0  0  0  0  0  0  0
    0.6251    8.0839   13.3424 C   0  0  0  0  0  0  0  0  0  0  0  0
    1.3267    9.1455   12.5726 C   0  0  0  0  0  0  0  0  0  0  0  0
    0.4111   10.1181   11.9380 C   0  0  0  0  0  0  0  0  0  0  0  0
   -0.8206    9.8096   11.4041 C   0  0  0  0  0  0  0  0  0  0  0  0
   -1.6317   10.7615   10.8223 C   0  0  0  0  0  0  0  0  0  0  0  0
   -1.1802   12.0613   10.7816 C   0  0  0  0  0  0  0  0  0  0  0  0
    0.0478   12.4290   11.3020 C   0  0  0  0  0  0  0  0  0  0  0  0
    0.8142   11.4355   11.8705 C   0  0  0  0  0  0  0  0  0  0  0  0
   -1.9582   13.0585   10.2068 O   0  0  0  0  0  0  0  0  0  0  0  0
    4.7328    3.6482   13.1619 N   0  0  0  0  0  0  0  0  0  0  0  0
  1  2  2  0
  2  3  1  0
  3  4  1  0
  4  5  2  0
  4  6  1  0
  6  7  2  0
  7  8  1  0
  8  9  1  0
  9 10  2  0
 10 11  1  0
 11 12  2  0
 12 13  1  0
 13 14  2  0
 11 15  1  0
 15 16  1  0
 16 17  1  0
 17 18  1  0
 18 19  2  0
 19 20  1  0
 20 21  2  0
 21 22  1  0
 22 23  2  0
 21 24  1  0
  9 25  1  0
  5  1  1  0
 14  6  1  0
 13  8  1  0
 23 18  1  0
M  END
$$$$
