
     RDKit          3D

 25 28  0  0  0  0  0  0  0  0999 V2000
    1.4277    1.1275    6.7915 C   0  0  0  0  0  0  0  0  0  0  0  0
    2.6420    0.6762    7.2295 C   0  0  0  0  0  0  0  0  0  0  0  0
    2.9185    1.2625    8.3477 O   0  0  0  0  0  0  0  0  0  0  0  0
    1.9705    2.0829    8.6975 C   0  0  0  0  0  0  0  0  0  0  0  0
    0.9970    2.0286    7.7314 C   0  0  0  0  0  0  0  0  0  0  0  0
    1.9587    2.9190    9.9225 C   0  0  0  0  0  0  0  0  0  0  0  0
    2.8209    2.9378   10.9377 N   0  0  0  0  0  0  0  0  0  0  0  0
    2.4861    3.8244   11.8645 N   0  0  0  0  0  0  0  0  0  0  0  0
    3.0188    4.2077   13.0389 C   0  0  0  0  0  0  0  0  0  0  0  0
    2.4073    5.1654   13.7513 N   0  0  0  0  0  0  0  0  0  0  0  0
    1.2780    5.7595   13.3357 C   0  0  0  0  0  0  0  0  0  0  0  0
    0.7791    5.3490   12.1602 N   0  0  0  0  0  0  0  0  0  0  0  0
    1.3389    4.3949   11.3938 C   0  0  0  0  0  0  0  0  0  0  0  0
    1.0237    3.8370   10.2083 N   0  0  0  0  0  0  0  0  0  0  0  0
    0.6747    6.7598   14.1138 N   0  0  0  0  0  0  0  0  0  0  0  0
    0.6911    8.1385   13.6988 C   0  0  0  0  0  0  0  0  0  0  0  0
   -0.5642    8.4777   12.9769 C   0  0  0  0  0  0  0  0  0  0  0  0
   -0.5393    9.8143   12.3444 C   0  0  0  0  0  0  0  0  0  0  0  0
    0.3732   10.8057   12.6309 C   0  0  0  0  0  0  0  0  0  0  0  0
    0.3454   12.0360   12.0082 C   0  0  0  0  0  0  0  0  0  0  0  0
   -0.6348   12.2660   11.0695 C   0  0  0  0  0  0  0  0  0  0  0  0
   -1.5772   11.3076   10.7416 C   0  0  0  0  0  0  0  0  0  0  0  0
   -1.4998   10.0980   11.3961 C   0  0  0  0  0  0  0  0  0  0  0  0
   -0.7073   13.4883   10.4130 O   0  0  0  0  0  0  0  0  0  0  0  0
    4.2036    3.6272   13.5393 N   0  0  0  0  0  0  0  0  0  0  0  0
  1  2  2  0
  2  3  1  0
  3  4  1  0
  4  5  2  0
  4  6  1  0
  6  7  2  0
  7  8  1  0
  8  9  1  0
  9 10  2  0
 10 11  1  0
 11 12  2  0
 12 13  1  0
 13 14  2  0
 11 15  1  0
 15 16  1  0
 16 17  1  0
 17 18  1  0
 18 19  2  0
 19 20  1  0
 20 21  2  0
 21 22  1  0
 22 23  2  0
 21 24  1  0
  9 25  1  0
  5  1  1  0
 14  6  1  0
 13  8  1  0
 23 18  1  0
M  END
$$$$
