
     RDKit          3D

 25 28  0  0  0  0  0  0  0  0999 V2000
    2.8476   -0.1096    7.2301 C   0  0  0  0  0  0  0  0  0  0  0  0
    1.6171    0.1861    6.7120 C   0  0  0  0  0  0  0  0  0  0  0  0
    1.1688    1.2467    7.2990 O   0  0  0  0  0  0  0  0  0  0  0  0
    2.0154    1.6907    8.1824 C   0  0  0  0  0  0  0  0  0  0  0  0
    3.1033    0.8539    8.1721 C   0  0  0  0  0  0  0  0  0  0  0  0
    1.8244    2.8868    9.0384 C   0  0  0  0  0  0  0  0  0  0  0  0
    0.7291    3.6208    9.2278 N   0  0  0  0  0  0  0  0  0  0  0  0
    0.9352    4.6219   10.0718 N   0  0  0  0  0  0  0  0  0  0  0  0
    0.1679    5.6081   10.5703 C   0  0  0  0  0  0  0  0  0  0  0  0
    0.7074    6.4823   11.4326 N   0  0  0  0  0  0  0  0  0  0  0  0
    1.9904    6.4110   11.8195 C   0  0  0  0  0  0  0  0  0  0  0  0
    2.7215    5.4137   11.2998 N   0  0  0  0  0  0  0  0  0  0  0  0
    2.2467    4.5022   10.4310 C   0  0  0  0  0  0  0  0  0  0  0  0
    2.7822    3.4411    9.7961 N   0  0  0  0  0  0  0  0  0  0  0  0
    2.5110    7.3467   12.7269 N   0  0  0  0  0  0  0  0  0  0  0  0
    3.8146    7.1715   13.3128 C   0  0  0  0  0  0  0  0  0  0  0  0
    3.7310    6.2937   14.5105 C   0  0  0  0  0  0  0  0  0  0  0  0
    4.0898    6.9785   15.7711 C   0  0  0  0  0  0  0  0  0  0  0  0
    4.0895    8.3437   15.9549 C   0  0  0  0  0  0  0  0  0  0  0  0
    4.4359    8.9264   17.1562 C   0  0  0  0  0  0  0  0  0  0  0  0
    4.7920    8.1009   18.1986 C   0  0  0  0  0  0  0  0  0  0  0  0
    4.8103    6.7234   18.0716 C   0  0  0  0  0  0  0  0  0  0  0  0
    4.4547    6.1986   16.8486 C   0  0  0  0  0  0  0  0  0  0  0  0
    5.1496    8.6367   19.4296 O   0  0  0  0  0  0  0  0  0  0  0  0
   -1.1890    5.7456   10.2084 N   0  0  0  0  0  0  0  0  0  0  0  0
  1  2  2  0
  2  3  1  0
  3  4  1  0
  4  5  2  0
  4  6  1  0
  6  7  2  0
  7  8  1  0
  8  9  1  0
  9 10  2  0
 10 11  1  0
 11 12  2  0
 12 13  1  0
 13 14  2  0
 11 15  1  0
 15 16  1  0
 16 17  1  0
 17 18  1  0
 18 19  2  0
 19 20  1  0
 20 21  2  0
 21 22  1  0
 22 23  2  0
 21 24  1  0
  9 25  1  0
  5  1  1  0
 14  6  1  0
 13  8  1  0
 23 18  1  0
M  END
$$$$
