
     RDKit          3D

 25 28  0  0  0  0  0  0  0  0999 V2000
    2.0115    0.4083    6.4177 C   0  0  0  0  0  0  0  0  0  0  0  0
    3.1876    0.0834    7.0351 C   0  0  0  0  0  0  0  0  0  0  0  0
    3.3184    0.8256    8.0851 O   0  0  0  0  0  0  0  0  0  0  0  0
    2.3071    1.6337    8.2208 C   0  0  0  0  0  0  0  0  0  0  0  0
    1.4470    1.4013    7.1767 C   0  0  0  0  0  0  0  0  0  0  0  0
    2.1304    2.6221    9.3125 C   0  0  0  0  0  0  0  0  0  0  0  0
    2.8349    2.7748   10.4326 N   0  0  0  0  0  0  0  0  0  0  0  0
    2.3832    3.7737   11.1777 N   0  0  0  0  0  0  0  0  0  0  0  0
    2.7447    4.3077   12.3584 C   0  0  0  0  0  0  0  0  0  0  0  0
    2.0519    5.3486   12.8433 N   0  0  0  0  0  0  0  0  0  0  0  0
    1.0058    5.8811   12.1928 C   0  0  0  0  0  0  0  0  0  0  0  0
    0.6775    5.3200   11.0195 N   0  0  0  0  0  0  0  0  0  0  0  0
    1.3270    4.2755   10.4734 C   0  0  0  0  0  0  0  0  0  0  0  0
    1.1793    3.5674    9.3365 N   0  0  0  0  0  0  0  0  0  0  0  0
    0.3122    6.9727   12.7378 N   0  0  0  0  0  0  0  0  0  0  0  0
    0.6557    7.5037   14.0315 C   0  0  0  0  0  0  0  0  0  0  0  0
    1.7019    8.5526   13.9003 C   0  0  0  0  0  0  0  0  0  0  0  0
    2.4541    8.7963   15.1500 C   0  0  0  0  0  0  0  0  0  0  0  0
    3.2280    7.8603   15.8002 C   0  0  0  0  0  0  0  0  0  0  0  0
    3.9068    8.1461   16.9663 C   0  0  0  0  0  0  0  0  0  0  0  0
    3.7972    9.4160   17.4862 C   0  0  0  0  0  0  0  0  0  0  0  0
    3.0345   10.3960   16.8763 C   0  0  0  0  0  0  0  0  0  0  0  0
    2.3792   10.0525   15.7143 C   0  0  0  0  0  0  0  0  0  0  0  0
    4.4607    9.7559   18.6586 O   0  0  0  0  0  0  0  0  0  0  0  0
    3.8335    3.7999   13.0986 N   0  0  0  0  0  0  0  0  0  0  0  0
  1  2  2  0
  2  3  1  0
  3  4  1  0
  4  5  2  0
  4  6  1  0
  6  7  2  0
  7  8  1  0
  8  9  1  0
  9 10  2  0
 10 11  1  0
 11 12  2  0
 12 13  1  0
 13 14  2  0
 11 15  1  0
 15 16  1  0
 16 17  1  0
 17 18  1  0
 18 19  2  0
 19 20  1  0
 20 21  2  0
 21 22  1  0
 22 23  2  0
 21 24  1  0
  9 25  1  0
  5  1  1  0
 14  6  1  0
 13  8  1  0
 23 18  1  0
M  END
$$$$
