
     RDKit          3D

 25 28  0  0  0  0  0  0  0  0999 V2000
    2.6932    0.0682    6.7173 C   0  0  0  0  0  0  0  0  0  0  0  0
    1.5126    0.6107    6.2908 C   0  0  0  0  0  0  0  0  0  0  0  0
    1.2198    1.6097    7.0567 O   0  0  0  0  0  0  0  0  0  0  0  0
    2.1253    1.7809    7.9760 C   0  0  0  0  0  0  0  0  0  0  0  0
    3.0862    0.8174    7.7967 C   0  0  0  0  0  0  0  0  0  0  0  0
    2.1078    2.8324    9.0219 C   0  0  0  0  0  0  0  0  0  0  0  0
    1.1941    3.7732    9.2551 N   0  0  0  0  0  0  0  0  0  0  0  0
    1.5170    4.5424   10.2853 N   0  0  0  0  0  0  0  0  0  0  0  0
    0.9393    5.5933   10.8950 C   0  0  0  0  0  0  0  0  0  0  0  0
    1.5529    6.1560   11.9464 N   0  0  0  0  0  0  0  0  0  0  0  0
    2.7276    5.7089   12.4165 C   0  0  0  0  0  0  0  0  0  0  0  0
    3.2704    4.6597   11.7810 N   0  0  0  0  0  0  0  0  0  0  0  0
    2.7116    4.0465   10.7215 C   0  0  0  0  0  0  0  0  0  0  0  0
    3.0652    3.0032    9.9453 N   0  0  0  0  0  0  0  0  0  0  0  0
    3.3314    6.3278   13.5221 N   0  0  0  0  0  0  0  0  0  0  0  0
    2.6730    7.3943   14.2311 C   0  0  0  0  0  0  0  0  0  0  0  0
    2.9818    7.3191   15.6840 C   0  0  0  0  0  0  0  0  0  0  0  0
    3.0037    8.6382   16.3523 C   0  0  0  0  0  0  0  0  0  0  0  0
    4.0672    9.1420   17.0684 C   0  0  0  0  0  0  0  0  0  0  0  0
    4.0286   10.3814   17.6725 C   0  0  0  0  0  0  0  0  0  0  0  0
    2.8797   11.1292   17.5460 C   0  0  0  0  0  0  0  0  0  0  0  0
    1.7812   10.6741   16.8390 C   0  0  0  0  0  0  0  0  0  0  0  0
    1.8778    9.4290   16.2574 C   0  0  0  0  0  0  0  0  0  0  0  0
    2.7889   12.3841   18.1351 O   0  0  0  0  0  0  0  0  0  0  0  0
   -0.2947    6.1179   10.4556 N   0  0  0  0  0  0  0  0  0  0  0  0
  1  2  2  0
  2  3  1  0
  3  4  1  0
  4  5  2  0
  4  6  1  0
  6  7  2  0
  7  8  1  0
  8  9  1  0
  9 10  2  0
 10 11  1  0
 11 12  2  0
 12 13  1  0
 13 14  2  0
 11 15  1  0
 15 16  1  0
 16 17  1  0
 17 18  1  0
 18 19  2  0
 19 20  1  0
 20 21  2  0
 21 22  1  0
 22 23  2  0
 21 24  1  0
  9 25  1  0
  5  1  1  0
 14  6  1  0
 13  8  1  0
 23 18  1  0
M  END
$$$$
