
     RDKit          3D

 25 28  0  0  0  0  0  0  0  0999 V2000
    1.7824    0.5894    5.9730 C   0  0  0  0  0  0  0  0  0  0  0  0
    2.9309    0.1490    6.5704 C   0  0  0  0  0  0  0  0  0  0  0  0
    3.1184    0.8310    7.6521 O   0  0  0  0  0  0  0  0  0  0  0  0
    2.1713    1.7064    7.8282 C   0  0  0  0  0  0  0  0  0  0  0  0
    1.2953    1.5871    6.7783 C   0  0  0  0  0  0  0  0  0  0  0  0
    2.0709    2.6551    8.9638 C   0  0  0  0  0  0  0  0  0  0  0  0
    2.7791    2.6973   10.0912 N   0  0  0  0  0  0  0  0  0  0  0  0
    2.4074    3.6952   10.8806 N   0  0  0  0  0  0  0  0  0  0  0  0
    2.8052    4.1428   12.0853 C   0  0  0  0  0  0  0  0  0  0  0  0
    2.1982    5.2143   12.6164 N   0  0  0  0  0  0  0  0  0  0  0  0
    1.2036    5.8610   11.9890 C   0  0  0  0  0  0  0  0  0  0  0  0
    0.8366    5.3834   10.7905 N   0  0  0  0  0  0  0  0  0  0  0  0
    1.4006    4.3147   10.1982 C   0  0  0  0  0  0  0  0  0  0  0  0
    1.2012    3.6740    9.0295 N   0  0  0  0  0  0  0  0  0  0  0  0
    0.5996    6.9805   12.5824 N   0  0  0  0  0  0  0  0  0  0  0  0
    1.1273    7.5594   13.7906 C   0  0  0  0  0  0  0  0  0  0  0  0
    2.4658    8.1564   13.5380 C   0  0  0  0  0  0  0  0  0  0  0  0
    3.2794    8.3220   14.7617 C   0  0  0  0  0  0  0  0  0  0  0  0
    4.3860    7.5664   15.0816 C   0  0  0  0  0  0  0  0  0  0  0  0
    5.1057    7.7665   16.2411 C   0  0  0  0  0  0  0  0  0  0  0  0
    4.6910    8.7603   17.0986 C   0  0  0  0  0  0  0  0  0  0  0  0
    3.5874    9.5499   16.8291 C   0  0  0  0  0  0  0  0  0  0  0  0
    2.9080    9.3040   15.6562 C   0  0  0  0  0  0  0  0  0  0  0  0
    5.3807    9.0031   18.2799 O   0  0  0  0  0  0  0  0  0  0  0  0
    3.8438    3.5130   12.8034 N   0  0  0  0  0  0  0  0  0  0  0  0
  1  2  2  0
  2  3  1  0
  3  4  1  0
  4  5  2  0
  4  6  1  0
  6  7  2  0
  7  8  1  0
  8  9  1  0
  9 10  2  0
 10 11  1  0
 11 12  2  0
 12 13  1  0
 13 14  2  0
 11 15  1  0
 15 16  1  0
 16 17  1  0
 17 18  1  0
 18 19  2  0
 19 20  1  0
 20 21  2  0
 21 22  1  0
 22 23  2  0
 21 24  1  0
  9 25  1  0
  5  1  1  0
 14  6  1  0
 13  8  1  0
 23 18  1  0
M  END
$$$$
