
     RDKit          3D

 25 28  0  0  0  0  0  0  0  0999 V2000
    2.3207    0.7730    6.1792 C   0  0  0  0  0  0  0  0  0  0  0  0
    3.5846    0.5742    6.6621 C   0  0  0  0  0  0  0  0  0  0  0  0
    3.7607    1.3489    7.6816 O   0  0  0  0  0  0  0  0  0  0  0  0
    2.6981    2.0611    7.9224 C   0  0  0  0  0  0  0  0  0  0  0  0
    1.7524    1.7253    6.9860 C   0  0  0  0  0  0  0  0  0  0  0  0
    2.5512    3.0527    9.0155 C   0  0  0  0  0  0  0  0  0  0  0  0
    3.2988    3.2225   10.1047 N   0  0  0  0  0  0  0  0  0  0  0  0
    2.8626    4.2186   10.8629 N   0  0  0  0  0  0  0  0  0  0  0  0
    3.2641    4.7648   12.0249 C   0  0  0  0  0  0  0  0  0  0  0  0
    2.5757    5.7975   12.5329 N   0  0  0  0  0  0  0  0  0  0  0  0
    1.4955    6.3102   11.9235 C   0  0  0  0  0  0  0  0  0  0  0  0
    1.1279    5.7375   10.7676 N   0  0  0  0  0  0  0  0  0  0  0  0
    1.7706    4.7001   10.2004 C   0  0  0  0  0  0  0  0  0  0  0  0
    1.5872    3.9834    9.0740 N   0  0  0  0  0  0  0  0  0  0  0  0
    0.8080    7.3941   12.4912 N   0  0  0  0  0  0  0  0  0  0  0  0
    1.1543    7.8958   13.7958 C   0  0  0  0  0  0  0  0  0  0  0  0
    2.3624    8.7594   13.7153 C   0  0  0  0  0  0  0  0  0  0  0  0
    2.6171    9.5354   14.9481 C   0  0  0  0  0  0  0  0  0  0  0  0
    3.2433    9.0458   16.0732 C   0  0  0  0  0  0  0  0  0  0  0  0
    3.4520    9.8186   17.1964 C   0  0  0  0  0  0  0  0  0  0  0  0
    3.0133   11.1232   17.1769 C   0  0  0  0  0  0  0  0  0  0  0  0
    2.3784   11.6683   16.0751 C   0  0  0  0  0  0  0  0  0  0  0  0
    2.1978   10.8489   14.9826 C   0  0  0  0  0  0  0  0  0  0  0  0
    3.1986   11.9443   18.2822 O   0  0  0  0  0  0  0  0  0  0  0  0
    4.3902    4.2780   12.7220 N   0  0  0  0  0  0  0  0  0  0  0  0
  1  2  2  0
  2  3  1  0
  3  4  1  0
  4  5  2  0
  4  6  1  0
  6  7  2  0
  7  8  1  0
  8  9  1  0
  9 10  2  0
 10 11  1  0
 11 12  2  0
 12 13  1  0
 13 14  2  0
 11 15  1  0
 15 16  1  0
 16 17  1  0
 17 18  1  0
 18 19  2  0
 19 20  1  0
 20 21  2  0
 21 22  1  0
 22 23  2  0
 21 24  1  0
  9 25  1  0
  5  1  1  0
 14  6  1  0
 13  8  1  0
 23 18  1  0
M  END
$$$$
