
     RDKit          3D

 25 28  0  0  0  0  0  0  0  0999 V2000
    3.0859    0.0765    6.9551 C   0  0  0  0  0  0  0  0  0  0  0  0
    2.2757    0.5577    5.9641 C   0  0  0  0  0  0  0  0  0  0  0  0
    1.6939    1.6289    6.3937 O   0  0  0  0  0  0  0  0  0  0  0  0
    2.0565    1.9064    7.6126 C   0  0  0  0  0  0  0  0  0  0  0  0
    2.9459    0.9400    8.0114 C   0  0  0  0  0  0  0  0  0  0  0  0
    1.5847    3.0623    8.4133 C   0  0  0  0  0  0  0  0  0  0  0  0
    0.7066    4.0097    8.0882 N   0  0  0  0  0  0  0  0  0  0  0  0
    0.5307    4.8881    9.0653 N   0  0  0  0  0  0  0  0  0  0  0  0
   -0.2265    5.9895    9.2181 C   0  0  0  0  0  0  0  0  0  0  0  0
   -0.1648    6.6688   10.3728 N   0  0  0  0  0  0  0  0  0  0  0  0
    0.6277    6.2903   11.3875 C   0  0  0  0  0  0  0  0  0  0  0  0
    1.3666    5.1874   11.1954 N   0  0  0  0  0  0  0  0  0  0  0  0
    1.3550    4.4577   10.0647 C   0  0  0  0  0  0  0  0  0  0  0  0
    1.9945    3.3432    9.6590 N   0  0  0  0  0  0  0  0  0  0  0  0
    0.6573    7.0311   12.5793 N   0  0  0  0  0  0  0  0  0  0  0  0
    1.5453    6.6762   13.6559 C   0  0  0  0  0  0  0  0  0  0  0  0
    2.7148    7.5945   13.6874 C   0  0  0  0  0  0  0  0  0  0  0  0
    3.9608    6.9485   14.1533 C   0  0  0  0  0  0  0  0  0  0  0  0
    4.1115    5.5985   14.3823 C   0  0  0  0  0  0  0  0  0  0  0  0
    5.3005    5.0527   14.8190 C   0  0  0  0  0  0  0  0  0  0  0  0
    6.3649    5.9000   15.0289 C   0  0  0  0  0  0  0  0  0  0  0  0
    6.2713    7.2637   14.8155 C   0  0  0  0  0  0  0  0  0  0  0  0
    5.0591    7.7516   14.3795 C   0  0  0  0  0  0  0  0  0  0  0  0
    7.5848    5.4015   15.4687 O   0  0  0  0  0  0  0  0  0  0  0  0
   -1.0828    6.4474    8.1944 N   0  0  0  0  0  0  0  0  0  0  0  0
  1  2  2  0
  2  3  1  0
  3  4  1  0
  4  5  2  0
  4  6  1  0
  6  7  2  0
  7  8  1  0
  8  9  1  0
  9 10  2  0
 10 11  1  0
 11 12  2  0
 12 13  1  0
 13 14  2  0
 11 15  1  0
 15 16  1  0
 16 17  1  0
 17 18  1  0
 18 19  2  0
 19 20  1  0
 20 21  2  0
 21 22  1  0
 22 23  2  0
 21 24  1  0
  9 25  1  0
  5  1  1  0
 14  6  1  0
 13  8  1  0
 23 18  1  0
M  END
$$$$
