
     RDKit          3D

 25 28  0  0  0  0  0  0  0  0999 V2000
    6.2607    3.2149   16.0969 C   0  0  0  0  0  0  0  0  0  0  0  0
    6.8297    4.4445   15.9120 C   0  0  0  0  0  0  0  0  0  0  0  0
    6.1272    5.0954   15.0442 O   0  0  0  0  0  0  0  0  0  0  0  0
    5.1176    4.3873   14.6275 C   0  0  0  0  0  0  0  0  0  0  0  0
    5.1639    3.1776   15.2743 C   0  0  0  0  0  0  0  0  0  0  0  0
    4.1078    4.8230   13.6324 C   0  0  0  0  0  0  0  0  0  0  0  0
    3.9880    5.9957   13.0121 N   0  0  0  0  0  0  0  0  0  0  0  0
    2.9555    6.0211   12.1811 N   0  0  0  0  0  0  0  0  0  0  0  0
    2.4344    6.9441   11.3526 C   0  0  0  0  0  0  0  0  0  0  0  0
    1.3491    6.6328   10.6289 N   0  0  0  0  0  0  0  0  0  0  0  0
    0.7593    5.4295   10.6996 C   0  0  0  0  0  0  0  0  0  0  0  0
    1.3092    4.5377   11.5372 N   0  0  0  0  0  0  0  0  0  0  0  0
    2.3960    4.7810   12.2925 C   0  0  0  0  0  0  0  0  0  0  0  0
    3.1050    4.0559   13.1800 N   0  0  0  0  0  0  0  0  0  0  0  0
   -0.3737    5.1477    9.9206 N   0  0  0  0  0  0  0  0  0  0  0  0
   -0.9289    3.8202    9.8651 C   0  0  0  0  0  0  0  0  0  0  0  0
    0.1473    2.8167    9.6494 C   0  0  0  0  0  0  0  0  0  0  0  0
    0.2945    2.4026    8.2373 C   0  0  0  0  0  0  0  0  0  0  0  0
   -0.4450    1.4156    7.6235 C   0  0  0  0  0  0  0  0  0  0  0  0
   -0.2613    1.0713    6.3006 C   0  0  0  0  0  0  0  0  0  0  0  0
    0.6987    1.7470    5.5817 C   0  0  0  0  0  0  0  0  0  0  0  0
    1.4708    2.7468    6.1459 C   0  0  0  0  0  0  0  0  0  0  0  0
    1.2426    3.0473    7.4707 C   0  0  0  0  0  0  0  0  0  0  0  0
    0.9238    1.4389    4.2458 O   0  0  0  0  0  0  0  0  0  0  0  0
    3.0007    8.2304   11.2269 N   0  0  0  0  0  0  0  0  0  0  0  0
  1  2  2  0
  2  3  1  0
  3  4  1  0
  4  5  2  0
  4  6  1  0
  6  7  2  0
  7  8  1  0
  8  9  1  0
  9 10  2  0
 10 11  1  0
 11 12  2  0
 12 13  1  0
 13 14  2  0
 11 15  1  0
 15 16  1  0
 16 17  1  0
 17 18  1  0
 18 19  2  0
 19 20  1  0
 20 21  2  0
 21 22  1  0
 22 23  2  0
 21 24  1  0
  9 25  1  0
  5  1  1  0
 14  6  1  0
 13  8  1  0
 23 18  1  0
M  END
$$$$
