
     RDKit          3D

 25 28  0  0  0  0  0  0  0  0999 V2000
    3.7350   -0.0999    8.0891 C   0  0  0  0  0  0  0  0  0  0  0  0
    2.6954   -0.1691    7.2035 C   0  0  0  0  0  0  0  0  0  0  0  0
    1.8893    0.8133    7.4395 O   0  0  0  0  0  0  0  0  0  0  0  0
    2.3143    1.5454    8.4283 C   0  0  0  0  0  0  0  0  0  0  0  0
    3.4915    0.9981    8.8740 C   0  0  0  0  0  0  0  0  0  0  0  0
    1.6371    2.7508    8.9652 C   0  0  0  0  0  0  0  0  0  0  0  0
    0.5064    3.3301    8.5651 N   0  0  0  0  0  0  0  0  0  0  0  0
    0.2063    4.3991    9.2892 N   0  0  0  0  0  0  0  0  0  0  0  0
   -0.7989    5.2931    9.2789 C   0  0  0  0  0  0  0  0  0  0  0  0
   -0.7988    6.2856   10.1809 N   0  0  0  0  0  0  0  0  0  0  0  0
    0.1708    6.4223   11.0986 C   0  0  0  0  0  0  0  0  0  0  0  0
    1.1546    5.5109   11.0753 N   0  0  0  0  0  0  0  0  0  0  0  0
    1.2186    4.4904   10.2004 C   0  0  0  0  0  0  0  0  0  0  0  0
    2.0876    3.4809    9.9960 N   0  0  0  0  0  0  0  0  0  0  0  0
    0.1274    7.4756   12.0252 N   0  0  0  0  0  0  0  0  0  0  0  0
    1.3111    7.9012   12.7260 C   0  0  0  0  0  0  0  0  0  0  0  0
    1.3163    7.3599   14.1113 C   0  0  0  0  0  0  0  0  0  0  0  0
    2.6739    7.1663   14.6649 C   0  0  0  0  0  0  0  0  0  0  0  0
    3.8445    7.4869   14.0135 C   0  0  0  0  0  0  0  0  0  0  0  0
    5.0847    7.2816   14.5813 C   0  0  0  0  0  0  0  0  0  0  0  0
    5.1376    6.7363   15.8441 C   0  0  0  0  0  0  0  0  0  0  0  0
    3.9950    6.3951   16.5454 C   0  0  0  0  0  0  0  0  0  0  0  0
    2.7849    6.6230   15.9277 C   0  0  0  0  0  0  0  0  0  0  0  0
    6.3614    6.5090   16.4613 O   0  0  0  0  0  0  0  0  0  0  0  0
   -1.8520    5.2127    8.3431 N   0  0  0  0  0  0  0  0  0  0  0  0
  1  2  2  0
  2  3  1  0
  3  4  1  0
  4  5  2  0
  4  6  1  0
  6  7  2  0
  7  8  1  0
  8  9  1  0
  9 10  2  0
 10 11  1  0
 11 12  2  0
 12 13  1  0
 13 14  2  0
 11 15  1  0
 15 16  1  0
 16 17  1  0
 17 18  1  0
 18 19  2  0
 19 20  1  0
 20 21  2  0
 21 22  1  0
 22 23  2  0
 21 24  1  0
  9 25  1  0
  5  1  1  0
 14  6  1  0
 13  8  1  0
 23 18  1  0
M  END
$$$$
