
     RDKit          3D

 25 28  0  0  0  0  0  0  0  0999 V2000
    1.5945    0.6346    6.5446 C   0  0  0  0  0  0  0  0  0  0  0  0
    2.8536    0.3651    7.0051 C   0  0  0  0  0  0  0  0  0  0  0  0
    3.1310    1.1989    7.9528 O   0  0  0  0  0  0  0  0  0  0  0  0
    2.1417    2.0174    8.1660 C   0  0  0  0  0  0  0  0  0  0  0  0
    1.1379    1.6930    7.2878 C   0  0  0  0  0  0  0  0  0  0  0  0
    2.1183    3.1006    9.1789 C   0  0  0  0  0  0  0  0  0  0  0  0
    2.9443    3.3153   10.2016 N   0  0  0  0  0  0  0  0  0  0  0  0
    2.6107    4.3921   10.8990 N   0  0  0  0  0  0  0  0  0  0  0  0
    3.1159    5.0067   11.9839 C   0  0  0  0  0  0  0  0  0  0  0  0
    2.5161    6.1140   12.4451 N   0  0  0  0  0  0  0  0  0  0  0  0
    1.4252    6.6356   11.8631 C   0  0  0  0  0  0  0  0  0  0  0  0
    0.9529    5.9933   10.7844 N   0  0  0  0  0  0  0  0  0  0  0  0
    1.5030    4.8792   10.2675 C   0  0  0  0  0  0  0  0  0  0  0  0
    1.2089    4.0855    9.2189 N   0  0  0  0  0  0  0  0  0  0  0  0
    0.8329    7.7986   12.3794 N   0  0  0  0  0  0  0  0  0  0  0  0
    1.5221    8.6243   13.3368 C   0  0  0  0  0  0  0  0  0  0  0  0
    1.2775    8.1310   14.7183 C   0  0  0  0  0  0  0  0  0  0  0  0
    2.3905    8.4102   15.6512 C   0  0  0  0  0  0  0  0  0  0  0  0
    3.7064    8.5798   15.2808 C   0  0  0  0  0  0  0  0  0  0  0  0
    4.7036    8.8373   16.1983 C   0  0  0  0  0  0  0  0  0  0  0  0
    4.3555    8.9250   17.5272 C   0  0  0  0  0  0  0  0  0  0  0  0
    3.0504    8.7635   17.9568 C   0  0  0  0  0  0  0  0  0  0  0  0
    2.0975    8.5083   16.9953 C   0  0  0  0  0  0  0  0  0  0  0  0
    5.3215    9.1825   18.4919 O   0  0  0  0  0  0  0  0  0  0  0  0
    4.2597    4.5152   12.6481 N   0  0  0  0  0  0  0  0  0  0  0  0
  1  2  2  0
  2  3  1  0
  3  4  1  0
  4  5  2  0
  4  6  1  0
  6  7  2  0
  7  8  1  0
  8  9  1  0
  9 10  2  0
 10 11  1  0
 11 12  2  0
 12 13  1  0
 13 14  2  0
 11 15  1  0
 15 16  1  0
 16 17  1  0
 17 18  1  0
 18 19  2  0
 19 20  1  0
 20 21  2  0
 21 22  1  0
 22 23  2  0
 21 24  1  0
  9 25  1  0
  5  1  1  0
 14  6  1  0
 13  8  1  0
 23 18  1  0
M  END
$$$$
