
     RDKit          3D

 25 28  0  0  0  0  0  0  0  0999 V2000
    1.3991    0.4199    6.8867 C   0  0  0  0  0  0  0  0  0  0  0  0
    2.6261    0.0506    7.3641 C   0  0  0  0  0  0  0  0  0  0  0  0
    2.9666    0.8735    8.3008 O   0  0  0  0  0  0  0  0  0  0  0  0
    2.0500    1.7780    8.4905 C   0  0  0  0  0  0  0  0  0  0  0  0
    1.0295    1.5264    7.6078 C   0  0  0  0  0  0  0  0  0  0  0  0
    2.1119    2.8765    9.4852 C   0  0  0  0  0  0  0  0  0  0  0  0
    2.9190    3.0172   10.5354 N   0  0  0  0  0  0  0  0  0  0  0  0
    2.6835    4.1379   11.2031 N   0  0  0  0  0  0  0  0  0  0  0  0
    3.2148    4.7131   12.2971 C   0  0  0  0  0  0  0  0  0  0  0  0
    2.7271    5.8894   12.7180 N   0  0  0  0  0  0  0  0  0  0  0  0
    1.7239    6.5185   12.0866 C   0  0  0  0  0  0  0  0  0  0  0  0
    1.2219    5.9122   11.0005 N   0  0  0  0  0  0  0  0  0  0  0  0
    1.6615    4.7337   10.5221 C   0  0  0  0  0  0  0  0  0  0  0  0
    1.3183    3.9577    9.4752 N   0  0  0  0  0  0  0  0  0  0  0  0
    1.2479    7.7503   12.5620 N   0  0  0  0  0  0  0  0  0  0  0  0
    1.8209    8.3711   13.7280 C   0  0  0  0  0  0  0  0  0  0  0  0
    1.2513    7.7749   14.9657 C   0  0  0  0  0  0  0  0  0  0  0  0
    2.0408    8.0696   16.1810 C   0  0  0  0  0  0  0  0  0  0  0  0
    1.7096    7.6628   17.4547 C   0  0  0  0  0  0  0  0  0  0  0  0
    2.4861    7.9701   18.5525 C   0  0  0  0  0  0  0  0  0  0  0  0
    3.6294    8.7100   18.3516 C   0  0  0  0  0  0  0  0  0  0  0  0
    4.0113    9.1455   17.0953 C   0  0  0  0  0  0  0  0  0  0  0  0
    3.1966    8.8083   16.0369 C   0  0  0  0  0  0  0  0  0  0  0  0
    4.4467    9.0467   19.4235 O   0  0  0  0  0  0  0  0  0  0  0  0
    4.2710    4.1096   13.0122 N   0  0  0  0  0  0  0  0  0  0  0  0
  1  2  2  0
  2  3  1  0
  3  4  1  0
  4  5  2  0
  4  6  1  0
  6  7  2  0
  7  8  1  0
  8  9  1  0
  9 10  2  0
 10 11  1  0
 11 12  2  0
 12 13  1  0
 13 14  2  0
 11 15  1  0
 15 16  1  0
 16 17  1  0
 17 18  1  0
 18 19  2  0
 19 20  1  0
 20 21  2  0
 21 22  1  0
 22 23  2  0
 21 24  1  0
  9 25  1  0
  5  1  1  0
 14  6  1  0
 13  8  1  0
 23 18  1  0
M  END
$$$$
