
     RDKit          3D

 25 28  0  0  0  0  0  0  0  0999 V2000
    1.4881    0.3283    6.7258 C   0  0  0  0  0  0  0  0  0  0  0  0
    2.7419    0.0579    7.1998 C   0  0  0  0  0  0  0  0  0  0  0  0
    3.0171    0.9032    8.1379 O   0  0  0  0  0  0  0  0  0  0  0  0
    2.0310    1.7305    8.3319 C   0  0  0  0  0  0  0  0  0  0  0  0
    1.0321    1.3997    7.4506 C   0  0  0  0  0  0  0  0  0  0  0  0
    2.0064    2.8279    9.3294 C   0  0  0  0  0  0  0  0  0  0  0  0
    2.8416    3.0672   10.3390 N   0  0  0  0  0  0  0  0  0  0  0  0
    2.5032    4.1500   11.0248 N   0  0  0  0  0  0  0  0  0  0  0  0
    3.0134    4.7862   12.0947 C   0  0  0  0  0  0  0  0  0  0  0  0
    2.4057    5.8929   12.5470 N   0  0  0  0  0  0  0  0  0  0  0  0
    1.3020    6.3931   11.9704 C   0  0  0  0  0  0  0  0  0  0  0  0
    0.8250    5.7296   10.9067 N   0  0  0  0  0  0  0  0  0  0  0  0
    1.3824    4.6147   10.3994 C   0  0  0  0  0  0  0  0  0  0  0  0
    1.0857    3.8025    9.3659 N   0  0  0  0  0  0  0  0  0  0  0  0
    0.7017    7.5563   12.4769 N   0  0  0  0  0  0  0  0  0  0  0  0
    1.3567    8.3580   13.4778 C   0  0  0  0  0  0  0  0  0  0  0  0
    1.1077    7.7998   14.8337 C   0  0  0  0  0  0  0  0  0  0  0  0
    2.1514    8.1547   15.8195 C   0  0  0  0  0  0  0  0  0  0  0  0
    3.4931    7.8734   15.6837 C   0  0  0  0  0  0  0  0  0  0  0  0
    4.4216    8.2288   16.6397 C   0  0  0  0  0  0  0  0  0  0  0  0
    3.9762    8.8875   17.7634 C   0  0  0  0  0  0  0  0  0  0  0  0
    2.6410    9.1961   17.9531 C   0  0  0  0  0  0  0  0  0  0  0  0
    1.7599    8.8162   16.9646 C   0  0  0  0  0  0  0  0  0  0  0  0
    4.8702    9.2678   18.7565 O   0  0  0  0  0  0  0  0  0  0  0  0
    4.1707    4.3180   12.7525 N   0  0  0  0  0  0  0  0  0  0  0  0
  1  2  2  0
  2  3  1  0
  3  4  1  0
  4  5  2  0
  4  6  1  0
  6  7  2  0
  7  8  1  0
  8  9  1  0
  9 10  2  0
 10 11  1  0
 11 12  2  0
 12 13  1  0
 13 14  2  0
 11 15  1  0
 15 16  1  0
 16 17  1  0
 17 18  1  0
 18 19  2  0
 19 20  1  0
 20 21  2  0
 21 22  1  0
 22 23  2  0
 21 24  1  0
  9 25  1  0
  5  1  1  0
 14  6  1  0
 13  8  1  0
 23 18  1  0
M  END
$$$$
