
     RDKit          3D

 25 28  0  0  0  0  0  0  0  0999 V2000
    1.6476    0.2293    6.5158 C   0  0  0  0  0  0  0  0  0  0  0  0
    0.5979    1.0479    6.2029 C   0  0  0  0  0  0  0  0  0  0  0  0
    0.5573    2.0106    7.0642 O   0  0  0  0  0  0  0  0  0  0  0  0
    1.5118    1.8989    7.9421 C   0  0  0  0  0  0  0  0  0  0  0  0
    2.2335    0.7740    7.6298 C   0  0  0  0  0  0  0  0  0  0  0  0
    1.7616    2.8280    9.0710 C   0  0  0  0  0  0  0  0  0  0  0  0
    1.0906    3.9229    9.4248 N   0  0  0  0  0  0  0  0  0  0  0  0
    1.6078    4.5038   10.4983 N   0  0  0  0  0  0  0  0  0  0  0  0
    1.2995    5.5966   11.2198 C   0  0  0  0  0  0  0  0  0  0  0  0
    2.0537    5.9105   12.2834 N   0  0  0  0  0  0  0  0  0  0  0  0
    3.1102    5.1726   12.6579 C   0  0  0  0  0  0  0  0  0  0  0  0
    3.3841    4.0916   11.9125 N   0  0  0  0  0  0  0  0  0  0  0  0
    2.6716    3.7172   10.8340 C   0  0  0  0  0  0  0  0  0  0  0  0
    2.7587    2.6967    9.9582 N   0  0  0  0  0  0  0  0  0  0  0  0
    3.8691    5.5383   13.7805 N   0  0  0  0  0  0  0  0  0  0  0  0
    3.7796    6.8611   14.3422 C   0  0  0  0  0  0  0  0  0  0  0  0
    2.6253    6.9511   15.2757 C   0  0  0  0  0  0  0  0  0  0  0  0
    2.5162    8.2597   15.9559 C   0  0  0  0  0  0  0  0  0  0  0  0
    1.6180    9.2496   15.6224 C   0  0  0  0  0  0  0  0  0  0  0  0
    1.5640   10.4532   16.2938 C   0  0  0  0  0  0  0  0  0  0  0  0
    2.4454   10.6574   17.3313 C   0  0  0  0  0  0  0  0  0  0  0  0
    3.3687    9.6992   17.7101 C   0  0  0  0  0  0  0  0  0  0  0  0
    3.3760    8.5169   17.0032 C   0  0  0  0  0  0  0  0  0  0  0  0
    2.4328   11.8522   18.0402 O   0  0  0  0  0  0  0  0  0  0  0  0
    0.2037    6.4202   10.8851 N   0  0  0  0  0  0  0  0  0  0  0  0
  1  2  2  0
  2  3  1  0
  3  4  1  0
  4  5  2  0
  4  6  1  0
  6  7  2  0
  7  8  1  0
  8  9  1  0
  9 10  2  0
 10 11  1  0
 11 12  2  0
 12 13  1  0
 13 14  2  0
 11 15  1  0
 15 16  1  0
 16 17  1  0
 17 18  1  0
 18 19  2  0
 19 20  1  0
 20 21  2  0
 21 22  1  0
 22 23  2  0
 21 24  1  0
  9 25  1  0
  5  1  1  0
 14  6  1  0
 13  8  1  0
 23 18  1  0
M  END
$$$$
