
     RDKit          3D

 25 28  0  0  0  0  0  0  0  0999 V2000
    1.4767    0.0495    7.1381 C   0  0  0  0  0  0  0  0  0  0  0  0
    2.6962   -0.2759    7.6645 C   0  0  0  0  0  0  0  0  0  0  0  0
    3.0069    0.6068    8.5560 O   0  0  0  0  0  0  0  0  0  0  0  0
    2.0772    1.5108    8.6692 C   0  0  0  0  0  0  0  0  0  0  0  0
    1.0797    1.1939    7.7813 C   0  0  0  0  0  0  0  0  0  0  0  0
    2.1053    2.6689    9.5955 C   0  0  0  0  0  0  0  0  0  0  0  0
    2.9147    2.9027   10.6272 N   0  0  0  0  0  0  0  0  0  0  0  0
    2.6424    4.0521   11.2287 N   0  0  0  0  0  0  0  0  0  0  0  0
    3.1601    4.7117   12.2808 C   0  0  0  0  0  0  0  0  0  0  0  0
    2.6316    5.8923   12.6352 N   0  0  0  0  0  0  0  0  0  0  0  0
    1.6005    6.4443   11.9773 C   0  0  0  0  0  0  0  0  0  0  0  0
    1.1132    5.7553   10.9346 N   0  0  0  0  0  0  0  0  0  0  0  0
    1.5933    4.5672   10.5235 C   0  0  0  0  0  0  0  0  0  0  0  0
    1.2715    3.7172    9.5286 N   0  0  0  0  0  0  0  0  0  0  0  0
    1.0820    7.6840   12.3826 N   0  0  0  0  0  0  0  0  0  0  0  0
    1.6561    8.4068   13.4879 C   0  0  0  0  0  0  0  0  0  0  0  0
    1.1042    7.9084   14.7759 C   0  0  0  0  0  0  0  0  0  0  0  0
    1.8086    8.4364   15.9642 C   0  0  0  0  0  0  0  0  0  0  0  0
    1.8371    9.7613   16.3403 C   0  0  0  0  0  0  0  0  0  0  0  0
    2.5140   10.1955   17.4609 C   0  0  0  0  0  0  0  0  0  0  0  0
    3.1798    9.2596   18.2198 C   0  0  0  0  0  0  0  0  0  0  0  0
    3.1856    7.9160   17.8902 C   0  0  0  0  0  0  0  0  0  0  0  0
    2.4923    7.5414   16.7603 C   0  0  0  0  0  0  0  0  0  0  0  0
    3.8771    9.6442   19.3582 O   0  0  0  0  0  0  0  0  0  0  0  0
    4.2438    4.1922   13.0202 N   0  0  0  0  0  0  0  0  0  0  0  0
  1  2  2  0
  2  3  1  0
  3  4  1  0
  4  5  2  0
  4  6  1  0
  6  7  2  0
  7  8  1  0
  8  9  1  0
  9 10  2  0
 10 11  1  0
 11 12  2  0
 12 13  1  0
 13 14  2  0
 11 15  1  0
 15 16  1  0
 16 17  1  0
 17 18  1  0
 18 19  2  0
 19 20  1  0
 20 21  2  0
 21 22  1  0
 22 23  2  0
 21 24  1  0
  9 25  1  0
  5  1  1  0
 14  6  1  0
 13  8  1  0
 23 18  1  0
M  END
$$$$
