
     RDKit          3D

 25 28  0  0  0  0  0  0  0  0999 V2000
    3.3899   -0.5742    8.1138 C   0  0  0  0  0  0  0  0  0  0  0  0
    2.5852   -0.3081    7.0407 C   0  0  0  0  0  0  0  0  0  0  0  0
    1.9449    0.7908    7.2705 O   0  0  0  0  0  0  0  0  0  0  0  0
    2.2628    1.2885    8.4304 C   0  0  0  0  0  0  0  0  0  0  0  0
    3.1838    0.4482    9.0044 C   0  0  0  0  0  0  0  0  0  0  0  0
    1.7189    2.5393    9.0132 C   0  0  0  0  0  0  0  0  0  0  0  0
    0.7950    3.3644    8.5235 N   0  0  0  0  0  0  0  0  0  0  0  0
    0.5594    4.3899    9.3298 N   0  0  0  0  0  0  0  0  0  0  0  0
   -0.2582    5.4572    9.2837 C   0  0  0  0  0  0  0  0  0  0  0  0
   -0.2480    6.3315   10.3006 N   0  0  0  0  0  0  0  0  0  0  0  0
    0.5508    6.1821   11.3685 C   0  0  0  0  0  0  0  0  0  0  0  0
    1.3508    5.1054   11.3761 N   0  0  0  0  0  0  0  0  0  0  0  0
    1.3930    4.1886   10.3919 C   0  0  0  0  0  0  0  0  0  0  0  0
    2.0971    3.0573   10.1910 N   0  0  0  0  0  0  0  0  0  0  0  0
    0.5251    7.1215   12.4110 N   0  0  0  0  0  0  0  0  0  0  0  0
    1.2927    6.9226   13.6129 C   0  0  0  0  0  0  0  0  0  0  0  0
    2.1114    8.1280   13.9108 C   0  0  0  0  0  0  0  0  0  0  0  0
    3.2508    7.8598   14.8145 C   0  0  0  0  0  0  0  0  0  0  0  0
    4.1012    6.7808   14.7128 C   0  0  0  0  0  0  0  0  0  0  0  0
    5.1484    6.5821   15.5882 C   0  0  0  0  0  0  0  0  0  0  0  0
    5.3373    7.5033   16.5935 C   0  0  0  0  0  0  0  0  0  0  0  0
    4.5149    8.6055   16.7438 C   0  0  0  0  0  0  0  0  0  0  0  0
    3.4857    8.7517   15.8399 C   0  0  0  0  0  0  0  0  0  0  0  0
    6.3773    7.3499   17.5019 O   0  0  0  0  0  0  0  0  0  0  0  0
   -1.1250    5.6796    8.1927 N   0  0  0  0  0  0  0  0  0  0  0  0
  1  2  2  0
  2  3  1  0
  3  4  1  0
  4  5  2  0
  4  6  1  0
  6  7  2  0
  7  8  1  0
  8  9  1  0
  9 10  2  0
 10 11  1  0
 11 12  2  0
 12 13  1  0
 13 14  2  0
 11 15  1  0
 15 16  1  0
 16 17  1  0
 17 18  1  0
 18 19  2  0
 19 20  1  0
 20 21  2  0
 21 22  1  0
 22 23  2  0
 21 24  1  0
  9 25  1  0
  5  1  1  0
 14  6  1  0
 13  8  1  0
 23 18  1  0
M  END
$$$$
