
     RDKit          3D

 25 28  0  0  0  0  0  0  0  0999 V2000
    2.4382   -0.6981    8.4303 C   0  0  0  0  0  0  0  0  0  0  0  0
    2.4446   -0.1683    7.1696 C   0  0  0  0  0  0  0  0  0  0  0  0
    2.3064    1.1134    7.2625 O   0  0  0  0  0  0  0  0  0  0  0  0
    2.2065    1.4885    8.5049 C   0  0  0  0  0  0  0  0  0  0  0  0
    2.2857    0.3627    9.2861 C   0  0  0  0  0  0  0  0  0  0  0  0
    2.0377    2.8848    8.9758 C   0  0  0  0  0  0  0  0  0  0  0  0
    1.9333    4.0065    8.2650 N   0  0  0  0  0  0  0  0  0  0  0  0
    1.7908    5.0768    9.0340 N   0  0  0  0  0  0  0  0  0  0  0  0
    1.6494    6.3940    8.7998 C   0  0  0  0  0  0  0  0  0  0  0  0
    1.5238    7.2318    9.8395 N   0  0  0  0  0  0  0  0  0  0  0  0
    1.5339    6.8047   11.1116 C   0  0  0  0  0  0  0  0  0  0  0  0
    1.6771    5.4848   11.3025 N   0  0  0  0  0  0  0  0  0  0  0  0
    1.8080    4.5874   10.3082 C   0  0  0  0  0  0  0  0  0  0  0  0
    1.9590    3.2491   10.2641 N   0  0  0  0  0  0  0  0  0  0  0  0
    1.3961    7.7185   12.1681 N   0  0  0  0  0  0  0  0  0  0  0  0
    1.4302    7.2825   13.5400 C   0  0  0  0  0  0  0  0  0  0  0  0
    2.7944    6.8133   13.9013 C   0  0  0  0  0  0  0  0  0  0  0  0
    3.3498    7.4781   15.0999 C   0  0  0  0  0  0  0  0  0  0  0  0
    2.6073    7.9150   16.1748 C   0  0  0  0  0  0  0  0  0  0  0  0
    3.1822    8.5312   17.2667 C   0  0  0  0  0  0  0  0  0  0  0  0
    4.5473    8.7085   17.2672 C   0  0  0  0  0  0  0  0  0  0  0  0
    5.3428    8.2900   16.2156 C   0  0  0  0  0  0  0  0  0  0  0  0
    4.7130    7.6809   15.1526 C   0  0  0  0  0  0  0  0  0  0  0  0
    5.1763    9.3236   18.3425 O   0  0  0  0  0  0  0  0  0  0  0  0
    1.6305    6.9153    7.4887 N   0  0  0  0  0  0  0  0  0  0  0  0
  1  2  2  0
  2  3  1  0
  3  4  1  0
  4  5  2  0
  4  6  1  0
  6  7  2  0
  7  8  1  0
  8  9  1  0
  9 10  2  0
 10 11  1  0
 11 12  2  0
 12 13  1  0
 13 14  2  0
 11 15  1  0
 15 16  1  0
 16 17  1  0
 17 18  1  0
 18 19  2  0
 19 20  1  0
 20 21  2  0
 21 22  1  0
 22 23  2  0
 21 24  1  0
  9 25  1  0
  5  1  1  0
 14  6  1  0
 13  8  1  0
 23 18  1  0
M  END
$$$$
