
     RDKit          3D

 25 28  0  0  0  0  0  0  0  0999 V2000
    1.6718    0.1704    6.6255 C   0  0  0  0  0  0  0  0  0  0  0  0
    2.8532   -0.1824    7.2170 C   0  0  0  0  0  0  0  0  0  0  0  0
    3.0515    0.5929    8.2318 O   0  0  0  0  0  0  0  0  0  0  0  0
    2.0812    1.4497    8.3679 C   0  0  0  0  0  0  0  0  0  0  0  0
    1.1768    1.2159    7.3623 C   0  0  0  0  0  0  0  0  0  0  0  0
    1.9845    2.4861    9.4246 C   0  0  0  0  0  0  0  0  0  0  0  0
    2.7250    2.6430   10.5206 N   0  0  0  0  0  0  0  0  0  0  0  0
    2.3452    3.6915   11.2373 N   0  0  0  0  0  0  0  0  0  0  0  0
    2.7647    4.2494   12.3874 C   0  0  0  0  0  0  0  0  0  0  0  0
    2.1396    5.3427   12.8484 N   0  0  0  0  0  0  0  0  0  0  0  0
    1.1059    5.9050   12.2032 C   0  0  0  0  0  0  0  0  0  0  0  0
    0.7184    5.3187   11.0607 N   0  0  0  0  0  0  0  0  0  0  0  0
    1.2985    4.2218   10.5399 C   0  0  0  0  0  0  0  0  0  0  0  0
    1.0846    3.4805    9.4350 N   0  0  0  0  0  0  0  0  0  0  0  0
    0.4842    7.0513   12.7223 N   0  0  0  0  0  0  0  0  0  0  0  0
    0.9019    7.6229   13.9762 C   0  0  0  0  0  0  0  0  0  0  0  0
    2.1992    8.3323   13.8161 C   0  0  0  0  0  0  0  0  0  0  0  0
    2.9041    8.5703   15.0942 C   0  0  0  0  0  0  0  0  0  0  0  0
    4.1912    8.1661   15.3724 C   0  0  0  0  0  0  0  0  0  0  0  0
    4.7968    8.4160   16.5862 C   0  0  0  0  0  0  0  0  0  0  0  0
    4.0763    9.0944   17.5430 C   0  0  0  0  0  0  0  0  0  0  0  0
    2.7805    9.5243   17.3193 C   0  0  0  0  0  0  0  0  0  0  0  0
    2.2280    9.2461   16.0884 C   0  0  0  0  0  0  0  0  0  0  0  0
    4.6395    9.3717   18.7825 O   0  0  0  0  0  0  0  0  0  0  0  0
    3.8446    3.7128   13.1201 N   0  0  0  0  0  0  0  0  0  0  0  0
  1  2  2  0
  2  3  1  0
  3  4  1  0
  4  5  2  0
  4  6  1  0
  6  7  2  0
  7  8  1  0
  8  9  1  0
  9 10  2  0
 10 11  1  0
 11 12  2  0
 12 13  1  0
 13 14  2  0
 11 15  1  0
 15 16  1  0
 16 17  1  0
 17 18  1  0
 18 19  2  0
 19 20  1  0
 20 21  2  0
 21 22  1  0
 22 23  2  0
 21 24  1  0
  9 25  1  0
  5  1  1  0
 14  6  1  0
 13  8  1  0
 23 18  1  0
M  END
$$$$
