
     RDKit          3D

 25 28  0  0  0  0  0  0  0  0999 V2000
    1.6590    0.4263    6.3499 C   0  0  0  0  0  0  0  0  0  0  0  0
    2.8903    0.0830    6.8356 C   0  0  0  0  0  0  0  0  0  0  0  0
    3.1390    0.8105    7.8745 O   0  0  0  0  0  0  0  0  0  0  0  0
    2.1560    1.6259    8.1259 C   0  0  0  0  0  0  0  0  0  0  0  0
    1.1881    1.4146    7.1760 C   0  0  0  0  0  0  0  0  0  0  0  0
    2.1059    2.6018    9.2417 C   0  0  0  0  0  0  0  0  0  0  0  0
    2.8857    2.6916   10.3178 N   0  0  0  0  0  0  0  0  0  0  0  0
    2.5408    3.7008   11.1051 N   0  0  0  0  0  0  0  0  0  0  0  0
    3.0054    4.1901   12.2690 C   0  0  0  0  0  0  0  0  0  0  0  0
    2.4067    5.2601   12.8124 N   0  0  0  0  0  0  0  0  0  0  0  0
    1.3562    5.8651   12.2368 C   0  0  0  0  0  0  0  0  0  0  0  0
    0.9235    5.3467   11.0778 N   0  0  0  0  0  0  0  0  0  0  0  0
    1.4751    4.2768   10.4761 C   0  0  0  0  0  0  0  0  0  0  0  0
    1.2159    3.6004    9.3398 N   0  0  0  0  0  0  0  0  0  0  0  0
    0.7634    6.9848   12.8410 N   0  0  0  0  0  0  0  0  0  0  0  0
    1.2141    7.4673   14.1207 C   0  0  0  0  0  0  0  0  0  0  0  0
    2.4228    8.3184   13.9575 C   0  0  0  0  0  0  0  0  0  0  0  0
    3.0892    8.6495   15.2355 C   0  0  0  0  0  0  0  0  0  0  0  0
    4.1906    9.4671   15.3622 C   0  0  0  0  0  0  0  0  0  0  0  0
    4.7710    9.7387   16.5836 C   0  0  0  0  0  0  0  0  0  0  0  0
    4.2183    9.1650   17.7063 C   0  0  0  0  0  0  0  0  0  0  0  0
    3.1127    8.3361   17.6392 C   0  0  0  0  0  0  0  0  0  0  0  0
    2.5761    8.1011   16.3924 C   0  0  0  0  0  0  0  0  0  0  0  0
    4.7645    9.4061   18.9608 O   0  0  0  0  0  0  0  0  0  0  0  0
    4.1054    3.6055   12.9318 N   0  0  0  0  0  0  0  0  0  0  0  0
  1  2  2  0
  2  3  1  0
  3  4  1  0
  4  5  2  0
  4  6  1  0
  6  7  2  0
  7  8  1  0
  8  9  1  0
  9 10  2  0
 10 11  1  0
 11 12  2  0
 12 13  1  0
 13 14  2  0
 11 15  1  0
 15 16  1  0
 16 17  1  0
 17 18  1  0
 18 19  2  0
 19 20  1  0
 20 21  2  0
 21 22  1  0
 22 23  2  0
 21 24  1  0
  9 25  1  0
  5  1  1  0
 14  6  1  0
 13  8  1  0
 23 18  1  0
M  END
$$$$
