
     RDKit          3D

 25 28  0  0  0  0  0  0  0  0999 V2000
    1.9205    0.5955    6.1953 C   0  0  0  0  0  0  0  0  0  0  0  0
    3.0831    0.2197    6.8093 C   0  0  0  0  0  0  0  0  0  0  0  0
    3.2641    0.9747    7.8425 O   0  0  0  0  0  0  0  0  0  0  0  0
    2.2994    1.8393    7.9701 C   0  0  0  0  0  0  0  0  0  0  0  0
    1.4180    1.6329    6.9384 C   0  0  0  0  0  0  0  0  0  0  0  0
    2.1871    2.8577    9.0425 C   0  0  0  0  0  0  0  0  0  0  0  0
    2.8927    2.9794   10.1657 N   0  0  0  0  0  0  0  0  0  0  0  0
    2.5094    4.0219   10.8891 N   0  0  0  0  0  0  0  0  0  0  0  0
    2.9003    4.5499   12.0631 C   0  0  0  0  0  0  0  0  0  0  0  0
    2.2812    5.6469   12.5236 N   0  0  0  0  0  0  0  0  0  0  0  0
    1.2813    6.2417   11.8549 C   0  0  0  0  0  0  0  0  0  0  0  0
    0.9214    5.6845   10.6891 N   0  0  0  0  0  0  0  0  0  0  0  0
    1.4975    4.5859   10.1671 C   0  0  0  0  0  0  0  0  0  0  0  0
    1.3069    3.8696    9.0417 N   0  0  0  0  0  0  0  0  0  0  0  0
    0.6647    7.3905   12.3746 N   0  0  0  0  0  0  0  0  0  0  0  0
    0.9812    7.8747   13.6933 C   0  0  0  0  0  0  0  0  0  0  0  0
    2.2503    8.6498   13.6702 C   0  0  0  0  0  0  0  0  0  0  0  0
    2.9598    8.6603   14.9677 C   0  0  0  0  0  0  0  0  0  0  0  0
    4.2957    8.3707   15.1386 C   0  0  0  0  0  0  0  0  0  0  0  0
    4.9032    8.3953   16.3767 C   0  0  0  0  0  0  0  0  0  0  0  0
    4.1340    8.7227   17.4703 C   0  0  0  0  0  0  0  0  0  0  0  0
    2.7880    9.0226   17.3585 C   0  0  0  0  0  0  0  0  0  0  0  0
    2.2361    8.9818   16.0970 C   0  0  0  0  0  0  0  0  0  0  0  0
    4.6969    8.7619   18.7399 O   0  0  0  0  0  0  0  0  0  0  0  0
    3.9440    3.9783   12.8213 N   0  0  0  0  0  0  0  0  0  0  0  0
  1  2  2  0
  2  3  1  0
  3  4  1  0
  4  5  2  0
  4  6  1  0
  6  7  2  0
  7  8  1  0
  8  9  1  0
  9 10  2  0
 10 11  1  0
 11 12  2  0
 12 13  1  0
 13 14  2  0
 11 15  1  0
 15 16  1  0
 16 17  1  0
 17 18  1  0
 18 19  2  0
 19 20  1  0
 20 21  2  0
 21 22  1  0
 22 23  2  0
 21 24  1  0
  9 25  1  0
  5  1  1  0
 14  6  1  0
 13  8  1  0
 23 18  1  0
M  END
$$$$
