
     RDKit          3D

 25 28  0  0  0  0  0  0  0  0999 V2000
    1.4684    0.3140    6.8458 C   0  0  0  0  0  0  0  0  0  0  0  0
    2.6787   -0.0517    7.3668 C   0  0  0  0  0  0  0  0  0  0  0  0
    2.9795    0.7677    8.3199 O   0  0  0  0  0  0  0  0  0  0  0  0
    2.0517    1.6665    8.4801 C   0  0  0  0  0  0  0  0  0  0  0  0
    1.0662    1.4145    7.5586 C   0  0  0  0  0  0  0  0  0  0  0  0
    2.0705    2.7596    9.4824 C   0  0  0  0  0  0  0  0  0  0  0  0
    2.8401    2.9008   10.5603 N   0  0  0  0  0  0  0  0  0  0  0  0
    2.5728    4.0157   11.2257 N   0  0  0  0  0  0  0  0  0  0  0  0
    3.0617    4.5888   12.3403 C   0  0  0  0  0  0  0  0  0  0  0  0
    2.5502    5.7587   12.7508 N   0  0  0  0  0  0  0  0  0  0  0  0
    1.5640    6.3833   12.0889 C   0  0  0  0  0  0  0  0  0  0  0  0
    1.1043    5.7793   10.9829 N   0  0  0  0  0  0  0  0  0  0  0  0
    1.5697    4.6071   10.5134 C   0  0  0  0  0  0  0  0  0  0  0  0
    1.2689    3.8344    9.4512 N   0  0  0  0  0  0  0  0  0  0  0  0
    1.0619    7.6085   12.5545 N   0  0  0  0  0  0  0  0  0  0  0  0
    1.0022    7.9029   13.9628 C   0  0  0  0  0  0  0  0  0  0  0  0
    2.1028    7.2101   14.6844 C   0  0  0  0  0  0  0  0  0  0  0  0
    2.6246    7.9732   15.8387 C   0  0  0  0  0  0  0  0  0  0  0  0
    1.9521    8.1669   17.0252 C   0  0  0  0  0  0  0  0  0  0  0  0
    2.4904    8.8910   18.0684 C   0  0  0  0  0  0  0  0  0  0  0  0
    3.7450    9.4328   17.9026 C   0  0  0  0  0  0  0  0  0  0  0  0
    4.4665    9.2706   16.7334 C   0  0  0  0  0  0  0  0  0  0  0  0
    3.8779    8.5378   15.7263 C   0  0  0  0  0  0  0  0  0  0  0  0
    4.3329   10.1708   18.9224 O   0  0  0  0  0  0  0  0  0  0  0  0
    4.0978    3.9898   13.0878 N   0  0  0  0  0  0  0  0  0  0  0  0
  1  2  2  0
  2  3  1  0
  3  4  1  0
  4  5  2  0
  4  6  1  0
  6  7  2  0
  7  8  1  0
  8  9  1  0
  9 10  2  0
 10 11  1  0
 11 12  2  0
 12 13  1  0
 13 14  2  0
 11 15  1  0
 15 16  1  0
 16 17  1  0
 17 18  1  0
 18 19  2  0
 19 20  1  0
 20 21  2  0
 21 22  1  0
 22 23  2  0
 21 24  1  0
  9 25  1  0
  5  1  1  0
 14  6  1  0
 13  8  1  0
 23 18  1  0
M  END
$$$$
