
     RDKit          3D

 25 28  0  0  0  0  0  0  0  0999 V2000
    1.4098    0.3988    6.6603 C   0  0  0  0  0  0  0  0  0  0  0  0
    2.6755    0.0910    7.0765 C   0  0  0  0  0  0  0  0  0  0  0  0
    3.0122    0.9174    8.0114 O   0  0  0  0  0  0  0  0  0  0  0  0
    2.0571    1.7668    8.2572 C   0  0  0  0  0  0  0  0  0  0  0  0
    1.0131    1.4722    7.4163 C   0  0  0  0  0  0  0  0  0  0  0  0
    2.1035    2.8520    9.2672 C   0  0  0  0  0  0  0  0  0  0  0  0
    3.0032    3.0742   10.2239 N   0  0  0  0  0  0  0  0  0  0  0  0
    2.7164    4.1503   10.9428 N   0  0  0  0  0  0  0  0  0  0  0  0
    3.2983    4.7705   11.9852 C   0  0  0  0  0  0  0  0  0  0  0  0
    2.7280    5.8750   12.4887 N   0  0  0  0  0  0  0  0  0  0  0  0
    1.5928    6.3884   11.9901 C   0  0  0  0  0  0  0  0  0  0  0  0
    1.0443    5.7407   10.9515 N   0  0  0  0  0  0  0  0  0  0  0  0
    1.5608    4.6290   10.3962 C   0  0  0  0  0  0  0  0  0  0  0  0
    1.1933    3.8312    9.3743 N   0  0  0  0  0  0  0  0  0  0  0  0
    1.0337    7.5487   12.5479 N   0  0  0  0  0  0  0  0  0  0  0  0
    1.7434    8.3166   13.5380 C   0  0  0  0  0  0  0  0  0  0  0  0
    2.3879    7.4147   14.5295 C   0  0  0  0  0  0  0  0  0  0  0  0
    3.0793    8.1344   15.6209 C   0  0  0  0  0  0  0  0  0  0  0  0
    3.2676    9.4981   15.6712 C   0  0  0  0  0  0  0  0  0  0  0  0
    3.9232   10.1140   16.7168 C   0  0  0  0  0  0  0  0  0  0  0  0
    4.4003    9.3245   17.7385 C   0  0  0  0  0  0  0  0  0  0  0  0
    4.2401    7.9503   17.7410 C   0  0  0  0  0  0  0  0  0  0  0  0
    3.5773    7.3912   16.6706 C   0  0  0  0  0  0  0  0  0  0  0  0
    5.0679    9.8947   18.8152 O   0  0  0  0  0  0  0  0  0  0  0  0
    4.4924    4.2877   12.5617 N   0  0  0  0  0  0  0  0  0  0  0  0
  1  2  2  0
  2  3  1  0
  3  4  1  0
  4  5  2  0
  4  6  1  0
  6  7  2  0
  7  8  1  0
  8  9  1  0
  9 10  2  0
 10 11  1  0
 11 12  2  0
 12 13  1  0
 13 14  2  0
 11 15  1  0
 15 16  1  0
 16 17  1  0
 17 18  1  0
 18 19  2  0
 19 20  1  0
 20 21  2  0
 21 22  1  0
 22 23  2  0
 21 24  1  0
  9 25  1  0
  5  1  1  0
 14  6  1  0
 13  8  1  0
 23 18  1  0
M  END
$$$$
