
     RDKit          3D

 30 33  0  0  0  0  0  0  0  0999 V2000
   -2.3633    6.6188   10.1460 C   0  0  0  0  0  0  0  0  0  0  0  0
   -1.7234    5.4773   10.6850 O   0  0  0  0  0  0  0  0  0  0  0  0
   -2.4398    4.7135   11.5971 C   0  0  0  0  0  0  0  0  0  0  0  0
   -3.4562    5.2354   12.3626 C   0  0  0  0  0  0  0  0  0  0  0  0
   -4.1716    4.4837   13.2700 C   0  0  0  0  0  0  0  0  0  0  0  0
   -3.8585    3.1540   13.4197 C   0  0  0  0  0  0  0  0  0  0  0  0
   -2.8271    2.6035   12.6504 C   0  0  0  0  0  0  0  0  0  0  0  0
   -2.1093    3.3499   11.7414 C   0  0  0  0  0  0  0  0  0  0  0  0
   -1.0958    2.9040   10.9481 O   0  0  0  0  0  0  0  0  0  0  0  0
   -0.9067    1.6538   10.4005 C   0  0  0  0  0  0  0  0  0  0  0  0
    0.3345    1.4315    9.6031 C   0  0  0  0  0  0  0  0  0  0  0  0
    0.1999    0.1171    8.9690 N   0  0  0  0  0  4  0  0  0  0  0  0
   -0.2998    0.3893    7.6043 C   0  0  0  0  0  0  0  0  0  0  0  0
    0.3547   -0.5637    6.6756 C   0  0  1  0  0  0  0  0  0  0  0  0
    1.2313   -1.5628    7.3514 C   0  0  0  0  0  0  0  0  0  0  0  0
    1.1459   -2.8132    6.9560 O   0  0  0  0  0  0  0  0  0  0  0  0
    1.4744   -3.7504    6.0999 C   0  0  0  0  0  0  0  0  0  0  0  0
    1.2510   -3.7682    4.7378 C   0  0  0  0  0  0  0  0  0  0  0  0
    1.6545   -4.8333    3.9797 C   0  0  0  0  0  0  0  0  0  0  0  0
    2.2914   -5.9168    4.5432 C   0  0  0  0  0  0  0  0  0  0  0  0
    2.5320   -5.9339    5.9113 C   0  0  0  0  0  0  0  0  0  0  0  0
    2.1332   -4.8847    6.6471 C   0  0  0  0  0  0  0  0  0  0  0  0
    2.4892   -5.1493    7.9663 C   0  0  0  0  0  0  0  0  0  0  0  0
    2.3373   -4.4443    9.1439 C   0  0  0  0  0  0  0  0  0  0  0  0
    2.7898   -4.9463   10.3334 C   0  0  0  0  0  0  0  0  0  0  0  0
    3.4079   -6.1808   10.3458 C   0  0  0  0  0  0  0  0  0  0  0  0
    3.5823   -6.9215    9.1958 C   0  0  0  0  0  0  0  0  0  0  0  0
    3.1170   -6.3981    7.9940 C   0  0  0  0  0  0  0  0  0  0  0  0
    3.1202   -6.8342    6.7303 N   0  0  0  0  0  0  0  0  0  0  0  0
   -0.5987   -1.2606    5.9011 O   0  0  0  0  0  0  0  0  0  0  0  0
  1  2  1  0
  2  3  1  0
  3  4  2  0
  4  5  1  0
  5  6  2  0
  6  7  1  0
  7  8  2  0
  8  9  1  0
  9 10  1  0
 10 11  1  0
 11 12  1  0
 12 13  1  0
 13 14  1  0
 14 15  1  0
 15 16  1  0
 16 17  1  0
 17 18  2  0
 18 19  1  0
 19 20  2  0
 20 21  1  0
 21 22  2  0
 22 23  1  0
 23 24  2  0
 24 25  1  0
 25 26  2  0
 26 27  1  0
 27 28  2  0
 28 29  1  0
 14 30  1  1
  8  3  1  0
 22 17  1  0
 28 23  1  0
 29 21  1  0
M  CHG  1  12   1
M  END
$$$$
