
     RDKit          3D

 30 33  0  0  0  0  0  0  0  0999 V2000
    0.5094    1.5604   13.8582 C   0  0  0  0  0  0  0  0  0  0  0  0
   -0.4742    1.8122   12.8723 O   0  0  0  0  0  0  0  0  0  0  0  0
   -0.7729    3.1390   12.5912 C   0  0  0  0  0  0  0  0  0  0  0  0
   -0.5418    4.1557   13.4881 C   0  0  0  0  0  0  0  0  0  0  0  0
   -0.8356    5.4748   13.2164 C   0  0  0  0  0  0  0  0  0  0  0  0
   -1.3842    5.7923   11.9970 C   0  0  0  0  0  0  0  0  0  0  0  0
   -1.6276    4.7723   11.0702 C   0  0  0  0  0  0  0  0  0  0  0  0
   -1.3351    3.4523   11.3361 C   0  0  0  0  0  0  0  0  0  0  0  0
   -1.5312    2.3951   10.4999 O   0  0  0  0  0  0  0  0  0  0  0  0
   -2.1242    2.3691    9.2564 C   0  0  0  0  0  0  0  0  0  0  0  0
   -2.2925    1.0395    8.6010 C   0  0  0  0  0  0  0  0  0  0  0  0
   -1.1114    0.2444    8.9484 N   0  0  0  0  0  4  0  0  0  0  0  0
   -0.9174   -0.6856    7.8154 C   0  0  0  0  0  0  0  0  0  0  0  0
    0.5394   -0.8996    7.6394 C   0  0  1  0  0  0  0  0  0  0  0  0
    1.2000   -1.5573    8.8033 C   0  0  0  0  0  0  0  0  0  0  0  0
    1.8178   -2.6970    8.5881 O   0  0  0  0  0  0  0  0  0  0  0  0
    2.6259   -3.6392    9.0103 C   0  0  0  0  0  0  0  0  0  0  0  0
    3.2575   -3.7262   10.2347 C   0  0  0  0  0  0  0  0  0  0  0  0
    4.0813   -4.7807   10.5201 C   0  0  0  0  0  0  0  0  0  0  0  0
    4.3091   -5.7837    9.6039 C   0  0  0  0  0  0  0  0  0  0  0  0
    3.6912   -5.7286    8.3609 C   0  0  0  0  0  0  0  0  0  0  0  0
    2.8843   -4.6909    8.0898 C   0  0  0  0  0  0  0  0  0  0  0  0
    2.3997   -4.8742    6.7980 C   0  0  0  0  0  0  0  0  0  0  0  0
    1.5451   -4.1414    5.9984 C   0  0  0  0  0  0  0  0  0  0  0  0
    1.2261   -4.5575    4.7348 C   0  0  0  0  0  0  0  0  0  0  0  0
    1.7739   -5.7326    4.2600 C   0  0  0  0  0  0  0  0  0  0  0  0
    2.6320   -6.4979    5.0214 C   0  0  0  0  0  0  0  0  0  0  0  0
    2.9469   -6.0620    6.3041 C   0  0  0  0  0  0  0  0  0  0  0  0
    3.7203   -6.5432    7.2826 N   0  0  0  0  0  0  0  0  0  0  0  0
    0.8085   -1.6659    6.4841 O   0  0  0  0  0  0  0  0  0  0  0  0
  1  2  1  0
  2  3  1  0
  3  4  2  0
  4  5  1  0
  5  6  2  0
  6  7  1  0
  7  8  2  0
  8  9  1  0
  9 10  1  0
 10 11  1  0
 11 12  1  0
 12 13  1  0
 13 14  1  0
 14 15  1  0
 15 16  1  0
 16 17  1  0
 17 18  2  0
 18 19  1  0
 19 20  2  0
 20 21  1  0
 21 22  2  0
 22 23  1  0
 23 24  2  0
 24 25  1  0
 25 26  2  0
 26 27  1  0
 27 28  2  0
 28 29  1  0
 14 30  1  6
  8  3  1  0
 22 17  1  0
 28 23  1  0
 29 21  1  0
M  CHG  1  12   1
M  END
$$$$
