
     RDKit          3D

 30 33  0  0  0  0  0  0  0  0999 V2000
   -4.8709    1.1634   13.1856 C   0  0  0  0  0  0  0  0  0  0  0  0
   -4.0022    1.4745   12.1125 O   0  0  0  0  0  0  0  0  0  0  0  0
   -3.8665    2.8126   11.7668 C   0  0  0  0  0  0  0  0  0  0  0  0
   -4.5295    3.8190   12.4294 C   0  0  0  0  0  0  0  0  0  0  0  0
   -4.4000    5.1493   12.0921 C   0  0  0  0  0  0  0  0  0  0  0  0
   -3.5734    5.4892   11.0482 C   0  0  0  0  0  0  0  0  0  0  0  0
   -2.8898    4.4800   10.3606 C   0  0  0  0  0  0  0  0  0  0  0  0
   -3.0148    3.1488   10.6940 C   0  0  0  0  0  0  0  0  0  0  0  0
   -2.3899    2.1005   10.0892 O   0  0  0  0  0  0  0  0  0  0  0  0
   -1.2603    2.1000    9.3000 C   0  0  0  0  0  0  0  0  0  0  0  0
   -1.0019    0.8891    8.4678 C   0  0  0  0  0  0  0  0  0  0  0  0
   -0.9342   -0.2496    9.3878 N   0  0  0  0  0  4  0  0  0  0  0  0
    0.1160   -1.1347    8.8400 C   0  0  0  0  0  0  0  0  0  0  0  0
    1.2783   -1.0944    9.7600 C   0  0  1  0  0  0  0  0  0  0  0  0
    2.5076   -1.7359    9.2114 C   0  0  0  0  0  0  0  0  0  0  0  0
    2.5093   -3.0446    9.0918 O   0  0  0  0  0  0  0  0  0  0  0  0
    3.1637   -4.1800    9.1323 C   0  0  0  0  0  0  0  0  0  0  0  0
    3.9901   -4.6449   10.1355 C   0  0  0  0  0  0  0  0  0  0  0  0
    4.6086   -5.8601   10.0213 C   0  0  0  0  0  0  0  0  0  0  0  0
    4.4313   -6.6556    8.9109 C   0  0  0  0  0  0  0  0  0  0  0  0
    3.6073   -6.2195    7.8809 C   0  0  0  0  0  0  0  0  0  0  0  0
    3.0044   -5.0265    8.0017 C   0  0  0  0  0  0  0  0  0  0  0  0
    2.2473   -4.8307    6.8504 C   0  0  0  0  0  0  0  0  0  0  0  0
    1.4293   -3.8037    6.4226 C   0  0  0  0  0  0  0  0  0  0  0  0
    0.7864   -3.8657    5.2167 C   0  0  0  0  0  0  0  0  0  0  0  0
    0.9653   -4.9795    4.4205 C   0  0  0  0  0  0  0  0  0  0  0  0
    1.7720   -6.0297    4.8050 C   0  0  0  0  0  0  0  0  0  0  0  0
    2.4191   -5.9523    6.0338 C   0  0  0  0  0  0  0  0  0  0  0  0
    3.2484   -6.7643    6.6971 N   0  0  0  0  0  0  0  0  0  0  0  0
    1.5951    0.2319   10.1272 O   0  0  0  0  0  0  0  0  0  0  0  0
  1  2  1  0
  2  3  1  0
  3  4  2  0
  4  5  1  0
  5  6  2  0
  6  7  1  0
  7  8  2  0
  8  9  1  0
  9 10  1  0
 10 11  1  0
 11 12  1  0
 12 13  1  0
 13 14  1  0
 14 15  1  0
 15 16  1  0
 16 17  1  0
 17 18  2  0
 18 19  1  0
 19 20  2  0
 20 21  1  0
 21 22  2  0
 22 23  1  0
 23 24  2  0
 24 25  1  0
 25 26  2  0
 26 27  1  0
 27 28  2  0
 28 29  1  0
 14 30  1  6
  8  3  1  0
 22 17  1  0
 28 23  1  0
 29 21  1  0
M  CHG  1  12   1
M  END
$$$$
