
     RDKit          3D

 30 33  0  0  0  0  0  0  0  0999 V2000
    3.3714    1.1221   12.1672 C   0  0  0  0  0  0  0  0  0  0  0  0
    2.0032    1.0032   11.8256 O   0  0  0  0  0  0  0  0  0  0  0  0
    1.1231    1.9228   12.3809 C   0  0  0  0  0  0  0  0  0  0  0  0
    1.5373    2.9282   13.2231 C   0  0  0  0  0  0  0  0  0  0  0  0
    0.6699    3.8445   13.7781 C   0  0  0  0  0  0  0  0  0  0  0  0
   -0.6685    3.7529   13.4799 C   0  0  0  0  0  0  0  0  0  0  0  0
   -1.1106    2.7367   12.6251 C   0  0  0  0  0  0  0  0  0  0  0  0
   -0.2480    1.8186   12.0668 C   0  0  0  0  0  0  0  0  0  0  0  0
   -0.5820    0.8017   11.2245 O   0  0  0  0  0  0  0  0  0  0  0  0
   -1.8224    0.4452   10.7416 C   0  0  0  0  0  0  0  0  0  0  0  0
   -1.8700   -0.5601    9.6403 C   0  0  0  0  0  0  0  0  0  0  0  0
   -1.3485    0.1016    8.4411 N   0  0  0  0  0  4  0  0  0  0  0  0
   -0.9151   -0.9929    7.5464 C   0  0  0  0  0  0  0  0  0  0  0  0
    0.1572   -0.4702    6.6654 C   0  0  1  0  0  0  0  0  0  0  0  0
    1.3692   -1.3369    6.6065 C   0  0  0  0  0  0  0  0  0  0  0  0
    1.1902   -2.6182    6.3761 O   0  0  0  0  0  0  0  0  0  0  0  0
    1.5485   -3.7122    5.7484 C   0  0  0  0  0  0  0  0  0  0  0  0
    1.3285   -4.0392    4.4255 C   0  0  0  0  0  0  0  0  0  0  0  0
    1.7654   -5.2337    3.9214 C   0  0  0  0  0  0  0  0  0  0  0  0
    2.4334   -6.1453    4.7088 C   0  0  0  0  0  0  0  0  0  0  0  0
    2.6716   -5.8505    6.0454 C   0  0  0  0  0  0  0  0  0  0  0  0
    2.2399   -4.6762    6.5311 C   0  0  0  0  0  0  0  0  0  0  0  0
    2.6009   -4.6300    7.8746 C   0  0  0  0  0  0  0  0  0  0  0  0
    2.4255   -3.6856    8.8665 C   0  0  0  0  0  0  0  0  0  0  0  0
    2.8903   -3.8967   10.1357 C   0  0  0  0  0  0  0  0  0  0  0  0
    3.5453   -5.0786   10.4196 C   0  0  0  0  0  0  0  0  0  0  0  0
    3.7442   -6.0510    9.4623 C   0  0  0  0  0  0  0  0  0  0  0  0
    3.2660   -5.8221    8.1764 C   0  0  0  0  0  0  0  0  0  0  0  0
    3.2848   -6.5281    7.0413 N   0  0  0  0  0  0  0  0  0  0  0  0
   -0.3128   -0.2732    5.3483 O   0  0  0  0  0  0  0  0  0  0  0  0
  1  2  1  0
  2  3  1  0
  3  4  2  0
  4  5  1  0
  5  6  2  0
  6  7  1  0
  7  8  2  0
  8  9  1  0
  9 10  1  0
 10 11  1  0
 11 12  1  0
 12 13  1  0
 13 14  1  0
 14 15  1  0
 15 16  1  0
 16 17  1  0
 17 18  2  0
 18 19  1  0
 19 20  2  0
 20 21  1  0
 21 22  2  0
 22 23  1  0
 23 24  2  0
 24 25  1  0
 25 26  2  0
 26 27  1  0
 27 28  2  0
 28 29  1  0
 14 30  1  6
  8  3  1  0
 22 17  1  0
 28 23  1  0
 29 21  1  0
M  CHG  1  12   1
M  END
$$$$
