
     RDKit          3D

 30 33  0  0  0  0  0  0  0  0999 V2000
    0.8769    2.3553   14.0962 C   0  0  0  0  0  0  0  0  0  0  0  0
    0.0213    2.1730   12.9837 O   0  0  0  0  0  0  0  0  0  0  0  0
   -0.6884    3.2790   12.5346 C   0  0  0  0  0  0  0  0  0  0  0  0
   -0.5782    4.5176   13.1223 C   0  0  0  0  0  0  0  0  0  0  0  0
   -1.2792    5.6199   12.6824 C   0  0  0  0  0  0  0  0  0  0  0  0
   -2.1270    5.4795   11.6099 C   0  0  0  0  0  0  0  0  0  0  0  0
   -2.2538    4.2274   10.9978 C   0  0  0  0  0  0  0  0  0  0  0  0
   -1.5549    3.1223   11.4328 C   0  0  0  0  0  0  0  0  0  0  0  0
   -1.6087    1.8694   10.9014 O   0  0  0  0  0  0  0  0  0  0  0  0
   -0.6327    0.8974   10.8670 C   0  0  0  0  0  0  0  0  0  0  0  0
   -0.9349   -0.3562   10.1167 C   0  0  0  0  0  0  0  0  0  0  0  0
   -0.5022   -0.1360    8.7340 N   0  0  0  0  0  4  0  0  0  0  0  0
    0.2253   -1.3647    8.3502 C   0  0  0  0  0  0  0  0  0  0  0  0
    0.5541   -1.2735    6.9070 C   0  0  1  0  0  0  0  0  0  0  0  0
    0.3345   -2.5419    6.1543 C   0  0  0  0  0  0  0  0  0  0  0  0
    1.3134   -3.4186    6.1407 O   0  0  0  0  0  0  0  0  0  0  0  0
    1.7843   -4.5774    5.7477 C   0  0  0  0  0  0  0  0  0  0  0  0
    1.6721   -5.1571    4.4999 C   0  0  0  0  0  0  0  0  0  0  0  0
    2.2201   -6.3858    4.2509 C   0  0  0  0  0  0  0  0  0  0  0  0
    2.8965   -7.0828    5.2277 C   0  0  0  0  0  0  0  0  0  0  0  0
    3.0282   -6.5307    6.4957 C   0  0  0  0  0  0  0  0  0  0  0  0
    2.4879   -5.3248    6.7308 C   0  0  0  0  0  0  0  0  0  0  0  0
    2.7583   -5.0055    8.0582 C   0  0  0  0  0  0  0  0  0  0  0  0
    2.4563   -3.9122    8.8458 C   0  0  0  0  0  0  0  0  0  0  0  0
    2.8522   -3.8504   10.1538 C   0  0  0  0  0  0  0  0  0  0  0  0
    3.5661   -4.9054   10.6864 C   0  0  0  0  0  0  0  0  0  0  0  0
    3.8912   -6.0180    9.9393 C   0  0  0  0  0  0  0  0  0  0  0  0
    3.4818   -6.0664    8.6109 C   0  0  0  0  0  0  0  0  0  0  0  0
    3.6210   -6.9644    7.6304 N   0  0  0  0  0  0  0  0  0  0  0  0
   -0.1859   -0.2489    6.2770 O   0  0  0  0  0  0  0  0  0  0  0  0
  1  2  1  0
  2  3  1  0
  3  4  2  0
  4  5  1  0
  5  6  2  0
  6  7  1  0
  7  8  2  0
  8  9  1  0
  9 10  1  0
 10 11  1  0
 11 12  1  0
 12 13  1  0
 13 14  1  0
 14 15  1  0
 15 16  1  0
 16 17  1  0
 17 18  2  0
 18 19  1  0
 19 20  2  0
 20 21  1  0
 21 22  2  0
 22 23  1  0
 23 24  2  0
 24 25  1  0
 25 26  2  0
 26 27  1  0
 27 28  2  0
 28 29  1  0
 14 30  1  6
  8  3  1  0
 22 17  1  0
 28 23  1  0
 29 21  1  0
M  CHG  1  12   1
M  END
$$$$
