
     RDKit          3D

 30 33  0  0  0  0  0  0  0  0999 V2000
    3.2395   -0.3241   13.2805 C   0  0  0  0  0  0  0  0  0  0  0  0
    2.0598    0.0912   12.6180 O   0  0  0  0  0  0  0  0  0  0  0  0
    1.4065    1.2105   13.1169 C   0  0  0  0  0  0  0  0  0  0  0  0
    1.8418    1.8851   14.2336 C   0  0  0  0  0  0  0  0  0  0  0  0
    1.1987    2.9965   14.7348 C   0  0  0  0  0  0  0  0  0  0  0  0
    0.0723    3.4538   14.0938 C   0  0  0  0  0  0  0  0  0  0  0  0
   -0.3876    2.7812   12.9559 C   0  0  0  0  0  0  0  0  0  0  0  0
    0.2518    1.6703   12.4500 C   0  0  0  0  0  0  0  0  0  0  0  0
   -0.1160    0.9546   11.3511 O   0  0  0  0  0  0  0  0  0  0  0  0
   -1.1456    1.1893   10.4659 C   0  0  0  0  0  0  0  0  0  0  0  0
   -1.2939    0.2494    9.3168 C   0  0  0  0  0  0  0  0  0  0  0  0
   -0.0606    0.3449    8.5308 N   0  0  0  0  0  4  0  0  0  0  0  0
    0.1508   -1.0056    7.9671 C   0  0  0  0  0  0  0  0  0  0  0  0
    0.5181   -0.8560    6.5382 C   0  0  1  0  0  0  0  0  0  0  0  0
    0.3148   -2.0911    5.7279 C   0  0  0  0  0  0  0  0  0  0  0  0
    1.1315   -3.0988    5.9393 O   0  0  0  0  0  0  0  0  0  0  0  0
    1.5462   -4.3007    5.6194 C   0  0  0  0  0  0  0  0  0  0  0  0
    1.3132   -4.9922    4.4476 C   0  0  0  0  0  0  0  0  0  0  0  0
    1.8166   -6.2521    4.2705 C   0  0  0  0  0  0  0  0  0  0  0  0
    2.5663   -6.8707    5.2465 C   0  0  0  0  0  0  0  0  0  0  0  0
    2.8200   -6.2053    6.4393 C   0  0  0  0  0  0  0  0  0  0  0  0
    2.3228   -4.9696    6.6042 C   0  0  0  0  0  0  0  0  0  0  0  0
    2.7161   -4.5338    7.8661 C   0  0  0  0  0  0  0  0  0  0  0  0
    2.5037   -3.3641    8.5687 C   0  0  0  0  0  0  0  0  0  0  0  0
    3.0162   -3.1895    9.8251 C   0  0  0  0  0  0  0  0  0  0  0  0
    3.7575   -4.2072   10.3917 C   0  0  0  0  0  0  0  0  0  0  0  0
    3.9962   -5.3927    9.7291 C   0  0  0  0  0  0  0  0  0  0  0  0
    3.4687   -5.5556    8.4524 C   0  0  0  0  0  0  0  0  0  0  0  0
    3.5049   -6.5450    7.5541 N   0  0  0  0  0  0  0  0  0  0  0  0
   -0.2020    0.1969    5.9320 O   0  0  0  0  0  0  0  0  0  0  0  0
  1  2  1  0
  2  3  1  0
  3  4  2  0
  4  5  1  0
  5  6  2  0
  6  7  1  0
  7  8  2  0
  8  9  1  0
  9 10  1  0
 10 11  1  0
 11 12  1  0
 12 13  1  0
 13 14  1  0
 14 15  1  0
 15 16  1  0
 16 17  1  0
 17 18  2  0
 18 19  1  0
 19 20  2  0
 20 21  1  0
 21 22  2  0
 22 23  1  0
 23 24  2  0
 24 25  1  0
 25 26  2  0
 26 27  1  0
 27 28  2  0
 28 29  1  0
 14 30  1  6
  8  3  1  0
 22 17  1  0
 28 23  1  0
 29 21  1  0
M  CHG  1  12   1
M  END
$$$$
