
     RDKit          3D

 30 33  0  0  0  0  0  0  0  0999 V2000
    1.3609    0.1629   15.3898 C   0  0  0  0  0  0  0  0  0  0  0  0
    0.7721    0.4588   14.1374 O   0  0  0  0  0  0  0  0  0  0  0  0
    0.4244    1.7805   13.8904 C   0  0  0  0  0  0  0  0  0  0  0  0
    0.6022    2.7785   14.8199 C   0  0  0  0  0  0  0  0  0  0  0  0
    0.2596    4.0924   14.5822 C   0  0  0  0  0  0  0  0  0  0  0  0
   -0.2842    4.4239   13.3644 C   0  0  0  0  0  0  0  0  0  0  0  0
   -0.4738    3.4230   12.4048 C   0  0  0  0  0  0  0  0  0  0  0  0
   -0.1324    2.1083   12.6367 C   0  0  0  0  0  0  0  0  0  0  0  0
   -0.2745    1.0694   11.7673 O   0  0  0  0  0  0  0  0  0  0  0  0
   -0.2347    1.0773   10.3900 C   0  0  0  0  0  0  0  0  0  0  0  0
   -0.5466   -0.1998    9.6845 C   0  0  0  0  0  0  0  0  0  0  0  0
   -0.2381    0.0137    8.2678 N   0  0  0  0  0  4  0  0  0  0  0  0
    0.2979   -1.2767    7.7842 C   0  0  0  0  0  0  0  0  0  0  0  0
    0.7165   -1.1016    6.3724 C   0  0  1  0  0  0  0  0  0  0  0  0
    0.6185   -2.3436    5.5530 C   0  0  0  0  0  0  0  0  0  0  0  0
    1.3229   -3.3839    5.9384 O   0  0  0  0  0  0  0  0  0  0  0  0
    1.7610   -4.5978    5.7069 C   0  0  0  0  0  0  0  0  0  0  0  0
    1.4951   -5.3994    4.6150 C   0  0  0  0  0  0  0  0  0  0  0  0
    2.0304   -6.6554    4.5262 C   0  0  0  0  0  0  0  0  0  0  0  0
    2.8456   -7.1611    5.5146 C   0  0  0  0  0  0  0  0  0  0  0  0
    3.1341   -6.3830    6.6287 C   0  0  0  0  0  0  0  0  0  0  0  0
    2.6051   -5.1520    6.7071 C   0  0  0  0  0  0  0  0  0  0  0  0
    3.0438   -4.5921    7.9035 C   0  0  0  0  0  0  0  0  0  0  0  0
    2.8270   -3.3698    8.5084 C   0  0  0  0  0  0  0  0  0  0  0  0
    3.3928   -3.0672    9.7165 C   0  0  0  0  0  0  0  0  0  0  0  0
    4.1933   -4.0076   10.3339 C   0  0  0  0  0  0  0  0  0  0  0  0
    4.4387   -5.2414    9.7689 C   0  0  0  0  0  0  0  0  0  0  0  0
    3.8565   -5.5346    8.5402 C   0  0  0  0  0  0  0  0  0  0  0  0
    3.8821   -6.6003    7.7334 N   0  0  0  0  0  0  0  0  0  0  0  0
   -0.0359   -0.0893    5.7371 O   0  0  0  0  0  0  0  0  0  0  0  0
  1  2  1  0
  2  3  1  0
  3  4  2  0
  4  5  1  0
  5  6  2  0
  6  7  1  0
  7  8  2  0
  8  9  1  0
  9 10  1  0
 10 11  1  0
 11 12  1  0
 12 13  1  0
 13 14  1  0
 14 15  1  0
 15 16  1  0
 16 17  1  0
 17 18  2  0
 18 19  1  0
 19 20  2  0
 20 21  1  0
 21 22  2  0
 22 23  1  0
 23 24  2  0
 24 25  1  0
 25 26  2  0
 26 27  1  0
 27 28  2  0
 28 29  1  0
 14 30  1  6
  8  3  1  0
 22 17  1  0
 28 23  1  0
 29 21  1  0
M  CHG  1  12   1
M  END
$$$$
