
     RDKit          3D

 30 33  0  0  0  0  0  0  0  0999 V2000
    1.0992    5.4496   11.2131 C   0  0  0  0  0  0  0  0  0  0  0  0
    0.2595    4.3500   10.9148 O   0  0  0  0  0  0  0  0  0  0  0  0
   -0.9736    4.2960   11.5512 C   0  0  0  0  0  0  0  0  0  0  0  0
   -1.4211    5.2949   12.3839 C   0  0  0  0  0  0  0  0  0  0  0  0
   -2.6436    5.2483   13.0190 C   0  0  0  0  0  0  0  0  0  0  0  0
   -3.4539    4.1574   12.8144 C   0  0  0  0  0  0  0  0  0  0  0  0
   -3.0169    3.1296   11.9709 C   0  0  0  0  0  0  0  0  0  0  0  0
   -1.7964    3.1713   11.3328 C   0  0  0  0  0  0  0  0  0  0  0  0
   -1.2885    2.2259   10.4940 O   0  0  0  0  0  0  0  0  0  0  0  0
   -1.7925    0.9828   10.1788 C   0  0  0  0  0  0  0  0  0  0  0  0
   -1.1892    0.2695    9.0157 C   0  0  0  0  0  0  0  0  0  0  0  0
    0.2630    0.4329    9.1265 N   0  0  0  0  0  4  0  0  0  0  0  0
    0.8434   -0.7384    8.4356 C   0  0  0  0  0  0  0  0  0  0  0  0
   -0.0786   -1.1323    7.3430 C   0  0  1  0  0  0  0  0  0  0  0  0
    0.6037   -1.7360    6.1626 C   0  0  0  0  0  0  0  0  0  0  0  0
    1.2893   -2.8405    6.3551 O   0  0  0  0  0  0  0  0  0  0  0  0
    1.8322   -3.9303    5.8686 C   0  0  0  0  0  0  0  0  0  0  0  0
    1.8424   -4.3572    4.5559 C   0  0  0  0  0  0  0  0  0  0  0  0
    2.4532   -5.5317    4.2102 C   0  0  0  0  0  0  0  0  0  0  0  0
    3.0733   -6.3239    5.1511 C   0  0  0  0  0  0  0  0  0  0  0  0
    3.0818   -5.9263    6.4822 C   0  0  0  0  0  0  0  0  0  0  0  0
    2.4808   -4.7725    6.8121 C   0  0  0  0  0  0  0  0  0  0  0  0
    2.6311   -4.6095    8.1862 C   0  0  0  0  0  0  0  0  0  0  0  0
    2.2268   -3.6281    9.0695 C   0  0  0  0  0  0  0  0  0  0  0  0
    2.5132   -3.7150   10.4044 C   0  0  0  0  0  0  0  0  0  0  0  0
    3.2196   -4.8076   10.8666 C   0  0  0  0  0  0  0  0  0  0  0  0
    3.6443   -5.8123   10.0230 C   0  0  0  0  0  0  0  0  0  0  0  0
    3.3457   -5.7101    8.6683 C   0  0  0  0  0  0  0  0  0  0  0  0
    3.5963   -6.4786    7.6036 N   0  0  0  0  0  0  0  0  0  0  0  0
   -1.0585   -2.0397    7.8022 O   0  0  0  0  0  0  0  0  0  0  0  0
  1  2  1  0
  2  3  1  0
  3  4  2  0
  4  5  1  0
  5  6  2  0
  6  7  1  0
  7  8  2  0
  8  9  1  0
  9 10  1  0
 10 11  1  0
 11 12  1  0
 12 13  1  0
 13 14  1  0
 14 15  1  0
 15 16  1  0
 16 17  1  0
 17 18  2  0
 18 19  1  0
 19 20  2  0
 20 21  1  0
 21 22  2  0
 22 23  1  0
 23 24  2  0
 24 25  1  0
 25 26  2  0
 26 27  1  0
 27 28  2  0
 28 29  1  0
 14 30  1  1
  8  3  1  0
 22 17  1  0
 28 23  1  0
 29 21  1  0
M  CHG  1  12   1
M  END
$$$$
