
     RDKit          3D

 30 33  0  0  0  0  0  0  0  0999 V2000
    0.8742    5.2730   11.7723 C   0  0  0  0  0  0  0  0  0  0  0  0
    0.2103    4.0570   11.4832 O   0  0  0  0  0  0  0  0  0  0  0  0
   -1.1783    4.0722   11.4768 C   0  0  0  0  0  0  0  0  0  0  0  0
   -1.9076    5.1915   11.8035 C   0  0  0  0  0  0  0  0  0  0  0  0
   -3.2859    5.2143   11.7995 C   0  0  0  0  0  0  0  0  0  0  0  0
   -3.9651    4.0704   11.4549 C   0  0  0  0  0  0  0  0  0  0  0  0
   -3.2416    2.9203   11.1194 C   0  0  0  0  0  0  0  0  0  0  0  0
   -1.8639    2.8921   11.1208 C   0  0  0  0  0  0  0  0  0  0  0  0
   -1.0755    1.8268   10.8065 O   0  0  0  0  0  0  0  0  0  0  0  0
   -1.4445    0.5506   10.4407 C   0  0  0  0  0  0  0  0  0  0  0  0
   -0.3542   -0.4231   10.1427 C   0  0  0  0  0  0  0  0  0  0  0  0
    0.2359   -0.0186    8.8637 N   0  0  0  0  0  4  0  0  0  0  0  0
    0.3206   -1.2577    8.0613 C   0  0  0  0  0  0  0  0  0  0  0  0
    0.8643   -0.9063    6.7272 C   0  0  1  0  0  0  0  0  0  0  0  0
    0.7521   -2.0001    5.7200 C   0  0  0  0  0  0  0  0  0  0  0  0
    1.4464   -3.0956    5.9316 O   0  0  0  0  0  0  0  0  0  0  0  0
    1.8417   -4.2770    5.5229 C   0  0  0  0  0  0  0  0  0  0  0  0
    1.6231   -4.8635    4.2925 C   0  0  0  0  0  0  0  0  0  0  0  0
    2.1020   -6.1166    4.0234 C   0  0  0  0  0  0  0  0  0  0  0  0
    2.8121   -6.8320    4.9621 C   0  0  0  0  0  0  0  0  0  0  0  0
    3.0503   -6.2737    6.2117 C   0  0  0  0  0  0  0  0  0  0  0  0
    2.5773   -5.0439    6.4668 C   0  0  0  0  0  0  0  0  0  0  0  0
    2.9480   -4.7235    7.7695 C   0  0  0  0  0  0  0  0  0  0  0  0
    2.7445   -3.6108    8.5616 C   0  0  0  0  0  0  0  0  0  0  0  0
    3.2284   -3.5532    9.8398 C   0  0  0  0  0  0  0  0  0  0  0  0
    3.9316   -4.6322   10.3374 C   0  0  0  0  0  0  0  0  0  0  0  0
    4.1601   -5.7646    9.5844 C   0  0  0  0  0  0  0  0  0  0  0  0
    3.6619   -5.8085    8.2865 C   0  0  0  0  0  0  0  0  0  0  0  0
    3.6984   -6.7211    7.3103 N   0  0  0  0  0  0  0  0  0  0  0  0
    0.2351    0.2452    6.2049 O   0  0  0  0  0  0  0  0  0  0  0  0
  1  2  1  0
  2  3  1  0
  3  4  2  0
  4  5  1  0
  5  6  2  0
  6  7  1  0
  7  8  2  0
  8  9  1  0
  9 10  1  0
 10 11  1  0
 11 12  1  0
 12 13  1  0
 13 14  1  0
 14 15  1  0
 15 16  1  0
 16 17  1  0
 17 18  2  0
 18 19  1  0
 19 20  2  0
 20 21  1  0
 21 22  2  0
 22 23  1  0
 23 24  2  0
 24 25  1  0
 25 26  2  0
 26 27  1  0
 27 28  2  0
 28 29  1  0
 14 30  1  6
  8  3  1  0
 22 17  1  0
 28 23  1  0
 29 21  1  0
M  CHG  1  12   1
M  END
$$$$
