
     RDKit          3D

 30 33  0  0  0  0  0  0  0  0999 V2000
   -3.8076    6.0963   11.0698 C   0  0  0  0  0  0  0  0  0  0  0  0
   -2.5701    5.4544   10.8259 O   0  0  0  0  0  0  0  0  0  0  0  0
   -1.9740    4.7895   11.8894 C   0  0  0  0  0  0  0  0  0  0  0  0
   -2.1373    5.1870   13.1959 C   0  0  0  0  0  0  0  0  0  0  0  0
   -1.5490    4.5323   14.2566 C   0  0  0  0  0  0  0  0  0  0  0  0
   -0.7634    3.4337   14.0021 C   0  0  0  0  0  0  0  0  0  0  0  0
   -0.5841    3.0130   12.6794 C   0  0  0  0  0  0  0  0  0  0  0  0
   -1.1705    3.6631   11.6153 C   0  0  0  0  0  0  0  0  0  0  0  0
   -1.0586    3.3275   10.3000 O   0  0  0  0  0  0  0  0  0  0  0  0
   -0.2159    2.4140    9.7050 C   0  0  0  0  0  0  0  0  0  0  0  0
   -0.2990    2.2634    8.2230 C   0  0  0  0  0  0  0  0  0  0  0  0
    0.5902    1.1565    7.8600 N   0  0  0  0  0  4  0  0  0  0  0  0
   -0.2277    0.2555    7.0200 C   0  0  0  0  0  0  0  0  0  0  0  0
    0.4913   -1.0352    6.8935 C   0  0  1  0  0  0  0  0  0  0  0  0
    0.8551   -1.6566    8.1993 C   0  0  0  0  0  0  0  0  0  0  0  0
    1.4446   -2.8308    8.1711 O   0  0  0  0  0  0  0  0  0  0  0  0
    2.1467   -3.7552    8.7805 C   0  0  0  0  0  0  0  0  0  0  0  0
    2.6327   -3.7345   10.0724 C   0  0  0  0  0  0  0  0  0  0  0  0
    3.3593   -4.7862   10.5602 C   0  0  0  0  0  0  0  0  0  0  0  0
    3.6306   -5.8931    9.7865 C   0  0  0  0  0  0  0  0  0  0  0  0
    3.1583   -5.9482    8.4811 C   0  0  0  0  0  0  0  0  0  0  0  0
    2.4461   -4.9123    8.0112 C   0  0  0  0  0  0  0  0  0  0  0  0
    2.0981   -5.2153    6.6981 C   0  0  0  0  0  0  0  0  0  0  0  0
    1.3799   -4.5383    5.7324 C   0  0  0  0  0  0  0  0  0  0  0  0
    1.1801   -5.0767    4.4907 C   0  0  0  0  0  0  0  0  0  0  0  0
    1.7103   -6.3198    4.2082 C   0  0  0  0  0  0  0  0  0  0  0  0
    2.4343   -7.0335    5.1399 C   0  0  0  0  0  0  0  0  0  0  0  0
    2.6290   -6.4732    6.3980 C   0  0  0  0  0  0  0  0  0  0  0  0
    3.2610   -6.8772    7.5046 N   0  0  0  0  0  0  0  0  0  0  0  0
   -0.2623   -1.9705    6.1507 O   0  0  0  0  0  0  0  0  0  0  0  0
  1  2  1  0
  2  3  1  0
  3  4  2  0
  4  5  1  0
  5  6  2  0
  6  7  1  0
  7  8  2  0
  8  9  1  0
  9 10  1  0
 10 11  1  0
 11 12  1  0
 12 13  1  0
 13 14  1  0
 14 15  1  0
 15 16  1  0
 16 17  1  0
 17 18  2  0
 18 19  1  0
 19 20  2  0
 20 21  1  0
 21 22  2  0
 22 23  1  0
 23 24  2  0
 24 25  1  0
 25 26  2  0
 26 27  1  0
 27 28  2  0
 28 29  1  0
 14 30  1  1
  8  3  1  0
 22 17  1  0
 28 23  1  0
 29 21  1  0
M  CHG  1  12   1
M  END
$$$$
