
     RDKit          3D

 30 33  0  0  0  0  0  0  0  0999 V2000
    0.5876    5.1602   12.3597 C   0  0  0  0  0  0  0  0  0  0  0  0
   -0.1163    4.4196   11.3804 O   0  0  0  0  0  0  0  0  0  0  0  0
   -1.4660    4.1825   11.6055 C   0  0  0  0  0  0  0  0  0  0  0  0
   -2.2618    5.0515   12.3148 C   0  0  0  0  0  0  0  0  0  0  0  0
   -3.6020    4.8230   12.5424 C   0  0  0  0  0  0  0  0  0  0  0  0
   -4.1720    3.6776   12.0407 C   0  0  0  0  0  0  0  0  0  0  0  0
   -3.3794    2.7800   11.3163 C   0  0  0  0  0  0  0  0  0  0  0  0
   -2.0395    3.0037   11.0850 C   0  0  0  0  0  0  0  0  0  0  0  0
   -1.1914    2.1946   10.3912 O   0  0  0  0  0  0  0  0  0  0  0  0
   -0.9016    0.8626   10.5930 C   0  0  0  0  0  0  0  0  0  0  0  0
   -1.2708   -0.0944    9.5097 C   0  0  0  0  0  0  0  0  0  0  0  0
   -0.5430    0.3252    8.3088 N   0  0  0  0  0  4  0  0  0  0  0  0
    0.1899   -0.8760    7.8545 C   0  0  0  0  0  0  0  0  0  0  0  0
    0.8334   -0.5594    6.5565 C   0  0  1  0  0  0  0  0  0  0  0  0
    1.9594   -1.4699    6.2005 C   0  0  0  0  0  0  0  0  0  0  0  0
    1.8198   -2.7470    6.4770 O   0  0  0  0  0  0  0  0  0  0  0  0
    1.8629   -3.9972    6.0844 C   0  0  0  0  0  0  0  0  0  0  0  0
    1.5389   -4.5059    4.8427 C   0  0  0  0  0  0  0  0  0  0  0  0
    1.6335   -5.8479    4.5934 C   0  0  0  0  0  0  0  0  0  0  0  0
    2.0505   -6.7319    5.5640 C   0  0  0  0  0  0  0  0  0  0  0  0
    2.3837   -6.2558    6.8258 C   0  0  0  0  0  0  0  0  0  0  0  0
    2.2885   -4.9379    7.0612 C   0  0  0  0  0  0  0  0  0  0  0  0
    2.6743   -4.7278    8.3819 C   0  0  0  0  0  0  0  0  0  0  0  0
    2.7747   -3.5961    9.1666 C   0  0  0  0  0  0  0  0  0  0  0  0
    3.1909   -3.6709   10.4676 C   0  0  0  0  0  0  0  0  0  0  0  0
    3.5141   -4.9049   10.9960 C   0  0  0  0  0  0  0  0  0  0  0  0
    3.4296   -6.0625   10.2515 C   0  0  0  0  0  0  0  0  0  0  0  0
    3.0048   -5.9706    8.9302 C   0  0  0  0  0  0  0  0  0  0  0  0
    2.8141   -6.8637    7.9538 N   0  0  0  0  0  0  0  0  0  0  0  0
   -0.1050   -0.5793    5.5014 O   0  0  0  0  0  0  0  0  0  0  0  0
  1  2  1  0
  2  3  1  0
  3  4  2  0
  4  5  1  0
  5  6  2  0
  6  7  1  0
  7  8  2  0
  8  9  1  0
  9 10  1  0
 10 11  1  0
 11 12  1  0
 12 13  1  0
 13 14  1  0
 14 15  1  0
 15 16  1  0
 16 17  1  0
 17 18  2  0
 18 19  1  0
 19 20  2  0
 20 21  1  0
 21 22  2  0
 22 23  1  0
 23 24  2  0
 24 25  1  0
 25 26  2  0
 26 27  1  0
 27 28  2  0
 28 29  1  0
 14 30  1  6
  8  3  1  0
 22 17  1  0
 28 23  1  0
 29 21  1  0
M  CHG  1  12   1
M  END
$$$$
