
     RDKit          3D

 30 33  0  0  0  0  0  0  0  0999 V2000
   -3.5527    4.6758   10.3712 C   0  0  0  0  0  0  0  0  0  0  0  0
   -3.5401    3.3477   10.8600 O   0  0  0  0  0  0  0  0  0  0  0  0
   -2.7896    3.0931   12.0004 C   0  0  0  0  0  0  0  0  0  0  0  0
   -3.1503    3.5591   13.2430 C   0  0  0  0  0  0  0  0  0  0  0  0
   -2.4107    3.3106   14.3794 C   0  0  0  0  0  0  0  0  0  0  0  0
   -1.2613    2.5652   14.2703 C   0  0  0  0  0  0  0  0  0  0  0  0
   -0.8764    2.0818   13.0145 C   0  0  0  0  0  0  0  0  0  0  0  0
   -1.6123    2.3264   11.8755 C   0  0  0  0  0  0  0  0  0  0  0  0
   -1.3219    1.8968   10.6160 O   0  0  0  0  0  0  0  0  0  0  0  0
   -0.2276    2.1858    9.8300 C   0  0  0  0  0  0  0  0  0  0  0  0
    0.6121    1.0414    9.3707 C   0  0  0  0  0  0  0  0  0  0  0  0
    0.0124    0.5493    8.1274 N   0  0  0  0  0  4  0  0  0  0  0  0
    1.0578   -0.2782    7.4882 C   0  0  0  0  0  0  0  0  0  0  0  0
    0.5569   -0.7084    6.1604 C   0  0  1  0  0  0  0  0  0  0  0  0
    0.1505   -2.1419    6.1016 C   0  0  0  0  0  0  0  0  0  0  0  0
    1.1049   -3.0454    6.1001 O   0  0  0  0  0  0  0  0  0  0  0  0
    1.5819   -4.1814    5.6518 C   0  0  0  0  0  0  0  0  0  0  0  0
    1.3685   -4.7602    4.4169 C   0  0  0  0  0  0  0  0  0  0  0  0
    1.9398   -5.9633    4.1035 C   0  0  0  0  0  0  0  0  0  0  0  0
    2.7401   -6.6348    5.0012 C   0  0  0  0  0  0  0  0  0  0  0  0
    2.9760   -6.0829    6.2540 C   0  0  0  0  0  0  0  0  0  0  0  0
    2.4121   -4.9021    6.5526 C   0  0  0  0  0  0  0  0  0  0  0  0
    2.8016   -4.5771    7.8486 C   0  0  0  0  0  0  0  0  0  0  0  0
    2.5351   -3.5010    8.6719 C   0  0  0  0  0  0  0  0  0  0  0  0
    3.0583   -3.4278    9.9337 C   0  0  0  0  0  0  0  0  0  0  0  0
    3.8661   -4.4536   10.3827 C   0  0  0  0  0  0  0  0  0  0  0  0
    4.1604   -5.5481    9.5973 C   0  0  0  0  0  0  0  0  0  0  0  0
    3.6212   -5.6084    8.3166 C   0  0  0  0  0  0  0  0  0  0  0  0
    3.6982   -6.4956    7.3195 N   0  0  0  0  0  0  0  0  0  0  0  0
   -0.5379    0.0814    5.7456 O   0  0  0  0  0  0  0  0  0  0  0  0
  1  2  1  0
  2  3  1  0
  3  4  2  0
  4  5  1  0
  5  6  2  0
  6  7  1  0
  7  8  2  0
  8  9  1  0
  9 10  1  0
 10 11  1  0
 11 12  1  0
 12 13  1  0
 13 14  1  0
 14 15  1  0
 15 16  1  0
 16 17  1  0
 17 18  2  0
 18 19  1  0
 19 20  2  0
 20 21  1  0
 21 22  2  0
 22 23  1  0
 23 24  2  0
 24 25  1  0
 25 26  2  0
 26 27  1  0
 27 28  2  0
 28 29  1  0
 14 30  1  1
  8  3  1  0
 22 17  1  0
 28 23  1  0
 29 21  1  0
M  CHG  1  12   1
M  END
$$$$
