
     RDKit          3D

 30 33  0  0  0  0  0  0  0  0999 V2000
   -1.2478    6.1020   12.5344 C   0  0  0  0  0  0  0  0  0  0  0  0
   -0.7326    4.9253   11.9402 O   0  0  0  0  0  0  0  0  0  0  0  0
   -0.3869    3.8800   12.7866 C   0  0  0  0  0  0  0  0  0  0  0  0
   -0.3951    4.0032   14.1564 C   0  0  0  0  0  0  0  0  0  0  0  0
   -0.0533    2.9704   15.0029 C   0  0  0  0  0  0  0  0  0  0  0  0
    0.3130    1.7629   14.4584 C   0  0  0  0  0  0  0  0  0  0  0  0
    0.3283    1.6169   13.0666 C   0  0  0  0  0  0  0  0  0  0  0  0
   -0.0134    2.6455   12.2157 C   0  0  0  0  0  0  0  0  0  0  0  0
   -0.0327    2.5979   10.8546 O   0  0  0  0  0  0  0  0  0  0  0  0
    0.3718    1.5832   10.0148 C   0  0  0  0  0  0  0  0  0  0  0  0
    0.3248    1.8440    8.5466 C   0  0  0  0  0  0  0  0  0  0  0  0
   -0.4290    0.7405    7.9451 N   0  0  0  0  0  4  0  0  0  0  0  0
    0.5386   -0.3699    7.8141 C   0  0  0  0  0  0  0  0  0  0  0  0
   -0.1787   -1.5425    7.2577 C   0  0  1  0  0  0  0  0  0  0  0  0
    0.4824   -2.1475    6.0658 C   0  0  0  0  0  0  0  0  0  0  0  0
    1.5012   -2.9503    6.2772 O   0  0  0  0  0  0  0  0  0  0  0  0
    2.2584   -3.9418    5.8740 C   0  0  0  0  0  0  0  0  0  0  0  0
    2.3991   -4.4316    4.5911 C   0  0  0  0  0  0  0  0  0  0  0  0
    3.2334   -5.4854    4.3355 C   0  0  0  0  0  0  0  0  0  0  0  0
    3.9557   -6.0908    5.3400 C   0  0  0  0  0  0  0  0  0  0  0  0
    3.8382   -5.6253    6.6436 C   0  0  0  0  0  0  0  0  0  0  0  0
    3.0179   -4.5908    6.8851 C   0  0  0  0  0  0  0  0  0  0  0  0
    3.0822   -4.3256    8.2499 C   0  0  0  0  0  0  0  0  0  0  0  0
    2.4664   -3.3917    9.0594 C   0  0  0  0  0  0  0  0  0  0  0  0
    2.7129   -3.3477   10.4043 C   0  0  0  0  0  0  0  0  0  0  0  0
    3.5948   -4.2578   10.9522 C   0  0  0  0  0  0  0  0  0  0  0  0
    4.2336   -5.2085   10.1843 C   0  0  0  0  0  0  0  0  0  0  0  0
    3.9729   -5.2410    8.8184 C   0  0  0  0  0  0  0  0  0  0  0  0
    4.4046   -6.0058    7.8105 N   0  0  0  0  0  0  0  0  0  0  0  0
   -0.3459   -2.5504    8.2327 O   0  0  0  0  0  0  0  0  0  0  0  0
  1  2  1  0
  2  3  1  0
  3  4  2  0
  4  5  1  0
  5  6  2  0
  6  7  1  0
  7  8  2  0
  8  9  1  0
  9 10  1  0
 10 11  1  0
 11 12  1  0
 12 13  1  0
 13 14  1  0
 14 15  1  0
 15 16  1  0
 16 17  1  0
 17 18  2  0
 18 19  1  0
 19 20  2  0
 20 21  1  0
 21 22  2  0
 22 23  1  0
 23 24  2  0
 24 25  1  0
 25 26  2  0
 26 27  1  0
 27 28  2  0
 28 29  1  0
 14 30  1  1
  8  3  1  0
 22 17  1  0
 28 23  1  0
 29 21  1  0
M  CHG  1  12   1
M  END
$$$$
