
     RDKit          3D

 30 33  0  0  0  0  0  0  0  0999 V2000
    2.1084    0.4427   13.0800 C   0  0  0  0  0  0  0  0  0  0  0  0
    1.0129    0.9982   12.3769 O   0  0  0  0  0  0  0  0  0  0  0  0
    0.5749    2.2571   12.7666 C   0  0  0  0  0  0  0  0  0  0  0  0
    0.8716    2.7959   13.9967 C   0  0  0  0  0  0  0  0  0  0  0  0
    0.4406    4.0446   14.3907 C   0  0  0  0  0  0  0  0  0  0  0  0
   -0.3197    4.7869   13.5192 C   0  0  0  0  0  0  0  0  0  0  0  0
   -0.6332    4.2566   12.2626 C   0  0  0  0  0  0  0  0  0  0  0  0
   -0.2042    3.0095   11.8632 C   0  0  0  0  0  0  0  0  0  0  0  0
   -0.4537    2.4129   10.6644 O   0  0  0  0  0  0  0  0  0  0  0  0
   -1.6573    2.2289   10.0191 C   0  0  0  0  0  0  0  0  0  0  0  0
   -1.6180    1.6913    8.6280 C   0  0  0  0  0  0  0  0  0  0  0  0
   -0.5141    0.7287    8.5778 N   0  0  0  0  0  4  0  0  0  0  0  0
   -0.8864   -0.2406    7.5252 C   0  0  0  0  0  0  0  0  0  0  0  0
    0.2619   -1.1548    7.3139 C   0  0  1  0  0  0  0  0  0  0  0  0
    0.6196   -1.9654    8.5133 C   0  0  0  0  0  0  0  0  0  0  0  0
    1.4316   -2.9839    8.3392 O   0  0  0  0  0  0  0  0  0  0  0  0
    2.2460   -3.8768    8.8476 C   0  0  0  0  0  0  0  0  0  0  0  0
    2.7129   -3.9551   10.1443 C   0  0  0  0  0  0  0  0  0  0  0  0
    3.5698   -4.9545   10.5170 C   0  0  0  0  0  0  0  0  0  0  0  0
    3.9944   -5.9094    9.6197 C   0  0  0  0  0  0  0  0  0  0  0  0
    3.5459   -5.8614    8.3057 C   0  0  0  0  0  0  0  0  0  0  0  0
    2.7052   -4.8779    7.9492 C   0  0  0  0  0  0  0  0  0  0  0  0
    2.4132   -5.0563    6.6001 C   0  0  0  0  0  0  0  0  0  0  0  0
    1.6195   -4.3638    5.7071 C   0  0  0  0  0  0  0  0  0  0  0  0
    1.5053   -4.7630    4.4037 C   0  0  0  0  0  0  0  0  0  0  0  0
    2.2004   -5.8796    3.9834 C   0  0  0  0  0  0  0  0  0  0  0  0
    3.0051   -6.6030    4.8382 C   0  0  0  0  0  0  0  0  0  0  0  0
    3.1112   -6.1850    6.1605 C   0  0  0  0  0  0  0  0  0  0  0  0
    3.7815   -6.6381    7.2248 N   0  0  0  0  0  0  0  0  0  0  0  0
    0.0232   -2.0363    6.2367 O   0  0  0  0  0  0  0  0  0  0  0  0
  1  2  1  0
  2  3  1  0
  3  4  2  0
  4  5  1  0
  5  6  2  0
  6  7  1  0
  7  8  2  0
  8  9  1  0
  9 10  1  0
 10 11  1  0
 11 12  1  0
 12 13  1  0
 13 14  1  0
 14 15  1  0
 15 16  1  0
 16 17  1  0
 17 18  2  0
 18 19  1  0
 19 20  2  0
 20 21  1  0
 21 22  2  0
 22 23  1  0
 23 24  2  0
 24 25  1  0
 25 26  2  0
 26 27  1  0
 27 28  2  0
 28 29  1  0
 14 30  1  6
  8  3  1  0
 22 17  1  0
 28 23  1  0
 29 21  1  0
M  CHG  1  12   1
M  END
$$$$
