
     RDKit          3D

 30 33  0  0  0  0  0  0  0  0999 V2000
   -1.4538    5.1668    7.8788 C   0  0  0  0  0  0  0  0  0  0  0  0
   -1.4079    4.1748    8.8872 O   0  0  0  0  0  0  0  0  0  0  0  0
   -2.0846    4.4351   10.0716 C   0  0  0  0  0  0  0  0  0  0  0  0
   -2.5263    5.6927   10.4106 C   0  0  0  0  0  0  0  0  0  0  0  0
   -3.1984    5.9589   11.5842 C   0  0  0  0  0  0  0  0  0  0  0  0
   -3.4396    4.9252   12.4571 C   0  0  0  0  0  0  0  0  0  0  0  0
   -2.9980    3.6378   12.1311 C   0  0  0  0  0  0  0  0  0  0  0  0
   -2.3265    3.3658   10.9590 C   0  0  0  0  0  0  0  0  0  0  0  0
   -1.8636    2.1504   10.5543 O   0  0  0  0  0  0  0  0  0  0  0  0
   -1.9106    0.9400   11.2111 C   0  0  0  0  0  0  0  0  0  0  0  0
   -1.3057   -0.2394   10.5262 C   0  0  0  0  0  0  0  0  0  0  0  0
   -1.4568   -0.0152    9.0859 N   0  0  0  0  0  4  0  0  0  0  0  0
   -0.8730   -1.2101    8.4395 C   0  0  0  0  0  0  0  0  0  0  0  0
    0.2571   -0.7672    7.5877 C   0  0  1  0  0  0  0  0  0  0  0  0
    1.5987   -1.1505    8.1136 C   0  0  0  0  0  0  0  0  0  0  0  0
    1.9062   -2.4282    8.1229 O   0  0  0  0  0  0  0  0  0  0  0  0
    2.6045   -3.4165    8.6275 C   0  0  0  0  0  0  0  0  0  0  0  0
    3.2677   -3.4527    9.8376 C   0  0  0  0  0  0  0  0  0  0  0  0
    3.9620   -4.5685   10.2183 C   0  0  0  0  0  0  0  0  0  0  0  0
    4.0246   -5.6855    9.4147 C   0  0  0  0  0  0  0  0  0  0  0  0
    3.3701   -5.6846    8.1893 C   0  0  0  0  0  0  0  0  0  0  0  0
    2.6911   -4.5859    7.8242 C   0  0  0  0  0  0  0  0  0  0  0  0
    2.1367   -4.8426    6.5737 C   0  0  0  0  0  0  0  0  0  0  0  0
    1.3509   -4.0952    5.7188 C   0  0  0  0  0  0  0  0  0  0  0  0
    0.9323   -4.5999    4.5182 C   0  0  0  0  0  0  0  0  0  0  0  0
    1.3077   -5.8806    4.1642 C   0  0  0  0  0  0  0  0  0  0  0  0
    2.0912   -6.6646    4.9846 C   0  0  0  0  0  0  0  0  0  0  0  0
    2.5091   -6.1378    6.2022 C   0  0  0  0  0  0  0  0  0  0  0  0
    3.2533   -6.6074    7.2086 N   0  0  0  0  0  0  0  0  0  0  0  0
    0.1349   -1.2690    6.2732 O   0  0  0  0  0  0  0  0  0  0  0  0
  1  2  1  0
  2  3  1  0
  3  4  2  0
  4  5  1  0
  5  6  2  0
  6  7  1  0
  7  8  2  0
  8  9  1  0
  9 10  1  0
 10 11  1  0
 11 12  1  0
 12 13  1  0
 13 14  1  0
 14 15  1  0
 15 16  1  0
 16 17  1  0
 17 18  2  0
 18 19  1  0
 19 20  2  0
 20 21  1  0
 21 22  2  0
 22 23  1  0
 23 24  2  0
 24 25  1  0
 25 26  2  0
 26 27  1  0
 27 28  2  0
 28 29  1  0
 14 30  1  6
  8  3  1  0
 22 17  1  0
 28 23  1  0
 29 21  1  0
M  CHG  1  12   1
M  END
$$$$
