
     RDKit          3D

 30 33  0  0  0  0  0  0  0  0999 V2000
    4.1792   -0.4131   12.2965 C   0  0  0  0  0  0  0  0  0  0  0  0
    2.8207   -0.1254   12.0231 O   0  0  0  0  0  0  0  0  0  0  0  0
    2.2479    0.9498   12.6897 C   0  0  0  0  0  0  0  0  0  0  0  0
    2.9011    1.6350   13.6874 C   0  0  0  0  0  0  0  0  0  0  0  0
    2.3392    2.7029   14.3537 C   0  0  0  0  0  0  0  0  0  0  0  0
    1.0705    3.1036   14.0094 C   0  0  0  0  0  0  0  0  0  0  0  0
    0.3884    2.4193   12.9970 C   0  0  0  0  0  0  0  0  0  0  0  0
    0.9455    1.3518   12.3271 C   0  0  0  0  0  0  0  0  0  0  0  0
    0.3641    0.6291   11.3296 O   0  0  0  0  0  0  0  0  0  0  0  0
   -0.9038    0.7403   10.8015 C   0  0  0  0  0  0  0  0  0  0  0  0
   -1.2626   -0.1685    9.6741 C   0  0  0  0  0  0  0  0  0  0  0  0
   -0.3018    0.0924    8.5986 N   0  0  0  0  0  4  0  0  0  0  0  0
   -0.0900   -1.2127    7.9367 C   0  0  0  0  0  0  0  0  0  0  0  0
    0.5261   -0.9623    6.6113 C   0  0  1  0  0  0  0  0  0  0  0  0
    1.7690   -1.7478    6.3628 C   0  0  0  0  0  0  0  0  0  0  0  0
    1.6555   -3.0540    6.2729 O   0  0  0  0  0  0  0  0  0  0  0  0
    2.0022   -4.1792    5.6962 C   0  0  0  0  0  0  0  0  0  0  0  0
    1.8840   -4.5184    4.3634 C   0  0  0  0  0  0  0  0  0  0  0  0
    2.2915   -5.7464    3.9184 C   0  0  0  0  0  0  0  0  0  0  0  0
    2.8285   -6.6804    4.7766 C   0  0  0  0  0  0  0  0  0  0  0  0
    2.9616   -6.3742    6.1251 C   0  0  0  0  0  0  0  0  0  0  0  0
    2.5597   -5.1671    6.5527 C   0  0  0  0  0  0  0  0  0  0  0  0
    2.7992   -5.1161    7.9228 C   0  0  0  0  0  0  0  0  0  0  0  0
    2.5920   -4.1438    8.8811 C   0  0  0  0  0  0  0  0  0  0  0  0
    2.9258   -4.3572   10.1905 C   0  0  0  0  0  0  0  0  0  0  0  0
    3.4792   -5.5700   10.5499 C   0  0  0  0  0  0  0  0  0  0  0  0
    3.7049   -6.5710    9.6287 C   0  0  0  0  0  0  0  0  0  0  0  0
    3.3604   -6.3394    8.3012 C   0  0  0  0  0  0  0  0  0  0  0  0
    3.4395   -7.0673    7.1827 N   0  0  0  0  0  0  0  0  0  0  0  0
   -0.3844   -1.2280    5.5649 O   0  0  0  0  0  0  0  0  0  0  0  0
  1  2  1  0
  2  3  1  0
  3  4  2  0
  4  5  1  0
  5  6  2  0
  6  7  1  0
  7  8  2  0
  8  9  1  0
  9 10  1  0
 10 11  1  0
 11 12  1  0
 12 13  1  0
 13 14  1  0
 14 15  1  0
 15 16  1  0
 16 17  1  0
 17 18  2  0
 18 19  1  0
 19 20  2  0
 20 21  1  0
 21 22  2  0
 22 23  1  0
 23 24  2  0
 24 25  1  0
 25 26  2  0
 26 27  1  0
 27 28  2  0
 28 29  1  0
 14 30  1  6
  8  3  1  0
 22 17  1  0
 28 23  1  0
 29 21  1  0
M  CHG  1  12   1
M  END
$$$$
