
     RDKit          3D

 30 33  0  0  0  0  0  0  0  0999 V2000
   -2.3046    5.6854   11.9974 C   0  0  0  0  0  0  0  0  0  0  0  0
   -1.8421    4.4335   11.5263 O   0  0  0  0  0  0  0  0  0  0  0  0
   -1.8503    3.3710   12.4205 C   0  0  0  0  0  0  0  0  0  0  0  0
   -2.3356    3.4861   13.7022 C   0  0  0  0  0  0  0  0  0  0  0  0
   -2.3470    2.4362   14.5953 C   0  0  0  0  0  0  0  0  0  0  0  0
   -1.8521    1.2193   14.1917 C   0  0  0  0  0  0  0  0  0  0  0  0
   -1.3531    1.0813   12.8914 C   0  0  0  0  0  0  0  0  0  0  0  0
   -1.3401    2.1271   11.9942 C   0  0  0  0  0  0  0  0  0  0  0  0
   -0.8811    2.0885   10.7124 O   0  0  0  0  0  0  0  0  0  0  0  0
   -0.4374    1.0087    9.9804 C   0  0  0  0  0  0  0  0  0  0  0  0
   -0.1124    1.2379    8.5424 C   0  0  0  0  0  0  0  0  0  0  0  0
   -0.7395    0.1489    7.7885 N   0  0  0  0  0  4  0  0  0  0  0  0
    0.3252   -0.8588    7.5958 C   0  0  0  0  0  0  0  0  0  0  0  0
    0.4506   -1.1242    6.1422 C   0  0  1  0  0  0  0  0  0  0  0  0
    0.1009   -2.5194    5.7488 C   0  0  0  0  0  0  0  0  0  0  0  0
    1.0869   -3.3252    5.4240 O   0  0  0  0  0  0  0  0  0  0  0  0
    1.5618   -4.5432    5.3240 C   0  0  0  0  0  0  0  0  0  0  0  0
    1.4384   -5.4148    4.2606 C   0  0  0  0  0  0  0  0  0  0  0  0
    1.9928   -6.6644    4.3163 C   0  0  0  0  0  0  0  0  0  0  0  0
    2.6868   -7.0943    5.4257 C   0  0  0  0  0  0  0  0  0  0  0  0
    2.8301   -6.2445    6.5152 C   0  0  0  0  0  0  0  0  0  0  0  0
    2.2835   -5.0203    6.4516 C   0  0  0  0  0  0  0  0  0  0  0  0
    2.5681   -4.3806    7.6545 C   0  0  0  0  0  0  0  0  0  0  0  0
    2.2675   -3.1275    8.1507 C   0  0  0  0  0  0  0  0  0  0  0  0
    2.6794   -2.7415    9.3968 C   0  0  0  0  0  0  0  0  0  0  0  0
    3.4081   -3.6283   10.1642 C   0  0  0  0  0  0  0  0  0  0  0  0
    3.7324   -4.8900    9.7117 C   0  0  0  0  0  0  0  0  0  0  0  0
    3.3067   -5.2681    8.4427 C   0  0  0  0  0  0  0  0  0  0  0  0
    3.4405   -6.3806    7.7136 N   0  0  0  0  0  0  0  0  0  0  0  0
   -0.3485   -0.2364    5.3888 O   0  0  0  0  0  0  0  0  0  0  0  0
  1  2  1  0
  2  3  1  0
  3  4  2  0
  4  5  1  0
  5  6  2  0
  6  7  1  0
  7  8  2  0
  8  9  1  0
  9 10  1  0
 10 11  1  0
 11 12  1  0
 12 13  1  0
 13 14  1  0
 14 15  1  0
 15 16  1  0
 16 17  1  0
 17 18  2  0
 18 19  1  0
 19 20  2  0
 20 21  1  0
 21 22  2  0
 22 23  1  0
 23 24  2  0
 24 25  1  0
 25 26  2  0
 26 27  1  0
 27 28  2  0
 28 29  1  0
 14 30  1  6
  8  3  1  0
 22 17  1  0
 28 23  1  0
 29 21  1  0
M  CHG  1  12   1
M  END
$$$$
