
     RDKit          3D

 30 33  0  0  0  0  0  0  0  0999 V2000
   -5.0649    4.1467   10.5208 C   0  0  0  0  0  0  0  0  0  0  0  0
   -3.7384    3.7705   10.2019 O   0  0  0  0  0  0  0  0  0  0  0  0
   -2.7568    4.0205   11.1518 C   0  0  0  0  0  0  0  0  0  0  0  0
   -3.0245    4.6512   12.3443 C   0  0  0  0  0  0  0  0  0  0  0  0
   -2.0556    4.9029   13.2920 C   0  0  0  0  0  0  0  0  0  0  0  0
   -0.7640    4.5083   13.0380 C   0  0  0  0  0  0  0  0  0  0  0  0
   -0.4704    3.8653   11.8301 C   0  0  0  0  0  0  0  0  0  0  0  0
   -1.4350    3.6103   10.8797 C   0  0  0  0  0  0  0  0  0  0  0  0
   -1.2474    2.9896    9.6818 O   0  0  0  0  0  0  0  0  0  0  0  0
   -0.0865    2.4858    9.1366 C   0  0  0  0  0  0  0  0  0  0  0  0
   -0.1433    1.9939    7.7293 C   0  0  0  0  0  0  0  0  0  0  0  0
   -1.0097    0.8118    7.7293 N   0  0  0  0  0  4  0  0  0  0  0  0
   -0.2234   -0.2509    7.0670 C   0  0  0  0  0  0  0  0  0  0  0  0
    0.3019   -1.1572    8.1167 C   0  0  1  0  0  0  0  0  0  0  0  0
    0.1121   -2.6055    7.8170 C   0  0  0  0  0  0  0  0  0  0  0  0
    1.0001   -3.1882    7.0432 O   0  0  0  0  0  0  0  0  0  0  0  0
    1.3684   -4.2265    6.3323 C   0  0  0  0  0  0  0  0  0  0  0  0
    0.9185   -4.5982    5.0813 C   0  0  0  0  0  0  0  0  0  0  0  0
    1.4038   -5.7232    4.4724 C   0  0  0  0  0  0  0  0  0  0  0  0
    2.3495   -6.5189    5.0806 C   0  0  0  0  0  0  0  0  0  0  0  0
    2.8246   -6.1764    6.3403 C   0  0  0  0  0  0  0  0  0  0  0  0
    2.3433   -5.0708    6.9298 C   0  0  0  0  0  0  0  0  0  0  0  0
    2.9742   -4.9565    8.1651 C   0  0  0  0  0  0  0  0  0  0  0  0
    2.8823   -4.0352    9.1896 C   0  0  0  0  0  0  0  0  0  0  0  0
    3.6346   -4.1612   10.3252 C   0  0  0  0  0  0  0  0  0  0  0  0
    4.4982   -5.2325   10.4392 C   0  0  0  0  0  0  0  0  0  0  0  0
    4.6243   -6.1777    9.4430 C   0  0  0  0  0  0  0  0  0  0  0  0
    3.8529   -6.0361    8.2943 C   0  0  0  0  0  0  0  0  0  0  0  0
    3.7285   -6.7459    7.1683 N   0  0  0  0  0  0  0  0  0  0  0  0
    1.6757   -0.9279    8.3505 O   0  0  0  0  0  0  0  0  0  0  0  0
  1  2  1  0
  2  3  1  0
  3  4  2  0
  4  5  1  0
  5  6  2  0
  6  7  1  0
  7  8  2  0
  8  9  1  0
  9 10  1  0
 10 11  1  0
 11 12  1  0
 12 13  1  0
 13 14  1  0
 14 15  1  0
 15 16  1  0
 16 17  1  0
 17 18  2  0
 18 19  1  0
 19 20  2  0
 20 21  1  0
 21 22  2  0
 22 23  1  0
 23 24  2  0
 24 25  1  0
 25 26  2  0
 26 27  1  0
 27 28  2  0
 28 29  1  0
 14 30  1  6
  8  3  1  0
 22 17  1  0
 28 23  1  0
 29 21  1  0
M  CHG  1  12   1
M  END
$$$$
