
     RDKit          3D

 30 33  0  0  0  0  0  0  0  0999 V2000
    0.8616    5.0852   11.9375 C   0  0  0  0  0  0  0  0  0  0  0  0
    0.0669    3.9661   11.5923 O   0  0  0  0  0  0  0  0  0  0  0  0
   -1.3095    4.1469   11.5526 C   0  0  0  0  0  0  0  0  0  0  0  0
   -1.9135    5.3187   11.9444 C   0  0  0  0  0  0  0  0  0  0  0  0
   -3.2788    5.5056   11.9081 C   0  0  0  0  0  0  0  0  0  0  0  0
   -4.0751    4.4783   11.4618 C   0  0  0  0  0  0  0  0  0  0  0  0
   -3.4801    3.2773   11.0589 C   0  0  0  0  0  0  0  0  0  0  0  0
   -2.1160    3.0853   11.0922 C   0  0  0  0  0  0  0  0  0  0  0  0
   -1.4474    1.9590   10.7184 O   0  0  0  0  0  0  0  0  0  0  0  0
   -1.9323    0.6831   10.5292 C   0  0  0  0  0  0  0  0  0  0  0  0
   -0.9697   -0.3578   10.0647 C   0  0  0  0  0  0  0  0  0  0  0  0
   -0.4697    0.0813    8.7590 N   0  0  0  0  0  4  0  0  0  0  0  0
    0.1267   -1.1228    8.1421 C   0  0  0  0  0  0  0  0  0  0  0  0
    0.6581   -0.7431    6.8107 C   0  0  1  0  0  0  0  0  0  0  0  0
    0.5387   -1.8163    5.7823 C   0  0  0  0  0  0  0  0  0  0  0  0
    1.2886   -2.8855    5.9289 O   0  0  0  0  0  0  0  0  0  0  0  0
    1.6099   -4.0985    5.5488 C   0  0  0  0  0  0  0  0  0  0  0  0
    1.3680   -4.6944    4.3274 C   0  0  0  0  0  0  0  0  0  0  0  0
    1.7662   -5.9816    4.0894 C   0  0  0  0  0  0  0  0  0  0  0  0
    2.4160   -6.7228    5.0515 C   0  0  0  0  0  0  0  0  0  0  0  0
    2.6753   -6.1560    6.2930 C   0  0  0  0  0  0  0  0  0  0  0  0
    2.2815   -4.8927    6.5175 C   0  0  0  0  0  0  0  0  0  0  0  0
    2.6567   -4.5707    7.8186 C   0  0  0  0  0  0  0  0  0  0  0  0
    2.5175   -3.4311    8.5858 C   0  0  0  0  0  0  0  0  0  0  0  0
    2.9885   -3.3793    9.8691 C   0  0  0  0  0  0  0  0  0  0  0  0
    3.6127   -4.4918   10.3973 C   0  0  0  0  0  0  0  0  0  0  0  0
    3.7750   -5.6520    9.6698 C   0  0  0  0  0  0  0  0  0  0  0  0
    3.2909   -5.6896    8.3664 C   0  0  0  0  0  0  0  0  0  0  0  0
    3.2790   -6.6225    7.4089 N   0  0  0  0  0  0  0  0  0  0  0  0
    0.0225    0.4177    6.3178 O   0  0  0  0  0  0  0  0  0  0  0  0
  1  2  1  0
  2  3  1  0
  3  4  2  0
  4  5  1  0
  5  6  2  0
  6  7  1  0
  7  8  2  0
  8  9  1  0
  9 10  1  0
 10 11  1  0
 11 12  1  0
 12 13  1  0
 13 14  1  0
 14 15  1  0
 15 16  1  0
 16 17  1  0
 17 18  2  0
 18 19  1  0
 19 20  2  0
 20 21  1  0
 21 22  2  0
 22 23  1  0
 23 24  2  0
 24 25  1  0
 25 26  2  0
 26 27  1  0
 27 28  2  0
 28 29  1  0
 14 30  1  6
  8  3  1  0
 22 17  1  0
 28 23  1  0
 29 21  1  0
M  CHG  1  12   1
M  END
$$$$
