
     RDKit          3D

 30 33  0  0  0  0  0  0  0  0999 V2000
    0.8458    3.6796   13.9365 C   0  0  0  0  0  0  0  0  0  0  0  0
    0.4233    3.2497   12.6560 O   0  0  0  0  0  0  0  0  0  0  0  0
   -0.4767    4.0585   11.9745 C   0  0  0  0  0  0  0  0  0  0  0  0
   -0.6150    5.4005   12.2418 C   0  0  0  0  0  0  0  0  0  0  0  0
   -1.5060    6.2097   11.5698 C   0  0  0  0  0  0  0  0  0  0  0  0
   -2.2930    5.6550   10.5893 C   0  0  0  0  0  0  0  0  0  0  0  0
   -2.1681    4.2910   10.3022 C   0  0  0  0  0  0  0  0  0  0  0  0
   -1.2785    3.4777   10.9700 C   0  0  0  0  0  0  0  0  0  0  0  0
   -1.0832    2.1463   10.7591 O   0  0  0  0  0  0  0  0  0  0  0  0
   -1.7920    1.2807    9.9547 C   0  0  0  0  0  0  0  0  0  0  0  0
   -1.3511   -0.1441    9.9193 C   0  0  0  0  0  0  0  0  0  0  0  0
    0.0981   -0.1330    9.7016 N   0  0  0  0  0  4  0  0  0  0  0  0
    0.4380   -1.5003    9.2530 C   0  0  0  0  0  0  0  0  0  0  0  0
    1.3020   -2.1223   10.2852 C   0  0  1  0  0  0  0  0  0  0  0  0
    1.5184   -3.5851   10.0929 C   0  0  0  0  0  0  0  0  0  0  0  0
    2.0488   -3.9774    8.9564 O   0  0  0  0  0  0  0  0  0  0  0  0
    2.5249   -4.9427    8.2077 C   0  0  0  0  0  0  0  0  0  0  0  0
    3.1578   -6.0986    8.6187 C   0  0  0  0  0  0  0  0  0  0  0  0
    3.6046   -7.0115    7.7027 C   0  0  0  0  0  0  0  0  0  0  0  0
    3.4415   -6.8114    6.3496 C   0  0  0  0  0  0  0  0  0  0  0  0
    2.8100   -5.6587    5.8994 C   0  0  0  0  0  0  0  0  0  0  0  0
    2.3745   -4.7691    6.8050 C   0  0  0  0  0  0  0  0  0  0  0  0
    1.7880   -3.7209    6.1018 C   0  0  0  0  0  0  0  0  0  0  0  0
    1.1791   -2.5455    6.4946 C   0  0  0  0  0  0  0  0  0  0  0  0
    0.6741   -1.6676    5.5750 C   0  0  0  0  0  0  0  0  0  0  0  0
    0.7801   -1.9718    4.2324 C   0  0  0  0  0  0  0  0  0  0  0  0
    1.3795   -3.1331    3.7921 C   0  0  0  0  0  0  0  0  0  0  0  0
    1.8882   -4.0159    4.7390 C   0  0  0  0  0  0  0  0  0  0  0  0
    2.5125   -5.1957    4.6648 N   0  0  0  0  0  0  0  0  0  0  0  0
    2.5636   -1.4904   10.3456 O   0  0  0  0  0  0  0  0  0  0  0  0
  1  2  1  0
  2  3  1  0
  3  4  2  0
  4  5  1  0
  5  6  2  0
  6  7  1  0
  7  8  2  0
  8  9  1  0
  9 10  1  0
 10 11  1  0
 11 12  1  0
 12 13  1  0
 13 14  1  0
 14 15  1  0
 15 16  1  0
 16 17  1  0
 17 18  2  0
 18 19  1  0
 19 20  2  0
 20 21  1  0
 21 22  2  0
 22 23  1  0
 23 24  2  0
 24 25  1  0
 25 26  2  0
 26 27  1  0
 27 28  2  0
 28 29  1  0
 14 30  1  6
  8  3  1  0
 22 17  1  0
 28 23  1  0
 29 21  1  0
M  CHG  1  12   1
M  END
$$$$
