
     RDKit          3D

 30 33  0  0  0  0  0  0  0  0999 V2000
    1.6069    4.2336   13.5841 C   0  0  0  0  0  0  0  0  0  0  0  0
    0.9933    3.1189   12.9646 O   0  0  0  0  0  0  0  0  0  0  0  0
   -0.2756    2.7624   13.4020 C   0  0  0  0  0  0  0  0  0  0  0  0
   -0.8582    3.3199   14.5161 C   0  0  0  0  0  0  0  0  0  0  0  0
   -2.1170    2.9712   14.9564 C   0  0  0  0  0  0  0  0  0  0  0  0
   -2.8244    2.0249   14.2545 C   0  0  0  0  0  0  0  0  0  0  0  0
   -2.2493    1.4449   13.1180 C   0  0  0  0  0  0  0  0  0  0  0  0
   -0.9918    1.7903   12.6728 C   0  0  0  0  0  0  0  0  0  0  0  0
   -0.3528    1.2865   11.5805 O   0  0  0  0  0  0  0  0  0  0  0  0
   -0.2224    1.8318   10.3218 C   0  0  0  0  0  0  0  0  0  0  0  0
   -0.7358    1.0354    9.1694 C   0  0  0  0  0  0  0  0  0  0  0  0
    0.2560   -0.0100    8.9027 N   0  0  0  0  0  4  0  0  0  0  0  0
   -0.4858   -1.0884    8.2149 C   0  0  0  0  0  0  0  0  0  0  0  0
    0.0195   -1.1802    6.8237 C   0  0  1  0  0  0  0  0  0  0  0  0
    1.4337   -1.6419    6.7221 C   0  0  0  0  0  0  0  0  0  0  0  0
    1.6535   -2.9374    6.7393 O   0  0  0  0  0  0  0  0  0  0  0  0
    1.8420   -4.0582    6.0857 C   0  0  0  0  0  0  0  0  0  0  0  0
    1.4260   -4.3726    4.8075 C   0  0  0  0  0  0  0  0  0  0  0  0
    1.7008   -5.5993    4.2675 C   0  0  0  0  0  0  0  0  0  0  0  0
    2.3952   -6.5566    4.9738 C   0  0  0  0  0  0  0  0  0  0  0  0
    2.8285   -6.2757    6.2634 C   0  0  0  0  0  0  0  0  0  0  0  0
    2.5550   -5.0697    6.7848 C   0  0  0  0  0  0  0  0  0  0  0  0
    3.0918   -5.0462    8.0688 C   0  0  0  0  0  0  0  0  0  0  0  0
    3.1204   -4.0870    9.0618 C   0  0  0  0  0  0  0  0  0  0  0  0
    3.7306   -4.3283   10.2622 C   0  0  0  0  0  0  0  0  0  0  0  0
    4.3253   -5.5561   10.4747 C   0  0  0  0  0  0  0  0  0  0  0  0
    4.3223   -6.5448    9.5134 C   0  0  0  0  0  0  0  0  0  0  0  0
    3.6981   -6.2848    8.2979 C   0  0  0  0  0  0  0  0  0  0  0  0
    3.5140   -6.9947    7.1801 N   0  0  0  0  0  0  0  0  0  0  0  0
   -0.7854   -2.0378    6.0421 O   0  0  0  0  0  0  0  0  0  0  0  0
  1  2  1  0
  2  3  1  0
  3  4  2  0
  4  5  1  0
  5  6  2  0
  6  7  1  0
  7  8  2  0
  8  9  1  0
  9 10  1  0
 10 11  1  0
 11 12  1  0
 12 13  1  0
 13 14  1  0
 14 15  1  0
 15 16  1  0
 16 17  1  0
 17 18  2  0
 18 19  1  0
 19 20  2  0
 20 21  1  0
 21 22  2  0
 22 23  1  0
 23 24  2  0
 24 25  1  0
 25 26  2  0
 26 27  1  0
 27 28  2  0
 28 29  1  0
 14 30  1  6
  8  3  1  0
 22 17  1  0
 28 23  1  0
 29 21  1  0
M  CHG  1  12   1
M  END
$$$$
