
     RDKit          3D

 30 33  0  0  0  0  0  0  0  0999 V2000
    0.8841   -0.0962   14.5654 C   0  0  0  0  0  0  0  0  0  0  0  0
    0.3272    0.5706   13.4481 O   0  0  0  0  0  0  0  0  0  0  0  0
    0.4135    1.9564   13.4221 C   0  0  0  0  0  0  0  0  0  0  0  0
    0.7356    2.6988   14.5341 C   0  0  0  0  0  0  0  0  0  0  0  0
    0.8230    4.0744   14.5161 C   0  0  0  0  0  0  0  0  0  0  0  0
    0.5780    4.7371   13.3374 C   0  0  0  0  0  0  0  0  0  0  0  0
    0.2482    4.0001   12.1943 C   0  0  0  0  0  0  0  0  0  0  0  0
    0.1602    2.6250   12.2063 C   0  0  0  0  0  0  0  0  0  0  0  0
   -0.1485    1.8241   11.1487 O   0  0  0  0  0  0  0  0  0  0  0  0
   -0.2588    2.1506    9.8145 C   0  0  0  0  0  0  0  0  0  0  0  0
   -0.7640    1.0970    8.8869 C   0  0  0  0  0  0  0  0  0  0  0  0
    0.0790   -0.0844    9.0898 N   0  0  0  0  0  4  0  0  0  0  0  0
    0.7075   -0.3479    7.7776 C   0  0  0  0  0  0  0  0  0  0  0  0
   -0.1103   -1.3631    7.0707 C   0  0  1  0  0  0  0  0  0  0  0  0
    0.5419   -1.9259    5.8536 C   0  0  0  0  0  0  0  0  0  0  0  0
    1.3688   -2.9341    6.0174 O   0  0  0  0  0  0  0  0  0  0  0  0
    1.9808   -3.9827    5.5226 C   0  0  0  0  0  0  0  0  0  0  0  0
    1.9040   -4.4787    4.2367 C   0  0  0  0  0  0  0  0  0  0  0  0
    2.6074   -5.5961    3.8780 C   0  0  0  0  0  0  0  0  0  0  0  0
    3.4095   -6.2609    4.7790 C   0  0  0  0  0  0  0  0  0  0  0  0
    3.5102   -5.7909    6.0825 C   0  0  0  0  0  0  0  0  0  0  0  0
    2.8171   -4.6940    6.4254 C   0  0  0  0  0  0  0  0  0  0  0  0
    3.0895   -4.4387    7.7662 C   0  0  0  0  0  0  0  0  0  0  0  0
    2.6682   -3.4601    8.6446 C   0  0  0  0  0  0  0  0  0  0  0  0
    3.0999   -3.4399    9.9426 C   0  0  0  0  0  0  0  0  0  0  0  0
    3.9723   -4.4201   10.3720 C   0  0  0  0  0  0  0  0  0  0  0  0
    4.4206   -5.4174    9.5318 C   0  0  0  0  0  0  0  0  0  0  0  0
    3.9730   -5.4248    8.2149 C   0  0  0  0  0  0  0  0  0  0  0  0
    4.1990   -6.2194    7.1638 N   0  0  0  0  0  0  0  0  0  0  0  0
   -0.4512   -2.4329    7.9273 O   0  0  0  0  0  0  0  0  0  0  0  0
  1  2  1  0
  2  3  1  0
  3  4  2  0
  4  5  1  0
  5  6  2  0
  6  7  1  0
  7  8  2  0
  8  9  1  0
  9 10  1  0
 10 11  1  0
 11 12  1  0
 12 13  1  0
 13 14  1  0
 14 15  1  0
 15 16  1  0
 16 17  1  0
 17 18  2  0
 18 19  1  0
 19 20  2  0
 20 21  1  0
 21 22  2  0
 22 23  1  0
 23 24  2  0
 24 25  1  0
 25 26  2  0
 26 27  1  0
 27 28  2  0
 28 29  1  0
 14 30  1  1
  8  3  1  0
 22 17  1  0
 28 23  1  0
 29 21  1  0
M  CHG  1  12   1
M  END
$$$$
