
     RDKit          3D

 30 33  0  0  0  0  0  0  0  0999 V2000
    1.0431    2.0649   14.6432 C   0  0  0  0  0  0  0  0  0  0  0  0
    0.4502    2.0480   13.3583 O   0  0  0  0  0  0  0  0  0  0  0  0
   -0.3651    3.1188   13.0160 C   0  0  0  0  0  0  0  0  0  0  0  0
   -0.9140    3.9607   13.9548 C   0  0  0  0  0  0  0  0  0  0  0  0
   -1.7241    5.0255   13.6229 C   0  0  0  0  0  0  0  0  0  0  0  0
   -1.9982    5.2595   12.2967 C   0  0  0  0  0  0  0  0  0  0  0  0
   -1.4497    4.4141   11.3256 C   0  0  0  0  0  0  0  0  0  0  0  0
   -0.6386    3.3489   11.6516 C   0  0  0  0  0  0  0  0  0  0  0  0
   -0.0577    2.4773   10.7809 O   0  0  0  0  0  0  0  0  0  0  0  0
   -0.1498    2.4306    9.4068 C   0  0  0  0  0  0  0  0  0  0  0  0
    0.7358    1.4679    8.6894 C   0  0  0  0  0  0  0  0  0  0  0  0
    0.0628    0.1666    8.7256 N   0  0  0  0  0  4  0  0  0  0  0  0
    0.8177   -0.6917    7.7877 C   0  0  0  0  0  0  0  0  0  0  0  0
   -0.1132   -1.7104    7.2446 C   0  0  1  0  0  0  0  0  0  0  0  0
    0.4323   -2.4725    6.0848 C   0  0  0  0  0  0  0  0  0  0  0  0
    1.2855   -3.4392    6.3391 O   0  0  0  0  0  0  0  0  0  0  0  0
    1.9967   -4.4561    5.9159 C   0  0  0  0  0  0  0  0  0  0  0  0
    2.0120   -5.0102    4.6517 C   0  0  0  0  0  0  0  0  0  0  0  0
    2.8139   -6.0826    4.3709 C   0  0  0  0  0  0  0  0  0  0  0  0
    3.6267   -6.6436    5.3311 C   0  0  0  0  0  0  0  0  0  0  0  0
    3.6365   -6.1128    6.6148 C   0  0  0  0  0  0  0  0  0  0  0  0
    2.8471   -5.0605    6.8811 C   0  0  0  0  0  0  0  0  0  0  0  0
    3.0429   -4.7284    8.2185 C   0  0  0  0  0  0  0  0  0  0  0  0
    2.5112   -3.7500    9.0351 C   0  0  0  0  0  0  0  0  0  0  0  0
    2.8855   -3.6413   10.3463 C   0  0  0  0  0  0  0  0  0  0  0  0
    3.8124   -4.5306   10.8526 C   0  0  0  0  0  0  0  0  0  0  0  0
    4.3709   -5.5239   10.0760 C   0  0  0  0  0  0  0  0  0  0  0  0
    3.9804   -5.6220    8.7447 C   0  0  0  0  0  0  0  0  0  0  0  0
    4.3106   -6.4397    7.7399 N   0  0  0  0  0  0  0  0  0  0  0  0
   -0.4999   -2.6336    8.2409 O   0  0  0  0  0  0  0  0  0  0  0  0
  1  2  1  0
  2  3  1  0
  3  4  2  0
  4  5  1  0
  5  6  2  0
  6  7  1  0
  7  8  2  0
  8  9  1  0
  9 10  1  0
 10 11  1  0
 11 12  1  0
 12 13  1  0
 13 14  1  0
 14 15  1  0
 15 16  1  0
 16 17  1  0
 17 18  2  0
 18 19  1  0
 19 20  2  0
 20 21  1  0
 21 22  2  0
 22 23  1  0
 23 24  2  0
 24 25  1  0
 25 26  2  0
 26 27  1  0
 27 28  2  0
 28 29  1  0
 14 30  1  1
  8  3  1  0
 22 17  1  0
 28 23  1  0
 29 21  1  0
M  CHG  1  12   1
M  END
$$$$
