
     RDKit          3D

 30 33  0  0  0  0  0  0  0  0999 V2000
    2.5115    0.3028   13.5221 C   0  0  0  0  0  0  0  0  0  0  0  0
    1.7205    1.0614   12.6267 O   0  0  0  0  0  0  0  0  0  0  0  0
    1.0198    2.1406   13.1492 C   0  0  0  0  0  0  0  0  0  0  0  0
    0.9862    2.4193   14.4956 C   0  0  0  0  0  0  0  0  0  0  0  0
    0.2930    3.4883   15.0216 C   0  0  0  0  0  0  0  0  0  0  0  0
   -0.3965    4.3144   14.1668 C   0  0  0  0  0  0  0  0  0  0  0  0
   -0.3754    4.0480   12.7930 C   0  0  0  0  0  0  0  0  0  0  0  0
    0.3165    2.9814   12.2616 C   0  0  0  0  0  0  0  0  0  0  0  0
    0.3991    2.6453   10.9442 O   0  0  0  0  0  0  0  0  0  0  0  0
   -0.3113    3.1439    9.8740 C   0  0  0  0  0  0  0  0  0  0  0  0
   -0.1639    2.4455    8.5639 C   0  0  0  0  0  0  0  0  0  0  0  0
   -0.5429    1.0473    8.7851 N   0  0  0  0  0  4  0  0  0  0  0  0
    0.4141    0.2505    7.9879 C   0  0  0  0  0  0  0  0  0  0  0  0
    0.0410   -1.1791    8.1146 C   0  0  1  0  0  0  0  0  0  0  0  0
    0.5388   -2.0362    7.0005 C   0  0  0  0  0  0  0  0  0  0  0  0
    1.4323   -2.9548    7.2921 O   0  0  0  0  0  0  0  0  0  0  0  0
    2.1847   -3.5536    8.1832 C   0  0  0  0  0  0  0  0  0  0  0  0
    2.4315   -3.1612    9.4835 C   0  0  0  0  0  0  0  0  0  0  0  0
    3.2526   -3.9006   10.2903 C   0  0  0  0  0  0  0  0  0  0  0  0
    3.8581   -5.0522    9.8380 C   0  0  0  0  0  0  0  0  0  0  0  0
    3.6336   -5.4770    8.5345 C   0  0  0  0  0  0  0  0  0  0  0  0
    2.8263   -4.7458    7.7504 C   0  0  0  0  0  0  0  0  0  0  0  0
    2.7707   -5.3805    6.5130 C   0  0  0  0  0  0  0  0  0  0  0  0
    2.1105   -5.0938    5.3346 C   0  0  0  0  0  0  0  0  0  0  0  0
    2.2312   -5.9049    4.2396 C   0  0  0  0  0  0  0  0  0  0  0  0
    3.0298   -7.0280    4.3247 C   0  0  0  0  0  0  0  0  0  0  0  0
    3.7084   -7.3554    5.4797 C   0  0  0  0  0  0  0  0  0  0  0  0
    3.5759   -6.5211    6.5847 C   0  0  0  0  0  0  0  0  0  0  0  0
    4.0764   -6.5383    7.8242 N   0  0  0  0  0  0  0  0  0  0  0  0
    0.5022   -1.7226    9.3338 O   0  0  0  0  0  0  0  0  0  0  0  0
  1  2  1  0
  2  3  1  0
  3  4  2  0
  4  5  1  0
  5  6  2  0
  6  7  1  0
  7  8  2  0
  8  9  1  0
  9 10  1  0
 10 11  1  0
 11 12  1  0
 12 13  1  0
 13 14  1  0
 14 15  1  0
 15 16  1  0
 16 17  1  0
 17 18  2  0
 18 19  1  0
 19 20  2  0
 20 21  1  0
 21 22  2  0
 22 23  1  0
 23 24  2  0
 24 25  1  0
 25 26  2  0
 26 27  1  0
 27 28  2  0
 28 29  1  0
 14 30  1  1
  8  3  1  0
 22 17  1  0
 28 23  1  0
 29 21  1  0
M  CHG  1  12   1
M  END
$$$$
