
     RDKit          3D

 30 33  0  0  0  0  0  0  0  0999 V2000
   -0.7801    4.5860   15.0499 C   0  0  0  0  0  0  0  0  0  0  0  0
   -0.6493    3.8476   13.8496 O   0  0  0  0  0  0  0  0  0  0  0  0
   -1.4199    4.2473   12.7656 C   0  0  0  0  0  0  0  0  0  0  0  0
   -2.2440    5.3475   12.8090 C   0  0  0  0  0  0  0  0  0  0  0  0
   -3.0118    5.7504   11.7374 C   0  0  0  0  0  0  0  0  0  0  0  0
   -2.9546    5.0234   10.5727 C   0  0  0  0  0  0  0  0  0  0  0  0
   -2.1225    3.8999   10.5079 C   0  0  0  0  0  0  0  0  0  0  0  0
   -1.3522    3.4932   11.5756 C   0  0  0  0  0  0  0  0  0  0  0  0
   -0.5126    2.4211   11.6064 O   0  0  0  0  0  0  0  0  0  0  0  0
    0.1964    1.8427   10.5762 C   0  0  0  0  0  0  0  0  0  0  0  0
   -0.3187    0.5569   10.0221 C   0  0  0  0  0  0  0  0  0  0  0  0
    0.5434    0.2092    8.8892 N   0  0  0  0  0  4  0  0  0  0  0  0
   -0.3162   -0.5590    7.9633 C   0  0  0  0  0  0  0  0  0  0  0  0
    0.4477   -0.7950    6.7144 C   0  0  1  0  0  0  0  0  0  0  0  0
    0.2151   -2.1366    6.1063 C   0  0  0  0  0  0  0  0  0  0  0  0
    1.2656   -2.8941    5.8837 O   0  0  0  0  0  0  0  0  0  0  0  0
    1.7656   -4.0600    5.5523 C   0  0  0  0  0  0  0  0  0  0  0  0
    1.6272   -4.7301    4.3535 C   0  0  0  0  0  0  0  0  0  0  0  0
    2.2127   -5.9527    4.1673 C   0  0  0  0  0  0  0  0  0  0  0  0
    2.9536   -6.5539    5.1607 C   0  0  0  0  0  0  0  0  0  0  0  0
    3.1132   -5.9092    6.3809 C   0  0  0  0  0  0  0  0  0  0  0  0
    2.5359   -4.7101    6.5544 C   0  0  0  0  0  0  0  0  0  0  0  0
    2.8454   -4.2882    7.8442 C   0  0  0  0  0  0  0  0  0  0  0  0
    2.5321   -3.1536    8.5662 C   0  0  0  0  0  0  0  0  0  0  0  0
    2.9763   -2.9853    9.8491 C   0  0  0  0  0  0  0  0  0  0  0  0
    3.7512   -3.9734   10.4230 C   0  0  0  0  0  0  0  0  0  0  0  0
    4.0899   -5.1235    9.7417 C   0  0  0  0  0  0  0  0  0  0  0  0
    3.6309   -5.2804    8.4381 C   0  0  0  0  0  0  0  0  0  0  0  0
    3.7665   -6.2399    7.5171 N   0  0  0  0  0  0  0  0  0  0  0  0
    0.1589    0.1891    5.7436 O   0  0  0  0  0  0  0  0  0  0  0  0
  1  2  1  0
  2  3  1  0
  3  4  2  0
  4  5  1  0
  5  6  2  0
  6  7  1  0
  7  8  2  0
  8  9  1  0
  9 10  1  0
 10 11  1  0
 11 12  1  0
 12 13  1  0
 13 14  1  0
 14 15  1  0
 15 16  1  0
 16 17  1  0
 17 18  2  0
 18 19  1  0
 19 20  2  0
 20 21  1  0
 21 22  2  0
 22 23  1  0
 23 24  2  0
 24 25  1  0
 25 26  2  0
 26 27  1  0
 27 28  2  0
 28 29  1  0
 14 30  1  6
  8  3  1  0
 22 17  1  0
 28 23  1  0
 29 21  1  0
M  CHG  1  12   1
M  END
$$$$
