
     RDKit          3D

 30 33  0  0  0  0  0  0  0  0999 V2000
   -3.9900    0.4217   10.9582 C   0  0  0  0  0  0  0  0  0  0  0  0
   -2.6765    0.9487   10.9647 O   0  0  0  0  0  0  0  0  0  0  0  0
   -2.3770    1.9077   11.9234 C   0  0  0  0  0  0  0  0  0  0  0  0
   -3.3472    2.5459   12.6602 C   0  0  0  0  0  0  0  0  0  0  0  0
   -3.0578    3.4987   13.6133 C   0  0  0  0  0  0  0  0  0  0  0  0
   -1.7432    3.8290   13.8401 C   0  0  0  0  0  0  0  0  0  0  0  0
   -0.7405    3.1914   13.1006 C   0  0  0  0  0  0  0  0  0  0  0  0
   -1.0240    2.2377   12.1474 C   0  0  0  0  0  0  0  0  0  0  0  0
   -0.1205    1.5625   11.3837 O   0  0  0  0  0  0  0  0  0  0  0  0
    1.2561    1.5952   11.4336 C   0  0  0  0  0  0  0  0  0  0  0  0
    2.0015    0.8242   10.3964 C   0  0  0  0  0  0  0  0  0  0  0  0
    1.3845   -0.5035   10.3319 N   0  0  0  0  0  4  0  0  0  0  0  0
    2.4730   -1.4232    9.9375 C   0  0  0  0  0  0  0  0  0  0  0  0
    2.5877   -2.4740   10.9776 C   0  0  1  0  0  0  0  0  0  0  0  0
    3.1068   -3.7759   10.4688 C   0  0  0  0  0  0  0  0  0  0  0  0
    2.7661   -4.1326    9.2507 O   0  0  0  0  0  0  0  0  0  0  0  0
    2.8297   -5.0008    8.2703 C   0  0  0  0  0  0  0  0  0  0  0  0
    3.4188   -6.2492    8.2824 C   0  0  0  0  0  0  0  0  0  0  0  0
    3.4034   -7.0375    7.1643 C   0  0  0  0  0  0  0  0  0  0  0  0
    2.8059   -6.6174    5.9964 C   0  0  0  0  0  0  0  0  0  0  0  0
    2.2040   -5.3663    5.9471 C   0  0  0  0  0  0  0  0  0  0  0  0
    2.2234   -4.6000    7.0488 C   0  0  0  0  0  0  0  0  0  0  0  0
    1.5625   -3.4156    6.7367 C   0  0  0  0  0  0  0  0  0  0  0  0
    1.2776   -2.2752    7.4614 C   0  0  0  0  0  0  0  0  0  0  0  0
    0.5962   -1.2305    6.8994 C   0  0  0  0  0  0  0  0  0  0  0  0
    0.1905   -1.3282    5.5832 C   0  0  0  0  0  0  0  0  0  0  0  0
    0.4518   -2.4465    4.8199 C   0  0  0  0  0  0  0  0  0  0  0  0
    1.1455   -3.5005    5.4051 C   0  0  0  0  0  0  0  0  0  0  0  0
    1.5551   -4.6960    4.9690 N   0  0  0  0  0  0  0  0  0  0  0  0
    3.4131   -2.0521   12.0430 O   0  0  0  0  0  0  0  0  0  0  0  0
  1  2  1  0
  2  3  1  0
  3  4  2  0
  4  5  1  0
  5  6  2  0
  6  7  1  0
  7  8  2  0
  8  9  1  0
  9 10  1  0
 10 11  1  0
 11 12  1  0
 12 13  1  0
 13 14  1  0
 14 15  1  0
 15 16  1  0
 16 17  1  0
 17 18  2  0
 18 19  1  0
 19 20  2  0
 20 21  1  0
 21 22  2  0
 22 23  1  0
 23 24  2  0
 24 25  1  0
 25 26  2  0
 26 27  1  0
 27 28  2  0
 28 29  1  0
 14 30  1  1
  8  3  1  0
 22 17  1  0
 28 23  1  0
 29 21  1  0
M  CHG  1  12   1
M  END
$$$$
