
     RDKit          3D

 30 33  0  0  0  0  0  0  0  0999 V2000
    0.1948    4.8244   12.0118 C   0  0  0  0  0  0  0  0  0  0  0  0
    0.0062    3.4381   11.7980 O   0  0  0  0  0  0  0  0  0  0  0  0
   -0.3329    2.6617   12.8983 C   0  0  0  0  0  0  0  0  0  0  0  0
   -0.1988    3.1114   14.1911 C   0  0  0  0  0  0  0  0  0  0  0  0
   -0.5330    2.3467   15.2882 C   0  0  0  0  0  0  0  0  0  0  0  0
   -1.0217    1.0783   15.0859 C   0  0  0  0  0  0  0  0  0  0  0  0
   -1.1655    0.6014   13.7780 C   0  0  0  0  0  0  0  0  0  0  0  0
   -0.8338    1.3617   12.6777 C   0  0  0  0  0  0  0  0  0  0  0  0
   -0.9421    0.9877   11.3725 O   0  0  0  0  0  0  0  0  0  0  0  0
   -1.3592   -0.2150   10.8450 C   0  0  0  0  0  0  0  0  0  0  0  0
   -1.5212   -0.2987    9.3642 C   0  0  0  0  0  0  0  0  0  0  0  0
   -0.1873   -0.1250    8.7826 N   0  0  0  0  0  4  0  0  0  0  0  0
   -0.0178   -1.2557    7.8450 C   0  0  0  0  0  0  0  0  0  0  0  0
    0.7415   -0.7683    6.6682 C   0  0  1  0  0  0  0  0  0  0  0  0
    0.9515   -1.8007    5.6128 C   0  0  0  0  0  0  0  0  0  0  0  0
    1.4866   -2.9440    5.9780 O   0  0  0  0  0  0  0  0  0  0  0  0
    1.8816   -4.1549    5.6669 C   0  0  0  0  0  0  0  0  0  0  0  0
    1.7380   -4.8076    4.4590 C   0  0  0  0  0  0  0  0  0  0  0  0
    2.2046   -6.0835    4.2970 C   0  0  0  0  0  0  0  0  0  0  0  0
    2.8279   -6.7571    5.3242 C   0  0  0  0  0  0  0  0  0  0  0  0
    2.9890   -6.1319    6.5543 C   0  0  0  0  0  0  0  0  0  0  0  0
    2.5287   -4.8800    6.7040 C   0  0  0  0  0  0  0  0  0  0  0  0
    2.8125   -4.4917    8.0101 C   0  0  0  0  0  0  0  0  0  0  0  0
    2.5794   -3.3310    8.7209 C   0  0  0  0  0  0  0  0  0  0  0  0
    2.9714   -3.2087   10.0258 C   0  0  0  0  0  0  0  0  0  0  0  0
    3.6108   -4.2707   10.6338 C   0  0  0  0  0  0  0  0  0  0  0  0
    3.8653   -5.4495    9.9649 C   0  0  0  0  0  0  0  0  0  0  0  0
    3.4609   -5.5589    8.6386 C   0  0  0  0  0  0  0  0  0  0  0  0
    3.5455   -6.5274    7.7209 N   0  0  0  0  0  0  0  0  0  0  0  0
    0.1101    0.3486    6.0781 O   0  0  0  0  0  0  0  0  0  0  0  0
  1  2  1  0
  2  3  1  0
  3  4  2  0
  4  5  1  0
  5  6  2  0
  6  7  1  0
  7  8  2  0
  8  9  1  0
  9 10  1  0
 10 11  1  0
 11 12  1  0
 12 13  1  0
 13 14  1  0
 14 15  1  0
 15 16  1  0
 16 17  1  0
 17 18  2  0
 18 19  1  0
 19 20  2  0
 20 21  1  0
 21 22  2  0
 22 23  1  0
 23 24  2  0
 24 25  1  0
 25 26  2  0
 26 27  1  0
 27 28  2  0
 28 29  1  0
 14 30  1  6
  8  3  1  0
 22 17  1  0
 28 23  1  0
 29 21  1  0
M  CHG  1  12   1
M  END
$$$$
