
     RDKit          3D

 30 33  0  0  0  0  0  0  0  0999 V2000
   -3.6030    3.8240   14.0088 C   0  0  0  0  0  0  0  0  0  0  0  0
   -2.9353    3.6527   12.7728 O   0  0  0  0  0  0  0  0  0  0  0  0
   -2.7931    4.7714   11.9623 C   0  0  0  0  0  0  0  0  0  0  0  0
   -3.4653    5.9475   12.1997 C   0  0  0  0  0  0  0  0  0  0  0  0
   -3.3294    7.0619   11.3999 C   0  0  0  0  0  0  0  0  0  0  0  0
   -2.4866    6.9992   10.3162 C   0  0  0  0  0  0  0  0  0  0  0  0
   -1.7935    5.8114   10.0568 C   0  0  0  0  0  0  0  0  0  0  0  0
   -1.9248    4.6947   10.8534 C   0  0  0  0  0  0  0  0  0  0  0  0
   -1.2917    3.5006   10.6846 O   0  0  0  0  0  0  0  0  0  0  0  0
   -0.5294    3.0637    9.6231 C   0  0  0  0  0  0  0  0  0  0  0  0
    0.0718    1.7018    9.7212 C   0  0  0  0  0  0  0  0  0  0  0  0
   -0.4252    0.9367    8.5743 N   0  0  0  0  0  4  0  0  0  0  0  0
   -0.5766   -0.4503    9.0639 C   0  0  0  0  0  0  0  0  0  0  0  0
   -0.5678   -1.3566    7.8902 C   0  0  1  0  0  0  0  0  0  0  0  0
    0.7775   -1.5345    7.2722 C   0  0  0  0  0  0  0  0  0  0  0  0
    1.4265   -2.6461    7.5370 O   0  0  0  0  0  0  0  0  0  0  0  0
    1.6355   -3.6683    8.3311 C   0  0  0  0  0  0  0  0  0  0  0  0
    1.5371   -3.7046    9.7075 C   0  0  0  0  0  0  0  0  0  0  0  0
    1.7957   -4.8594   10.3941 C   0  0  0  0  0  0  0  0  0  0  0  0
    2.1613   -6.0167    9.7427 C   0  0  0  0  0  0  0  0  0  0  0  0
    2.2716   -6.0171    8.3579 C   0  0  0  0  0  0  0  0  0  0  0  0
    2.0155   -4.8800    7.6926 C   0  0  0  0  0  0  0  0  0  0  0  0
    2.1957   -5.1471    6.3385 C   0  0  0  0  0  0  0  0  0  0  0  0
    2.0760   -4.3741    5.2005 C   0  0  0  0  0  0  0  0  0  0  0  0
    2.3168   -4.8980    3.9600 C   0  0  0  0  0  0  0  0  0  0  0  0
    2.6856   -6.2244    3.8547 C   0  0  0  0  0  0  0  0  0  0  0  0
    2.8180   -7.0353    4.9622 C   0  0  0  0  0  0  0  0  0  0  0  0
    2.5698   -6.4885    6.2168 C   0  0  0  0  0  0  0  0  0  0  0  0
    2.6027   -6.9737    7.4621 N   0  0  0  0  0  0  0  0  0  0  0  0
   -1.0759   -2.6313    8.2237 O   0  0  0  0  0  0  0  0  0  0  0  0
  1  2  1  0
  2  3  1  0
  3  4  2  0
  4  5  1  0
  5  6  2  0
  6  7  1  0
  7  8  2  0
  8  9  1  0
  9 10  1  0
 10 11  1  0
 11 12  1  0
 12 13  1  0
 13 14  1  0
 14 15  1  0
 15 16  1  0
 16 17  1  0
 17 18  2  0
 18 19  1  0
 19 20  2  0
 20 21  1  0
 21 22  2  0
 22 23  1  0
 23 24  2  0
 24 25  1  0
 25 26  2  0
 26 27  1  0
 27 28  2  0
 28 29  1  0
 14 30  1  1
  8  3  1  0
 22 17  1  0
 28 23  1  0
 29 21  1  0
M  CHG  1  12   1
M  END
$$$$
