
     RDKit          3D

 30 33  0  0  0  0  0  0  0  0999 V2000
   -2.3551    2.8166   14.7631 C   0  0  0  0  0  0  0  0  0  0  0  0
   -1.4283    2.2263   13.8712 O   0  0  0  0  0  0  0  0  0  0  0  0
   -1.1504    2.9082   12.6938 C   0  0  0  0  0  0  0  0  0  0  0  0
   -1.7844    4.0791   12.3494 C   0  0  0  0  0  0  0  0  0  0  0  0
   -1.5141    4.7616   11.1827 C   0  0  0  0  0  0  0  0  0  0  0  0
   -0.5706    4.2529   10.3226 C   0  0  0  0  0  0  0  0  0  0  0  0
    0.0858    3.0622   10.6542 C   0  0  0  0  0  0  0  0  0  0  0  0
   -0.1797    2.3764   11.8195 C   0  0  0  0  0  0  0  0  0  0  0  0
    0.4077    1.2176   12.2289 O   0  0  0  0  0  0  0  0  0  0  0  0
    0.5706    0.0354   11.5401 C   0  0  0  0  0  0  0  0  0  0  0  0
   -0.3508   -0.2283   10.3967 C   0  0  0  0  0  0  0  0  0  0  0  0
    0.4540   -0.1368    9.1754 N   0  0  0  0  0  4  0  0  0  0  0  0
   -0.2369   -0.9905    8.1854 C   0  0  0  0  0  0  0  0  0  0  0  0
    0.4179   -0.7923    6.8697 C   0  0  1  0  0  0  0  0  0  0  0  0
    0.2486   -1.9378    5.9301 C   0  0  0  0  0  0  0  0  0  0  0  0
    1.1918   -2.8526    5.9098 O   0  0  0  0  0  0  0  0  0  0  0  0
    1.6350   -4.0061    5.4716 C   0  0  0  0  0  0  0  0  0  0  0  0
    1.5306   -4.5234    4.1960 C   0  0  0  0  0  0  0  0  0  0  0  0
    2.0459   -5.7558    3.8998 C   0  0  0  0  0  0  0  0  0  0  0  0
    2.6807   -6.5183    4.8553 C   0  0  0  0  0  0  0  0  0  0  0  0
    2.8034   -6.0301    6.1501 C   0  0  0  0  0  0  0  0  0  0  0  0
    2.2955   -4.8201    6.4315 C   0  0  0  0  0  0  0  0  0  0  0  0
    2.5484   -4.5715    7.7774 C   0  0  0  0  0  0  0  0  0  0  0  0
    2.2639   -3.5071    8.6097 C   0  0  0  0  0  0  0  0  0  0  0  0
    2.6349   -3.5186    9.9264 C   0  0  0  0  0  0  0  0  0  0  0  0
    3.3053   -4.6191   10.4221 C   0  0  0  0  0  0  0  0  0  0  0  0
    3.6115   -5.7054    9.6297 C   0  0  0  0  0  0  0  0  0  0  0  0
    3.2279   -5.6791    8.2930 C   0  0  0  0  0  0  0  0  0  0  0  0
    3.3595   -6.5346    7.2742 N   0  0  0  0  0  0  0  0  0  0  0  0
   -0.0534    0.3774    6.2341 O   0  0  0  0  0  0  0  0  0  0  0  0
  1  2  1  0
  2  3  1  0
  3  4  2  0
  4  5  1  0
  5  6  2  0
  6  7  1  0
  7  8  2  0
  8  9  1  0
  9 10  1  0
 10 11  1  0
 11 12  1  0
 12 13  1  0
 13 14  1  0
 14 15  1  0
 15 16  1  0
 16 17  1  0
 17 18  2  0
 18 19  1  0
 19 20  2  0
 20 21  1  0
 21 22  2  0
 22 23  1  0
 23 24  2  0
 24 25  1  0
 25 26  2  0
 26 27  1  0
 27 28  2  0
 28 29  1  0
 14 30  1  6
  8  3  1  0
 22 17  1  0
 28 23  1  0
 29 21  1  0
M  CHG  1  12   1
M  END
$$$$
