
     RDKit          3D

 30 33  0  0  0  0  0  0  0  0999 V2000
   -0.7962    5.0027   12.4588 C   0  0  0  0  0  0  0  0  0  0  0  0
   -0.0009    3.9549   11.9366 O   0  0  0  0  0  0  0  0  0  0  0  0
    0.5368    3.0486   12.8410 C   0  0  0  0  0  0  0  0  0  0  0  0
    0.9294    3.4118   14.1081 C   0  0  0  0  0  0  0  0  0  0  0  0
    1.4639    2.5181   15.0112 C   0  0  0  0  0  0  0  0  0  0  0  0
    1.6133    1.2054   14.6329 C   0  0  0  0  0  0  0  0  0  0  0  0
    1.2203    0.8152   13.3476 C   0  0  0  0  0  0  0  0  0  0  0  0
    0.6846    1.7040   12.4411 C   0  0  0  0  0  0  0  0  0  0  0  0
    0.2709    1.4189   11.1751 O   0  0  0  0  0  0  0  0  0  0  0  0
    0.1630    0.1951   10.5511 C   0  0  0  0  0  0  0  0  0  0  0  0
   -0.7530    0.0986    9.3775 C   0  0  0  0  0  0  0  0  0  0  0  0
    0.0756    0.2630    8.1799 N   0  0  0  0  0  4  0  0  0  0  0  0
   -0.3811   -0.7832    7.2402 C   0  0  0  0  0  0  0  0  0  0  0  0
    0.5710   -0.8294    6.1042 C   0  0  1  0  0  0  0  0  0  0  0  0
    0.5367   -2.1074    5.3366 C   0  0  0  0  0  0  0  0  0  0  0  0
    1.4101   -3.0347    5.6596 O   0  0  0  0  0  0  0  0  0  0  0  0
    1.9733   -4.1911    5.4056 C   0  0  0  0  0  0  0  0  0  0  0  0
    1.9168   -4.9209    4.2352 C   0  0  0  0  0  0  0  0  0  0  0  0
    2.5612   -6.1235    4.1325 C   0  0  0  0  0  0  0  0  0  0  0  0
    3.2821   -6.6452    5.1839 C   0  0  0  0  0  0  0  0  0  0  0  0
    3.3599   -5.9389    6.3776 C   0  0  0  0  0  0  0  0  0  0  0  0
    2.7252   -4.7599    6.4693 C   0  0  0  0  0  0  0  0  0  0  0  0
    2.9590   -4.2661    7.7494 C   0  0  0  0  0  0  0  0  0  0  0  0
    2.5661   -3.1148    8.4027 C   0  0  0  0  0  0  0  0  0  0  0  0
    2.9454   -2.8684    9.6937 C   0  0  0  0  0  0  0  0  0  0  0  0
    3.7352   -3.7939   10.3464 C   0  0  0  0  0  0  0  0  0  0  0  0
    4.1523   -4.9577    9.7355 C   0  0  0  0  0  0  0  0  0  0  0  0
    3.7587   -5.1943    8.4226 C   0  0  0  0  0  0  0  0  0  0  0  0
    3.9756   -6.1879    7.5549 N   0  0  0  0  0  0  0  0  0  0  0  0
    0.3466    0.2357    5.2044 O   0  0  0  0  0  0  0  0  0  0  0  0
  1  2  1  0
  2  3  1  0
  3  4  2  0
  4  5  1  0
  5  6  2  0
  6  7  1  0
  7  8  2  0
  8  9  1  0
  9 10  1  0
 10 11  1  0
 11 12  1  0
 12 13  1  0
 13 14  1  0
 14 15  1  0
 15 16  1  0
 16 17  1  0
 17 18  2  0
 18 19  1  0
 19 20  2  0
 20 21  1  0
 21 22  2  0
 22 23  1  0
 23 24  2  0
 24 25  1  0
 25 26  2  0
 26 27  1  0
 27 28  2  0
 28 29  1  0
 14 30  1  6
  8  3  1  0
 22 17  1  0
 28 23  1  0
 29 21  1  0
M  CHG  1  12   1
M  END
$$$$
