
     RDKit          3D

 30 33  0  0  0  0  0  0  0  0999 V2000
    4.1682    0.6376   12.0644 C   0  0  0  0  0  0  0  0  0  0  0  0
    2.7677    0.4573   11.9687 O   0  0  0  0  0  0  0  0  0  0  0  0
    1.9747    1.0956   12.9133 C   0  0  0  0  0  0  0  0  0  0  0  0
    2.5025    1.7559   13.9982 C   0  0  0  0  0  0  0  0  0  0  0  0
    1.7220    2.3917   14.9399 C   0  0  0  0  0  0  0  0  0  0  0  0
    0.3559    2.3667   14.7923 C   0  0  0  0  0  0  0  0  0  0  0  0
   -0.2013    1.6998   13.6953 C   0  0  0  0  0  0  0  0  0  0  0  0
    0.5741    1.0634   12.7505 C   0  0  0  0  0  0  0  0  0  0  0  0
    0.1256    0.3950   11.6517 O   0  0  0  0  0  0  0  0  0  0  0  0
   -0.8822    0.7382   10.7770 C   0  0  0  0  0  0  0  0  0  0  0  0
   -1.2765   -0.2700    9.7504 C   0  0  0  0  0  0  0  0  0  0  0  0
   -0.0833   -0.5409    8.9439 N   0  0  0  0  0  4  0  0  0  0  0  0
   -0.5790   -0.7428    7.5656 C   0  0  0  0  0  0  0  0  0  0  0  0
    0.5876   -1.0176    6.6922 C   0  0  1  0  0  0  0  0  0  0  0  0
    0.4711   -2.2787    5.9050 C   0  0  0  0  0  0  0  0  0  0  0  0
    1.4722   -3.1280    5.9649 O   0  0  0  0  0  0  0  0  0  0  0  0
    1.9929   -4.2832    5.6283 C   0  0  0  0  0  0  0  0  0  0  0  0
    1.9649   -4.8958    4.3916 C   0  0  0  0  0  0  0  0  0  0  0  0
    2.5563   -6.1154    4.2049 C   0  0  0  0  0  0  0  0  0  0  0  0
    3.1942   -6.7705    5.2351 C   0  0  0  0  0  0  0  0  0  0  0  0
    3.2411   -6.1845    6.4938 C   0  0  0  0  0  0  0  0  0  0  0  0
    2.6588   -4.9879    6.6676 C   0  0  0  0  0  0  0  0  0  0  0  0
    2.8467   -4.6294    7.9994 C   0  0  0  0  0  0  0  0  0  0  0  0
    2.4741   -3.5256    8.7407 C   0  0  0  0  0  0  0  0  0  0  0  0
    2.7948   -3.4218   10.0665 C   0  0  0  0  0  0  0  0  0  0  0  0
    3.5037   -4.4445   10.6647 C   0  0  0  0  0  0  0  0  0  0  0  0
    3.8975   -5.5659    9.9655 C   0  0  0  0  0  0  0  0  0  0  0  0
    3.5642   -5.6573    8.6182 C   0  0  0  0  0  0  0  0  0  0  0  0
    3.7802   -6.5749    7.6703 N   0  0  0  0  0  0  0  0  0  0  0  0
    0.8170    0.0476    5.7939 O   0  0  0  0  0  0  0  0  0  0  0  0
  1  2  1  0
  2  3  1  0
  3  4  2  0
  4  5  1  0
  5  6  2  0
  6  7  1  0
  7  8  2  0
  8  9  1  0
  9 10  1  0
 10 11  1  0
 11 12  1  0
 12 13  1  0
 13 14  1  0
 14 15  1  0
 15 16  1  0
 16 17  1  0
 17 18  2  0
 18 19  1  0
 19 20  2  0
 20 21  1  0
 21 22  2  0
 22 23  1  0
 23 24  2  0
 24 25  1  0
 25 26  2  0
 26 27  1  0
 27 28  2  0
 28 29  1  0
 14 30  1  6
  8  3  1  0
 22 17  1  0
 28 23  1  0
 29 21  1  0
M  CHG  1  12   1
M  END
$$$$
