
     RDKit          3D

 37 40  0  0  0  0  0  0  0  0999 V2000
   13.3784    3.0938  -17.0392 O   0  0  0  0  0  1  0  0  0  0  0  0
   12.2340    2.7210  -16.3206 C   0  0  0  0  0  0  0  0  0  0  0  0
   11.8307    1.5403  -16.4300 O   0  0  0  0  0  0  0  0  0  0  0  0
   11.5186    3.6811  -15.4624 C   0  0  0  0  0  0  0  0  0  0  0  0
   10.4912    2.9997  -14.5675 C   0  0  2  0  0  0  0  0  0  0  0  0
    9.2115    3.7670  -14.6165 C   0  0  0  0  0  0  0  0  0  0  0  0
    9.2105    4.5412  -13.4593 O   0  0  0  0  0  0  0  0  0  0  0  0
   10.1060    3.9948  -12.5348 C   0  0  0  0  0  0  0  0  0  0  0  0
   10.8915    3.0594  -13.1519 C   0  0  0  0  0  0  0  0  0  0  0  0
   11.8441    2.4002  -12.4061 C   0  0  0  0  0  0  0  0  0  0  0  0
   12.0351    2.6460  -11.0730 C   0  0  0  0  0  0  0  0  0  0  0  0
   11.2436    3.6062  -10.3993 C   0  0  0  0  0  0  0  0  0  0  0  0
   10.3063    4.2373  -11.1840 C   0  0  0  0  0  0  0  0  0  0  0  0
   11.4574    3.8274   -9.0865 O   0  0  0  0  0  0  0  0  0  0  0  0
   12.2468    3.3722   -8.1034 C   0  0  0  0  0  0  0  0  0  0  0  0
   12.1476    4.0050   -6.7581 C   0  0  0  0  0  0  0  0  0  0  0  0
   12.5449    5.2832   -6.4622 C   0  0  0  0  0  0  0  0  0  0  0  0
   12.4318    5.8468   -5.2052 C   0  0  0  0  0  0  0  0  0  0  0  0
   11.8974    5.1147   -4.1781 C   0  0  0  0  0  0  0  0  0  0  0  0
   11.4803    3.8283   -4.4070 C   0  0  0  0  0  0  0  0  0  0  0  0
   11.6106    3.2948   -5.6850 C   0  0  0  0  0  0  0  0  0  0  0  0
   10.8930    2.9992   -3.3662 C   0  0  0  0  0  0  0  0  0  0  0  0
   11.6952    2.4667   -2.3949 C   0  0  0  0  0  0  0  0  0  0  0  0
   13.1483    2.7558   -2.4592 C   0  0  0  0  0  0  0  0  0  0  0  0
   11.1456    1.6737   -1.3776 C   0  0  0  0  0  0  0  0  0  0  0  0
    9.7876    1.4080   -1.3277 C   0  0  0  0  0  0  0  0  0  0  0  0
    8.9927    1.9661   -2.3356 C   0  0  0  0  0  0  0  0  0  0  0  0
    9.5512    2.7338   -3.3123 C   0  0  0  0  0  0  0  0  0  0  0  0
    8.6904    3.3326   -4.3924 C   0  0  0  0  0  0  0  0  0  0  0  0
    9.2150    0.6442   -0.3598 O   0  0  0  0  0  0  0  0  0  0  0  0
    9.7468   -0.1661    0.5919 C   0  0  0  0  0  0  0  0  0  0  0  0
    8.8178   -0.8930    1.5092 C   0  0  0  0  0  0  0  0  0  0  0  0
    8.4961   -2.2542    0.9158 C   0  0  0  0  0  0  0  0  0  0  0  0
    8.2810   -3.4279    2.2462 S   0  0  0  0  0  6  0  0  0  0  0  0
    9.5844   -3.7035    2.9406 O   0  0  0  0  0  0  0  0  0  0  0  0
    7.7537   -4.7008    1.6491 O   0  0  0  0  0  0  0  0  0  0  0  0
    7.0702   -2.7864    3.3665 C   0  0  0  0  0  0  0  0  0  0  0  0
  1  2  1  0
  2  3  2  0
  2  4  1  0
  5  4  1  6
  5  6  1  0
  6  7  1  0
  7  8  1  0
  8  9  2  0
  9 10  1  0
 10 11  2  0
 11 12  1  0
 12 13  2  0
 12 14  1  0
 14 15  1  0
 15 16  1  0
 16 17  2  0
 17 18  1  0
 18 19  2  0
 19 20  1  0
 20 21  2  0
 20 22  1  0
 22 23  2  0
 23 24  1  0
 23 25  1  0
 25 26  2  0
 26 27  1  0
 27 28  2  0
 28 29  1  0
 26 30  1  0
 30 31  1  0
 31 32  1  0
 32 33  1  0
 33 34  1  0
 34 35  2  0
 34 36  2  0
 34 37  1  0
  9  5  1  0
 21 16  1  0
 28 22  1  0
 13  8  1  0
M  CHG  1   1  -1
M  END
$$$$
