
     RDKit          3D

 37 40  0  0  0  0  0  0  0  0999 V2000
    8.3931    3.6826  -17.3980 O   0  0  0  0  0  1  0  0  0  0  0  0
    9.5791    3.5885  -16.6566 C   0  0  0  0  0  0  0  0  0  0  0  0
   10.6549    3.8739  -17.2311 O   0  0  0  0  0  0  0  0  0  0  0  0
    9.5720    3.1655  -15.2456 C   0  0  0  0  0  0  0  0  0  0  0  0
   10.9795    2.9897  -14.6897 C   0  0  2  0  0  0  0  0  0  0  0  0
   11.3817    1.5576  -14.8150 C   0  0  0  0  0  0  0  0  0  0  0  0
   11.1760    1.0129  -13.5503 O   0  0  0  0  0  0  0  0  0  0  0  0
   11.1293    2.0415  -12.6043 C   0  0  0  0  0  0  0  0  0  0  0  0
   11.0184    3.2480  -13.2407 C   0  0  0  0  0  0  0  0  0  0  0  0
   10.9585    4.3943  -12.4788 C   0  0  0  0  0  0  0  0  0  0  0  0
   11.0046    4.3721  -11.1107 C   0  0  0  0  0  0  0  0  0  0  0  0
   11.1182    3.1446  -10.4160 C   0  0  0  0  0  0  0  0  0  0  0  0
   11.1754    2.0284  -11.2182 C   0  0  0  0  0  0  0  0  0  0  0  0
   11.1588    3.1555   -9.0683 O   0  0  0  0  0  0  0  0  0  0  0  0
   11.0666    4.0390   -8.0644 C   0  0  0  0  0  0  0  0  0  0  0  0
   11.0392    3.5283   -6.6650 C   0  0  0  0  0  0  0  0  0  0  0  0
    9.9359    3.0023   -6.0443 C   0  0  0  0  0  0  0  0  0  0  0  0
    9.9432    2.5274   -4.7462 C   0  0  0  0  0  0  0  0  0  0  0  0
   11.1000    2.5703   -4.0138 C   0  0  0  0  0  0  0  0  0  0  0  0
   12.2403    3.0851   -4.5757 C   0  0  0  0  0  0  0  0  0  0  0  0
   12.1943    3.5541   -5.8844 C   0  0  0  0  0  0  0  0  0  0  0  0
   13.5049    3.1497   -3.8601 C   0  0  0  0  0  0  0  0  0  0  0  0
   14.3939    2.1159   -3.9667 C   0  0  0  0  0  0  0  0  0  0  0  0
   14.0131    0.9571   -4.8101 C   0  0  0  0  0  0  0  0  0  0  0  0
   15.6224    2.1650   -3.2925 C   0  0  0  0  0  0  0  0  0  0  0  0
   15.9677    3.2508   -2.5057 C   0  0  0  0  0  0  0  0  0  0  0  0
   15.0372    4.2926   -2.4156 C   0  0  0  0  0  0  0  0  0  0  0  0
   13.8510    4.2208   -3.0812 C   0  0  0  0  0  0  0  0  0  0  0  0
   12.8554    5.3456   -2.9815 C   0  0  0  0  0  0  0  0  0  0  0  0
   17.1472    3.3376   -1.8355 O   0  0  0  0  0  0  0  0  0  0  0  0
   17.7698    4.3777   -1.2226 C   0  0  0  0  0  0  0  0  0  0  0  0
   19.2462    4.2971   -1.0065 C   0  0  0  0  0  0  0  0  0  0  0  0
   19.9560    5.0011   -2.1506 C   0  0  0  0  0  0  0  0  0  0  0  0
   21.4459    4.0980   -2.5489 S   0  0  0  0  0  6  0  0  0  0  0  0
   21.4408    2.7376   -1.9113 O   0  0  0  0  0  0  0  0  0  0  0  0
   22.6107    4.8898   -2.0282 O   0  0  0  0  0  0  0  0  0  0  0  0
   21.5796    3.9900   -4.3104 C   0  0  0  0  0  0  0  0  0  0  0  0
  1  2  1  0
  2  3  2  0
  2  4  1  0
  5  4  1  1
  5  6  1  0
  6  7  1  0
  7  8  1  0
  8  9  2  0
  9 10  1  0
 10 11  2  0
 11 12  1  0
 12 13  2  0
 12 14  1  0
 14 15  1  0
 15 16  1  0
 16 17  2  0
 17 18  1  0
 18 19  2  0
 19 20  1  0
 20 21  2  0
 20 22  1  0
 22 23  2  0
 23 24  1  0
 23 25  1  0
 25 26  2  0
 26 27  1  0
 27 28  2  0
 28 29  1  0
 26 30  1  0
 30 31  1  0
 31 32  1  0
 32 33  1  0
 33 34  1  0
 34 35  2  0
 34 36  2  0
 34 37  1  0
  9  5  1  0
 21 16  1  0
 28 22  1  0
 13  8  1  0
M  CHG  1   1  -1
M  END
$$$$
