
     RDKit          3D

 37 40  0  0  0  0  0  0  0  0999 V2000
  -19.1792    7.2935  -19.2991 O   0  0  0  0  0  1  0  0  0  0  0  0
  -17.9257    7.1818  -19.9165 C   0  0  0  0  0  0  0  0  0  0  0  0
  -17.8056    7.6171  -21.0848 O   0  0  0  0  0  0  0  0  0  0  0  0
  -16.7789    6.5704  -19.2228 C   0  0  0  0  0  0  0  0  0  0  0  0
  -16.1385    5.4557  -20.0403 C   0  0  2  0  0  0  0  0  0  0  0  0
  -17.1812    4.4501  -20.4011 C   0  0  0  0  0  0  0  0  0  0  0  0
  -17.0170    3.4152  -19.4843 O   0  0  0  0  0  0  0  0  0  0  0  0
  -15.7376    3.4895  -18.9252 C   0  0  0  0  0  0  0  0  0  0  0  0
  -15.1675    4.6938  -19.2376 C   0  0  0  0  0  0  0  0  0  0  0  0
  -13.8969    4.9630  -18.7778 C   0  0  0  0  0  0  0  0  0  0  0  0
  -13.1844    4.0727  -18.0203 C   0  0  0  0  0  0  0  0  0  0  0  0
  -13.7394    2.8176  -17.6756 C   0  0  0  0  0  0  0  0  0  0  0  0
  -15.0084    2.5937  -18.1574 C   0  0  0  0  0  0  0  0  0  0  0  0
  -13.0135    1.9634  -16.9262 O   0  0  0  0  0  0  0  0  0  0  0  0
  -12.8921    0.6419  -16.7370 C   0  0  0  0  0  0  0  0  0  0  0  0
  -12.6607    0.1376  -15.3542 C   0  0  0  0  0  0  0  0  0  0  0  0
  -11.4695    0.2166  -14.6805 C   0  0  0  0  0  0  0  0  0  0  0  0
  -11.2872   -0.2525  -13.3931 C   0  0  0  0  0  0  0  0  0  0  0  0
  -12.3342   -0.8325  -12.7269 C   0  0  0  0  0  0  0  0  0  0  0  0
  -13.5538   -0.9430  -13.3445 C   0  0  0  0  0  0  0  0  0  0  0  0
  -13.6991   -0.4600  -14.6409 C   0  0  0  0  0  0  0  0  0  0  0  0
  -14.7105   -1.5361  -12.6919 C   0  0  0  0  0  0  0  0  0  0  0  0
  -15.4448   -0.7899  -11.8117 C   0  0  0  0  0  0  0  0  0  0  0  0
  -15.0112    0.6044  -11.5534 C   0  0  0  0  0  0  0  0  0  0  0  0
  -16.5692   -1.3413  -11.1810 C   0  0  0  0  0  0  0  0  0  0  0  0
  -16.9646   -2.6451  -11.4274 C   0  0  0  0  0  0  0  0  0  0  0  0
  -16.1930   -3.3836  -12.3322 C   0  0  0  0  0  0  0  0  0  0  0  0
  -15.1056   -2.8244  -12.9324 C   0  0  0  0  0  0  0  0  0  0  0  0
  -14.2811   -3.6236  -13.9058 C   0  0  0  0  0  0  0  0  0  0  0  0
  -18.0469   -3.2176  -10.8369 O   0  0  0  0  0  0  0  0  0  0  0  0
  -18.7275   -2.9167   -9.7005 C   0  0  0  0  0  0  0  0  0  0  0  0
  -19.8766   -3.7869   -9.3066 C   0  0  0  0  0  0  0  0  0  0  0  0
  -19.6031   -4.3824   -7.9358 C   0  0  0  0  0  0  0  0  0  0  0  0
  -20.6411   -5.8202   -7.7133 S   0  0  0  0  0  6  0  0  0  0  0  0
  -21.8934   -5.7160   -8.5366 O   0  0  0  0  0  0  0  0  0  0  0  0
  -21.0042   -5.8982   -6.2583 O   0  0  0  0  0  0  0  0  0  0  0  0
  -19.7013   -7.2586   -8.1380 C   0  0  0  0  0  0  0  0  0  0  0  0
  1  2  1  0
  2  3  2  0
  2  4  1  0
  5  4  1  1
  5  6  1  0
  6  7  1  0
  7  8  1  0
  8  9  2  0
  9 10  1  0
 10 11  2  0
 11 12  1  0
 12 13  2  0
 12 14  1  0
 14 15  1  0
 15 16  1  0
 16 17  2  0
 17 18  1  0
 18 19  2  0
 19 20  1  0
 20 21  2  0
 20 22  1  0
 22 23  2  0
 23 24  1  0
 23 25  1  0
 25 26  2  0
 26 27  1  0
 27 28  2  0
 28 29  1  0
 26 30  1  0
 30 31  1  0
 31 32  1  0
 32 33  1  0
 33 34  1  0
 34 35  2  0
 34 36  2  0
 34 37  1  0
  9  5  1  0
 21 16  1  0
 28 22  1  0
 13  8  1  0
M  CHG  1   1  -1
M  END
$$$$
