
     RDKit          3D

 37 40  0  0  0  0  0  0  0  0999 V2000
    2.7412   -0.1958   13.4333 O   0  0  0  0  0  1  0  0  0  0  0  0
    3.6650   -0.7249   12.5213 C   0  0  0  0  0  0  0  0  0  0  0  0
    4.8030   -0.2044   12.4693 O   0  0  0  0  0  0  0  0  0  0  0  0
    3.3175   -1.8564   11.6444 C   0  0  0  0  0  0  0  0  0  0  0  0
    4.4162   -2.1609   10.6339 C   0  0  2  0  0  0  0  0  0  0  0  0
    3.9187   -1.8542    9.2602 C   0  0  0  0  0  0  0  0  0  0  0  0
    3.5500   -3.0862    8.7266 O   0  0  0  0  0  0  0  0  0  0  0  0
    4.1794   -4.1090    9.4426 C   0  0  0  0  0  0  0  0  0  0  0  0
    4.7206   -3.6009   10.5923 C   0  0  0  0  0  0  0  0  0  0  0  0
    5.3902   -4.4546   11.4414 C   0  0  0  0  0  0  0  0  0  0  0  0
    5.5338   -5.7905   11.1792 C   0  0  0  0  0  0  0  0  0  0  0  0
    4.9879   -6.3539   10.0016 C   0  0  0  0  0  0  0  0  0  0  0  0
    4.3297   -5.4635    9.1851 C   0  0  0  0  0  0  0  0  0  0  0  0
    5.1440   -7.6735    9.7728 O   0  0  0  0  0  0  0  0  0  0  0  0
    4.8237   -8.5790    8.8378 C   0  0  0  0  0  0  0  0  0  0  0  0
    5.9222   -9.3193    8.1557 C   0  0  0  0  0  0  0  0  0  0  0  0
    6.7452   -8.7903    7.1954 C   0  0  0  0  0  0  0  0  0  0  0  0
    7.7631   -9.4999    6.5863 C   0  0  0  0  0  0  0  0  0  0  0  0
    7.9878  -10.8042    6.9395 C   0  0  0  0  0  0  0  0  0  0  0  0
    7.1994  -11.3941    7.8943 C   0  0  0  0  0  0  0  0  0  0  0  0
    6.1843  -10.6486    8.4848 C   0  0  0  0  0  0  0  0  0  0  0  0
    7.3901  -12.7699    8.3257 C   0  0  0  0  0  0  0  0  0  0  0  0
    8.1151  -13.0281    9.4563 C   0  0  0  0  0  0  0  0  0  0  0  0
    8.6898  -11.8751   10.1907 C   0  0  0  0  0  0  0  0  0  0  0  0
    8.3008  -14.3474    9.8935 C   0  0  0  0  0  0  0  0  0  0  0  0
    7.7617  -15.4173    9.1993 C   0  0  0  0  0  0  0  0  0  0  0  0
    7.0255  -15.1214    8.0462 C   0  0  0  0  0  0  0  0  0  0  0  0
    6.8591  -13.8310    7.6432 C   0  0  0  0  0  0  0  0  0  0  0  0
    6.0646  -13.5196    6.4030 C   0  0  0  0  0  0  0  0  0  0  0  0
    7.9186  -16.7103    9.5884 O   0  0  0  0  0  0  0  0  0  0  0  0
    8.4565  -17.2643   10.7059 C   0  0  0  0  0  0  0  0  0  0  0  0
    7.7386  -18.4041   11.3526 C   0  0  0  0  0  0  0  0  0  0  0  0
    7.0529  -19.2335   10.2801 C   0  0  0  0  0  0  0  0  0  0  0  0
    7.1683  -20.9608   10.7240 S   0  0  0  0  0  6  0  0  0  0  0  0
    8.0517  -21.1532   11.9239 O   0  0  0  0  0  0  0  0  0  0  0  0
    7.7518  -21.6941    9.5507 O   0  0  0  0  0  0  0  0  0  0  0  0
    5.5333  -21.5730   11.0154 C   0  0  0  0  0  0  0  0  0  0  0  0
  1  2  1  0
  2  3  2  0
  2  4  1  0
  5  4  1  1
  5  6  1  0
  6  7  1  0
  7  8  1  0
  8  9  2  0
  9 10  1  0
 10 11  2  0
 11 12  1  0
 12 13  2  0
 12 14  1  0
 14 15  1  0
 15 16  1  0
 16 17  2  0
 17 18  1  0
 18 19  2  0
 19 20  1  0
 20 21  2  0
 20 22  1  0
 22 23  2  0
 23 24  1  0
 23 25  1  0
 25 26  2  0
 26 27  1  0
 27 28  2  0
 28 29  1  0
 26 30  1  0
 30 31  1  0
 31 32  1  0
 32 33  1  0
 33 34  1  0
 34 35  2  0
 34 36  2  0
 34 37  1  0
  9  5  1  0
 21 16  1  0
 28 22  1  0
 13  8  1  0
M  CHG  1   1  -1
M  END
$$$$
