
     RDKit          3D

 37 40  0  0  0  0  0  0  0  0999 V2000
   11.7129    1.3067  -15.9974 O   0  0  0  0  0  1  0  0  0  0  0  0
   11.1133    2.4613  -15.4753 C   0  0  0  0  0  0  0  0  0  0  0  0
    9.8786    2.6031  -15.6303 O   0  0  0  0  0  0  0  0  0  0  0  0
   11.9023    3.4839  -14.7669 C   0  0  0  0  0  0  0  0  0  0  0  0
   11.0541    4.6779  -14.3477 C   0  0  2  0  0  0  0  0  0  0  0  0
   11.7781    5.9383  -14.6882 C   0  0  0  0  0  0  0  0  0  0  0  0
   12.3568    6.3562  -13.4928 O   0  0  0  0  0  0  0  0  0  0  0  0
   11.6985    5.7463  -12.4206 C   0  0  0  0  0  0  0  0  0  0  0  0
   10.8993    4.7369  -12.8847 C   0  0  0  0  0  0  0  0  0  0  0  0
   10.1601    4.0089  -11.9782 C   0  0  0  0  0  0  0  0  0  0  0  0
   10.1955    4.2562  -10.6321 C   0  0  0  0  0  0  0  0  0  0  0  0
   11.0099    5.2905  -10.1133 C   0  0  0  0  0  0  0  0  0  0  0  0
   11.7281    5.9897  -11.0555 C   0  0  0  0  0  0  0  0  0  0  0  0
   11.0250    5.5079   -8.7826 O   0  0  0  0  0  0  0  0  0  0  0  0
   10.4190    5.0470   -7.6793 C   0  0  0  0  0  0  0  0  0  0  0  0
   10.8373    3.7246   -7.1352 C   0  0  0  0  0  0  0  0  0  0  0  0
   10.5637    2.5149   -7.7192 C   0  0  0  0  0  0  0  0  0  0  0  0
   10.9734    1.3033   -7.1951 C   0  0  0  0  0  0  0  0  0  0  0  0
   11.6940    1.2759   -6.0304 C   0  0  0  0  0  0  0  0  0  0  0  0
   12.0015    2.4518   -5.3948 C   0  0  0  0  0  0  0  0  0  0  0  0
   11.5715    3.6516   -5.9520 C   0  0  0  0  0  0  0  0  0  0  0  0
   12.7730    2.4967   -4.1627 C   0  0  0  0  0  0  0  0  0  0  0  0
   12.1232    2.4918   -2.9592 C   0  0  0  0  0  0  0  0  0  0  0  0
   10.6409    2.4525   -2.9710 C   0  0  0  0  0  0  0  0  0  0  0  0
   12.8505    2.5241   -1.7609 C   0  0  0  0  0  0  0  0  0  0  0  0
   14.2346    2.5628   -1.7608 C   0  0  0  0  0  0  0  0  0  0  0  0
   14.8709    2.5675   -3.0075 C   0  0  0  0  0  0  0  0  0  0  0  0
   14.1414    2.5348   -4.1573 C   0  0  0  0  0  0  0  0  0  0  0  0
   14.8320    2.5382   -5.4948 C   0  0  0  0  0  0  0  0  0  0  0  0
   14.9769    2.5956   -0.6224 O   0  0  0  0  0  0  0  0  0  0  0  0
   14.6293    2.6998    0.6866 C   0  0  0  0  0  0  0  0  0  0  0  0
   15.7153    2.7216    1.7127 C   0  0  0  0  0  0  0  0  0  0  0  0
   16.7288    1.6371    1.3881 C   0  0  0  0  0  0  0  0  0  0  0  0
   18.0675    1.7258    2.5687 S   0  0  0  0  0  6  0  0  0  0  0  0
   17.7343    0.9683    3.8226 O   0  0  0  0  0  0  0  0  0  0  0  0
   18.2849    3.1737    2.9021 O   0  0  0  0  0  0  0  0  0  0  0  0
   19.5328    1.0980    1.7997 C   0  0  0  0  0  0  0  0  0  0  0  0
  1  2  1  0
  2  3  2  0
  2  4  1  0
  5  4  1  1
  5  6  1  0
  6  7  1  0
  7  8  1  0
  8  9  2  0
  9 10  1  0
 10 11  2  0
 11 12  1  0
 12 13  2  0
 12 14  1  0
 14 15  1  0
 15 16  1  0
 16 17  2  0
 17 18  1  0
 18 19  2  0
 19 20  1  0
 20 21  2  0
 20 22  1  0
 22 23  2  0
 23 24  1  0
 23 25  1  0
 25 26  2  0
 26 27  1  0
 27 28  2  0
 28 29  1  0
 26 30  1  0
 30 31  1  0
 31 32  1  0
 32 33  1  0
 33 34  1  0
 34 35  2  0
 34 36  2  0
 34 37  1  0
  9  5  1  0
 21 16  1  0
 28 22  1  0
 13  8  1  0
M  CHG  1   1  -1
M  END
$$$$
