
     RDKit          3D

 37 40  0  0  0  0  0  0  0  0999 V2000
    2.3168    0.8114   12.0967 O   0  0  0  0  0  1  0  0  0  0  0  0
    3.4801    0.3506   11.4646 C   0  0  0  0  0  0  0  0  0  0  0  0
    4.3944    1.1772   11.2423 O   0  0  0  0  0  0  0  0  0  0  0  0
    3.6318   -1.0598   11.0675 C   0  0  0  0  0  0  0  0  0  0  0  0
    4.9978   -1.3422   10.4550 C   0  0  2  0  0  0  0  0  0  0  0  0
    5.0293   -0.8125    9.0596 C   0  0  0  0  0  0  0  0  0  0  0  0
    4.8087   -1.9217    8.2475 O   0  0  0  0  0  0  0  0  0  0  0  0
    5.0944   -3.0868    8.9658 C   0  0  0  0  0  0  0  0  0  0  0  0
    5.2237   -2.7884   10.2952 C   0  0  0  0  0  0  0  0  0  0  0  0
    5.5091   -3.8078   11.1769 C   0  0  0  0  0  0  0  0  0  0  0  0
    5.6672   -5.1066   10.7741 C   0  0  0  0  0  0  0  0  0  0  0  0
    5.5405   -5.4555    9.4087 C   0  0  0  0  0  0  0  0  0  0  0  0
    5.2563   -4.4052    8.5668 C   0  0  0  0  0  0  0  0  0  0  0  0
    5.6994   -6.7437    9.0437 O   0  0  0  0  0  0  0  0  0  0  0  0
    6.1506   -7.8916    9.5688 C   0  0  0  0  0  0  0  0  0  0  0  0
    6.0502   -9.1361    8.7558 C   0  0  0  0  0  0  0  0  0  0  0  0
    5.2601   -9.2851    7.6455 C   0  0  0  0  0  0  0  0  0  0  0  0
    5.1947  -10.4505    6.9052 C   0  0  0  0  0  0  0  0  0  0  0  0
    5.9483  -11.5331    7.2745 C   0  0  0  0  0  0  0  0  0  0  0  0
    6.7605  -11.4504    8.3766 C   0  0  0  0  0  0  0  0  0  0  0  0
    6.7996  -10.2613    9.0973 C   0  0  0  0  0  0  0  0  0  0  0  0
    7.5959  -12.5563    8.8177 C   0  0  0  0  0  0  0  0  0  0  0  0
    7.3345  -13.1635   10.0150 C   0  0  0  0  0  0  0  0  0  0  0  0
    6.2021  -12.6482   10.8219 C   0  0  0  0  0  0  0  0  0  0  0  0
    8.1225  -14.2378   10.4519 C   0  0  0  0  0  0  0  0  0  0  0  0
    9.1791  -14.7101    9.6918 C   0  0  0  0  0  0  0  0  0  0  0  0
    9.4223  -14.0681    8.4721 C   0  0  0  0  0  0  0  0  0  0  0  0
    8.6414  -13.0270    8.0699 C   0  0  0  0  0  0  0  0  0  0  0  0
    8.9072  -12.3420    6.7561 C   0  0  0  0  0  0  0  0  0  0  0  0
    9.9674  -15.7478   10.0789 O   0  0  0  0  0  0  0  0  0  0  0  0
   10.1349  -16.3640   11.2778 C   0  0  0  0  0  0  0  0  0  0  0  0
   10.9630  -17.6067   11.3307 C   0  0  0  0  0  0  0  0  0  0  0  0
   12.3700  -17.2487   11.7785 C   0  0  0  0  0  0  0  0  0  0  0  0
   13.5409  -17.9796   10.6433 S   0  0  0  0  0  6  0  0  0  0  0  0
   13.3352  -19.4639   10.5351 O   0  0  0  0  0  0  0  0  0  0  0  0
   14.9193  -17.7031   11.1708 O   0  0  0  0  0  0  0  0  0  0  0  0
   13.3677  -17.1828    9.0724 C   0  0  0  0  0  0  0  0  0  0  0  0
  1  2  1  0
  2  3  2  0
  2  4  1  0
  5  4  1  6
  5  6  1  0
  6  7  1  0
  7  8  1  0
  8  9  2  0
  9 10  1  0
 10 11  2  0
 11 12  1  0
 12 13  2  0
 12 14  1  0
 14 15  1  0
 15 16  1  0
 16 17  2  0
 17 18  1  0
 18 19  2  0
 19 20  1  0
 20 21  2  0
 20 22  1  0
 22 23  2  0
 23 24  1  0
 23 25  1  0
 25 26  2  0
 26 27  1  0
 27 28  2  0
 28 29  1  0
 26 30  1  0
 30 31  1  0
 31 32  1  0
 32 33  1  0
 33 34  1  0
 34 35  2  0
 34 36  2  0
 34 37  1  0
  9  5  1  0
 21 16  1  0
 28 22  1  0
 13  8  1  0
M  CHG  1   1  -1
M  END
$$$$
