
     RDKit          3D

 37 40  0  0  0  0  0  0  0  0999 V2000
    7.5331    2.4158   10.1975 O   0  0  0  0  0  1  0  0  0  0  0  0
    7.1499    1.2952    9.4476 C   0  0  0  0  0  0  0  0  0  0  0  0
    7.9886    0.8015    8.6591 O   0  0  0  0  0  0  0  0  0  0  0  0
    5.8040    0.7098    9.5732 C   0  0  0  0  0  0  0  0  0  0  0  0
    5.6183   -0.5061    8.6744 C   0  0  2  0  0  0  0  0  0  0  0  0
    5.1936   -0.0531    7.3168 C   0  0  0  0  0  0  0  0  0  0  0  0
    3.8142   -0.2406    7.2889 O   0  0  0  0  0  0  0  0  0  0  0  0
    3.4496   -1.1512    8.2853 C   0  0  0  0  0  0  0  0  0  0  0  0
    4.5025   -1.3480    9.1372 C   0  0  0  0  0  0  0  0  0  0  0  0
    4.3444   -2.2180   10.1937 C   0  0  0  0  0  0  0  0  0  0  0  0
    3.1751   -2.8916   10.4239 C   0  0  0  0  0  0  0  0  0  0  0  0
    2.0636   -2.7145    9.5662 C   0  0  0  0  0  0  0  0  0  0  0  0
    2.2689   -1.8378    8.5261 C   0  0  0  0  0  0  0  0  0  0  0  0
    0.9249   -3.3902    9.8208 O   0  0  0  0  0  0  0  0  0  0  0  0
    0.4109   -4.1738   10.7793 C   0  0  0  0  0  0  0  0  0  0  0  0
   -0.9813   -4.6792   10.6172 C   0  0  0  0  0  0  0  0  0  0  0  0
   -1.4370   -5.3870    9.5353 C   0  0  0  0  0  0  0  0  0  0  0  0
   -2.7335   -5.8513    9.4170 C   0  0  0  0  0  0  0  0  0  0  0  0
   -3.6362   -5.6080   10.4183 C   0  0  0  0  0  0  0  0  0  0  0  0
   -3.2446   -4.9047   11.5288 C   0  0  0  0  0  0  0  0  0  0  0  0
   -1.9317   -4.4529   11.6121 C   0  0  0  0  0  0  0  0  0  0  0  0
   -4.1468   -4.6214   12.6339 C   0  0  0  0  0  0  0  0  0  0  0  0
   -5.0159   -3.5693   12.5425 C   0  0  0  0  0  0  0  0  0  0  0  0
   -4.9862   -2.7498   11.3069 C   0  0  0  0  0  0  0  0  0  0  0  0
   -5.9003   -3.2872   13.5933 C   0  0  0  0  0  0  0  0  0  0  0  0
   -5.9187   -4.0574   14.7439 C   0  0  0  0  0  0  0  0  0  0  0  0
   -5.0174   -5.1264   14.8082 C   0  0  0  0  0  0  0  0  0  0  0  0
   -4.1690   -5.3799   13.7732 C   0  0  0  0  0  0  0  0  0  0  0  0
   -3.2033   -6.5323   13.8481 C   0  0  0  0  0  0  0  0  0  0  0  0
   -6.7590   -3.8176   15.7851 O   0  0  0  0  0  0  0  0  0  0  0  0
   -6.8416   -4.3568   17.0291 C   0  0  0  0  0  0  0  0  0  0  0  0
   -7.9668   -3.9329   17.9163 C   0  0  0  0  0  0  0  0  0  0  0  0
   -7.7904   -2.4680   18.2786 C   0  0  0  0  0  0  0  0  0  0  0  0
   -8.4325   -2.1988   19.9246 S   0  0  0  0  0  6  0  0  0  0  0  0
   -8.3772   -3.4596   20.7398 O   0  0  0  0  0  0  0  0  0  0  0  0
   -9.8601   -1.7534   19.7888 O   0  0  0  0  0  0  0  0  0  0  0  0
   -7.5042   -0.8948   20.6799 C   0  0  0  0  0  0  0  0  0  0  0  0
  1  2  1  0
  2  3  2  0
  2  4  1  0
  5  4  1  1
  5  6  1  0
  6  7  1  0
  7  8  1  0
  8  9  2  0
  9 10  1  0
 10 11  2  0
 11 12  1  0
 12 13  2  0
 12 14  1  0
 14 15  1  0
 15 16  1  0
 16 17  2  0
 17 18  1  0
 18 19  2  0
 19 20  1  0
 20 21  2  0
 20 22  1  0
 22 23  2  0
 23 24  1  0
 23 25  1  0
 25 26  2  0
 26 27  1  0
 27 28  2  0
 28 29  1  0
 26 30  1  0
 30 31  1  0
 31 32  1  0
 32 33  1  0
 33 34  1  0
 34 35  2  0
 34 36  2  0
 34 37  1  0
  9  5  1  0
 21 16  1  0
 28 22  1  0
 13  8  1  0
M  CHG  1   1  -1
M  END
$$$$
