
     RDKit          3D

 37 40  0  0  0  0  0  0  0  0999 V2000
   11.4343    4.7674  -18.0596 O   0  0  0  0  0  1  0  0  0  0  0  0
   10.8535    3.7835  -17.2474 C   0  0  0  0  0  0  0  0  0  0  0  0
   10.4808    2.7184  -17.7908 O   0  0  0  0  0  0  0  0  0  0  0  0
   10.6798    3.9868  -15.7988 C   0  0  0  0  0  0  0  0  0  0  0  0
   10.6536    2.6711  -15.0313 C   0  0  2  0  0  0  0  0  0  0  0  0
    9.2372    2.2348  -14.8529 C   0  0  0  0  0  0  0  0  0  0  0  0
    8.9042    2.6117  -13.5546 O   0  0  0  0  0  0  0  0  0  0  0  0
   10.0740    2.8079  -12.8142 C   0  0  0  0  0  0  0  0  0  0  0  0
   11.1519    2.8437  -13.6566 C   0  0  0  0  0  0  0  0  0  0  0  0
   12.4064    3.0284  -13.1177 C   0  0  0  0  0  0  0  0  0  0  0  0
   12.6150    3.1782  -11.7731 C   0  0  0  0  0  0  0  0  0  0  0  0
   11.5263    3.1478  -10.8697 C   0  0  0  0  0  0  0  0  0  0  0  0
   10.2948    2.9605  -11.4534 C   0  0  0  0  0  0  0  0  0  0  0  0
   11.7640    3.3007   -9.5513 O   0  0  0  0  0  0  0  0  0  0  0  0
   12.8082    3.3181   -8.7109 C   0  0  0  0  0  0  0  0  0  0  0  0
   12.6359    3.9483   -7.3719 C   0  0  0  0  0  0  0  0  0  0  0  0
   13.4867    4.8745   -6.8264 C   0  0  0  0  0  0  0  0  0  0  0  0
   13.2955    5.4491   -5.5839 C   0  0  0  0  0  0  0  0  0  0  0  0
   12.2062    5.0956   -4.8323 C   0  0  0  0  0  0  0  0  0  0  0  0
   11.3156    4.1736   -5.3200 C   0  0  0  0  0  0  0  0  0  0  0  0
   11.5414    3.6162   -6.5743 C   0  0  0  0  0  0  0  0  0  0  0  0
   10.1323    3.7618   -4.5812 C   0  0  0  0  0  0  0  0  0  0  0  0
    8.9483    4.4153   -4.7852 C   0  0  0  0  0  0  0  0  0  0  0  0
    8.9325    5.5364   -5.7558 C   0  0  0  0  0  0  0  0  0  0  0  0
    7.7947    4.0257   -4.0899 C   0  0  0  0  0  0  0  0  0  0  0  0
    7.8204    2.9788   -3.1842 C   0  0  0  0  0  0  0  0  0  0  0  0
    9.0464    2.3300   -2.9964 C   0  0  0  0  0  0  0  0  0  0  0  0
   10.1525    2.7274   -3.6849 C   0  0  0  0  0  0  0  0  0  0  0  0
   11.4677    2.0243   -3.4796 C   0  0  0  0  0  0  0  0  0  0  0  0
    6.7257    2.5702   -2.4895 O   0  0  0  0  0  0  0  0  0  0  0  0
    6.2741    1.3351   -2.1490 C   0  0  0  0  0  0  0  0  0  0  0  0
    5.3239    1.2150   -1.0021 C   0  0  0  0  0  0  0  0  0  0  0  0
    4.2519    2.2841   -1.1296 C   0  0  0  0  0  0  0  0  0  0  0  0
    2.8882    1.8658   -0.0530 S   0  0  0  0  0  6  0  0  0  0  0  0
    3.1182    2.3847    1.3381 O   0  0  0  0  0  0  0  0  0  0  0  0
    2.7800    0.3685   -0.0166 O   0  0  0  0  0  0  0  0  0  0  0  0
    1.4014    2.5219   -0.7542 C   0  0  0  0  0  0  0  0  0  0  0  0
  1  2  1  0
  2  3  2  0
  2  4  1  0
  5  4  1  6
  5  6  1  0
  6  7  1  0
  7  8  1  0
  8  9  2  0
  9 10  1  0
 10 11  2  0
 11 12  1  0
 12 13  2  0
 12 14  1  0
 14 15  1  0
 15 16  1  0
 16 17  2  0
 17 18  1  0
 18 19  2  0
 19 20  1  0
 20 21  2  0
 20 22  1  0
 22 23  2  0
 23 24  1  0
 23 25  1  0
 25 26  2  0
 26 27  1  0
 27 28  2  0
 28 29  1  0
 26 30  1  0
 30 31  1  0
 31 32  1  0
 32 33  1  0
 33 34  1  0
 34 35  2  0
 34 36  2  0
 34 37  1  0
  9  5  1  0
 21 16  1  0
 28 22  1  0
 13  8  1  0
M  CHG  1   1  -1
M  END
$$$$
