
     RDKit          3D

 37 40  0  0  0  0  0  0  0  0999 V2000
   11.0273    6.2502  -16.4282 O   0  0  0  0  0  1  0  0  0  0  0  0
   11.5496    5.1858  -15.6803 C   0  0  0  0  0  0  0  0  0  0  0  0
   12.4360    4.4761  -16.2088 O   0  0  0  0  0  0  0  0  0  0  0  0
   11.0757    4.9003  -14.3150 C   0  0  0  0  0  0  0  0  0  0  0  0
   12.0608    4.0429  -13.5307 C   0  0  2  0  0  0  0  0  0  0  0  0
   11.9744    2.6320  -14.0108 C   0  0  0  0  0  0  0  0  0  0  0  0
   11.1776    1.9800  -13.0736 O   0  0  0  0  0  0  0  0  0  0  0  0
   11.1590    2.7186  -11.8865 C   0  0  0  0  0  0  0  0  0  0  0  0
   11.6858    3.9619  -12.1092 C   0  0  0  0  0  0  0  0  0  0  0  0
   11.7582    4.8475  -11.0563 C   0  0  0  0  0  0  0  0  0  0  0  0
   11.3228    4.5316   -9.7975 C   0  0  0  0  0  0  0  0  0  0  0  0
   10.7713    3.2568   -9.5273 C   0  0  0  0  0  0  0  0  0  0  0  0
   10.7205    2.4071  -10.6081 C   0  0  0  0  0  0  0  0  0  0  0  0
   10.3492    2.9766   -8.2778 O   0  0  0  0  0  0  0  0  0  0  0  0
   10.4663    3.4751   -7.0390 C   0  0  0  0  0  0  0  0  0  0  0  0
    9.8655    2.7175   -5.9054 C   0  0  0  0  0  0  0  0  0  0  0  0
   10.2277    1.4495   -5.5310 C   0  0  0  0  0  0  0  0  0  0  0  0
    9.6579    0.7747   -4.4677 C   0  0  0  0  0  0  0  0  0  0  0  0
    8.6760    1.3785   -3.7277 C   0  0  0  0  0  0  0  0  0  0  0  0
    8.2668    2.6473   -4.0498 C   0  0  0  0  0  0  0  0  0  0  0  0
    8.8629    3.2946   -5.1270 C   0  0  0  0  0  0  0  0  0  0  0  0
    7.2388    3.3520   -3.2999 C   0  0  0  0  0  0  0  0  0  0  0  0
    6.0299    3.6058   -3.8871 C   0  0  0  0  0  0  0  0  0  0  0  0
    5.8287    3.1535   -5.2850 C   0  0  0  0  0  0  0  0  0  0  0  0
    5.0232    4.2746   -3.1764 C   0  0  0  0  0  0  0  0  0  0  0  0
    5.2219    4.6948   -1.8721 C   0  0  0  0  0  0  0  0  0  0  0  0
    6.4692    4.4212   -1.2987 C   0  0  0  0  0  0  0  0  0  0  0  0
    7.4303    3.7691   -2.0103 C   0  0  0  0  0  0  0  0  0  0  0  0
    8.7690    3.4765   -1.3871 C   0  0  0  0  0  0  0  0  0  0  0  0
    4.2732    5.3463   -1.1486 O   0  0  0  0  0  0  0  0  0  0  0  0
    4.2941    5.8918    0.0952 C   0  0  0  0  0  0  0  0  0  0  0  0
    3.3314    6.9911    0.4074 C   0  0  0  0  0  0  0  0  0  0  0  0
    4.1072    8.2651    0.6967 C   0  0  0  0  0  0  0  0  0  0  0  0
    3.1006    9.3358    1.7137 S   0  0  0  0  0  6  0  0  0  0  0  0
    3.3275    9.0653    3.1740 O   0  0  0  0  0  0  0  0  0  0  0  0
    1.6630    9.0673    1.3729 O   0  0  0  0  0  0  0  0  0  0  0  0
    3.4747   11.0149    1.2976 C   0  0  0  0  0  0  0  0  0  0  0  0
  1  2  1  0
  2  3  2  0
  2  4  1  0
  5  4  1  6
  5  6  1  0
  6  7  1  0
  7  8  1  0
  8  9  2  0
  9 10  1  0
 10 11  2  0
 11 12  1  0
 12 13  2  0
 12 14  1  0
 14 15  1  0
 15 16  1  0
 16 17  2  0
 17 18  1  0
 18 19  2  0
 19 20  1  0
 20 21  2  0
 20 22  1  0
 22 23  2  0
 23 24  1  0
 23 25  1  0
 25 26  2  0
 26 27  1  0
 27 28  2  0
 28 29  1  0
 26 30  1  0
 30 31  1  0
 31 32  1  0
 32 33  1  0
 33 34  1  0
 34 35  2  0
 34 36  2  0
 34 37  1  0
  9  5  1  0
 21 16  1  0
 28 22  1  0
 13  8  1  0
M  CHG  1   1  -1
M  END
$$$$
