
     RDKit          3D

 37 40  0  0  0  0  0  0  0  0999 V2000
   11.0328    3.8979  -17.7751 O   0  0  0  0  0  1  0  0  0  0  0  0
   10.8086    2.9735  -16.7454 C   0  0  0  0  0  0  0  0  0  0  0  0
   10.5848    1.7830  -17.0635 O   0  0  0  0  0  0  0  0  0  0  0  0
   10.8305    3.3798  -15.3296 C   0  0  0  0  0  0  0  0  0  0  0  0
   10.9074    2.1844  -14.3883 C   0  0  2  0  0  0  0  0  0  0  0  0
    9.5279    1.6798  -14.1218 C   0  0  0  0  0  0  0  0  0  0  0  0
    9.1836    2.2089  -12.8808 O   0  0  0  0  0  0  0  0  0  0  0  0
   10.3446    2.5864  -12.1992 C   0  0  0  0  0  0  0  0  0  0  0  0
   11.4076    2.5799  -13.0612 C   0  0  0  0  0  0  0  0  0  0  0  0
   12.6516    2.9240  -12.5793 C   0  0  0  0  0  0  0  0  0  0  0  0
   12.8642    3.2727  -11.2727 C   0  0  0  0  0  0  0  0  0  0  0  0
   11.7908    3.2923  -10.3509 C   0  0  0  0  0  0  0  0  0  0  0  0
   10.5692    2.9409  -10.8772 C   0  0  0  0  0  0  0  0  0  0  0  0
   12.0318    3.6424   -9.0713 O   0  0  0  0  0  0  0  0  0  0  0  0
   13.0816    3.8617   -8.2672 C   0  0  0  0  0  0  0  0  0  0  0  0
   12.8315    4.3797   -6.8928 C   0  0  0  0  0  0  0  0  0  0  0  0
   13.4135    5.5007   -6.3599 C   0  0  0  0  0  0  0  0  0  0  0  0
   13.1546    5.9625   -5.0831 C   0  0  0  0  0  0  0  0  0  0  0  0
   12.2731    5.2862   -4.2819 C   0  0  0  0  0  0  0  0  0  0  0  0
   11.6562    4.1560   -4.7543 C   0  0  0  0  0  0  0  0  0  0  0  0
   11.9423    3.7212   -6.0443 C   0  0  0  0  0  0  0  0  0  0  0  0
   10.7011    3.3967   -3.9626 C   0  0  0  0  0  0  0  0  0  0  0  0
   11.1535    2.4488   -3.0866 C   0  0  0  0  0  0  0  0  0  0  0  0
   12.6174    2.2305   -2.9951 C   0  0  0  0  0  0  0  0  0  0  0  0
   10.2483    1.7142   -2.3074 C   0  0  0  0  0  0  0  0  0  0  0  0
    8.8830    1.9242   -2.4019 C   0  0  0  0  0  0  0  0  0  0  0  0
    8.4506    2.9002   -3.3073 C   0  0  0  0  0  0  0  0  0  0  0  0
    9.3505    3.6007   -4.0522 C   0  0  0  0  0  0  0  0  0  0  0  0
    8.8790    4.6502   -5.0229 C   0  0  0  0  0  0  0  0  0  0  0  0
    7.9724    1.2338   -1.6656 O   0  0  0  0  0  0  0  0  0  0  0  0
    8.1073    0.2224   -0.7691 C   0  0  0  0  0  0  0  0  0  0  0  0
    7.6016    0.4305    0.6215 C   0  0  0  0  0  0  0  0  0  0  0  0
    6.3935    1.3509    0.5794 C   0  0  0  0  0  0  0  0  0  0  0  0
    5.5392    1.2545    2.1462 S   0  0  0  0  0  6  0  0  0  0  0  0
    4.8573    2.5531    2.4714 O   0  0  0  0  0  0  0  0  0  0  0  0
    6.5607    0.9477    3.2032 O   0  0  0  0  0  0  0  0  0  0  0  0
    4.3850   -0.0852    2.0715 C   0  0  0  0  0  0  0  0  0  0  0  0
  1  2  1  0
  2  3  2  0
  2  4  1  0
  5  4  1  6
  5  6  1  0
  6  7  1  0
  7  8  1  0
  8  9  2  0
  9 10  1  0
 10 11  2  0
 11 12  1  0
 12 13  2  0
 12 14  1  0
 14 15  1  0
 15 16  1  0
 16 17  2  0
 17 18  1  0
 18 19  2  0
 19 20  1  0
 20 21  2  0
 20 22  1  0
 22 23  2  0
 23 24  1  0
 23 25  1  0
 25 26  2  0
 26 27  1  0
 27 28  2  0
 28 29  1  0
 26 30  1  0
 30 31  1  0
 31 32  1  0
 32 33  1  0
 33 34  1  0
 34 35  2  0
 34 36  2  0
 34 37  1  0
  9  5  1  0
 21 16  1  0
 28 22  1  0
 13  8  1  0
M  CHG  1   1  -1
M  END
$$$$
