
     RDKit          3D

 37 40  0  0  0  0  0  0  0  0999 V2000
   11.2713    4.3308  -16.4790 O   0  0  0  0  0  1  0  0  0  0  0  0
   11.7390    3.4767  -15.4706 C   0  0  0  0  0  0  0  0  0  0  0  0
   12.8742    2.9668  -15.6127 O   0  0  0  0  0  0  0  0  0  0  0  0
   10.9275    3.1790  -14.2778 C   0  0  0  0  0  0  0  0  0  0  0  0
   11.5865    2.1425  -13.3765 C   0  0  2  0  0  0  0  0  0  0  0  0
   10.9028    0.8280  -13.5584 C   0  0  0  0  0  0  0  0  0  0  0  0
   10.0311    0.7220  -12.4780 O   0  0  0  0  0  0  0  0  0  0  0  0
   10.4404    1.5939  -11.4644 C   0  0  0  0  0  0  0  0  0  0  0  0
   11.3790    2.4612  -11.9541 C   0  0  0  0  0  0  0  0  0  0  0  0
   11.9129    3.4059  -11.1052 C   0  0  0  0  0  0  0  0  0  0  0  0
   11.5399    3.5102   -9.7922 C   0  0  0  0  0  0  0  0  0  0  0  0
   10.5721    2.6326   -9.2487 C   0  0  0  0  0  0  0  0  0  0  0  0
   10.0686    1.7068  -10.1330 C   0  0  0  0  0  0  0  0  0  0  0  0
   10.2239    2.7622   -7.9525 O   0  0  0  0  0  0  0  0  0  0  0  0
   10.5832    3.4809   -6.8796 C   0  0  0  0  0  0  0  0  0  0  0  0
    9.5219    3.9375   -5.9388 C   0  0  0  0  0  0  0  0  0  0  0  0
    8.5532    4.8600   -6.2384 C   0  0  0  0  0  0  0  0  0  0  0  0
    7.5748    5.2575   -5.3466 C   0  0  0  0  0  0  0  0  0  0  0  0
    7.5439    4.7189   -4.0875 C   0  0  0  0  0  0  0  0  0  0  0  0
    8.4852    3.7902   -3.7234 C   0  0  0  0  0  0  0  0  0  0  0  0
    9.4548    3.4152   -4.6477 C   0  0  0  0  0  0  0  0  0  0  0  0
    8.5040    3.1691   -2.4083 C   0  0  0  0  0  0  0  0  0  0  0  0
    7.6667    2.1201   -2.1457 C   0  0  0  0  0  0  0  0  0  0  0  0
    6.7587    1.6689   -3.2279 C   0  0  0  0  0  0  0  0  0  0  0  0
    7.6780    1.5020   -0.8872 C   0  0  0  0  0  0  0  0  0  0  0  0
    8.5283    1.9322    0.1174 C   0  0  0  0  0  0  0  0  0  0  0  0
    9.3726    3.0080   -0.1812 C   0  0  0  0  0  0  0  0  0  0  0  0
    9.3428    3.5906   -1.4121 C   0  0  0  0  0  0  0  0  0  0  0  0
   10.2547    4.7461   -1.7272 C   0  0  0  0  0  0  0  0  0  0  0  0
    8.5702    1.3615    1.3504 O   0  0  0  0  0  0  0  0  0  0  0  0
    9.4386    1.4979    2.3860 C   0  0  0  0  0  0  0  0  0  0  0  0
    8.9866    1.0968    3.7526 C   0  0  0  0  0  0  0  0  0  0  0  0
    8.6172   -0.3769    3.7422 C   0  0  0  0  0  0  0  0  0  0  0  0
    7.9894   -0.8262    5.3540 S   0  0  0  0  0  6  0  0  0  0  0  0
    7.9288   -2.3187    5.5143 O   0  0  0  0  0  0  0  0  0  0  0  0
    6.6070   -0.2532    5.4797 O   0  0  0  0  0  0  0  0  0  0  0  0
    9.0225   -0.0816    6.5833 C   0  0  0  0  0  0  0  0  0  0  0  0
  1  2  1  0
  2  3  2  0
  2  4  1  0
  5  4  1  6
  5  6  1  0
  6  7  1  0
  7  8  1  0
  8  9  2  0
  9 10  1  0
 10 11  2  0
 11 12  1  0
 12 13  2  0
 12 14  1  0
 14 15  1  0
 15 16  1  0
 16 17  2  0
 17 18  1  0
 18 19  2  0
 19 20  1  0
 20 21  2  0
 20 22  1  0
 22 23  2  0
 23 24  1  0
 23 25  1  0
 25 26  2  0
 26 27  1  0
 27 28  2  0
 28 29  1  0
 26 30  1  0
 30 31  1  0
 31 32  1  0
 32 33  1  0
 33 34  1  0
 34 35  2  0
 34 36  2  0
 34 37  1  0
  9  5  1  0
 21 16  1  0
 28 22  1  0
 13  8  1  0
M  CHG  1   1  -1
M  END
$$$$
