
     RDKit          3D

 37 40  0  0  0  0  0  0  0  0999 V2000
    2.9623   -0.4943    8.8612 O   0  0  0  0  0  1  0  0  0  0  0  0
    3.4985   -1.2118    9.9395 C   0  0  0  0  0  0  0  0  0  0  0  0
    3.6727   -0.6039   11.0207 O   0  0  0  0  0  0  0  0  0  0  0  0
    3.8522   -2.6364    9.8150 C   0  0  0  0  0  0  0  0  0  0  0  0
    4.3386   -3.2266   11.1325 C   0  0  2  0  0  0  0  0  0  0  0  0
    5.6753   -2.6508   11.4647 C   0  0  0  0  0  0  0  0  0  0  0  0
    6.5935   -3.6229   11.0767 O   0  0  0  0  0  0  0  0  0  0  0  0
    5.9460   -4.8580   10.9745 C   0  0  0  0  0  0  0  0  0  0  0  0
    4.5906   -4.6720   11.0104 C   0  0  0  0  0  0  0  0  0  0  0  0
    3.7695   -5.7749   10.9241 C   0  0  0  0  0  0  0  0  0  0  0  0
    4.2575   -7.0483   10.8029 C   0  0  0  0  0  0  0  0  0  0  0  0
    5.6525   -7.2817   10.7615 C   0  0  0  0  0  0  0  0  0  0  0  0
    6.4315   -6.1514   10.8518 C   0  0  0  0  0  0  0  0  0  0  0  0
    6.1020   -8.5470   10.6393 O   0  0  0  0  0  0  0  0  0  0  0  0
    5.6054   -9.7894   10.5567 C   0  0  0  0  0  0  0  0  0  0  0  0
    6.5401  -10.9136   10.2694 C   0  0  0  0  0  0  0  0  0  0  0  0
    7.4202  -11.4511   11.1725 C   0  0  0  0  0  0  0  0  0  0  0  0
    8.2697  -12.5013   10.8793 C   0  0  0  0  0  0  0  0  0  0  0  0
    8.2551  -13.0576    9.6276 C   0  0  0  0  0  0  0  0  0  0  0  0
    7.3977  -12.5662    8.6765 C   0  0  0  0  0  0  0  0  0  0  0  0
    6.5581  -11.5080    9.0082 C   0  0  0  0  0  0  0  0  0  0  0  0
    7.3213  -13.1169    7.3325 C   0  0  0  0  0  0  0  0  0  0  0  0
    8.2058  -12.6941    6.3789 C   0  0  0  0  0  0  0  0  0  0  0  0
    9.2067  -11.6705    6.7656 C   0  0  0  0  0  0  0  0  0  0  0  0
    8.1542  -13.2213    5.0806 C   0  0  0  0  0  0  0  0  0  0  0  0
    7.2143  -14.1754    4.7290 C   0  0  0  0  0  0  0  0  0  0  0  0
    6.3225  -14.5875    5.7261 C   0  0  0  0  0  0  0  0  0  0  0  0
    6.3942  -14.0604    6.9800 C   0  0  0  0  0  0  0  0  0  0  0  0
    5.4332  -14.5092    8.0482 C   0  0  0  0  0  0  0  0  0  0  0  0
    7.1298  -14.7111    3.4826 O   0  0  0  0  0  0  0  0  0  0  0  0
    6.2030  -15.5153    2.8999 C   0  0  0  0  0  0  0  0  0  0  0  0
    6.3105  -15.7801    1.4332 C   0  0  0  0  0  0  0  0  0  0  0  0
    5.4916  -14.7461    0.6792 C   0  0  0  0  0  0  0  0  0  0  0  0
    4.3004  -15.5916   -0.3503 S   0  0  0  0  0  6  0  0  0  0  0  0
    4.2441  -14.9842   -1.7233 O   0  0  0  0  0  0  0  0  0  0  0  0
    2.9572  -15.4633    0.3087 O   0  0  0  0  0  0  0  0  0  0  0  0
    4.7354  -17.3060   -0.4151 C   0  0  0  0  0  0  0  0  0  0  0  0
  1  2  1  0
  2  3  2  0
  2  4  1  0
  5  4  1  6
  5  6  1  0
  6  7  1  0
  7  8  1  0
  8  9  2  0
  9 10  1  0
 10 11  2  0
 11 12  1  0
 12 13  2  0
 12 14  1  0
 14 15  1  0
 15 16  1  0
 16 17  2  0
 17 18  1  0
 18 19  2  0
 19 20  1  0
 20 21  2  0
 20 22  1  0
 22 23  2  0
 23 24  1  0
 23 25  1  0
 25 26  2  0
 26 27  1  0
 27 28  2  0
 28 29  1  0
 26 30  1  0
 30 31  1  0
 31 32  1  0
 32 33  1  0
 33 34  1  0
 34 35  2  0
 34 36  2  0
 34 37  1  0
  9  5  1  0
 21 16  1  0
 28 22  1  0
 13  8  1  0
M  CHG  1   1  -1
M  END
$$$$
