
     RDKit          3D

 37 40  0  0  0  0  0  0  0  0999 V2000
    3.7102    0.4261    9.7264 O   0  0  0  0  0  1  0  0  0  0  0  0
    4.2034   -0.6184   10.5208 C   0  0  0  0  0  0  0  0  0  0  0  0
    4.4317   -0.3799   11.7290 O   0  0  0  0  0  0  0  0  0  0  0  0
    4.4518   -1.9583    9.9612 C   0  0  0  0  0  0  0  0  0  0  0  0
    4.9459   -2.9405   11.0157 C   0  0  2  0  0  0  0  0  0  0  0  0
    6.3426   -2.5834   11.4033 C   0  0  0  0  0  0  0  0  0  0  0  0
    7.1516   -3.4625   10.6882 O   0  0  0  0  0  0  0  0  0  0  0  0
    6.3931   -4.5646   10.2820 C   0  0  0  0  0  0  0  0  0  0  0  0
    5.0627   -4.3014   10.4660 C   0  0  0  0  0  0  0  0  0  0  0  0
    4.1439   -5.2697   10.1252 C   0  0  0  0  0  0  0  0  0  0  0  0
    4.5108   -6.4835    9.6092 C   0  0  0  0  0  0  0  0  0  0  0  0
    5.8760   -6.7932    9.4033 C   0  0  0  0  0  0  0  0  0  0  0  0
    6.7556   -5.7969    9.7587 C   0  0  0  0  0  0  0  0  0  0  0  0
    6.2054   -7.9962    8.8912 O   0  0  0  0  0  0  0  0  0  0  0  0
    5.5950   -9.1071    8.4550 C   0  0  0  0  0  0  0  0  0  0  0  0
    6.4216  -10.1748    7.8252 C   0  0  0  0  0  0  0  0  0  0  0  0
    6.9919  -10.0930    6.5813 C   0  0  0  0  0  0  0  0  0  0  0  0
    7.7624  -11.0975    6.0265 C   0  0  0  0  0  0  0  0  0  0  0  0
    7.9874  -12.2496    6.7326 C   0  0  0  0  0  0  0  0  0  0  0  0
    7.4449  -12.3956    7.9838 C   0  0  0  0  0  0  0  0  0  0  0  0
    6.6744  -11.3634    8.5090 C   0  0  0  0  0  0  0  0  0  0  0  0
    7.6533  -13.5861    8.7930 C   0  0  0  0  0  0  0  0  0  0  0  0
    8.8992  -13.8549    9.2890 C   0  0  0  0  0  0  0  0  0  0  0  0
    9.9951  -12.9110    8.9619 C   0  0  0  0  0  0  0  0  0  0  0  0
    9.1171  -14.9922   10.0797 C   0  0  0  0  0  0  0  0  0  0  0  0
    8.0873  -15.8686   10.3777 C   0  0  0  0  0  0  0  0  0  0  0  0
    6.8242  -15.5671    9.8554 C   0  0  0  0  0  0  0  0  0  0  0  0
    6.6387  -14.4554    9.0906 C   0  0  0  0  0  0  0  0  0  0  0  0
    5.2772  -14.1359    8.5333 C   0  0  0  0  0  0  0  0  0  0  0  0
    8.2561  -16.9818   11.1393 O   0  0  0  0  0  0  0  0  0  0  0  0
    9.3313  -17.4685   11.8119 C   0  0  0  0  0  0  0  0  0  0  0  0
    9.1612  -18.7114   12.6237 C   0  0  0  0  0  0  0  0  0  0  0  0
    8.3630  -19.7249   11.8211 C   0  0  0  0  0  0  0  0  0  0  0  0
    8.8451  -21.3701   12.3259 S   0  0  0  0  0  6  0  0  0  0  0  0
   10.2738  -21.6525   11.9567 O   0  0  0  0  0  0  0  0  0  0  0  0
    7.9448  -22.3442   11.6219 O   0  0  0  0  0  0  0  0  0  0  0  0
    8.5827  -21.5185   14.0700 C   0  0  0  0  0  0  0  0  0  0  0  0
  1  2  1  0
  2  3  2  0
  2  4  1  0
  5  4  1  6
  5  6  1  0
  6  7  1  0
  7  8  1  0
  8  9  2  0
  9 10  1  0
 10 11  2  0
 11 12  1  0
 12 13  2  0
 12 14  1  0
 14 15  1  0
 15 16  1  0
 16 17  2  0
 17 18  1  0
 18 19  2  0
 19 20  1  0
 20 21  2  0
 20 22  1  0
 22 23  2  0
 23 24  1  0
 23 25  1  0
 25 26  2  0
 26 27  1  0
 27 28  2  0
 28 29  1  0
 26 30  1  0
 30 31  1  0
 31 32  1  0
 32 33  1  0
 33 34  1  0
 34 35  2  0
 34 36  2  0
 34 37  1  0
  9  5  1  0
 21 16  1  0
 28 22  1  0
 13  8  1  0
M  CHG  1   1  -1
M  END
$$$$
