
     RDKit          3D

 37 40  0  0  0  0  0  0  0  0999 V2000
    2.9195   -1.6024    8.8064 O   0  0  0  0  0  1  0  0  0  0  0  0
    4.0409   -2.2033    8.2177 C   0  0  0  0  0  0  0  0  0  0  0  0
    4.2628   -3.4093    8.4731 O   0  0  0  0  0  0  0  0  0  0  0  0
    4.9387   -1.4482    7.3268 C   0  0  0  0  0  0  0  0  0  0  0  0
    5.6284   -2.3465    6.3078 C   0  0  2  0  0  0  0  0  0  0  0  0
    6.8149   -2.9908    6.9447 C   0  0  0  0  0  0  0  0  0  0  0  0
    7.9061   -2.2377    6.5197 O   0  0  0  0  0  0  0  0  0  0  0  0
    7.5549   -1.5182    5.3735 C   0  0  0  0  0  0  0  0  0  0  0  0
    6.1979   -1.5604    5.2007 C   0  0  0  0  0  0  0  0  0  0  0  0
    5.6486   -0.9081    4.1186 C   0  0  0  0  0  0  0  0  0  0  0  0
    6.4078   -0.2192    3.2113 C   0  0  0  0  0  0  0  0  0  0  0  0
    7.8138   -0.1516    3.3558 C   0  0  0  0  0  0  0  0  0  0  0  0
    8.3162   -0.8180    4.4494 C   0  0  0  0  0  0  0  0  0  0  0  0
    8.5337    0.5367    2.4469 O   0  0  0  0  0  0  0  0  0  0  0  0
    8.3315    1.4301    1.4682 C   0  0  0  0  0  0  0  0  0  0  0  0
    9.5122    1.9547    0.7261 C   0  0  0  0  0  0  0  0  0  0  0  0
   10.5758    2.6003    1.3014 C   0  0  0  0  0  0  0  0  0  0  0  0
   11.6627    3.0683    0.5872 C   0  0  0  0  0  0  0  0  0  0  0  0
   11.7101    2.8928   -0.7705 C   0  0  0  0  0  0  0  0  0  0  0  0
   10.6773    2.2545   -1.4086 C   0  0  0  0  0  0  0  0  0  0  0  0
    9.5999    1.7978   -0.6567 C   0  0  0  0  0  0  0  0  0  0  0  0
   10.6682    2.0235   -2.8446 C   0  0  0  0  0  0  0  0  0  0  0  0
   10.8406    0.7546   -3.3248 C   0  0  0  0  0  0  0  0  0  0  0  0
   11.0434   -0.3378   -2.3426 C   0  0  0  0  0  0  0  0  0  0  0  0
   10.8243    0.5109   -4.7056 C   0  0  0  0  0  0  0  0  0  0  0  0
   10.6363    1.5383   -5.6146 C   0  0  0  0  0  0  0  0  0  0  0  0
   10.4634    2.8256   -5.0930 C   0  0  0  0  0  0  0  0  0  0  0  0
   10.4825    3.0356   -3.7473 C   0  0  0  0  0  0  0  0  0  0  0  0
   10.2941    4.4224   -3.1927 C   0  0  0  0  0  0  0  0  0  0  0  0
   10.6145    1.3452   -6.9601 O   0  0  0  0  0  0  0  0  0  0  0  0
   10.5081    2.2114   -8.0009 C   0  0  0  0  0  0  0  0  0  0  0  0
   11.0719    1.8077   -9.3245 C   0  0  0  0  0  0  0  0  0  0  0  0
    9.9322    1.4440  -10.2612 C   0  0  0  0  0  0  0  0  0  0  0  0
   10.0314    2.4738  -11.7184 S   0  0  0  0  0  6  0  0  0  0  0  0
    9.7805    3.9159  -11.3799 O   0  0  0  0  0  0  0  0  0  0  0  0
    8.9847    1.9976  -12.6841 O   0  0  0  0  0  0  0  0  0  0  0  0
   11.6242    2.2465  -12.4557 C   0  0  0  0  0  0  0  0  0  0  0  0
  1  2  1  0
  2  3  2  0
  2  4  1  0
  5  4  1  1
  5  6  1  0
  6  7  1  0
  7  8  1  0
  8  9  2  0
  9 10  1  0
 10 11  2  0
 11 12  1  0
 12 13  2  0
 12 14  1  0
 14 15  1  0
 15 16  1  0
 16 17  2  0
 17 18  1  0
 18 19  2  0
 19 20  1  0
 20 21  2  0
 20 22  1  0
 22 23  2  0
 23 24  1  0
 23 25  1  0
 25 26  2  0
 26 27  1  0
 27 28  2  0
 28 29  1  0
 26 30  1  0
 30 31  1  0
 31 32  1  0
 32 33  1  0
 33 34  1  0
 34 35  2  0
 34 36  2  0
 34 37  1  0
  9  5  1  0
 21 16  1  0
 28 22  1  0
 13  8  1  0
M  CHG  1   1  -1
M  END
$$$$
