
     RDKit          3D

 37 40  0  0  0  0  0  0  0  0999 V2000
    2.8163    0.8509   11.4764 O   0  0  0  0  0  1  0  0  0  0  0  0
    2.3414   -0.4600   11.6217 C   0  0  0  0  0  0  0  0  0  0  0  0
    2.5677   -1.0501   12.7030 O   0  0  0  0  0  0  0  0  0  0  0  0
    1.6003   -1.1332   10.5411 C   0  0  0  0  0  0  0  0  0  0  0  0
    1.1326   -2.5260   10.9441 C   0  0  2  0  0  0  0  0  0  0  0  0
    1.1333   -2.6325   12.4331 C   0  0  0  0  0  0  0  0  0  0  0  0
    2.3124   -3.3034   12.7464 O   0  0  0  0  0  0  0  0  0  0  0  0
    2.7723   -3.9856   11.6158 C   0  0  0  0  0  0  0  0  0  0  0  0
    2.0890   -3.5578   10.5099 C   0  0  0  0  0  0  0  0  0  0  0  0
    2.3958   -4.1135    9.2871 C   0  0  0  0  0  0  0  0  0  0  0  0
    3.3580   -5.0757    9.1366 C   0  0  0  0  0  0  0  0  0  0  0  0
    4.0868   -5.5436   10.2555 C   0  0  0  0  0  0  0  0  0  0  0  0
    3.7453   -4.9607   11.4539 C   0  0  0  0  0  0  0  0  0  0  0  0
    5.0298   -6.4902   10.0744 O   0  0  0  0  0  0  0  0  0  0  0  0
    5.7522   -7.0147    9.0744 C   0  0  0  0  0  0  0  0  0  0  0  0
    6.8401   -7.9764    9.4085 C   0  0  0  0  0  0  0  0  0  0  0  0
    7.9641   -7.6682   10.1300 C   0  0  0  0  0  0  0  0  0  0  0  0
    8.9532   -8.5852   10.4324 C   0  0  0  0  0  0  0  0  0  0  0  0
    8.8332   -9.8803   10.0027 C   0  0  0  0  0  0  0  0  0  0  0  0
    7.7322  -10.2547    9.2754 C   0  0  0  0  0  0  0  0  0  0  0  0
    6.7578   -9.3040    8.9900 C   0  0  0  0  0  0  0  0  0  0  0  0
    7.5349  -11.6145    8.7986 C   0  0  0  0  0  0  0  0  0  0  0  0
    7.6389  -11.8823    7.4614 C   0  0  0  0  0  0  0  0  0  0  0  0
    7.9405  -10.7531    6.5488 C   0  0  0  0  0  0  0  0  0  0  0  0
    7.4622  -13.1889    6.9844 C   0  0  0  0  0  0  0  0  0  0  0  0
    7.1787  -14.2362    7.8447 C   0  0  0  0  0  0  0  0  0  0  0  0
    7.0779  -13.9308    9.2070 C   0  0  0  0  0  0  0  0  0  0  0  0
    7.2547  -12.6532    9.6450 C   0  0  0  0  0  0  0  0  0  0  0  0
    7.1466  -12.3318   11.1117 C   0  0  0  0  0  0  0  0  0  0  0  0
    6.9997  -15.5162    7.4235 O   0  0  0  0  0  0  0  0  0  0  0  0
    6.8871  -16.0573    6.1827 C   0  0  0  0  0  0  0  0  0  0  0  0
    6.7139  -17.5367    6.0635 C   0  0  0  0  0  0  0  0  0  0  0  0
    5.2864  -17.9022    6.4339 C   0  0  0  0  0  0  0  0  0  0  0  0
    5.1935  -19.6665    6.7033 S   0  0  0  0  0  6  0  0  0  0  0  0
    6.1557  -20.1022    7.7717 O   0  0  0  0  0  0  0  0  0  0  0  0
    5.5431  -20.3433    5.4092 O   0  0  0  0  0  0  0  0  0  0  0  0
    3.5246  -20.0802    7.1232 C   0  0  0  0  0  0  0  0  0  0  0  0
  1  2  1  0
  2  3  2  0
  2  4  1  0
  5  4  1  1
  5  6  1  0
  6  7  1  0
  7  8  1  0
  8  9  2  0
  9 10  1  0
 10 11  2  0
 11 12  1  0
 12 13  2  0
 12 14  1  0
 14 15  1  0
 15 16  1  0
 16 17  2  0
 17 18  1  0
 18 19  2  0
 19 20  1  0
 20 21  2  0
 20 22  1  0
 22 23  2  0
 23 24  1  0
 23 25  1  0
 25 26  2  0
 26 27  1  0
 27 28  2  0
 28 29  1  0
 26 30  1  0
 30 31  1  0
 31 32  1  0
 32 33  1  0
 33 34  1  0
 34 35  2  0
 34 36  2  0
 34 37  1  0
  9  5  1  0
 21 16  1  0
 28 22  1  0
 13  8  1  0
M  CHG  1   1  -1
M  END
$$$$
