
     RDKit          3D

 37 40  0  0  0  0  0  0  0  0999 V2000
    3.5852    1.1810   11.2053 O   0  0  0  0  0  1  0  0  0  0  0  0
    3.4241   -0.0752   11.8062 C   0  0  0  0  0  0  0  0  0  0  0  0
    2.9394   -0.1162   12.9604 O   0  0  0  0  0  0  0  0  0  0  0  0
    3.8120   -1.3150   11.1116 C   0  0  0  0  0  0  0  0  0  0  0  0
    2.8201   -2.4456   11.3538 C   0  0  2  0  0  0  0  0  0  0  0  0
    2.8395   -2.8144   12.8002 C   0  0  0  0  0  0  0  0  0  0  0  0
    3.6398   -3.9514   12.8721 O   0  0  0  0  0  0  0  0  0  0  0  0
    3.7219   -4.5416   11.6071 C   0  0  0  0  0  0  0  0  0  0  0  0
    3.2351   -3.6782   10.6635 C   0  0  0  0  0  0  0  0  0  0  0  0
    3.2276   -4.0761    9.3445 C   0  0  0  0  0  0  0  0  0  0  0  0
    3.6892   -5.3006    8.9424 C   0  0  0  0  0  0  0  0  0  0  0  0
    4.2010   -6.2208    9.8877 C   0  0  0  0  0  0  0  0  0  0  0  0
    4.1874   -5.7800   11.1908 C   0  0  0  0  0  0  0  0  0  0  0  0
    4.6504   -7.4180    9.4602 O   0  0  0  0  0  0  0  0  0  0  0  0
    4.6769   -8.1398    8.3309 C   0  0  0  0  0  0  0  0  0  0  0  0
    5.8915   -8.9485    8.0296 C   0  0  0  0  0  0  0  0  0  0  0  0
    6.8584   -8.6017    7.1218 C   0  0  0  0  0  0  0  0  0  0  0  0
    7.9803   -9.3689    6.8700 C   0  0  0  0  0  0  0  0  0  0  0  0
    8.1654  -10.5446    7.5481 C   0  0  0  0  0  0  0  0  0  0  0  0
    7.2347  -10.9499    8.4704 C   0  0  0  0  0  0  0  0  0  0  0  0
    6.1181  -10.1519    8.6965 C   0  0  0  0  0  0  0  0  0  0  0  0
    7.3743  -12.1797    9.2344 C   0  0  0  0  0  0  0  0  0  0  0  0
    7.3935  -13.3811    8.5813 C   0  0  0  0  0  0  0  0  0  0  0  0
    7.2568  -13.3708    7.1047 C   0  0  0  0  0  0  0  0  0  0  0  0
    7.5377  -14.5764    9.3001 C   0  0  0  0  0  0  0  0  0  0  0  0
    7.6625  -14.5754   10.6790 C   0  0  0  0  0  0  0  0  0  0  0  0
    7.6386  -13.3308   11.3191 C   0  0  0  0  0  0  0  0  0  0  0  0
    7.4982  -12.1840   10.5977 C   0  0  0  0  0  0  0  0  0  0  0  0
    7.4751  -10.8485   11.2920 C   0  0  0  0  0  0  0  0  0  0  0  0
    7.8034  -15.7108   11.4132 O   0  0  0  0  0  0  0  0  0  0  0  0
    7.9282  -17.0151   11.0549 C   0  0  0  0  0  0  0  0  0  0  0  0
    7.9132  -18.0537   12.1291 C   0  0  0  0  0  0  0  0  0  0  0  0
    8.5376  -17.4767   13.3883 C   0  0  0  0  0  0  0  0  0  0  0  0
    9.7249  -18.6468   14.0326 S   0  0  0  0  0  6  0  0  0  0  0  0
    9.7607  -19.8960   13.1987 O   0  0  0  0  0  0  0  0  0  0  0  0
    9.3087  -18.9926   15.4334 O   0  0  0  0  0  0  0  0  0  0  0  0
   11.3088  -17.8594   14.0929 C   0  0  0  0  0  0  0  0  0  0  0  0
  1  2  1  0
  2  3  2  0
  2  4  1  0
  5  4  1  1
  5  6  1  0
  6  7  1  0
  7  8  1  0
  8  9  2  0
  9 10  1  0
 10 11  2  0
 11 12  1  0
 12 13  2  0
 12 14  1  0
 14 15  1  0
 15 16  1  0
 16 17  2  0
 17 18  1  0
 18 19  2  0
 19 20  1  0
 20 21  2  0
 20 22  1  0
 22 23  2  0
 23 24  1  0
 23 25  1  0
 25 26  2  0
 26 27  1  0
 27 28  2  0
 28 29  1  0
 26 30  1  0
 30 31  1  0
 31 32  1  0
 32 33  1  0
 33 34  1  0
 34 35  2  0
 34 36  2  0
 34 37  1  0
  9  5  1  0
 21 16  1  0
 28 22  1  0
 13  8  1  0
M  CHG  1   1  -1
M  END
$$$$
