
     RDKit          3D

 37 40  0  0  0  0  0  0  0  0999 V2000
    4.6465   -1.8967   13.9827 O   0  0  0  0  0  1  0  0  0  0  0  0
    4.2815   -2.2893   12.6874 C   0  0  0  0  0  0  0  0  0  0  0  0
    3.3160   -3.0774   12.5629 O   0  0  0  0  0  0  0  0  0  0  0  0
    5.0061   -1.7982   11.5026 C   0  0  0  0  0  0  0  0  0  0  0  0
    4.3584   -2.2540   10.2012 C   0  0  2  0  0  0  0  0  0  0  0  0
    2.9389   -2.6332   10.4657 C   0  0  0  0  0  0  0  0  0  0  0  0
    2.9474   -4.0225   10.5568 O   0  0  0  0  0  0  0  0  0  0  0  0
    4.1006   -4.5206    9.9427 C   0  0  0  0  0  0  0  0  0  0  0  0
    4.9746   -3.4950    9.7032 C   0  0  0  0  0  0  0  0  0  0  0  0
    6.1789   -3.7805    9.0979 C   0  0  0  0  0  0  0  0  0  0  0  0
    6.5343   -5.0498    8.7284 C   0  0  0  0  0  0  0  0  0  0  0  0
    5.6585   -6.1368    8.9597 C   0  0  0  0  0  0  0  0  0  0  0  0
    4.4690   -5.8032    9.5649 C   0  0  0  0  0  0  0  0  0  0  0  0
    6.0383   -7.3756    8.5865 O   0  0  0  0  0  0  0  0  0  0  0  0
    7.1421   -8.0057    8.1603 C   0  0  0  0  0  0  0  0  0  0  0  0
    7.0015   -9.3595    7.5542 C   0  0  0  0  0  0  0  0  0  0  0  0
    6.5237   -9.6079    6.2936 C   0  0  0  0  0  0  0  0  0  0  0  0
    6.4133  -10.8759    5.7544 C   0  0  0  0  0  0  0  0  0  0  0  0
    6.7941  -11.9641    6.4942 C   0  0  0  0  0  0  0  0  0  0  0  0
    7.2808  -11.7849    7.7639 C   0  0  0  0  0  0  0  0  0  0  0  0
    7.3768  -10.4939    8.2729 C   0  0  0  0  0  0  0  0  0  0  0  0
    7.7145  -12.8936    8.5994 C   0  0  0  0  0  0  0  0  0  0  0  0
    8.9937  -13.3639    8.4857 C   0  0  0  0  0  0  0  0  0  0  0  0
    9.8851  -12.7177    7.4922 C   0  0  0  0  0  0  0  0  0  0  0  0
    9.4329  -14.4251    9.2901 C   0  0  0  0  0  0  0  0  0  0  0  0
    8.5920  -15.0231   10.2134 C   0  0  0  0  0  0  0  0  0  0  0  0
    7.2889  -14.5204   10.3062 C   0  0  0  0  0  0  0  0  0  0  0  0
    6.8871  -13.4880    9.5137 C   0  0  0  0  0  0  0  0  0  0  0  0
    5.4848  -12.9509    9.6197 C   0  0  0  0  0  0  0  0  0  0  0  0
    8.9777  -16.0538   11.0114 O   0  0  0  0  0  0  0  0  0  0  0  0
   10.1651  -16.6978   11.1538 C   0  0  0  0  0  0  0  0  0  0  0  0
   10.2763  -17.7660   12.1927 C   0  0  0  0  0  0  0  0  0  0  0  0
    9.1420  -18.7599   12.0083 C   0  0  0  0  0  0  0  0  0  0  0  0
    9.3939  -20.1365   13.1198 S   0  0  0  0  0  6  0  0  0  0  0  0
    8.8618  -19.8293   14.4908 O   0  0  0  0  0  0  0  0  0  0  0  0
   10.8717  -20.3901   13.2022 O   0  0  0  0  0  0  0  0  0  0  0  0
    8.6143  -21.5654   12.4248 C   0  0  0  0  0  0  0  0  0  0  0  0
  1  2  1  0
  2  3  2  0
  2  4  1  0
  5  4  1  1
  5  6  1  0
  6  7  1  0
  7  8  1  0
  8  9  2  0
  9 10  1  0
 10 11  2  0
 11 12  1  0
 12 13  2  0
 12 14  1  0
 14 15  1  0
 15 16  1  0
 16 17  2  0
 17 18  1  0
 18 19  2  0
 19 20  1  0
 20 21  2  0
 20 22  1  0
 22 23  2  0
 23 24  1  0
 23 25  1  0
 25 26  2  0
 26 27  1  0
 27 28  2  0
 28 29  1  0
 26 30  1  0
 30 31  1  0
 31 32  1  0
 32 33  1  0
 33 34  1  0
 34 35  2  0
 34 36  2  0
 34 37  1  0
  9  5  1  0
 21 16  1  0
 28 22  1  0
 13  8  1  0
M  CHG  1   1  -1
M  END
$$$$
