
     RDKit          3D

 37 40  0  0  0  0  0  0  0  0999 V2000
   12.6262    4.8756  -18.2405 O   0  0  0  0  0  1  0  0  0  0  0  0
   12.4593    3.7093  -17.4810 C   0  0  0  0  0  0  0  0  0  0  0  0
   12.6222    2.6073  -18.0536 O   0  0  0  0  0  0  0  0  0  0  0  0
   12.1008    3.7664  -16.0533 C   0  0  0  0  0  0  0  0  0  0  0  0
   12.0245    2.3818  -15.4225 C   0  0  2  0  0  0  0  0  0  0  0  0
   10.7756    1.7027  -15.8783 C   0  0  0  0  0  0  0  0  0  0  0  0
    9.8743    1.8626  -14.8292 O   0  0  0  0  0  0  0  0  0  0  0  0
   10.5758    2.1566  -13.6559 C   0  0  0  0  0  0  0  0  0  0  0  0
   11.8732    2.4677  -13.9605 C   0  0  0  0  0  0  0  0  0  0  0  0
   12.7347    2.7883  -12.9342 C   0  0  0  0  0  0  0  0  0  0  0  0
   12.3421    2.8084  -11.6229 C   0  0  0  0  0  0  0  0  0  0  0  0
   11.0091    2.4936  -11.2675 C   0  0  0  0  0  0  0  0  0  0  0  0
   10.1868    2.1794  -12.3248 C   0  0  0  0  0  0  0  0  0  0  0  0
   10.6525    2.5245   -9.9675 O   0  0  0  0  0  0  0  0  0  0  0  0
   11.1909    2.8437   -8.7822 C   0  0  0  0  0  0  0  0  0  0  0  0
   10.5269    3.8905   -7.9556 C   0  0  0  0  0  0  0  0  0  0  0  0
   10.4989    5.2272   -8.2585 C   0  0  0  0  0  0  0  0  0  0  0  0
    9.8662    6.1748   -7.4761 C   0  0  0  0  0  0  0  0  0  0  0  0
    9.2227    5.7895   -6.3298 C   0  0  0  0  0  0  0  0  0  0  0  0
    9.2132    4.4663   -5.9690 C   0  0  0  0  0  0  0  0  0  0  0  0
    9.8613    3.5415   -6.7811 C   0  0  0  0  0  0  0  0  0  0  0  0
    8.5394    3.9864   -4.7727 C   0  0  0  0  0  0  0  0  0  0  0  0
    9.2797    3.6194   -3.6828 C   0  0  0  0  0  0  0  0  0  0  0  0
   10.7560    3.7193   -3.7808 C   0  0  0  0  0  0  0  0  0  0  0  0
    8.6473    3.1642   -2.5170 C   0  0  0  0  0  0  0  0  0  0  0  0
    7.2681    3.0727   -2.4363 C   0  0  0  0  0  0  0  0  0  0  0  0
    6.5379    3.4546   -3.5678 C   0  0  0  0  0  0  0  0  0  0  0  0
    7.1763    3.8942   -4.6878 C   0  0  0  0  0  0  0  0  0  0  0  0
    6.3849    4.3052   -5.9007 C   0  0  0  0  0  0  0  0  0  0  0  0
    6.6161    2.6362   -1.3262 O   0  0  0  0  0  0  0  0  0  0  0  0
    5.3009    2.6343   -0.9865 C   0  0  0  0  0  0  0  0  0  0  0  0
    4.9311    2.3333    0.4297 C   0  0  0  0  0  0  0  0  0  0  0  0
    4.9129    3.6275    1.2253 C   0  0  0  0  0  0  0  0  0  0  0  0
    4.3363    3.2796    2.8807 S   0  0  0  0  0  6  0  0  0  0  0  0
    3.6679    4.4819    3.4848 O   0  0  0  0  0  0  0  0  0  0  0  0
    5.5311    2.9030    3.7088 O   0  0  0  0  0  0  0  0  0  0  0  0
    3.2392    1.8925    2.8101 C   0  0  0  0  0  0  0  0  0  0  0  0
  1  2  1  0
  2  3  2  0
  2  4  1  0
  5  4  1  6
  5  6  1  0
  6  7  1  0
  7  8  1  0
  8  9  2  0
  9 10  1  0
 10 11  2  0
 11 12  1  0
 12 13  2  0
 12 14  1  0
 14 15  1  0
 15 16  1  0
 16 17  2  0
 17 18  1  0
 18 19  2  0
 19 20  1  0
 20 21  2  0
 20 22  1  0
 22 23  2  0
 23 24  1  0
 23 25  1  0
 25 26  2  0
 26 27  1  0
 27 28  2  0
 28 29  1  0
 26 30  1  0
 30 31  1  0
 31 32  1  0
 32 33  1  0
 33 34  1  0
 34 35  2  0
 34 36  2  0
 34 37  1  0
  9  5  1  0
 21 16  1  0
 28 22  1  0
 13  8  1  0
M  CHG  1   1  -1
M  END
$$$$
