
     RDKit          3D

 37 40  0  0  0  0  0  0  0  0999 V2000
   11.3658   -1.9578   11.7442 O   0  0  0  0  0  1  0  0  0  0  0  0
   10.3240   -2.7279   12.2796 C   0  0  0  0  0  0  0  0  0  0  0  0
    9.8700   -2.4030   13.4008 O   0  0  0  0  0  0  0  0  0  0  0  0
    9.7747   -3.8873   11.5556 C   0  0  0  0  0  0  0  0  0  0  0  0
    8.7627   -4.6614   12.3908 C   0  0  2  0  0  0  0  0  0  0  0  0
    8.7947   -6.0997   11.9921 C   0  0  0  0  0  0  0  0  0  0  0  0
    7.7086   -6.2611   11.1360 O   0  0  0  0  0  0  0  0  0  0  0  0
    6.8002   -5.2174   11.3373 C   0  0  0  0  0  0  0  0  0  0  0  0
    7.3852   -4.2364   12.0912 C   0  0  0  0  0  0  0  0  0  0  0  0
    6.6486   -3.1147   12.4034 C   0  0  0  0  0  0  0  0  0  0  0  0
    5.3555   -2.9441   11.9876 C   0  0  0  0  0  0  0  0  0  0  0  0
    4.7159   -3.9352   11.2060 C   0  0  0  0  0  0  0  0  0  0  0  0
    5.4898   -5.0362   10.9206 C   0  0  0  0  0  0  0  0  0  0  0  0
    3.4424   -3.7368   10.8099 O   0  0  0  0  0  0  0  0  0  0  0  0
    2.5367   -2.7488   10.7861 C   0  0  0  0  0  0  0  0  0  0  0  0
    1.2044   -3.0169   10.1753 C   0  0  0  0  0  0  0  0  0  0  0  0
    0.9777   -3.1900    8.8345 C   0  0  0  0  0  0  0  0  0  0  0  0
   -0.2698   -3.4469    8.2975 C   0  0  0  0  0  0  0  0  0  0  0  0
   -1.3587   -3.5401    9.1232 C   0  0  0  0  0  0  0  0  0  0  0  0
   -1.2007   -3.3768   10.4758 C   0  0  0  0  0  0  0  0  0  0  0  0
    0.0700   -3.1188   10.9796 C   0  0  0  0  0  0  0  0  0  0  0  0
   -2.3105   -3.4750   11.4108 C   0  0  0  0  0  0  0  0  0  0  0  0
   -2.4917   -4.6278   12.1240 C   0  0  0  0  0  0  0  0  0  0  0  0
   -1.5400   -5.7419   11.8960 C   0  0  0  0  0  0  0  0  0  0  0  0
   -3.5498   -4.7371   13.0376 C   0  0  0  0  0  0  0  0  0  0  0  0
   -4.4343   -3.6916   13.2417 C   0  0  0  0  0  0  0  0  0  0  0  0
   -4.2234   -2.5254   12.4970 C   0  0  0  0  0  0  0  0  0  0  0  0
   -3.1874   -2.4442   11.6163 C   0  0  0  0  0  0  0  0  0  0  0  0
   -2.9651   -1.1863   10.8197 C   0  0  0  0  0  0  0  0  0  0  0  0
   -5.4726   -3.7568   14.1167 O   0  0  0  0  0  0  0  0  0  0  0  0
   -5.8140   -4.6777   15.0550 C   0  0  0  0  0  0  0  0  0  0  0  0
   -7.1115   -4.5119   15.7773 C   0  0  0  0  0  0  0  0  0  0  0  0
   -6.9907   -3.3590   16.7595 C   0  0  0  0  0  0  0  0  0  0  0  0
   -8.1803   -2.0995   16.3208 S   0  0  0  0  0  6  0  0  0  0  0  0
   -7.5258   -0.9755   15.5689 O   0  0  0  0  0  0  0  0  0  0  0  0
   -8.7732   -1.5703   17.5949 O   0  0  0  0  0  0  0  0  0  0  0  0
   -9.4683   -2.8547   15.3703 C   0  0  0  0  0  0  0  0  0  0  0  0
  1  2  1  0
  2  3  2  0
  2  4  1  0
  5  4  1  6
  5  6  1  0
  6  7  1  0
  7  8  1  0
  8  9  2  0
  9 10  1  0
 10 11  2  0
 11 12  1  0
 12 13  2  0
 12 14  1  0
 14 15  1  0
 15 16  1  0
 16 17  2  0
 17 18  1  0
 18 19  2  0
 19 20  1  0
 20 21  2  0
 20 22  1  0
 22 23  2  0
 23 24  1  0
 23 25  1  0
 25 26  2  0
 26 27  1  0
 27 28  2  0
 28 29  1  0
 26 30  1  0
 30 31  1  0
 31 32  1  0
 32 33  1  0
 33 34  1  0
 34 35  2  0
 34 36  2  0
 34 37  1  0
  9  5  1  0
 21 16  1  0
 28 22  1  0
 13  8  1  0
M  CHG  1   1  -1
M  END
$$$$
