
     RDKit          3D

 37 40  0  0  0  0  0  0  0  0999 V2000
    8.3458    1.3439   14.7014 O   0  0  0  0  0  1  0  0  0  0  0  0
    9.1669    0.4194   14.0411 C   0  0  0  0  0  0  0  0  0  0  0  0
    9.6340    0.7415   12.9244 O   0  0  0  0  0  0  0  0  0  0  0  0
    9.4752   -0.8943   14.6320 C   0  0  0  0  0  0  0  0  0  0  0  0
   10.1456   -1.8314   13.6353 C   0  0  2  0  0  0  0  0  0  0  0  0
   10.5700   -1.0504   12.4359 C   0  0  0  0  0  0  0  0  0  0  0  0
    9.5825   -1.2870   11.4833 O   0  0  0  0  0  0  0  0  0  0  0  0
    8.8800   -2.4476   11.8217 C   0  0  0  0  0  0  0  0  0  0  0  0
    9.1906   -2.8172   13.1023 C   0  0  0  0  0  0  0  0  0  0  0  0
    8.5987   -3.9454   13.6268 C   0  0  0  0  0  0  0  0  0  0  0  0
    7.7121   -4.7092   12.9165 C   0  0  0  0  0  0  0  0  0  0  0  0
    7.3648   -4.3597   11.5901 C   0  0  0  0  0  0  0  0  0  0  0  0
    7.9809   -3.2274   11.1096 C   0  0  0  0  0  0  0  0  0  0  0  0
    6.4868   -5.1308   10.9175 O   0  0  0  0  0  0  0  0  0  0  0  0
    6.4573   -5.9053    9.8237 C   0  0  0  0  0  0  0  0  0  0  0  0
    5.3926   -6.9417    9.7120 C   0  0  0  0  0  0  0  0  0  0  0  0
    5.5692   -8.1920    9.1785 C   0  0  0  0  0  0  0  0  0  0  0  0
    4.5634   -9.1367    9.0966 C   0  0  0  0  0  0  0  0  0  0  0  0
    3.3114   -8.8384    9.5655 C   0  0  0  0  0  0  0  0  0  0  0  0
    3.0676   -7.6040   10.1115 C   0  0  0  0  0  0  0  0  0  0  0  0
    4.1044   -6.6790   10.1763 C   0  0  0  0  0  0  0  0  0  0  0  0
    1.7663   -7.2251   10.6392 C   0  0  0  0  0  0  0  0  0  0  0  0
    1.0055   -6.3098    9.9655 C   0  0  0  0  0  0  0  0  0  0  0  0
    1.5592   -5.7312    8.7173 C   0  0  0  0  0  0  0  0  0  0  0  0
   -0.2559   -5.9399   10.4533 C   0  0  0  0  0  0  0  0  0  0  0  0
   -0.7630   -6.4845   11.6210 C   0  0  0  0  0  0  0  0  0  0  0  0
    0.0388   -7.4178   12.2883 C   0  0  0  0  0  0  0  0  0  0  0  0
    1.2604   -7.7607   11.7929 C   0  0  0  0  0  0  0  0  0  0  0  0
    2.1171   -8.7664   12.5146 C   0  0  0  0  0  0  0  0  0  0  0  0
   -1.9799   -6.1530   12.1282 O   0  0  0  0  0  0  0  0  0  0  0  0
   -2.9266   -5.2705   11.7160 C   0  0  0  0  0  0  0  0  0  0  0  0
   -4.2426   -5.2548   12.4236 C   0  0  0  0  0  0  0  0  0  0  0  0
   -4.0198   -4.8879   13.8811 C   0  0  0  0  0  0  0  0  0  0  0  0
   -4.4733   -3.1760   14.1215 S   0  0  0  0  0  6  0  0  0  0  0  0
   -5.8333   -3.0596   14.7491 O   0  0  0  0  0  0  0  0  0  0  0  0
   -4.4867   -2.5153   12.7731 O   0  0  0  0  0  0  0  0  0  0  0  0
   -3.2297   -2.4032   15.1159 C   0  0  0  0  0  0  0  0  0  0  0  0
  1  2  1  0
  2  3  2  0
  2  4  1  0
  5  4  1  1
  5  6  1  0
  6  7  1  0
  7  8  1  0
  8  9  2  0
  9 10  1  0
 10 11  2  0
 11 12  1  0
 12 13  2  0
 12 14  1  0
 14 15  1  0
 15 16  1  0
 16 17  2  0
 17 18  1  0
 18 19  2  0
 19 20  1  0
 20 21  2  0
 20 22  1  0
 22 23  2  0
 23 24  1  0
 23 25  1  0
 25 26  2  0
 26 27  1  0
 27 28  2  0
 28 29  1  0
 26 30  1  0
 30 31  1  0
 31 32  1  0
 32 33  1  0
 33 34  1  0
 34 35  2  0
 34 36  2  0
 34 37  1  0
  9  5  1  0
 21 16  1  0
 28 22  1  0
 13  8  1  0
M  CHG  1   1  -1
M  END
$$$$
