
     RDKit          3D

 37 40  0  0  0  0  0  0  0  0999 V2000
    2.0488    0.6193   10.5745 O   0  0  0  0  0  1  0  0  0  0  0  0
    2.7862   -0.3435   11.2776 C   0  0  0  0  0  0  0  0  0  0  0  0
    3.4668    0.0384   12.2573 O   0  0  0  0  0  0  0  0  0  0  0  0
    2.7706   -1.7627   10.8833 C   0  0  0  0  0  0  0  0  0  0  0  0
    3.5862   -2.6331   11.8309 C   0  0  2  0  0  0  0  0  0  0  0  0
    4.9264   -2.0096   12.0395 C   0  0  0  0  0  0  0  0  0  0  0  0
    5.7851   -2.7088   11.1956 O   0  0  0  0  0  0  0  0  0  0  0  0
    5.2071   -3.9370   10.8599 C   0  0  0  0  0  0  0  0  0  0  0  0
    3.8890   -3.9418   11.2281 C   0  0  0  0  0  0  0  0  0  0  0  0
    3.1382   -5.0707   10.9829 C   0  0  0  0  0  0  0  0  0  0  0  0
    3.6599   -6.1860   10.3846 C   0  0  0  0  0  0  0  0  0  0  0  0
    5.0180   -6.2197    9.9886 C   0  0  0  0  0  0  0  0  0  0  0  0
    5.7272   -5.0713   10.2545 C   0  0  0  0  0  0  0  0  0  0  0  0
    5.5017   -7.3320    9.3996 O   0  0  0  0  0  0  0  0  0  0  0  0
    5.0408   -8.4760    8.8746 C   0  0  0  0  0  0  0  0  0  0  0  0
    6.0115   -9.4126    8.2418 C   0  0  0  0  0  0  0  0  0  0  0  0
    6.6510   -9.1908    7.0497 C   0  0  0  0  0  0  0  0  0  0  0  0
    7.5547  -10.0752    6.4913 C   0  0  0  0  0  0  0  0  0  0  0  0
    7.8492  -11.2453    7.1397 C   0  0  0  0  0  0  0  0  0  0  0  0
    7.2434  -11.5286    8.3372 C   0  0  0  0  0  0  0  0  0  0  0  0
    6.3388  -10.6147    8.8678 C   0  0  0  0  0  0  0  0  0  0  0  0
    7.5186  -12.7456    9.0848 C   0  0  0  0  0  0  0  0  0  0  0  0
    6.7407  -13.8521    8.8823 C   0  0  0  0  0  0  0  0  0  0  0  0
    5.6307  -13.7508    7.9042 C   0  0  0  0  0  0  0  0  0  0  0  0
    6.9974  -15.0374    9.5861 C   0  0  0  0  0  0  0  0  0  0  0  0
    8.0352  -15.1211   10.4988 C   0  0  0  0  0  0  0  0  0  0  0  0
    8.8130  -13.9723   10.6848 C   0  0  0  0  0  0  0  0  0  0  0  0
    8.5434  -12.8334    9.9880 C   0  0  0  0  0  0  0  0  0  0  0  0
    9.3849  -11.6019   10.1915 C   0  0  0  0  0  0  0  0  0  0  0  0
    8.3172  -16.2499   11.2018 O   0  0  0  0  0  0  0  0  0  0  0  0
    7.6563  -17.4297   11.3299 C   0  0  0  0  0  0  0  0  0  0  0  0
    8.3204  -18.5412   12.0758 C   0  0  0  0  0  0  0  0  0  0  0  0
    8.7334  -18.0415   13.4500 C   0  0  0  0  0  0  0  0  0  0  0  0
   10.1714  -18.9558   13.9888 S   0  0  0  0  0  6  0  0  0  0  0  0
   10.0842  -19.2887   15.4512 O   0  0  0  0  0  0  0  0  0  0  0  0
   11.3766  -18.0944   13.7430 O   0  0  0  0  0  0  0  0  0  0  0  0
   10.3093  -20.4152   12.9968 C   0  0  0  0  0  0  0  0  0  0  0  0
  1  2  1  0
  2  3  2  0
  2  4  1  0
  5  4  1  6
  5  6  1  0
  6  7  1  0
  7  8  1  0
  8  9  2  0
  9 10  1  0
 10 11  2  0
 11 12  1  0
 12 13  2  0
 12 14  1  0
 14 15  1  0
 15 16  1  0
 16 17  2  0
 17 18  1  0
 18 19  2  0
 19 20  1  0
 20 21  2  0
 20 22  1  0
 22 23  2  0
 23 24  1  0
 23 25  1  0
 25 26  2  0
 26 27  1  0
 27 28  2  0
 28 29  1  0
 26 30  1  0
 30 31  1  0
 31 32  1  0
 32 33  1  0
 33 34  1  0
 34 35  2  0
 34 36  2  0
 34 37  1  0
  9  5  1  0
 21 16  1  0
 28 22  1  0
 13  8  1  0
M  CHG  1   1  -1
M  END
$$$$
