
     RDKit          3D

 37 40  0  0  0  0  0  0  0  0999 V2000
    9.5606    3.7732  -16.6450 O   0  0  0  0  0  1  0  0  0  0  0  0
   10.6750    4.3704  -16.0394 C   0  0  0  0  0  0  0  0  0  0  0  0
   11.3927    5.1202  -16.7404 O   0  0  0  0  0  0  0  0  0  0  0  0
   11.0024    4.1281  -14.6238 C   0  0  0  0  0  0  0  0  0  0  0  0
    9.7684    4.1717  -13.7314 C   0  0  2  0  0  0  0  0  0  0  0  0
    9.3354    5.5902  -13.5611 C   0  0  0  0  0  0  0  0  0  0  0  0
    9.8345    5.9733  -12.3191 O   0  0  0  0  0  0  0  0  0  0  0  0
   10.1163    4.8330  -11.5606 C   0  0  0  0  0  0  0  0  0  0  0  0
   10.0814    3.7254  -12.3637 C   0  0  0  0  0  0  0  0  0  0  0  0
   10.3328    2.4929  -11.8014 C   0  0  0  0  0  0  0  0  0  0  0  0
   10.6169    2.3347  -10.4716 C   0  0  0  0  0  0  0  0  0  0  0  0
   10.6630    3.4554   -9.6089 C   0  0  0  0  0  0  0  0  0  0  0  0
   10.4048    4.6633  -10.2146 C   0  0  0  0  0  0  0  0  0  0  0  0
   10.9478    3.2673   -8.3045 O   0  0  0  0  0  0  0  0  0  0  0  0
   11.2765    2.2632   -7.4794 C   0  0  0  0  0  0  0  0  0  0  0  0
   11.3253    2.5306   -6.0145 C   0  0  0  0  0  0  0  0  0  0  0  0
   10.2314    2.7788   -5.2264 C   0  0  0  0  0  0  0  0  0  0  0  0
   10.3071    3.0147   -3.8666 C   0  0  0  0  0  0  0  0  0  0  0  0
   11.5265    3.0063   -3.2425 C   0  0  0  0  0  0  0  0  0  0  0  0
   12.6614    2.7645   -3.9738 C   0  0  0  0  0  0  0  0  0  0  0  0
   12.5459    2.5320   -5.3404 C   0  0  0  0  0  0  0  0  0  0  0  0
   13.9860    2.7287   -3.3740 C   0  0  0  0  0  0  0  0  0  0  0  0
   14.6110    1.5262   -3.1901 C   0  0  0  0  0  0  0  0  0  0  0  0
   13.8909    0.2987   -3.6069 C   0  0  0  0  0  0  0  0  0  0  0  0
   15.8923    1.4727   -2.6231 C   0  0  0  0  0  0  0  0  0  0  0  0
   16.5555    2.6247   -2.2353 C   0  0  0  0  0  0  0  0  0  0  0  0
   15.8900    3.8398   -2.4355 C   0  0  0  0  0  0  0  0  0  0  0  0
   14.6458    3.8647   -2.9892 C   0  0  0  0  0  0  0  0  0  0  0  0
   13.9363    5.1750   -3.2034 C   0  0  0  0  0  0  0  0  0  0  0  0
   17.7970    2.6167   -1.6817 O   0  0  0  0  0  0  0  0  0  0  0  0
   18.6570    1.6057   -1.3932 C   0  0  0  0  0  0  0  0  0  0  0  0
   19.9807    1.9465   -0.7896 C   0  0  0  0  0  0  0  0  0  0  0  0
   19.7943    2.2305    0.6913 C   0  0  0  0  0  0  0  0  0  0  0  0
   21.0849    1.3986    1.6058 S   0  0  0  0  0  6  0  0  0  0  0  0
   20.5363    0.7436    2.8415 O   0  0  0  0  0  0  0  0  0  0  0  0
   22.1030    2.4307    1.9970 O   0  0  0  0  0  0  0  0  0  0  0  0
   21.8584    0.2211    0.5344 C   0  0  0  0  0  0  0  0  0  0  0  0
  1  2  1  0
  2  3  2  0
  2  4  1  0
  5  4  1  6
  5  6  1  0
  6  7  1  0
  7  8  1  0
  8  9  2  0
  9 10  1  0
 10 11  2  0
 11 12  1  0
 12 13  2  0
 12 14  1  0
 14 15  1  0
 15 16  1  0
 16 17  2  0
 17 18  1  0
 18 19  2  0
 19 20  1  0
 20 21  2  0
 20 22  1  0
 22 23  2  0
 23 24  1  0
 23 25  1  0
 25 26  2  0
 26 27  1  0
 27 28  2  0
 28 29  1  0
 26 30  1  0
 30 31  1  0
 31 32  1  0
 32 33  1  0
 33 34  1  0
 34 35  2  0
 34 36  2  0
 34 37  1  0
  9  5  1  0
 21 16  1  0
 28 22  1  0
 13  8  1  0
M  CHG  1   1  -1
M  END
$$$$
