
     RDKit          3D

 37 40  0  0  0  0  0  0  0  0999 V2000
    0.6749    1.2887   14.0022 O   0  0  0  0  0  1  0  0  0  0  0  0
    1.3249    0.7020   12.9075 C   0  0  0  0  0  0  0  0  0  0  0  0
    1.0977    1.1717   11.7689 O   0  0  0  0  0  0  0  0  0  0  0  0
    2.2467   -0.4342   13.0795 C   0  0  0  0  0  0  0  0  0  0  0  0
    3.4824   -0.3123   12.1969 C   0  0  2  0  0  0  0  0  0  0  0  0
    3.1058    0.3510   10.9136 C   0  0  0  0  0  0  0  0  0  0  0  0
    2.9661   -0.6882    9.9976 O   0  0  0  0  0  0  0  0  0  0  0  0
    3.6416   -1.8173   10.4706 C   0  0  0  0  0  0  0  0  0  0  0  0
    3.9780   -1.6360   11.7847 C   0  0  0  0  0  0  0  0  0  0  0  0
    4.6557   -2.6418   12.4385 C   0  0  0  0  0  0  0  0  0  0  0  0
    5.0039   -3.8147   11.8244 C   0  0  0  0  0  0  0  0  0  0  0  0
    4.6733   -4.0402   10.4671 C   0  0  0  0  0  0  0  0  0  0  0  0
    3.9984   -3.0086    9.8565 C   0  0  0  0  0  0  0  0  0  0  0  0
    5.0279   -5.2067    9.8912 O   0  0  0  0  0  0  0  0  0  0  0  0
    5.6094   -6.3645   10.2349 C   0  0  0  0  0  0  0  0  0  0  0  0
    5.8693   -7.3755    9.1717 C   0  0  0  0  0  0  0  0  0  0  0  0
    5.8744   -7.1139    7.8261 C   0  0  0  0  0  0  0  0  0  0  0  0
    6.1282   -8.0719    6.8625 C   0  0  0  0  0  0  0  0  0  0  0  0
    6.3929   -9.3617    7.2401 C   0  0  0  0  0  0  0  0  0  0  0  0
    6.4028   -9.6906    8.5716 C   0  0  0  0  0  0  0  0  0  0  0  0
    6.1422   -8.6998    9.5125 C   0  0  0  0  0  0  0  0  0  0  0  0
    6.6882  -11.0366    9.0431 C   0  0  0  0  0  0  0  0  0  0  0  0
    7.9124  -11.3163    9.5850 C   0  0  0  0  0  0  0  0  0  0  0  0
    8.9075  -10.2190    9.6549 C   0  0  0  0  0  0  0  0  0  0  0  0
    8.2020  -12.6054   10.0544 C   0  0  0  0  0  0  0  0  0  0  0  0
    7.2665  -13.6236    9.9826 C   0  0  0  0  0  0  0  0  0  0  0  0
    6.0234  -13.3070    9.4226 C   0  0  0  0  0  0  0  0  0  0  0  0
    5.7667  -12.0465    8.9746 C   0  0  0  0  0  0  0  0  0  0  0  0
    4.4270  -11.7122    8.3749 C   0  0  0  0  0  0  0  0  0  0  0  0
    7.5070  -14.8862   10.4253 O   0  0  0  0  0  0  0  0  0  0  0  0
    8.6068  -15.4618   10.9769 C   0  0  0  0  0  0  0  0  0  0  0  0
    8.5254  -16.8922   11.4013 C   0  0  0  0  0  0  0  0  0  0  0  0
    9.7815  -17.6179   10.9495 C   0  0  0  0  0  0  0  0  0  0  0  0
    9.9595  -19.1156   11.9081 S   0  0  0  0  0  6  0  0  0  0  0  0
    8.6362  -19.8042   12.0868 O   0  0  0  0  0  0  0  0  0  0  0  0
   10.5096  -18.7329   13.2520 O   0  0  0  0  0  0  0  0  0  0  0  0
   11.1329  -20.1625   11.0958 C   0  0  0  0  0  0  0  0  0  0  0  0
  1  2  1  0
  2  3  2  0
  2  4  1  0
  5  4  1  1
  5  6  1  0
  6  7  1  0
  7  8  1  0
  8  9  2  0
  9 10  1  0
 10 11  2  0
 11 12  1  0
 12 13  2  0
 12 14  1  0
 14 15  1  0
 15 16  1  0
 16 17  2  0
 17 18  1  0
 18 19  2  0
 19 20  1  0
 20 21  2  0
 20 22  1  0
 22 23  2  0
 23 24  1  0
 23 25  1  0
 25 26  2  0
 26 27  1  0
 27 28  2  0
 28 29  1  0
 26 30  1  0
 30 31  1  0
 31 32  1  0
 32 33  1  0
 33 34  1  0
 34 35  2  0
 34 36  2  0
 34 37  1  0
  9  5  1  0
 21 16  1  0
 28 22  1  0
 13  8  1  0
M  CHG  1   1  -1
M  END
$$$$
