
     RDKit          3D

 37 40  0  0  0  0  0  0  0  0999 V2000
    0.2198   -0.0324   13.4533 O   0  0  0  0  0  1  0  0  0  0  0  0
    0.6565    0.7621   12.3841 C   0  0  0  0  0  0  0  0  0  0  0  0
    0.5526    2.0052   12.4956 O   0  0  0  0  0  0  0  0  0  0  0  0
    1.2192    0.1634   11.1614 C   0  0  0  0  0  0  0  0  0  0  0  0
    2.7422    0.1983   11.1511 C   0  0  2  0  0  0  0  0  0  0  0  0
    3.2092    0.8875    9.9120 C   0  0  0  0  0  0  0  0  0  0  0  0
    3.5611   -0.1385    9.0391 O   0  0  0  0  0  0  0  0  0  0  0  0
    3.7764   -1.3130    9.7666 C   0  0  0  0  0  0  0  0  0  0  0  0
    3.3075   -1.1569   11.0428 C   0  0  0  0  0  0  0  0  0  0  0  0
    3.4280   -2.2085   11.9247 C   0  0  0  0  0  0  0  0  0  0  0  0
    3.9975   -3.4027   11.5727 C   0  0  0  0  0  0  0  0  0  0  0  0
    4.4933   -3.6033   10.2627 C   0  0  0  0  0  0  0  0  0  0  0  0
    4.3519   -2.5261    9.4188 C   0  0  0  0  0  0  0  0  0  0  0  0
    5.0466   -4.7915    9.9460 O   0  0  0  0  0  0  0  0  0  0  0  0
    5.1765   -6.0158   10.4760 C   0  0  0  0  0  0  0  0  0  0  0  0
    5.9882   -7.0279    9.7433 C   0  0  0  0  0  0  0  0  0  0  0  0
    6.7923   -6.7571    8.6666 C   0  0  0  0  0  0  0  0  0  0  0  0
    7.5416   -7.7166    8.0121 C   0  0  0  0  0  0  0  0  0  0  0  0
    7.5008   -9.0178    8.4384 C   0  0  0  0  0  0  0  0  0  0  0  0
    6.7155   -9.3562    9.5107 C   0  0  0  0  0  0  0  0  0  0  0  0
    5.9748   -8.3635   10.1437 C   0  0  0  0  0  0  0  0  0  0  0  0
    6.6345  -10.7150   10.0234 C   0  0  0  0  0  0  0  0  0  0  0  0
    7.1954  -11.0135   11.2345 C   0  0  0  0  0  0  0  0  0  0  0  0
    7.8793   -9.9228   11.9706 C   0  0  0  0  0  0  0  0  0  0  0  0
    7.1183  -12.3153   11.7498 C   0  0  0  0  0  0  0  0  0  0  0  0
    6.4792  -13.3273   11.0536 C   0  0  0  0  0  0  0  0  0  0  0  0
    5.9158  -12.9912    9.8171 C   0  0  0  0  0  0  0  0  0  0  0  0
    6.0037  -11.7188    9.3392 C   0  0  0  0  0  0  0  0  0  0  0  0
    5.3940  -11.3636    8.0094 C   0  0  0  0  0  0  0  0  0  0  0  0
    6.3828  -14.6016   11.5168 O   0  0  0  0  0  0  0  0  0  0  0  0
    6.7034  -15.1608   12.7125 C   0  0  0  0  0  0  0  0  0  0  0  0
    6.2348  -16.5507   12.9977 C   0  0  0  0  0  0  0  0  0  0  0  0
    6.8890  -17.5079   12.0157 C   0  0  0  0  0  0  0  0  0  0  0  0
    8.0131  -18.5723   12.9086 S   0  0  0  0  0  6  0  0  0  0  0  0
    7.4600  -18.9330   14.2581 O   0  0  0  0  0  0  0  0  0  0  0  0
    9.3053  -17.8270   13.0808 O   0  0  0  0  0  0  0  0  0  0  0  0
    8.3190  -20.0119   11.9254 C   0  0  0  0  0  0  0  0  0  0  0  0
  1  2  1  0
  2  3  2  0
  2  4  1  0
  5  4  1  6
  5  6  1  0
  6  7  1  0
  7  8  1  0
  8  9  2  0
  9 10  1  0
 10 11  2  0
 11 12  1  0
 12 13  2  0
 12 14  1  0
 14 15  1  0
 15 16  1  0
 16 17  2  0
 17 18  1  0
 18 19  2  0
 19 20  1  0
 20 21  2  0
 20 22  1  0
 22 23  2  0
 23 24  1  0
 23 25  1  0
 25 26  2  0
 26 27  1  0
 27 28  2  0
 28 29  1  0
 26 30  1  0
 30 31  1  0
 31 32  1  0
 32 33  1  0
 33 34  1  0
 34 35  2  0
 34 36  2  0
 34 37  1  0
  9  5  1  0
 21 16  1  0
 28 22  1  0
 13  8  1  0
M  CHG  1   1  -1
M  END
$$$$
