
     RDKit          3D

 37 40  0  0  0  0  0  0  0  0999 V2000
   11.1165   -0.5266  -12.3885 O   0  0  0  0  0  1  0  0  0  0  0  0
   11.0902    0.6726  -11.6630 C   0  0  0  0  0  0  0  0  0  0  0  0
   11.0122    1.7455  -12.3045 O   0  0  0  0  0  0  0  0  0  0  0  0
   11.1545    0.6821  -10.1913 C   0  0  0  0  0  0  0  0  0  0  0  0
   11.1828    2.0961   -9.6250 C   0  0  2  0  0  0  0  0  0  0  0  0
   12.5626    2.4060   -9.1468 C   0  0  0  0  0  0  0  0  0  0  0  0
   12.5183    2.2149   -7.7683 O   0  0  0  0  0  0  0  0  0  0  0  0
   11.1897    2.2658   -7.3355 C   0  0  0  0  0  0  0  0  0  0  0  0
   10.3508    2.2044   -8.4151 C   0  0  0  0  0  0  0  0  0  0  0  0
    8.9907    2.2423   -8.1985 C   0  0  0  0  0  0  0  0  0  0  0  0
    8.4473    2.3379   -6.9456 C   0  0  0  0  0  0  0  0  0  0  0  0
    9.2813    2.4029   -5.8043 C   0  0  0  0  0  0  0  0  0  0  0  0
   10.6305    2.3626   -6.0700 C   0  0  0  0  0  0  0  0  0  0  0  0
    8.7158    2.4941   -4.5836 O   0  0  0  0  0  0  0  0  0  0  0  0
    7.4995    2.4055   -4.0272 C   0  0  0  0  0  0  0  0  0  0  0  0
    7.1704    3.3035   -2.8848 C   0  0  0  0  0  0  0  0  0  0  0  0
    7.1226    4.6719   -2.9523 C   0  0  0  0  0  0  0  0  0  0  0  0
    6.8049    5.4793   -1.8763 C   0  0  0  0  0  0  0  0  0  0  0  0
    6.5167    4.9121   -0.6632 C   0  0  0  0  0  0  0  0  0  0  0  0
    6.5469    3.5476   -0.5277 C   0  0  0  0  0  0  0  0  0  0  0  0
    6.8715    2.7676   -1.6327 C   0  0  0  0  0  0  0  0  0  0  0  0
    6.2399    2.8788    0.7269 C   0  0  0  0  0  0  0  0  0  0  0  0
    4.9377    2.7630    1.1286 C   0  0  0  0  0  0  0  0  0  0  0  0
    3.8882    3.3447    0.2573 C   0  0  0  0  0  0  0  0  0  0  0  0
    4.6216    2.1124    2.3298 C   0  0  0  0  0  0  0  0  0  0  0  0
    5.6093    1.5744    3.1374 C   0  0  0  0  0  0  0  0  0  0  0  0
    6.9321    1.7093    2.7002 C   0  0  0  0  0  0  0  0  0  0  0  0
    7.2126    2.3451    1.5287 C   0  0  0  0  0  0  0  0  0  0  0  0
    8.6373    2.4852    1.0632 C   0  0  0  0  0  0  0  0  0  0  0  0
    5.3459    0.9370    4.3088 O   0  0  0  0  0  0  0  0  0  0  0  0
    4.2190    0.3522    4.7919 C   0  0  0  0  0  0  0  0  0  0  0  0
    4.3006   -0.3919    6.0851 C   0  0  0  0  0  0  0  0  0  0  0  0
    5.1953   -1.6066    5.9051 C   0  0  0  0  0  0  0  0  0  0  0  0
    6.1153   -1.8748    7.4136 S   0  0  0  0  0  6  0  0  0  0  0  0
    5.9798   -3.2949    7.8848 O   0  0  0  0  0  0  0  0  0  0  0  0
    5.5604   -0.9471    8.4559 O   0  0  0  0  0  0  0  0  0  0  0  0
    7.8071   -1.4457    7.1198 C   0  0  0  0  0  0  0  0  0  0  0  0
  1  2  1  0
  2  3  2  0
  2  4  1  0
  5  4  1  1
  5  6  1  0
  6  7  1  0
  7  8  1  0
  8  9  2  0
  9 10  1  0
 10 11  2  0
 11 12  1  0
 12 13  2  0
 12 14  1  0
 14 15  1  0
 15 16  1  0
 16 17  2  0
 17 18  1  0
 18 19  2  0
 19 20  1  0
 20 21  2  0
 20 22  1  0
 22 23  2  0
 23 24  1  0
 23 25  1  0
 25 26  2  0
 26 27  1  0
 27 28  2  0
 28 29  1  0
 26 30  1  0
 30 31  1  0
 31 32  1  0
 32 33  1  0
 33 34  1  0
 34 35  2  0
 34 36  2  0
 34 37  1  0
  9  5  1  0
 21 16  1  0
 28 22  1  0
 13  8  1  0
M  CHG  1   1  -1
M  END
$$$$
