
     RDKit          3D

 37 40  0  0  0  0  0  0  0  0999 V2000
   10.1595    2.7572  -17.4118 O   0  0  0  0  0  1  0  0  0  0  0  0
   10.4875    3.8082  -16.5441 C   0  0  0  0  0  0  0  0  0  0  0  0
   10.9947    4.8412  -17.0384 O   0  0  0  0  0  0  0  0  0  0  0  0
   10.2498    3.7100  -15.0936 C   0  0  0  0  0  0  0  0  0  0  0  0
   11.1785    2.7048  -14.4243 C   0  0  2  0  0  0  0  0  0  0  0  0
   10.5324    1.3590  -14.4314 C   0  0  0  0  0  0  0  0  0  0  0  0
    9.9977    1.2086  -13.1546 O   0  0  0  0  0  0  0  0  0  0  0  0
   10.6298    2.0973  -12.2795 C   0  0  0  0  0  0  0  0  0  0  0  0
   11.3562    3.0101  -12.9950 C   0  0  0  0  0  0  0  0  0  0  0  0
   12.0592    3.9779  -12.3112 C   0  0  0  0  0  0  0  0  0  0  0  0
   12.0577    4.0613  -10.9448 C   0  0  0  0  0  0  0  0  0  0  0  0
   11.3185    3.1366  -10.1697 C   0  0  0  0  0  0  0  0  0  0  0  0
   10.6341    2.1893  -10.8956 C   0  0  0  0  0  0  0  0  0  0  0  0
   11.3351    3.2465   -8.8259 O   0  0  0  0  0  0  0  0  0  0  0  0
   11.8252    4.0695   -7.8881 C   0  0  0  0  0  0  0  0  0  0  0  0
   11.7632    3.6430   -6.4618 C   0  0  0  0  0  0  0  0  0  0  0  0
   12.8535    3.3635   -5.6794 C   0  0  0  0  0  0  0  0  0  0  0  0
   12.7649    2.9784   -4.3549 C   0  0  0  0  0  0  0  0  0  0  0  0
   11.5355    2.8611   -3.7624 C   0  0  0  0  0  0  0  0  0  0  0  0
   10.4034    3.1261   -4.4900 C   0  0  0  0  0  0  0  0  0  0  0  0
   10.5321    3.5104   -5.8206 C   0  0  0  0  0  0  0  0  0  0  0  0
    9.0680    3.0334   -3.9211 C   0  0  0  0  0  0  0  0  0  0  0  0
    8.3262    4.1700   -3.7525 C   0  0  0  0  0  0  0  0  0  0  0  0
    8.9345    5.4617   -4.1531 C   0  0  0  0  0  0  0  0  0  0  0  0
    7.0330    4.0992   -3.2154 C   0  0  0  0  0  0  0  0  0  0  0  0
    6.4748    2.8882   -2.8424 C   0  0  0  0  0  0  0  0  0  0  0  0
    7.2583    1.7430   -3.0264 C   0  0  0  0  0  0  0  0  0  0  0  0
    8.5117    1.8387   -3.5511 C   0  0  0  0  0  0  0  0  0  0  0  0
    9.3486    0.6030   -3.7480 C   0  0  0  0  0  0  0  0  0  0  0  0
    5.2258    2.7759   -2.3177 O   0  0  0  0  0  0  0  0  0  0  0  0
    4.4990    1.6981   -1.9238 C   0  0  0  0  0  0  0  0  0  0  0  0
    3.0893    1.9137   -1.4776 C   0  0  0  0  0  0  0  0  0  0  0  0
    3.0731    2.1528    0.0228 C   0  0  0  0  0  0  0  0  0  0  0  0
    1.3908    2.0179    0.6109 S   0  0  0  0  0  6  0  0  0  0  0  0
    0.6505    0.9290   -0.1125 O   0  0  0  0  0  0  0  0  0  0  0  0
    0.7141    3.3347    0.3597 O   0  0  0  0  0  0  0  0  0  0  0  0
    1.4310    1.7283    2.3565 C   0  0  0  0  0  0  0  0  0  0  0  0
  1  2  1  0
  2  3  2  0
  2  4  1  0
  5  4  1  1
  5  6  1  0
  6  7  1  0
  7  8  1  0
  8  9  2  0
  9 10  1  0
 10 11  2  0
 11 12  1  0
 12 13  2  0
 12 14  1  0
 14 15  1  0
 15 16  1  0
 16 17  2  0
 17 18  1  0
 18 19  2  0
 19 20  1  0
 20 21  2  0
 20 22  1  0
 22 23  2  0
 23 24  1  0
 23 25  1  0
 25 26  2  0
 26 27  1  0
 27 28  2  0
 28 29  1  0
 26 30  1  0
 30 31  1  0
 31 32  1  0
 32 33  1  0
 33 34  1  0
 34 35  2  0
 34 36  2  0
 34 37  1  0
  9  5  1  0
 21 16  1  0
 28 22  1  0
 13  8  1  0
M  CHG  1   1  -1
M  END
$$$$
