
     RDKit          3D

 37 40  0  0  0  0  0  0  0  0999 V2000
   13.5531    4.0388  -13.8837 O   0  0  0  0  0  1  0  0  0  0  0  0
   12.1902    3.7731  -13.6914 C   0  0  0  0  0  0  0  0  0  0  0  0
   11.4778    3.5945  -14.7060 O   0  0  0  0  0  0  0  0  0  0  0  0
   11.6030    3.7065  -12.3420 C   0  0  0  0  0  0  0  0  0  0  0  0
   11.9520    2.4082  -11.6253 C   0  0  2  0  0  0  0  0  0  0  0  0
   11.1646    1.2900  -12.2237 C   0  0  0  0  0  0  0  0  0  0  0  0
   10.0976    1.0926  -11.3513 O   0  0  0  0  0  0  0  0  0  0  0  0
   10.4076    1.6481  -10.1062 C   0  0  0  0  0  0  0  0  0  0  0  0
   11.5178    2.4404  -10.2187 C   0  0  0  0  0  0  0  0  0  0  0  0
   11.9891    3.0818   -9.0942 C   0  0  0  0  0  0  0  0  0  0  0  0
   11.3889    2.9575   -7.8700 C   0  0  0  0  0  0  0  0  0  0  0  0
   10.2388    2.1483   -7.7131 C   0  0  0  0  0  0  0  0  0  0  0  0
    9.8061    1.5279   -8.8622 C   0  0  0  0  0  0  0  0  0  0  0  0
    9.6691    2.0480   -6.4951 O   0  0  0  0  0  0  0  0  0  0  0  0
   10.0067    2.2112   -5.2081 C   0  0  0  0  0  0  0  0  0  0  0  0
    8.9313    2.1691   -4.1777 C   0  0  0  0  0  0  0  0  0  0  0  0
    7.9897    3.1470   -3.9874 C   0  0  0  0  0  0  0  0  0  0  0  0
    6.9973    3.0757   -3.0280 C   0  0  0  0  0  0  0  0  0  0  0  0
    6.9232    1.9815   -2.2072 C   0  0  0  0  0  0  0  0  0  0  0  0
    7.8357    0.9668   -2.3451 C   0  0  0  0  0  0  0  0  0  0  0  0
    8.8206    1.0742   -3.3215 C   0  0  0  0  0  0  0  0  0  0  0  0
    7.8081   -0.2282   -1.5164 C   0  0  0  0  0  0  0  0  0  0  0  0
    8.7242   -0.3735   -0.5114 C   0  0  0  0  0  0  0  0  0  0  0  0
    9.7231    0.7060   -0.3213 C   0  0  0  0  0  0  0  0  0  0  0  0
    8.7066   -1.5138    0.3044 C   0  0  0  0  0  0  0  0  0  0  0  0
    7.7709   -2.5171    0.1173 C   0  0  0  0  0  0  0  0  0  0  0  0
    6.8472   -2.3403   -0.9193 C   0  0  0  0  0  0  0  0  0  0  0  0
    6.8851   -1.2227   -1.6972 C   0  0  0  0  0  0  0  0  0  0  0  0
    5.8876   -1.0379   -2.8094 C   0  0  0  0  0  0  0  0  0  0  0  0
    7.7198   -3.6379    0.8848 O   0  0  0  0  0  0  0  0  0  0  0  0
    6.8746   -4.7012    0.8855 C   0  0  0  0  0  0  0  0  0  0  0  0
    7.0732   -5.7689    1.9119 C   0  0  0  0  0  0  0  0  0  0  0  0
    6.9276   -5.1613    3.2968 C   0  0  0  0  0  0  0  0  0  0  0  0
    8.1456   -5.8943    4.3800 S   0  0  0  0  0  6  0  0  0  0  0  0
    8.2351   -7.3789    4.1674 O   0  0  0  0  0  0  0  0  0  0  0  0
    7.7231   -5.6162    5.7939 O   0  0  0  0  0  0  0  0  0  0  0  0
    9.7008   -5.1008    4.0896 C   0  0  0  0  0  0  0  0  0  0  0  0
  1  2  1  0
  2  3  2  0
  2  4  1  0
  5  4  1  6
  5  6  1  0
  6  7  1  0
  7  8  1  0
  8  9  2  0
  9 10  1  0
 10 11  2  0
 11 12  1  0
 12 13  2  0
 12 14  1  0
 14 15  1  0
 15 16  1  0
 16 17  2  0
 17 18  1  0
 18 19  2  0
 19 20  1  0
 20 21  2  0
 20 22  1  0
 22 23  2  0
 23 24  1  0
 23 25  1  0
 25 26  2  0
 26 27  1  0
 27 28  2  0
 28 29  1  0
 26 30  1  0
 30 31  1  0
 31 32  1  0
 32 33  1  0
 33 34  1  0
 34 35  2  0
 34 36  2  0
 34 37  1  0
  9  5  1  0
 21 16  1  0
 28 22  1  0
 13  8  1  0
M  CHG  1   1  -1
M  END
$$$$
