
     RDKit          3D

 37 40  0  0  0  0  0  0  0  0999 V2000
    8.7653   -6.8639   16.1387 O   0  0  0  0  0  1  0  0  0  0  0  0
    8.8560   -6.8717   14.7398 C   0  0  0  0  0  0  0  0  0  0  0  0
    9.7883   -6.2260   14.2082 O   0  0  0  0  0  0  0  0  0  0  0  0
    7.8882   -7.6109   13.9110 C   0  0  0  0  0  0  0  0  0  0  0  0
    7.8983   -7.1458   12.4603 C   0  0  2  0  0  0  0  0  0  0  0  0
    8.8765   -6.0282   12.3098 C   0  0  0  0  0  0  0  0  0  0  0  0
    8.1053   -4.8691   12.3250 O   0  0  0  0  0  0  0  0  0  0  0  0
    6.7791   -5.1903   12.0201 C   0  0  0  0  0  0  0  0  0  0  0  0
    6.6078   -6.5467   12.0817 C   0  0  0  0  0  0  0  0  0  0  0  0
    5.3619   -7.0687   11.8107 C   0  0  0  0  0  0  0  0  0  0  0  0
    4.2898   -6.2827   11.4835 C   0  0  0  0  0  0  0  0  0  0  0  0
    4.4264   -4.8762   11.4102 C   0  0  0  0  0  0  0  0  0  0  0  0
    5.6876   -4.4018   11.6878 C   0  0  0  0  0  0  0  0  0  0  0  0
    3.3513   -4.1291   11.0877 O   0  0  0  0  0  0  0  0  0  0  0  0
    2.0143   -4.2184   11.1246 C   0  0  0  0  0  0  0  0  0  0  0  0
    1.2126   -2.9667   11.0225 C   0  0  0  0  0  0  0  0  0  0  0  0
    0.3702   -2.4942   11.9952 C   0  0  0  0  0  0  0  0  0  0  0  0
   -0.3545   -1.3233   11.8756 C   0  0  0  0  0  0  0  0  0  0  0  0
   -0.2467   -0.5712   10.7358 C   0  0  0  0  0  0  0  0  0  0  0  0
    0.5793   -0.9880    9.7233 C   0  0  0  0  0  0  0  0  0  0  0  0
    1.2923   -2.1721    9.8795 C   0  0  0  0  0  0  0  0  0  0  0  0
    0.7506   -0.2327    8.4921 C   0  0  0  0  0  0  0  0  0  0  0  0
    1.9447    0.3845    8.2400 C   0  0  0  0  0  0  0  0  0  0  0  0
    3.0180    0.2611    9.2558 C   0  0  0  0  0  0  0  0  0  0  0  0
    2.1319    1.1083    7.0538 C   0  0  0  0  0  0  0  0  0  0  0  0
    1.1226    1.2192    6.1124 C   0  0  0  0  0  0  0  0  0  0  0  0
   -0.0878    0.5774    6.3990 C   0  0  0  0  0  0  0  0  0  0  0  0
   -0.2440   -0.1203    7.5584 C   0  0  0  0  0  0  0  0  0  0  0  0
   -1.5478   -0.8097    7.8597 C   0  0  0  0  0  0  0  0  0  0  0  0
    1.2626    1.9114    4.9509 O   0  0  0  0  0  0  0  0  0  0  0  0
    0.3962    2.1711    3.9375 C   0  0  0  0  0  0  0  0  0  0  0  0
    0.8895    2.9466    2.7593 C   0  0  0  0  0  0  0  0  0  0  0  0
    1.4967    4.2530    3.2420 C   0  0  0  0  0  0  0  0  0  0  0  0
    1.6973    5.3480    1.8439 S   0  0  0  0  0  6  0  0  0  0  0  0
    2.7113    6.4175    2.1353 O   0  0  0  0  0  0  0  0  0  0  0  0
    0.3649    5.9838    1.5691 O   0  0  0  0  0  0  0  0  0  0  0  0
    2.1604    4.3786    0.4373 C   0  0  0  0  0  0  0  0  0  0  0  0
  1  2  1  0
  2  3  2  0
  2  4  1  0
  5  4  1  1
  5  6  1  0
  6  7  1  0
  7  8  1  0
  8  9  2  0
  9 10  1  0
 10 11  2  0
 11 12  1  0
 12 13  2  0
 12 14  1  0
 14 15  1  0
 15 16  1  0
 16 17  2  0
 17 18  1  0
 18 19  2  0
 19 20  1  0
 20 21  2  0
 20 22  1  0
 22 23  2  0
 23 24  1  0
 23 25  1  0
 25 26  2  0
 26 27  1  0
 27 28  2  0
 28 29  1  0
 26 30  1  0
 30 31  1  0
 31 32  1  0
 32 33  1  0
 33 34  1  0
 34 35  2  0
 34 36  2  0
 34 37  1  0
  9  5  1  0
 21 16  1  0
 28 22  1  0
 13  8  1  0
M  CHG  1   1  -1
M  END
$$$$
