
     RDKit          3D

 37 40  0  0  0  0  0  0  0  0999 V2000
    6.7351   -3.9422    7.2090 O   0  0  0  0  0  1  0  0  0  0  0  0
    6.9828   -3.8974    5.8300 C   0  0  0  0  0  0  0  0  0  0  0  0
    7.0002   -4.9803    5.2009 O   0  0  0  0  0  0  0  0  0  0  0  0
    7.2195   -2.6215    5.1327 C   0  0  0  0  0  0  0  0  0  0  0  0
    8.5677   -2.5937    4.4238 C   0  0  2  0  0  0  0  0  0  0  0  0
    9.5180   -1.7516    5.2089 C   0  0  0  0  0  0  0  0  0  0  0  0
    9.5292   -0.5197    4.5602 O   0  0  0  0  0  0  0  0  0  0  0  0
    9.0535   -0.6785    3.2550 C   0  0  0  0  0  0  0  0  0  0  0  0
    8.4739   -1.9111    3.1226 C   0  0  0  0  0  0  0  0  0  0  0  0
    7.9414   -2.2637    1.9018 C   0  0  0  0  0  0  0  0  0  0  0  0
    7.9693   -1.4282    0.8177 C   0  0  0  0  0  0  0  0  0  0  0  0
    8.5589   -0.1456    0.9146 C   0  0  0  0  0  0  0  0  0  0  0  0
    9.0774    0.1613    2.1514 C   0  0  0  0  0  0  0  0  0  0  0  0
    8.5687    0.6551   -0.1702 O   0  0  0  0  0  0  0  0  0  0  0  0
    8.1629    0.6265   -1.4475 C   0  0  0  0  0  0  0  0  0  0  0  0
    8.3065    1.8609   -2.2694 C   0  0  0  0  0  0  0  0  0  0  0  0
    7.6177    3.0272   -2.0585 C   0  0  0  0  0  0  0  0  0  0  0  0
    7.7790    4.1606   -2.8332 C   0  0  0  0  0  0  0  0  0  0  0  0
    8.6680    4.1502   -3.8753 C   0  0  0  0  0  0  0  0  0  0  0  0
    9.3894    3.0143   -4.1406 C   0  0  0  0  0  0  0  0  0  0  0  0
    9.1996    1.8929   -3.3397 C   0  0  0  0  0  0  0  0  0  0  0  0
   10.3583    2.9375   -5.2226 C   0  0  0  0  0  0  0  0  0  0  0  0
   10.0397    2.2592   -6.3667 C   0  0  0  0  0  0  0  0  0  0  0  0
    8.7060    1.6155   -6.4434 C   0  0  0  0  0  0  0  0  0  0  0  0
   10.9569    2.1834   -7.4245 C   0  0  0  0  0  0  0  0  0  0  0  0
   12.2007    2.7862   -7.3422 C   0  0  0  0  0  0  0  0  0  0  0  0
   12.4980    3.4723   -6.1589 C   0  0  0  0  0  0  0  0  0  0  0  0
   11.5890    3.5319   -5.1462 C   0  0  0  0  0  0  0  0  0  0  0  0
   11.9144    4.2730   -3.8769 C   0  0  0  0  0  0  0  0  0  0  0  0
   13.1185    2.7361   -8.3437 O   0  0  0  0  0  0  0  0  0  0  0  0
   14.3775    3.2352   -8.4485 C   0  0  0  0  0  0  0  0  0  0  0  0
   15.1039    3.0702   -9.7439 C   0  0  0  0  0  0  0  0  0  0  0  0
   15.0844    1.6041  -10.1424 C   0  0  0  0  0  0  0  0  0  0  0  0
   16.5014    1.2685  -11.1785 S   0  0  0  0  0  6  0  0  0  0  0  0
   16.9278   -0.1675  -11.0635 O   0  0  0  0  0  0  0  0  0  0  0  0
   17.6201    2.1603  -10.7221 O   0  0  0  0  0  0  0  0  0  0  0  0
   16.0868    1.6922  -12.8462 C   0  0  0  0  0  0  0  0  0  0  0  0
  1  2  1  0
  2  3  2  0
  2  4  1  0
  5  4  1  1
  5  6  1  0
  6  7  1  0
  7  8  1  0
  8  9  2  0
  9 10  1  0
 10 11  2  0
 11 12  1  0
 12 13  2  0
 12 14  1  0
 14 15  1  0
 15 16  1  0
 16 17  2  0
 17 18  1  0
 18 19  2  0
 19 20  1  0
 20 21  2  0
 20 22  1  0
 22 23  2  0
 23 24  1  0
 23 25  1  0
 25 26  2  0
 26 27  1  0
 27 28  2  0
 28 29  1  0
 26 30  1  0
 30 31  1  0
 31 32  1  0
 32 33  1  0
 33 34  1  0
 34 35  2  0
 34 36  2  0
 34 37  1  0
  9  5  1  0
 21 16  1  0
 28 22  1  0
 13  8  1  0
M  CHG  1   1  -1
M  END
$$$$
