
     RDKit          3D

 31 34  0  0  0  0  0  0  0  0999 V2000
   -0.7297   -4.5080    9.4233 C   0  0  0  0  0  0  0  0  0  0  0  0
    0.6068   -4.0323    9.9009 C   0  0  0  0  0  0  0  0  0  0  0  0
    1.6694   -4.4286    8.8762 C   0  0  0  0  0  0  0  0  0  0  0  0
    1.5713   -3.5927    7.6268 C   0  0  0  0  0  0  0  0  0  0  0  0
    1.7662   -2.1328    7.9207 C   0  0  0  0  0  0  0  0  0  0  0  0
    1.8042   -1.9414    9.4091 C   0  0  0  0  0  0  0  0  0  0  0  0
    0.7058   -2.6048   10.0820 N   0  0  0  0  0  0  0  0  0  0  0  0
   -0.1786   -1.8218   10.8575 C   0  0  0  0  0  0  0  0  0  0  0  0
   -0.1372   -0.5439   10.8314 O   0  0  0  0  0  0  0  0  0  0  0  0
   -1.2017   -2.3628   11.7435 C   0  0  0  0  0  0  0  0  0  0  0  0
   -0.7852   -3.0152   12.8836 C   0  0  0  0  0  0  0  0  0  0  0  0
   -1.7265   -3.5362   13.7408 C   0  0  0  0  0  0  0  0  0  0  0  0
   -3.0940   -3.4255   13.4926 C   0  0  0  0  0  0  0  0  0  0  0  0
   -3.5117   -2.7677   12.3430 C   0  0  0  0  0  0  0  0  0  0  0  0
   -2.5548   -2.2618   11.5128 C   0  0  0  0  0  0  0  0  0  0  0  0
   -4.9696   -2.6499   12.0794 C   0  0  0  0  0  0  0  0  0  0  0  0
    0.6476   -3.1699   13.2114 C   0  0  0  0  0  0  0  0  0  0  0  0
    1.5677   -2.3450   12.7052 N   0  0  0  0  0  0  0  0  0  0  0  0
    2.8533   -2.4993   13.0126 C   0  0  0  0  0  0  0  0  0  0  0  0
    3.2784   -3.5069   13.8568 C   0  0  0  0  0  0  0  0  0  0  0  0
    2.3047   -4.3399   14.3615 C   0  0  0  0  0  0  0  0  0  0  0  0
    1.0192   -4.1556   14.0308 N   0  0  0  0  0  0  0  0  0  0  0  0
    0.5661   -1.3119    7.4040 C   0  0  0  0  0  0  0  0  0  0  0  0
    0.9721   -0.1895    6.9016 O   0  0  0  0  0  0  0  0  0  0  0  0
    1.3772    0.9301    6.4004 C   0  0  0  0  0  0  0  0  0  0  0  0
    0.6072    2.0232    6.1539 N   0  0  0  0  0  0  0  0  0  0  0  0
    1.0903    3.1448    5.6355 C   0  0  0  0  0  0  0  0  0  0  0  0
    2.4147    3.2882    5.3059 C   0  0  0  0  0  0  0  0  0  0  0  0
    3.2388    2.2155    5.5335 C   0  0  0  0  0  0  0  0  0  0  0  0
    2.7386    1.0692    6.0648 C   0  0  0  0  0  0  0  0  0  0  0  0
    2.9207    4.4263    4.7764 F   0  0  0  0  0  0  0  0  0  0  0  0
  1  2  1  0
  2  3  1  0
  3  4  1  0
  4  5  1  0
  5  6  1  0
  6  7  1  0
  7  8  1  0
  8  9  2  0
  8 10  1  0
 10 11  1  0
 11 12  2  0
 12 13  1  0
 13 14  2  0
 14 15  1  0
 14 16  1  0
 11 17  1  0
 17 18  2  0
 18 19  1  0
 19 20  2  0
 20 21  1  0
 21 22  2  0
  5 23  1  0
 23 24  1  0
 24 25  1  0
 25 26  2  0
 26 27  1  0
 27 28  2  0
 28 29  1  0
 29 30  2  0
 28 31  1  0
  7  2  1  0
 15 10  2  0
 22 17  1  0
 30 25  1  0
M  END
$$$$
