
     RDKit          3D

 31 34  0  0  0  0  0  0  0  0999 V2000
    3.4556   -4.6979   11.3489 C   0  0  0  0  0  0  0  0  0  0  0  0
    2.7574   -4.8013   10.0289 C   0  0  0  0  0  0  0  0  0  0  0  0
    1.5251   -5.6914   10.1881 C   0  0  0  0  0  0  0  0  0  0  0  0
    0.4355   -4.9939   10.9599 C   0  0  0  0  0  0  0  0  0  0  0  0
   -0.0148   -3.7382   10.2699 C   0  0  0  0  0  0  0  0  0  0  0  0
    0.9055   -3.4655    9.1159 C   0  0  0  0  0  0  0  0  0  0  0  0
    2.3031   -3.5427    9.4905 N   0  0  0  0  0  0  0  0  0  0  0  0
    3.1126   -2.3994    9.3054 C   0  0  0  0  0  0  0  0  0  0  0  0
    4.2891   -2.3266    9.8014 O   0  0  0  0  0  0  0  0  0  0  0  0
    2.7124   -1.2157    8.5550 C   0  0  0  0  0  0  0  0  0  0  0  0
    2.2771   -0.1195    9.2676 C   0  0  0  0  0  0  0  0  0  0  0  0
    1.8933    1.0135    8.5885 C   0  0  0  0  0  0  0  0  0  0  0  0
    1.9305    1.0893    7.1968 C   0  0  0  0  0  0  0  0  0  0  0  0
    2.3695   -0.0165    6.4805 C   0  0  0  0  0  0  0  0  0  0  0  0
    2.7434   -1.1250    7.1820 C   0  0  0  0  0  0  0  0  0  0  0  0
    2.4090    0.0654    4.9971 C   0  0  0  0  0  0  0  0  0  0  0  0
    2.2118   -0.1279   10.7441 C   0  0  0  0  0  0  0  0  0  0  0  0
    2.7143    0.8768   11.4660 N   0  0  0  0  0  0  0  0  0  0  0  0
    2.6454    0.8521   12.7948 C   0  0  0  0  0  0  0  0  0  0  0  0
    2.0582   -0.2015   13.4685 C   0  0  0  0  0  0  0  0  0  0  0  0
    1.5500   -1.2211   12.6946 C   0  0  0  0  0  0  0  0  0  0  0  0
    1.6366   -1.1637   11.3586 N   0  0  0  0  0  0  0  0  0  0  0  0
    0.1024   -2.5274   11.2193 C   0  0  0  0  0  0  0  0  0  0  0  0
   -1.0711   -2.0469   11.4820 O   0  0  0  0  0  0  0  0  0  0  0  0
   -2.2417   -1.5676   11.7442 C   0  0  0  0  0  0  0  0  0  0  0  0
   -2.8209   -1.4936   12.9721 N   0  0  0  0  0  0  0  0  0  0  0  0
   -4.0311   -0.9875   13.1704 C   0  0  0  0  0  0  0  0  0  0  0  0
   -4.7967   -0.4961   12.1429 C   0  0  0  0  0  0  0  0  0  0  0  0
   -4.2615   -0.5455   10.8808 C   0  0  0  0  0  0  0  0  0  0  0  0
   -3.0214   -1.0650   10.6836 C   0  0  0  0  0  0  0  0  0  0  0  0
   -6.0325    0.0227   12.3308 F   0  0  0  0  0  0  0  0  0  0  0  0
  1  2  1  0
  2  3  1  0
  3  4  1  0
  4  5  1  0
  5  6  1  0
  6  7  1  0
  7  8  1  0
  8  9  2  0
  8 10  1  0
 10 11  1  0
 11 12  2  0
 12 13  1  0
 13 14  2  0
 14 15  1  0
 14 16  1  0
 11 17  1  0
 17 18  2  0
 18 19  1  0
 19 20  2  0
 20 21  1  0
 21 22  2  0
  5 23  1  0
 23 24  1  0
 24 25  1  0
 25 26  2  0
 26 27  1  0
 27 28  2  0
 28 29  1  0
 29 30  2  0
 28 31  1  0
  7  2  1  0
 15 10  2  0
 22 17  1  0
 30 25  1  0
M  END
$$$$
