
     RDKit          3D

 31 34  0  0  0  0  0  0  0  0999 V2000
    2.6604   -3.9938    9.0301 C   0  0  0  0  0  0  0  0  0  0  0  0
    1.2472   -3.9996    8.5367 C   0  0  0  0  0  0  0  0  0  0  0  0
    0.5226   -5.2114    9.1221 C   0  0  0  0  0  0  0  0  0  0  0  0
    0.2425   -5.0313   10.5912 C   0  0  0  0  0  0  0  0  0  0  0  0
   -0.6266   -3.8334   10.8464 C   0  0  0  0  0  0  0  0  0  0  0  0
   -0.7851   -3.0705    9.5634 C   0  0  0  0  0  0  0  0  0  0  0  0
    0.4805   -2.8329    8.8992 N   0  0  0  0  0  0  0  0  0  0  0  0
    0.8710   -1.4970    8.6551 C   0  0  0  0  0  0  0  0  0  0  0  0
    0.0917   -0.5159    8.9111 O   0  0  0  0  0  0  0  0  0  0  0  0
    2.1604   -1.1003    8.1033 C   0  0  0  0  0  0  0  0  0  0  0  0
    3.2269   -0.9990    8.9700 C   0  0  0  0  0  0  0  0  0  0  0  0
    4.4574   -0.6277    8.4798 C   0  0  0  0  0  0  0  0  0  0  0  0
    4.6616   -0.3492    7.1291 C   0  0  0  0  0  0  0  0  0  0  0  0
    3.5856   -0.4518    6.2572 C   0  0  0  0  0  0  0  0  0  0  0  0
    2.3783   -0.8222    6.7730 C   0  0  0  0  0  0  0  0  0  0  0  0
    3.8043   -0.1551    4.8175 C   0  0  0  0  0  0  0  0  0  0  0  0
    3.0845   -1.2795   10.4141 C   0  0  0  0  0  0  0  0  0  0  0  0
    2.6111   -0.3576   11.2561 N   0  0  0  0  0  0  0  0  0  0  0  0
    2.4890   -0.6288   12.5532 C   0  0  0  0  0  0  0  0  0  0  0  0
    2.8435   -1.8599   13.0704 C   0  0  0  0  0  0  0  0  0  0  0  0
    3.3280   -2.7879   12.1756 C   0  0  0  0  0  0  0  0  0  0  0  0
    3.4377   -2.4809   10.8758 N   0  0  0  0  0  0  0  0  0  0  0  0
    0.0541   -2.8741   11.8452 C   0  0  0  0  0  0  0  0  0  0  0  0
   -0.5832   -1.7478   11.8923 O   0  0  0  0  0  0  0  0  0  0  0  0
   -1.2190   -0.6242   11.9390 C   0  0  0  0  0  0  0  0  0  0  0  0
   -0.6618    0.6149   11.8834 N   0  0  0  0  0  0  0  0  0  0  0  0
   -1.3767    1.7312   11.9372 C   0  0  0  0  0  0  0  0  0  0  0  0
   -2.7440    1.7202   12.0540 C   0  0  0  0  0  0  0  0  0  0  0  0
   -3.3599    0.4960   12.1146 C   0  0  0  0  0  0  0  0  0  0  0  0
   -2.6227   -0.6441   12.0590 C   0  0  0  0  0  0  0  0  0  0  0  0
   -3.4855    2.8510   12.1102 F   0  0  0  0  0  0  0  0  0  0  0  0
  1  2  1  0
  2  3  1  0
  3  4  1  0
  4  5  1  0
  5  6  1  0
  6  7  1  0
  7  8  1  0
  8  9  2  0
  8 10  1  0
 10 11  1  0
 11 12  2  0
 12 13  1  0
 13 14  2  0
 14 15  1  0
 14 16  1  0
 11 17  1  0
 17 18  2  0
 18 19  1  0
 19 20  2  0
 20 21  1  0
 21 22  2  0
  5 23  1  0
 23 24  1  0
 24 25  1  0
 25 26  2  0
 26 27  1  0
 27 28  2  0
 28 29  1  0
 29 30  2  0
 28 31  1  0
  7  2  1  0
 15 10  2  0
 22 17  1  0
 30 25  1  0
M  END
$$$$
