
     RDKit          3D

 31 34  0  0  0  0  0  0  0  0999 V2000
    4.7971   -0.9012    7.3838 C   0  0  0  0  0  0  0  0  0  0  0  0
    3.5677   -1.3945    6.6868 C   0  0  0  0  0  0  0  0  0  0  0  0
    3.7062   -2.8966    6.4407 C   0  0  0  0  0  0  0  0  0  0  0  0
    3.5651   -3.6814    7.7188 C   0  0  0  0  0  0  0  0  0  0  0  0
    2.2238   -3.4621    8.3579 C   0  0  0  0  0  0  0  0  0  0  0  0
    1.5104   -2.3677    7.6185 C   0  0  0  0  0  0  0  0  0  0  0  0
    2.3421   -1.1977    7.4214 N   0  0  0  0  0  0  0  0  0  0  0  0
    1.9032    0.0360    7.9525 C   0  0  0  0  0  0  0  0  0  0  0  0
    2.6402    1.0804    7.9126 O   0  0  0  0  0  0  0  0  0  0  0  0
    0.6070    0.2501    8.5835 C   0  0  0  0  0  0  0  0  0  0  0  0
    0.5235    0.0940    9.9501 C   0  0  0  0  0  0  0  0  0  0  0  0
   -0.6858    0.2900   10.5757 C   0  0  0  0  0  0  0  0  0  0  0  0
   -1.8347    0.6430    9.8693 C   0  0  0  0  0  0  0  0  0  0  0  0
   -1.7487    0.7998    8.4921 C   0  0  0  0  0  0  0  0  0  0  0  0
   -0.5360    0.5988    7.9006 C   0  0  0  0  0  0  0  0  0  0  0  0
   -2.9739    1.1764    7.7399 C   0  0  0  0  0  0  0  0  0  0  0  0
    1.7002   -0.2784   10.7633 C   0  0  0  0  0  0  0  0  0  0  0  0
    1.6371   -1.2619   11.6644 N   0  0  0  0  0  0  0  0  0  0  0  0
    2.7074   -1.5837   12.3868 C   0  0  0  0  0  0  0  0  0  0  0  0
    3.9093   -0.9199   12.2329 C   0  0  0  0  0  0  0  0  0  0  0  0
    3.9406    0.0886   11.2956 C   0  0  0  0  0  0  0  0  0  0  0  0
    2.8437    0.3863   10.5856 N   0  0  0  0  0  0  0  0  0  0  0  0
    2.3908   -2.9718    9.8115 C   0  0  0  0  0  0  0  0  0  0  0  0
    1.3640   -2.2686   10.1695 O   0  0  0  0  0  0  0  0  0  0  0  0
    0.3399   -1.5670   10.5268 C   0  0  0  0  0  0  0  0  0  0  0  0
    0.3679   -0.4286   11.2698 N   0  0  0  0  0  0  0  0  0  0  0  0
   -0.7263    0.2441   11.6018 C   0  0  0  0  0  0  0  0  0  0  0  0
   -1.9799   -0.1610   11.2174 C   0  0  0  0  0  0  0  0  0  0  0  0
   -2.0678   -1.3047   10.4652 C   0  0  0  0  0  0  0  0  0  0  0  0
   -0.9437   -1.9897   10.1280 C   0  0  0  0  0  0  0  0  0  0  0  0
   -3.1042    0.5154   11.5491 F   0  0  0  0  0  0  0  0  0  0  0  0
  1  2  1  0
  2  3  1  0
  3  4  1  0
  4  5  1  0
  5  6  1  0
  6  7  1  0
  7  8  1  0
  8  9  2  0
  8 10  1  0
 10 11  1  0
 11 12  2  0
 12 13  1  0
 13 14  2  0
 14 15  1  0
 14 16  1  0
 11 17  1  0
 17 18  2  0
 18 19  1  0
 19 20  2  0
 20 21  1  0
 21 22  2  0
  5 23  1  0
 23 24  1  0
 24 25  1  0
 25 26  2  0
 26 27  1  0
 27 28  2  0
 28 29  1  0
 29 30  2  0
 28 31  1  0
  7  2  1  0
 15 10  2  0
 22 17  1  0
 30 25  1  0
M  END
$$$$
