
     RDKit          3D

 31 34  0  0  0  0  0  0  0  0999 V2000
    3.1618   -1.6506   10.0142 C   0  0  0  0  0  0  0  0  0  0  0  0
    2.6618   -2.9559    9.4787 C   0  0  0  0  0  0  0  0  0  0  0  0
    2.7749   -4.0168   10.5732 C   0  0  0  0  0  0  0  0  0  0  0  0
    1.7430   -3.8109   11.6513 C   0  0  0  0  0  0  0  0  0  0  0  0
    0.3468   -3.8907   11.1037 C   0  0  0  0  0  0  0  0  0  0  0  0
    0.4193   -3.9572    9.6058 C   0  0  0  0  0  0  0  0  0  0  0  0
    1.2859   -2.9395    9.0465 N   0  0  0  0  0  0  0  0  0  0  0  0
    0.7338   -2.0159    8.1306 C   0  0  0  0  0  0  0  0  0  0  0  0
   -0.5309   -1.8954    7.9840 O   0  0  0  0  0  0  0  0  0  0  0  0
    1.5155   -1.1279    7.2794 C   0  0  0  0  0  0  0  0  0  0  0  0
    1.3984    0.2294    7.4869 C   0  0  0  0  0  0  0  0  0  0  0  0
    2.1240    1.0939    6.7006 C   0  0  0  0  0  0  0  0  0  0  0  0
    2.9777    0.6398    5.6961 C   0  0  0  0  0  0  0  0  0  0  0  0
    3.0944   -0.7284    5.4885 C   0  0  0  0  0  0  0  0  0  0  0  0
    2.3624   -1.5601    6.2842 C   0  0  0  0  0  0  0  0  0  0  0  0
    4.0048   -1.2115    4.4178 C   0  0  0  0  0  0  0  0  0  0  0  0
    0.5133    0.7823    8.5335 C   0  0  0  0  0  0  0  0  0  0  0  0
   -0.7111    0.2899    8.7373 N   0  0  0  0  0  0  0  0  0  0  0  0
   -1.4934    0.8002    9.6853 C   0  0  0  0  0  0  0  0  0  0  0  0
   -1.0726    1.8459   10.4841 C   0  0  0  0  0  0  0  0  0  0  0  0
    0.1949    2.3302   10.2482 C   0  0  0  0  0  0  0  0  0  0  0  0
    0.9558    1.7925    9.2850 N   0  0  0  0  0  0  0  0  0  0  0  0
   -0.4432   -2.6106   11.4476 C   0  0  0  0  0  0  0  0  0  0  0  0
   -1.7107   -2.8679   11.5110 O   0  0  0  0  0  0  0  0  0  0  0  0
   -2.9752   -3.1248   11.5743 C   0  0  0  0  0  0  0  0  0  0  0  0
   -3.8162   -2.7677   12.5813 N   0  0  0  0  0  0  0  0  0  0  0  0
   -5.1090   -3.0656   12.5823 C   0  0  0  0  0  0  0  0  0  0  0  0
   -5.7007   -3.7624   11.5587 C   0  0  0  0  0  0  0  0  0  0  0  0
   -4.8986   -4.1486   10.5151 C   0  0  0  0  0  0  0  0  0  0  0  0
   -3.5750   -3.8407   10.5194 C   0  0  0  0  0  0  0  0  0  0  0  0
   -7.0179   -4.0730   11.5470 F   0  0  0  0  0  0  0  0  0  0  0  0
  1  2  1  0
  2  3  1  0
  3  4  1  0
  4  5  1  0
  5  6  1  0
  6  7  1  0
  7  8  1  0
  8  9  2  0
  8 10  1  0
 10 11  1  0
 11 12  2  0
 12 13  1  0
 13 14  2  0
 14 15  1  0
 14 16  1  0
 11 17  1  0
 17 18  2  0
 18 19  1  0
 19 20  2  0
 20 21  1  0
 21 22  2  0
  5 23  1  0
 23 24  1  0
 24 25  1  0
 25 26  2  0
 26 27  1  0
 27 28  2  0
 28 29  1  0
 29 30  2  0
 28 31  1  0
  7  2  1  0
 15 10  2  0
 22 17  1  0
 30 25  1  0
M  END
$$$$
