
     RDKit          3D

 31 34  0  0  0  0  0  0  0  0999 V2000
   -1.4018   -2.4680    8.6325 C   0  0  0  0  0  0  0  0  0  0  0  0
   -0.8698   -3.5049    9.5719 C   0  0  0  0  0  0  0  0  0  0  0  0
    0.0968   -4.4130    8.8123 C   0  0  0  0  0  0  0  0  0  0  0  0
    1.3922   -3.7079    8.5056 C   0  0  0  0  0  0  0  0  0  0  0  0
    2.0938   -3.2688    9.7588 C   0  0  0  0  0  0  0  0  0  0  0  0
    1.1815   -3.4996   10.9283 C   0  0  0  0  0  0  0  0  0  0  0  0
   -0.1507   -2.9755   10.7047 N   0  0  0  0  0  0  0  0  0  0  0  0
   -0.6470   -1.9984   11.5966 C   0  0  0  0  0  0  0  0  0  0  0  0
    0.1352   -1.1873   12.2015 O   0  0  0  0  0  0  0  0  0  0  0  0
   -2.0565   -1.8112   11.9170 C   0  0  0  0  0  0  0  0  0  0  0  0
   -2.7169   -0.7584   11.3216 C   0  0  0  0  0  0  0  0  0  0  0  0
   -4.0480   -0.5556   11.6028 C   0  0  0  0  0  0  0  0  0  0  0  0
   -4.7539   -1.3840   12.4742 C   0  0  0  0  0  0  0  0  0  0  0  0
   -4.0867   -2.4444   13.0733 C   0  0  0  0  0  0  0  0  0  0  0  0
   -2.7672   -2.6197   12.7746 C   0  0  0  0  0  0  0  0  0  0  0  0
   -4.8400   -3.3269   14.0019 C   0  0  0  0  0  0  0  0  0  0  0  0
   -2.0327    0.1598   10.3872 C   0  0  0  0  0  0  0  0  0  0  0  0
   -0.9149   -0.2025    9.7529 N   0  0  0  0  0  0  0  0  0  0  0  0
   -0.3134    0.6377    8.9143 C   0  0  0  0  0  0  0  0  0  0  0  0
   -0.8175    1.9010    8.6717 C   0  0  0  0  0  0  0  0  0  0  0  0
   -1.9712    2.2431    9.3414 C   0  0  0  0  0  0  0  0  0  0  0  0
   -2.5506    1.3721   10.1790 N   0  0  0  0  0  0  0  0  0  0  0  0
    2.3776   -1.7526    9.7171 C   0  0  0  0  0  0  0  0  0  0  0  0
    3.2313   -1.4806    8.7821 O   0  0  0  0  0  0  0  0  0  0  0  0
    4.0829   -1.2094    7.8494 C   0  0  0  0  0  0  0  0  0  0  0  0
    5.3153   -1.7650    7.7030 N   0  0  0  0  0  0  0  0  0  0  0  0
    6.1421   -1.4388    6.7180 C   0  0  0  0  0  0  0  0  0  0  0  0
    5.8138   -0.5082    5.7643 C   0  0  0  0  0  0  0  0  0  0  0  0
    4.5810    0.0853    5.8632 C   0  0  0  0  0  0  0  0  0  0  0  0
    3.7382   -0.2528    6.8741 C   0  0  0  0  0  0  0  0  0  0  0  0
    6.6474   -0.1658    4.7546 F   0  0  0  0  0  0  0  0  0  0  0  0
  1  2  1  0
  2  3  1  0
  3  4  1  0
  4  5  1  0
  5  6  1  0
  6  7  1  0
  7  8  1  0
  8  9  2  0
  8 10  1  0
 10 11  1  0
 11 12  2  0
 12 13  1  0
 13 14  2  0
 14 15  1  0
 14 16  1  0
 11 17  1  0
 17 18  2  0
 18 19  1  0
 19 20  2  0
 20 21  1  0
 21 22  2  0
  5 23  1  0
 23 24  1  0
 24 25  1  0
 25 26  2  0
 26 27  1  0
 27 28  2  0
 28 29  1  0
 29 30  2  0
 28 31  1  0
  7  2  1  0
 15 10  2  0
 22 17  1  0
 30 25  1  0
M  END
$$$$
