
     RDKit          3D

 31 34  0  0  0  0  0  0  0  0999 V2000
   -2.3142   -2.2274    8.9072 C   0  0  0  0  0  0  0  0  0  0  0  0
   -2.0507   -2.5991   10.3330 C   0  0  0  0  0  0  0  0  0  0  0  0
   -2.2861   -4.0994   10.5059 C   0  0  0  0  0  0  0  0  0  0  0  0
   -1.1912   -4.9085    9.8611 C   0  0  0  0  0  0  0  0  0  0  0  0
    0.1509   -4.6016   10.4613 C   0  0  0  0  0  0  0  0  0  0  0  0
    0.0073   -3.4317   11.3909 C   0  0  0  0  0  0  0  0  0  0  0  0
   -0.7086   -2.3268   10.7857 N   0  0  0  0  0  0  0  0  0  0  0  0
   -0.0547   -1.0785   10.6823 C   0  0  0  0  0  0  0  0  0  0  0  0
    1.2157   -0.9789   10.7897 O   0  0  0  0  0  0  0  0  0  0  0  0
   -0.7303    0.1919   10.4500 C   0  0  0  0  0  0  0  0  0  0  0  0
   -0.5249    0.8175    9.2394 C   0  0  0  0  0  0  0  0  0  0  0  0
   -1.1492    2.0174    8.9892 C   0  0  0  0  0  0  0  0  0  0  0  0
   -1.9866    2.6240    9.9244 C   0  0  0  0  0  0  0  0  0  0  0  0
   -2.1924    1.9921   11.1438 C   0  0  0  0  0  0  0  0  0  0  0  0
   -1.5597    0.8035   11.3624 C   0  0  0  0  0  0  0  0  0  0  0  0
   -3.0854    2.6394   12.1400 C   0  0  0  0  0  0  0  0  0  0  0  0
    0.3489    0.2328    8.2006 C   0  0  0  0  0  0  0  0  0  0  0  0
    1.4057   -0.5163    8.5248 N   0  0  0  0  0  0  0  0  0  0  0  0
    2.1806   -1.0352    7.5754 C   0  0  0  0  0  0  0  0  0  0  0  0
    1.9232   -0.8205    6.2351 C   0  0  0  0  0  0  0  0  0  0  0  0
    0.8263   -0.0439    5.9350 C   0  0  0  0  0  0  0  0  0  0  0  0
    0.0675    0.4630    6.9165 N   0  0  0  0  0  0  0  0  0  0  0  0
    1.1479   -4.1704    9.3653 C   0  0  0  0  0  0  0  0  0  0  0  0
    2.3280   -4.0032    9.8717 O   0  0  0  0  0  0  0  0  0  0  0  0
    3.5052   -3.8365   10.3769 C   0  0  0  0  0  0  0  0  0  0  0  0
    3.9993   -2.6799   10.8936 N   0  0  0  0  0  0  0  0  0  0  0  0
    5.2222   -2.5787   11.3980 C   0  0  0  0  0  0  0  0  0  0  0  0
    6.0886   -3.6423   11.4369 C   0  0  0  0  0  0  0  0  0  0  0  0
    5.6422   -4.8356   10.9285 C   0  0  0  0  0  0  0  0  0  0  0  0
    4.3887   -4.9335   10.4131 C   0  0  0  0  0  0  0  0  0  0  0  0
    7.3385   -3.5531   11.9482 F   0  0  0  0  0  0  0  0  0  0  0  0
  1  2  1  0
  2  3  1  0
  3  4  1  0
  4  5  1  0
  5  6  1  0
  6  7  1  0
  7  8  1  0
  8  9  2  0
  8 10  1  0
 10 11  1  0
 11 12  2  0
 12 13  1  0
 13 14  2  0
 14 15  1  0
 14 16  1  0
 11 17  1  0
 17 18  2  0
 18 19  1  0
 19 20  2  0
 20 21  1  0
 21 22  2  0
  5 23  1  0
 23 24  1  0
 24 25  1  0
 25 26  2  0
 26 27  1  0
 27 28  2  0
 28 29  1  0
 29 30  2  0
 28 31  1  0
  7  2  1  0
 15 10  2  0
 22 17  1  0
 30 25  1  0
M  END
$$$$
