
     RDKit          3D

 31 34  0  0  0  0  0  0  0  0999 V2000
    2.4769    0.4411    5.8838 C   0  0  0  0  0  0  0  0  0  0  0  0
    1.7634   -0.8706    5.9889 C   0  0  0  0  0  0  0  0  0  0  0  0
    2.4800   -1.8966    5.1116 C   0  0  0  0  0  0  0  0  0  0  0  0
    3.7972   -2.3134    5.7121 C   0  0  0  0  0  0  0  0  0  0  0  0
    3.6153   -2.9411    7.0643 C   0  0  0  0  0  0  0  0  0  0  0  0
    2.1830   -2.7784    7.4828 C   0  0  0  0  0  0  0  0  0  0  0  0
    1.7091   -1.4186    7.3220 N   0  0  0  0  0  0  0  0  0  0  0  0
    1.2332   -0.7334    8.4625 C   0  0  0  0  0  0  0  0  0  0  0  0
    1.8903   -0.7257    9.5596 O   0  0  0  0  0  0  0  0  0  0  0  0
   -0.0162    0.0152    8.5157 C   0  0  0  0  0  0  0  0  0  0  0  0
   -1.0908   -0.5713    9.1483 C   0  0  0  0  0  0  0  0  0  0  0  0
   -2.2838    0.1101    9.2162 C   0  0  0  0  0  0  0  0  0  0  0  0
   -2.4420    1.3803    8.6635 C   0  0  0  0  0  0  0  0  0  0  0  0
   -1.3579    1.9697    8.0264 C   0  0  0  0  0  0  0  0  0  0  0  0
   -0.1884    1.2693    7.9754 C   0  0  0  0  0  0  0  0  0  0  0  0
   -1.5274    3.3238    7.4377 C   0  0  0  0  0  0  0  0  0  0  0  0
   -0.9960   -1.9146    9.7573 C   0  0  0  0  0  0  0  0  0  0  0  0
   -1.6720   -2.2221   10.8671 N   0  0  0  0  0  0  0  0  0  0  0  0
   -1.5749   -3.4374   11.4005 C   0  0  0  0  0  0  0  0  0  0  0  0
   -0.7803   -4.4145   10.8324 C   0  0  0  0  0  0  0  0  0  0  0  0
   -0.0968   -4.0651    9.6890 C   0  0  0  0  0  0  0  0  0  0  0  0
   -0.2178   -2.8318    9.1790 N   0  0  0  0  0  0  0  0  0  0  0  0
    4.4666   -2.2062    8.1209 C   0  0  0  0  0  0  0  0  0  0  0  0
    4.4815   -2.8743    9.2301 O   0  0  0  0  0  0  0  0  0  0  0  0
    4.4964   -3.5407   10.3366 C   0  0  0  0  0  0  0  0  0  0  0  0
    5.5712   -3.7197   11.1501 N   0  0  0  0  0  0  0  0  0  0  0  0
    5.5161   -4.4189   12.2762 C   0  0  0  0  0  0  0  0  0  0  0  0
    4.3607   -5.0195   12.7094 C   0  0  0  0  0  0  0  0  0  0  0  0
    3.2438   -4.8716   11.9269 C   0  0  0  0  0  0  0  0  0  0  0  0
    3.3061   -4.1544   10.7744 C   0  0  0  0  0  0  0  0  0  0  0  0
    4.2903   -5.7355   13.8557 F   0  0  0  0  0  0  0  0  0  0  0  0
  1  2  1  0
  2  3  1  0
  3  4  1  0
  4  5  1  0
  5  6  1  0
  6  7  1  0
  7  8  1  0
  8  9  2  0
  8 10  1  0
 10 11  1  0
 11 12  2  0
 12 13  1  0
 13 14  2  0
 14 15  1  0
 14 16  1  0
 11 17  1  0
 17 18  2  0
 18 19  1  0
 19 20  2  0
 20 21  1  0
 21 22  2  0
  5 23  1  0
 23 24  1  0
 24 25  1  0
 25 26  2  0
 26 27  1  0
 27 28  2  0
 28 29  1  0
 29 30  2  0
 28 31  1  0
  7  2  1  0
 15 10  2  0
 22 17  1  0
 30 25  1  0
M  END
$$$$
