
     RDKit          3D

 31 34  0  0  0  0  0  0  0  0999 V2000
    3.6921   -3.7125    6.2439 C   0  0  0  0  0  0  0  0  0  0  0  0
    4.0221   -2.5265    7.0953 C   0  0  0  0  0  0  0  0  0  0  0  0
    4.4002   -1.3553    6.1890 C   0  0  0  0  0  0  0  0  0  0  0  0
    3.1950   -0.7913    5.4829 C   0  0  0  0  0  0  0  0  0  0  0  0
    2.1711   -0.2817    6.4563 C   0  0  0  0  0  0  0  0  0  0  0  0
    2.5873   -0.6748    7.8439 C   0  0  0  0  0  0  0  0  0  0  0  0
    2.9435   -2.0760    7.9403 N   0  0  0  0  0  0  0  0  0  0  0  0
    2.2227   -2.8922    8.8409 C   0  0  0  0  0  0  0  0  0  0  0  0
    2.2487   -4.1678    8.7537 O   0  0  0  0  0  0  0  0  0  0  0  0
    1.3971   -2.3903    9.9322 C   0  0  0  0  0  0  0  0  0  0  0  0
    2.0187   -2.0986   11.1269 C   0  0  0  0  0  0  0  0  0  0  0  0
    1.2672   -1.6222   12.1760 C   0  0  0  0  0  0  0  0  0  0  0  0
   -0.1087   -1.4240   12.0695 C   0  0  0  0  0  0  0  0  0  0  0  0
   -0.7333   -1.7186   10.8646 C   0  0  0  0  0  0  0  0  0  0  0  0
    0.0385   -2.1892    9.8430 C   0  0  0  0  0  0  0  0  0  0  0  0
   -2.2000   -1.5068   10.7520 C   0  0  0  0  0  0  0  0  0  0  0  0
    3.4734   -2.2834   11.3119 C   0  0  0  0  0  0  0  0  0  0  0  0
    4.2968   -1.2378   11.4212 N   0  0  0  0  0  0  0  0  0  0  0  0
    5.6039   -1.4240   11.5884 C   0  0  0  0  0  0  0  0  0  0  0  0
    6.1507   -2.6910   11.6543 C   0  0  0  0  0  0  0  0  0  0  0  0
    5.2745   -3.7471   11.5383 C   0  0  0  0  0  0  0  0  0  0  0  0
    3.9639   -3.5232   11.3707 N   0  0  0  0  0  0  0  0  0  0  0  0
    0.8038   -0.9507    6.2031 C   0  0  0  0  0  0  0  0  0  0  0  0
   -0.0252   -0.6524    7.1521 O   0  0  0  0  0  0  0  0  0  0  0  0
   -0.8521   -0.3549    8.0990 C   0  0  0  0  0  0  0  0  0  0  0  0
   -0.7922   -0.7965    9.3836 N   0  0  0  0  0  0  0  0  0  0  0  0
   -1.6782   -0.4501   10.3084 C   0  0  0  0  0  0  0  0  0  0  0  0
   -2.7311    0.3871   10.0365 C   0  0  0  0  0  0  0  0  0  0  0  0
   -2.8408    0.8634    8.7548 C   0  0  0  0  0  0  0  0  0  0  0  0
   -1.9304    0.5052    7.8117 C   0  0  0  0  0  0  0  0  0  0  0  0
   -3.6420    0.7484   10.9699 F   0  0  0  0  0  0  0  0  0  0  0  0
  1  2  1  0
  2  3  1  0
  3  4  1  0
  4  5  1  0
  5  6  1  0
  6  7  1  0
  7  8  1  0
  8  9  2  0
  8 10  1  0
 10 11  1  0
 11 12  2  0
 12 13  1  0
 13 14  2  0
 14 15  1  0
 14 16  1  0
 11 17  1  0
 17 18  2  0
 18 19  1  0
 19 20  2  0
 20 21  1  0
 21 22  2  0
  5 23  1  0
 23 24  1  0
 24 25  1  0
 25 26  2  0
 26 27  1  0
 27 28  2  0
 28 29  1  0
 29 30  2  0
 28 31  1  0
  7  2  1  0
 15 10  2  0
 22 17  1  0
 30 25  1  0
M  END
$$$$
