
     RDKit          3D

 31 34  0  0  0  0  0  0  0  0999 V2000
   -0.1947   -5.1678   10.8360 C   0  0  0  0  0  0  0  0  0  0  0  0
    0.7914   -4.1776   11.3722 C   0  0  0  0  0  0  0  0  0  0  0  0
    2.2050   -4.7125   11.1446 C   0  0  0  0  0  0  0  0  0  0  0  0
    2.5938   -4.6458    9.6908 C   0  0  0  0  0  0  0  0  0  0  0  0
    2.5687   -3.2355    9.1751 C   0  0  0  0  0  0  0  0  0  0  0  0
    1.9699   -2.3479   10.2273 C   0  0  0  0  0  0  0  0  0  0  0  0
    0.7283   -2.8747   10.7567 N   0  0  0  0  0  0  0  0  0  0  0  0
   -0.4403   -2.0894   10.6367 C   0  0  0  0  0  0  0  0  0  0  0  0
   -1.6014   -2.5837   10.8440 O   0  0  0  0  0  0  0  0  0  0  0  0
   -0.4540   -0.6774   10.2757 C   0  0  0  0  0  0  0  0  0  0  0  0
    0.2309    0.2005   11.0876 C   0  0  0  0  0  0  0  0  0  0  0  0
    0.2379    1.5396   10.7733 C   0  0  0  0  0  0  0  0  0  0  0  0
   -0.4282    2.0399    9.6554 C   0  0  0  0  0  0  0  0  0  0  0  0
   -1.1179    1.1537    8.8383 C   0  0  0  0  0  0  0  0  0  0  0  0
   -1.1063   -0.1679    9.1760 C   0  0  0  0  0  0  0  0  0  0  0  0
   -1.8274    1.6879    7.6467 C   0  0  0  0  0  0  0  0  0  0  0  0
    0.9598   -0.2586   12.2886 C   0  0  0  0  0  0  0  0  0  0  0  0
    0.3915   -1.0838   13.1713 N   0  0  0  0  0  0  0  0  0  0  0  0
    1.0640   -1.4873   14.2465 C   0  0  0  0  0  0  0  0  0  0  0  0
    2.3598   -1.0722   14.4862 C   0  0  0  0  0  0  0  0  0  0  0  0
    2.9163   -0.2219   13.5568 C   0  0  0  0  0  0  0  0  0  0  0  0
    2.2102    0.1645   12.4854 N   0  0  0  0  0  0  0  0  0  0  0  0
    1.6526   -3.1279    7.9381 C   0  0  0  0  0  0  0  0  0  0  0  0
    1.9646   -2.0847    7.2370 O   0  0  0  0  0  0  0  0  0  0  0  0
    2.2758   -1.0441    6.5377 C   0  0  0  0  0  0  0  0  0  0  0  0
    1.5338    0.0885    6.4123 N   0  0  0  0  0  0  0  0  0  0  0  0
    1.9148    1.1233    5.6746 C   0  0  0  0  0  0  0  0  0  0  0  0
    3.0962    1.1295    4.9764 C   0  0  0  0  0  0  0  0  0  0  0  0
    3.8856    0.0113    5.0667 C   0  0  0  0  0  0  0  0  0  0  0  0
    3.4904   -1.0457    5.8238 C   0  0  0  0  0  0  0  0  0  0  0  0
    3.4969    2.1779    4.2201 F   0  0  0  0  0  0  0  0  0  0  0  0
  1  2  1  0
  2  3  1  0
  3  4  1  0
  4  5  1  0
  5  6  1  0
  6  7  1  0
  7  8  1  0
  8  9  2  0
  8 10  1  0
 10 11  1  0
 11 12  2  0
 12 13  1  0
 13 14  2  0
 14 15  1  0
 14 16  1  0
 11 17  1  0
 17 18  2  0
 18 19  1  0
 19 20  2  0
 20 21  1  0
 21 22  2  0
  5 23  1  0
 23 24  1  0
 24 25  1  0
 25 26  2  0
 26 27  1  0
 27 28  2  0
 28 29  1  0
 29 30  2  0
 28 31  1  0
  7  2  1  0
 15 10  2  0
 22 17  1  0
 30 25  1  0
M  END
$$$$
