
     RDKit          3D

 31 34  0  0  0  0  0  0  0  0999 V2000
    2.9628   -1.8662    8.6158 C   0  0  0  0  0  0  0  0  0  0  0  0
    1.7255   -2.4821    8.0410 C   0  0  0  0  0  0  0  0  0  0  0  0
    1.9477   -3.9859    7.8826 C   0  0  0  0  0  0  0  0  0  0  0  0
    1.9452   -4.6884    9.2152 C   0  0  0  0  0  0  0  0  0  0  0  0
    0.6379   -4.5100    9.9326 C   0  0  0  0  0  0  0  0  0  0  0  0
   -0.1951   -3.5157    9.1769 C   0  0  0  0  0  0  0  0  0  0  0  0
    0.5412   -2.3123    8.8466 N   0  0  0  0  0  0  0  0  0  0  0  0
    0.0569   -1.0749    9.3272 C   0  0  0  0  0  0  0  0  0  0  0  0
   -0.3874   -0.9493   10.5198 O   0  0  0  0  0  0  0  0  0  0  0  0
    0.0105    0.1545    8.5458 C   0  0  0  0  0  0  0  0  0  0  0  0
    1.2072    0.7570    8.2235 C   0  0  0  0  0  0  0  0  0  0  0  0
    1.1971    1.9181    7.4859 C   0  0  0  0  0  0  0  0  0  0  0  0
    0.0107    2.5078    7.0520 C   0  0  0  0  0  0  0  0  0  0  0  0
   -1.1944    1.8992    7.3778 C   0  0  0  0  0  0  0  0  0  0  0  0
   -1.1518    0.7490    8.1100 C   0  0  0  0  0  0  0  0  0  0  0  0
   -2.4586    2.5284    6.9147 C   0  0  0  0  0  0  0  0  0  0  0  0
    2.5034    0.1883    8.6488 C   0  0  0  0  0  0  0  0  0  0  0  0
    3.5932    0.2990    7.8852 N   0  0  0  0  0  0  0  0  0  0  0  0
    4.7520   -0.2188    8.2854 C   0  0  0  0  0  0  0  0  0  0  0  0
    4.8688   -0.8821    9.4917 C   0  0  0  0  0  0  0  0  0  0  0  0
    3.7266   -0.9786   10.2550 C   0  0  0  0  0  0  0  0  0  0  0  0
    2.5762   -0.4455    9.8211 N   0  0  0  0  0  0  0  0  0  0  0  0
    0.8682   -3.9116   11.3361 C   0  0  0  0  0  0  0  0  0  0  0  0
   -0.2541   -3.5127   11.8445 O   0  0  0  0  0  0  0  0  0  0  0  0
   -1.3735   -3.1147   12.3517 C   0  0  0  0  0  0  0  0  0  0  0  0
   -1.5876   -1.9369   12.9965 N   0  0  0  0  0  0  0  0  0  0  0  0
   -2.7673   -1.5906   13.4950 C   0  0  0  0  0  0  0  0  0  0  0  0
   -3.8702   -2.4013   13.3970 C   0  0  0  0  0  0  0  0  0  0  0  0
   -3.7118   -3.6034   12.7555 C   0  0  0  0  0  0  0  0  0  0  0  0
   -2.5011   -3.9530   12.2469 C   0  0  0  0  0  0  0  0  0  0  0  0
   -5.0792   -2.0606   13.9009 F   0  0  0  0  0  0  0  0  0  0  0  0
  1  2  1  0
  2  3  1  0
  3  4  1  0
  4  5  1  0
  5  6  1  0
  6  7  1  0
  7  8  1  0
  8  9  2  0
  8 10  1  0
 10 11  1  0
 11 12  2  0
 12 13  1  0
 13 14  2  0
 14 15  1  0
 14 16  1  0
 11 17  1  0
 17 18  2  0
 18 19  1  0
 19 20  2  0
 20 21  1  0
 21 22  2  0
  5 23  1  0
 23 24  1  0
 24 25  1  0
 25 26  2  0
 26 27  1  0
 27 28  2  0
 28 29  1  0
 29 30  2  0
 28 31  1  0
  7  2  1  0
 15 10  2  0
 22 17  1  0
 30 25  1  0
M  END
$$$$
