
     RDKit          3D

 31 34  0  0  0  0  0  0  0  0999 V2000
   -2.2309   -4.5852   10.1233 C   0  0  0  0  0  0  0  0  0  0  0  0
   -1.5368   -4.0919   11.3544 C   0  0  0  0  0  0  0  0  0  0  0  0
   -0.1979   -4.8159   11.4926 C   0  0  0  0  0  0  0  0  0  0  0  0
    0.7985   -4.3352   10.4701 C   0  0  0  0  0  0  0  0  0  0  0  0
    1.0756   -2.8662   10.6150 C   0  0  0  0  0  0  0  0  0  0  0  0
    0.1174   -2.2913   11.6173 C   0  0  0  0  0  0  0  0  0  0  0  0
   -1.2549   -2.6773   11.3579 N   0  0  0  0  0  0  0  0  0  0  0  0
   -2.2079   -1.6592   11.1304 C   0  0  0  0  0  0  0  0  0  0  0  0
   -3.3880   -1.9289   10.7181 O   0  0  0  0  0  0  0  0  0  0  0  0
   -1.9622   -0.2368   11.3324 C   0  0  0  0  0  0  0  0  0  0  0  0
   -1.5271    0.5003   10.2525 C   0  0  0  0  0  0  0  0  0  0  0  0
   -1.2872    1.8456   10.4106 C   0  0  0  0  0  0  0  0  0  0  0  0
   -1.4707    2.4904   11.6331 C   0  0  0  0  0  0  0  0  0  0  0  0
   -1.9093    1.7459   12.7203 C   0  0  0  0  0  0  0  0  0  0  0  0
   -2.1386    0.4144   12.5321 C   0  0  0  0  0  0  0  0  0  0  0  0
   -2.1048    2.4341   14.0229 C   0  0  0  0  0  0  0  0  0  0  0  0
   -1.3114   -0.1161    8.9267 C   0  0  0  0  0  0  0  0  0  0  0  0
   -2.1324   -1.0596    8.4589 N   0  0  0  0  0  0  0  0  0  0  0  0
   -1.9227   -1.6025    7.2621 C   0  0  0  0  0  0  0  0  0  0  0  0
   -0.8602   -1.2145    6.4687 C   0  0  0  0  0  0  0  0  0  0  0  0
   -0.0329   -0.2396    6.9804 C   0  0  0  0  0  0  0  0  0  0  0  0
   -0.2737    0.2854    8.1896 N   0  0  0  0  0  0  0  0  0  0  0  0
    0.8102   -2.1318    9.2841 C   0  0  0  0  0  0  0  0  0  0  0  0
    1.9280   -1.8657    8.6868 O   0  0  0  0  0  0  0  0  0  0  0  0
    3.0430   -1.6002    8.0909 C   0  0  0  0  0  0  0  0  0  0  0  0
    3.9655   -0.6836    8.4879 N   0  0  0  0  0  0  0  0  0  0  0  0
    5.0935   -0.4610    7.8258 C   0  0  0  0  0  0  0  0  0  0  0  0
    5.4176   -1.1444    6.6808 C   0  0  0  0  0  0  0  0  0  0  0  0
    4.5221   -2.0824    6.2337 C   0  0  0  0  0  0  0  0  0  0  0  0
    3.3683   -2.3063    6.9158 C   0  0  0  0  0  0  0  0  0  0  0  0
    6.5644   -0.9273    5.9956 F   0  0  0  0  0  0  0  0  0  0  0  0
  1  2  1  0
  2  3  1  0
  3  4  1  0
  4  5  1  0
  5  6  1  0
  6  7  1  0
  7  8  1  0
  8  9  2  0
  8 10  1  0
 10 11  1  0
 11 12  2  0
 12 13  1  0
 13 14  2  0
 14 15  1  0
 14 16  1  0
 11 17  1  0
 17 18  2  0
 18 19  1  0
 19 20  2  0
 20 21  1  0
 21 22  2  0
  5 23  1  0
 23 24  1  0
 24 25  1  0
 25 26  2  0
 26 27  1  0
 27 28  2  0
 28 29  1  0
 29 30  2  0
 28 31  1  0
  7  2  1  0
 15 10  2  0
 22 17  1  0
 30 25  1  0
M  END
$$$$
