
     RDKit          3D

 31 34  0  0  0  0  0  0  0  0999 V2000
    3.2523   -0.9654    9.2330 C   0  0  0  0  0  0  0  0  0  0  0  0
    2.4660   -1.7392    8.2213 C   0  0  0  0  0  0  0  0  0  0  0  0
    3.1213   -3.1057    8.0234 C   0  0  0  0  0  0  0  0  0  0  0  0
    2.8962   -4.0039    9.2115 C   0  0  0  0  0  0  0  0  0  0  0  0
    1.4340   -4.2479    9.4520 C   0  0  0  0  0  0  0  0  0  0  0  0
    0.6402   -3.3549    8.5433 C   0  0  0  0  0  0  0  0  0  0  0  0
    1.0910   -1.9785    8.5856 N   0  0  0  0  0  0  0  0  0  0  0  0
    0.1687   -0.9808    8.9736 C   0  0  0  0  0  0  0  0  0  0  0  0
   -0.8099   -1.2430    9.7541 O   0  0  0  0  0  0  0  0  0  0  0  0
    0.2261    0.4105    8.5432 C   0  0  0  0  0  0  0  0  0  0  0  0
    0.1898    1.3863    9.5156 C   0  0  0  0  0  0  0  0  0  0  0  0
    0.2432    2.7090    9.1417 C   0  0  0  0  0  0  0  0  0  0  0  0
    0.3333    3.0963    7.8054 C   0  0  0  0  0  0  0  0  0  0  0  0
    0.3697    2.1115    6.8269 C   0  0  0  0  0  0  0  0  0  0  0  0
    0.3152    0.8091    7.2289 C   0  0  0  0  0  0  0  0  0  0  0  0
    0.4660    2.5253    5.4028 C   0  0  0  0  0  0  0  0  0  0  0  0
    0.0954    1.0497   10.9516 C   0  0  0  0  0  0  0  0  0  0  0  0
    0.8403    0.0791   11.4867 N   0  0  0  0  0  0  0  0  0  0  0  0
    0.7423   -0.2091   12.7822 C   0  0  0  0  0  0  0  0  0  0  0  0
   -0.1235    0.4773   13.6117 C   0  0  0  0  0  0  0  0  0  0  0  0
   -0.8769    1.4719   13.0287 C   0  0  0  0  0  0  0  0  0  0  0  0
   -0.7528    1.7355   11.7206 N   0  0  0  0  0  0  0  0  0  0  0  0
    1.0503   -3.8571   10.8946 C   0  0  0  0  0  0  0  0  0  0  0  0
   -0.2329   -3.9284   11.0535 O   0  0  0  0  0  0  0  0  0  0  0  0
   -1.5130   -3.9992   11.2121 C   0  0  0  0  0  0  0  0  0  0  0  0
   -2.3538   -4.8550   10.5720 N   0  0  0  0  0  0  0  0  0  0  0  0
   -3.6634   -4.8737   10.7833 C   0  0  0  0  0  0  0  0  0  0  0  0
   -4.2741   -4.0240   11.6712 C   0  0  0  0  0  0  0  0  0  0  0  0
   -3.4732   -3.1381   12.3460 C   0  0  0  0  0  0  0  0  0  0  0  0
   -2.1324   -3.1233   12.1256 C   0  0  0  0  0  0  0  0  0  0  0  0
   -5.6086   -4.0322   11.8963 F   0  0  0  0  0  0  0  0  0  0  0  0
  1  2  1  0
  2  3  1  0
  3  4  1  0
  4  5  1  0
  5  6  1  0
  6  7  1  0
  7  8  1  0
  8  9  2  0
  8 10  1  0
 10 11  1  0
 11 12  2  0
 12 13  1  0
 13 14  2  0
 14 15  1  0
 14 16  1  0
 11 17  1  0
 17 18  2  0
 18 19  1  0
 19 20  2  0
 20 21  1  0
 21 22  2  0
  5 23  1  0
 23 24  1  0
 24 25  1  0
 25 26  2  0
 26 27  1  0
 27 28  2  0
 28 29  1  0
 29 30  2  0
 28 31  1  0
  7  2  1  0
 15 10  2  0
 22 17  1  0
 30 25  1  0
M  END
$$$$
