
     RDKit          3D

 31 34  0  0  0  0  0  0  0  0999 V2000
    4.0956   -2.8436   11.1953 C   0  0  0  0  0  0  0  0  0  0  0  0
    3.4125   -2.9285    9.8661 C   0  0  0  0  0  0  0  0  0  0  0  0
    3.0876   -4.3920    9.5681 C   0  0  0  0  0  0  0  0  0  0  0  0
    1.9579   -4.8937   10.4291 C   0  0  0  0  0  0  0  0  0  0  0  0
    0.6980   -4.1083   10.2023 C   0  0  0  0  0  0  0  0  0  0  0  0
    1.0140   -2.9331    9.3235 C   0  0  0  0  0  0  0  0  0  0  0  0
    2.1739   -2.1946    9.7803 N   0  0  0  0  0  0  0  0  0  0  0  0
    2.0157   -0.8284   10.1048 C   0  0  0  0  0  0  0  0  0  0  0  0
    2.8694   -0.2108   10.8296 O   0  0  0  0  0  0  0  0  0  0  0  0
    0.9012    0.0020    9.6657 C   0  0  0  0  0  0  0  0  0  0  0  0
    0.7875    0.2652    8.3178 C   0  0  0  0  0  0  0  0  0  0  0  0
   -0.2541    1.0449    7.8715 C   0  0  0  0  0  0  0  0  0  0  0  0
   -1.2026    1.5800    8.7421 C   0  0  0  0  0  0  0  0  0  0  0  0
   -1.0863    1.3137   10.1001 C   0  0  0  0  0  0  0  0  0  0  0  0
   -0.0430    0.5373   10.5119 C   0  0  0  0  0  0  0  0  0  0  0  0
   -2.0980    1.8842   11.0273 C   0  0  0  0  0  0  0  0  0  0  0  0
    1.7556   -0.2690    7.3370 C   0  0  0  0  0  0  0  0  0  0  0  0
    1.3614   -0.6906    6.1328 N   0  0  0  0  0  0  0  0  0  0  0  0
    2.2479   -1.1676    5.2624 C   0  0  0  0  0  0  0  0  0  0  0  0
    3.5929   -1.2433    5.5689 C   0  0  0  0  0  0  0  0  0  0  0  0
    3.9660   -0.8006    6.8185 C   0  0  0  0  0  0  0  0  0  0  0  0
    3.0466   -0.3262    7.6702 N   0  0  0  0  0  0  0  0  0  0  0  0
    0.1733   -3.5310   11.5337 C   0  0  0  0  0  0  0  0  0  0  0  0
   -1.1046   -3.3330   11.4652 O   0  0  0  0  0  0  0  0  0  0  0  0
   -2.3794   -3.1353   11.3970 C   0  0  0  0  0  0  0  0  0  0  0  0
   -3.2574   -3.8267   10.6225 N   0  0  0  0  0  0  0  0  0  0  0  0
   -4.5588   -3.5700   10.6010 C   0  0  0  0  0  0  0  0  0  0  0  0
   -5.1225   -2.5790   11.3649 C   0  0  0  0  0  0  0  0  0  0  0  0
   -4.2824   -1.8486   12.1665 C   0  0  0  0  0  0  0  0  0  0  0  0
   -2.9503   -2.1159   12.1846 C   0  0  0  0  0  0  0  0  0  0  0  0
   -6.4480   -2.3063   11.3525 F   0  0  0  0  0  0  0  0  0  0  0  0
  1  2  1  0
  2  3  1  0
  3  4  1  0
  4  5  1  0
  5  6  1  0
  6  7  1  0
  7  8  1  0
  8  9  2  0
  8 10  1  0
 10 11  1  0
 11 12  2  0
 12 13  1  0
 13 14  2  0
 14 15  1  0
 14 16  1  0
 11 17  1  0
 17 18  2  0
 18 19  1  0
 19 20  2  0
 20 21  1  0
 21 22  2  0
  5 23  1  0
 23 24  1  0
 24 25  1  0
 25 26  2  0
 26 27  1  0
 27 28  2  0
 28 29  1  0
 29 30  2  0
 28 31  1  0
  7  2  1  0
 15 10  2  0
 22 17  1  0
 30 25  1  0
M  END
$$$$
