
     RDKit          3D

 31 34  0  0  0  0  0  0  0  0999 V2000
    4.0809   -3.1506   11.0275 C   0  0  0  0  0  0  0  0  0  0  0  0
    2.9892   -3.7843   10.2230 C   0  0  0  0  0  0  0  0  0  0  0  0
    2.5648   -5.0863   10.9019 C   0  0  0  0  0  0  0  0  0  0  0  0
    1.7847   -4.8230   12.1634 C   0  0  0  0  0  0  0  0  0  0  0  0
    0.5319   -4.0423   11.8869 C   0  0  0  0  0  0  0  0  0  0  0  0
    0.5481   -3.5962   10.4537 C   0  0  0  0  0  0  0  0  0  0  0  0
    1.8031   -2.9761   10.0798 N   0  0  0  0  0  0  0  0  0  0  0  0
    1.7804   -1.6446    9.6075 C   0  0  0  0  0  0  0  0  0  0  0  0
    1.2887   -0.6952   10.3093 O   0  0  0  0  0  0  0  0  0  0  0  0
    2.2964   -1.2176    8.3130 C   0  0  0  0  0  0  0  0  0  0  0  0
    1.5798   -1.5658    7.1886 C   0  0  0  0  0  0  0  0  0  0  0  0
    2.0399   -1.1770    5.9520 C   0  0  0  0  0  0  0  0  0  0  0  0
    3.2127   -0.4389    5.7983 C   0  0  0  0  0  0  0  0  0  0  0  0
    3.9336   -0.0890    6.9326 C   0  0  0  0  0  0  0  0  0  0  0  0
    3.4518   -0.4889    8.1445 C   0  0  0  0  0  0  0  0  0  0  0  0
    5.1835    0.6980    6.7678 C   0  0  0  0  0  0  0  0  0  0  0  0
    0.3278   -2.3465    7.2755 C   0  0  0  0  0  0  0  0  0  0  0  0
   -0.8592   -1.7439    7.3811 N   0  0  0  0  0  0  0  0  0  0  0  0
   -1.9760   -2.4637    7.4572 C   0  0  0  0  0  0  0  0  0  0  0  0
   -1.9488   -3.8447    7.4301 C   0  0  0  0  0  0  0  0  0  0  0  0
   -0.7092   -4.4346    7.3205 C   0  0  0  0  0  0  0  0  0  0  0  0
    0.3951   -3.6791    7.2461 N   0  0  0  0  0  0  0  0  0  0  0  0
    0.4932   -2.7599   12.7443 C   0  0  0  0  0  0  0  0  0  0  0  0
   -0.7040   -2.2664   12.7612 O   0  0  0  0  0  0  0  0  0  0  0  0
   -1.8981   -1.7740   12.7778 C   0  0  0  0  0  0  0  0  0  0  0  0
   -2.3334   -0.7026   12.0627 N   0  0  0  0  0  0  0  0  0  0  0  0
   -3.5782   -0.2482   12.1280 C   0  0  0  0  0  0  0  0  0  0  0  0
   -4.5289   -0.8298   12.9288 C   0  0  0  0  0  0  0  0  0  0  0  0
   -4.1447   -1.9158   13.6736 C   0  0  0  0  0  0  0  0  0  0  0  0
   -2.8684   -2.3769   13.6027 C   0  0  0  0  0  0  0  0  0  0  0  0
   -5.8019   -0.3767   13.0052 F   0  0  0  0  0  0  0  0  0  0  0  0
  1  2  1  0
  2  3  1  0
  3  4  1  0
  4  5  1  0
  5  6  1  0
  6  7  1  0
  7  8  1  0
  8  9  2  0
  8 10  1  0
 10 11  1  0
 11 12  2  0
 12 13  1  0
 13 14  2  0
 14 15  1  0
 14 16  1  0
 11 17  1  0
 17 18  2  0
 18 19  1  0
 19 20  2  0
 20 21  1  0
 21 22  2  0
  5 23  1  0
 23 24  1  0
 24 25  1  0
 25 26  2  0
 26 27  1  0
 27 28  2  0
 28 29  1  0
 29 30  2  0
 28 31  1  0
  7  2  1  0
 15 10  2  0
 22 17  1  0
 30 25  1  0
M  END
$$$$
