
     RDKit          3D

 31 34  0  0  0  0  0  0  0  0999 V2000
   -1.7982   -4.6063   10.8995 C   0  0  0  0  0  0  0  0  0  0  0  0
   -0.9958   -3.5612   11.6099 C   0  0  0  0  0  0  0  0  0  0  0  0
    0.1905   -4.2321   12.3018 C   0  0  0  0  0  0  0  0  0  0  0  0
    1.2331   -4.6728   11.3078 C   0  0  0  0  0  0  0  0  0  0  0  0
    1.7785   -3.5121   10.5262 C   0  0  0  0  0  0  0  0  0  0  0  0
    0.9666   -2.2908   10.8467 C   0  0  0  0  0  0  0  0  0  0  0  0
   -0.4591   -2.5322   10.7536 N   0  0  0  0  0  0  0  0  0  0  0  0
   -1.2142   -1.7557    9.8461 C   0  0  0  0  0  0  0  0  0  0  0  0
   -2.4251   -2.0519    9.5603 O   0  0  0  0  0  0  0  0  0  0  0  0
   -0.7162   -0.5716    9.1574 C   0  0  0  0  0  0  0  0  0  0  0  0
   -0.6342    0.6023    9.8744 C   0  0  0  0  0  0  0  0  0  0  0  0
   -0.1671    1.7372    9.2532 C   0  0  0  0  0  0  0  0  0  0  0  0
    0.2277    1.7387    7.9160 C   0  0  0  0  0  0  0  0  0  0  0  0
    0.1443    0.5546    7.1951 C   0  0  0  0  0  0  0  0  0  0  0  0
   -0.3226   -0.5538    7.8387 C   0  0  0  0  0  0  0  0  0  0  0  0
    0.5656    0.5570    5.7699 C   0  0  0  0  0  0  0  0  0  0  0  0
   -1.0345    0.6750   11.2953 C   0  0  0  0  0  0  0  0  0  0  0  0
   -0.6223    1.6725   12.0816 N   0  0  0  0  0  0  0  0  0  0  0  0
   -0.9940    1.7217   13.3585 C   0  0  0  0  0  0  0  0  0  0  0  0
   -1.8106    0.7540   13.9112 C   0  0  0  0  0  0  0  0  0  0  0  0
   -2.2179   -0.2605   13.0736 C   0  0  0  0  0  0  0  0  0  0  0  0
   -1.8244   -0.2789   11.7927 N   0  0  0  0  0  0  0  0  0  0  0  0
    1.6203   -3.7580    9.0111 C   0  0  0  0  0  0  0  0  0  0  0  0
    2.3192   -2.8982    8.3407 O   0  0  0  0  0  0  0  0  0  0  0  0
    3.0162   -2.0405    7.6720 C   0  0  0  0  0  0  0  0  0  0  0  0
    2.9986   -1.8707    6.3230 N   0  0  0  0  0  0  0  0  0  0  0  0
    3.7434   -0.9673    5.6991 C   0  0  0  0  0  0  0  0  0  0  0  0
    4.5951   -0.1285    6.3732 C   0  0  0  0  0  0  0  0  0  0  0  0
    4.6534   -0.2559    7.7378 C   0  0  0  0  0  0  0  0  0  0  0  0
    3.8883   -1.1830    8.3716 C   0  0  0  0  0  0  0  0  0  0  0  0
    5.3605    0.7972    5.7496 F   0  0  0  0  0  0  0  0  0  0  0  0
  1  2  1  0
  2  3  1  0
  3  4  1  0
  4  5  1  0
  5  6  1  0
  6  7  1  0
  7  8  1  0
  8  9  2  0
  8 10  1  0
 10 11  1  0
 11 12  2  0
 12 13  1  0
 13 14  2  0
 14 15  1  0
 14 16  1  0
 11 17  1  0
 17 18  2  0
 18 19  1  0
 19 20  2  0
 20 21  1  0
 21 22  2  0
  5 23  1  0
 23 24  1  0
 24 25  1  0
 25 26  2  0
 26 27  1  0
 27 28  2  0
 28 29  1  0
 29 30  2  0
 28 31  1  0
  7  2  1  0
 15 10  2  0
 22 17  1  0
 30 25  1  0
M  END
$$$$
