
     RDKit          3D

 31 34  0  0  0  0  0  0  0  0999 V2000
    3.3984   -1.6891    9.5380 C   0  0  0  0  0  0  0  0  0  0  0  0
    2.9002   -2.9854    8.9794 C   0  0  0  0  0  0  0  0  0  0  0  0
    3.2531   -4.1120    9.9501 C   0  0  0  0  0  0  0  0  0  0  0  0
    2.3975   -4.0624   11.1890 C   0  0  0  0  0  0  0  0  0  0  0  0
    0.9390   -4.2053   10.8605 C   0  0  0  0  0  0  0  0  0  0  0  0
    0.7734   -4.1568    9.3693 C   0  0  0  0  0  0  0  0  0  0  0  0
    1.4743   -3.0395    8.7694 N   0  0  0  0  0  0  0  0  0  0  0  0
    0.7261   -2.0951    8.0312 C   0  0  0  0  0  0  0  0  0  0  0  0
   -0.5515   -2.0692    8.0805 O   0  0  0  0  0  0  0  0  0  0  0  0
    1.3055   -1.0797    7.1607 C   0  0  0  0  0  0  0  0  0  0  0  0
    1.0832    0.2426    7.4786 C   0  0  0  0  0  0  0  0  0  0  0  0
    1.6174    1.2248    6.6773 C   0  0  0  0  0  0  0  0  0  0  0  0
    2.3797    0.9249    5.5491 C   0  0  0  0  0  0  0  0  0  0  0  0
    2.6025   -0.4083    5.2302 C   0  0  0  0  0  0  0  0  0  0  0  0
    2.0599   -1.3592    6.0440 C   0  0  0  0  0  0  0  0  0  0  0  0
    3.4154   -0.7270    4.0276 C   0  0  0  0  0  0  0  0  0  0  0  0
    0.2856    0.6348    8.6595 C   0  0  0  0  0  0  0  0  0  0  0  0
    0.4737    0.0541    9.8472 N   0  0  0  0  0  0  0  0  0  0  0  0
   -0.2535    0.4212   10.8995 C   0  0  0  0  0  0  0  0  0  0  0  0
   -1.2185    1.4052   10.8032 C   0  0  0  0  0  0  0  0  0  0  0  0
   -1.3872    1.9837    9.5649 C   0  0  0  0  0  0  0  0  0  0  0  0
   -0.6374    1.5896    8.5265 N   0  0  0  0  0  0  0  0  0  0  0  0
    0.1372   -3.0158   11.4291 C   0  0  0  0  0  0  0  0  0  0  0  0
   -1.1308   -3.1958   11.2377 O   0  0  0  0  0  0  0  0  0  0  0  0
   -2.3958   -3.3753   11.0466 C   0  0  0  0  0  0  0  0  0  0  0  0
   -3.1675   -4.3293   11.6324 N   0  0  0  0  0  0  0  0  0  0  0  0
   -4.4654   -4.4577   11.3896 C   0  0  0  0  0  0  0  0  0  0  0  0
   -5.1334   -3.6306   10.5217 C   0  0  0  0  0  0  0  0  0  0  0  0
   -4.4033   -2.6488    9.9015 C   0  0  0  0  0  0  0  0  0  0  0  0
   -3.0742   -2.5219   10.1540 C   0  0  0  0  0  0  0  0  0  0  0  0
   -6.4567   -3.7504   10.2647 F   0  0  0  0  0  0  0  0  0  0  0  0
  1  2  1  0
  2  3  1  0
  3  4  1  0
  4  5  1  0
  5  6  1  0
  6  7  1  0
  7  8  1  0
  8  9  2  0
  8 10  1  0
 10 11  1  0
 11 12  2  0
 12 13  1  0
 13 14  2  0
 14 15  1  0
 14 16  1  0
 11 17  1  0
 17 18  2  0
 18 19  1  0
 19 20  2  0
 20 21  1  0
 21 22  2  0
  5 23  1  0
 23 24  1  0
 24 25  1  0
 25 26  2  0
 26 27  1  0
 27 28  2  0
 28 29  1  0
 29 30  2  0
 28 31  1  0
  7  2  1  0
 15 10  2  0
 22 17  1  0
 30 25  1  0
M  END
$$$$
