
     RDKit          3D

 31 34  0  0  0  0  0  0  0  0999 V2000
    2.3766   -3.8681   12.2817 C   0  0  0  0  0  0  0  0  0  0  0  0
    2.2167   -4.4274   10.9024 C   0  0  0  0  0  0  0  0  0  0  0  0
    0.8357   -5.0718   10.7856 C   0  0  0  0  0  0  0  0  0  0  0  0
   -0.2553   -4.0345   10.7307 C   0  0  0  0  0  0  0  0  0  0  0  0
   -0.0936   -3.1229    9.5482 C   0  0  0  0  0  0  0  0  0  0  0  0
    1.2263   -3.4112    8.8940 C   0  0  0  0  0  0  0  0  0  0  0  0
    2.3193   -3.4526    9.8443 N   0  0  0  0  0  0  0  0  0  0  0  0
    3.3937   -2.5510    9.6726 C   0  0  0  0  0  0  0  0  0  0  0  0
    4.4044   -2.5594   10.4560 O   0  0  0  0  0  0  0  0  0  0  0  0
    3.4686   -1.5450    8.6206 C   0  0  0  0  0  0  0  0  0  0  0  0
    2.9736   -0.2888    8.8959 C   0  0  0  0  0  0  0  0  0  0  0  0
    3.0306    0.6832    7.9242 C   0  0  0  0  0  0  0  0  0  0  0  0
    3.5751    0.4377    6.6644 C   0  0  0  0  0  0  0  0  0  0  0  0
    4.0734   -0.8289    6.3888 C   0  0  0  0  0  0  0  0  0  0  0  0
    4.0029   -1.7713    7.3726 C   0  0  0  0  0  0  0  0  0  0  0  0
    4.6539   -1.0896    5.0457 C   0  0  0  0  0  0  0  0  0  0  0  0
    2.3827    0.0434   10.2093 C   0  0  0  0  0  0  0  0  0  0  0  0
    1.3144    0.8385   10.3079 N   0  0  0  0  0  0  0  0  0  0  0  0
    0.7956    1.1256   11.4993 C   0  0  0  0  0  0  0  0  0  0  0  0
    1.3368    0.6175   12.6645 C   0  0  0  0  0  0  0  0  0  0  0  0
    2.4375   -0.1988   12.5279 C   0  0  0  0  0  0  0  0  0  0  0  0
    2.9340   -0.4669   11.3124 N   0  0  0  0  0  0  0  0  0  0  0  0
   -0.0441   -1.6494   10.0037 C   0  0  0  0  0  0  0  0  0  0  0  0
   -0.9986   -0.9744    9.4466 O   0  0  0  0  0  0  0  0  0  0  0  0
   -1.9507   -0.3010    8.8909 C   0  0  0  0  0  0  0  0  0  0  0  0
   -3.2628   -0.6547    8.8470 N   0  0  0  0  0  0  0  0  0  0  0  0
   -4.1913    0.0869    8.2569 C   0  0  0  0  0  0  0  0  0  0  0  0
   -3.8956    1.2771    7.6410 C   0  0  0  0  0  0  0  0  0  0  0  0
   -2.5855    1.6835    7.6547 C   0  0  0  0  0  0  0  0  0  0  0  0
   -1.6387    0.9199    8.2606 C   0  0  0  0  0  0  0  0  0  0  0  0
   -4.8325    2.0432    7.0353 F   0  0  0  0  0  0  0  0  0  0  0  0
  1  2  1  0
  2  3  1  0
  3  4  1  0
  4  5  1  0
  5  6  1  0
  6  7  1  0
  7  8  1  0
  8  9  2  0
  8 10  1  0
 10 11  1  0
 11 12  2  0
 12 13  1  0
 13 14  2  0
 14 15  1  0
 14 16  1  0
 11 17  1  0
 17 18  2  0
 18 19  1  0
 19 20  2  0
 20 21  1  0
 21 22  2  0
  5 23  1  0
 23 24  1  0
 24 25  1  0
 25 26  2  0
 26 27  1  0
 27 28  2  0
 28 29  1  0
 29 30  2  0
 28 31  1  0
  7  2  1  0
 15 10  2  0
 22 17  1  0
 30 25  1  0
M  END
$$$$
