
     RDKit          3D

 31 34  0  0  0  0  0  0  0  0999 V2000
   -1.4456   -5.0455   10.9861 C   0  0  0  0  0  0  0  0  0  0  0  0
   -0.5331   -4.0812   11.6776 C   0  0  0  0  0  0  0  0  0  0  0  0
    0.7732   -4.7954   12.0232 C   0  0  0  0  0  0  0  0  0  0  0  0
    1.6078   -5.0462   10.7944 C   0  0  0  0  0  0  0  0  0  0  0  0
    1.9764   -3.7642   10.1043 C   0  0  0  0  0  0  0  0  0  0  0  0
    1.2276   -2.6356   10.7515 C   0  0  0  0  0  0  0  0  0  0  0  0
   -0.1859   -2.9190   10.8972 N   0  0  0  0  0  0  0  0  0  0  0  0
   -1.1126   -2.0519   10.2759 C   0  0  0  0  0  0  0  0  0  0  0  0
   -2.3085   -2.4254   10.0193 O   0  0  0  0  0  0  0  0  0  0  0  0
   -0.8207   -0.6824    9.8714 C   0  0  0  0  0  0  0  0  0  0  0  0
   -0.4502    0.2124   10.8517 C   0  0  0  0  0  0  0  0  0  0  0  0
   -0.1671    1.5123   10.5019 C   0  0  0  0  0  0  0  0  0  0  0  0
   -0.2431    1.9560    9.1824 C   0  0  0  0  0  0  0  0  0  0  0  0
   -0.6167    1.0527    8.1959 C   0  0  0  0  0  0  0  0  0  0  0  0
   -0.8909   -0.2290    8.5738 C   0  0  0  0  0  0  0  0  0  0  0  0
   -0.6971    1.5265    6.7895 C   0  0  0  0  0  0  0  0  0  0  0  0
   -0.3481   -0.1874   12.2709 C   0  0  0  0  0  0  0  0  0  0  0  0
   -1.2226   -1.0361   12.8168 N   0  0  0  0  0  0  0  0  0  0  0  0
   -1.1139   -1.3854   14.0964 C   0  0  0  0  0  0  0  0  0  0  0  0
   -0.1041   -0.8885   14.8977 C   0  0  0  0  0  0  0  0  0  0  0  0
    0.7807   -0.0160   14.3041 C   0  0  0  0  0  0  0  0  0  0  0  0
    0.6415    0.3141   13.0128 N   0  0  0  0  0  0  0  0  0  0  0  0
    1.5294   -3.7966    8.6278 C   0  0  0  0  0  0  0  0  0  0  0  0
    2.0986   -2.8409    7.9647 O   0  0  0  0  0  0  0  0  0  0  0  0
    2.6665   -1.8877    7.3031 C   0  0  0  0  0  0  0  0  0  0  0  0
    3.9546   -1.4742    7.4394 N   0  0  0  0  0  0  0  0  0  0  0  0
    4.4749   -0.4848    6.7249 C   0  0  0  0  0  0  0  0  0  0  0  0
    3.7467    0.2021    5.7863 C   0  0  0  0  0  0  0  0  0  0  0  0
    2.4396   -0.1732    5.6065 C   0  0  0  0  0  0  0  0  0  0  0  0
    1.9119   -1.1873    6.3411 C   0  0  0  0  0  0  0  0  0  0  0  0
    4.2646    1.2133    5.0507 F   0  0  0  0  0  0  0  0  0  0  0  0
  1  2  1  0
  2  3  1  0
  3  4  1  0
  4  5  1  0
  5  6  1  0
  6  7  1  0
  7  8  1  0
  8  9  2  0
  8 10  1  0
 10 11  1  0
 11 12  2  0
 12 13  1  0
 13 14  2  0
 14 15  1  0
 14 16  1  0
 11 17  1  0
 17 18  2  0
 18 19  1  0
 19 20  2  0
 20 21  1  0
 21 22  2  0
  5 23  1  0
 23 24  1  0
 24 25  1  0
 25 26  2  0
 26 27  1  0
 27 28  2  0
 28 29  1  0
 29 30  2  0
 28 31  1  0
  7  2  1  0
 15 10  2  0
 22 17  1  0
 30 25  1  0
M  END
$$$$
