
     RDKit          3D

 31 34  0  0  0  0  0  0  0  0999 V2000
   -2.2601   -4.0122    9.3545 C   0  0  0  0  0  0  0  0  0  0  0  0
   -1.8320   -2.7083    9.9521 C   0  0  0  0  0  0  0  0  0  0  0  0
   -1.7183   -2.8708   11.4676 C   0  0  0  0  0  0  0  0  0  0  0  0
   -0.5142   -3.6929   11.8465 C   0  0  0  0  0  0  0  0  0  0  0  0
    0.7616   -3.0559   11.3753 C   0  0  0  0  0  0  0  0  0  0  0  0
    0.4214   -1.8876   10.4964 C   0  0  0  0  0  0  0  0  0  0  0  0
   -0.5577   -2.2228    9.4822 N   0  0  0  0  0  0  0  0  0  0  0  0
   -0.2039   -2.0536    8.1247 C   0  0  0  0  0  0  0  0  0  0  0  0
   -0.8185   -2.6760    7.1917 O   0  0  0  0  0  0  0  0  0  0  0  0
    0.8637   -1.1818    7.6510 C   0  0  0  0  0  0  0  0  0  0  0  0
    0.7521    0.1680    7.9054 C   0  0  0  0  0  0  0  0  0  0  0  0
    1.7438    1.0171    7.4722 C   0  0  0  0  0  0  0  0  0  0  0  0
    2.8630    0.5549    6.7811 C   0  0  0  0  0  0  0  0  0  0  0  0
    2.9737   -0.8057    6.5257 C   0  0  0  0  0  0  0  0  0  0  0  0
    1.9744   -1.6223    6.9679 C   0  0  0  0  0  0  0  0  0  0  0  0
    4.1671   -1.2976    5.7891 C   0  0  0  0  0  0  0  0  0  0  0  0
   -0.4058    0.7288    8.6329 C   0  0  0  0  0  0  0  0  0  0  0  0
   -1.4655   -0.0250    8.9360 N   0  0  0  0  0  0  0  0  0  0  0  0
   -2.4986    0.4974    9.5925 C   0  0  0  0  0  0  0  0  0  0  0  0
   -2.5125    1.8234    9.9801 C   0  0  0  0  0  0  0  0  0  0  0  0
   -1.4047    2.5729    9.6522 C   0  0  0  0  0  0  0  0  0  0  0  0
   -0.3820    2.0144    8.9904 N   0  0  0  0  0  0  0  0  0  0  0  0
    1.5678   -4.0405   10.5025 C   0  0  0  0  0  0  0  0  0  0  0  0
    2.8358   -3.7984   10.6059 O   0  0  0  0  0  0  0  0  0  0  0  0
    4.1006   -3.5570   10.7091 C   0  0  0  0  0  0  0  0  0  0  0  0
    4.8187   -3.5240   11.8633 N   0  0  0  0  0  0  0  0  0  0  0  0
    6.1202   -3.2685   11.8970 C   0  0  0  0  0  0  0  0  0  0  0  0
    6.8465   -3.0161   10.7603 C   0  0  0  0  0  0  0  0  0  0  0  0
    6.1722   -3.0366    9.5659 C   0  0  0  0  0  0  0  0  0  0  0  0
    4.8392   -3.2989    9.5373 C   0  0  0  0  0  0  0  0  0  0  0  0
    8.1741   -2.7539   10.7802 F   0  0  0  0  0  0  0  0  0  0  0  0
  1  2  1  0
  2  3  1  0
  3  4  1  0
  4  5  1  0
  5  6  1  0
  6  7  1  0
  7  8  1  0
  8  9  2  0
  8 10  1  0
 10 11  1  0
 11 12  2  0
 12 13  1  0
 13 14  2  0
 14 15  1  0
 14 16  1  0
 11 17  1  0
 17 18  2  0
 18 19  1  0
 19 20  2  0
 20 21  1  0
 21 22  2  0
  5 23  1  0
 23 24  1  0
 24 25  1  0
 25 26  2  0
 26 27  1  0
 27 28  2  0
 28 29  1  0
 29 30  2  0
 28 31  1  0
  7  2  1  0
 15 10  2  0
 22 17  1  0
 30 25  1  0
M  END
$$$$
