
     RDKit          3D

 31 34  0  0  0  0  0  0  0  0999 V2000
    5.5083   -2.7937    9.7732 C   0  0  0  0  0  0  0  0  0  0  0  0
    4.3466   -3.4778   10.4236 C   0  0  0  0  0  0  0  0  0  0  0  0
    4.3289   -3.1202   11.9095 C   0  0  0  0  0  0  0  0  0  0  0  0
    3.8965   -1.6941   12.1296 C   0  0  0  0  0  0  0  0  0  0  0  0
    2.5125   -1.4474   11.6012 C   0  0  0  0  0  0  0  0  0  0  0  0
    2.0648   -2.6595   10.8373 C   0  0  0  0  0  0  0  0  0  0  0  0
    3.0586   -3.1141    9.8859 N   0  0  0  0  0  0  0  0  0  0  0  0
    2.7044   -3.1700    8.5191 C   0  0  0  0  0  0  0  0  0  0  0  0
    3.1266   -4.1066    7.7574 O   0  0  0  0  0  0  0  0  0  0  0  0
    1.8483   -2.2009    7.8466 C   0  0  0  0  0  0  0  0  0  0  0  0
    0.4868   -2.3101    8.0289 C   0  0  0  0  0  0  0  0  0  0  0  0
   -0.3480   -1.4099    7.4085 C   0  0  0  0  0  0  0  0  0  0  0  0
    0.1405   -0.3863    6.5977 C   0  0  0  0  0  0  0  0  0  0  0  0
    1.5129   -0.2778    6.4151 C   0  0  0  0  0  0  0  0  0  0  0  0
    2.3147   -1.1851    7.0435 C   0  0  0  0  0  0  0  0  0  0  0  0
    2.0327    0.8137    5.5508 C   0  0  0  0  0  0  0  0  0  0  0  0
   -0.1018   -3.3695    8.8749 C   0  0  0  0  0  0  0  0  0  0  0  0
   -1.1980   -3.1456    9.6038 N   0  0  0  0  0  0  0  0  0  0  0  0
   -1.7142   -4.1123   10.3589 C   0  0  0  0  0  0  0  0  0  0  0  0
   -1.1417   -5.3684   10.4158 C   0  0  0  0  0  0  0  0  0  0  0  0
   -0.0127   -5.5661    9.6523 C   0  0  0  0  0  0  0  0  0  0  0  0
    0.4802   -4.5701    8.9034 N   0  0  0  0  0  0  0  0  0  0  0  0
    2.5174   -0.2747   10.5982 C   0  0  0  0  0  0  0  0  0  0  0  0
    1.4702    0.4677   10.7694 O   0  0  0  0  0  0  0  0  0  0  0  0
    0.4255    1.2081   10.9402 C   0  0  0  0  0  0  0  0  0  0  0  0
   -0.2005    1.9440    9.9834 N   0  0  0  0  0  0  0  0  0  0  0  0
   -1.2731    2.6851   10.2289 C   0  0  0  0  0  0  0  0  0  0  0  0
   -1.8372    2.7659   11.4774 C   0  0  0  0  0  0  0  0  0  0  0  0
   -1.2461    2.0431   12.4823 C   0  0  0  0  0  0  0  0  0  0  0  0
   -0.1476    1.2857   12.2250 C   0  0  0  0  0  0  0  0  0  0  0  0
   -2.9309    3.5179   11.7419 F   0  0  0  0  0  0  0  0  0  0  0  0
  1  2  1  0
  2  3  1  0
  3  4  1  0
  4  5  1  0
  5  6  1  0
  6  7  1  0
  7  8  1  0
  8  9  2  0
  8 10  1  0
 10 11  1  0
 11 12  2  0
 12 13  1  0
 13 14  2  0
 14 15  1  0
 14 16  1  0
 11 17  1  0
 17 18  2  0
 18 19  1  0
 19 20  2  0
 20 21  1  0
 21 22  2  0
  5 23  1  0
 23 24  1  0
 24 25  1  0
 25 26  2  0
 26 27  1  0
 27 28  2  0
 28 29  1  0
 29 30  2  0
 28 31  1  0
  7  2  1  0
 15 10  2  0
 22 17  1  0
 30 25  1  0
M  END
$$$$
