
     RDKit          3D

 25 27  0  0  0  0  0  0  0  0999 V2000
   -0.7210   -0.7039    6.3254 C   0  0  0  0  0  0  0  0  0  0  0  0
   -0.3722    0.1621    7.4902 C   0  0  0  0  0  0  0  0  0  0  0  0
   -1.1820    0.3284    8.5696 C   0  0  0  0  0  0  0  0  0  0  0  0
   -0.7821    1.1472    9.6012 C   0  0  0  0  0  0  0  0  0  0  0  0
    0.4282    1.8047    9.5612 C   0  0  0  0  0  0  0  0  0  0  0  0
    1.2584    1.6314    8.4496 C   0  0  0  0  0  0  0  0  0  0  0  0
    0.8431    0.8124    7.4329 C   0  0  0  0  0  0  0  0  0  0  0  0
   -1.6682    1.2971   10.7267 N   0  0  0  0  0  0  0  0  0  0  0  0
   -2.6826    0.5040   11.0256 N   0  0  0  0  0  0  0  0  0  0  0  0
   -3.3043    0.9261   12.1401 C   0  0  0  0  0  0  0  0  0  0  0  0
   -2.5995    2.0579   12.5281 C   0  0  0  0  0  0  0  0  0  0  0  0
   -1.6107    2.2503   11.6415 N   0  0  0  0  0  0  0  0  0  0  0  0
   -2.8527    2.8872   13.6571 N   0  0  0  0  0  0  0  0  0  0  0  0
   -4.4579    0.3544   12.8178 C   0  0  0  0  0  0  0  0  0  0  0  0
   -5.2251   -0.4648   12.1903 N   0  0  0  0  0  0  0  0  0  0  0  0
   -6.3607   -1.0506   12.8571 C   0  0  0  0  0  0  0  0  0  0  0  0
   -6.1381   -2.5344   12.9457 C   0  0  0  0  0  0  0  0  0  0  0  0
   -5.2183   -3.1577   12.1294 C   0  0  0  0  0  0  0  0  0  0  0  0
   -4.9959   -4.5170   12.1907 C   0  0  0  0  0  0  0  0  0  0  0  0
   -5.7226   -5.2547   13.0992 C   0  0  0  0  0  0  0  0  0  0  0  0
   -6.6545   -4.6305   13.9278 C   0  0  0  0  0  0  0  0  0  0  0  0
   -6.8548   -3.2902   13.8476 C   0  0  0  0  0  0  0  0  0  0  0  0
   -7.7672   -2.6128   14.6446 O   0  0  0  0  0  0  0  0  0  0  0  0
   -7.6234   -2.7276   16.0482 C   0  0  0  0  0  0  0  0  0  0  0  0
   -4.7441    0.6930   14.1649 N   0  0  0  0  0  0  0  0  0  0  0  0
  1  2  1  0
  2  3  2  0
  3  4  1  0
  4  5  2  0
  5  6  1  0
  6  7  2  0
  4  8  1  0
  8  9  1  0
  9 10  2  0
 10 11  1  0
 11 12  2  0
 11 13  1  0
 10 14  1  0
 14 15  2  3
 15 16  1  0
 16 17  1  0
 17 18  2  0
 18 19  1  0
 19 20  2  0
 20 21  1  0
 21 22  2  0
 22 23  1  0
 23 24  1  0
 14 25  1  0
  7  2  1  0
 12  8  1  0
 22 17  1  0
M  END
$$$$
