
     RDKit          3D

 25 27  0  0  0  0  0  0  0  0999 V2000
   -0.2608    3.4292    7.0160 C   0  0  0  0  0  0  0  0  0  0  0  0
   -0.4967    2.2103    7.8449 C   0  0  0  0  0  0  0  0  0  0  0  0
   -1.2035    2.2190    9.0062 C   0  0  0  0  0  0  0  0  0  0  0  0
   -1.3728    1.0478    9.7092 C   0  0  0  0  0  0  0  0  0  0  0  0
   -0.8375   -0.1387    9.2568 C   0  0  0  0  0  0  0  0  0  0  0  0
   -0.1112   -0.1439    8.0622 C   0  0  0  0  0  0  0  0  0  0  0  0
    0.0465    1.0318    7.3767 C   0  0  0  0  0  0  0  0  0  0  0  0
   -2.1279    1.0987   10.9346 N   0  0  0  0  0  0  0  0  0  0  0  0
   -2.4831    0.0592   11.6699 N   0  0  0  0  0  0  0  0  0  0  0  0
   -3.1803    0.4554   12.7487 C   0  0  0  0  0  0  0  0  0  0  0  0
   -3.2400    1.8384   12.6395 C   0  0  0  0  0  0  0  0  0  0  0  0
   -2.5873    2.1910   11.5214 N   0  0  0  0  0  0  0  0  0  0  0  0
   -3.8710    2.7481   13.5345 N   0  0  0  0  0  0  0  0  0  0  0  0
   -3.7586   -0.3512   13.8125 C   0  0  0  0  0  0  0  0  0  0  0  0
   -4.5219    0.2003   14.6881 N   0  0  0  0  0  0  0  0  0  0  0  0
   -5.0524   -0.5765   15.7802 C   0  0  0  0  0  0  0  0  0  0  0  0
   -6.2368   -1.3504   15.2729 C   0  0  0  0  0  0  0  0  0  0  0  0
   -6.9453   -0.9121   14.1742 C   0  0  0  0  0  0  0  0  0  0  0  0
   -8.0354   -1.6033   13.6896 C   0  0  0  0  0  0  0  0  0  0  0  0
   -8.4108   -2.7611   14.3347 C   0  0  0  0  0  0  0  0  0  0  0  0
   -7.6986   -3.2099   15.4464 C   0  0  0  0  0  0  0  0  0  0  0  0
   -6.6286   -2.5108   15.9038 C   0  0  0  0  0  0  0  0  0  0  0  0
   -5.8810   -2.9065   17.0043 O   0  0  0  0  0  0  0  0  0  0  0  0
   -5.8371   -4.2894   17.3038 C   0  0  0  0  0  0  0  0  0  0  0  0
   -3.4875   -1.7409   13.8927 N   0  0  0  0  0  0  0  0  0  0  0  0
  1  2  1  0
  2  3  2  0
  3  4  1  0
  4  5  2  0
  5  6  1  0
  6  7  2  0
  4  8  1  0
  8  9  1  0
  9 10  2  0
 10 11  1  0
 11 12  2  0
 11 13  1  0
 10 14  1  0
 14 15  2  3
 15 16  1  0
 16 17  1  0
 17 18  2  0
 18 19  1  0
 19 20  2  0
 20 21  1  0
 21 22  2  0
 22 23  1  0
 23 24  1  0
 14 25  1  0
  7  2  1  0
 12  8  1  0
 22 17  1  0
M  END
$$$$
