
     RDKit          3D

 25 27  0  0  0  0  0  0  0  0999 V2000
    0.1205    4.4113    8.3546 C   0  0  0  0  0  0  0  0  0  0  0  0
   -0.1244    2.9399    8.4116 C   0  0  0  0  0  0  0  0  0  0  0  0
   -0.8343    2.3361    9.4015 C   0  0  0  0  0  0  0  0  0  0  0  0
   -1.0120    0.9714    9.3769 C   0  0  0  0  0  0  0  0  0  0  0  0
   -0.4820    0.2018    8.3642 C   0  0  0  0  0  0  0  0  0  0  0  0
    0.2475    0.8261    7.3479 C   0  0  0  0  0  0  0  0  0  0  0  0
    0.4135    2.1854    7.3897 C   0  0  0  0  0  0  0  0  0  0  0  0
   -1.7702    0.3697   10.4435 N   0  0  0  0  0  0  0  0  0  0  0  0
   -2.1358    0.9647   11.5659 N   0  0  0  0  0  0  0  0  0  0  0  0
   -2.8324    0.1209   12.3467 C   0  0  0  0  0  0  0  0  0  0  0  0
   -2.8806   -1.0652   11.6263 C   0  0  0  0  0  0  0  0  0  0  0  0
   -2.2222   -0.8726   10.4729 N   0  0  0  0  0  0  0  0  0  0  0  0
   -3.5072   -2.2840   12.0117 N   0  0  0  0  0  0  0  0  0  0  0  0
   -3.4193    0.3584   13.6566 C   0  0  0  0  0  0  0  0  0  0  0  0
   -3.1807    1.4621   14.2719 N   0  0  0  0  0  0  0  0  0  0  0  0
   -3.7405    1.6997   15.5786 C   0  0  0  0  0  0  0  0  0  0  0  0
   -4.8032    2.7546   15.4484 C   0  0  0  0  0  0  0  0  0  0  0  0
   -5.2906    3.1129   14.2094 C   0  0  0  0  0  0  0  0  0  0  0  0
   -6.2647    4.0777   14.0631 C   0  0  0  0  0  0  0  0  0  0  0  0
   -6.7513    4.6883   15.1980 C   0  0  0  0  0  0  0  0  0  0  0  0
   -6.2626    4.3305   16.4542 C   0  0  0  0  0  0  0  0  0  0  0  0
   -5.3031    3.3774   16.5711 C   0  0  0  0  0  0  0  0  0  0  0  0
   -4.7777    2.9791   17.7925 O   0  0  0  0  0  0  0  0  0  0  0  0
   -5.5126    3.3018   18.9587 C   0  0  0  0  0  0  0  0  0  0  0  0
   -4.2525   -0.6169   14.2614 N   0  0  0  0  0  0  0  0  0  0  0  0
  1  2  1  0
  2  3  2  0
  3  4  1  0
  4  5  2  0
  5  6  1  0
  6  7  2  0
  4  8  1  0
  8  9  1  0
  9 10  2  0
 10 11  1  0
 11 12  2  0
 11 13  1  0
 10 14  1  0
 14 15  2  3
 15 16  1  0
 16 17  1  0
 17 18  2  0
 18 19  1  0
 19 20  2  0
 20 21  1  0
 21 22  2  0
 22 23  1  0
 23 24  1  0
 14 25  1  0
  7  2  1  0
 12  8  1  0
 22 17  1  0
M  END
$$$$
