
     RDKit          3D

 25 27  0  0  0  0  0  0  0  0999 V2000
   -0.2085    4.0568    7.2363 C   0  0  0  0  0  0  0  0  0  0  0  0
   -0.0645    2.7446    7.9334 C   0  0  0  0  0  0  0  0  0  0  0  0
   -0.8032    2.3867    9.0171 C   0  0  0  0  0  0  0  0  0  0  0  0
   -0.6051    1.1555    9.5998 C   0  0  0  0  0  0  0  0  0  0  0  0
    0.3315    0.2747    9.1040 C   0  0  0  0  0  0  0  0  0  0  0  0
    1.0894    0.6462    7.9894 C   0  0  0  0  0  0  0  0  0  0  0  0
    0.8778    1.8757    7.4233 C   0  0  0  0  0  0  0  0  0  0  0  0
   -1.4076    0.8138   10.7459 N   0  0  0  0  0  0  0  0  0  0  0  0
   -2.4813    1.4632   11.1618 N   0  0  0  0  0  0  0  0  0  0  0  0
   -2.9932    0.8818   12.2603 C   0  0  0  0  0  0  0  0  0  0  0  0
   -2.1539   -0.1957   12.5108 C   0  0  0  0  0  0  0  0  0  0  0  0
   -1.2009   -0.2026   11.5662 N   0  0  0  0  0  0  0  0  0  0  0  0
   -2.2573   -1.1421   13.5693 N   0  0  0  0  0  0  0  0  0  0  0  0
   -4.1606    1.2647   13.0397 C   0  0  0  0  0  0  0  0  0  0  0  0
   -4.5407    0.5283   14.0229 N   0  0  0  0  0  0  0  0  0  0  0  0
   -5.7356    0.8596   14.7578 C   0  0  0  0  0  0  0  0  0  0  0  0
   -5.3397    1.6912   15.9456 C   0  0  0  0  0  0  0  0  0  0  0  0
   -4.6122    2.8508   15.7815 C   0  0  0  0  0  0  0  0  0  0  0  0
   -4.2364    3.6308   16.8545 C   0  0  0  0  0  0  0  0  0  0  0  0
   -4.6078    3.2231   18.1168 C   0  0  0  0  0  0  0  0  0  0  0  0
   -5.3438    2.0512   18.2898 C   0  0  0  0  0  0  0  0  0  0  0  0
   -5.7013    1.3009   17.2165 C   0  0  0  0  0  0  0  0  0  0  0  0
   -6.4327    0.1262   17.3249 O   0  0  0  0  0  0  0  0  0  0  0  0
   -7.8025    0.1719   16.9706 C   0  0  0  0  0  0  0  0  0  0  0  0
   -4.8837    2.4433   12.7243 N   0  0  0  0  0  0  0  0  0  0  0  0
  1  2  1  0
  2  3  2  0
  3  4  1  0
  4  5  2  0
  5  6  1  0
  6  7  2  0
  4  8  1  0
  8  9  1  0
  9 10  2  0
 10 11  1  0
 11 12  2  0
 11 13  1  0
 10 14  1  0
 14 15  2  3
 15 16  1  0
 16 17  1  0
 17 18  2  0
 18 19  1  0
 19 20  2  0
 20 21  1  0
 21 22  2  0
 22 23  1  0
 23 24  1  0
 14 25  1  0
  7  2  1  0
 12  8  1  0
 22 17  1  0
M  END
$$$$
