
     RDKit          3D

 25 27  0  0  0  0  0  0  0  0999 V2000
    0.0645    3.4219    7.5144 C   0  0  0  0  0  0  0  0  0  0  0  0
   -0.0520    2.1944    8.3559 C   0  0  0  0  0  0  0  0  0  0  0  0
   -0.8302    2.1194    9.4682 C   0  0  0  0  0  0  0  0  0  0  0  0
   -0.8791    0.9467   10.1873 C   0  0  0  0  0  0  0  0  0  0  0  0
   -0.1514   -0.1576    9.8001 C   0  0  0  0  0  0  0  0  0  0  0  0
    0.6477   -0.0768    8.6557 C   0  0  0  0  0  0  0  0  0  0  0  0
    0.6833    1.0989    7.9533 C   0  0  0  0  0  0  0  0  0  0  0  0
   -1.7152    0.9075   11.3593 N   0  0  0  0  0  0  0  0  0  0  0  0
   -2.1457   -0.1840   11.9682 N   0  0  0  0  0  0  0  0  0  0  0  0
   -2.9056    0.1322   13.0309 C   0  0  0  0  0  0  0  0  0  0  0  0
   -2.9237    1.5206   13.0489 C   0  0  0  0  0  0  0  0  0  0  0  0
   -2.1870    1.9546   12.0147 N   0  0  0  0  0  0  0  0  0  0  0  0
   -3.5922    2.3627   13.9819 N   0  0  0  0  0  0  0  0  0  0  0  0
   -3.5754   -0.7510   13.9733 C   0  0  0  0  0  0  0  0  0  0  0  0
   -4.3847   -0.2596   14.8434 N   0  0  0  0  0  0  0  0  0  0  0  0
   -5.0675   -1.1270   15.7701 C   0  0  0  0  0  0  0  0  0  0  0  0
   -6.3702   -1.5452   15.1477 C   0  0  0  0  0  0  0  0  0  0  0  0
   -7.0611   -0.6872   14.3186 C   0  0  0  0  0  0  0  0  0  0  0  0
   -8.2579   -1.0464   13.7359 C   0  0  0  0  0  0  0  0  0  0  0  0
   -8.7601   -2.3013   14.0017 C   0  0  0  0  0  0  0  0  0  0  0  0
   -8.0662   -3.1740   14.8394 C   0  0  0  0  0  0  0  0  0  0  0  0
   -6.8896   -2.7959   15.4009 C   0  0  0  0  0  0  0  0  0  0  0  0
   -6.1539   -3.6192   16.2420 O   0  0  0  0  0  0  0  0  0  0  0  0
   -6.3221   -3.4491   17.6373 C   0  0  0  0  0  0  0  0  0  0  0  0
   -3.3434   -2.1497   13.9410 N   0  0  0  0  0  0  0  0  0  0  0  0
  1  2  1  0
  2  3  2  0
  3  4  1  0
  4  5  2  0
  5  6  1  0
  6  7  2  0
  4  8  1  0
  8  9  1  0
  9 10  2  0
 10 11  1  0
 11 12  2  0
 11 13  1  0
 10 14  1  0
 14 15  2  3
 15 16  1  0
 16 17  1  0
 17 18  2  0
 18 19  1  0
 19 20  2  0
 20 21  1  0
 21 22  2  0
 22 23  1  0
 23 24  1  0
 14 25  1  0
  7  2  1  0
 12  8  1  0
 22 17  1  0
M  END
$$$$
