
     RDKit          3D

 25 27  0  0  0  0  0  0  0  0999 V2000
    1.1910    0.0448    7.8584 C   0  0  0  0  0  0  0  0  0  0  0  0
    0.4957    1.1816    8.5312 C   0  0  0  0  0  0  0  0  0  0  0  0
   -0.3248    1.0287    9.6044 C   0  0  0  0  0  0  0  0  0  0  0  0
   -0.9270    2.1327   10.1639 C   0  0  0  0  0  0  0  0  0  0  0  0
   -0.7136    3.3955    9.6553 C   0  0  0  0  0  0  0  0  0  0  0  0
    0.1308    3.5490    8.5516 C   0  0  0  0  0  0  0  0  0  0  0  0
    0.7211    2.4382    8.0086 C   0  0  0  0  0  0  0  0  0  0  0  0
   -1.7891    1.9290   11.2996 N   0  0  0  0  0  0  0  0  0  0  0  0
   -2.2290    0.7626   11.7394 N   0  0  0  0  0  0  0  0  0  0  0  0
   -3.0136    0.9261   12.8185 C   0  0  0  0  0  0  0  0  0  0  0  0
   -3.0372    2.2982   13.0307 C   0  0  0  0  0  0  0  0  0  0  0  0
   -2.2792    2.8735   12.0845 N   0  0  0  0  0  0  0  0  0  0  0  0
   -3.7296    3.0008   14.0571 N   0  0  0  0  0  0  0  0  0  0  0  0
   -3.7010   -0.0810   13.6123 C   0  0  0  0  0  0  0  0  0  0  0  0
   -3.5261   -1.3278   13.3509 N   0  0  0  0  0  0  0  0  0  0  0  0
   -4.2737   -2.3308   14.0669 C   0  0  0  0  0  0  0  0  0  0  0  0
   -5.1570   -3.0473   13.0844 C   0  0  0  0  0  0  0  0  0  0  0  0
   -4.6200   -3.6587   11.9713 C   0  0  0  0  0  0  0  0  0  0  0  0
   -5.4086   -4.3217   11.0550 C   0  0  0  0  0  0  0  0  0  0  0  0
   -6.7676   -4.3632   11.2758 C   0  0  0  0  0  0  0  0  0  0  0  0
   -7.3172   -3.7470   12.3997 C   0  0  0  0  0  0  0  0  0  0  0  0
   -6.5188   -3.1004   13.2869 C   0  0  0  0  0  0  0  0  0  0  0  0
   -7.0065   -2.4687   14.4225 O   0  0  0  0  0  0  0  0  0  0  0  0
   -8.1222   -1.6112   14.2675 C   0  0  0  0  0  0  0  0  0  0  0  0
   -4.5628    0.3003   14.6720 N   0  0  0  0  0  0  0  0  0  0  0  0
  1  2  1  0
  2  3  2  0
  3  4  1  0
  4  5  2  0
  5  6  1  0
  6  7  2  0
  4  8  1  0
  8  9  1  0
  9 10  2  0
 10 11  1  0
 11 12  2  0
 11 13  1  0
 10 14  1  0
 14 15  2  3
 15 16  1  0
 16 17  1  0
 17 18  2  0
 18 19  1  0
 19 20  2  0
 20 21  1  0
 21 22  2  0
 22 23  1  0
 23 24  1  0
 14 25  1  0
  7  2  1  0
 12  8  1  0
 22 17  1  0
M  END
$$$$
