
     RDKit          3D

 25 27  0  0  0  0  0  0  0  0999 V2000
    0.8663    3.0874    7.9910 C   0  0  0  0  0  0  0  0  0  0  0  0
    0.2577    1.9147    8.6858 C   0  0  0  0  0  0  0  0  0  0  0  0
   -0.6230    2.0277    9.7154 C   0  0  0  0  0  0  0  0  0  0  0  0
   -1.1363    0.8923   10.3002 C   0  0  0  0  0  0  0  0  0  0  0  0
   -0.7733   -0.3623    9.8605 C   0  0  0  0  0  0  0  0  0  0  0  0
    0.1325   -0.4747    8.8016 C   0  0  0  0  0  0  0  0  0  0  0  0
    0.6325    0.6668    8.2324 C   0  0  0  0  0  0  0  0  0  0  0  0
   -2.0663    1.0542   11.3879 N   0  0  0  0  0  0  0  0  0  0  0  0
   -2.6934    0.0792   12.0232 N   0  0  0  0  0  0  0  0  0  0  0  0
   -3.4898    0.5740   12.9864 C   0  0  0  0  0  0  0  0  0  0  0  0
   -3.3177    1.9499   12.9120 C   0  0  0  0  0  0  0  0  0  0  0  0
   -2.4431    2.2019   11.9260 N   0  0  0  0  0  0  0  0  0  0  0  0
   -3.9405    2.9423   13.7205 N   0  0  0  0  0  0  0  0  0  0  0  0
   -4.3526   -0.1378   13.9168 C   0  0  0  0  0  0  0  0  0  0  0  0
   -5.2014    0.5163   14.6276 N   0  0  0  0  0  0  0  0  0  0  0  0
   -6.1645   -0.1871   15.4371 C   0  0  0  0  0  0  0  0  0  0  0  0
   -5.9435    0.2016   16.8721 C   0  0  0  0  0  0  0  0  0  0  0  0
   -5.6531    1.5061   17.2109 C   0  0  0  0  0  0  0  0  0  0  0  0
   -5.4457    1.8881   18.5193 C   0  0  0  0  0  0  0  0  0  0  0  0
   -5.5357    0.9251   19.5002 C   0  0  0  0  0  0  0  0  0  0  0  0
   -5.8292   -0.3962   19.1643 C   0  0  0  0  0  0  0  0  0  0  0  0
   -6.0290   -0.7465   17.8681 C   0  0  0  0  0  0  0  0  0  0  0  0
   -6.3238   -2.0438   17.4721 O   0  0  0  0  0  0  0  0  0  0  0  0
   -7.3656   -2.7167   18.1546 C   0  0  0  0  0  0  0  0  0  0  0  0
   -4.2657   -1.5473   14.0472 N   0  0  0  0  0  0  0  0  0  0  0  0
  1  2  1  0
  2  3  2  0
  3  4  1  0
  4  5  2  0
  5  6  1  0
  6  7  2  0
  4  8  1  0
  8  9  1  0
  9 10  2  0
 10 11  1  0
 11 12  2  0
 11 13  1  0
 10 14  1  0
 14 15  2  3
 15 16  1  0
 16 17  1  0
 17 18  2  0
 18 19  1  0
 19 20  2  0
 20 21  1  0
 21 22  2  0
 22 23  1  0
 23 24  1  0
 14 25  1  0
  7  2  1  0
 12  8  1  0
 22 17  1  0
M  END
$$$$
