
     RDKit          3D

 25 27  0  0  0  0  0  0  0  0999 V2000
    1.1601   -0.7659    8.4301 C   0  0  0  0  0  0  0  0  0  0  0  0
    0.2361    0.3470    8.7990 C   0  0  0  0  0  0  0  0  0  0  0  0
   -0.6581    0.2713    9.8202 C   0  0  0  0  0  0  0  0  0  0  0  0
   -1.4740    1.3460   10.0921 C   0  0  0  0  0  0  0  0  0  0  0  0
   -1.4017    2.5024    9.3461 C   0  0  0  0  0  0  0  0  0  0  0  0
   -0.4809    2.5767    8.2966 C   0  0  0  0  0  0  0  0  0  0  0  0
    0.3225    1.4967    8.0414 C   0  0  0  0  0  0  0  0  0  0  0  0
   -2.4078    1.2264   11.1821 N   0  0  0  0  0  0  0  0  0  0  0  0
   -2.7526    0.1031   11.7876 N   0  0  0  0  0  0  0  0  0  0  0  0
   -3.6458    0.3431   12.7630 C   0  0  0  0  0  0  0  0  0  0  0  0
   -3.8423    1.7173   12.7287 C   0  0  0  0  0  0  0  0  0  0  0  0
   -3.0703    2.2186   11.7523 N   0  0  0  0  0  0  0  0  0  0  0  0
   -4.6998    2.4874   13.5643 N   0  0  0  0  0  0  0  0  0  0  0  0
   -4.2857   -0.5969   13.6706 C   0  0  0  0  0  0  0  0  0  0  0  0
   -5.3872   -0.2745   14.2505 N   0  0  0  0  0  0  0  0  0  0  0  0
   -6.0608   -1.2199   15.1049 C   0  0  0  0  0  0  0  0  0  0  0  0
   -6.0815   -0.6593   16.4993 C   0  0  0  0  0  0  0  0  0  0  0  0
   -5.7218    0.6504   16.7364 C   0  0  0  0  0  0  0  0  0  0  0  0
   -5.7319    1.1884   18.0058 C   0  0  0  0  0  0  0  0  0  0  0  0
   -6.1151    0.3787   19.0523 C   0  0  0  0  0  0  0  0  0  0  0  0
   -6.4802   -0.9469   18.8195 C   0  0  0  0  0  0  0  0  0  0  0  0
   -6.4616   -1.4525   17.5598 C   0  0  0  0  0  0  0  0  0  0  0  0
   -6.8136   -2.7624   17.2654 O   0  0  0  0  0  0  0  0  0  0  0  0
   -7.2226   -3.5885   18.3399 C   0  0  0  0  0  0  0  0  0  0  0  0
   -3.7050   -1.8661   13.9218 N   0  0  0  0  0  0  0  0  0  0  0  0
  1  2  1  0
  2  3  2  0
  3  4  1  0
  4  5  2  0
  5  6  1  0
  6  7  2  0
  4  8  1  0
  8  9  1  0
  9 10  2  0
 10 11  1  0
 11 12  2  0
 11 13  1  0
 10 14  1  0
 14 15  2  3
 15 16  1  0
 16 17  1  0
 17 18  2  0
 18 19  1  0
 19 20  2  0
 20 21  1  0
 21 22  2  0
 22 23  1  0
 23 24  1  0
 14 25  1  0
  7  2  1  0
 12  8  1  0
 22 17  1  0
M  END
$$$$
