
     RDKit          3D

 25 27  0  0  0  0  0  0  0  0999 V2000
   -6.4012   -2.3053   16.3579 C   0  0  0  0  0  0  0  0  0  0  0  0
   -5.7632   -0.9744   16.1340 C   0  0  0  0  0  0  0  0  0  0  0  0
   -5.0432   -0.6659   15.0228 C   0  0  0  0  0  0  0  0  0  0  0  0
   -4.4878    0.5873   14.8974 C   0  0  0  0  0  0  0  0  0  0  0  0
   -4.6481    1.5395   15.8805 C   0  0  0  0  0  0  0  0  0  0  0  0
   -5.3891    1.2187   17.0219 C   0  0  0  0  0  0  0  0  0  0  0  0
   -5.9340   -0.0337   17.1285 C   0  0  0  0  0  0  0  0  0  0  0  0
   -3.7324    0.8751   13.7054 N   0  0  0  0  0  0  0  0  0  0  0  0
   -3.3807   -0.0012   12.7802 N   0  0  0  0  0  0  0  0  0  0  0  0
   -2.6820    0.5966   11.7998 C   0  0  0  0  0  0  0  0  0  0  0  0
   -2.6174    1.9311   12.1781 C   0  0  0  0  0  0  0  0  0  0  0  0
   -3.2691    2.0597   13.3441 N   0  0  0  0  0  0  0  0  0  0  0  0
   -1.9832    2.9966   11.4787 N   0  0  0  0  0  0  0  0  0  0  0  0
   -2.1063    0.0124   10.5981 C   0  0  0  0  0  0  0  0  0  0  0  0
   -2.0687    0.6978    9.5107 N   0  0  0  0  0  0  0  0  0  0  0  0
   -1.5927    0.0963    8.2903 C   0  0  0  0  0  0  0  0  0  0  0  0
   -0.2617    0.7083    7.9544 C   0  0  0  0  0  0  0  0  0  0  0  0
    0.9092    0.1372    8.4059 C   0  0  0  0  0  0  0  0  0  0  0  0
    2.1424    0.6792    8.1120 C   0  0  0  0  0  0  0  0  0  0  0  0
    2.1844    1.8225    7.3449 C   0  0  0  0  0  0  0  0  0  0  0  0
    1.0039    2.4052    6.8850 C   0  0  0  0  0  0  0  0  0  0  0  0
   -0.1979    1.8517    7.1884 C   0  0  0  0  0  0  0  0  0  0  0  0
   -1.4058    2.3850    6.7603 O   0  0  0  0  0  0  0  0  0  0  0  0
   -1.6791    3.7349    7.0877 C   0  0  0  0  0  0  0  0  0  0  0  0
   -1.5864   -1.3069   10.6151 N   0  0  0  0  0  0  0  0  0  0  0  0
  1  2  1  0
  2  3  2  0
  3  4  1  0
  4  5  2  0
  5  6  1  0
  6  7  2  0
  4  8  1  0
  8  9  1  0
  9 10  2  0
 10 11  1  0
 11 12  2  0
 11 13  1  0
 10 14  1  0
 14 15  2  3
 15 16  1  0
 16 17  1  0
 17 18  2  0
 18 19  1  0
 19 20  2  0
 20 21  1  0
 21 22  2  0
 22 23  1  0
 23 24  1  0
 14 25  1  0
  7  2  1  0
 12  8  1  0
 22 17  1  0
M  END
$$$$
