
     RDKit          3D

 25 27  0  0  0  0  0  0  0  0999 V2000
    0.4463    4.4407    8.7489 C   0  0  0  0  0  0  0  0  0  0  0  0
    0.1682    2.9763    8.8299 C   0  0  0  0  0  0  0  0  0  0  0  0
   -0.5640    2.4063    9.8235 C   0  0  0  0  0  0  0  0  0  0  0  0
   -0.7718    1.0457    9.8216 C   0  0  0  0  0  0  0  0  0  0  0  0
   -0.2499    0.2463    8.8279 C   0  0  0  0  0  0  0  0  0  0  0  0
    0.5026    0.8359    7.8076 C   0  0  0  0  0  0  0  0  0  0  0  0
    0.6985    2.1917    7.8267 C   0  0  0  0  0  0  0  0  0  0  0  0
   -1.5529    0.4803   10.8915 N   0  0  0  0  0  0  0  0  0  0  0  0
   -2.2820    1.1584   11.7610 N   0  0  0  0  0  0  0  0  0  0  0  0
   -2.8840    0.3264   12.6284 C   0  0  0  0  0  0  0  0  0  0  0  0
   -2.4766   -0.9424   12.2382 C   0  0  0  0  0  0  0  0  0  0  0  0
   -1.6669   -0.8059   11.1769 N   0  0  0  0  0  0  0  0  0  0  0  0
   -2.8348   -2.1848   12.8338 N   0  0  0  0  0  0  0  0  0  0  0  0
   -3.7689    0.6444   13.7387 C   0  0  0  0  0  0  0  0  0  0  0  0
   -4.0010   -0.2400   14.6428 N   0  0  0  0  0  0  0  0  0  0  0  0
   -4.9001    0.0534   15.7305 C   0  0  0  0  0  0  0  0  0  0  0  0
   -6.2218   -0.5984   15.4348 C   0  0  0  0  0  0  0  0  0  0  0  0
   -6.5651   -0.9386   14.1435 C   0  0  0  0  0  0  0  0  0  0  0  0
   -7.7711   -1.5368   13.8459 C   0  0  0  0  0  0  0  0  0  0  0  0
   -8.6430   -1.7934   14.8811 C   0  0  0  0  0  0  0  0  0  0  0  0
   -8.3019   -1.4518   16.1894 C   0  0  0  0  0  0  0  0  0  0  0  0
   -7.1079   -0.8635   16.4559 C   0  0  0  0  0  0  0  0  0  0  0  0
   -6.7125   -0.5008   17.7360 O   0  0  0  0  0  0  0  0  0  0  0  0
   -6.4236   -1.5407   18.6521 C   0  0  0  0  0  0  0  0  0  0  0  0
   -4.3784    1.9215   13.8325 N   0  0  0  0  0  0  0  0  0  0  0  0
  1  2  1  0
  2  3  2  0
  3  4  1  0
  4  5  2  0
  5  6  1  0
  6  7  2  0
  4  8  1  0
  8  9  1  0
  9 10  2  0
 10 11  1  0
 11 12  2  0
 11 13  1  0
 10 14  1  0
 14 15  2  3
 15 16  1  0
 16 17  1  0
 17 18  2  0
 18 19  1  0
 19 20  2  0
 20 21  1  0
 21 22  2  0
 22 23  1  0
 23 24  1  0
 14 25  1  0
  7  2  1  0
 12  8  1  0
 22 17  1  0
M  END
$$$$
