
     RDKit          3D

 25 27  0  0  0  0  0  0  0  0999 V2000
    0.7640    3.7357    7.4012 C   0  0  0  0  0  0  0  0  0  0  0  0
    0.2531    2.5631    8.1707 C   0  0  0  0  0  0  0  0  0  0  0  0
   -0.4950    2.6763    9.3003 C   0  0  0  0  0  0  0  0  0  0  0  0
   -0.9250    1.5409    9.9489 C   0  0  0  0  0  0  0  0  0  0  0  0
   -0.6108    0.2862    9.4735 C   0  0  0  0  0  0  0  0  0  0  0  0
    0.1586    0.1736    8.3116 C   0  0  0  0  0  0  0  0  0  0  0  0
    0.5773    1.3151    7.6802 C   0  0  0  0  0  0  0  0  0  0  0  0
   -1.7153    1.7031   11.1421 N   0  0  0  0  0  0  0  0  0  0  0  0
   -2.5861    0.8306   11.6195 N   0  0  0  0  0  0  0  0  0  0  0  0
   -3.1518    1.2920   12.7482 C   0  0  0  0  0  0  0  0  0  0  0  0
   -2.5671    2.5350   12.9512 C   0  0  0  0  0  0  0  0  0  0  0  0
   -1.6979    2.7486   11.9514 N   0  0  0  0  0  0  0  0  0  0  0  0
   -2.8206    3.4440   14.0171 N   0  0  0  0  0  0  0  0  0  0  0  0
   -4.1537    0.6620   13.5943 C   0  0  0  0  0  0  0  0  0  0  0  0
   -4.8259   -0.3398   13.1493 N   0  0  0  0  0  0  0  0  0  0  0  0
   -5.8161   -0.9761   13.9812 C   0  0  0  0  0  0  0  0  0  0  0  0
   -5.1315   -2.0374   14.7961 C   0  0  0  0  0  0  0  0  0  0  0  0
   -4.3408   -1.6968   15.8730 C   0  0  0  0  0  0  0  0  0  0  0  0
   -3.7019   -2.6510   16.6360 C   0  0  0  0  0  0  0  0  0  0  0  0
   -3.8710   -3.9754   16.2968 C   0  0  0  0  0  0  0  0  0  0  0  0
   -4.6694   -4.3267   15.2088 C   0  0  0  0  0  0  0  0  0  0  0  0
   -5.2877   -3.3677   14.4734 C   0  0  0  0  0  0  0  0  0  0  0  0
   -6.0938   -3.6549   13.3806 O   0  0  0  0  0  0  0  0  0  0  0  0
   -5.6329   -4.6309   12.4646 C   0  0  0  0  0  0  0  0  0  0  0  0
   -4.3961    1.1433   14.9062 N   0  0  0  0  0  0  0  0  0  0  0  0
  1  2  1  0
  2  3  2  0
  3  4  1  0
  4  5  2  0
  5  6  1  0
  6  7  2  0
  4  8  1  0
  8  9  1  0
  9 10  2  0
 10 11  1  0
 11 12  2  0
 11 13  1  0
 10 14  1  0
 14 15  2  3
 15 16  1  0
 16 17  1  0
 17 18  2  0
 18 19  1  0
 19 20  2  0
 20 21  1  0
 21 22  2  0
 22 23  1  0
 23 24  1  0
 14 25  1  0
  7  2  1  0
 12  8  1  0
 22 17  1  0
M  END
$$$$
