
     RDKit          3D

 25 27  0  0  0  0  0  0  0  0999 V2000
    0.2115    0.0324    7.4979 C   0  0  0  0  0  0  0  0  0  0  0  0
   -0.1628    1.2327    8.3027 C   0  0  0  0  0  0  0  0  0  0  0  0
   -0.8533    1.1655    9.4719 C   0  0  0  0  0  0  0  0  0  0  0  0
   -1.1577    2.3237   10.1505 C   0  0  0  0  0  0  0  0  0  0  0  0
   -0.7746    3.5554    9.6658 C   0  0  0  0  0  0  0  0  0  0  0  0
   -0.0646    3.6207    8.4631 C   0  0  0  0  0  0  0  0  0  0  0  0
    0.2290    2.4571    7.8022 C   0  0  0  0  0  0  0  0  0  0  0  0
   -1.8902    2.2102   11.3854 N   0  0  0  0  0  0  0  0  0  0  0  0
   -2.5776    1.1540   11.7846 N   0  0  0  0  0  0  0  0  0  0  0  0
   -3.1414    1.3788   12.9839 C   0  0  0  0  0  0  0  0  0  0  0  0
   -2.7550    2.6703   13.3171 C   0  0  0  0  0  0  0  0  0  0  0  0
   -1.9939    3.1422   12.3177 N   0  0  0  0  0  0  0  0  0  0  0  0
   -3.0877    3.3931   14.4975 N   0  0  0  0  0  0  0  0  0  0  0  0
   -3.9750    0.4948   13.7843 C   0  0  0  0  0  0  0  0  0  0  0  0
   -4.5964   -0.4796   13.2204 N   0  0  0  0  0  0  0  0  0  0  0  0
   -5.2304   -1.4961   14.0217 C   0  0  0  0  0  0  0  0  0  0  0  0
   -4.5606   -2.8093   13.7288 C   0  0  0  0  0  0  0  0  0  0  0  0
   -3.4987   -3.2435   14.4937 C   0  0  0  0  0  0  0  0  0  0  0  0
   -2.8670   -4.4436   14.2453 C   0  0  0  0  0  0  0  0  0  0  0  0
   -3.3244   -5.2153   13.1999 C   0  0  0  0  0  0  0  0  0  0  0  0
   -4.3979   -4.7821   12.4224 C   0  0  0  0  0  0  0  0  0  0  0  0
   -5.0027   -3.5961   12.6877 C   0  0  0  0  0  0  0  0  0  0  0  0
   -6.0743   -3.1119   11.9502 O   0  0  0  0  0  0  0  0  0  0  0  0
   -7.2629   -3.8807   11.9390 C   0  0  0  0  0  0  0  0  0  0  0  0
   -4.1086    0.6984   15.1814 N   0  0  0  0  0  0  0  0  0  0  0  0
  1  2  1  0
  2  3  2  0
  3  4  1  0
  4  5  2  0
  5  6  1  0
  6  7  2  0
  4  8  1  0
  8  9  1  0
  9 10  2  0
 10 11  1  0
 11 12  2  0
 11 13  1  0
 10 14  1  0
 14 15  2  3
 15 16  1  0
 16 17  1  0
 17 18  2  0
 18 19  1  0
 19 20  2  0
 20 21  1  0
 21 22  2  0
 22 23  1  0
 23 24  1  0
 14 25  1  0
  7  2  1  0
 12  8  1  0
 22 17  1  0
M  END
$$$$
