
     RDKit          3D

 25 27  0  0  0  0  0  0  0  0999 V2000
    0.5481    0.7517    7.4603 C   0  0  0  0  0  0  0  0  0  0  0  0
    0.0777    1.8452    8.3611 C   0  0  0  0  0  0  0  0  0  0  0  0
   -0.6702    1.6285    9.4756 C   0  0  0  0  0  0  0  0  0  0  0  0
   -1.0623    2.6961   10.2508 C   0  0  0  0  0  0  0  0  0  0  0  0
   -0.7101    3.9861    9.9178 C   0  0  0  0  0  0  0  0  0  0  0  0
    0.0590    4.2052    8.7710 C   0  0  0  0  0  0  0  0  0  0  0  0
    0.4396    3.1299    8.0123 C   0  0  0  0  0  0  0  0  0  0  0  0
   -1.8536    2.4249   11.4233 N   0  0  0  0  0  0  0  0  0  0  0  0
   -2.4501    1.2801   11.7080 N   0  0  0  0  0  0  0  0  0  0  0  0
   -3.1070    1.3639   12.8778 C   0  0  0  0  0  0  0  0  0  0  0  0
   -2.8787    2.6615   13.3164 C   0  0  0  0  0  0  0  0  0  0  0  0
   -2.1111    3.2752   12.4027 N   0  0  0  0  0  0  0  0  0  0  0  0
   -3.3571    3.2641   14.5142 N   0  0  0  0  0  0  0  0  0  0  0  0
   -3.8913    0.3477   13.5627 C   0  0  0  0  0  0  0  0  0  0  0  0
   -4.0549   -0.8059   13.0187 N   0  0  0  0  0  0  0  0  0  0  0  0
   -4.8777   -1.8003   13.6603 C   0  0  0  0  0  0  0  0  0  0  0  0
   -4.1800   -3.1271   13.5514 C   0  0  0  0  0  0  0  0  0  0  0  0
   -4.1327   -3.8004   12.3491 C   0  0  0  0  0  0  0  0  0  0  0  0
   -3.4996   -5.0187   12.2231 C   0  0  0  0  0  0  0  0  0  0  0  0
   -2.9042   -5.5611   13.3406 C   0  0  0  0  0  0  0  0  0  0  0  0
   -2.9484   -4.8852   14.5597 C   0  0  0  0  0  0  0  0  0  0  0  0
   -3.5783   -3.6867   14.6572 C   0  0  0  0  0  0  0  0  0  0  0  0
   -3.6557   -2.9673   15.8417 O   0  0  0  0  0  0  0  0  0  0  0  0
   -3.4556   -3.6738   17.0520 C   0  0  0  0  0  0  0  0  0  0  0  0
   -4.4775    0.6183   14.8253 N   0  0  0  0  0  0  0  0  0  0  0  0
  1  2  1  0
  2  3  2  0
  3  4  1  0
  4  5  2  0
  5  6  1  0
  6  7  2  0
  4  8  1  0
  8  9  1  0
  9 10  2  0
 10 11  1  0
 11 12  2  0
 11 13  1  0
 10 14  1  0
 14 15  2  3
 15 16  1  0
 16 17  1  0
 17 18  2  0
 18 19  1  0
 19 20  2  0
 20 21  1  0
 21 22  2  0
 22 23  1  0
 23 24  1  0
 14 25  1  0
  7  2  1  0
 12  8  1  0
 22 17  1  0
M  END
$$$$
