
     RDKit          3D

 25 27  0  0  0  0  0  0  0  0999 V2000
    0.6922    1.8594    7.2843 C   0  0  0  0  0  0  0  0  0  0  0  0
   -0.0273    1.0025    8.2724 C   0  0  0  0  0  0  0  0  0  0  0  0
   -0.6445    1.4926    9.3802 C   0  0  0  0  0  0  0  0  0  0  0  0
   -1.2854    0.6301   10.2404 C   0  0  0  0  0  0  0  0  0  0  0  0
   -1.3137   -0.7264    9.9996 C   0  0  0  0  0  0  0  0  0  0  0  0
   -0.6779   -1.2269    8.8594 C   0  0  0  0  0  0  0  0  0  0  0  0
   -0.0453   -0.3527    8.0152 C   0  0  0  0  0  0  0  0  0  0  0  0
   -1.9274    1.1883   11.4025 N   0  0  0  0  0  0  0  0  0  0  0  0
   -2.8678    0.6037   12.1245 N   0  0  0  0  0  0  0  0  0  0  0  0
   -3.2508    1.3974   13.1395 C   0  0  0  0  0  0  0  0  0  0  0  0
   -2.4739    2.5402   13.0040 C   0  0  0  0  0  0  0  0  0  0  0  0
   -1.6808    2.3737   11.9344 N   0  0  0  0  0  0  0  0  0  0  0  0
   -2.4898    3.6977   13.8326 N   0  0  0  0  0  0  0  0  0  0  0  0
   -4.2501    1.1511   14.1679 C   0  0  0  0  0  0  0  0  0  0  0  0
   -5.0732    0.1720   14.0361 N   0  0  0  0  0  0  0  0  0  0  0  0
   -6.0616   -0.0864   15.0528 C   0  0  0  0  0  0  0  0  0  0  0  0
   -5.8455   -1.4799   15.5731 C   0  0  0  0  0  0  0  0  0  0  0  0
   -4.5721   -1.9531   15.8088 C   0  0  0  0  0  0  0  0  0  0  0  0
   -4.3471   -3.2271   16.2854 C   0  0  0  0  0  0  0  0  0  0  0  0
   -5.4375   -4.0336   16.5264 C   0  0  0  0  0  0  0  0  0  0  0  0
   -6.7281   -3.5611   16.2901 C   0  0  0  0  0  0  0  0  0  0  0  0
   -6.9227   -2.3024   15.8205 C   0  0  0  0  0  0  0  0  0  0  0  0
   -8.1817   -1.7763   15.5661 O   0  0  0  0  0  0  0  0  0  0  0  0
   -9.3002   -2.4750   16.0808 C   0  0  0  0  0  0  0  0  0  0  0  0
   -4.3246    1.9818   15.3149 N   0  0  0  0  0  0  0  0  0  0  0  0
  1  2  1  0
  2  3  2  0
  3  4  1  0
  4  5  2  0
  5  6  1  0
  6  7  2  0
  4  8  1  0
  8  9  1  0
  9 10  2  0
 10 11  1  0
 11 12  2  0
 11 13  1  0
 10 14  1  0
 14 15  2  3
 15 16  1  0
 16 17  1  0
 17 18  2  0
 18 19  1  0
 19 20  2  0
 20 21  1  0
 21 22  2  0
 22 23  1  0
 23 24  1  0
 14 25  1  0
  7  2  1  0
 12  8  1  0
 22 17  1  0
M  END
$$$$
