
     RDKit          3D

 25 27  0  0  0  0  0  0  0  0999 V2000
    1.5755    0.4334    7.4266 C   0  0  0  0  0  0  0  0  0  0  0  0
    0.6764    1.4298    8.0800 C   0  0  0  0  0  0  0  0  0  0  0  0
    0.0040    1.1875    9.2365 C   0  0  0  0  0  0  0  0  0  0  0  0
   -0.8059    2.1638    9.7707 C   0  0  0  0  0  0  0  0  0  0  0  0
   -0.9492    3.3875    9.1535 C   0  0  0  0  0  0  0  0  0  0  0  0
   -0.2563    3.6332    7.9643 C   0  0  0  0  0  0  0  0  0  0  0  0
    0.5450    2.6491    7.4481 C   0  0  0  0  0  0  0  0  0  0  0  0
   -1.5010    1.8683   10.9971 N   0  0  0  0  0  0  0  0  0  0  0  0
   -1.8048    0.6621   11.4446 N   0  0  0  0  0  0  0  0  0  0  0  0
   -2.4543    0.7399   12.6189 C   0  0  0  0  0  0  0  0  0  0  0  0
   -2.5394    2.1004   12.8835 C   0  0  0  0  0  0  0  0  0  0  0  0
   -1.9471    2.7537   11.8721 N   0  0  0  0  0  0  0  0  0  0  0  0
   -3.1392    2.7235   14.0143 N   0  0  0  0  0  0  0  0  0  0  0  0
   -2.9682   -0.3348   13.4542 C   0  0  0  0  0  0  0  0  0  0  0  0
   -3.8002   -0.0672   14.3975 N   0  0  0  0  0  0  0  0  0  0  0  0
   -4.3258   -1.1255   15.2228 C   0  0  0  0  0  0  0  0  0  0  0  0
   -5.6636   -1.5303   14.6702 C   0  0  0  0  0  0  0  0  0  0  0  0
   -6.6845   -0.6107   14.5547 C   0  0  0  0  0  0  0  0  0  0  0  0
   -7.9206   -0.9567   14.0516 C   0  0  0  0  0  0  0  0  0  0  0  0
   -8.1210   -2.2618   13.6589 C   0  0  0  0  0  0  0  0  0  0  0  0
   -7.0928   -3.1969   13.7731 C   0  0  0  0  0  0  0  0  0  0  0  0
   -5.8846   -2.8306   14.2719 C   0  0  0  0  0  0  0  0  0  0  0  0
   -4.8236   -3.7149   14.4097 O   0  0  0  0  0  0  0  0  0  0  0  0
   -4.9492   -4.9885   13.8046 C   0  0  0  0  0  0  0  0  0  0  0  0
   -2.5593   -1.6753   13.2376 N   0  0  0  0  0  0  0  0  0  0  0  0
  1  2  1  0
  2  3  2  0
  3  4  1  0
  4  5  2  0
  5  6  1  0
  6  7  2  0
  4  8  1  0
  8  9  1  0
  9 10  2  0
 10 11  1  0
 11 12  2  0
 11 13  1  0
 10 14  1  0
 14 15  2  3
 15 16  1  0
 16 17  1  0
 17 18  2  0
 18 19  1  0
 19 20  2  0
 20 21  1  0
 21 22  2  0
 22 23  1  0
 23 24  1  0
 14 25  1  0
  7  2  1  0
 12  8  1  0
 22 17  1  0
M  END
$$$$
