
     RDKit          3D

 25 27  0  0  0  0  0  0  0  0999 V2000
    0.7179    4.4389    7.6605 C   0  0  0  0  0  0  0  0  0  0  0  0
    0.3967    3.0292    8.0319 C   0  0  0  0  0  0  0  0  0  0  0  0
   -0.3570    2.6919    9.1119 C   0  0  0  0  0  0  0  0  0  0  0  0
   -0.6044    1.3650    9.3820 C   0  0  0  0  0  0  0  0  0  0  0  0
   -0.1007    0.3676    8.5756 C   0  0  0  0  0  0  0  0  0  0  0  0
    0.6740    0.7182    7.4658 C   0  0  0  0  0  0  0  0  0  0  0  0
    0.9092    2.0441    7.2134 C   0  0  0  0  0  0  0  0  0  0  0  0
   -1.4072    1.0489   10.5352 N   0  0  0  0  0  0  0  0  0  0  0  0
   -1.6603   -0.1646   10.9944 N   0  0  0  0  0  0  0  0  0  0  0  0
   -2.4425   -0.1068   12.0860 C   0  0  0  0  0  0  0  0  0  0  0  0
   -2.6676    1.2489   12.2851 C   0  0  0  0  0  0  0  0  0  0  0  0
   -2.0201    1.9192   11.3197 N   0  0  0  0  0  0  0  0  0  0  0  0
   -3.4402    1.8528   13.3172 N   0  0  0  0  0  0  0  0  0  0  0  0
   -2.9582   -1.1954   12.9020 C   0  0  0  0  0  0  0  0  0  0  0  0
   -3.8408   -0.9527   13.8052 N   0  0  0  0  0  0  0  0  0  0  0  0
   -4.4091   -2.0324   14.5726 C   0  0  0  0  0  0  0  0  0  0  0  0
   -5.6792   -2.4691   13.8979 C   0  0  0  0  0  0  0  0  0  0  0  0
   -5.6622   -3.4623   12.9418 C   0  0  0  0  0  0  0  0  0  0  0  0
   -6.8131   -3.8805   12.3080 C   0  0  0  0  0  0  0  0  0  0  0  0
   -8.0021   -3.2770   12.6538 C   0  0  0  0  0  0  0  0  0  0  0  0
   -8.0262   -2.2718   13.6200 C   0  0  0  0  0  0  0  0  0  0  0  0
   -6.8788   -1.8781   14.2293 C   0  0  0  0  0  0  0  0  0  0  0  0
   -6.8391   -0.8842   15.1973 O   0  0  0  0  0  0  0  0  0  0  0  0
   -7.9927   -0.0795   15.3582 C   0  0  0  0  0  0  0  0  0  0  0  0
   -2.4958   -2.5222   12.7103 N   0  0  0  0  0  0  0  0  0  0  0  0
  1  2  1  0
  2  3  2  0
  3  4  1  0
  4  5  2  0
  5  6  1  0
  6  7  2  0
  4  8  1  0
  8  9  1  0
  9 10  2  0
 10 11  1  0
 11 12  2  0
 11 13  1  0
 10 14  1  0
 14 15  2  3
 15 16  1  0
 16 17  1  0
 17 18  2  0
 18 19  1  0
 19 20  2  0
 20 21  1  0
 21 22  2  0
 22 23  1  0
 23 24  1  0
 14 25  1  0
  7  2  1  0
 12  8  1  0
 22 17  1  0
M  END
$$$$
