
     RDKit          3D

 25 27  0  0  0  0  0  0  0  0999 V2000
    0.9273    4.5469    8.4997 C   0  0  0  0  0  0  0  0  0  0  0  0
    0.5384    3.1154    8.6662 C   0  0  0  0  0  0  0  0  0  0  0  0
   -0.3639    2.6862    9.5882 C   0  0  0  0  0  0  0  0  0  0  0  0
   -0.6644    1.3458    9.6743 C   0  0  0  0  0  0  0  0  0  0  0  0
   -0.0661    0.4262    8.8406 C   0  0  0  0  0  0  0  0  0  0  0  0
    0.8613    0.8710    7.8936 C   0  0  0  0  0  0  0  0  0  0  0  0
    1.1474    2.2090    7.8231 C   0  0  0  0  0  0  0  0  0  0  0  0
   -1.6253    0.9313   10.6639 N   0  0  0  0  0  0  0  0  0  0  0  0
   -2.1259    1.6901   11.6237 N   0  0  0  0  0  0  0  0  0  0  0  0
   -2.9966    0.9942   12.3750 C   0  0  0  0  0  0  0  0  0  0  0  0
   -3.0095   -0.2752   11.8124 C   0  0  0  0  0  0  0  0  0  0  0  0
   -2.1612   -0.2727   10.7727 N   0  0  0  0  0  0  0  0  0  0  0  0
   -3.7733   -1.3993   12.2366 N   0  0  0  0  0  0  0  0  0  0  0  0
   -3.7702    1.4352   13.5256 C   0  0  0  0  0  0  0  0  0  0  0  0
   -4.6801    0.6690   14.0141 N   0  0  0  0  0  0  0  0  0  0  0  0
   -5.5314    1.1405   15.0774 C   0  0  0  0  0  0  0  0  0  0  0  0
   -5.2853    0.2855   16.2888 C   0  0  0  0  0  0  0  0  0  0  0  0
   -5.2346   -1.0882   16.1817 C   0  0  0  0  0  0  0  0  0  0  0  0
   -5.0109   -1.8946   17.2775 C   0  0  0  0  0  0  0  0  0  0  0  0
   -4.8355   -1.2920   18.5037 C   0  0  0  0  0  0  0  0  0  0  0  0
   -4.8856    0.0969   18.6189 C   0  0  0  0  0  0  0  0  0  0  0  0
   -5.1074    0.8686   17.5243 C   0  0  0  0  0  0  0  0  0  0  0  0
   -5.1681    2.2543   17.5756 O   0  0  0  0  0  0  0  0  0  0  0  0
   -5.2701    2.8591   18.8515 C   0  0  0  0  0  0  0  0  0  0  0  0
   -3.5299    2.7033   14.1134 N   0  0  0  0  0  0  0  0  0  0  0  0
  1  2  1  0
  2  3  2  0
  3  4  1  0
  4  5  2  0
  5  6  1  0
  6  7  2  0
  4  8  1  0
  8  9  1  0
  9 10  2  0
 10 11  1  0
 11 12  2  0
 11 13  1  0
 10 14  1  0
 14 15  2  3
 15 16  1  0
 16 17  1  0
 17 18  2  0
 18 19  1  0
 19 20  2  0
 20 21  1  0
 21 22  2  0
 22 23  1  0
 23 24  1  0
 14 25  1  0
  7  2  1  0
 12  8  1  0
 22 17  1  0
M  END
$$$$
