
     RDKit          3D

 25 27  0  0  0  0  0  0  0  0999 V2000
    0.2142    4.2129    7.7669 C   0  0  0  0  0  0  0  0  0  0  0  0
    0.0453    2.8195    8.2751 C   0  0  0  0  0  0  0  0  0  0  0  0
   -0.6482    2.5123    9.4034 C   0  0  0  0  0  0  0  0  0  0  0  0
   -0.7543    1.1988    9.8012 C   0  0  0  0  0  0  0  0  0  0  0  0
   -0.1687    0.1847    9.0748 C   0  0  0  0  0  0  0  0  0  0  0  0
    0.5437    0.5043    7.9151 C   0  0  0  0  0  0  0  0  0  0  0  0
    0.6382    1.8173    7.5354 C   0  0  0  0  0  0  0  0  0  0  0  0
   -1.4973    0.9146   11.0018 N   0  0  0  0  0  0  0  0  0  0  0  0
   -1.9497   -0.2714   11.3709 N   0  0  0  0  0  0  0  0  0  0  0  0
   -2.6019   -0.1881   12.5433 C   0  0  0  0  0  0  0  0  0  0  0  0
   -2.5274    1.1539   12.8919 C   0  0  0  0  0  0  0  0  0  0  0  0
   -1.8467    1.7920   11.9274 N   0  0  0  0  0  0  0  0  0  0  0  0
   -3.0644    1.7743   14.0552 N   0  0  0  0  0  0  0  0  0  0  0  0
   -3.2527   -1.2422   13.3062 C   0  0  0  0  0  0  0  0  0  0  0  0
   -3.9018   -0.9473   14.3764 N   0  0  0  0  0  0  0  0  0  0  0  0
   -4.8620   -1.8740   14.9210 C   0  0  0  0  0  0  0  0  0  0  0  0
   -6.0576   -1.0909   15.3859 C   0  0  0  0  0  0  0  0  0  0  0  0
   -6.9038   -0.4927   14.4764 C   0  0  0  0  0  0  0  0  0  0  0  0
   -8.0066    0.2313   14.8771 C   0  0  0  0  0  0  0  0  0  0  0  0
   -8.2525    0.3482   16.2275 C   0  0  0  0  0  0  0  0  0  0  0  0
   -7.4006   -0.2544   17.1527 C   0  0  0  0  0  0  0  0  0  0  0  0
   -6.3211   -0.9619   16.7321 C   0  0  0  0  0  0  0  0  0  0  0  0
   -5.4379   -1.5835   17.6039 O   0  0  0  0  0  0  0  0  0  0  0  0
   -5.2456   -0.9910   18.8751 C   0  0  0  0  0  0  0  0  0  0  0  0
   -3.1774   -2.5928   12.8802 N   0  0  0  0  0  0  0  0  0  0  0  0
  1  2  1  0
  2  3  2  0
  3  4  1  0
  4  5  2  0
  5  6  1  0
  6  7  2  0
  4  8  1  0
  8  9  1  0
  9 10  2  0
 10 11  1  0
 11 12  2  0
 11 13  1  0
 10 14  1  0
 14 15  2  3
 15 16  1  0
 16 17  1  0
 17 18  2  0
 18 19  1  0
 19 20  2  0
 20 21  1  0
 21 22  2  0
 22 23  1  0
 23 24  1  0
 14 25  1  0
  7  2  1  0
 12  8  1  0
 22 17  1  0
M  END
$$$$
