
     RDKit          3D

 25 27  0  0  0  0  0  0  0  0999 V2000
    1.5999    1.9272    7.7092 C   0  0  0  0  0  0  0  0  0  0  0  0
    0.3641    1.1338    7.9772 C   0  0  0  0  0  0  0  0  0  0  0  0
   -0.3491    1.2244    9.1311 C   0  0  0  0  0  0  0  0  0  0  0  0
   -1.4783    0.4547    9.2959 C   0  0  0  0  0  0  0  0  0  0  0  0
   -1.9018   -0.4097    8.3098 C   0  0  0  0  0  0  0  0  0  0  0  0
   -1.1659   -0.5002    7.1245 C   0  0  0  0  0  0  0  0  0  0  0  0
   -0.0449    0.2739    6.9790 C   0  0  0  0  0  0  0  0  0  0  0  0
   -2.2062    0.5796   10.5324 N   0  0  0  0  0  0  0  0  0  0  0  0
   -2.4742   -0.4018   11.3766 N   0  0  0  0  0  0  0  0  0  0  0  0
   -3.1708    0.0550   12.4315 C   0  0  0  0  0  0  0  0  0  0  0  0
   -3.3250    1.4135   12.1888 C   0  0  0  0  0  0  0  0  0  0  0  0
   -2.7235    1.6935   11.0224 N   0  0  0  0  0  0  0  0  0  0  0  0
   -3.9941    2.3659   13.0084 N   0  0  0  0  0  0  0  0  0  0  0  0
   -3.6690   -0.6765   13.5863 C   0  0  0  0  0  0  0  0  0  0  0  0
   -4.4255   -0.0825   14.4398 N   0  0  0  0  0  0  0  0  0  0  0  0
   -4.9820   -0.8152   15.5493 C   0  0  0  0  0  0  0  0  0  0  0  0
   -6.3496   -1.2972   15.1538 C   0  0  0  0  0  0  0  0  0  0  0  0
   -6.7476   -1.2787   13.8338 C   0  0  0  0  0  0  0  0  0  0  0  0
   -7.9965   -1.7147   13.4453 C   0  0  0  0  0  0  0  0  0  0  0  0
   -8.8554   -2.1778   14.4176 C   0  0  0  0  0  0  0  0  0  0  0  0
   -8.4592   -2.1992   15.7545 C   0  0  0  0  0  0  0  0  0  0  0  0
   -7.2237   -1.7642   16.1110 C   0  0  0  0  0  0  0  0  0  0  0  0
   -6.7726   -1.7610   17.4236 O   0  0  0  0  0  0  0  0  0  0  0  0
   -7.6498   -2.2541   18.4193 C   0  0  0  0  0  0  0  0  0  0  0  0
   -3.3275   -2.0393   13.7793 N   0  0  0  0  0  0  0  0  0  0  0  0
  1  2  1  0
  2  3  2  0
  3  4  1  0
  4  5  2  0
  5  6  1  0
  6  7  2  0
  4  8  1  0
  8  9  1  0
  9 10  2  0
 10 11  1  0
 11 12  2  0
 11 13  1  0
 10 14  1  0
 14 15  2  3
 15 16  1  0
 16 17  1  0
 17 18  2  0
 18 19  1  0
 19 20  2  0
 20 21  1  0
 21 22  2  0
 22 23  1  0
 23 24  1  0
 14 25  1  0
  7  2  1  0
 12  8  1  0
 22 17  1  0
M  END
$$$$
