
     RDKit          3D

 25 27  0  0  0  0  0  0  0  0999 V2000
   -0.0492    4.3659    7.9737 C   0  0  0  0  0  0  0  0  0  0  0  0
   -0.0276    2.9142    8.3206 C   0  0  0  0  0  0  0  0  0  0  0  0
   -0.7577    2.3745    9.3325 C   0  0  0  0  0  0  0  0  0  0  0  0
   -0.6778    1.0237    9.5847 C   0  0  0  0  0  0  0  0  0  0  0  0
    0.1314    0.2041    8.8282 C   0  0  0  0  0  0  0  0  0  0  0  0
    0.8809    0.7625    7.7885 C   0  0  0  0  0  0  0  0  0  0  0  0
    0.7881    2.1089    7.5528 C   0  0  0  0  0  0  0  0  0  0  0  0
   -1.4670    0.4905   10.6652 N   0  0  0  0  0  0  0  0  0  0  0  0
   -2.3887    1.1466   11.3489 N   0  0  0  0  0  0  0  0  0  0  0  0
   -2.9360    0.3567   12.2888 C   0  0  0  0  0  0  0  0  0  0  0  0
   -2.2845   -0.8613   12.1468 C   0  0  0  0  0  0  0  0  0  0  0  0
   -1.3974   -0.7388   11.1474 N   0  0  0  0  0  0  0  0  0  0  0  0
   -2.4954   -2.0464   12.9068 N   0  0  0  0  0  0  0  0  0  0  0  0
   -3.9773    0.6698   13.2555 C   0  0  0  0  0  0  0  0  0  0  0  0
   -4.0567   -0.0036   14.3481 N   0  0  0  0  0  0  0  0  0  0  0  0
   -5.1745    0.1869   15.2379 C   0  0  0  0  0  0  0  0  0  0  0  0
   -4.8837    1.3779   16.1074 C   0  0  0  0  0  0  0  0  0  0  0  0
   -3.5887    1.8122   16.2954 C   0  0  0  0  0  0  0  0  0  0  0  0
   -3.2954    2.9015   17.0882 C   0  0  0  0  0  0  0  0  0  0  0  0
   -4.3389    3.5602   17.7004 C   0  0  0  0  0  0  0  0  0  0  0  0
   -5.6511    3.1261   17.5144 C   0  0  0  0  0  0  0  0  0  0  0  0
   -5.9131    2.0506   16.7287 C   0  0  0  0  0  0  0  0  0  0  0  0
   -7.1966    1.5717   16.5057 O   0  0  0  0  0  0  0  0  0  0  0  0
   -8.1074    2.4243   15.8366 C   0  0  0  0  0  0  0  0  0  0  0  0
   -4.9062    1.7114   13.0033 N   0  0  0  0  0  0  0  0  0  0  0  0
  1  2  1  0
  2  3  2  0
  3  4  1  0
  4  5  2  0
  5  6  1  0
  6  7  2  0
  4  8  1  0
  8  9  1  0
  9 10  2  0
 10 11  1  0
 11 12  2  0
 11 13  1  0
 10 14  1  0
 14 15  2  3
 15 16  1  0
 16 17  1  0
 17 18  2  0
 18 19  1  0
 19 20  2  0
 20 21  1  0
 21 22  2  0
 22 23  1  0
 23 24  1  0
 14 25  1  0
  7  2  1  0
 12  8  1  0
 22 17  1  0
M  END
$$$$
