
     RDKit          3D

 25 27  0  0  0  0  0  0  0  0999 V2000
    0.4707    4.3528    7.9146 C   0  0  0  0  0  0  0  0  0  0  0  0
    0.1185    2.9523    8.2926 C   0  0  0  0  0  0  0  0  0  0  0  0
   -0.6124    2.6345    9.3940 C   0  0  0  0  0  0  0  0  0  0  0  0
   -0.8914    1.3149    9.6687 C   0  0  0  0  0  0  0  0  0  0  0  0
   -0.4424    0.3052    8.8455 C   0  0  0  0  0  0  0  0  0  0  0  0
    0.3089    0.6356    7.7137 C   0  0  0  0  0  0  0  0  0  0  0  0
    0.5763    1.9546    7.4570 C   0  0  0  0  0  0  0  0  0  0  0  0
   -1.6685    1.0196   10.8448 N   0  0  0  0  0  0  0  0  0  0  0  0
   -2.0286   -0.1849   11.2537 N   0  0  0  0  0  0  0  0  0  0  0  0
   -2.7480   -0.1075   12.3865 C   0  0  0  0  0  0  0  0  0  0  0  0
   -2.8166    1.2508   12.6667 C   0  0  0  0  0  0  0  0  0  0  0  0
   -2.1469    1.9034   11.7043 N   0  0  0  0  0  0  0  0  0  0  0  0
   -3.4706    1.8727   13.7677 N   0  0  0  0  0  0  0  0  0  0  0  0
   -3.3387   -1.1806   13.1715 C   0  0  0  0  0  0  0  0  0  0  0  0
   -3.9761   -0.9033   14.2533 N   0  0  0  0  0  0  0  0  0  0  0  0
   -4.5308   -1.9612   15.0599 C   0  0  0  0  0  0  0  0  0  0  0  0
   -5.9708   -2.1423   14.6693 C   0  0  0  0  0  0  0  0  0  0  0  0
   -6.3296   -3.0718   13.7162 C   0  0  0  0  0  0  0  0  0  0  0  0
   -7.6431   -3.2569   13.3400 C   0  0  0  0  0  0  0  0  0  0  0  0
   -8.6083   -2.4823   13.9449 C   0  0  0  0  0  0  0  0  0  0  0  0
   -8.2522   -1.5404   14.9096 C   0  0  0  0  0  0  0  0  0  0  0  0
   -6.9515   -1.3775   15.2622 C   0  0  0  0  0  0  0  0  0  0  0  0
   -6.5356   -0.4575   16.2147 O   0  0  0  0  0  0  0  0  0  0  0  0
   -7.5182    0.3910   16.7793 C   0  0  0  0  0  0  0  0  0  0  0  0
   -3.2176   -2.5306   12.7541 N   0  0  0  0  0  0  0  0  0  0  0  0
  1  2  1  0
  2  3  2  0
  3  4  1  0
  4  5  2  0
  5  6  1  0
  6  7  2  0
  4  8  1  0
  8  9  1  0
  9 10  2  0
 10 11  1  0
 11 12  2  0
 11 13  1  0
 10 14  1  0
 14 15  2  3
 15 16  1  0
 16 17  1  0
 17 18  2  0
 18 19  1  0
 19 20  2  0
 20 21  1  0
 21 22  2  0
 22 23  1  0
 23 24  1  0
 14 25  1  0
  7  2  1  0
 12  8  1  0
 22 17  1  0
M  END
$$$$
