
     RDKit          3D

 25 27  0  0  0  0  0  0  0  0999 V2000
    1.3591    3.9492    8.8846 C   0  0  0  0  0  0  0  0  0  0  0  0
    0.6261    2.6707    8.6470 C   0  0  0  0  0  0  0  0  0  0  0  0
   -0.2230    2.1144    9.5514 C   0  0  0  0  0  0  0  0  0  0  0  0
   -0.8583    0.9309    9.2507 C   0  0  0  0  0  0  0  0  0  0  0  0
   -0.6495    0.2961    8.0456 C   0  0  0  0  0  0  0  0  0  0  0  0
    0.2244    0.8710    7.1180 C   0  0  0  0  0  0  0  0  0  0  0  0
    0.8474    2.0492    7.4354 C   0  0  0  0  0  0  0  0  0  0  0  0
   -1.7501    0.3741   10.2350 N   0  0  0  0  0  0  0  0  0  0  0  0
   -1.6523    0.5272   11.5444 N   0  0  0  0  0  0  0  0  0  0  0  0
   -2.6453   -0.1234   12.1750 C   0  0  0  0  0  0  0  0  0  0  0  0
   -3.3865   -0.7057   11.1554 C   0  0  0  0  0  0  0  0  0  0  0  0
   -2.8088   -0.3791    9.9891 N   0  0  0  0  0  0  0  0  0  0  0  0
   -4.5540   -1.5095   11.2882 N   0  0  0  0  0  0  0  0  0  0  0  0
   -2.9161   -0.2199   13.6012 C   0  0  0  0  0  0  0  0  0  0  0  0
   -3.8539   -0.9929   14.0215 N   0  0  0  0  0  0  0  0  0  0  0  0
   -4.1690   -1.0532   15.4267 C   0  0  0  0  0  0  0  0  0  0  0  0
   -5.4711   -0.3353   15.6462 C   0  0  0  0  0  0  0  0  0  0  0  0
   -5.4900    0.9539   16.1348 C   0  0  0  0  0  0  0  0  0  0  0  0
   -6.6708    1.6339   16.3454 C   0  0  0  0  0  0  0  0  0  0  0  0
   -7.8531    0.9902   16.0532 C   0  0  0  0  0  0  0  0  0  0  0  0
   -7.8410   -0.3137   15.5587 C   0  0  0  0  0  0  0  0  0  0  0  0
   -6.6647   -0.9614   15.3603 C   0  0  0  0  0  0  0  0  0  0  0  0
   -6.5884   -2.2581   14.8712 O   0  0  0  0  0  0  0  0  0  0  0  0
   -7.7516   -2.8038   14.2767 C   0  0  0  0  0  0  0  0  0  0  0  0
   -2.1551    0.5316   14.5326 N   0  0  0  0  0  0  0  0  0  0  0  0
  1  2  1  0
  2  3  2  0
  3  4  1  0
  4  5  2  0
  5  6  1  0
  6  7  2  0
  4  8  1  0
  8  9  1  0
  9 10  2  0
 10 11  1  0
 11 12  2  0
 11 13  1  0
 10 14  1  0
 14 15  2  3
 15 16  1  0
 16 17  1  0
 17 18  2  0
 18 19  1  0
 19 20  2  0
 20 21  1  0
 21 22  2  0
 22 23  1  0
 23 24  1  0
 14 25  1  0
  7  2  1  0
 12  8  1  0
 22 17  1  0
M  END
$$$$
