
     RDKit          3D

 25 27  0  0  0  0  0  0  0  0999 V2000
    0.9403    4.5845    8.3845 C   0  0  0  0  0  0  0  0  0  0  0  0
    0.5399    3.1469    8.4221 C   0  0  0  0  0  0  0  0  0  0  0  0
   -0.2472    2.6133    9.3937 C   0  0  0  0  0  0  0  0  0  0  0  0
   -0.5680    1.2754    9.3520 C   0  0  0  0  0  0  0  0  0  0  0  0
   -0.1048    0.4627    8.3402 C   0  0  0  0  0  0  0  0  0  0  0  0
    0.7044    1.0148    7.3427 C   0  0  0  0  0  0  0  0  0  0  0  0
    1.0128    2.3484    7.4014 C   0  0  0  0  0  0  0  0  0  0  0  0
   -1.4043    0.7484   10.3996 N   0  0  0  0  0  0  0  0  0  0  0  0
   -1.8498    1.4200   11.4474 N   0  0  0  0  0  0  0  0  0  0  0  0
   -2.6043    0.6315   12.2322 C   0  0  0  0  0  0  0  0  0  0  0  0
   -2.6026   -0.6024   11.5953 C   0  0  0  0  0  0  0  0  0  0  0  0
   -1.8607   -0.4898   10.4829 N   0  0  0  0  0  0  0  0  0  0  0  0
   -3.2593   -1.7926   12.0183 N   0  0  0  0  0  0  0  0  0  0  0  0
   -3.2854    0.9591   13.4754 C   0  0  0  0  0  0  0  0  0  0  0  0
   -4.0908    0.1080   14.0050 N   0  0  0  0  0  0  0  0  0  0  0  0
   -4.7957    0.4346   15.2190 C   0  0  0  0  0  0  0  0  0  0  0  0
   -5.9457   -0.5221   15.3650 C   0  0  0  0  0  0  0  0  0  0  0  0
   -7.2292   -0.1334   15.0444 C   0  0  0  0  0  0  0  0  0  0  0  0
   -8.3010   -0.9916   15.1699 C   0  0  0  0  0  0  0  0  0  0  0  0
   -8.0620   -2.2679   15.6296 C   0  0  0  0  0  0  0  0  0  0  0  0
   -6.7663   -2.6674   15.9556 C   0  0  0  0  0  0  0  0  0  0  0  0
   -5.7280   -1.8031   15.8231 C   0  0  0  0  0  0  0  0  0  0  0  0
   -4.4178   -2.1420   16.1312 O   0  0  0  0  0  0  0  0  0  0  0  0
   -3.9901   -3.4552   15.8203 C   0  0  0  0  0  0  0  0  0  0  0  0
   -3.0692    2.2096   14.1085 N   0  0  0  0  0  0  0  0  0  0  0  0
  1  2  1  0
  2  3  2  0
  3  4  1  0
  4  5  2  0
  5  6  1  0
  6  7  2  0
  4  8  1  0
  8  9  1  0
  9 10  2  0
 10 11  1  0
 11 12  2  0
 11 13  1  0
 10 14  1  0
 14 15  2  3
 15 16  1  0
 16 17  1  0
 17 18  2  0
 18 19  1  0
 19 20  2  0
 20 21  1  0
 21 22  2  0
 22 23  1  0
 23 24  1  0
 14 25  1  0
  7  2  1  0
 12  8  1  0
 22 17  1  0
M  END
$$$$
