
     RDKit          3D

 25 27  0  0  0  0  0  0  0  0999 V2000
    0.4754    4.5348    7.8382 C   0  0  0  0  0  0  0  0  0  0  0  0
    0.3625    3.1252    8.3163 C   0  0  0  0  0  0  0  0  0  0  0  0
   -0.4161    2.7499    9.3657 C   0  0  0  0  0  0  0  0  0  0  0  0
   -0.4615    1.4263    9.7409 C   0  0  0  0  0  0  0  0  0  0  0  0
    0.2702    0.4700    9.0707 C   0  0  0  0  0  0  0  0  0  0  0  0
    1.0698    0.8596    7.9921 C   0  0  0  0  0  0  0  0  0  0  0  0
    1.1019    2.1816    7.6337 C   0  0  0  0  0  0  0  0  0  0  0  0
   -1.2983    1.0691   10.8574 N   0  0  0  0  0  0  0  0  0  0  0  0
   -1.6068   -0.1603   11.2328 N   0  0  0  0  0  0  0  0  0  0  0  0
   -2.4075   -0.1414   12.3123 C   0  0  0  0  0  0  0  0  0  0  0  0
   -2.5842    1.2067   12.5948 C   0  0  0  0  0  0  0  0  0  0  0  0
   -1.8926    1.9111   11.6859 N   0  0  0  0  0  0  0  0  0  0  0  0
   -3.3530    1.7735   13.6503 N   0  0  0  0  0  0  0  0  0  0  0  0
   -2.9805   -1.2586   13.0473 C   0  0  0  0  0  0  0  0  0  0  0  0
   -3.8527   -1.0375   13.9659 N   0  0  0  0  0  0  0  0  0  0  0  0
   -4.4342   -2.1373   14.6938 C   0  0  0  0  0  0  0  0  0  0  0  0
   -5.7488   -2.4815   14.0516 C   0  0  0  0  0  0  0  0  0  0  0  0
   -5.8145   -3.4173   13.0412 C   0  0  0  0  0  0  0  0  0  0  0  0
   -7.0075   -3.7503   12.4356 C   0  0  0  0  0  0  0  0  0  0  0  0
   -8.1539   -3.1196   12.8664 C   0  0  0  0  0  0  0  0  0  0  0  0
   -8.0945   -2.1722   13.8879 C   0  0  0  0  0  0  0  0  0  0  0  0
   -6.9069   -1.8621   14.4678 C   0  0  0  0  0  0  0  0  0  0  0  0
   -6.7842   -0.9286   15.4877 O   0  0  0  0  0  0  0  0  0  0  0  0
   -7.8598   -0.0299   15.6865 C   0  0  0  0  0  0  0  0  0  0  0  0
   -2.5853   -2.5899   12.7598 N   0  0  0  0  0  0  0  0  0  0  0  0
  1  2  1  0
  2  3  2  0
  3  4  1  0
  4  5  2  0
  5  6  1  0
  6  7  2  0
  4  8  1  0
  8  9  1  0
  9 10  2  0
 10 11  1  0
 11 12  2  0
 11 13  1  0
 10 14  1  0
 14 15  2  3
 15 16  1  0
 16 17  1  0
 17 18  2  0
 18 19  1  0
 19 20  2  0
 20 21  1  0
 21 22  2  0
 22 23  1  0
 23 24  1  0
 14 25  1  0
  7  2  1  0
 12  8  1  0
 22 17  1  0
M  END
$$$$
