
     RDKit          3D

 25 27  0  0  0  0  0  0  0  0999 V2000
    0.6577    3.8401    7.6472 C   0  0  0  0  0  0  0  0  0  0  0  0
    0.1673    2.5876    8.2944 C   0  0  0  0  0  0  0  0  0  0  0  0
   -0.6220    2.5755    9.4014 C   0  0  0  0  0  0  0  0  0  0  0  0
   -1.0291    1.3735    9.9343 C   0  0  0  0  0  0  0  0  0  0  0  0
   -0.6507    0.1768    9.3653 C   0  0  0  0  0  0  0  0  0  0  0  0
    0.1609    0.1931    8.2270 C   0  0  0  0  0  0  0  0  0  0  0  0
    0.5559    1.3993    7.7113 C   0  0  0  0  0  0  0  0  0  0  0  0
   -1.8645    1.4030   11.1072 N   0  0  0  0  0  0  0  0  0  0  0  0
   -2.3936    0.3515   11.7087 N   0  0  0  0  0  0  0  0  0  0  0  0
   -3.1202    0.7288   12.7748 C   0  0  0  0  0  0  0  0  0  0  0  0
   -3.0099    2.1127   12.8029 C   0  0  0  0  0  0  0  0  0  0  0  0
   -2.2370    2.4844   11.7708 N   0  0  0  0  0  0  0  0  0  0  0  0
   -3.5971    3.0061   13.7428 N   0  0  0  0  0  0  0  0  0  0  0  0
   -3.8681   -0.0957   13.7116 C   0  0  0  0  0  0  0  0  0  0  0  0
   -3.8348   -1.3765   13.6017 N   0  0  0  0  0  0  0  0  0  0  0  0
   -4.6959   -2.1970   14.4158 C   0  0  0  0  0  0  0  0  0  0  0  0
   -5.6897   -2.8728   13.5132 C   0  0  0  0  0  0  0  0  0  0  0  0
   -5.2773   -3.8086   12.5884 C   0  0  0  0  0  0  0  0  0  0  0  0
   -6.1686   -4.4423   11.7488 C   0  0  0  0  0  0  0  0  0  0  0  0
   -7.5033   -4.1176   11.8526 C   0  0  0  0  0  0  0  0  0  0  0  0
   -7.9271   -3.1720   12.7858 C   0  0  0  0  0  0  0  0  0  0  0  0
   -7.0291   -2.5623   13.6010 C   0  0  0  0  0  0  0  0  0  0  0  0
   -7.3897   -1.6141   14.5484 O   0  0  0  0  0  0  0  0  0  0  0  0
   -8.1099   -2.0613   15.6821 C   0  0  0  0  0  0  0  0  0  0  0  0
   -4.6342    0.5008   14.7453 N   0  0  0  0  0  0  0  0  0  0  0  0
  1  2  1  0
  2  3  2  0
  3  4  1  0
  4  5  2  0
  5  6  1  0
  6  7  2  0
  4  8  1  0
  8  9  1  0
  9 10  2  0
 10 11  1  0
 11 12  2  0
 11 13  1  0
 10 14  1  0
 14 15  2  3
 15 16  1  0
 16 17  1  0
 17 18  2  0
 18 19  1  0
 19 20  2  0
 20 21  1  0
 21 22  2  0
 22 23  1  0
 23 24  1  0
 14 25  1  0
  7  2  1  0
 12  8  1  0
 22 17  1  0
M  END
$$$$
