
     RDKit          3D

 25 27  0  0  0  0  0  0  0  0999 V2000
    0.4328   -0.1196    7.4940 C   0  0  0  0  0  0  0  0  0  0  0  0
   -0.0669    1.0807    8.2276 C   0  0  0  0  0  0  0  0  0  0  0  0
   -0.7217    1.0131    9.4172 C   0  0  0  0  0  0  0  0  0  0  0  0
   -1.1494    2.1712   10.0258 C   0  0  0  0  0  0  0  0  0  0  0  0
   -0.9259    3.4033    9.4504 C   0  0  0  0  0  0  0  0  0  0  0  0
   -0.2522    3.4689    8.2271 C   0  0  0  0  0  0  0  0  0  0  0  0
    0.1658    2.3054    7.6368 C   0  0  0  0  0  0  0  0  0  0  0  0
   -1.8391    2.0574   11.2851 N   0  0  0  0  0  0  0  0  0  0  0  0
   -2.3138    0.9413   11.8107 N   0  0  0  0  0  0  0  0  0  0  0  0
   -2.9013    1.1853   12.9948 C   0  0  0  0  0  0  0  0  0  0  0  0
   -2.7612    2.5542   13.1808 C   0  0  0  0  0  0  0  0  0  0  0  0
   -2.1089    3.0488   12.1175 N   0  0  0  0  0  0  0  0  0  0  0  0
   -3.2151    3.3255   14.2879 N   0  0  0  0  0  0  0  0  0  0  0  0
   -3.5490    0.2534   13.9052 C   0  0  0  0  0  0  0  0  0  0  0  0
   -3.5096   -1.0085   13.6609 N   0  0  0  0  0  0  0  0  0  0  0  0
   -4.2498   -1.9304   14.4853 C   0  0  0  0  0  0  0  0  0  0  0  0
   -5.0300   -2.8442   13.5823 C   0  0  0  0  0  0  0  0  0  0  0  0
   -6.3350   -2.5538   13.2451 C   0  0  0  0  0  0  0  0  0  0  0  0
   -7.0722   -3.3757   12.4193 C   0  0  0  0  0  0  0  0  0  0  0  0
   -6.4702   -4.5132   11.9279 C   0  0  0  0  0  0  0  0  0  0  0  0
   -5.1506   -4.8127   12.2651 C   0  0  0  0  0  0  0  0  0  0  0  0
   -4.4463   -3.9868   13.0804 C   0  0  0  0  0  0  0  0  0  0  0  0
   -3.1313   -4.2312   13.4513 O   0  0  0  0  0  0  0  0  0  0  0  0
   -2.3738   -5.1094   12.6395 C   0  0  0  0  0  0  0  0  0  0  0  0
   -4.2241    0.7244   15.0600 N   0  0  0  0  0  0  0  0  0  0  0  0
  1  2  1  0
  2  3  2  0
  3  4  1  0
  4  5  2  0
  5  6  1  0
  6  7  2  0
  4  8  1  0
  8  9  1  0
  9 10  2  0
 10 11  1  0
 11 12  2  0
 11 13  1  0
 10 14  1  0
 14 15  2  3
 15 16  1  0
 16 17  1  0
 17 18  2  0
 18 19  1  0
 19 20  2  0
 20 21  1  0
 21 22  2  0
 22 23  1  0
 23 24  1  0
 14 25  1  0
  7  2  1  0
 12  8  1  0
 22 17  1  0
M  END
$$$$
