
     RDKit          3D

 25 27  0  0  0  0  0  0  0  0999 V2000
    0.7881    0.6166    7.2350 C   0  0  0  0  0  0  0  0  0  0  0  0
    0.2142    1.6694    8.1240 C   0  0  0  0  0  0  0  0  0  0  0  0
   -0.5717    1.3958    9.1991 C   0  0  0  0  0  0  0  0  0  0  0  0
   -1.0602    2.4290    9.9662 C   0  0  0  0  0  0  0  0  0  0  0  0
   -0.7670    3.7412    9.6644 C   0  0  0  0  0  0  0  0  0  0  0  0
    0.0414    4.0189    8.5581 C   0  0  0  0  0  0  0  0  0  0  0  0
    0.5181    2.9771    7.8067 C   0  0  0  0  0  0  0  0  0  0  0  0
   -1.8889    2.0977   11.0966 N   0  0  0  0  0  0  0  0  0  0  0  0
   -2.3068    0.8867   11.4229 N   0  0  0  0  0  0  0  0  0  0  0  0
   -3.0628    0.9275   12.5337 C   0  0  0  0  0  0  0  0  0  0  0  0
   -3.0920    2.2694   12.8894 C   0  0  0  0  0  0  0  0  0  0  0  0
   -2.3652    2.9492   11.9892 N   0  0  0  0  0  0  0  0  0  0  0  0
   -3.7618    2.8527   14.0019 N   0  0  0  0  0  0  0  0  0  0  0  0
   -3.7196   -0.1649   13.2351 C   0  0  0  0  0  0  0  0  0  0  0  0
   -3.9263   -1.2797   12.6284 N   0  0  0  0  0  0  0  0  0  0  0  0
   -4.3090   -2.4517   13.3750 C   0  0  0  0  0  0  0  0  0  0  0  0
   -3.4232   -3.5887   12.9489 C   0  0  0  0  0  0  0  0  0  0  0  0
   -2.4388   -4.0662   13.7880 C   0  0  0  0  0  0  0  0  0  0  0  0
   -1.6130   -5.1074   13.4207 C   0  0  0  0  0  0  0  0  0  0  0  0
   -1.7926   -5.6726   12.1774 C   0  0  0  0  0  0  0  0  0  0  0  0
   -2.7864   -5.1945   11.3239 C   0  0  0  0  0  0  0  0  0  0  0  0
   -3.5864   -4.1678   11.7095 C   0  0  0  0  0  0  0  0  0  0  0  0
   -4.5915   -3.6489   10.9051 O   0  0  0  0  0  0  0  0  0  0  0  0
   -4.5269   -3.9218    9.5174 C   0  0  0  0  0  0  0  0  0  0  0  0
   -4.1345   -0.0111   14.5825 N   0  0  0  0  0  0  0  0  0  0  0  0
  1  2  1  0
  2  3  2  0
  3  4  1  0
  4  5  2  0
  5  6  1  0
  6  7  2  0
  4  8  1  0
  8  9  1  0
  9 10  2  0
 10 11  1  0
 11 12  2  0
 11 13  1  0
 10 14  1  0
 14 15  2  3
 15 16  1  0
 16 17  1  0
 17 18  2  0
 18 19  1  0
 19 20  2  0
 20 21  1  0
 21 22  2  0
 22 23  1  0
 23 24  1  0
 14 25  1  0
  7  2  1  0
 12  8  1  0
 22 17  1  0
M  END
$$$$
