
     RDKit          3D

 25 27  0  0  0  0  0  0  0  0999 V2000
    1.1439   -0.1346    7.7731 C   0  0  0  0  0  0  0  0  0  0  0  0
    0.4571    1.0053    8.4494 C   0  0  0  0  0  0  0  0  0  0  0  0
   -0.2678    0.8723    9.5918 C   0  0  0  0  0  0  0  0  0  0  0  0
   -0.8695    1.9777   10.1491 C   0  0  0  0  0  0  0  0  0  0  0  0
   -0.7510    3.2221    9.5692 C   0  0  0  0  0  0  0  0  0  0  0  0
   -0.0047    3.3552    8.3944 C   0  0  0  0  0  0  0  0  0  0  0  0
    0.5867    2.2434    7.8548 C   0  0  0  0  0  0  0  0  0  0  0  0
   -1.6286    1.7953   11.3595 N   0  0  0  0  0  0  0  0  0  0  0  0
   -2.2177    0.6760   11.7436 N   0  0  0  0  0  0  0  0  0  0  0  0
   -2.8424    0.8471   12.9215 C   0  0  0  0  0  0  0  0  0  0  0  0
   -2.6017    2.1728   13.2572 C   0  0  0  0  0  0  0  0  0  0  0  0
   -1.8589    2.7159   12.2804 N   0  0  0  0  0  0  0  0  0  0  0  0
   -3.0468    2.8629   14.4200 N   0  0  0  0  0  0  0  0  0  0  0  0
   -3.6082   -0.1141   13.7002 C   0  0  0  0  0  0  0  0  0  0  0  0
   -3.8522   -1.2792   13.2139 N   0  0  0  0  0  0  0  0  0  0  0  0
   -4.6235   -2.2337   13.9698 C   0  0  0  0  0  0  0  0  0  0  0  0
   -5.2175   -3.2236   13.0074 C   0  0  0  0  0  0  0  0  0  0  0  0
   -4.4114   -4.1024   12.3153 C   0  0  0  0  0  0  0  0  0  0  0  0
   -4.9313   -5.0195   11.4267 C   0  0  0  0  0  0  0  0  0  0  0  0
   -6.2959   -5.0424   11.2394 C   0  0  0  0  0  0  0  0  0  0  0  0
   -7.1168   -4.1563   11.9363 C   0  0  0  0  0  0  0  0  0  0  0  0
   -6.5798   -3.2628   12.8057 C   0  0  0  0  0  0  0  0  0  0  0  0
   -7.3444   -2.3566   13.5275 O   0  0  0  0  0  0  0  0  0  0  0  0
   -8.2648   -1.5566   12.8084 C   0  0  0  0  0  0  0  0  0  0  0  0
   -4.0884    0.2227   14.9914 N   0  0  0  0  0  0  0  0  0  0  0  0
  1  2  1  0
  2  3  2  0
  3  4  1  0
  4  5  2  0
  5  6  1  0
  6  7  2  0
  4  8  1  0
  8  9  1  0
  9 10  2  0
 10 11  1  0
 11 12  2  0
 11 13  1  0
 10 14  1  0
 14 15  2  3
 15 16  1  0
 16 17  1  0
 17 18  2  0
 18 19  1  0
 19 20  2  0
 20 21  1  0
 21 22  2  0
 22 23  1  0
 23 24  1  0
 14 25  1  0
  7  2  1  0
 12  8  1  0
 22 17  1  0
M  END
$$$$
