
     RDKit          3D

 25 27  0  0  0  0  0  0  0  0999 V2000
    0.2494    4.5720    8.0905 C   0  0  0  0  0  0  0  0  0  0  0  0
    0.2073    3.1001    8.3352 C   0  0  0  0  0  0  0  0  0  0  0  0
   -0.4311    2.5343    9.3939 C   0  0  0  0  0  0  0  0  0  0  0  0
   -0.4197    1.1662    9.5441 C   0  0  0  0  0  0  0  0  0  0  0  0
    0.2289    0.3551    8.6384 C   0  0  0  0  0  0  0  0  0  0  0  0
    0.8843    0.9403    7.5510 C   0  0  0  0  0  0  0  0  0  0  0  0
    0.8619    2.3037    7.4185 C   0  0  0  0  0  0  0  0  0  0  0  0
   -1.1075    0.6056   10.6786 N   0  0  0  0  0  0  0  0  0  0  0  0
   -1.8926    1.2654   11.5127 N   0  0  0  0  0  0  0  0  0  0  0  0
   -2.3757    0.4447   12.4614 C   0  0  0  0  0  0  0  0  0  0  0  0
   -1.8314   -0.7971   12.1616 C   0  0  0  0  0  0  0  0  0  0  0  0
   -1.0651   -0.6571   11.0690 N   0  0  0  0  0  0  0  0  0  0  0  0
   -2.0302   -2.0188   12.8649 N   0  0  0  0  0  0  0  0  0  0  0  0
   -3.2686    0.7501   13.5687 C   0  0  0  0  0  0  0  0  0  0  0  0
   -3.6526   -0.1908   14.3566 N   0  0  0  0  0  0  0  0  0  0  0  0
   -4.6780    0.0586   15.3384 C   0  0  0  0  0  0  0  0  0  0  0  0
   -5.9576   -0.5577   14.8464 C   0  0  0  0  0  0  0  0  0  0  0  0
   -7.0570    0.2279   14.5726 C   0  0  0  0  0  0  0  0  0  0  0  0
   -8.2422   -0.3128   14.1209 C   0  0  0  0  0  0  0  0  0  0  0  0
   -8.3092   -1.6774   13.9447 C   0  0  0  0  0  0  0  0  0  0  0  0
   -7.2008   -2.4778   14.2198 C   0  0  0  0  0  0  0  0  0  0  0  0
   -6.0453   -1.9205   14.6637 C   0  0  0  0  0  0  0  0  0  0  0  0
   -4.9098   -2.6640   14.9542 O   0  0  0  0  0  0  0  0  0  0  0  0
   -5.0721   -3.8255   15.7470 C   0  0  0  0  0  0  0  0  0  0  0  0
   -3.7198    2.0768   13.7868 N   0  0  0  0  0  0  0  0  0  0  0  0
  1  2  1  0
  2  3  2  0
  3  4  1  0
  4  5  2  0
  5  6  1  0
  6  7  2  0
  4  8  1  0
  8  9  1  0
  9 10  2  0
 10 11  1  0
 11 12  2  0
 11 13  1  0
 10 14  1  0
 14 15  2  3
 15 16  1  0
 16 17  1  0
 17 18  2  0
 18 19  1  0
 19 20  2  0
 20 21  1  0
 21 22  2  0
 22 23  1  0
 23 24  1  0
 14 25  1  0
  7  2  1  0
 12  8  1  0
 22 17  1  0
M  END
$$$$
