
     RDKit          3D

 28 30  0  0  0  0  0  0  0  0999 V2000
   -7.1617    3.0306   12.6814 C   0  0  0  0  0  0  0  0  0  0  0  0
   -5.7007    3.4541   12.7474 C   0  0  0  0  0  0  0  0  0  0  0  0
   -5.4287    4.7406   12.8022 C   0  0  0  0  0  0  0  0  0  0  0  0
   -4.0603    5.2406   12.8675 C   0  0  0  0  0  0  0  0  0  0  0  0
   -3.0770    4.3013   12.1459 C   0  0  0  0  0  0  0  0  0  0  0  0
   -3.2477    2.9015   12.6567 C   0  0  0  0  0  0  0  0  0  0  0  0
   -4.6636    2.4330   12.7485 C   0  0  0  0  0  0  0  0  0  0  0  0
   -2.4988    1.9372   11.8382 C   0  0  0  0  0  0  0  0  0  0  0  0
   -1.8121    0.8583   12.4005 C   0  0  0  0  0  0  0  0  0  0  0  0
   -1.1388   -0.0111   11.5669 C   0  0  0  0  0  0  0  0  0  0  0  0
   -1.0928    0.1102   10.1918 C   0  0  0  0  0  0  0  0  0  0  0  0
   -1.7961    1.2054    9.6820 C   0  0  0  0  0  0  0  0  0  0  0  0
   -2.4855    2.1038   10.4742 C   0  0  0  0  0  0  0  0  0  0  0  0
   -3.1875    3.1964    9.9848 O   0  0  0  0  0  0  0  0  0  0  0  0
   -3.1262    4.4592   10.6745 C   0  0  0  0  0  0  0  0  0  0  0  0
   -4.2227    5.3411   10.1479 C   0  0  0  0  0  0  0  0  0  0  0  0
   -1.8172    5.0919   10.1694 C   0  0  0  0  0  0  0  0  0  0  0  0
   -0.3797   -0.7759    9.2920 C   0  0  0  0  0  0  0  0  0  0  0  0
    1.0782   -0.7666    9.7470 C   0  0  0  0  0  0  0  0  0  0  0  0
   -0.8088   -2.2422    9.6433 C   0  0  0  0  0  0  0  0  0  0  0  0
   -0.5997   -0.6914    7.8446 C   0  0  0  0  0  0  0  0  0  0  0  0
   -0.3225   -1.8000    6.9395 C   0  0  0  0  0  0  0  0  0  0  0  0
   -1.1554   -2.0056    5.7275 C   0  0  0  0  0  0  0  0  0  0  0  0
   -0.4978   -1.6663    4.4464 C   0  0  0  0  0  0  0  0  0  0  0  0
    0.3398   -2.6868    3.8102 C   0  0  0  0  0  0  0  0  0  0  0  0
    0.0538   -3.1607    2.4489 C   0  0  0  0  0  0  0  0  0  0  0  0
    1.0709   -2.2861    1.0639 Br  0  0  0  0  0  0  0  0  0  0  0  0
   -1.8377    0.7076   13.7832 O   0  0  0  0  0  0  0  0  0  0  0  0
  1  2  1  0
  2  3  2  0
  3  4  1  0
  4  5  1  0
  5  6  1  0
  6  7  1  0
  6  8  1  0
  8  9  2  0
  9 10  1  0
 10 11  2  0
 11 12  1  0
 12 13  2  0
 13 14  1  0
 14 15  1  0
 15 16  1  0
 15 17  1  0
 11 18  1  0
 18 19  1  0
 18 20  1  0
 18 21  1  0
 21 22  1  0
 22 23  1  0
 23 24  1  0
 24 25  1  0
 25 26  1  0
 26 27  1  0
  9 28  1  0
  7  2  1  0
 15  5  1  0
 13  8  1  0
M  END
$$$$
