
     RDKit          3D

 28 30  0  0  0  0  0  0  0  0999 V2000
   -5.9968    1.6333   12.2146 C   0  0  0  0  0  0  0  0  0  0  0  0
   -4.9179    2.4515   11.5183 C   0  0  0  0  0  0  0  0  0  0  0  0
   -5.2735    3.5707   10.9240 C   0  0  0  0  0  0  0  0  0  0  0  0
   -4.3106    4.4197   10.2320 C   0  0  0  0  0  0  0  0  0  0  0  0
   -3.1503    3.5983    9.6411 C   0  0  0  0  0  0  0  0  0  0  0  0
   -2.5525    2.7286   10.7068 C   0  0  0  0  0  0  0  0  0  0  0  0
   -3.5430    1.9746   11.5334 C   0  0  0  0  0  0  0  0  0  0  0  0
   -1.6009    1.7627   10.1390 C   0  0  0  0  0  0  0  0  0  0  0  0
   -0.4013    1.4367   10.7766 C   0  0  0  0  0  0  0  0  0  0  0  0
    0.4377    0.5135   10.1870 C   0  0  0  0  0  0  0  0  0  0  0  0
    0.1737   -0.1229    8.9899 C   0  0  0  0  0  0  0  0  0  0  0  0
   -1.0384    0.2392    8.3952 C   0  0  0  0  0  0  0  0  0  0  0  0
   -1.9125    1.1577    8.9451 C   0  0  0  0  0  0  0  0  0  0  0  0
   -3.1186    1.5293    8.3678 O   0  0  0  0  0  0  0  0  0  0  0  0
   -3.5313    2.9089    8.3874 C   0  0  0  0  0  0  0  0  0  0  0  0
   -4.9872    2.9738    8.0219 C   0  0  0  0  0  0  0  0  0  0  0  0
   -2.7844    3.5340    7.1956 C   0  0  0  0  0  0  0  0  0  0  0  0
    1.0431   -1.0827    8.3371 C   0  0  0  0  0  0  0  0  0  0  0  0
    0.8333   -0.8996    6.8354 C   0  0  0  0  0  0  0  0  0  0  0  0
    2.5155   -0.5739    8.5126 C   0  0  0  0  0  0  0  0  0  0  0  0
    1.1003   -2.4692    8.8116 C   0  0  0  0  0  0  0  0  0  0  0  0
    0.0673   -3.4505    8.5038 C   0  0  0  0  0  0  0  0  0  0  0  0
   -0.4141   -4.3870    9.5509 C   0  0  0  0  0  0  0  0  0  0  0  0
   -1.8840   -4.4637    9.6996 C   0  0  0  0  0  0  0  0  0  0  0  0
   -2.5635   -5.6696    9.2181 C   0  0  0  0  0  0  0  0  0  0  0  0
   -3.2834   -6.5545   10.1446 C   0  0  0  0  0  0  0  0  0  0  0  0
   -5.1286   -6.8701    9.6828 Br  0  0  0  0  0  0  0  0  0  0  0  0
   -0.1045    2.0605   11.9840 O   0  0  0  0  0  0  0  0  0  0  0  0
  1  2  1  0
  2  3  2  0
  3  4  1  0
  4  5  1  0
  5  6  1  0
  6  7  1  0
  6  8  1  0
  8  9  2  0
  9 10  1  0
 10 11  2  0
 11 12  1  0
 12 13  2  0
 13 14  1  0
 14 15  1  0
 15 16  1  0
 15 17  1  0
 11 18  1  0
 18 19  1  0
 18 20  1  0
 18 21  1  0
 21 22  1  0
 22 23  1  0
 23 24  1  0
 24 25  1  0
 25 26  1  0
 26 27  1  0
  9 28  1  0
  7  2  1  0
 15  5  1  0
 13  8  1  0
M  END
$$$$
