
     RDKit          3D

 28 30  0  0  0  0  0  0  0  0999 V2000
   -7.3380    3.8827   13.0684 C   0  0  0  0  0  0  0  0  0  0  0  0
   -5.8216    3.9540   13.1853 C   0  0  0  0  0  0  0  0  0  0  0  0
   -5.2792    5.0985   13.5434 C   0  0  0  0  0  0  0  0  0  0  0  0
   -3.8367    5.2622   13.6815 C   0  0  0  0  0  0  0  0  0  0  0  0
   -3.0656    4.3412   12.7185 C   0  0  0  0  0  0  0  0  0  0  0  0
   -3.5446    2.9289   12.8774 C   0  0  0  0  0  0  0  0  0  0  0  0
   -5.0298    2.7665   12.9008 C   0  0  0  0  0  0  0  0  0  0  0  0
   -3.0058    2.0584   11.8226 C   0  0  0  0  0  0  0  0  0  0  0  0
   -2.5794    0.7531   12.0801 C   0  0  0  0  0  0  0  0  0  0  0  0
   -2.0936   -0.0078   11.0365 C   0  0  0  0  0  0  0  0  0  0  0  0
   -1.9957    0.4353    9.7320 C   0  0  0  0  0  0  0  0  0  0  0  0
   -2.4357    1.7466    9.5299 C   0  0  0  0  0  0  0  0  0  0  0  0
   -2.9301    2.5486   10.5410 C   0  0  0  0  0  0  0  0  0  0  0  0
   -3.3698    3.8522   10.3581 O   0  0  0  0  0  0  0  0  0  0  0  0
   -3.0507    4.8631   11.3330 C   0  0  0  0  0  0  0  0  0  0  0  0
   -3.9204    6.0611   11.0762 C   0  0  0  0  0  0  0  0  0  0  0  0
   -1.6263    5.3052   10.9527 C   0  0  0  0  0  0  0  0  0  0  0  0
   -1.4733   -0.3336    8.6188 C   0  0  0  0  0  0  0  0  0  0  0  0
   -1.0463   -1.6831    9.1924 C   0  0  0  0  0  0  0  0  0  0  0  0
   -2.6921   -0.7449    7.7227 C   0  0  0  0  0  0  0  0  0  0  0  0
   -0.5413    0.2825    7.6687 C   0  0  0  0  0  0  0  0  0  0  0  0
    0.8294   -0.1824    7.4958 C   0  0  0  0  0  0  0  0  0  0  0  0
    1.1325   -1.2931    6.5579 C   0  0  0  0  0  0  0  0  0  0  0  0
    2.3313   -2.0921    6.8944 C   0  0  0  0  0  0  0  0  0  0  0  0
    2.3409   -2.8177    8.1676 C   0  0  0  0  0  0  0  0  0  0  0  0
    3.5949   -3.3284    8.7389 C   0  0  0  0  0  0  0  0  0  0  0  0
    3.4239   -4.0827   10.5051 Br  0  0  0  0  0  0  0  0  0  0  0  0
   -2.6640    0.2759   13.3840 O   0  0  0  0  0  0  0  0  0  0  0  0
  1  2  1  0
  2  3  2  0
  3  4  1  0
  4  5  1  0
  5  6  1  0
  6  7  1  0
  6  8  1  0
  8  9  2  0
  9 10  1  0
 10 11  2  0
 11 12  1  0
 12 13  2  0
 13 14  1  0
 14 15  1  0
 15 16  1  0
 15 17  1  0
 11 18  1  0
 18 19  1  0
 18 20  1  0
 18 21  1  0
 21 22  1  0
 22 23  1  0
 23 24  1  0
 24 25  1  0
 25 26  1  0
 26 27  1  0
  9 28  1  0
  7  2  1  0
 15  5  1  0
 13  8  1  0
M  END
$$$$
