
     RDKit          3D

 28 30  0  0  0  0  0  0  0  0999 V2000
   -6.9523    1.8158   10.1072 C   0  0  0  0  0  0  0  0  0  0  0  0
   -5.5755    2.4379    9.9184 C   0  0  0  0  0  0  0  0  0  0  0  0
   -5.5077    3.7189    9.6239 C   0  0  0  0  0  0  0  0  0  0  0  0
   -4.2344    4.4012    9.4247 C   0  0  0  0  0  0  0  0  0  0  0  0
   -3.1615    3.4501    8.8642 C   0  0  0  0  0  0  0  0  0  0  0  0
   -3.0764    2.2225    9.7217 C   0  0  0  0  0  0  0  0  0  0  0  0
   -4.3919    1.6046   10.0691 C   0  0  0  0  0  0  0  0  0  0  0  0
   -2.2366    1.1900    9.0977 C   0  0  0  0  0  0  0  0  0  0  0  0
   -1.3541    0.4000    9.8387 C   0  0  0  0  0  0  0  0  0  0  0  0
   -0.6048   -0.5561    9.1842 C   0  0  0  0  0  0  0  0  0  0  0  0
   -0.6640   -0.7929    7.8247 C   0  0  0  0  0  0  0  0  0  0  0  0
   -1.5621    0.0241    7.1319 C   0  0  0  0  0  0  0  0  0  0  0  0
   -2.3345    0.9949    7.7409 C   0  0  0  0  0  0  0  0  0  0  0  0
   -3.2297    1.8150    7.0684 O   0  0  0  0  0  0  0  0  0  0  0  0
   -3.3263    3.2101    7.4125 C   0  0  0  0  0  0  0  0  0  0  0  0
   -4.5792    3.7650    6.7962 C   0  0  0  0  0  0  0  0  0  0  0  0
   -2.1679    3.8622    6.6367 C   0  0  0  0  0  0  0  0  0  0  0  0
    0.1231   -1.7767    7.1066 C   0  0  0  0  0  0  0  0  0  0  0  0
   -0.8739   -2.7492    6.4798 C   0  0  0  0  0  0  0  0  0  0  0  0
    0.7109   -1.0684    5.8375 C   0  0  0  0  0  0  0  0  0  0  0  0
    1.3001   -2.3835    7.7369 C   0  0  0  0  0  0  0  0  0  0  0  0
    1.6305   -2.1863    9.1429 C   0  0  0  0  0  0  0  0  0  0  0  0
    1.4782   -3.3001   10.1130 C   0  0  0  0  0  0  0  0  0  0  0  0
    2.3414   -3.2140   11.3114 C   0  0  0  0  0  0  0  0  0  0  0  0
    1.8055   -2.5453   12.5002 C   0  0  0  0  0  0  0  0  0  0  0  0
    2.6881   -2.1360   13.6017 C   0  0  0  0  0  0  0  0  0  0  0  0
    1.7753   -1.7074   15.2450 Br  0  0  0  0  0  0  0  0  0  0  0  0
   -1.2697    0.6135   11.2107 O   0  0  0  0  0  0  0  0  0  0  0  0
  1  2  1  0
  2  3  2  0
  3  4  1  0
  4  5  1  0
  5  6  1  0
  6  7  1  0
  6  8  1  0
  8  9  2  0
  9 10  1  0
 10 11  2  0
 11 12  1  0
 12 13  2  0
 13 14  1  0
 14 15  1  0
 15 16  1  0
 15 17  1  0
 11 18  1  0
 18 19  1  0
 18 20  1  0
 18 21  1  0
 21 22  1  0
 22 23  1  0
 23 24  1  0
 24 25  1  0
 25 26  1  0
 26 27  1  0
  9 28  1  0
  7  2  1  0
 15  5  1  0
 13  8  1  0
M  END
$$$$
