
     RDKit          3D

 28 30  0  0  0  0  0  0  0  0999 V2000
   -5.7536    1.4748   14.9705 C   0  0  0  0  0  0  0  0  0  0  0  0
   -5.0299    2.1917   13.8389 C   0  0  0  0  0  0  0  0  0  0  0  0
   -5.6287    3.2158   13.2689 C   0  0  0  0  0  0  0  0  0  0  0  0
   -5.0137    3.9634   12.1782 C   0  0  0  0  0  0  0  0  0  0  0  0
   -4.0910    3.0718   11.3275 C   0  0  0  0  0  0  0  0  0  0  0  0
   -3.1142    2.3614   12.2167 C   0  0  0  0  0  0  0  0  0  0  0  0
   -3.7131    1.7265   13.4296 C   0  0  0  0  0  0  0  0  0  0  0  0
   -2.3711    1.3292   11.4797 C   0  0  0  0  0  0  0  0  0  0  0  0
   -1.0091    1.0996   11.6897 C   0  0  0  0  0  0  0  0  0  0  0  0
   -0.3811    0.1062   10.9666 C   0  0  0  0  0  0  0  0  0  0  0  0
   -1.0124   -0.6920   10.0326 C   0  0  0  0  0  0  0  0  0  0  0  0
   -2.3730   -0.4207    9.8622 C   0  0  0  0  0  0  0  0  0  0  0  0
   -3.0473    0.5624   10.5614 C   0  0  0  0  0  0  0  0  0  0  0  0
   -4.3967    0.8455   10.4037 O   0  0  0  0  0  0  0  0  0  0  0  0
   -4.8485    2.2129   10.3891 C   0  0  0  0  0  0  0  0  0  0  0  0
   -6.3417    2.2210   10.5555 C   0  0  0  0  0  0  0  0  0  0  0  0
   -4.5982    2.6683    8.9403 C   0  0  0  0  0  0  0  0  0  0  0  0
   -0.3761   -1.7303    9.2451 C   0  0  0  0  0  0  0  0  0  0  0  0
    0.5368   -2.4953   10.2013 C   0  0  0  0  0  0  0  0  0  0  0  0
   -1.4682   -2.8082    8.9241 C   0  0  0  0  0  0  0  0  0  0  0  0
    0.1926   -1.4159    7.9304 C   0  0  0  0  0  0  0  0  0  0  0  0
   -0.4813   -0.5554    6.9658 C   0  0  0  0  0  0  0  0  0  0  0  0
    0.2474    0.5689    6.3256 C   0  0  0  0  0  0  0  0  0  0  0  0
    0.0256    0.7158    4.8703 C   0  0  0  0  0  0  0  0  0  0  0  0
   -1.2042    1.3759    4.4237 C   0  0  0  0  0  0  0  0  0  0  0  0
   -1.2139    2.2306    3.2282 C   0  0  0  0  0  0  0  0  0  0  0  0
   -2.1376    3.9087    3.4485 Br  0  0  0  0  0  0  0  0  0  0  0  0
   -0.3429    1.8868   12.6233 O   0  0  0  0  0  0  0  0  0  0  0  0
  1  2  1  0
  2  3  2  0
  3  4  1  0
  4  5  1  0
  5  6  1  0
  6  7  1  0
  6  8  1  0
  8  9  2  0
  9 10  1  0
 10 11  2  0
 11 12  1  0
 12 13  2  0
 13 14  1  0
 14 15  1  0
 15 16  1  0
 15 17  1  0
 11 18  1  0
 18 19  1  0
 18 20  1  0
 18 21  1  0
 21 22  1  0
 22 23  1  0
 23 24  1  0
 24 25  1  0
 25 26  1  0
 26 27  1  0
  9 28  1  0
  7  2  1  0
 15  5  1  0
 13  8  1  0
M  END
$$$$
