
     RDKit          3D

 28 30  0  0  0  0  0  0  0  0999 V2000
   -6.3683    2.2779   12.5334 C   0  0  0  0  0  0  0  0  0  0  0  0
   -5.0571    2.6237   11.8412 C   0  0  0  0  0  0  0  0  0  0  0  0
   -5.0121    3.7134   11.1044 C   0  0  0  0  0  0  0  0  0  0  0  0
   -3.8011    4.1249   10.4038 C   0  0  0  0  0  0  0  0  0  0  0  0
   -2.9404    2.9147    9.9977 C   0  0  0  0  0  0  0  0  0  0  0  0
   -2.6958    2.0440   11.1942 C   0  0  0  0  0  0  0  0  0  0  0  0
   -3.9082    1.7476   12.0158 C   0  0  0  0  0  0  0  0  0  0  0  0
   -2.0798    0.7659   10.8098 C   0  0  0  0  0  0  0  0  0  0  0  0
   -1.0743    0.1652   11.5715 C   0  0  0  0  0  0  0  0  0  0  0  0
   -0.5504   -1.0404   11.1520 C   0  0  0  0  0  0  0  0  0  0  0  0
   -0.9544   -1.7087   10.0128 C   0  0  0  0  0  0  0  0  0  0  0  0
   -1.9620   -1.0647    9.2888 C   0  0  0  0  0  0  0  0  0  0  0  0
   -2.5189    0.1424    9.6667 C   0  0  0  0  0  0  0  0  0  0  0  0
   -3.5185    0.7956    8.9594 O   0  0  0  0  0  0  0  0  0  0  0  0
   -3.4697    2.2259    8.7987 C   0  0  0  0  0  0  0  0  0  0  0  0
   -4.8124    2.6950    8.3145 C   0  0  0  0  0  0  0  0  0  0  0  0
   -2.5141    2.4308    7.6097 C   0  0  0  0  0  0  0  0  0  0  0  0
   -0.4108   -2.9663    9.5371 C   0  0  0  0  0  0  0  0  0  0  0  0
   -0.0181   -3.7615   10.7806 C   0  0  0  0  0  0  0  0  0  0  0  0
   -1.6090   -3.8147    8.9875 C   0  0  0  0  0  0  0  0  0  0  0  0
    0.5558   -2.9828    8.4344 C   0  0  0  0  0  0  0  0  0  0  0  0
    0.3886   -2.1816    7.2281 C   0  0  0  0  0  0  0  0  0  0  0  0
    1.5464   -1.9164    6.3369 C   0  0  0  0  0  0  0  0  0  0  0  0
    2.0209   -0.5153    6.3207 C   0  0  0  0  0  0  0  0  0  0  0  0
    1.1848    0.4879    5.6557 C   0  0  0  0  0  0  0  0  0  0  0  0
    1.7090    1.2951    4.5451 C   0  0  0  0  0  0  0  0  0  0  0  0
    1.4143    3.1922    4.7224 Br  0  0  0  0  0  0  0  0  0  0  0  0
   -0.6437    0.8127   12.7249 O   0  0  0  0  0  0  0  0  0  0  0  0
  1  2  1  0
  2  3  2  0
  3  4  1  0
  4  5  1  0
  5  6  1  0
  6  7  1  0
  6  8  1  0
  8  9  2  0
  9 10  1  0
 10 11  2  0
 11 12  1  0
 12 13  2  0
 13 14  1  0
 14 15  1  0
 15 16  1  0
 15 17  1  0
 11 18  1  0
 18 19  1  0
 18 20  1  0
 18 21  1  0
 21 22  1  0
 22 23  1  0
 23 24  1  0
 24 25  1  0
 25 26  1  0
 26 27  1  0
  9 28  1  0
  7  2  1  0
 15  5  1  0
 13  8  1  0
M  END
$$$$
