
     RDKit          3D

 28 30  0  0  0  0  0  0  0  0999 V2000
   -7.4480    3.3980   12.7518 C   0  0  0  0  0  0  0  0  0  0  0  0
   -6.0247    3.8591   12.4698 C   0  0  0  0  0  0  0  0  0  0  0  0
   -5.7961    5.1525   12.3843 C   0  0  0  0  0  0  0  0  0  0  0  0
   -4.4661    5.6877   12.1172 C   0  0  0  0  0  0  0  0  0  0  0  0
   -3.6281    4.7245   11.2569 C   0  0  0  0  0  0  0  0  0  0  0  0
   -3.6308    3.3594   11.8782 C   0  0  0  0  0  0  0  0  0  0  0  0
   -4.9742    2.8651   12.3066 C   0  0  0  0  0  0  0  0  0  0  0  0
   -3.0415    2.3591   10.9765 C   0  0  0  0  0  0  0  0  0  0  0  0
   -2.2088    1.3377   11.4401 C   0  0  0  0  0  0  0  0  0  0  0  0
   -1.7001    0.4293   10.5345 C   0  0  0  0  0  0  0  0  0  0  0  0
   -1.9584    0.4572    9.1780 C   0  0  0  0  0  0  0  0  0  0  0  0
   -2.7965    1.4981    8.7681 C   0  0  0  0  0  0  0  0  0  0  0  0
   -3.3310    2.4322    9.6351 C   0  0  0  0  0  0  0  0  0  0  0  0
   -4.1633    3.4720    9.2450 O   0  0  0  0  0  0  0  0  0  0  0  0
   -4.0015    4.7801    9.8253 C   0  0  0  0  0  0  0  0  0  0  0  0
   -5.2188    5.5980    9.4984 C   0  0  0  0  0  0  0  0  0  0  0  0
   -2.8583    5.4073    9.0075 C   0  0  0  0  0  0  0  0  0  0  0  0
   -1.4246   -0.4715    8.2002 C   0  0  0  0  0  0  0  0  0  0  0  0
   -2.6220   -1.2286    7.6295 C   0  0  0  0  0  0  0  0  0  0  0  0
   -0.9649    0.3697    6.9598 C   0  0  0  0  0  0  0  0  0  0  0  0
   -0.2462   -1.2837    8.5199 C   0  0  0  0  0  0  0  0  0  0  0  0
    0.8333   -0.8039    9.3739 C   0  0  0  0  0  0  0  0  0  0  0  0
    1.7746   -1.7639   10.0043 C   0  0  0  0  0  0  0  0  0  0  0  0
    2.3657   -2.7617    9.0858 C   0  0  0  0  0  0  0  0  0  0  0  0
    3.7981   -2.6645    8.7918 C   0  0  0  0  0  0  0  0  0  0  0  0
    4.5939   -3.8642    8.4965 C   0  0  0  0  0  0  0  0  0  0  0  0
    5.7599   -3.6985    6.9699 Br  0  0  0  0  0  0  0  0  0  0  0  0
   -1.9279    1.2814   12.8014 O   0  0  0  0  0  0  0  0  0  0  0  0
  1  2  1  0
  2  3  2  0
  3  4  1  0
  4  5  1  0
  5  6  1  0
  6  7  1  0
  6  8  1  0
  8  9  2  0
  9 10  1  0
 10 11  2  0
 11 12  1  0
 12 13  2  0
 13 14  1  0
 14 15  1  0
 15 16  1  0
 15 17  1  0
 11 18  1  0
 18 19  1  0
 18 20  1  0
 18 21  1  0
 21 22  1  0
 22 23  1  0
 23 24  1  0
 24 25  1  0
 25 26  1  0
 26 27  1  0
  9 28  1  0
  7  2  1  0
 15  5  1  0
 13  8  1  0
M  END
$$$$
