
     RDKit          3D

 28 30  0  0  0  0  0  0  0  0999 V2000
   -6.7143    3.5723   13.0247 C   0  0  0  0  0  0  0  0  0  0  0  0
   -5.3832    3.8594   12.3437 C   0  0  0  0  0  0  0  0  0  0  0  0
   -5.1955    5.0546   11.8256 C   0  0  0  0  0  0  0  0  0  0  0  0
   -3.9540    5.4212   11.1540 C   0  0  0  0  0  0  0  0  0  0  0  0
   -3.2910    4.2053   10.4817 C   0  0  0  0  0  0  0  0  0  0  0  0
   -3.1491    3.0923   11.4770 C   0  0  0  0  0  0  0  0  0  0  0  0
   -4.3721    2.8140   12.2891 C   0  0  0  0  0  0  0  0  0  0  0  0
   -2.7376    1.8403   10.8259 C   0  0  0  0  0  0  0  0  0  0  0  0
   -1.8139    0.9677   11.4066 C   0  0  0  0  0  0  0  0  0  0  0  0
   -1.4835   -0.1941   10.7396 C   0  0  0  0  0  0  0  0  0  0  0  0
   -2.0086   -0.5639    9.5167 C   0  0  0  0  0  0  0  0  0  0  0  0
   -2.9271    0.3436    8.9812 C   0  0  0  0  0  0  0  0  0  0  0  0
   -3.2908    1.5197    9.6095 C   0  0  0  0  0  0  0  0  0  0  0  0
   -4.1997    2.4317    9.0917 O   0  0  0  0  0  0  0  0  0  0  0  0
   -3.9443    3.8448    9.2029 C   0  0  0  0  0  0  0  0  0  0  0  0
   -5.2144    4.5827    8.8867 C   0  0  0  0  0  0  0  0  0  0  0  0
   -2.9974    4.1419    8.0264 C   0  0  0  0  0  0  0  0  0  0  0  0
   -1.6678   -1.7679    8.7837 C   0  0  0  0  0  0  0  0  0  0  0  0
   -2.9401   -2.6111    8.7285 C   0  0  0  0  0  0  0  0  0  0  0  0
   -1.4930   -1.3647    7.2789 C   0  0  0  0  0  0  0  0  0  0  0  0
   -0.4309   -2.4938    9.0903 C   0  0  0  0  0  0  0  0  0  0  0  0
    0.8802   -1.8569    9.0778 C   0  0  0  0  0  0  0  0  0  0  0  0
    2.0899   -2.6215    9.4741 C   0  0  0  0  0  0  0  0  0  0  0  0
    3.2215   -2.5467    8.5241 C   0  0  0  0  0  0  0  0  0  0  0  0
    4.1174   -1.3900    8.6090 C   0  0  0  0  0  0  0  0  0  0  0  0
    5.4876   -1.5292    9.1217 C   0  0  0  0  0  0  0  0  0  0  0  0
    6.4866    0.1180    9.2003 Br  0  0  0  0  0  0  0  0  0  0  0  0
   -1.2653    1.3108   12.6381 O   0  0  0  0  0  0  0  0  0  0  0  0
  1  2  1  0
  2  3  2  0
  3  4  1  0
  4  5  1  0
  5  6  1  0
  6  7  1  0
  6  8  1  0
  8  9  2  0
  9 10  1  0
 10 11  2  0
 11 12  1  0
 12 13  2  0
 13 14  1  0
 14 15  1  0
 15 16  1  0
 15 17  1  0
 11 18  1  0
 18 19  1  0
 18 20  1  0
 18 21  1  0
 21 22  1  0
 22 23  1  0
 23 24  1  0
 24 25  1  0
 25 26  1  0
 26 27  1  0
  9 28  1  0
  7  2  1  0
 15  5  1  0
 13  8  1  0
M  END
$$$$
