
     RDKit          3D

 28 30  0  0  0  0  0  0  0  0999 V2000
   -6.3687    2.8691   13.7682 C   0  0  0  0  0  0  0  0  0  0  0  0
   -5.2872    3.2866   12.7812 C   0  0  0  0  0  0  0  0  0  0  0  0
   -5.4604    4.4023   12.1050 C   0  0  0  0  0  0  0  0  0  0  0  0
   -4.4796    4.8820   11.1382 C   0  0  0  0  0  0  0  0  0  0  0  0
   -3.7196    3.7191   10.4749 C   0  0  0  0  0  0  0  0  0  0  0  0
   -3.1549    2.8164   11.5311 C   0  0  0  0  0  0  0  0  0  0  0  0
   -4.1091    2.4473   12.6202 C   0  0  0  0  0  0  0  0  0  0  0  0
   -2.6241    1.5758   10.9481 C   0  0  0  0  0  0  0  0  0  0  0  0
   -1.4420    0.9858   11.4026 C   0  0  0  0  0  0  0  0  0  0  0  0
   -1.0110   -0.1845   10.8121 C   0  0  0  0  0  0  0  0  0  0  0  0
   -1.6748   -0.8266    9.7851 C   0  0  0  0  0  0  0  0  0  0  0  0
   -2.8503   -0.1948    9.3694 C   0  0  0  0  0  0  0  0  0  0  0  0
   -3.3239    0.9772    9.9281 C   0  0  0  0  0  0  0  0  0  0  0  0
   -4.4877    1.6180    9.5269 O   0  0  0  0  0  0  0  0  0  0  0  0
   -4.5191    3.0540    9.4210 C   0  0  0  0  0  0  0  0  0  0  0  0
   -5.9529    3.4905    9.3146 C   0  0  0  0  0  0  0  0  0  0  0  0
   -3.9044    3.3351    8.0383 C   0  0  0  0  0  0  0  0  0  0  0  0
   -1.2378   -2.0461    9.1330 C   0  0  0  0  0  0  0  0  0  0  0  0
   -2.1874   -3.1469    9.6012 C   0  0  0  0  0  0  0  0  0  0  0  0
   -1.6183   -1.9271    7.6169 C   0  0  0  0  0  0  0  0  0  0  0  0
    0.1856   -2.3979    9.1029 C   0  0  0  0  0  0  0  0  0  0  0  0
    1.1388   -1.7493    8.2110 C   0  0  0  0  0  0  0  0  0  0  0  0
    2.3553   -2.4715    7.7594 C   0  0  0  0  0  0  0  0  0  0  0  0
    3.1074   -1.8163    6.6668 C   0  0  0  0  0  0  0  0  0  0  0  0
    2.9979   -2.3816    5.3192 C   0  0  0  0  0  0  0  0  0  0  0  0
    2.8940   -1.5119    4.1391 C   0  0  0  0  0  0  0  0  0  0  0  0
    4.2223   -0.1172    4.0501 Br  0  0  0  0  0  0  0  0  0  0  0  0
   -0.7484    1.6077   12.4357 O   0  0  0  0  0  0  0  0  0  0  0  0
  1  2  1  0
  2  3  2  0
  3  4  1  0
  4  5  1  0
  5  6  1  0
  6  7  1  0
  6  8  1  0
  8  9  2  0
  9 10  1  0
 10 11  2  0
 11 12  1  0
 12 13  2  0
 13 14  1  0
 14 15  1  0
 15 16  1  0
 15 17  1  0
 11 18  1  0
 18 19  1  0
 18 20  1  0
 18 21  1  0
 21 22  1  0
 22 23  1  0
 23 24  1  0
 24 25  1  0
 25 26  1  0
 26 27  1  0
  9 28  1  0
  7  2  1  0
 15  5  1  0
 13  8  1  0
M  END
$$$$
