
     RDKit          3D

 28 30  0  0  0  0  0  0  0  0999 V2000
   -5.6842    3.1258   13.8796 C   0  0  0  0  0  0  0  0  0  0  0  0
   -4.6611    3.3330   12.7713 C   0  0  0  0  0  0  0  0  0  0  0  0
   -4.8726    4.2996   11.9034 C   0  0  0  0  0  0  0  0  0  0  0  0
   -3.9488    4.5730   10.8086 C   0  0  0  0  0  0  0  0  0  0  0  0
   -3.2285    3.2956   10.3403 C   0  0  0  0  0  0  0  0  0  0  0  0
   -2.6042    2.6068   11.5173 C   0  0  0  0  0  0  0  0  0  0  0  0
   -3.4944    2.4652   12.7090 C   0  0  0  0  0  0  0  0  0  0  0  0
   -2.1081    1.2712   11.1555 C   0  0  0  0  0  0  0  0  0  0  0  0
   -0.9021    0.7664   11.6480 C   0  0  0  0  0  0  0  0  0  0  0  0
   -0.5060   -0.5005   11.2710 C   0  0  0  0  0  0  0  0  0  0  0  0
   -1.2278   -1.3208   10.4262 C   0  0  0  0  0  0  0  0  0  0  0  0
   -2.4252   -0.7675    9.9633 C   0  0  0  0  0  0  0  0  0  0  0  0
   -2.8656    0.4954   10.3112 C   0  0  0  0  0  0  0  0  0  0  0  0
   -4.0503    1.0601    9.8601 O   0  0  0  0  0  0  0  0  0  0  0  0
   -4.0874    2.4491    9.4812 C   0  0  0  0  0  0  0  0  0  0  0  0
   -5.5247    2.8732    9.3735 C   0  0  0  0  0  0  0  0  0  0  0  0
   -3.5531    2.4517    8.0378 C   0  0  0  0  0  0  0  0  0  0  0  0
   -0.8293   -2.6478    9.9980 C   0  0  0  0  0  0  0  0  0  0  0  0
    0.2454   -3.1106   10.9797 C   0  0  0  0  0  0  0  0  0  0  0  0
   -2.0082   -3.6227   10.3408 C   0  0  0  0  0  0  0  0  0  0  0  0
   -0.5620   -2.9174    8.5815 C   0  0  0  0  0  0  0  0  0  0  0  0
   -0.9437   -1.9959    7.5185 C   0  0  0  0  0  0  0  0  0  0  0  0
   -0.0302   -1.7511    6.3736 C   0  0  0  0  0  0  0  0  0  0  0  0
    0.6413   -0.4329    6.3744 C   0  0  0  0  0  0  0  0  0  0  0  0
    2.0960   -0.4005    6.5486 C   0  0  0  0  0  0  0  0  0  0  0  0
    2.9172    0.6149    5.8746 C   0  0  0  0  0  0  0  0  0  0  0  0
    2.7859    0.6063    3.9510 Br  0  0  0  0  0  0  0  0  0  0  0  0
   -0.1501    1.5677   12.5011 O   0  0  0  0  0  0  0  0  0  0  0  0
  1  2  1  0
  2  3  2  0
  3  4  1  0
  4  5  1  0
  5  6  1  0
  6  7  1  0
  6  8  1  0
  8  9  2  0
  9 10  1  0
 10 11  2  0
 11 12  1  0
 12 13  2  0
 13 14  1  0
 14 15  1  0
 15 16  1  0
 15 17  1  0
 11 18  1  0
 18 19  1  0
 18 20  1  0
 18 21  1  0
 21 22  1  0
 22 23  1  0
 23 24  1  0
 24 25  1  0
 25 26  1  0
 26 27  1  0
  9 28  1  0
  7  2  1  0
 15  5  1  0
 13  8  1  0
M  END
$$$$
