
     RDKit          3D

 28 30  0  0  0  0  0  0  0  0999 V2000
   -6.8207    6.1004   11.9187 C   0  0  0  0  0  0  0  0  0  0  0  0
   -5.7577    5.1719   12.4897 C   0  0  0  0  0  0  0  0  0  0  0  0
   -5.1389    5.5393   13.5917 C   0  0  0  0  0  0  0  0  0  0  0  0
   -4.1072    4.7160   14.2116 C   0  0  0  0  0  0  0  0  0  0  0  0
   -3.3391    3.8856   13.1673 C   0  0  0  0  0  0  0  0  0  0  0  0
   -4.3093    3.1220   12.3156 C   0  0  0  0  0  0  0  0  0  0  0  0
   -5.4643    3.9212   11.8058 C   0  0  0  0  0  0  0  0  0  0  0  0
   -3.6385    2.5014   11.1642 C   0  0  0  0  0  0  0  0  0  0  0  0
   -3.9663    1.2204   10.7132 C   0  0  0  0  0  0  0  0  0  0  0  0
   -3.2995    0.7076    9.6195 C   0  0  0  0  0  0  0  0  0  0  0  0
   -2.3129    1.3805    8.9256 C   0  0  0  0  0  0  0  0  0  0  0  0
   -2.0246    2.6566    9.4179 C   0  0  0  0  0  0  0  0  0  0  0  0
   -2.6636    3.2146   10.5089 C   0  0  0  0  0  0  0  0  0  0  0  0
   -2.3891    4.4789   11.0112 O   0  0  0  0  0  0  0  0  0  0  0  0
   -2.3369    4.6923   12.4346 C   0  0  0  0  0  0  0  0  0  0  0  0
   -2.3723    6.1719   12.6939 C   0  0  0  0  0  0  0  0  0  0  0  0
   -0.9162    4.2451   12.8225 C   0  0  0  0  0  0  0  0  0  0  0  0
   -1.5824    0.8615    7.7852 C   0  0  0  0  0  0  0  0  0  0  0  0
   -2.5769    0.0237    6.9841 C   0  0  0  0  0  0  0  0  0  0  0  0
   -1.3256    2.0616    6.8097 C   0  0  0  0  0  0  0  0  0  0  0  0
   -0.2504    0.2753    7.9662 C   0  0  0  0  0  0  0  0  0  0  0  0
    0.0673   -1.0935    7.5787 C   0  0  0  0  0  0  0  0  0  0  0  0
    0.4912   -2.0837    8.6008 C   0  0  0  0  0  0  0  0  0  0  0  0
    0.8570   -3.4165    8.0729 C   0  0  0  0  0  0  0  0  0  0  0  0
   -0.1565   -4.4744    8.1101 C   0  0  0  0  0  0  0  0  0  0  0  0
    0.2225   -5.8904    8.0055 C   0  0  0  0  0  0  0  0  0  0  0  0
    1.7486   -6.3939    9.0710 Br  0  0  0  0  0  0  0  0  0  0  0  0
   -4.9557    0.5150   11.3905 O   0  0  0  0  0  0  0  0  0  0  0  0
  1  2  1  0
  2  3  2  0
  3  4  1  0
  4  5  1  0
  5  6  1  0
  6  7  1  0
  6  8  1  0
  8  9  2  0
  9 10  1  0
 10 11  2  0
 11 12  1  0
 12 13  2  0
 13 14  1  0
 14 15  1  0
 15 16  1  0
 15 17  1  0
 11 18  1  0
 18 19  1  0
 18 20  1  0
 18 21  1  0
 21 22  1  0
 22 23  1  0
 23 24  1  0
 24 25  1  0
 25 26  1  0
 26 27  1  0
  9 28  1  0
  7  2  1  0
 15  5  1  0
 13  8  1  0
M  END
$$$$
