
     RDKit          3D

 28 30  0  0  0  0  0  0  0  0999 V2000
   -6.6867    2.0396   13.8139 C   0  0  0  0  0  0  0  0  0  0  0  0
   -5.4974    2.6359   13.0736 C   0  0  0  0  0  0  0  0  0  0  0  0
   -5.6262    3.8407   12.5597 C   0  0  0  0  0  0  0  0  0  0  0  0
   -4.5423    4.4928   11.8339 C   0  0  0  0  0  0  0  0  0  0  0  0
   -3.6415    3.4699   11.1182 C   0  0  0  0  0  0  0  0  0  0  0  0
   -3.1896    2.4243   12.0939 C   0  0  0  0  0  0  0  0  0  0  0  0
   -4.2698    1.8625   12.9602 C   0  0  0  0  0  0  0  0  0  0  0  0
   -2.5230    1.3063   11.4108 C   0  0  0  0  0  0  0  0  0  0  0  0
   -1.3905    0.6807   11.9379 C   0  0  0  0  0  0  0  0  0  0  0  0
   -0.8249   -0.3692   11.2438 C   0  0  0  0  0  0  0  0  0  0  0  0
   -1.3052   -0.8552   10.0434 C   0  0  0  0  0  0  0  0  0  0  0  0
   -2.4388   -0.1943    9.5617 C   0  0  0  0  0  0  0  0  0  0  0  0
   -3.0421    0.8613   10.2188 C   0  0  0  0  0  0  0  0  0  0  0  0
   -4.1666    1.5290    9.7543 O   0  0  0  0  0  0  0  0  0  0  0  0
   -4.2511    2.9622    9.8681 C   0  0  0  0  0  0  0  0  0  0  0  0
   -5.6745    3.3746    9.6203 C   0  0  0  0  0  0  0  0  0  0  0  0
   -3.4609    3.4758    8.6512 C   0  0  0  0  0  0  0  0  0  0  0  0
   -0.7226   -1.9436    9.2824 C   0  0  0  0  0  0  0  0  0  0  0  0
    0.4224   -2.4947   10.1298 C   0  0  0  0  0  0  0  0  0  0  0  0
   -1.7407   -3.1352    9.3174 C   0  0  0  0  0  0  0  0  0  0  0  0
   -0.4390   -1.7764    7.8533 C   0  0  0  0  0  0  0  0  0  0  0  0
    0.9114   -1.6017    7.3332 C   0  0  0  0  0  0  0  0  0  0  0  0
    1.2077   -0.5169    6.3634 C   0  0  0  0  0  0  0  0  0  0  0  0
    0.9139   -0.8385    4.9495 C   0  0  0  0  0  0  0  0  0  0  0  0
    0.0611    0.0845    4.1956 C   0  0  0  0  0  0  0  0  0  0  0  0
    0.6404    1.0555    3.2567 C   0  0  0  0  0  0  0  0  0  0  0  0
   -0.2651    2.7568    3.2008 Br  0  0  0  0  0  0  0  0  0  0  0  0
   -0.8806    1.1464   13.1455 O   0  0  0  0  0  0  0  0  0  0  0  0
  1  2  1  0
  2  3  2  0
  3  4  1  0
  4  5  1  0
  5  6  1  0
  6  7  1  0
  6  8  1  0
  8  9  2  0
  9 10  1  0
 10 11  2  0
 11 12  1  0
 12 13  2  0
 13 14  1  0
 14 15  1  0
 15 16  1  0
 15 17  1  0
 11 18  1  0
 18 19  1  0
 18 20  1  0
 18 21  1  0
 21 22  1  0
 22 23  1  0
 23 24  1  0
 24 25  1  0
 25 26  1  0
 26 27  1  0
  9 28  1  0
  7  2  1  0
 15  5  1  0
 13  8  1  0
M  END
$$$$
