
     RDKit          3D

 28 30  0  0  0  0  0  0  0  0999 V2000
   -6.8534    3.1320   13.2515 C   0  0  0  0  0  0  0  0  0  0  0  0
   -5.5436    3.4768   12.5561 C   0  0  0  0  0  0  0  0  0  0  0  0
   -5.4397    4.6531   11.9748 C   0  0  0  0  0  0  0  0  0  0  0  0
   -4.2250    5.0712   11.2847 C   0  0  0  0  0  0  0  0  0  0  0  0
   -3.4742    3.8716   10.6785 C   0  0  0  0  0  0  0  0  0  0  0  0
   -3.2571    2.8263   11.7320 C   0  0  0  0  0  0  0  0  0  0  0  0
   -4.4603    2.5050   12.5577 C   0  0  0  0  0  0  0  0  0  0  0  0
   -2.7547    1.5740   11.1488 C   0  0  0  0  0  0  0  0  0  0  0  0
   -1.7732    0.8020   11.7755 C   0  0  0  0  0  0  0  0  0  0  0  0
   -1.3581   -0.3671   11.1716 C   0  0  0  0  0  0  0  0  0  0  0  0
   -1.8506   -0.8382    9.9703 C   0  0  0  0  0  0  0  0  0  0  0  0
   -2.8295   -0.0286    9.3869 C   0  0  0  0  0  0  0  0  0  0  0  0
   -3.2788    1.1502    9.9513 C   0  0  0  0  0  0  0  0  0  0  0  0
   -4.2484    1.9660    9.3853 O   0  0  0  0  0  0  0  0  0  0  0  0
   -4.0951    3.3976    9.4208 C   0  0  0  0  0  0  0  0  0  0  0  0
   -5.4133    4.0248    9.0654 C   0  0  0  0  0  0  0  0  0  0  0  0
   -3.1672    3.6985    8.2302 C   0  0  0  0  0  0  0  0  0  0  0  0
   -1.4218   -2.0522    9.3027 C   0  0  0  0  0  0  0  0  0  0  0  0
   -0.8193   -2.9466   10.3843 C   0  0  0  0  0  0  0  0  0  0  0  0
   -2.7126   -2.8534    8.9161 C   0  0  0  0  0  0  0  0  0  0  0  0
   -0.6741   -1.9776    8.0433 C   0  0  0  0  0  0  0  0  0  0  0  0
    0.5865   -1.2567    7.9170 C   0  0  0  0  0  0  0  0  0  0  0  0
    1.8214   -1.9710    7.5046 C   0  0  0  0  0  0  0  0  0  0  0  0
    2.4931   -1.4261    6.3044 C   0  0  0  0  0  0  0  0  0  0  0  0
    3.6027   -0.4892    6.5011 C   0  0  0  0  0  0  0  0  0  0  0  0
    4.7115   -0.4156    5.5394 C   0  0  0  0  0  0  0  0  0  0  0  0
    4.5557   -1.6188    4.0408 Br  0  0  0  0  0  0  0  0  0  0  0  0
   -1.2554    1.2487   12.9869 O   0  0  0  0  0  0  0  0  0  0  0  0
  1  2  1  0
  2  3  2  0
  3  4  1  0
  4  5  1  0
  5  6  1  0
  6  7  1  0
  6  8  1  0
  8  9  2  0
  9 10  1  0
 10 11  2  0
 11 12  1  0
 12 13  2  0
 13 14  1  0
 14 15  1  0
 15 16  1  0
 15 17  1  0
 11 18  1  0
 18 19  1  0
 18 20  1  0
 18 21  1  0
 21 22  1  0
 22 23  1  0
 23 24  1  0
 24 25  1  0
 25 26  1  0
 26 27  1  0
  9 28  1  0
  7  2  1  0
 15  5  1  0
 13  8  1  0
M  END
$$$$
