
     RDKit          3D

 28 30  0  0  0  0  0  0  0  0999 V2000
   -7.1676    3.1915   13.3789 C   0  0  0  0  0  0  0  0  0  0  0  0
   -5.7142    3.6447   13.3960 C   0  0  0  0  0  0  0  0  0  0  0  0
   -5.4538    4.8830   13.7581 C   0  0  0  0  0  0  0  0  0  0  0  0
   -4.0934    5.4063   13.8047 C   0  0  0  0  0  0  0  0  0  0  0  0
   -3.1881    4.7296   12.7594 C   0  0  0  0  0  0  0  0  0  0  0  0
   -3.2813    3.2392   12.8990 C   0  0  0  0  0  0  0  0  0  0  0  0
   -4.6712    2.7034   13.0163 C   0  0  0  0  0  0  0  0  0  0  0  0
   -2.6197    2.5537   11.7795 C   0  0  0  0  0  0  0  0  0  0  0  0
   -1.8593    1.3957   11.9604 C   0  0  0  0  0  0  0  0  0  0  0  0
   -1.2757    0.8025   10.8597 C   0  0  0  0  0  0  0  0  0  0  0  0
   -1.3900    1.2792    9.5684 C   0  0  0  0  0  0  0  0  0  0  0  0
   -2.1611    2.4386    9.4440 C   0  0  0  0  0  0  0  0  0  0  0  0
   -2.7658    3.0699   10.5144 C   0  0  0  0  0  0  0  0  0  0  0  0
   -3.5332    4.2215   10.4087 O   0  0  0  0  0  0  0  0  0  0  0  0
   -3.4086    5.2627   11.3958 C   0  0  0  0  0  0  0  0  0  0  0  0
   -4.5694    6.2040   11.2415 C   0  0  0  0  0  0  0  0  0  0  0  0
   -2.1745    6.0599   10.9369 C   0  0  0  0  0  0  0  0  0  0  0  0
   -0.7743    0.6889    8.3956 C   0  0  0  0  0  0  0  0  0  0  0  0
   -1.9069    0.4163    7.4078 C   0  0  0  0  0  0  0  0  0  0  0  0
    0.0161    1.8259    7.6608 C   0  0  0  0  0  0  0  0  0  0  0  0
    0.2190   -0.3800    8.5422 C   0  0  0  0  0  0  0  0  0  0  0  0
    0.4776   -1.3638    7.4981 C   0  0  0  0  0  0  0  0  0  0  0  0
    1.4420   -2.4689    7.7305 C   0  0  0  0  0  0  0  0  0  0  0  0
    0.9683   -3.8124    7.3314 C   0  0  0  0  0  0  0  0  0  0  0  0
    0.2836   -4.6288    8.3375 C   0  0  0  0  0  0  0  0  0  0  0  0
    0.9251   -5.8202    8.9108 C   0  0  0  0  0  0  0  0  0  0  0  0
   -0.2288   -7.3570    9.0666 Br  0  0  0  0  0  0  0  0  0  0  0  0
   -1.7235    0.8895   13.2490 O   0  0  0  0  0  0  0  0  0  0  0  0
  1  2  1  0
  2  3  2  0
  3  4  1  0
  4  5  1  0
  5  6  1  0
  6  7  1  0
  6  8  1  0
  8  9  2  0
  9 10  1  0
 10 11  2  0
 11 12  1  0
 12 13  2  0
 13 14  1  0
 14 15  1  0
 15 16  1  0
 15 17  1  0
 11 18  1  0
 18 19  1  0
 18 20  1  0
 18 21  1  0
 21 22  1  0
 22 23  1  0
 23 24  1  0
 24 25  1  0
 25 26  1  0
 26 27  1  0
  9 28  1  0
  7  2  1  0
 15  5  1  0
 13  8  1  0
M  END
$$$$
