
     RDKit          3D

 28 30  0  0  0  0  0  0  0  0999 V2000
   -6.9855    1.6414   12.0914 C   0  0  0  0  0  0  0  0  0  0  0  0
   -5.7872    2.4344   11.5882 C   0  0  0  0  0  0  0  0  0  0  0  0
   -6.0115    3.4741   10.8129 C   0  0  0  0  0  0  0  0  0  0  0  0
   -4.9274    4.2931   10.2832 C   0  0  0  0  0  0  0  0  0  0  0  0
   -3.6437    3.4697   10.0725 C   0  0  0  0  0  0  0  0  0  0  0  0
   -3.3020    2.7344   11.3343 C   0  0  0  0  0  0  0  0  0  0  0  0
   -4.4470    2.0217   11.9776 C   0  0  0  0  0  0  0  0  0  0  0  0
   -2.2238    1.7604   11.1117 C   0  0  0  0  0  0  0  0  0  0  0  0
   -1.2058    1.5504   12.0453 C   0  0  0  0  0  0  0  0  0  0  0  0
   -0.2324    0.6118   11.7706 C   0  0  0  0  0  0  0  0  0  0  0  0
   -0.1897   -0.1487   10.6184 C   0  0  0  0  0  0  0  0  0  0  0  0
   -1.2308    0.1008    9.7195 C   0  0  0  0  0  0  0  0  0  0  0  0
   -2.2286    1.0294    9.9481 C   0  0  0  0  0  0  0  0  0  0  0  0
   -3.2682    1.2902    9.0665 O   0  0  0  0  0  0  0  0  0  0  0  0
   -3.6999    2.6460    8.8435 C   0  0  0  0  0  0  0  0  0  0  0  0
   -5.0269    2.6115    8.1396 C   0  0  0  0  0  0  0  0  0  0  0  0
   -2.7014    3.1844    7.8033 C   0  0  0  0  0  0  0  0  0  0  0  0
    0.8290   -1.1284   10.2937 C   0  0  0  0  0  0  0  0  0  0  0  0
    2.0635   -0.7501   11.1096 C   0  0  0  0  0  0  0  0  0  0  0  0
    0.4091   -2.4798   10.9683 C   0  0  0  0  0  0  0  0  0  0  0  0
    1.0742   -1.5036    8.8973 C   0  0  0  0  0  0  0  0  0  0  0  0
    0.7005   -2.8033    8.3535 C   0  0  0  0  0  0  0  0  0  0  0  0
    0.9586   -3.1220    6.9262 C   0  0  0  0  0  0  0  0  0  0  0  0
   -0.2058   -2.9695    6.0264 C   0  0  0  0  0  0  0  0  0  0  0  0
   -0.0988   -3.5005    4.6647 C   0  0  0  0  0  0  0  0  0  0  0  0
   -1.0441   -3.0926    3.6161 C   0  0  0  0  0  0  0  0  0  0  0  0
   -1.5191   -4.4900    2.3755 Br  0  0  0  0  0  0  0  0  0  0  0  0
   -1.2189    2.3008   13.2166 O   0  0  0  0  0  0  0  0  0  0  0  0
  1  2  1  0
  2  3  2  0
  3  4  1  0
  4  5  1  0
  5  6  1  0
  6  7  1  0
  6  8  1  0
  8  9  2  0
  9 10  1  0
 10 11  2  0
 11 12  1  0
 12 13  2  0
 13 14  1  0
 14 15  1  0
 15 16  1  0
 15 17  1  0
 11 18  1  0
 18 19  1  0
 18 20  1  0
 18 21  1  0
 21 22  1  0
 22 23  1  0
 23 24  1  0
 24 25  1  0
 25 26  1  0
 26 27  1  0
  9 28  1  0
  7  2  1  0
 15  5  1  0
 13  8  1  0
M  END
$$$$
