
     RDKit          3D

 28 30  0  0  0  0  0  0  0  0999 V2000
   -6.5134    0.7941   13.8215 C   0  0  0  0  0  0  0  0  0  0  0  0
   -5.7610    1.8755   13.0583 C   0  0  0  0  0  0  0  0  0  0  0  0
   -6.4124    2.9705   12.7282 C   0  0  0  0  0  0  0  0  0  0  0  0
   -5.7755    4.0598   11.9972 C   0  0  0  0  0  0  0  0  0  0  0  0
   -4.6633    3.5450   11.0655 C   0  0  0  0  0  0  0  0  0  0  0  0
   -3.7121    2.6833   11.8417 C   0  0  0  0  0  0  0  0  0  0  0  0
   -4.3604    1.6657   12.7231 C   0  0  0  0  0  0  0  0  0  0  0  0
   -2.7727    1.9859   10.9518 C   0  0  0  0  0  0  0  0  0  0  0  0
   -1.4246    1.8172   11.2773 C   0  0  0  0  0  0  0  0  0  0  0  0
   -0.6050    1.1429   10.3955 C   0  0  0  0  0  0  0  0  0  0  0  0
   -1.0278    0.6135    9.1919 C   0  0  0  0  0  0  0  0  0  0  0  0
   -2.3840    0.8100    8.9160 C   0  0  0  0  0  0  0  0  0  0  0  0
   -3.2454    1.4778    9.7657 C   0  0  0  0  0  0  0  0  0  0  0  0
   -4.5934    1.6826    9.5068 O   0  0  0  0  0  0  0  0  0  0  0  0
   -5.2028    2.9487    9.8223 C   0  0  0  0  0  0  0  0  0  0  0  0
   -6.6953    2.7828    9.7710 C   0  0  0  0  0  0  0  0  0  0  0  0
   -4.8506    3.8380    8.6165 C   0  0  0  0  0  0  0  0  0  0  0  0
   -0.1874   -0.0834    8.2373 C   0  0  0  0  0  0  0  0  0  0  0  0
   -0.9285   -0.0412    6.9025 C   0  0  0  0  0  0  0  0  0  0  0  0
    1.0458    0.8380    7.9409 C   0  0  0  0  0  0  0  0  0  0  0  0
    0.4223   -1.3694    8.5911 C   0  0  0  0  0  0  0  0  0  0  0  0
   -0.3607   -2.5802    8.8050 C   0  0  0  0  0  0  0  0  0  0  0  0
   -0.4736   -3.6003    7.7318 C   0  0  0  0  0  0  0  0  0  0  0  0
   -0.8972   -4.9443    8.1823 C   0  0  0  0  0  0  0  0  0  0  0  0
   -0.0779   -6.0935    7.7878 C   0  0  0  0  0  0  0  0  0  0  0  0
   -0.6008   -7.4638    7.8801 C   0  0  0  0  0  0  0  0  0  0  0  0
   -1.6795   -7.8082    9.4406 Br  0  0  0  0  0  0  0  0  0  0  0  0
   -0.9660    2.3393   12.4824 O   0  0  0  0  0  0  0  0  0  0  0  0
  1  2  1  0
  2  3  2  0
  3  4  1  0
  4  5  1  0
  5  6  1  0
  6  7  1  0
  6  8  1  0
  8  9  2  0
  9 10  1  0
 10 11  2  0
 11 12  1  0
 12 13  2  0
 13 14  1  0
 14 15  1  0
 15 16  1  0
 15 17  1  0
 11 18  1  0
 18 19  1  0
 18 20  1  0
 18 21  1  0
 21 22  1  0
 22 23  1  0
 23 24  1  0
 24 25  1  0
 25 26  1  0
 26 27  1  0
  9 28  1  0
  7  2  1  0
 15  5  1  0
 13  8  1  0
M  END
$$$$
