
     RDKit          3D

 28 30  0  0  0  0  0  0  0  0999 V2000
   -7.1336    0.6338   13.4596 C   0  0  0  0  0  0  0  0  0  0  0  0
   -6.1361    1.7331   13.1210 C   0  0  0  0  0  0  0  0  0  0  0  0
   -6.5814    2.9679   13.0250 C   0  0  0  0  0  0  0  0  0  0  0  0
   -5.7011    4.0857   12.7048 C   0  0  0  0  0  0  0  0  0  0  0  0
   -4.5256    3.6460   11.8133 C   0  0  0  0  0  0  0  0  0  0  0  0
   -3.8306    2.4717   12.4357 C   0  0  0  0  0  0  0  0  0  0  0  0
   -4.7374    1.3862   12.9175 C   0  0  0  0  0  0  0  0  0  0  0  0
   -2.8541    1.8759   11.5126 C   0  0  0  0  0  0  0  0  0  0  0  0
   -1.6095    1.4103   11.9441 C   0  0  0  0  0  0  0  0  0  0  0  0
   -0.7486    0.8544   11.0202 C   0  0  0  0  0  0  0  0  0  0  0  0
   -1.0324    0.7228    9.6749 C   0  0  0  0  0  0  0  0  0  0  0  0
   -2.2894    1.2037    9.2972 C   0  0  0  0  0  0  0  0  0  0  0  0
   -3.1869    1.7685   10.1836 C   0  0  0  0  0  0  0  0  0  0  0  0
   -4.4376    2.2517    9.8255 O   0  0  0  0  0  0  0  0  0  0  0  0
   -4.9256    3.4800   10.3974 C   0  0  0  0  0  0  0  0  0  0  0  0
   -6.3984    3.5812   10.1180 C   0  0  0  0  0  0  0  0  0  0  0  0
   -4.2716    4.5738    9.5344 C   0  0  0  0  0  0  0  0  0  0  0  0
   -0.1421    0.1602    8.6778 C   0  0  0  0  0  0  0  0  0  0  0  0
   -0.5083    0.8244    7.3521 C   0  0  0  0  0  0  0  0  0  0  0  0
    1.2861    0.7507    8.9408 C   0  0  0  0  0  0  0  0  0  0  0  0
    0.0890   -1.2871    8.6269 C   0  0  0  0  0  0  0  0  0  0  0  0
   -0.9837   -2.2489    8.4055 C   0  0  0  0  0  0  0  0  0  0  0  0
   -0.7005   -3.7065    8.4244 C   0  0  0  0  0  0  0  0  0  0  0  0
    0.2394   -4.1790    7.3842 C   0  0  0  0  0  0  0  0  0  0  0  0
   -0.2676   -5.1020    6.3650 C   0  0  0  0  0  0  0  0  0  0  0  0
    0.4928   -5.3644    5.1352 C   0  0  0  0  0  0  0  0  0  0  0  0
    0.3494   -7.1692    4.4722 Br  0  0  0  0  0  0  0  0  0  0  0  0
   -1.2919    1.5286   13.2933 O   0  0  0  0  0  0  0  0  0  0  0  0
  1  2  1  0
  2  3  2  0
  3  4  1  0
  4  5  1  0
  5  6  1  0
  6  7  1  0
  6  8  1  0
  8  9  2  0
  9 10  1  0
 10 11  2  0
 11 12  1  0
 12 13  2  0
 13 14  1  0
 14 15  1  0
 15 16  1  0
 15 17  1  0
 11 18  1  0
 18 19  1  0
 18 20  1  0
 18 21  1  0
 21 22  1  0
 22 23  1  0
 23 24  1  0
 24 25  1  0
 25 26  1  0
 26 27  1  0
  9 28  1  0
  7  2  1  0
 15  5  1  0
 13  8  1  0
M  END
$$$$
