
     RDKit          3D

 28 30  0  0  0  0  0  0  0  0999 V2000
   -6.2071    2.1178   10.9096 C   0  0  0  0  0  0  0  0  0  0  0  0
   -4.9252    2.7867   10.4328 C   0  0  0  0  0  0  0  0  0  0  0  0
   -4.9770    4.0567   10.0912 C   0  0  0  0  0  0  0  0  0  0  0  0
   -3.8013    4.7812    9.6228 C   0  0  0  0  0  0  0  0  0  0  0  0
   -2.8158    3.8524    8.8906 C   0  0  0  0  0  0  0  0  0  0  0  0
   -2.5061    2.6641    9.7517 C   0  0  0  0  0  0  0  0  0  0  0  0
   -3.6971    2.0082   10.3717 C   0  0  0  0  0  0  0  0  0  0  0  0
   -1.7576    1.6422    9.0059 C   0  0  0  0  0  0  0  0  0  0  0  0
   -0.7105    0.9181    9.5814 C   0  0  0  0  0  0  0  0  0  0  0  0
   -0.0602   -0.0322    8.8213 C   0  0  0  0  0  0  0  0  0  0  0  0
   -0.3742   -0.3248    7.5085 C   0  0  0  0  0  0  0  0  0  0  0  0
   -1.4284    0.4275    6.9824 C   0  0  0  0  0  0  0  0  0  0  0  0
   -2.1109    1.3899    7.7021 C   0  0  0  0  0  0  0  0  0  0  0  0
   -3.1584    2.1461    7.1951 O   0  0  0  0  0  0  0  0  0  0  0  0
   -3.2512    3.5488    7.5084 C   0  0  0  0  0  0  0  0  0  0  0  0
   -4.6254    4.0282    7.1356 C   0  0  0  0  0  0  0  0  0  0  0  0
   -2.2998    4.2156    6.4988 C   0  0  0  0  0  0  0  0  0  0  0  0
    0.3019   -1.3039    6.6794 C   0  0  0  0  0  0  0  0  0  0  0  0
   -0.2951   -1.1668    5.2803 C   0  0  0  0  0  0  0  0  0  0  0  0
    1.7647   -0.7897    6.4482 C   0  0  0  0  0  0  0  0  0  0  0  0
    0.4927   -2.6753    7.1629 C   0  0  0  0  0  0  0  0  0  0  0  0
   -0.0062   -3.1319    8.4542 C   0  0  0  0  0  0  0  0  0  0  0  0
    0.9234   -3.7160    9.4540 C   0  0  0  0  0  0  0  0  0  0  0  0
    0.6156   -3.3927   10.8645 C   0  0  0  0  0  0  0  0  0  0  0  0
   -0.7361   -3.6727   11.3566 C   0  0  0  0  0  0  0  0  0  0  0  0
   -0.9487   -4.3394   12.6489 C   0  0  0  0  0  0  0  0  0  0  0  0
   -2.6619   -5.2045   12.8336 Br  0  0  0  0  0  0  0  0  0  0  0  0
   -0.3683    1.1889   10.9023 O   0  0  0  0  0  0  0  0  0  0  0  0
  1  2  1  0
  2  3  2  0
  3  4  1  0
  4  5  1  0
  5  6  1  0
  6  7  1  0
  6  8  1  0
  8  9  2  0
  9 10  1  0
 10 11  2  0
 11 12  1  0
 12 13  2  0
 13 14  1  0
 14 15  1  0
 15 16  1  0
 15 17  1  0
 11 18  1  0
 18 19  1  0
 18 20  1  0
 18 21  1  0
 21 22  1  0
 22 23  1  0
 23 24  1  0
 24 25  1  0
 25 26  1  0
 26 27  1  0
  9 28  1  0
  7  2  1  0
 15  5  1  0
 13  8  1  0
M  END
$$$$
