
     RDKit          3D

 28 30  0  0  0  0  0  0  0  0999 V2000
    2.9240   -1.3371    7.9978 C   0  0  0  0  0  0  0  0  0  0  0  0
    1.8618   -1.8624    8.9538 C   0  0  0  0  0  0  0  0  0  0  0  0
    1.6477   -3.1604    8.9920 C   0  0  0  0  0  0  0  0  0  0  0  0
    0.6513   -3.7552    9.8752 C   0  0  0  0  0  0  0  0  0  0  0  0
   -0.5275   -2.7979   10.1283 C   0  0  0  0  0  0  0  0  0  0  0  0
   -0.0089   -1.4682   10.5895 C   0  0  0  0  0  0  0  0  0  0  0  0
    1.1262   -0.9219    9.7859 C   0  0  0  0  0  0  0  0  0  0  0  0
   -1.0762   -0.4579   10.6196 C   0  0  0  0  0  0  0  0  0  0  0  0
   -1.1753    0.4902   11.6409 C   0  0  0  0  0  0  0  0  0  0  0  0
   -2.1996    1.4136   11.5964 C   0  0  0  0  0  0  0  0  0  0  0  0
   -3.1521    1.4696   10.5978 C   0  0  0  0  0  0  0  0  0  0  0  0
   -3.0064    0.4997    9.6018 C   0  0  0  0  0  0  0  0  0  0  0  0
   -1.9986   -0.4460    9.6010 C   0  0  0  0  0  0  0  0  0  0  0  0
   -1.8402   -1.4161    8.6213 O   0  0  0  0  0  0  0  0  0  0  0  0
   -1.4743   -2.7592    8.9906 C   0  0  0  0  0  0  0  0  0  0  0  0
   -1.0383   -3.4897    7.7521 C   0  0  0  0  0  0  0  0  0  0  0  0
   -2.8103   -3.4070    9.3960 C   0  0  0  0  0  0  0  0  0  0  0  0
   -4.2496    2.4156   10.5333 C   0  0  0  0  0  0  0  0  0  0  0  0
   -5.5311    1.5955   10.6673 C   0  0  0  0  0  0  0  0  0  0  0  0
   -4.2508    3.2217   11.8778 C   0  0  0  0  0  0  0  0  0  0  0  0
   -4.2630    3.4619    9.5058 C   0  0  0  0  0  0  0  0  0  0  0  0
   -3.1257    4.3401    9.2608 C   0  0  0  0  0  0  0  0  0  0  0  0
   -2.8489    4.8455    7.8922 C   0  0  0  0  0  0  0  0  0  0  0  0
   -1.6262    4.3067    7.2572 C   0  0  0  0  0  0  0  0  0  0  0  0
   -1.5129    2.8538    7.1024 C   0  0  0  0  0  0  0  0  0  0  0  0
   -1.1891    2.2537    5.8006 C   0  0  0  0  0  0  0  0  0  0  0  0
   -1.8251    3.2494    4.2770 Br  0  0  0  0  0  0  0  0  0  0  0  0
   -0.2319    0.4610   12.6628 O   0  0  0  0  0  0  0  0  0  0  0  0
  1  2  1  0
  2  3  2  0
  3  4  1  0
  4  5  1  0
  5  6  1  0
  6  7  1  0
  6  8  1  0
  8  9  2  0
  9 10  1  0
 10 11  2  0
 11 12  1  0
 12 13  2  0
 13 14  1  0
 14 15  1  0
 15 16  1  0
 15 17  1  0
 11 18  1  0
 18 19  1  0
 18 20  1  0
 18 21  1  0
 21 22  1  0
 22 23  1  0
 23 24  1  0
 24 25  1  0
 25 26  1  0
 26 27  1  0
  9 28  1  0
  7  2  1  0
 15  5  1  0
 13  8  1  0
M  END
$$$$
