
     RDKit          3D

 28 30  0  0  0  0  0  0  0  0999 V2000
   -6.8135    3.3352   12.9865 C   0  0  0  0  0  0  0  0  0  0  0  0
   -5.4959    3.7407   12.3401 C   0  0  0  0  0  0  0  0  0  0  0  0
   -5.4123    4.9371   11.7979 C   0  0  0  0  0  0  0  0  0  0  0  0
   -4.1922    5.4128   11.1562 C   0  0  0  0  0  0  0  0  0  0  0  0
   -3.3880    4.2558   10.5359 C   0  0  0  0  0  0  0  0  0  0  0  0
   -3.1682    3.1853   11.5631 C   0  0  0  0  0  0  0  0  0  0  0  0
   -4.3835    2.8023   12.3436 C   0  0  0  0  0  0  0  0  0  0  0  0
   -2.6112    1.9674   10.9571 C   0  0  0  0  0  0  0  0  0  0  0  0
   -1.6242    1.2061   11.5883 C   0  0  0  0  0  0  0  0  0  0  0  0
   -1.1564    0.0693   10.9616 C   0  0  0  0  0  0  0  0  0  0  0  0
   -1.6003   -0.3788    9.7328 C   0  0  0  0  0  0  0  0  0  0  0  0
   -2.5870    0.4188    9.1461 C   0  0  0  0  0  0  0  0  0  0  0  0
   -3.0882    1.5654    9.7326 C   0  0  0  0  0  0  0  0  0  0  0  0
   -4.0664    2.3689    9.1638 O   0  0  0  0  0  0  0  0  0  0  0  0
   -3.9585    3.8027    9.2470 C   0  0  0  0  0  0  0  0  0  0  0  0
   -5.2850    4.4007    8.8727 C   0  0  0  0  0  0  0  0  0  0  0  0
   -3.0074    4.1682    8.0934 C   0  0  0  0  0  0  0  0  0  0  0  0
   -1.1155   -1.5580    9.0415 C   0  0  0  0  0  0  0  0  0  0  0  0
   -0.7217   -2.5591   10.1256 C   0  0  0  0  0  0  0  0  0  0  0  0
   -2.3576   -2.2652    8.3975 C   0  0  0  0  0  0  0  0  0  0  0  0
   -0.1780   -1.4242    7.9218 C   0  0  0  0  0  0  0  0  0  0  0  0
    1.2458   -1.7104    8.0479 C   0  0  0  0  0  0  0  0  0  0  0  0
    1.8036   -2.9857    7.5305 C   0  0  0  0  0  0  0  0  0  0  0  0
    2.4480   -2.8980    6.2017 C   0  0  0  0  0  0  0  0  0  0  0  0
    1.5974   -3.0156    5.0141 C   0  0  0  0  0  0  0  0  0  0  0  0
    1.9598   -3.9138    3.9088 C   0  0  0  0  0  0  0  0  0  0  0  0
    1.8820   -3.1064    2.1597 Br  0  0  0  0  0  0  0  0  0  0  0  0
   -1.1546    1.6303   12.8271 O   0  0  0  0  0  0  0  0  0  0  0  0
  1  2  1  0
  2  3  2  0
  3  4  1  0
  4  5  1  0
  5  6  1  0
  6  7  1  0
  6  8  1  0
  8  9  2  0
  9 10  1  0
 10 11  2  0
 11 12  1  0
 12 13  2  0
 13 14  1  0
 14 15  1  0
 15 16  1  0
 15 17  1  0
 11 18  1  0
 18 19  1  0
 18 20  1  0
 18 21  1  0
 21 22  1  0
 22 23  1  0
 23 24  1  0
 24 25  1  0
 25 26  1  0
 26 27  1  0
  9 28  1  0
  7  2  1  0
 15  5  1  0
 13  8  1  0
M  END
$$$$
