
     RDKit          3D

 28 30  0  0  0  0  0  0  0  0999 V2000
    3.8955   -1.3260   11.0384 C   0  0  0  0  0  0  0  0  0  0  0  0
    2.6214   -1.9796   10.5212 C   0  0  0  0  0  0  0  0  0  0  0  0
    2.7351   -3.0554    9.7716 C   0  0  0  0  0  0  0  0  0  0  0  0
    1.5718   -3.7491    9.2312 C   0  0  0  0  0  0  0  0  0  0  0  0
    0.4022   -2.7817    8.9736 C   0  0  0  0  0  0  0  0  0  0  0  0
    0.1243   -1.9832   10.2124 C   0  0  0  0  0  0  0  0  0  0  0  0
    1.3328   -1.3998   10.8698 C   0  0  0  0  0  0  0  0  0  0  0  0
   -0.8229   -0.8914    9.9449 C   0  0  0  0  0  0  0  0  0  0  0  0
   -1.8282   -0.5398   10.8492 C   0  0  0  0  0  0  0  0  0  0  0  0
   -2.6746    0.5030   10.5328 C   0  0  0  0  0  0  0  0  0  0  0  0
   -2.5996    1.2377    9.3657 C   0  0  0  0  0  0  0  0  0  0  0  0
   -1.5769    0.8449    8.4975 C   0  0  0  0  0  0  0  0  0  0  0  0
   -0.7041   -0.1919    8.7681 C   0  0  0  0  0  0  0  0  0  0  0  0
    0.3154   -0.5954    7.9172 O   0  0  0  0  0  0  0  0  0  0  0  0
    0.5847   -1.9979    7.7308 C   0  0  0  0  0  0  0  0  0  0  0  0
    1.9212   -2.1391    7.0590 C   0  0  0  0  0  0  0  0  0  0  0  0
   -0.4486   -2.4347    6.6770 C   0  0  0  0  0  0  0  0  0  0  0  0
   -3.4849    2.3259    8.9975 C   0  0  0  0  0  0  0  0  0  0  0  0
   -4.8072    2.0648    9.7159 C   0  0  0  0  0  0  0  0  0  0  0  0
   -2.9756    3.6120    9.7351 C   0  0  0  0  0  0  0  0  0  0  0  0
   -3.5892    2.7515    7.5980 C   0  0  0  0  0  0  0  0  0  0  0  0
   -4.3214    1.9883    6.5949 C   0  0  0  0  0  0  0  0  0  0  0  0
   -4.1760    2.3108    5.1527 C   0  0  0  0  0  0  0  0  0  0  0  0
   -5.4442    2.5548    4.4310 C   0  0  0  0  0  0  0  0  0  0  0  0
   -5.3690    3.0143    3.0414 C   0  0  0  0  0  0  0  0  0  0  0  0
   -6.5871    3.2313    2.2484 C   0  0  0  0  0  0  0  0  0  0  0  0
   -6.3546    4.3807    0.7179 Br  0  0  0  0  0  0  0  0  0  0  0  0
   -1.9318   -1.2605   12.0345 O   0  0  0  0  0  0  0  0  0  0  0  0
  1  2  1  0
  2  3  2  0
  3  4  1  0
  4  5  1  0
  5  6  1  0
  6  7  1  0
  6  8  1  0
  8  9  2  0
  9 10  1  0
 10 11  2  0
 11 12  1  0
 12 13  2  0
 13 14  1  0
 14 15  1  0
 15 16  1  0
 15 17  1  0
 11 18  1  0
 18 19  1  0
 18 20  1  0
 18 21  1  0
 21 22  1  0
 22 23  1  0
 23 24  1  0
 24 25  1  0
 25 26  1  0
 26 27  1  0
  9 28  1  0
  7  2  1  0
 15  5  1  0
 13  8  1  0
M  END
$$$$
