
     RDKit          3D

 28 30  0  0  0  0  0  0  0  0999 V2000
   -6.9182    2.2354   11.4298 C   0  0  0  0  0  0  0  0  0  0  0  0
   -5.5795    2.8180   10.9978 C   0  0  0  0  0  0  0  0  0  0  0  0
   -5.5800    3.9680   10.3577 C   0  0  0  0  0  0  0  0  0  0  0  0
   -4.3476    4.6027    9.9050 C   0  0  0  0  0  0  0  0  0  0  0  0
   -3.2633    3.5630    9.5682 C   0  0  0  0  0  0  0  0  0  0  0  0
   -3.0857    2.6249   10.7250 C   0  0  0  0  0  0  0  0  0  0  0  0
   -4.3558    2.0922   11.3044 C   0  0  0  0  0  0  0  0  0  0  0  0
   -2.2337    1.4831   10.3630 C   0  0  0  0  0  0  0  0  0  0  0  0
   -1.2843    0.9547   11.2414 C   0  0  0  0  0  0  0  0  0  0  0  0
   -0.5273   -0.1247   10.8343 C   0  0  0  0  0  0  0  0  0  0  0  0
   -0.6411   -0.7316    9.5988 C   0  0  0  0  0  0  0  0  0  0  0  0
   -1.6048   -0.1643    8.7602 C   0  0  0  0  0  0  0  0  0  0  0  0
   -2.3877    0.9160    9.1208 C   0  0  0  0  0  0  0  0  0  0  0  0
   -3.3477    1.4919    8.3006 O   0  0  0  0  0  0  0  0  0  0  0  0
   -3.4868    2.9246    8.2512 C   0  0  0  0  0  0  0  0  0  0  0  0
   -4.7899    3.2518    7.5786 C   0  0  0  0  0  0  0  0  0  0  0  0
   -2.3952    3.3668    7.2603 C   0  0  0  0  0  0  0  0  0  0  0  0
    0.1519   -1.8543    9.1362 C   0  0  0  0  0  0  0  0  0  0  0  0
    1.5999   -1.3701    9.0984 C   0  0  0  0  0  0  0  0  0  0  0  0
    0.2017   -2.9023   10.3011 C   0  0  0  0  0  0  0  0  0  0  0  0
   -0.2898   -2.6445    7.9824 C   0  0  0  0  0  0  0  0  0  0  0  0
   -0.4032   -2.0850    6.6412 C   0  0  0  0  0  0  0  0  0  0  0  0
   -0.7638   -2.9550    5.4931 C   0  0  0  0  0  0  0  0  0  0  0  0
   -0.5443   -2.3582    4.1573 C   0  0  0  0  0  0  0  0  0  0  0  0
    0.6405   -2.7753    3.4024 C   0  0  0  0  0  0  0  0  0  0  0  0
    1.0442   -2.0719    2.1768 C   0  0  0  0  0  0  0  0  0  0  0  0
    1.3705   -3.2201    0.6626 Br  0  0  0  0  0  0  0  0  0  0  0  0
   -1.1438    1.5433   12.4939 O   0  0  0  0  0  0  0  0  0  0  0  0
  1  2  1  0
  2  3  2  0
  3  4  1  0
  4  5  1  0
  5  6  1  0
  6  7  1  0
  6  8  1  0
  8  9  2  0
  9 10  1  0
 10 11  2  0
 11 12  1  0
 12 13  2  0
 13 14  1  0
 14 15  1  0
 15 16  1  0
 15 17  1  0
 11 18  1  0
 18 19  1  0
 18 20  1  0
 18 21  1  0
 21 22  1  0
 22 23  1  0
 23 24  1  0
 24 25  1  0
 25 26  1  0
 26 27  1  0
  9 28  1  0
  7  2  1  0
 15  5  1  0
 13  8  1  0
M  END
$$$$
