
     RDKit          3D

 28 30  0  0  0  0  0  0  0  0999 V2000
    4.4877   -1.2645    7.7520 C   0  0  0  0  0  0  0  0  0  0  0  0
    3.1912   -2.0238    7.9983 C   0  0  0  0  0  0  0  0  0  0  0  0
    3.0200   -3.1759    7.3854 C   0  0  0  0  0  0  0  0  0  0  0  0
    1.8116   -3.9735    7.5596 C   0  0  0  0  0  0  0  0  0  0  0  0
    0.5830   -3.0897    7.8414 C   0  0  0  0  0  0  0  0  0  0  0  0
    0.8792   -2.1609    8.9812 C   0  0  0  0  0  0  0  0  0  0  0  0
    2.1945   -1.4571    8.8946 C   0  0  0  0  0  0  0  0  0  0  0  0
   -0.1735   -1.1462    9.1331 C   0  0  0  0  0  0  0  0  0  0  0  0
   -0.6301   -0.7289   10.3857 C   0  0  0  0  0  0  0  0  0  0  0  0
   -1.6151    0.2354   10.4491 C   0  0  0  0  0  0  0  0  0  0  0  0
   -2.1938    0.8284    9.3441 C   0  0  0  0  0  0  0  0  0  0  0  0
   -1.7006    0.3751    8.1172 C   0  0  0  0  0  0  0  0  0  0  0  0
   -0.7158   -0.5876    8.0007 C   0  0  0  0  0  0  0  0  0  0  0  0
   -0.2159   -1.0496    6.7913 O   0  0  0  0  0  0  0  0  0  0  0  0
    0.0554   -2.4528    6.6134 C   0  0  0  0  0  0  0  0  0  0  0  0
    0.8936   -2.6209    5.3778 C   0  0  0  0  0  0  0  0  0  0  0  0
   -1.3173   -3.0515    6.2585 C   0  0  0  0  0  0  0  0  0  0  0  0
   -3.2422    1.8299    9.3784 C   0  0  0  0  0  0  0  0  0  0  0  0
   -2.7673    2.9786    8.4909 C   0  0  0  0  0  0  0  0  0  0  0  0
   -4.4493    1.2708    8.5490 C   0  0  0  0  0  0  0  0  0  0  0  0
   -3.8524    2.2165   10.6547 C   0  0  0  0  0  0  0  0  0  0  0  0
   -3.0652    2.5532   11.8344 C   0  0  0  0  0  0  0  0  0  0  0  0
   -3.7140    3.1725   13.0179 C   0  0  0  0  0  0  0  0  0  0  0  0
   -4.1619    4.5701   12.8312 C   0  0  0  0  0  0  0  0  0  0  0  0
   -5.3643    5.0097   13.5444 C   0  0  0  0  0  0  0  0  0  0  0  0
   -5.9362    6.3438   13.3145 C   0  0  0  0  0  0  0  0  0  0  0  0
   -5.8150    7.5399   14.8219 Br  0  0  0  0  0  0  0  0  0  0  0  0
   -0.0684   -1.3070   11.5195 O   0  0  0  0  0  0  0  0  0  0  0  0
  1  2  1  0
  2  3  2  0
  3  4  1  0
  4  5  1  0
  5  6  1  0
  6  7  1  0
  6  8  1  0
  8  9  2  0
  9 10  1  0
 10 11  2  0
 11 12  1  0
 12 13  2  0
 13 14  1  0
 14 15  1  0
 15 16  1  0
 15 17  1  0
 11 18  1  0
 18 19  1  0
 18 20  1  0
 18 21  1  0
 21 22  1  0
 22 23  1  0
 23 24  1  0
 24 25  1  0
 25 26  1  0
 26 27  1  0
  9 28  1  0
  7  2  1  0
 15  5  1  0
 13  8  1  0
M  END
$$$$
