
     RDKit          3D

 28 30  0  0  0  0  0  0  0  0999 V2000
   -6.4660    3.1814   12.2219 C   0  0  0  0  0  0  0  0  0  0  0  0
   -5.1930    3.8026   11.6636 C   0  0  0  0  0  0  0  0  0  0  0  0
   -5.2242    5.0694   11.3077 C   0  0  0  0  0  0  0  0  0  0  0  0
   -4.0550    5.7497   10.7630 C   0  0  0  0  0  0  0  0  0  0  0  0
   -3.1428    4.7806    9.9891 C   0  0  0  0  0  0  0  0  0  0  0  0
   -2.8220    3.5936   10.8479 C   0  0  0  0  0  0  0  0  0  0  0  0
   -3.9956    2.9842   11.5438 C   0  0  0  0  0  0  0  0  0  0  0  0
   -2.1500    2.5390   10.0752 C   0  0  0  0  0  0  0  0  0  0  0  0
   -1.0950    1.7887   10.6005 C   0  0  0  0  0  0  0  0  0  0  0  0
   -0.5196    0.8085    9.8181 C   0  0  0  0  0  0  0  0  0  0  0  0
   -0.9173    0.5101    8.5295 C   0  0  0  0  0  0  0  0  0  0  0  0
   -1.9757    1.2895    8.0536 C   0  0  0  0  0  0  0  0  0  0  0  0
   -2.5852    2.2822    8.7973 C   0  0  0  0  0  0  0  0  0  0  0  0
   -3.6356    3.0656    8.3401 O   0  0  0  0  0  0  0  0  0  0  0  0
   -3.6660    4.4743    8.6383 C   0  0  0  0  0  0  0  0  0  0  0  0
   -5.0436    4.9932    8.3375 C   0  0  0  0  0  0  0  0  0  0  0  0
   -2.7535    5.0976    7.5670 C   0  0  0  0  0  0  0  0  0  0  0  0
   -0.3210   -0.5004    7.6772 C   0  0  0  0  0  0  0  0  0  0  0  0
   -0.7571   -0.1706    6.2511 C   0  0  0  0  0  0  0  0  0  0  0  0
    1.2175   -0.2066    7.6108 C   0  0  0  0  0  0  0  0  0  0  0  0
   -0.3840   -1.9160    8.0552 C   0  0  0  0  0  0  0  0  0  0  0  0
   -0.9076   -2.3661    9.3389 C   0  0  0  0  0  0  0  0  0  0  0  0
   -1.6182   -3.6656    9.4456 C   0  0  0  0  0  0  0  0  0  0  0  0
   -1.1422   -4.5569   10.5263 C   0  0  0  0  0  0  0  0  0  0  0  0
   -1.3015   -6.0027   10.3476 C   0  0  0  0  0  0  0  0  0  0  0  0
   -0.7738   -6.9511   11.3386 C   0  0  0  0  0  0  0  0  0  0  0  0
   -0.4271   -8.7192   10.6524 Br  0  0  0  0  0  0  0  0  0  0  0  0
   -0.6693    2.0645   11.8958 O   0  0  0  0  0  0  0  0  0  0  0  0
  1  2  1  0
  2  3  2  0
  3  4  1  0
  4  5  1  0
  5  6  1  0
  6  7  1  0
  6  8  1  0
  8  9  2  0
  9 10  1  0
 10 11  2  0
 11 12  1  0
 12 13  2  0
 13 14  1  0
 14 15  1  0
 15 16  1  0
 15 17  1  0
 11 18  1  0
 18 19  1  0
 18 20  1  0
 18 21  1  0
 21 22  1  0
 22 23  1  0
 23 24  1  0
 24 25  1  0
 25 26  1  0
 26 27  1  0
  9 28  1  0
  7  2  1  0
 15  5  1  0
 13  8  1  0
M  END
$$$$
