
     RDKit          3D

 28 30  0  0  0  0  0  0  0  0999 V2000
   -6.2275    2.2986   11.9291 C   0  0  0  0  0  0  0  0  0  0  0  0
   -5.0061    3.0106   11.3641 C   0  0  0  0  0  0  0  0  0  0  0  0
   -5.1843    4.1678   10.7631 C   0  0  0  0  0  0  0  0  0  0  0  0
   -4.0750    4.9223   10.1913 C   0  0  0  0  0  0  0  0  0  0  0  0
   -2.9490    3.9939    9.7012 C   0  0  0  0  0  0  0  0  0  0  0  0
   -2.5542    3.0539   10.8012 C   0  0  0  0  0  0  0  0  0  0  0  0
   -3.6950    2.3950   11.5063 C   0  0  0  0  0  0  0  0  0  0  0  0
   -1.6516    2.0028   10.3097 C   0  0  0  0  0  0  0  0  0  0  0  0
   -0.5627    1.5473   11.0570 C   0  0  0  0  0  0  0  0  0  0  0  0
    0.2351    0.5505   10.5334 C   0  0  0  0  0  0  0  0  0  0  0  0
    0.0321   -0.0401    9.3015 C   0  0  0  0  0  0  0  0  0  0  0  0
   -1.0700    0.4521    8.5964 C   0  0  0  0  0  0  0  0  0  0  0  0
   -1.8987    1.4483    9.0768 C   0  0  0  0  0  0  0  0  0  0  0  0
   -2.9957    1.9490    8.3899 O   0  0  0  0  0  0  0  0  0  0  0  0
   -3.2671    3.3634    8.3999 C   0  0  0  0  0  0  0  0  0  0  0  0
   -4.6640    3.5819    7.8915 C   0  0  0  0  0  0  0  0  0  0  0  0
   -2.3429    3.9237    7.3040 C   0  0  0  0  0  0  0  0  0  0  0  0
    0.8627   -1.0756    8.7173 C   0  0  0  0  0  0  0  0  0  0  0  0
    1.9491   -0.3557    7.9210 C   0  0  0  0  0  0  0  0  0  0  0  0
    1.6975   -1.7156    9.8797 C   0  0  0  0  0  0  0  0  0  0  0  0
    0.2468   -2.2327    8.0598 C   0  0  0  0  0  0  0  0  0  0  0  0
   -0.7392   -3.0807    8.7183 C   0  0  0  0  0  0  0  0  0  0  0  0
   -0.8582   -4.5154    8.3542 C   0  0  0  0  0  0  0  0  0  0  0  0
   -2.0274   -5.2162    8.9290 C   0  0  0  0  0  0  0  0  0  0  0  0
   -2.7423   -6.1740    8.0810 C   0  0  0  0  0  0  0  0  0  0  0  0
   -3.1190   -7.5009    8.5882 C   0  0  0  0  0  0  0  0  0  0  0  0
   -4.3154   -7.4726   10.0999 Br  0  0  0  0  0  0  0  0  0  0  0  0
   -0.3297    2.1218   12.3022 O   0  0  0  0  0  0  0  0  0  0  0  0
  1  2  1  0
  2  3  2  0
  3  4  1  0
  4  5  1  0
  5  6  1  0
  6  7  1  0
  6  8  1  0
  8  9  2  0
  9 10  1  0
 10 11  2  0
 11 12  1  0
 12 13  2  0
 13 14  1  0
 14 15  1  0
 15 16  1  0
 15 17  1  0
 11 18  1  0
 18 19  1  0
 18 20  1  0
 18 21  1  0
 21 22  1  0
 22 23  1  0
 23 24  1  0
 24 25  1  0
 25 26  1  0
 26 27  1  0
  9 28  1  0
  7  2  1  0
 15  5  1  0
 13  8  1  0
M  END
$$$$
