
     RDKit          3D

 28 30  0  0  0  0  0  0  0  0999 V2000
   -5.0962    0.9522   14.6912 C   0  0  0  0  0  0  0  0  0  0  0  0
   -4.4029    1.7624   13.6045 C   0  0  0  0  0  0  0  0  0  0  0  0
   -5.0071    2.8410   13.1529 C   0  0  0  0  0  0  0  0  0  0  0  0
   -4.4207    3.6792   12.1136 C   0  0  0  0  0  0  0  0  0  0  0  0
   -3.5412    2.8599   11.1517 C   0  0  0  0  0  0  0  0  0  0  0  0
   -2.5436    2.0603   11.9358 C   0  0  0  0  0  0  0  0  0  0  0  0
   -3.1080    1.3229   13.1064 C   0  0  0  0  0  0  0  0  0  0  0  0
   -1.8415    1.0924   11.0807 C   0  0  0  0  0  0  0  0  0  0  0  0
   -0.4763    0.8299   11.2188 C   0  0  0  0  0  0  0  0  0  0  0  0
    0.1117   -0.0994   10.3853 C   0  0  0  0  0  0  0  0  0  0  0  0
   -0.5633   -0.8013    9.4058 C   0  0  0  0  0  0  0  0  0  0  0  0
   -1.9252   -0.5009    9.3107 C   0  0  0  0  0  0  0  0  0  0  0  0
   -2.5605    0.4207   10.1213 C   0  0  0  0  0  0  0  0  0  0  0  0
   -3.9106    0.7316   10.0395 O   0  0  0  0  0  0  0  0  0  0  0  0
   -4.3434    2.0993   10.1668 C   0  0  0  0  0  0  0  0  0  0  0  0
   -5.8295    2.1079   10.3877 C   0  0  0  0  0  0  0  0  0  0  0  0
   -4.1381    2.6835    8.7577 C   0  0  0  0  0  0  0  0  0  0  0  0
    0.0301   -1.7695    8.5037 C   0  0  0  0  0  0  0  0  0  0  0  0
    0.9436   -2.6472    9.3570 C   0  0  0  0  0  0  0  0  0  0  0  0
   -1.0951   -2.7846    8.1023 C   0  0  0  0  0  0  0  0  0  0  0  0
    0.5786   -1.3376    7.2140 C   0  0  0  0  0  0  0  0  0  0  0  0
    0.7483    0.0664    6.8605 C   0  0  0  0  0  0  0  0  0  0  0  0
    0.2404    0.5803    5.5631 C   0  0  0  0  0  0  0  0  0  0  0  0
    0.1327    2.0527    5.4677 C   0  0  0  0  0  0  0  0  0  0  0  0
   -1.1836    2.6624    5.6763 C   0  0  0  0  0  0  0  0  0  0  0  0
   -1.3597    4.1205    5.6251 C   0  0  0  0  0  0  0  0  0  0  0  0
   -1.7569    4.8202    3.8729 Br  0  0  0  0  0  0  0  0  0  0  0  0
    0.2334    1.5206   12.1957 O   0  0  0  0  0  0  0  0  0  0  0  0
  1  2  1  0
  2  3  2  0
  3  4  1  0
  4  5  1  0
  5  6  1  0
  6  7  1  0
  6  8  1  0
  8  9  2  0
  9 10  1  0
 10 11  2  0
 11 12  1  0
 12 13  2  0
 13 14  1  0
 14 15  1  0
 15 16  1  0
 15 17  1  0
 11 18  1  0
 18 19  1  0
 18 20  1  0
 18 21  1  0
 21 22  1  0
 22 23  1  0
 23 24  1  0
 24 25  1  0
 25 26  1  0
 26 27  1  0
  9 28  1  0
  7  2  1  0
 15  5  1  0
 13  8  1  0
M  END
$$$$
