
     RDKit          3D

 28 30  0  0  0  0  0  0  0  0999 V2000
   -7.6841    3.3844   12.9424 C   0  0  0  0  0  0  0  0  0  0  0  0
   -6.2076    3.7516   12.9989 C   0  0  0  0  0  0  0  0  0  0  0  0
   -5.8817    5.0256   12.9445 C   0  0  0  0  0  0  0  0  0  0  0  0
   -4.4945    5.4727   12.9917 C   0  0  0  0  0  0  0  0  0  0  0  0
   -3.5409    4.4328   12.3758 C   0  0  0  0  0  0  0  0  0  0  0  0
   -3.7793    3.0927   13.0057 C   0  0  0  0  0  0  0  0  0  0  0  0
   -5.2152    2.6929   13.1110 C   0  0  0  0  0  0  0  0  0  0  0  0
   -3.0595    2.0289   12.2908 C   0  0  0  0  0  0  0  0  0  0  0  0
   -2.4284    0.9774   12.9602 C   0  0  0  0  0  0  0  0  0  0  0  0
   -1.7799    0.0098   12.2205 C   0  0  0  0  0  0  0  0  0  0  0  0
   -1.7071    0.0053   10.8412 C   0  0  0  0  0  0  0  0  0  0  0  0
   -2.3548    1.0784   10.2224 C   0  0  0  0  0  0  0  0  0  0  0  0
   -3.0176    2.0719   10.9179 C   0  0  0  0  0  0  0  0  0  0  0  0
   -3.6645    3.1441   10.3198 O   0  0  0  0  0  0  0  0  0  0  0  0
   -3.5602    4.4601   10.8956 C   0  0  0  0  0  0  0  0  0  0  0  0
   -4.6096    5.3356   10.2713 C   0  0  0  0  0  0  0  0  0  0  0  0
   -2.2175    4.9905   10.3618 C   0  0  0  0  0  0  0  0  0  0  0  0
   -1.0184   -0.9864   10.0378 C   0  0  0  0  0  0  0  0  0  0  0  0
    0.4672   -0.6388   10.1079 C   0  0  0  0  0  0  0  0  0  0  0  0
   -1.0618   -2.3396   10.8282 C   0  0  0  0  0  0  0  0  0  0  0  0
   -1.5301   -1.3471    8.7116 C   0  0  0  0  0  0  0  0  0  0  0  0
   -0.8085   -1.0485    7.4808 C   0  0  0  0  0  0  0  0  0  0  0  0
   -1.3898   -1.4108    6.1632 C   0  0  0  0  0  0  0  0  0  0  0  0
   -1.0361   -2.7593    5.6682 C   0  0  0  0  0  0  0  0  0  0  0  0
    0.3788   -3.0563    5.4282 C   0  0  0  0  0  0  0  0  0  0  0  0
    0.8465   -3.4982    4.1069 C   0  0  0  0  0  0  0  0  0  0  0  0
    2.4241   -4.6060    4.1430 Br  0  0  0  0  0  0  0  0  0  0  0  0
   -2.4822    0.9525   14.3500 O   0  0  0  0  0  0  0  0  0  0  0  0
  1  2  1  0
  2  3  2  0
  3  4  1  0
  4  5  1  0
  5  6  1  0
  6  7  1  0
  6  8  1  0
  8  9  2  0
  9 10  1  0
 10 11  2  0
 11 12  1  0
 12 13  2  0
 13 14  1  0
 14 15  1  0
 15 16  1  0
 15 17  1  0
 11 18  1  0
 18 19  1  0
 18 20  1  0
 18 21  1  0
 21 22  1  0
 22 23  1  0
 23 24  1  0
 24 25  1  0
 25 26  1  0
 26 27  1  0
  9 28  1  0
  7  2  1  0
 15  5  1  0
 13  8  1  0
M  END
$$$$
