
     RDKit          3D

 28 30  0  0  0  0  0  0  0  0999 V2000
   -0.6488    2.5920    4.2132 C   0  0  0  0  0  0  0  0  0  0  0  0
    0.2951    1.7639    5.0742 C   0  0  0  0  0  0  0  0  0  0  0  0
    1.3592    1.2408    4.5030 C   0  0  0  0  0  0  0  0  0  0  0  0
    2.3192    0.4335    5.2469 C   0  0  0  0  0  0  0  0  0  0  0  0
    1.6469   -0.3249    6.4057 C   0  0  0  0  0  0  0  0  0  0  0  0
    0.8621    0.6348    7.2500 C   0  0  0  0  0  0  0  0  0  0  0  0
   -0.0066    1.5805    6.4861 C   0  0  0  0  0  0  0  0  0  0  0  0
    0.0205   -0.0737    8.2249 C   0  0  0  0  0  0  0  0  0  0  0  0
   -0.1513    0.3859    9.5330 C   0  0  0  0  0  0  0  0  0  0  0  0
   -0.9647   -0.3279   10.3891 C   0  0  0  0  0  0  0  0  0  0  0  0
   -1.6331   -1.4853   10.0410 C   0  0  0  0  0  0  0  0  0  0  0  0
   -1.4269   -1.9002    8.7221 C   0  0  0  0  0  0  0  0  0  0  0  0
   -0.6227   -1.2209    7.8267 C   0  0  0  0  0  0  0  0  0  0  0  0
   -0.4063   -1.6193    6.5150 O   0  0  0  0  0  0  0  0  0  0  0  0
    0.9112   -1.5229    5.9414 C   0  0  0  0  0  0  0  0  0  0  0  0
    0.7929   -1.6810    4.4519 C   0  0  0  0  0  0  0  0  0  0  0  0
    1.6205   -2.7982    6.4308 C   0  0  0  0  0  0  0  0  0  0  0  0
   -2.4793   -2.2664   10.9226 C   0  0  0  0  0  0  0  0  0  0  0  0
   -3.6166   -2.8066   10.0581 C   0  0  0  0  0  0  0  0  0  0  0  0
   -1.7004   -3.5808   11.2737 C   0  0  0  0  0  0  0  0  0  0  0  0
   -2.8673   -1.7367   12.2339 C   0  0  0  0  0  0  0  0  0  0  0  0
   -4.0918   -0.9745   12.4448 C   0  0  0  0  0  0  0  0  0  0  0  0
   -4.4407   -0.4743   13.7988 C   0  0  0  0  0  0  0  0  0  0  0  0
   -4.4118    0.9968   13.9534 C   0  0  0  0  0  0  0  0  0  0  0  0
   -5.0571    1.5785   15.1336 C   0  0  0  0  0  0  0  0  0  0  0  0
   -5.1426    3.0350   15.3095 C   0  0  0  0  0  0  0  0  0  0  0  0
   -6.2628    3.6027   16.7726 Br  0  0  0  0  0  0  0  0  0  0  0  0
    0.5087    1.5489    9.9164 O   0  0  0  0  0  0  0  0  0  0  0  0
  1  2  1  0
  2  3  2  0
  3  4  1  0
  4  5  1  0
  5  6  1  0
  6  7  1  0
  6  8  1  0
  8  9  2  0
  9 10  1  0
 10 11  2  0
 11 12  1  0
 12 13  2  0
 13 14  1  0
 14 15  1  0
 15 16  1  0
 15 17  1  0
 11 18  1  0
 18 19  1  0
 18 20  1  0
 18 21  1  0
 21 22  1  0
 22 23  1  0
 23 24  1  0
 24 25  1  0
 25 26  1  0
 26 27  1  0
  9 28  1  0
  7  2  1  0
 15  5  1  0
 13  8  1  0
M  END
$$$$
