
     RDKit          3D

 28 30  0  0  0  0  0  0  0  0999 V2000
   -6.4239    2.1744   14.1382 C   0  0  0  0  0  0  0  0  0  0  0  0
   -5.4641    2.8456   13.1654 C   0  0  0  0  0  0  0  0  0  0  0  0
   -5.8542    3.9544   12.5733 C   0  0  0  0  0  0  0  0  0  0  0  0
   -5.0040    4.6672   11.6269 C   0  0  0  0  0  0  0  0  0  0  0  0
   -4.0678    3.7079   10.8697 C   0  0  0  0  0  0  0  0  0  0  0  0
   -3.3197    2.8534   11.8493 C   0  0  0  0  0  0  0  0  0  0  0  0
   -4.1600    2.2458   12.9252 C   0  0  0  0  0  0  0  0  0  0  0  0
   -2.5926    1.7711   11.1705 C   0  0  0  0  0  0  0  0  0  0  0  0
   -1.3112    1.3754   11.5619 C   0  0  0  0  0  0  0  0  0  0  0  0
   -0.6950    0.3445   10.8825 C   0  0  0  0  0  0  0  0  0  0  0  0
   -1.2629   -0.3367    9.8236 C   0  0  0  0  0  0  0  0  0  0  0  0
   -2.5443    0.0987    9.4738 C   0  0  0  0  0  0  0  0  0  0  0  0
   -3.2036    1.1257   10.1224 C   0  0  0  0  0  0  0  0  0  0  0  0
   -4.4746    1.5709    9.7875 O   0  0  0  0  0  0  0  0  0  0  0  0
   -4.7658    2.9814    9.7847 C   0  0  0  0  0  0  0  0  0  0  0  0
   -6.2571    3.1577    9.7338 C   0  0  0  0  0  0  0  0  0  0  0  0
   -4.2523    3.4610    8.4154 C   0  0  0  0  0  0  0  0  0  0  0  0
   -0.6339   -1.4106    9.0791 C   0  0  0  0  0  0  0  0  0  0  0  0
    0.7623   -1.5841    9.6735 C   0  0  0  0  0  0  0  0  0  0  0  0
   -1.3277   -2.7479    9.5123 C   0  0  0  0  0  0  0  0  0  0  0  0
   -0.7152   -1.4404    7.6151 C   0  0  0  0  0  0  0  0  0  0  0  0
    0.4467   -1.2426    6.7574 C   0  0  0  0  0  0  0  0  0  0  0  0
    0.3013   -1.2657    5.2797 C   0  0  0  0  0  0  0  0  0  0  0  0
    0.6478   -2.5503    4.6328 C   0  0  0  0  0  0  0  0  0  0  0  0
    1.4996   -2.5141    3.4408 C   0  0  0  0  0  0  0  0  0  0  0  0
    1.9370   -3.7541    2.7844 C   0  0  0  0  0  0  0  0  0  0  0  0
    2.0179   -3.6585    0.8604 Br  0  0  0  0  0  0  0  0  0  0  0  0
   -0.7101    2.0417   12.6249 O   0  0  0  0  0  0  0  0  0  0  0  0
  1  2  1  0
  2  3  2  0
  3  4  1  0
  4  5  1  0
  5  6  1  0
  6  7  1  0
  6  8  1  0
  8  9  2  0
  9 10  1  0
 10 11  2  0
 11 12  1  0
 12 13  2  0
 13 14  1  0
 14 15  1  0
 15 16  1  0
 15 17  1  0
 11 18  1  0
 18 19  1  0
 18 20  1  0
 18 21  1  0
 21 22  1  0
 22 23  1  0
 23 24  1  0
 24 25  1  0
 25 26  1  0
 26 27  1  0
  9 28  1  0
  7  2  1  0
 15  5  1  0
 13  8  1  0
M  END
$$$$
