
     RDKit          3D

 28 30  0  0  0  0  0  0  0  0999 V2000
   -6.2133    1.5717   13.3353 C   0  0  0  0  0  0  0  0  0  0  0  0
   -5.2763    2.5066   12.5829 C   0  0  0  0  0  0  0  0  0  0  0  0
   -5.7302    3.6913   12.2326 C   0  0  0  0  0  0  0  0  0  0  0  0
   -4.9064    4.6533   11.5098 C   0  0  0  0  0  0  0  0  0  0  0  0
   -3.8759    3.9530   10.6055 C   0  0  0  0  0  0  0  0  0  0  0  0
   -3.0971    2.9527   11.4071 C   0  0  0  0  0  0  0  0  0  0  0  0
   -3.9233    2.0645   12.2797 C   0  0  0  0  0  0  0  0  0  0  0  0
   -2.2682    2.1012   10.5418 C   0  0  0  0  0  0  0  0  0  0  0  0
   -0.9738    1.7144   10.8977 C   0  0  0  0  0  0  0  0  0  0  0  0
   -0.2593    0.9058   10.0378 C   0  0  0  0  0  0  0  0  0  0  0  0
   -0.7390    0.4428    8.8282 C   0  0  0  0  0  0  0  0  0  0  0  0
   -2.0378    0.8588    8.5215 C   0  0  0  0  0  0  0  0  0  0  0  0
   -2.7940    1.6678    9.3484 C   0  0  0  0  0  0  0  0  0  0  0  0
   -4.0837    2.0907    9.0589 O   0  0  0  0  0  0  0  0  0  0  0  0
   -4.4811    3.4432    9.3541 C   0  0  0  0  0  0  0  0  0  0  0  0
   -5.9790    3.5263    9.2710 C   0  0  0  0  0  0  0  0  0  0  0  0
   -3.9614    4.2509    8.1514 C   0  0  0  0  0  0  0  0  0  0  0  0
   -0.0063   -0.3923    7.8960 C   0  0  0  0  0  0  0  0  0  0  0  0
   -0.9405   -0.6358    6.7125 C   0  0  0  0  0  0  0  0  0  0  0  0
    1.1033    0.5010    7.2415 C   0  0  0  0  0  0  0  0  0  0  0  0
    0.7351   -1.5621    8.3782 C   0  0  0  0  0  0  0  0  0  0  0  0
    0.0841   -2.6991    9.0171 C   0  0  0  0  0  0  0  0  0  0  0  0
   -0.4276   -3.8279    8.1992 C   0  0  0  0  0  0  0  0  0  0  0  0
    0.1259   -5.1562    8.5428 C   0  0  0  0  0  0  0  0  0  0  0  0
   -0.2050   -5.7228    9.8532 C   0  0  0  0  0  0  0  0  0  0  0  0
   -1.0921   -6.8883    9.9725 C   0  0  0  0  0  0  0  0  0  0  0  0
   -2.4610   -6.7208   11.3199 Br  0  0  0  0  0  0  0  0  0  0  0  0
   -0.4600    2.1642   12.1097 O   0  0  0  0  0  0  0  0  0  0  0  0
  1  2  1  0
  2  3  2  0
  3  4  1  0
  4  5  1  0
  5  6  1  0
  6  7  1  0
  6  8  1  0
  8  9  2  0
  9 10  1  0
 10 11  2  0
 11 12  1  0
 12 13  2  0
 13 14  1  0
 14 15  1  0
 15 16  1  0
 15 17  1  0
 11 18  1  0
 18 19  1  0
 18 20  1  0
 18 21  1  0
 21 22  1  0
 22 23  1  0
 23 24  1  0
 24 25  1  0
 25 26  1  0
 26 27  1  0
  9 28  1  0
  7  2  1  0
 15  5  1  0
 13  8  1  0
M  END
$$$$
