
     RDKit          3D

 28 30  0  0  0  0  0  0  0  0999 V2000
   -6.5594    1.8805   12.2290 C   0  0  0  0  0  0  0  0  0  0  0  0
   -5.3789    2.7010   11.7276 C   0  0  0  0  0  0  0  0  0  0  0  0
   -5.5867    3.9630   11.4170 C   0  0  0  0  0  0  0  0  0  0  0  0
   -4.5176    4.8263   10.9286 C   0  0  0  0  0  0  0  0  0  0  0  0
   -3.4580    4.0308   10.1447 C   0  0  0  0  0  0  0  0  0  0  0  0
   -2.9860    2.8696   10.9683 C   0  0  0  0  0  0  0  0  0  0  0  0
   -4.0728    2.0697   11.6102 C   0  0  0  0  0  0  0  0  0  0  0  0
   -2.1515    1.9547   10.1762 C   0  0  0  0  0  0  0  0  0  0  0  0
   -1.0099    1.3446   10.7019 C   0  0  0  0  0  0  0  0  0  0  0  0
   -0.2816    0.4898    9.9002 C   0  0  0  0  0  0  0  0  0  0  0  0
   -0.6043    0.1883    8.5915 C   0  0  0  0  0  0  0  0  0  0  0  0
   -1.7546    0.8247    8.1161 C   0  0  0  0  0  0  0  0  0  0  0  0
   -2.5177    1.6885    8.8787 C   0  0  0  0  0  0  0  0  0  0  0  0
   -3.6610    2.3292    8.4223 O   0  0  0  0  0  0  0  0  0  0  0  0
   -3.9024    3.7057    8.7703 C   0  0  0  0  0  0  0  0  0  0  0  0
   -5.3342    4.0315    8.4519 C   0  0  0  0  0  0  0  0  0  0  0  0
   -3.0679    4.4964    7.7469 C   0  0  0  0  0  0  0  0  0  0  0  0
    0.1506   -0.6908    7.7194 C   0  0  0  0  0  0  0  0  0  0  0  0
   -0.1900   -0.2732    6.2903 C   0  0  0  0  0  0  0  0  0  0  0  0
    1.6566   -0.2672    7.8197 C   0  0  0  0  0  0  0  0  0  0  0  0
    0.1825   -2.1346    7.9746 C   0  0  0  0  0  0  0  0  0  0  0  0
   -0.7820   -2.8033    8.8391 C   0  0  0  0  0  0  0  0  0  0  0  0
   -0.5158   -4.1757    9.3399 C   0  0  0  0  0  0  0  0  0  0  0  0
   -1.5548   -5.1774    9.0146 C   0  0  0  0  0  0  0  0  0  0  0  0
   -1.2082   -6.5957    9.1405 C   0  0  0  0  0  0  0  0  0  0  0  0
   -2.0563   -7.5174    9.9092 C   0  0  0  0  0  0  0  0  0  0  0  0
   -1.0979   -8.9240   10.8150 Br  0  0  0  0  0  0  0  0  0  0  0  0
   -0.6563    1.6276   12.0172 O   0  0  0  0  0  0  0  0  0  0  0  0
  1  2  1  0
  2  3  2  0
  3  4  1  0
  4  5  1  0
  5  6  1  0
  6  7  1  0
  6  8  1  0
  8  9  2  0
  9 10  1  0
 10 11  2  0
 11 12  1  0
 12 13  2  0
 13 14  1  0
 14 15  1  0
 15 16  1  0
 15 17  1  0
 11 18  1  0
 18 19  1  0
 18 20  1  0
 18 21  1  0
 21 22  1  0
 22 23  1  0
 23 24  1  0
 24 25  1  0
 25 26  1  0
 26 27  1  0
  9 28  1  0
  7  2  1  0
 15  5  1  0
 13  8  1  0
M  END
$$$$
