
     RDKit          3D

 28 30  0  0  0  0  0  0  0  0999 V2000
   -6.2118    1.8083   13.9459 C   0  0  0  0  0  0  0  0  0  0  0  0
   -5.2784    2.4352   12.9194 C   0  0  0  0  0  0  0  0  0  0  0  0
   -5.6196    3.5933   12.3951 C   0  0  0  0  0  0  0  0  0  0  0  0
   -4.7895    4.2695   11.4049 C   0  0  0  0  0  0  0  0  0  0  0  0
   -3.9991    3.2663   10.5453 C   0  0  0  0  0  0  0  0  0  0  0  0
   -3.2507    2.3183   11.4345 C   0  0  0  0  0  0  0  0  0  0  0  0
   -4.0520    1.7412   12.5559 C   0  0  0  0  0  0  0  0  0  0  0  0
   -2.6721    1.2066   10.6662 C   0  0  0  0  0  0  0  0  0  0  0  0
   -1.4016    0.6941   10.9400 C   0  0  0  0  0  0  0  0  0  0  0  0
   -0.9290   -0.3573   10.1816 C   0  0  0  0  0  0  0  0  0  0  0  0
   -1.6332   -0.9505    9.1520 C   0  0  0  0  0  0  0  0  0  0  0  0
   -2.8971   -0.4001    8.9208 C   0  0  0  0  0  0  0  0  0  0  0  0
   -3.4152    0.6521    9.6519 C   0  0  0  0  0  0  0  0  0  0  0  0
   -4.6669    1.2109    9.4350 O   0  0  0  0  0  0  0  0  0  0  0  0
   -4.8384    2.6395    9.4989 C   0  0  0  0  0  0  0  0  0  0  0  0
   -6.3090    2.9378    9.5746 C   0  0  0  0  0  0  0  0  0  0  0  0
   -4.3954    3.1265    8.1077 C   0  0  0  0  0  0  0  0  0  0  0  0
   -1.1565   -2.0435    8.3264 C   0  0  0  0  0  0  0  0  0  0  0  0
   -1.9806   -3.2682    8.7184 C   0  0  0  0  0  0  0  0  0  0  0  0
   -1.6612   -1.7799    6.8658 C   0  0  0  0  0  0  0  0  0  0  0  0
    0.2829   -2.2673    8.1570 C   0  0  0  0  0  0  0  0  0  0  0  0
    1.1628   -1.2923    7.5246 C   0  0  0  0  0  0  0  0  0  0  0  0
    2.6268   -1.5328    7.4609 C   0  0  0  0  0  0  0  0  0  0  0  0
    3.4446   -0.6785    8.3498 C   0  0  0  0  0  0  0  0  0  0  0  0
    3.9530   -1.2649    9.5929 C   0  0  0  0  0  0  0  0  0  0  0  0
    5.1248   -0.6973   10.2744 C   0  0  0  0  0  0  0  0  0  0  0  0
    4.8864   -0.3951   12.1637 Br  0  0  0  0  0  0  0  0  0  0  0  0
   -0.6655    1.2696   11.9705 O   0  0  0  0  0  0  0  0  0  0  0  0
  1  2  1  0
  2  3  2  0
  3  4  1  0
  4  5  1  0
  5  6  1  0
  6  7  1  0
  6  8  1  0
  8  9  2  0
  9 10  1  0
 10 11  2  0
 11 12  1  0
 12 13  2  0
 13 14  1  0
 14 15  1  0
 15 16  1  0
 15 17  1  0
 11 18  1  0
 18 19  1  0
 18 20  1  0
 18 21  1  0
 21 22  1  0
 22 23  1  0
 23 24  1  0
 24 25  1  0
 25 26  1  0
 26 27  1  0
  9 28  1  0
  7  2  1  0
 15  5  1  0
 13  8  1  0
M  END
$$$$
