
     RDKit          3D

 28 30  0  0  0  0  0  0  0  0999 V2000
   -6.3598    2.2163   11.5273 C   0  0  0  0  0  0  0  0  0  0  0  0
   -5.1228    2.9615   11.0449 C   0  0  0  0  0  0  0  0  0  0  0  0
   -5.2715    4.1933   10.6057 C   0  0  0  0  0  0  0  0  0  0  0  0
   -4.1454    4.9847   10.1239 C   0  0  0  0  0  0  0  0  0  0  0  0
   -3.0533    4.0976    9.4990 C   0  0  0  0  0  0  0  0  0  0  0  0
   -2.6765    3.0082   10.4586 C   0  0  0  0  0  0  0  0  0  0  0  0
   -3.8299    2.2946   11.0857 C   0  0  0  0  0  0  0  0  0  0  0  0
   -1.8116    2.0063    9.8192 C   0  0  0  0  0  0  0  0  0  0  0  0
   -0.7297    1.4237   10.4840 C   0  0  0  0  0  0  0  0  0  0  0  0
    0.0318    0.4829    9.8215 C   0  0  0  0  0  0  0  0  0  0  0  0
   -0.2013    0.0680    8.5249 C   0  0  0  0  0  0  0  0  0  0  0  0
   -1.2948    0.6816    7.9070 C   0  0  0  0  0  0  0  0  0  0  0  0
   -2.0878    1.6285    8.5271 C   0  0  0  0  0  0  0  0  0  0  0  0
   -3.1757    2.2481    7.9282 O   0  0  0  0  0  0  0  0  0  0  0  0
   -3.4035    3.6557    8.1300 C   0  0  0  0  0  0  0  0  0  0  0  0
   -4.7980    3.9807    7.6747 C   0  0  0  0  0  0  0  0  0  0  0  0
   -2.4735    4.3301    7.1056 C   0  0  0  0  0  0  0  0  0  0  0  0
    0.5912   -0.9041    7.7967 C   0  0  0  0  0  0  0  0  0  0  0  0
    0.2290   -0.7351    6.3226 C   0  0  0  0  0  0  0  0  0  0  0  0
    2.0765   -0.4029    7.8143 C   0  0  0  0  0  0  0  0  0  0  0  0
    0.6896   -2.2859    8.2779 C   0  0  0  0  0  0  0  0  0  0  0  0
    0.1369   -2.7161    9.5563 C   0  0  0  0  0  0  0  0  0  0  0  0
    0.1203   -4.1557    9.9203 C   0  0  0  0  0  0  0  0  0  0  0  0
   -0.5607   -5.0425    8.9515 C   0  0  0  0  0  0  0  0  0  0  0  0
   -1.5982   -5.9464    9.4557 C   0  0  0  0  0  0  0  0  0  0  0  0
   -1.8756   -7.2271    8.7904 C   0  0  0  0  0  0  0  0  0  0  0  0
   -2.2316   -8.6943    9.9897 Br  0  0  0  0  0  0  0  0  0  0  0  0
   -0.4668    1.8201   11.7912 O   0  0  0  0  0  0  0  0  0  0  0  0
  1  2  1  0
  2  3  2  0
  3  4  1  0
  4  5  1  0
  5  6  1  0
  6  7  1  0
  6  8  1  0
  8  9  2  0
  9 10  1  0
 10 11  2  0
 11 12  1  0
 12 13  2  0
 13 14  1  0
 14 15  1  0
 15 16  1  0
 15 17  1  0
 11 18  1  0
 18 19  1  0
 18 20  1  0
 18 21  1  0
 21 22  1  0
 22 23  1  0
 23 24  1  0
 24 25  1  0
 25 26  1  0
 26 27  1  0
  9 28  1  0
  7  2  1  0
 15  5  1  0
 13  8  1  0
M  END
$$$$
