
     RDKit          3D

 28 30  0  0  0  0  0  0  0  0999 V2000
   -4.3849    6.4741   13.9085 C   0  0  0  0  0  0  0  0  0  0  0  0
   -4.5754    4.9716   13.7526 C   0  0  0  0  0  0  0  0  0  0  0  0
   -4.4615    4.2164   14.8246 C   0  0  0  0  0  0  0  0  0  0  0  0
   -4.6269    2.7685   14.7728 C   0  0  0  0  0  0  0  0  0  0  0  0
   -4.1991    2.1960   13.4092 C   0  0  0  0  0  0  0  0  0  0  0  0
   -4.8979    2.9368   12.3082 C   0  0  0  0  0  0  0  0  0  0  0  0
   -4.8748    4.4253   12.4373 C   0  0  0  0  0  0  0  0  0  0  0  0
   -4.3482    2.5833   10.9915 C   0  0  0  0  0  0  0  0  0  0  0  0
   -5.1598    2.4144    9.8669 C   0  0  0  0  0  0  0  0  0  0  0  0
   -4.5705    2.0917    8.6617 C   0  0  0  0  0  0  0  0  0  0  0  0
   -3.2118    1.9195    8.4829 C   0  0  0  0  0  0  0  0  0  0  0  0
   -2.4468    2.1002    9.6388 C   0  0  0  0  0  0  0  0  0  0  0  0
   -2.9889    2.4237   10.8682 C   0  0  0  0  0  0  0  0  0  0  0  0
   -2.2446    2.6055   12.0254 O   0  0  0  0  0  0  0  0  0  0  0  0
   -2.7279    2.0908   13.2806 C   0  0  0  0  0  0  0  0  0  0  0  0
   -1.9284    2.7152   14.3889 C   0  0  0  0  0  0  0  0  0  0  0  0
   -2.3063    0.6107   13.2588 C   0  0  0  0  0  0  0  0  0  0  0  0
   -2.5655    1.5629    7.2345 C   0  0  0  0  0  0  0  0  0  0  0  0
   -3.4207    0.4637    6.6075 C   0  0  0  0  0  0  0  0  0  0  0  0
   -2.7954    2.7482    6.2345 C   0  0  0  0  0  0  0  0  0  0  0  0
   -1.1151    1.3512    7.1881 C   0  0  0  0  0  0  0  0  0  0  0  0
   -0.4869    0.3963    6.2834 C   0  0  0  0  0  0  0  0  0  0  0  0
   -0.1776   -0.9814    6.7431 C   0  0  0  0  0  0  0  0  0  0  0  0
    1.1761   -1.4705    6.4011 C   0  0  0  0  0  0  0  0  0  0  0  0
    2.1506   -1.6167    7.4859 C   0  0  0  0  0  0  0  0  0  0  0  0
    2.6778   -2.9372    7.8575 C   0  0  0  0  0  0  0  0  0  0  0  0
    4.1846   -2.8908    9.0596 Br  0  0  0  0  0  0  0  0  0  0  0  0
   -6.5333    2.5801   10.0129 O   0  0  0  0  0  0  0  0  0  0  0  0
  1  2  1  0
  2  3  2  0
  3  4  1  0
  4  5  1  0
  5  6  1  0
  6  7  1  0
  6  8  1  0
  8  9  2  0
  9 10  1  0
 10 11  2  0
 11 12  1  0
 12 13  2  0
 13 14  1  0
 14 15  1  0
 15 16  1  0
 15 17  1  0
 11 18  1  0
 18 19  1  0
 18 20  1  0
 18 21  1  0
 21 22  1  0
 22 23  1  0
 23 24  1  0
 24 25  1  0
 25 26  1  0
 26 27  1  0
  9 28  1  0
  7  2  1  0
 15  5  1  0
 13  8  1  0
M  END
$$$$
