
     RDKit          3D

 28 30  0  0  0  0  0  0  0  0999 V2000
   -3.9381    4.2990   11.5227 C   0  0  0  0  0  0  0  0  0  0  0  0
   -2.6008    3.7990   12.0516 C   0  0  0  0  0  0  0  0  0  0  0  0
   -1.7625    4.6806   12.5537 C   0  0  0  0  0  0  0  0  0  0  0  0
   -0.4594    4.2957   13.0834 C   0  0  0  0  0  0  0  0  0  0  0  0
    0.1044    3.0582   12.3619 C   0  0  0  0  0  0  0  0  0  0  0  0
   -0.9155    1.9585   12.3724 C   0  0  0  0  0  0  0  0  0  0  0  0
   -2.2969    2.3772   11.9862 C   0  0  0  0  0  0  0  0  0  0  0  0
   -0.5135    0.8465   11.4991 C   0  0  0  0  0  0  0  0  0  0  0  0
   -0.7169   -0.4895   11.8536 C   0  0  0  0  0  0  0  0  0  0  0  0
   -0.3214   -1.4794   10.9774 C   0  0  0  0  0  0  0  0  0  0  0  0
    0.2724   -1.2415    9.7533 C   0  0  0  0  0  0  0  0  0  0  0  0
    0.4520    0.1108    9.4485 C   0  0  0  0  0  0  0  0  0  0  0  0
    0.0734    1.1386   10.2913 C   0  0  0  0  0  0  0  0  0  0  0  0
    0.2452    2.4856   10.0049 O   0  0  0  0  0  0  0  0  0  0  0  0
    0.6765    3.3919   11.0378 C   0  0  0  0  0  0  0  0  0  0  0  0
    0.4461    4.7981   10.5615 C   0  0  0  0  0  0  0  0  0  0  0  0
    2.2055    3.2174   11.0663 C   0  0  0  0  0  0  0  0  0  0  0  0
    0.7148   -2.2598    8.8202 C   0  0  0  0  0  0  0  0  0  0  0  0
    2.2156   -2.0472    8.6331 C   0  0  0  0  0  0  0  0  0  0  0  0
    0.6843   -3.6321    9.5776 C   0  0  0  0  0  0  0  0  0  0  0  0
   -0.0520   -2.5250    7.5986 C   0  0  0  0  0  0  0  0  0  0  0  0
   -1.4390   -2.9729    7.6205 C   0  0  0  0  0  0  0  0  0  0  0  0
   -2.2711   -2.8985    6.3929 C   0  0  0  0  0  0  0  0  0  0  0  0
   -3.5903   -2.2512    6.5645 C   0  0  0  0  0  0  0  0  0  0  0  0
   -3.9575   -1.1783    5.6362 C   0  0  0  0  0  0  0  0  0  0  0  0
   -5.2863   -0.5529    5.6888 C   0  0  0  0  0  0  0  0  0  0  0  0
   -6.5398   -1.4285    6.8633 Br  0  0  0  0  0  0  0  0  0  0  0  0
   -1.3122   -0.7639   13.0805 O   0  0  0  0  0  0  0  0  0  0  0  0
  1  2  1  0
  2  3  2  0
  3  4  1  0
  4  5  1  0
  5  6  1  0
  6  7  1  0
  6  8  1  0
  8  9  2  0
  9 10  1  0
 10 11  2  0
 11 12  1  0
 12 13  2  0
 13 14  1  0
 14 15  1  0
 15 16  1  0
 15 17  1  0
 11 18  1  0
 18 19  1  0
 18 20  1  0
 18 21  1  0
 21 22  1  0
 22 23  1  0
 23 24  1  0
 24 25  1  0
 25 26  1  0
 26 27  1  0
  9 28  1  0
  7  2  1  0
 15  5  1  0
 13  8  1  0
M  END
$$$$
