
     RDKit          3D

 28 30  0  0  0  0  0  0  0  0999 V2000
   -6.1320    1.9161   11.3828 C   0  0  0  0  0  0  0  0  0  0  0  0
   -4.9173    2.6442   10.8238 C   0  0  0  0  0  0  0  0  0  0  0  0
   -5.0996    3.8267   10.2755 C   0  0  0  0  0  0  0  0  0  0  0  0
   -3.9969    4.5981    9.7138 C   0  0  0  0  0  0  0  0  0  0  0  0
   -2.8869    3.6846    9.1629 C   0  0  0  0  0  0  0  0  0  0  0  0
   -2.4767    2.6969   10.2144 C   0  0  0  0  0  0  0  0  0  0  0  0
   -3.6077    2.0156   10.9139 C   0  0  0  0  0  0  0  0  0  0  0  0
   -1.5910    1.6622    9.6614 C   0  0  0  0  0  0  0  0  0  0  0  0
   -0.4906    1.1694   10.3671 C   0  0  0  0  0  0  0  0  0  0  0  0
    0.2901    0.1909    9.7864 C   0  0  0  0  0  0  0  0  0  0  0  0
    0.0590   -0.3463    8.5351 C   0  0  0  0  0  0  0  0  0  0  0  0
   -1.0535    0.1815    7.8734 C   0  0  0  0  0  0  0  0  0  0  0  0
   -1.8660    1.1614    8.4116 C   0  0  0  0  0  0  0  0  0  0  0  0
   -2.9730    1.6969    7.7683 O   0  0  0  0  0  0  0  0  0  0  0  0
   -3.2347    3.1111    7.8429 C   0  0  0  0  0  0  0  0  0  0  0  0
   -4.6399    3.3589    7.3721 C   0  0  0  0  0  0  0  0  0  0  0  0
   -2.3286    3.7116    6.7533 C   0  0  0  0  0  0  0  0  0  0  0  0
    0.8710   -1.3611    7.8917 C   0  0  0  0  0  0  0  0  0  0  0  0
    1.6343   -0.6543    6.7734 C   0  0  0  0  0  0  0  0  0  0  0  0
    2.0310   -1.7273    8.8806 C   0  0  0  0  0  0  0  0  0  0  0  0
    0.2899   -2.6628    7.5473 C   0  0  0  0  0  0  0  0  0  0  0  0
    0.0118   -3.6899    8.5437 C   0  0  0  0  0  0  0  0  0  0  0  0
   -0.6160   -4.9743    8.1424 C   0  0  0  0  0  0  0  0  0  0  0  0
   -1.9260   -5.2578    8.7687 C   0  0  0  0  0  0  0  0  0  0  0  0
   -1.9452   -5.6413   10.1830 C   0  0  0  0  0  0  0  0  0  0  0  0
   -3.2105   -5.9306   10.8722 C   0  0  0  0  0  0  0  0  0  0  0  0
   -3.4407   -5.0073   12.5491 Br  0  0  0  0  0  0  0  0  0  0  0  0
   -0.2293    1.6898   11.6304 O   0  0  0  0  0  0  0  0  0  0  0  0
  1  2  1  0
  2  3  2  0
  3  4  1  0
  4  5  1  0
  5  6  1  0
  6  7  1  0
  6  8  1  0
  8  9  2  0
  9 10  1  0
 10 11  2  0
 11 12  1  0
 12 13  2  0
 13 14  1  0
 14 15  1  0
 15 16  1  0
 15 17  1  0
 11 18  1  0
 18 19  1  0
 18 20  1  0
 18 21  1  0
 21 22  1  0
 22 23  1  0
 23 24  1  0
 24 25  1  0
 25 26  1  0
 26 27  1  0
  9 28  1  0
  7  2  1  0
 15  5  1  0
 13  8  1  0
M  END
$$$$
