
     RDKit          3D

 28 30  0  0  0  0  0  0  0  0999 V2000
   -6.4801    2.5928   13.5637 C   0  0  0  0  0  0  0  0  0  0  0  0
   -5.2883    3.0607   12.7398 C   0  0  0  0  0  0  0  0  0  0  0  0
   -5.3017    4.2904   12.2707 C   0  0  0  0  0  0  0  0  0  0  0  0
   -4.2057    4.8264   11.4719 C   0  0  0  0  0  0  0  0  0  0  0  0
   -3.5064    3.7248   10.6548 C   0  0  0  0  0  0  0  0  0  0  0  0
   -3.1152    2.5950   11.5602 C   0  0  0  0  0  0  0  0  0  0  0  0
   -4.1844    2.1428   12.5011 C   0  0  0  0  0  0  0  0  0  0  0  0
   -2.6570    1.4276   10.7933 C   0  0  0  0  0  0  0  0  0  0  0  0
   -1.5756    0.6445   11.2045 C   0  0  0  0  0  0  0  0  0  0  0  0
   -1.2093   -0.4421   10.4370 C   0  0  0  0  0  0  0  0  0  0  0  0
   -1.8450   -0.8186    9.2700 C   0  0  0  0  0  0  0  0  0  0  0  0
   -2.9192   -0.0020    8.9050 C   0  0  0  0  0  0  0  0  0  0  0  0
   -3.3250    1.0964    9.6390 C   0  0  0  0  0  0  0  0  0  0  0  0
   -4.3879    1.9179    9.2905 O   0  0  0  0  0  0  0  0  0  0  0  0
   -4.2768    3.3451    9.4488 C   0  0  0  0  0  0  0  0  0  0  0  0
   -5.6503    3.9434    9.3350 C   0  0  0  0  0  0  0  0  0  0  0  0
   -3.5290    3.7992    8.1824 C   0  0  0  0  0  0  0  0  0  0  0  0
   -1.4723   -1.9431    8.4334 C   0  0  0  0  0  0  0  0  0  0  0  0
   -2.6094   -2.9565    8.5455 C   0  0  0  0  0  0  0  0  0  0  0  0
   -1.6096   -1.4810    6.9417 C   0  0  0  0  0  0  0  0  0  0  0  0
   -0.1146   -2.4937    8.4986 C   0  0  0  0  0  0  0  0  0  0  0  0
    1.0333   -1.8339    7.8889 C   0  0  0  0  0  0  0  0  0  0  0  0
    2.4140   -2.2442    8.2501 C   0  0  0  0  0  0  0  0  0  0  0  0
    3.4553   -1.2178    8.0245 C   0  0  0  0  0  0  0  0  0  0  0  0
    4.8393   -1.5522    8.3716 C   0  0  0  0  0  0  0  0  0  0  0  0
    5.5198   -0.8907    9.4936 C   0  0  0  0  0  0  0  0  0  0  0  0
    7.0855   -1.8124   10.1390 Br  0  0  0  0  0  0  0  0  0  0  0  0
   -0.9127    0.9968   12.3757 O   0  0  0  0  0  0  0  0  0  0  0  0
  1  2  1  0
  2  3  2  0
  3  4  1  0
  4  5  1  0
  5  6  1  0
  6  7  1  0
  6  8  1  0
  8  9  2  0
  9 10  1  0
 10 11  2  0
 11 12  1  0
 12 13  2  0
 13 14  1  0
 14 15  1  0
 15 16  1  0
 15 17  1  0
 11 18  1  0
 18 19  1  0
 18 20  1  0
 18 21  1  0
 21 22  1  0
 22 23  1  0
 23 24  1  0
 24 25  1  0
 25 26  1  0
 26 27  1  0
  9 28  1  0
  7  2  1  0
 15  5  1  0
 13  8  1  0
M  END
$$$$
