
     RDKit          3D

 28 30  0  0  0  0  0  0  0  0999 V2000
   -6.5167    1.9876   13.0276 C   0  0  0  0  0  0  0  0  0  0  0  0
   -5.3962    2.8077   12.4031 C   0  0  0  0  0  0  0  0  0  0  0  0
   -5.5612    4.1096   12.3022 C   0  0  0  0  0  0  0  0  0  0  0  0
   -4.5438    4.9761   11.7185 C   0  0  0  0  0  0  0  0  0  0  0  0
   -3.7230    4.2434   10.6417 C   0  0  0  0  0  0  0  0  0  0  0  0
   -3.1917    2.9565   11.1995 C   0  0  0  0  0  0  0  0  0  0  0  0
   -4.1916    2.1324   11.9438 C   0  0  0  0  0  0  0  0  0  0  0  0
   -2.6020    2.1186   10.1455 C   0  0  0  0  0  0  0  0  0  0  0  0
   -1.4310    1.3835   10.3468 C   0  0  0  0  0  0  0  0  0  0  0  0
   -0.9422    0.6117    9.3127 C   0  0  0  0  0  0  0  0  0  0  0  0
   -1.5367    0.5116    8.0700 C   0  0  0  0  0  0  0  0  0  0  0  0
   -2.7041    1.2661    7.9226 C   0  0  0  0  0  0  0  0  0  0  0  0
   -3.2338    2.0540    8.9269 C   0  0  0  0  0  0  0  0  0  0  0  0
   -4.3906    2.8098    8.7972 O   0  0  0  0  0  0  0  0  0  0  0  0
   -4.4510    4.1354    9.3570 C   0  0  0  0  0  0  0  0  0  0  0  0
   -5.8874    4.5754    9.3805 C   0  0  0  0  0  0  0  0  0  0  0  0
   -3.7729    5.0163    8.2925 C   0  0  0  0  0  0  0  0  0  0  0  0
   -1.0375   -0.2758    6.9591 C   0  0  0  0  0  0  0  0  0  0  0  0
   -2.2274   -1.0741    6.4303 C   0  0  0  0  0  0  0  0  0  0  0  0
   -0.7686    0.7109    5.7710 C   0  0  0  0  0  0  0  0  0  0  0  0
    0.2238   -1.0134    7.0848 C   0  0  0  0  0  0  0  0  0  0  0  0
    0.5484   -1.8263    8.2504 C   0  0  0  0  0  0  0  0  0  0  0  0
    1.7979   -1.5790    9.0135 C   0  0  0  0  0  0  0  0  0  0  0  0
    2.7705   -2.6938    9.0080 C   0  0  0  0  0  0  0  0  0  0  0  0
    2.5576   -3.7988    9.9467 C   0  0  0  0  0  0  0  0  0  0  0  0
    3.5584   -4.1250   10.9723 C   0  0  0  0  0  0  0  0  0  0  0  0
    4.5991   -5.7059   10.6044 Br  0  0  0  0  0  0  0  0  0  0  0  0
   -0.8066    1.4628   11.5874 O   0  0  0  0  0  0  0  0  0  0  0  0
  1  2  1  0
  2  3  2  0
  3  4  1  0
  4  5  1  0
  5  6  1  0
  6  7  1  0
  6  8  1  0
  8  9  2  0
  9 10  1  0
 10 11  2  0
 11 12  1  0
 12 13  2  0
 13 14  1  0
 14 15  1  0
 15 16  1  0
 15 17  1  0
 11 18  1  0
 18 19  1  0
 18 20  1  0
 18 21  1  0
 21 22  1  0
 22 23  1  0
 23 24  1  0
 24 25  1  0
 25 26  1  0
 26 27  1  0
  9 28  1  0
  7  2  1  0
 15  5  1  0
 13  8  1  0
M  END
$$$$
