
     RDKit          3D

 28 30  0  0  0  0  0  0  0  0999 V2000
   -5.9455    1.0300   14.7331 C   0  0  0  0  0  0  0  0  0  0  0  0
   -5.4005    2.0710   13.7649 C   0  0  0  0  0  0  0  0  0  0  0  0
   -6.1992    3.0466   13.3874 C   0  0  0  0  0  0  0  0  0  0  0  0
   -5.7659    4.0885   12.4636 C   0  0  0  0  0  0  0  0  0  0  0  0
   -4.7078    3.5668   11.4744 C   0  0  0  0  0  0  0  0  0  0  0  0
   -3.5917    2.9077   12.2291 C   0  0  0  0  0  0  0  0  0  0  0  0
   -4.0283    1.9549   13.2942 C   0  0  0  0  0  0  0  0  0  0  0  0
   -2.6801    2.1945   11.3229 C   0  0  0  0  0  0  0  0  0  0  0  0
   -1.2949    2.1993   11.5051 C   0  0  0  0  0  0  0  0  0  0  0  0
   -0.5033    1.4986   10.6183 C   0  0  0  0  0  0  0  0  0  0  0  0
   -0.9894    0.7801    9.5435 C   0  0  0  0  0  0  0  0  0  0  0  0
   -2.3804    0.8084    9.4079 C   0  0  0  0  0  0  0  0  0  0  0  0
   -3.2160    1.4946   10.2687 C   0  0  0  0  0  0  0  0  0  0  0  0
   -4.5980    1.5341   10.1481 O   0  0  0  0  0  0  0  0  0  0  0  0
   -5.3062    2.7661   10.3822 C   0  0  0  0  0  0  0  0  0  0  0  0
   -6.7685    2.4526   10.5268 C   0  0  0  0  0  0  0  0  0  0  0  0
   -5.1822    3.5219    9.0472 C   0  0  0  0  0  0  0  0  0  0  0  0
   -0.1825    0.0496    8.5851 C   0  0  0  0  0  0  0  0  0  0  0  0
   -0.1027    0.9250    7.3360 C   0  0  0  0  0  0  0  0  0  0  0  0
    1.2998    0.0928    9.0937 C   0  0  0  0  0  0  0  0  0  0  0  0
   -0.4241   -1.3780    8.3526 C   0  0  0  0  0  0  0  0  0  0  0  0
   -0.0961   -2.4030    9.3358 C   0  0  0  0  0  0  0  0  0  0  0  0
   -0.8558   -3.6783    9.3724 C   0  0  0  0  0  0  0  0  0  0  0  0
   -1.1447   -4.2775    8.0509 C   0  0  0  0  0  0  0  0  0  0  0  0
   -0.4726   -5.5320    7.7012 C   0  0  0  0  0  0  0  0  0  0  0  0
   -0.1018   -5.8306    6.3108 C   0  0  0  0  0  0  0  0  0  0  0  0
    1.4999   -4.9482    5.6998 Br  0  0  0  0  0  0  0  0  0  0  0  0
   -0.7724    2.9141   12.5781 O   0  0  0  0  0  0  0  0  0  0  0  0
  1  2  1  0
  2  3  2  0
  3  4  1  0
  4  5  1  0
  5  6  1  0
  6  7  1  0
  6  8  1  0
  8  9  2  0
  9 10  1  0
 10 11  2  0
 11 12  1  0
 12 13  2  0
 13 14  1  0
 14 15  1  0
 15 16  1  0
 15 17  1  0
 11 18  1  0
 18 19  1  0
 18 20  1  0
 18 21  1  0
 21 22  1  0
 22 23  1  0
 23 24  1  0
 24 25  1  0
 25 26  1  0
 26 27  1  0
  9 28  1  0
  7  2  1  0
 15  5  1  0
 13  8  1  0
M  END
$$$$
