
     RDKit          3D

 28 30  0  0  0  0  0  0  0  0999 V2000
   -6.4367    1.7933   12.3598 C   0  0  0  0  0  0  0  0  0  0  0  0
   -5.2640    2.6188   11.8485 C   0  0  0  0  0  0  0  0  0  0  0  0
   -5.5100    3.8241   11.3804 C   0  0  0  0  0  0  0  0  0  0  0  0
   -4.4514    4.6872   10.8694 C   0  0  0  0  0  0  0  0  0  0  0  0
   -3.2985    3.8711   10.2572 C   0  0  0  0  0  0  0  0  0  0  0  0
   -2.8325    2.8384   11.2401 C   0  0  0  0  0  0  0  0  0  0  0  0
   -3.9233    2.0545   11.8945 C   0  0  0  0  0  0  0  0  0  0  0  0
   -1.8973    1.8901   10.6181 C   0  0  0  0  0  0  0  0  0  0  0  0
   -0.7693    1.4093   11.2877 C   0  0  0  0  0  0  0  0  0  0  0  0
    0.0579    0.5133   10.6421 C   0  0  0  0  0  0  0  0  0  0  0  0
   -0.1514    0.0491    9.3581 C   0  0  0  0  0  0  0  0  0  0  0  0
   -1.2930    0.5611    8.7348 C   0  0  0  0  0  0  0  0  0  0  0  0
   -2.1523    1.4596    9.3382 C   0  0  0  0  0  0  0  0  0  0  0  0
   -3.2887    1.9785    8.7337 O   0  0  0  0  0  0  0  0  0  0  0  0
   -3.6229    3.3691    8.9026 C   0  0  0  0  0  0  0  0  0  0  0  0
   -5.0413    3.5744    8.4515 C   0  0  0  0  0  0  0  0  0  0  0  0
   -2.7545    4.0868    7.8539 C   0  0  0  0  0  0  0  0  0  0  0  0
    0.7087   -0.8774    8.6474 C   0  0  0  0  0  0  0  0  0  0  0  0
    0.6157   -0.5017    7.1699 C   0  0  0  0  0  0  0  0  0  0  0  0
    2.1904   -0.4863    8.9780 C   0  0  0  0  0  0  0  0  0  0  0  0
    0.6571   -2.3118    8.9481 C   0  0  0  0  0  0  0  0  0  0  0  0
   -0.1872   -3.2420    8.2087 C   0  0  0  0  0  0  0  0  0  0  0  0
   -1.2727   -3.9825    8.9004 C   0  0  0  0  0  0  0  0  0  0  0  0
   -0.9794   -5.4030    9.1918 C   0  0  0  0  0  0  0  0  0  0  0  0
   -1.6716   -6.4257    8.4026 C   0  0  0  0  0  0  0  0  0  0  0  0
   -1.4124   -7.8556    8.6216 C   0  0  0  0  0  0  0  0  0  0  0  0
   -2.1513   -9.0209    7.2750 Br  0  0  0  0  0  0  0  0  0  0  0  0
   -0.5290    1.8576   12.5825 O   0  0  0  0  0  0  0  0  0  0  0  0
  1  2  1  0
  2  3  2  0
  3  4  1  0
  4  5  1  0
  5  6  1  0
  6  7  1  0
  6  8  1  0
  8  9  2  0
  9 10  1  0
 10 11  2  0
 11 12  1  0
 12 13  2  0
 13 14  1  0
 14 15  1  0
 15 16  1  0
 15 17  1  0
 11 18  1  0
 18 19  1  0
 18 20  1  0
 18 21  1  0
 21 22  1  0
 22 23  1  0
 23 24  1  0
 24 25  1  0
 25 26  1  0
 26 27  1  0
  9 28  1  0
  7  2  1  0
 15  5  1  0
 13  8  1  0
M  END
$$$$
