
     RDKit          3D

 28 30  0  0  0  0  0  0  0  0999 V2000
   -5.2015    5.3877    8.7171 C   0  0  0  0  0  0  0  0  0  0  0  0
   -4.8025    4.2568    9.6551 C   0  0  0  0  0  0  0  0  0  0  0  0
   -4.5902    4.5457   10.9215 C   0  0  0  0  0  0  0  0  0  0  0  0
   -4.2045    3.5293   11.8935 C   0  0  0  0  0  0  0  0  0  0  0  0
   -3.3889    2.3987   11.2403 C   0  0  0  0  0  0  0  0  0  0  0  0
   -4.1281    1.8651   10.0493 C   0  0  0  0  0  0  0  0  0  0  0  0
   -4.6713    2.9072    9.1265 C   0  0  0  0  0  0  0  0  0  0  0  0
   -3.2881    0.9505    9.2628 C   0  0  0  0  0  0  0  0  0  0  0  0
   -3.7946   -0.2190    8.6904 C   0  0  0  0  0  0  0  0  0  0  0  0
   -2.9469   -1.0238    7.9571 C   0  0  0  0  0  0  0  0  0  0  0  0
   -1.6093   -0.7529    7.7444 C   0  0  0  0  0  0  0  0  0  0  0  0
   -1.1548    0.4281    8.3382 C   0  0  0  0  0  0  0  0  0  0  0  0
   -1.9632    1.2673    9.0814 C   0  0  0  0  0  0  0  0  0  0  0  0
   -1.5283    2.4422    9.6784 O   0  0  0  0  0  0  0  0  0  0  0  0
   -1.9804    2.7877   11.0014 C   0  0  0  0  0  0  0  0  0  0  0  0
   -1.6490    4.2313   11.2541 C   0  0  0  0  0  0  0  0  0  0  0  0
   -1.0491    1.9879   11.9298 C   0  0  0  0  0  0  0  0  0  0  0  0
   -0.6902   -1.5875    6.9947 C   0  0  0  0  0  0  0  0  0  0  0  0
   -1.5502   -2.5842    6.2204 C   0  0  0  0  0  0  0  0  0  0  0  0
   -0.1040   -0.7111    5.8345 C   0  0  0  0  0  0  0  0  0  0  0  0
    0.5030   -2.1398    7.6441 C   0  0  0  0  0  0  0  0  0  0  0  0
    1.5680   -1.3009    8.1799 C   0  0  0  0  0  0  0  0  0  0  0  0
    2.2999   -1.7090    9.4058 C   0  0  0  0  0  0  0  0  0  0  0  0
    3.6364   -1.0972    9.5744 C   0  0  0  0  0  0  0  0  0  0  0  0
    4.2719   -1.1821   10.8921 C   0  0  0  0  0  0  0  0  0  0  0  0
    4.3211   -0.0166   11.7859 C   0  0  0  0  0  0  0  0  0  0  0  0
    5.5700   -0.1767   13.2461 Br  0  0  0  0  0  0  0  0  0  0  0  0
   -5.1381   -0.5217    8.8861 O   0  0  0  0  0  0  0  0  0  0  0  0
  1  2  1  0
  2  3  2  0
  3  4  1  0
  4  5  1  0
  5  6  1  0
  6  7  1  0
  6  8  1  0
  8  9  2  0
  9 10  1  0
 10 11  2  0
 11 12  1  0
 12 13  2  0
 13 14  1  0
 14 15  1  0
 15 16  1  0
 15 17  1  0
 11 18  1  0
 18 19  1  0
 18 20  1  0
 18 21  1  0
 21 22  1  0
 22 23  1  0
 23 24  1  0
 24 25  1  0
 25 26  1  0
 26 27  1  0
  9 28  1  0
  7  2  1  0
 15  5  1  0
 13  8  1  0
M  END
$$$$
