
     RDKit          3D

 28 30  0  0  0  0  0  0  0  0999 V2000
   -6.9900    1.7779   12.5749 C   0  0  0  0  0  0  0  0  0  0  0  0
   -5.8229    2.4744   11.8889 C   0  0  0  0  0  0  0  0  0  0  0  0
   -6.0864    3.4846   11.0874 C   0  0  0  0  0  0  0  0  0  0  0  0
   -5.0344    4.2122   10.3870 C   0  0  0  0  0  0  0  0  0  0  0  0
   -3.8294    3.3069   10.0733 C   0  0  0  0  0  0  0  0  0  0  0  0
   -3.3749    2.6182   11.3257 C   0  0  0  0  0  0  0  0  0  0  0  0
   -4.4681    2.0058   12.1398 C   0  0  0  0  0  0  0  0  0  0  0  0
   -2.3825    1.5739   11.0330 C   0  0  0  0  0  0  0  0  0  0  0  0
   -1.2708    1.3535   11.8500 C   0  0  0  0  0  0  0  0  0  0  0  0
   -0.3868    0.3479   11.5160 C   0  0  0  0  0  0  0  0  0  0  0  0
   -0.5231   -0.4711   10.4123 C   0  0  0  0  0  0  0  0  0  0  0  0
   -1.6514   -0.2082    9.6302 C   0  0  0  0  0  0  0  0  0  0  0  0
   -2.5657    0.7864    9.9219 C   0  0  0  0  0  0  0  0  0  0  0  0
   -3.6899    1.0614    9.1561 O   0  0  0  0  0  0  0  0  0  0  0  0
   -4.0761    2.4266    8.9087 C   0  0  0  0  0  0  0  0  0  0  0  0
   -5.4787    2.4326    8.3700 C   0  0  0  0  0  0  0  0  0  0  0  0
   -3.1851    2.8535    7.7285 C   0  0  0  0  0  0  0  0  0  0  0  0
    0.3976   -1.5229   10.0258 C   0  0  0  0  0  0  0  0  0  0  0  0
    1.6903   -0.8276    9.6035 C   0  0  0  0  0  0  0  0  0  0  0  0
    0.8484   -2.2541   11.3372 C   0  0  0  0  0  0  0  0  0  0  0  0
   -0.0532   -2.6176    9.1602 C   0  0  0  0  0  0  0  0  0  0  0  0
   -0.0141   -2.5387    7.7052 C   0  0  0  0  0  0  0  0  0  0  0  0
   -0.6287   -3.6085    6.8788 C   0  0  0  0  0  0  0  0  0  0  0  0
   -1.1906   -3.1609    5.5855 C   0  0  0  0  0  0  0  0  0  0  0  0
   -0.2561   -2.8129    4.5116 C   0  0  0  0  0  0  0  0  0  0  0  0
   -0.6739   -2.8481    3.1030 C   0  0  0  0  0  0  0  0  0  0  0  0
   -0.3533   -1.2150    2.1295 Br  0  0  0  0  0  0  0  0  0  0  0  0
   -1.1035    2.1618   12.9697 O   0  0  0  0  0  0  0  0  0  0  0  0
  1  2  1  0
  2  3  2  0
  3  4  1  0
  4  5  1  0
  5  6  1  0
  6  7  1  0
  6  8  1  0
  8  9  2  0
  9 10  1  0
 10 11  2  0
 11 12  1  0
 12 13  2  0
 13 14  1  0
 14 15  1  0
 15 16  1  0
 15 17  1  0
 11 18  1  0
 18 19  1  0
 18 20  1  0
 18 21  1  0
 21 22  1  0
 22 23  1  0
 23 24  1  0
 24 25  1  0
 25 26  1  0
 26 27  1  0
  9 28  1  0
  7  2  1  0
 15  5  1  0
 13  8  1  0
M  END
$$$$
