
     RDKit          3D

 39 42  0  0  0  0  0  0  0  0999 V2000
   -0.8720   -5.1220   14.5494 C   0  0  0  0  0  0  0  0  0  0  0  0
   -1.0241   -5.0878   13.0625 C   0  0  0  0  0  0  0  0  0  0  0  0
   -1.9216   -6.1920   12.5615 C   0  0  0  0  0  0  0  0  0  0  0  0
    0.3362   -5.1722   12.3864 C   0  0  0  0  0  0  0  0  0  0  0  0
   -1.6295   -3.8025   12.6439 C   0  0  0  0  0  0  0  0  0  0  0  0
   -2.3737   -3.7271   11.4875 C   0  0  0  0  0  0  0  0  0  0  0  0
   -2.9287   -2.5014   11.1243 C   0  0  0  0  0  0  0  0  0  0  0  0
   -2.7417   -1.3815   11.9006 C   0  0  0  0  0  0  0  0  0  0  0  0
   -1.9948   -1.4782   13.0525 C   0  0  0  0  0  0  0  0  0  0  0  0
   -1.4309   -2.6940   13.4345 C   0  0  0  0  0  0  0  0  0  0  0  0
   -3.4200    0.1505   11.4519 S   0  0  0  0  0  6  0  0  0  0  0  0
   -4.8298   -0.0014   10.9412 O   0  0  0  0  0  0  0  0  0  0  0  0
   -3.4727    1.0258   12.6975 O   0  0  0  0  0  0  0  0  0  0  0  0
   -2.4150    0.9184   10.2829 N   0  0  0  0  0  0  0  0  0  0  0  0
   -1.0885    1.2725   10.5863 C   0  0  0  0  0  0  0  0  0  0  0  0
   -0.1651    1.3308    9.5501 C   0  0  0  0  0  0  0  0  0  0  0  0
    1.1274    1.6952    9.8896 C   0  0  0  0  0  0  0  0  0  0  0  0
    1.4613    1.9719   11.1521 N   0  0  0  0  0  0  0  0  0  0  0  0
    0.5650    1.9172   12.1807 C   0  0  0  0  0  0  0  0  0  0  0  0
   -0.6716    1.5665   11.8292 N   0  0  0  0  0  0  0  0  0  0  0  0
    0.9895    2.2265   13.5391 C   0  0  0  0  0  0  0  0  0  0  0  0
    2.2351    2.6211   13.8034 N   0  0  0  0  0  0  0  0  0  0  0  0
    2.6348    2.9124   15.0583 C   0  0  0  0  0  0  0  0  0  0  0  0
    1.7415    2.8033   16.1038 C   0  0  0  0  0  0  0  0  0  0  0  0
    0.4545    2.3944   15.8229 C   0  0  0  0  0  0  0  0  0  0  0  0
    0.1200    2.1196   14.5525 N   0  0  0  0  0  0  0  0  0  0  0  0
    2.0890    1.7737    8.8722 O   0  0  0  0  0  0  0  0  0  0  0  0
    3.0810    2.7765    8.8677 C   0  0  0  0  0  0  0  0  0  0  0  0
    4.4377    2.1243    8.7480 C   0  0  0  0  0  0  0  0  0  0  0  0
    4.4608    1.3578    7.5817 O   0  0  0  0  0  0  0  0  0  0  0  0
   -0.4360    1.0619    8.2430 O   0  0  0  0  0  0  0  0  0  0  0  0
   -0.6230   -0.1223    7.5883 C   0  0  0  0  0  0  0  0  0  0  0  0
    0.2236   -1.2017    7.9162 C   0  0  0  0  0  0  0  0  0  0  0  0
    0.1440   -2.4296    7.3399 C   0  0  0  0  0  0  0  0  0  0  0  0
   -0.8028   -2.6876    6.3721 C   0  0  0  0  0  0  0  0  0  0  0  0
   -1.6510   -1.6499    6.0253 C   0  0  0  0  0  0  0  0  0  0  0  0
   -1.5533   -0.4081    6.6235 C   0  0  0  0  0  0  0  0  0  0  0  0
   -2.4334    0.5587    6.2159 O   0  0  0  0  0  0  0  0  0  0  0  0
   -2.7729    0.8838    4.9074 C   0  0  0  0  0  0  0  0  0  0  0  0
  1  2  1  0
  2  3  1  0
  2  4  1  0
  2  5  1  0
  5  6  2  0
  6  7  1  0
  7  8  2  0
  8  9  1  0
  9 10  2  0
  8 11  1  0
 11 12  2  0
 11 13  2  0
 11 14  1  0
 14 15  1  0
 15 16  1  0
 16 17  2  0
 17 18  1  0
 18 19  2  0
 19 20  1  0
 19 21  1  0
 21 22  2  0
 22 23  1  0
 23 24  2  0
 24 25  1  0
 25 26  2  0
 17 27  1  0
 27 28  1  0
 28 29  1  0
 29 30  1  0
 16 31  1  0
 31 32  1  0
 32 33  2  0
 33 34  1  0
 34 35  2  0
 35 36  1  0
 36 37  2  0
 37 38  1  0
 38 39  1  0
 10  5  1  0
 20 15  2  0
 26 21  1  0
 37 32  1  0
M  END
$$$$
