
     RDKit          3D

 39 42  0  0  0  0  0  0  0  0999 V2000
   -5.9895    0.2857    6.5537 C   0  0  0  0  0  0  0  0  0  0  0  0
   -4.9911    1.0807    5.7750 C   0  0  0  0  0  0  0  0  0  0  0  0
   -5.5611    2.3952    5.3028 C   0  0  0  0  0  0  0  0  0  0  0  0
   -4.4789    0.2766    4.5894 C   0  0  0  0  0  0  0  0  0  0  0  0
   -3.8156    1.3879    6.6221 C   0  0  0  0  0  0  0  0  0  0  0  0
   -3.9746    1.6536    7.9641 C   0  0  0  0  0  0  0  0  0  0  0  0
   -2.8463    1.9386    8.7309 C   0  0  0  0  0  0  0  0  0  0  0  0
   -1.5923    1.9567    8.1661 C   0  0  0  0  0  0  0  0  0  0  0  0
   -1.4551    1.6882    6.8233 C   0  0  0  0  0  0  0  0  0  0  0  0
   -2.5699    1.4006    6.0380 C   0  0  0  0  0  0  0  0  0  0  0  0
   -0.1832    2.3200    9.1100 S   0  0  0  0  0  6  0  0  0  0  0  0
    0.7482    3.2469    8.3719 O   0  0  0  0  0  0  0  0  0  0  0  0
   -0.6357    3.0342   10.3772 O   0  0  0  0  0  0  0  0  0  0  0  0
    0.6168    0.8618    9.5570 N   0  0  0  0  0  0  0  0  0  0  0  0
    0.0479   -0.0212   10.4919 C   0  0  0  0  0  0  0  0  0  0  0  0
    0.1914   -1.3873   10.2850 C   0  0  0  0  0  0  0  0  0  0  0  0
   -0.3732   -2.2221   11.2353 C   0  0  0  0  0  0  0  0  0  0  0  0
   -1.0234   -1.7303   12.2924 N   0  0  0  0  0  0  0  0  0  0  0  0
   -1.1736   -0.3904   12.5077 C   0  0  0  0  0  0  0  0  0  0  0  0
   -0.6206    0.3921   11.5817 N   0  0  0  0  0  0  0  0  0  0  0  0
   -1.8971    0.0865   13.6782 C   0  0  0  0  0  0  0  0  0  0  0  0
   -2.0801    1.3888   13.8972 N   0  0  0  0  0  0  0  0  0  0  0  0
   -2.7518    1.8381   14.9771 C   0  0  0  0  0  0  0  0  0  0  0  0
   -3.2676    0.9374   15.8859 C   0  0  0  0  0  0  0  0  0  0  0  0
   -3.0744   -0.4082   15.6529 C   0  0  0  0  0  0  0  0  0  0  0  0
   -2.3969   -0.7902   14.5591 N   0  0  0  0  0  0  0  0  0  0  0  0
   -0.2446   -3.6083   11.0684 O   0  0  0  0  0  0  0  0  0  0  0  0
   -0.0822   -4.4741   12.1700 C   0  0  0  0  0  0  0  0  0  0  0  0
   -0.1886   -5.9025   11.6915 C   0  0  0  0  0  0  0  0  0  0  0  0
   -1.5359   -6.2671   11.6775 O   0  0  0  0  0  0  0  0  0  0  0  0
    0.8399   -1.9565    9.2317 O   0  0  0  0  0  0  0  0  0  0  0  0
    2.1471   -1.8945    8.8402 C   0  0  0  0  0  0  0  0  0  0  0  0
    3.1326   -2.3327    9.7492 C   0  0  0  0  0  0  0  0  0  0  0  0
    4.4654   -2.3229    9.4850 C   0  0  0  0  0  0  0  0  0  0  0  0
    4.9343   -1.8673    8.2717 C   0  0  0  0  0  0  0  0  0  0  0  0
    3.9940   -1.4290    7.3551 C   0  0  0  0  0  0  0  0  0  0  0  0
    2.6427   -1.4471    7.6435 C   0  0  0  0  0  0  0  0  0  0  0  0
    1.7859   -0.9925    6.6768 O   0  0  0  0  0  0  0  0  0  0  0  0
    1.7007   -1.4311    5.3601 C   0  0  0  0  0  0  0  0  0  0  0  0
  1  2  1  0
  2  3  1  0
  2  4  1  0
  2  5  1  0
  5  6  2  0
  6  7  1  0
  7  8  2  0
  8  9  1  0
  9 10  2  0
  8 11  1  0
 11 12  2  0
 11 13  2  0
 11 14  1  0
 14 15  1  0
 15 16  1  0
 16 17  2  0
 17 18  1  0
 18 19  2  0
 19 20  1  0
 19 21  1  0
 21 22  2  0
 22 23  1  0
 23 24  2  0
 24 25  1  0
 25 26  2  0
 17 27  1  0
 27 28  1  0
 28 29  1  0
 29 30  1  0
 16 31  1  0
 31 32  1  0
 32 33  2  0
 33 34  1  0
 34 35  2  0
 35 36  1  0
 36 37  2  0
 37 38  1  0
 38 39  1  0
 10  5  1  0
 20 15  2  0
 26 21  1  0
 37 32  1  0
M  END
$$$$
