
     RDKit          3D

 39 42  0  0  0  0  0  0  0  0999 V2000
   -6.1090    2.6944    8.7512 C   0  0  0  0  0  0  0  0  0  0  0  0
   -6.6799    1.3336    8.9909 C   0  0  0  0  0  0  0  0  0  0  0  0
   -7.3815    0.7927    7.7698 C   0  0  0  0  0  0  0  0  0  0  0  0
   -7.6350    1.3583   10.1749 C   0  0  0  0  0  0  0  0  0  0  0  0
   -5.5976    0.3830    9.3356 C   0  0  0  0  0  0  0  0  0  0  0  0
   -5.3024    0.1119   10.6533 C   0  0  0  0  0  0  0  0  0  0  0  0
   -4.2776   -0.7879   10.9409 C   0  0  0  0  0  0  0  0  0  0  0  0
   -3.5682   -1.3988    9.9334 C   0  0  0  0  0  0  0  0  0  0  0  0
   -3.8790   -1.1143    8.6232 C   0  0  0  0  0  0  0  0  0  0  0  0
   -4.9000   -0.2178    8.3131 C   0  0  0  0  0  0  0  0  0  0  0  0
   -2.2847   -2.5124   10.2811 S   0  0  0  0  0  6  0  0  0  0  0  0
   -2.1393   -2.7372   11.7643 O   0  0  0  0  0  0  0  0  0  0  0  0
   -2.6361   -3.8508    9.6443 O   0  0  0  0  0  0  0  0  0  0  0  0
   -0.8118   -1.9456    9.5914 N   0  0  0  0  0  0  0  0  0  0  0  0
   -0.2323   -0.7351   10.0108 C   0  0  0  0  0  0  0  0  0  0  0  0
    0.6983   -0.1236    9.1802 C   0  0  0  0  0  0  0  0  0  0  0  0
    1.2361    1.0729    9.6248 C   0  0  0  0  0  0  0  0  0  0  0  0
    0.8751    1.6034   10.7954 N   0  0  0  0  0  0  0  0  0  0  0  0
   -0.0367    1.0130   11.6226 C   0  0  0  0  0  0  0  0  0  0  0  0
   -0.5413   -0.1353   11.1727 N   0  0  0  0  0  0  0  0  0  0  0  0
   -0.3880    1.6381   12.8902 C   0  0  0  0  0  0  0  0  0  0  0  0
    0.4198    2.5234   13.4741 N   0  0  0  0  0  0  0  0  0  0  0  0
    0.1000    3.1089   14.6464 C   0  0  0  0  0  0  0  0  0  0  0  0
   -1.0905    2.7921   15.2673 C   0  0  0  0  0  0  0  0  0  0  0  0
   -1.9212    1.8754   14.6574 C   0  0  0  0  0  0  0  0  0  0  0  0
   -1.5446    1.3287   13.4910 N   0  0  0  0  0  0  0  0  0  0  0  0
    2.1736    1.7271    8.8129 O   0  0  0  0  0  0  0  0  0  0  0  0
    3.3032    2.3716    9.3591 C   0  0  0  0  0  0  0  0  0  0  0  0
    3.0604    3.8621    9.3699 C   0  0  0  0  0  0  0  0  0  0  0  0
    3.1682    4.3202   10.6841 O   0  0  0  0  0  0  0  0  0  0  0  0
    1.1118   -0.6077    7.9766 O   0  0  0  0  0  0  0  0  0  0  0  0
    2.3220   -1.0936    7.5701 C   0  0  0  0  0  0  0  0  0  0  0  0
    3.1421   -1.7189    8.5323 C   0  0  0  0  0  0  0  0  0  0  0  0
    4.3660   -2.2424    8.2599 C   0  0  0  0  0  0  0  0  0  0  0  0
    4.8828   -2.1848    6.9835 C   0  0  0  0  0  0  0  0  0  0  0  0
    4.1042   -1.5772    6.0134 C   0  0  0  0  0  0  0  0  0  0  0  0
    2.8617   -1.0507    6.3112 C   0  0  0  0  0  0  0  0  0  0  0  0
    2.1632   -0.4668    5.2883 O   0  0  0  0  0  0  0  0  0  0  0  0
    2.6003    0.5542    4.4518 C   0  0  0  0  0  0  0  0  0  0  0  0
  1  2  1  0
  2  3  1  0
  2  4  1  0
  2  5  1  0
  5  6  2  0
  6  7  1  0
  7  8  2  0
  8  9  1  0
  9 10  2  0
  8 11  1  0
 11 12  2  0
 11 13  2  0
 11 14  1  0
 14 15  1  0
 15 16  1  0
 16 17  2  0
 17 18  1  0
 18 19  2  0
 19 20  1  0
 19 21  1  0
 21 22  2  0
 22 23  1  0
 23 24  2  0
 24 25  1  0
 25 26  2  0
 17 27  1  0
 27 28  1  0
 28 29  1  0
 29 30  1  0
 16 31  1  0
 31 32  1  0
 32 33  2  0
 33 34  1  0
 34 35  2  0
 35 36  1  0
 36 37  2  0
 37 38  1  0
 38 39  1  0
 10  5  1  0
 20 15  2  0
 26 21  1  0
 37 32  1  0
M  END
$$$$
