
     RDKit          3D

 39 42  0  0  0  0  0  0  0  0999 V2000
   -2.0887    1.3944    5.0186 C   0  0  0  0  0  0  0  0  0  0  0  0
   -2.3583   -0.0696    4.8801 C   0  0  0  0  0  0  0  0  0  0  0  0
   -1.4349   -0.7215    3.8809 C   0  0  0  0  0  0  0  0  0  0  0  0
   -3.8082   -0.3086    4.4859 C   0  0  0  0  0  0  0  0  0  0  0  0
   -2.1521   -0.7486    6.1802 C   0  0  0  0  0  0  0  0  0  0  0  0
   -3.0193   -0.5265    7.2270 C   0  0  0  0  0  0  0  0  0  0  0  0
   -2.7948   -1.1824    8.4360 C   0  0  0  0  0  0  0  0  0  0  0  0
   -1.7289   -2.0378    8.5905 C   0  0  0  0  0  0  0  0  0  0  0  0
   -0.8742   -2.2460    7.5320 C   0  0  0  0  0  0  0  0  0  0  0  0
   -1.0801   -1.6005    6.3141 C   0  0  0  0  0  0  0  0  0  0  0  0
   -1.4356   -2.8509   10.0942 S   0  0  0  0  0  6  0  0  0  0  0  0
   -2.6386   -3.6459   10.5325 O   0  0  0  0  0  0  0  0  0  0  0  0
   -0.2874   -3.8299    9.8847 O   0  0  0  0  0  0  0  0  0  0  0  0
   -0.9721   -1.7103   11.2985 N   0  0  0  0  0  0  0  0  0  0  0  0
   -0.0778   -0.6660   11.0036 C   0  0  0  0  0  0  0  0  0  0  0  0
    0.0637    0.3645   11.9243 C   0  0  0  0  0  0  0  0  0  0  0  0
    0.9632    1.3669   11.6011 C   0  0  0  0  0  0  0  0  0  0  0  0
    1.6534    1.3381   10.4588 N   0  0  0  0  0  0  0  0  0  0  0  0
    1.5234    0.3328    9.5441 C   0  0  0  0  0  0  0  0  0  0  0  0
    0.6542   -0.6205    9.8779 N   0  0  0  0  0  0  0  0  0  0  0  0
    2.3010    0.3580    8.3129 C   0  0  0  0  0  0  0  0  0  0  0  0
    2.2326   -0.6377    7.4292 N   0  0  0  0  0  0  0  0  0  0  0  0
    2.9472   -0.6202    6.2853 C   0  0  0  0  0  0  0  0  0  0  0  0
    3.7737    0.4497    6.0111 C   0  0  0  0  0  0  0  0  0  0  0  0
    3.8395    1.4763    6.9299 C   0  0  0  0  0  0  0  0  0  0  0  0
    3.1028    1.3981    8.0491 N   0  0  0  0  0  0  0  0  0  0  0  0
    1.1419    2.4223   12.5069 O   0  0  0  0  0  0  0  0  0  0  0  0
    1.4061    3.7367   12.0685 C   0  0  0  0  0  0  0  0  0  0  0  0
    2.1264    4.4844   13.1651 C   0  0  0  0  0  0  0  0  0  0  0  0
    2.2994    3.6236   14.2502 O   0  0  0  0  0  0  0  0  0  0  0  0
   -0.6069    0.4573   13.1058 O   0  0  0  0  0  0  0  0  0  0  0  0
   -1.8094    1.0265   13.4153 C   0  0  0  0  0  0  0  0  0  0  0  0
   -1.8374    2.4105   13.6862 C   0  0  0  0  0  0  0  0  0  0  0  0
   -2.9650    3.0974   14.0068 C   0  0  0  0  0  0  0  0  0  0  0  0
   -4.1793    2.4503   14.0853 C   0  0  0  0  0  0  0  0  0  0  0  0
   -4.1887    1.0905   13.8256 C   0  0  0  0  0  0  0  0  0  0  0  0
   -3.0304    0.4103   13.5013 C   0  0  0  0  0  0  0  0  0  0  0  0
   -3.1350   -0.9341   13.2624 O   0  0  0  0  0  0  0  0  0  0  0  0
   -4.2275   -1.7501   13.5340 C   0  0  0  0  0  0  0  0  0  0  0  0
  1  2  1  0
  2  3  1  0
  2  4  1  0
  2  5  1  0
  5  6  2  0
  6  7  1  0
  7  8  2  0
  8  9  1  0
  9 10  2  0
  8 11  1  0
 11 12  2  0
 11 13  2  0
 11 14  1  0
 14 15  1  0
 15 16  1  0
 16 17  2  0
 17 18  1  0
 18 19  2  0
 19 20  1  0
 19 21  1  0
 21 22  2  0
 22 23  1  0
 23 24  2  0
 24 25  1  0
 25 26  2  0
 17 27  1  0
 27 28  1  0
 28 29  1  0
 29 30  1  0
 16 31  1  0
 31 32  1  0
 32 33  2  0
 33 34  1  0
 34 35  2  0
 35 36  1  0
 36 37  2  0
 37 38  1  0
 38 39  1  0
 10  5  1  0
 20 15  2  0
 26 21  1  0
 37 32  1  0
M  END
$$$$
