
     RDKit          3D

 39 42  0  0  0  0  0  0  0  0999 V2000
   -6.8072    1.2662    9.2044 C   0  0  0  0  0  0  0  0  0  0  0  0
   -6.1642    1.4045   10.5470 C   0  0  0  0  0  0  0  0  0  0  0  0
   -7.0766    0.9504   11.6593 C   0  0  0  0  0  0  0  0  0  0  0  0
   -5.7282    2.8430   10.7824 C   0  0  0  0  0  0  0  0  0  0  0  0
   -4.9409    0.5720   10.6117 C   0  0  0  0  0  0  0  0  0  0  0  0
   -4.4210    0.0082    9.4677 C   0  0  0  0  0  0  0  0  0  0  0  0
   -3.2685   -0.7693    9.5658 C   0  0  0  0  0  0  0  0  0  0  0  0
   -2.6546   -0.9758   10.7791 C   0  0  0  0  0  0  0  0  0  0  0  0
   -3.1902   -0.4034   11.9103 C   0  0  0  0  0  0  0  0  0  0  0  0
   -4.3418    0.3779   11.8350 C   0  0  0  0  0  0  0  0  0  0  0  0
   -1.2258   -1.9499   10.9129 S   0  0  0  0  0  6  0  0  0  0  0  0
   -0.7951   -2.0989   12.3494 O   0  0  0  0  0  0  0  0  0  0  0  0
   -1.5517   -3.3404   10.3827 O   0  0  0  0  0  0  0  0  0  0  0  0
    0.0359   -1.2776    9.9525 N   0  0  0  0  0  0  0  0  0  0  0  0
    0.6739   -0.0816   10.3260 C   0  0  0  0  0  0  0  0  0  0  0  0
    1.2293    0.7118    9.3300 C   0  0  0  0  0  0  0  0  0  0  0  0
    1.8376    1.8870    9.7391 C   0  0  0  0  0  0  0  0  0  0  0  0
    1.8861    2.2311   11.0280 N   0  0  0  0  0  0  0  0  0  0  0  0
    1.3462    1.4607   12.0175 C   0  0  0  0  0  0  0  0  0  0  0  0
    0.7650    0.3368   11.5996 N   0  0  0  0  0  0  0  0  0  0  0  0
    1.4336    1.8869   13.4074 C   0  0  0  0  0  0  0  0  0  0  0  0
    0.7723    1.2468   14.3718 N   0  0  0  0  0  0  0  0  0  0  0  0
    0.8508    1.6336   15.6617 C   0  0  0  0  0  0  0  0  0  0  0  0
    1.6319    2.7177   16.0048 C   0  0  0  0  0  0  0  0  0  0  0  0
    2.3132    3.3751   15.0018 C   0  0  0  0  0  0  0  0  0  0  0  0
    2.1928    2.9400   13.7379 N   0  0  0  0  0  0  0  0  0  0  0  0
    2.4042    2.7208    8.7645 O   0  0  0  0  0  0  0  0  0  0  0  0
    3.0610    3.9208    9.1087 C   0  0  0  0  0  0  0  0  0  0  0  0
    3.7987    4.4412    7.8981 C   0  0  0  0  0  0  0  0  0  0  0  0
    4.7802    3.5142    7.5435 O   0  0  0  0  0  0  0  0  0  0  0  0
    1.2165    0.4225    7.9995 O   0  0  0  0  0  0  0  0  0  0  0  0
    0.7725   -0.6776    7.3224 C   0  0  0  0  0  0  0  0  0  0  0  0
   -0.6192   -0.8968    7.2542 C   0  0  0  0  0  0  0  0  0  0  0  0
   -1.1900   -1.9507    6.6141 C   0  0  0  0  0  0  0  0  0  0  0  0
   -0.4071   -2.8897    5.9779 C   0  0  0  0  0  0  0  0  0  0  0  0
    0.9642   -2.7058    6.0250 C   0  0  0  0  0  0  0  0  0  0  0  0
    1.5250   -1.6269    6.6817 C   0  0  0  0  0  0  0  0  0  0  0  0
    2.8907   -1.5273    6.6778 O   0  0  0  0  0  0  0  0  0  0  0  0
    3.7246   -1.4940    5.5657 C   0  0  0  0  0  0  0  0  0  0  0  0
  1  2  1  0
  2  3  1  0
  2  4  1  0
  2  5  1  0
  5  6  2  0
  6  7  1  0
  7  8  2  0
  8  9  1  0
  9 10  2  0
  8 11  1  0
 11 12  2  0
 11 13  2  0
 11 14  1  0
 14 15  1  0
 15 16  1  0
 16 17  2  0
 17 18  1  0
 18 19  2  0
 19 20  1  0
 19 21  1  0
 21 22  2  0
 22 23  1  0
 23 24  2  0
 24 25  1  0
 25 26  2  0
 17 27  1  0
 27 28  1  0
 28 29  1  0
 29 30  1  0
 16 31  1  0
 31 32  1  0
 32 33  2  0
 33 34  1  0
 34 35  2  0
 35 36  1  0
 36 37  2  0
 37 38  1  0
 38 39  1  0
 10  5  1  0
 20 15  2  0
 26 21  1  0
 37 32  1  0
M  END
$$$$
