
     RDKit          3D

 39 42  0  0  0  0  0  0  0  0999 V2000
    0.2182    3.1416    4.7651 C   0  0  0  0  0  0  0  0  0  0  0  0
    0.2651    1.7394    4.2484 C   0  0  0  0  0  0  0  0  0  0  0  0
    1.3432    1.5566    3.2092 C   0  0  0  0  0  0  0  0  0  0  0  0
   -1.0863    1.3378    3.6764 C   0  0  0  0  0  0  0  0  0  0  0  0
    0.5557    0.8002    5.3562 C   0  0  0  0  0  0  0  0  0  0  0  0
    1.5786    1.0616    6.2406 C   0  0  0  0  0  0  0  0  0  0  0  0
    1.8238    0.1559    7.2711 C   0  0  0  0  0  0  0  0  0  0  0  0
    1.0632   -0.9816    7.4101 C   0  0  0  0  0  0  0  0  0  0  0  0
    0.0457   -1.2242    6.5157 C   0  0  0  0  0  0  0  0  0  0  0  0
   -0.2169   -0.3318    5.4779 C   0  0  0  0  0  0  0  0  0  0  0  0
    1.3669   -2.1197    8.6832 S   0  0  0  0  0  6  0  0  0  0  0  0
    1.3361   -3.5371    8.1717 O   0  0  0  0  0  0  0  0  0  0  0  0
    2.7651   -1.8563    9.2275 O   0  0  0  0  0  0  0  0  0  0  0  0
    0.2299   -1.8939    9.9570 N   0  0  0  0  0  0  0  0  0  0  0  0
    0.1813   -0.6899   10.6817 C   0  0  0  0  0  0  0  0  0  0  0  0
   -0.8770   -0.4871   11.5585 C   0  0  0  0  0  0  0  0  0  0  0  0
   -0.8809    0.7062   12.2617 C   0  0  0  0  0  0  0  0  0  0  0  0
    0.0859    1.6119   12.0971 N   0  0  0  0  0  0  0  0  0  0  0  0
    1.1309    1.4268   11.2380 C   0  0  0  0  0  0  0  0  0  0  0  0
    1.1140    0.2712   10.5747 N   0  0  0  0  0  0  0  0  0  0  0  0
    2.1545    2.4534   11.0982 C   0  0  0  0  0  0  0  0  0  0  0  0
    2.1330    3.5598   11.8416 N   0  0  0  0  0  0  0  0  0  0  0  0
    3.0791    4.5134   11.7201 C   0  0  0  0  0  0  0  0  0  0  0  0
    4.1004    4.3519   10.8069 C   0  0  0  0  0  0  0  0  0  0  0  0
    4.1162    3.2048   10.0413 C   0  0  0  0  0  0  0  0  0  0  0  0
    3.1451    2.2940   10.2107 N   0  0  0  0  0  0  0  0  0  0  0  0
   -1.9275    0.9475   13.1631 O   0  0  0  0  0  0  0  0  0  0  0  0
   -2.8120    2.0335   12.9962 C   0  0  0  0  0  0  0  0  0  0  0  0
   -3.2656    2.5105   14.3554 C   0  0  0  0  0  0  0  0  0  0  0  0
   -4.6422    2.7370   14.3101 O   0  0  0  0  0  0  0  0  0  0  0  0
   -1.8946   -1.3655   11.7749 O   0  0  0  0  0  0  0  0  0  0  0  0
   -2.0318   -2.3775   12.6822 C   0  0  0  0  0  0  0  0  0  0  0  0
   -1.0065   -3.3431   12.7579 C   0  0  0  0  0  0  0  0  0  0  0  0
   -1.0206   -4.3980   13.6141 C   0  0  0  0  0  0  0  0  0  0  0  0
   -2.0764   -4.5807   14.4810 C   0  0  0  0  0  0  0  0  0  0  0  0
   -3.1011   -3.6511   14.4336 C   0  0  0  0  0  0  0  0  0  0  0  0
   -3.0677   -2.5851   13.5549 C   0  0  0  0  0  0  0  0  0  0  0  0
   -4.1264   -1.7168   13.5770 O   0  0  0  0  0  0  0  0  0  0  0  0
   -5.3302   -1.8467   12.8935 C   0  0  0  0  0  0  0  0  0  0  0  0
  1  2  1  0
  2  3  1  0
  2  4  1  0
  2  5  1  0
  5  6  2  0
  6  7  1  0
  7  8  2  0
  8  9  1  0
  9 10  2  0
  8 11  1  0
 11 12  2  0
 11 13  2  0
 11 14  1  0
 14 15  1  0
 15 16  1  0
 16 17  2  0
 17 18  1  0
 18 19  2  0
 19 20  1  0
 19 21  1  0
 21 22  2  0
 22 23  1  0
 23 24  2  0
 24 25  1  0
 25 26  2  0
 17 27  1  0
 27 28  1  0
 28 29  1  0
 29 30  1  0
 16 31  1  0
 31 32  1  0
 32 33  2  0
 33 34  1  0
 34 35  2  0
 35 36  1  0
 36 37  2  0
 37 38  1  0
 38 39  1  0
 10  5  1  0
 20 15  2  0
 26 21  1  0
 37 32  1  0
M  END
$$$$
