
     RDKit          3D

 39 42  0  0  0  0  0  0  0  0999 V2000
  136.2052  -50.7428  209.0144 C   0  0  0  0  0  0  0  0  0  0  0  0
  137.0895  -49.5404  208.9282 C   0  0  0  0  0  0  0  0  0  0  0  0
  138.5514  -49.9107  208.9710 C   0  0  0  0  0  0  0  0  0  0  0  0
  136.7653  -48.5603  210.0459 C   0  0  0  0  0  0  0  0  0  0  0  0
  136.8520  -48.8264  207.6525 C   0  0  0  0  0  0  0  0  0  0  0  0
  136.6078  -47.4710  207.6481 C   0  0  0  0  0  0  0  0  0  0  0  0
  136.3887  -46.8318  206.4291 C   0  0  0  0  0  0  0  0  0  0  0  0
  136.4137  -47.5339  205.2466 C   0  0  0  0  0  0  0  0  0  0  0  0
  136.6596  -48.8877  205.2730 C   0  0  0  0  0  0  0  0  0  0  0  0
  136.8815  -49.5469  206.4807 C   0  0  0  0  0  0  0  0  0  0  0  0
  136.1324  -46.7492  203.7257 S   0  0  0  0  0  6  0  0  0  0  0  0
  134.8139  -47.1675  203.1275 O   0  0  0  0  0  0  0  0  0  0  0  0
  136.0702  -45.2475  203.9742 O   0  0  0  0  0  0  0  0  0  0  0  0
  137.4352  -47.0740  202.6470 N   0  0  0  0  0  0  0  0  0  0  0  0
  137.9634  -48.3705  202.5163 C   0  0  0  0  0  0  0  0  0  0  0  0
  137.2046  -49.3318  201.8606 C   0  0  0  0  0  0  0  0  0  0  0  0
  137.7663  -50.5924  201.7429 C   0  0  0  0  0  0  0  0  0  0  0  0
  138.9754  -50.8625  202.2400 N   0  0  0  0  0  0  0  0  0  0  0  0
  139.7316  -49.9285  202.8880 C   0  0  0  0  0  0  0  0  0  0  0  0
  139.1714  -48.7234  202.9870 N   0  0  0  0  0  0  0  0  0  0  0  0
  141.0430  -50.2837  203.4125 C   0  0  0  0  0  0  0  0  0  0  0  0
  141.7392  -49.4366  204.1709 N   0  0  0  0  0  0  0  0  0  0  0  0
  142.9528  -49.7595  204.6631 C   0  0  0  0  0  0  0  0  0  0  0  0
  143.4988  -50.9947  204.3817 C   0  0  0  0  0  0  0  0  0  0  0  0
  142.7730  -51.8659  203.5965 C   0  0  0  0  0  0  0  0  0  0  0  0
  141.5710  -51.4837  203.1379 N   0  0  0  0  0  0  0  0  0  0  0  0
  137.0367  -51.5903  201.0810 O   0  0  0  0  0  0  0  0  0  0  0  0
  137.4543  -52.1108  199.8383 C   0  0  0  0  0  0  0  0  0  0  0  0
  136.8811  -53.4977  199.6695 C   0  0  0  0  0  0  0  0  0  0  0  0
  137.3704  -54.0387  198.4794 O   0  0  0  0  0  0  0  0  0  0  0  0
  135.9672  -49.1261  201.3309 O   0  0  0  0  0  0  0  0  0  0  0  0
  134.7410  -49.6028  201.6978 C   0  0  0  0  0  0  0  0  0  0  0  0
  134.6145  -50.1960  202.9712 C   0  0  0  0  0  0  0  0  0  0  0  0
  133.4537  -50.7090  203.4565 C   0  0  0  0  0  0  0  0  0  0  0  0
  132.3027  -50.6727  202.6993 C   0  0  0  0  0  0  0  0  0  0  0  0
  132.3907  -50.0973  201.4431 C   0  0  0  0  0  0  0  0  0  0  0  0
  133.5813  -49.5813  200.9681 C   0  0  0  0  0  0  0  0  0  0  0  0
  133.5743  -49.0331  199.7133 O   0  0  0  0  0  0  0  0  0  0  0  0
  134.1539  -49.5618  198.5653 C   0  0  0  0  0  0  0  0  0  0  0  0
  1  2  1  0
  2  3  1  0
  2  4  1  0
  2  5  1  0
  5  6  2  0
  6  7  1  0
  7  8  2  0
  8  9  1  0
  9 10  2  0
  8 11  1  0
 11 12  2  0
 11 13  2  0
 11 14  1  0
 14 15  1  0
 15 16  1  0
 16 17  2  0
 17 18  1  0
 18 19  2  0
 19 20  1  0
 19 21  1  0
 21 22  2  0
 22 23  1  0
 23 24  2  0
 24 25  1  0
 25 26  2  0
 17 27  1  0
 27 28  1  0
 28 29  1  0
 29 30  1  0
 16 31  1  0
 31 32  1  0
 32 33  2  0
 33 34  1  0
 34 35  2  0
 35 36  1  0
 36 37  2  0
 37 38  1  0
 38 39  1  0
 10  5  1  0
 20 15  2  0
 26 21  1  0
 37 32  1  0
M  END
$$$$
