
     RDKit          3D

 39 42  0  0  0  0  0  0  0  0999 V2000
    0.9230    2.4934    4.4973 C   0  0  0  0  0  0  0  0  0  0  0  0
    0.8295    1.0083    4.6425 C   0  0  0  0  0  0  0  0  0  0  0  0
    1.6966    0.2876    3.6402 C   0  0  0  0  0  0  0  0  0  0  0  0
   -0.6153    0.5507    4.5089 C   0  0  0  0  0  0  0  0  0  0  0  0
    1.2831    0.6011    5.9923 C   0  0  0  0  0  0  0  0  0  0  0  0
    1.6367   -0.7062    6.2432 C   0  0  0  0  0  0  0  0  0  0  0  0
    2.0590   -1.0538    7.5251 C   0  0  0  0  0  0  0  0  0  0  0  0
    2.1243   -0.1150    8.5281 C   0  0  0  0  0  0  0  0  0  0  0  0
    1.7665    1.1859    8.2566 C   0  0  0  0  0  0  0  0  0  0  0  0
    1.3416    1.5554    6.9818 C   0  0  0  0  0  0  0  0  0  0  0  0
    2.6390   -0.5399   10.1290 S   0  0  0  0  0  6  0  0  0  0  0  0
    3.6218   -1.6823   10.1049 O   0  0  0  0  0  0  0  0  0  0  0  0
    3.3484    0.6659   10.7319 O   0  0  0  0  0  0  0  0  0  0  0  0
    1.2713   -0.9174   11.1053 N   0  0  0  0  0  0  0  0  0  0  0  0
   -0.0371   -0.7456   10.6196 C   0  0  0  0  0  0  0  0  0  0  0  0
   -1.1006   -1.0226   11.4693 C   0  0  0  0  0  0  0  0  0  0  0  0
   -2.3724   -0.8288   10.9560 C   0  0  0  0  0  0  0  0  0  0  0  0
   -2.5581   -0.4000    9.7056 N   0  0  0  0  0  0  0  0  0  0  0  0
   -1.5227   -0.1254    8.8589 C   0  0  0  0  0  0  0  0  0  0  0  0
   -0.3095   -0.3173    9.3756 N   0  0  0  0  0  0  0  0  0  0  0  0
   -1.7880    0.3362    7.5034 C   0  0  0  0  0  0  0  0  0  0  0  0
   -0.7967    0.5581    6.6400 N   0  0  0  0  0  0  0  0  0  0  0  0
   -1.0346    0.9826    5.3820 C   0  0  0  0  0  0  0  0  0  0  0  0
   -2.3323    1.1964    4.9657 C   0  0  0  0  0  0  0  0  0  0  0  0
   -3.3527    0.9648    5.8642 C   0  0  0  0  0  0  0  0  0  0  0  0
   -3.0490    0.5431    7.1017 N   0  0  0  0  0  0  0  0  0  0  0  0
   -3.4740   -1.0895   11.7834 O   0  0  0  0  0  0  0  0  0  0  0  0
   -4.6847   -0.3781   11.6491 C   0  0  0  0  0  0  0  0  0  0  0  0
   -5.3108   -0.2130   13.0134 C   0  0  0  0  0  0  0  0  0  0  0  0
   -5.7620   -1.4601   13.4489 O   0  0  0  0  0  0  0  0  0  0  0  0
   -0.9842   -1.4622   12.7528 O   0  0  0  0  0  0  0  0  0  0  0  0
   -0.9552   -2.7253   13.2719 C   0  0  0  0  0  0  0  0  0  0  0  0
   -0.8040   -2.8651   14.6672 C   0  0  0  0  0  0  0  0  0  0  0  0
   -0.7591   -4.0620   15.3086 C   0  0  0  0  0  0  0  0  0  0  0  0
   -0.8630   -5.2394   14.5997 C   0  0  0  0  0  0  0  0  0  0  0  0
   -1.0124   -5.1394   13.2270 C   0  0  0  0  0  0  0  0  0  0  0  0
   -1.0555   -3.9119   12.5938 C   0  0  0  0  0  0  0  0  0  0  0  0
   -1.2038   -3.9100   11.2325 O   0  0  0  0  0  0  0  0  0  0  0  0
   -1.3748   -5.0160   10.4074 C   0  0  0  0  0  0  0  0  0  0  0  0
  1  2  1  0
  2  3  1  0
  2  4  1  0
  2  5  1  0
  5  6  2  0
  6  7  1  0
  7  8  2  0
  8  9  1  0
  9 10  2  0
  8 11  1  0
 11 12  2  0
 11 13  2  0
 11 14  1  0
 14 15  1  0
 15 16  1  0
 16 17  2  0
 17 18  1  0
 18 19  2  0
 19 20  1  0
 19 21  1  0
 21 22  2  0
 22 23  1  0
 23 24  2  0
 24 25  1  0
 25 26  2  0
 17 27  1  0
 27 28  1  0
 28 29  1  0
 29 30  1  0
 16 31  1  0
 31 32  1  0
 32 33  2  0
 33 34  1  0
 34 35  2  0
 35 36  1  0
 36 37  2  0
 37 38  1  0
 38 39  1  0
 10  5  1  0
 20 15  2  0
 26 21  1  0
 37 32  1  0
M  END
$$$$
