
     RDKit          3D

 39 42  0  0  0  0  0  0  0  0999 V2000
   -6.0908    0.2661    5.4415 C   0  0  0  0  0  0  0  0  0  0  0  0
   -5.3480    0.9417    6.5492 C   0  0  0  0  0  0  0  0  0  0  0  0
   -6.2782    1.4656    7.6151 C   0  0  0  0  0  0  0  0  0  0  0  0
   -4.4897    2.0724    6.0021 C   0  0  0  0  0  0  0  0  0  0  0  0
   -4.4259   -0.0172    7.2003 C   0  0  0  0  0  0  0  0  0  0  0  0
   -4.6827   -0.4752    8.4736 C   0  0  0  0  0  0  0  0  0  0  0  0
   -3.7935   -1.3770    9.0553 C   0  0  0  0  0  0  0  0  0  0  0  0
   -2.6767   -1.8074    8.3777 C   0  0  0  0  0  0  0  0  0  0  0  0
   -2.4384   -1.3377    7.1061 C   0  0  0  0  0  0  0  0  0  0  0  0
   -3.3145   -0.4356    6.5054 C   0  0  0  0  0  0  0  0  0  0  0  0
   -1.5590   -2.9218    9.0968 S   0  0  0  0  0  6  0  0  0  0  0  0
   -2.0459   -3.3972   10.4416 O   0  0  0  0  0  0  0  0  0  0  0  0
   -1.4558   -4.1393    8.1871 O   0  0  0  0  0  0  0  0  0  0  0  0
   -0.0024   -2.1953    9.2210 N   0  0  0  0  0  0  0  0  0  0  0  0
    0.2415   -1.1524   10.1321 C   0  0  0  0  0  0  0  0  0  0  0  0
    1.1111   -0.1358    9.7577 C   0  0  0  0  0  0  0  0  0  0  0  0
    1.3145    0.8782   10.6790 C   0  0  0  0  0  0  0  0  0  0  0  0
    0.7039    0.8699   11.8661 N   0  0  0  0  0  0  0  0  0  0  0  0
   -0.1518   -0.1231   12.2481 C   0  0  0  0  0  0  0  0  0  0  0  0
   -0.3330   -1.0859   11.3448 N   0  0  0  0  0  0  0  0  0  0  0  0
   -0.7857   -0.0796   13.5586 C   0  0  0  0  0  0  0  0  0  0  0  0
   -0.5146    0.8940   14.4280 N   0  0  0  0  0  0  0  0  0  0  0  0
   -1.1000    0.9429   15.6422 C   0  0  0  0  0  0  0  0  0  0  0  0
   -2.0041   -0.0335   16.0059 C   0  0  0  0  0  0  0  0  0  0  0  0
   -2.2797   -1.0376   15.1014 C   0  0  0  0  0  0  0  0  0  0  0  0
   -1.6632   -1.0290   13.9093 N   0  0  0  0  0  0  0  0  0  0  0  0
    2.1791    1.9280   10.3378 O   0  0  0  0  0  0  0  0  0  0  0  0
    1.7452    3.2701   10.3276 C   0  0  0  0  0  0  0  0  0  0  0  0
    2.9401    4.1738   10.5176 C   0  0  0  0  0  0  0  0  0  0  0  0
    2.6126    5.4475   10.0497 O   0  0  0  0  0  0  0  0  0  0  0  0
    1.7664   -0.0644    8.5663 O   0  0  0  0  0  0  0  0  0  0  0  0
    3.0222   -0.4624    8.2050 C   0  0  0  0  0  0  0  0  0  0  0  0
    3.7570   -1.2471    9.1182 C   0  0  0  0  0  0  0  0  0  0  0  0
    5.0139   -1.7063    8.8829 C   0  0  0  0  0  0  0  0  0  0  0  0
    5.6536   -1.4163    7.6970 C   0  0  0  0  0  0  0  0  0  0  0  0
    4.9613   -0.6475    6.7772 C   0  0  0  0  0  0  0  0  0  0  0  0
    3.6833   -0.1900    7.0361 C   0  0  0  0  0  0  0  0  0  0  0  0
    3.0764    0.5655    6.0685 O   0  0  0  0  0  0  0  0  0  0  0  0
    3.3217    1.9019    5.7732 C   0  0  0  0  0  0  0  0  0  0  0  0
  1  2  1  0
  2  3  1  0
  2  4  1  0
  2  5  1  0
  5  6  2  0
  6  7  1  0
  7  8  2  0
  8  9  1  0
  9 10  2  0
  8 11  1  0
 11 12  2  0
 11 13  2  0
 11 14  1  0
 14 15  1  0
 15 16  1  0
 16 17  2  0
 17 18  1  0
 18 19  2  0
 19 20  1  0
 19 21  1  0
 21 22  2  0
 22 23  1  0
 23 24  2  0
 24 25  1  0
 25 26  2  0
 17 27  1  0
 27 28  1  0
 28 29  1  0
 29 30  1  0
 16 31  1  0
 31 32  1  0
 32 33  2  0
 33 34  1  0
 34 35  2  0
 35 36  1  0
 36 37  2  0
 37 38  1  0
 38 39  1  0
 10  5  1  0
 20 15  2  0
 26 21  1  0
 37 32  1  0
M  END
$$$$
