
     RDKit          3D

 39 42  0  0  0  0  0  0  0  0999 V2000
   -0.4369    2.5988    3.9301 C   0  0  0  0  0  0  0  0  0  0  0  0
   -0.9899    1.2128    4.0213 C   0  0  0  0  0  0  0  0  0  0  0  0
   -0.7740    0.4340    2.7474 C   0  0  0  0  0  0  0  0  0  0  0  0
   -2.4713    1.2526    4.3653 C   0  0  0  0  0  0  0  0  0  0  0  0
   -0.3184    0.4695    5.1124 C   0  0  0  0  0  0  0  0  0  0  0  0
   -1.0531   -0.3062    5.9814 C   0  0  0  0  0  0  0  0  0  0  0  0
   -0.3880   -0.9919    6.9963 C   0  0  0  0  0  0  0  0  0  0  0  0
    0.9773   -0.9012    7.1355 C   0  0  0  0  0  0  0  0  0  0  0  0
    1.6930   -0.1207    6.2564 C   0  0  0  0  0  0  0  0  0  0  0  0
    1.0482    0.5733    5.2342 C   0  0  0  0  0  0  0  0  0  0  0  0
    1.8127   -1.7427    8.4012 S   0  0  0  0  0  6  0  0  0  0  0  0
    2.0897   -3.1742    8.0194 O   0  0  0  0  0  0  0  0  0  0  0  0
    3.1548   -1.0556    8.6184 O   0  0  0  0  0  0  0  0  0  0  0  0
    0.9070   -1.6538    9.8635 N   0  0  0  0  0  0  0  0  0  0  0  0
    0.7943   -0.4465   10.5754 C   0  0  0  0  0  0  0  0  0  0  0  0
   -0.3750   -0.2026   11.2846 C   0  0  0  0  0  0  0  0  0  0  0  0
   -0.4407    0.9924   11.9818 C   0  0  0  0  0  0  0  0  0  0  0  0
    0.5721    1.8620   11.9654 N   0  0  0  0  0  0  0  0  0  0  0  0
    1.7263    1.6364   11.2717 C   0  0  0  0  0  0  0  0  0  0  0  0
    1.7668    0.4799   10.6109 N   0  0  0  0  0  0  0  0  0  0  0  0
    2.7957    2.6248   11.2885 C   0  0  0  0  0  0  0  0  0  0  0  0
    2.7115    3.7249   12.0368 N   0  0  0  0  0  0  0  0  0  0  0  0
    3.6992    4.6432   12.0601 C   0  0  0  0  0  0  0  0  0  0  0  0
    4.8306    4.4511   11.2946 C   0  0  0  0  0  0  0  0  0  0  0  0
    4.9108    3.3107   10.5229 C   0  0  0  0  0  0  0  0  0  0  0  0
    3.8933    2.4358   10.5442 N   0  0  0  0  0  0  0  0  0  0  0  0
   -1.6007    1.2744   12.7173 O   0  0  0  0  0  0  0  0  0  0  0  0
   -1.7079    2.4332   13.5143 C   0  0  0  0  0  0  0  0  0  0  0  0
   -3.1088    2.5177   14.0718 C   0  0  0  0  0  0  0  0  0  0  0  0
   -3.4840    1.2515   14.5239 O   0  0  0  0  0  0  0  0  0  0  0  0
   -1.4447   -1.0429   11.3447 O   0  0  0  0  0  0  0  0  0  0  0  0
   -1.6945   -2.1256   12.1393 C   0  0  0  0  0  0  0  0  0  0  0  0
   -0.6044   -2.7263   12.8029 C   0  0  0  0  0  0  0  0  0  0  0  0
   -0.7161   -3.8065   13.6194 C   0  0  0  0  0  0  0  0  0  0  0  0
   -1.9451   -4.3876   13.8459 C   0  0  0  0  0  0  0  0  0  0  0  0
   -3.0377   -3.8236   13.2099 C   0  0  0  0  0  0  0  0  0  0  0  0
   -2.9027   -2.7247   12.3829 C   0  0  0  0  0  0  0  0  0  0  0  0
   -4.0384   -2.2355   11.7946 O   0  0  0  0  0  0  0  0  0  0  0  0
   -5.3322   -2.7243   11.9370 C   0  0  0  0  0  0  0  0  0  0  0  0
  1  2  1  0
  2  3  1  0
  2  4  1  0
  2  5  1  0
  5  6  2  0
  6  7  1  0
  7  8  2  0
  8  9  1  0
  9 10  2  0
  8 11  1  0
 11 12  2  0
 11 13  2  0
 11 14  1  0
 14 15  1  0
 15 16  1  0
 16 17  2  0
 17 18  1  0
 18 19  2  0
 19 20  1  0
 19 21  1  0
 21 22  2  0
 22 23  1  0
 23 24  2  0
 24 25  1  0
 25 26  2  0
 17 27  1  0
 27 28  1  0
 28 29  1  0
 29 30  1  0
 16 31  1  0
 31 32  1  0
 32 33  2  0
 33 34  1  0
 34 35  2  0
 35 36  1  0
 36 37  2  0
 37 38  1  0
 38 39  1  0
 10  5  1  0
 20 15  2  0
 26 21  1  0
 37 32  1  0
M  END
$$$$
