
     RDKit          3D

 39 42  0  0  0  0  0  0  0  0999 V2000
   -3.7003    2.0929    5.7274 C   0  0  0  0  0  0  0  0  0  0  0  0
   -4.2040    0.7194    6.0357 C   0  0  0  0  0  0  0  0  0  0  0  0
   -4.0589   -0.2124    4.8581 C   0  0  0  0  0  0  0  0  0  0  0  0
   -5.6569    0.7737    6.4838 C   0  0  0  0  0  0  0  0  0  0  0  0
   -3.4328    0.1363    7.1578 C   0  0  0  0  0  0  0  0  0  0  0  0
   -3.7113    0.4993    8.4569 C   0  0  0  0  0  0  0  0  0  0  0  0
   -2.9656   -0.0694    9.4879 C   0  0  0  0  0  0  0  0  0  0  0  0
   -1.9675   -0.9776    9.2223 C   0  0  0  0  0  0  0  0  0  0  0  0
   -1.7052   -1.3270    7.9172 C   0  0  0  0  0  0  0  0  0  0  0  0
   -2.4387   -0.7706    6.8709 C   0  0  0  0  0  0  0  0  0  0  0  0
   -1.0275   -1.6833   10.4978 S   0  0  0  0  0  6  0  0  0  0  0  0
   -1.6383   -1.4072   11.8476 O   0  0  0  0  0  0  0  0  0  0  0  0
   -1.0177   -3.1933   10.2963 O   0  0  0  0  0  0  0  0  0  0  0  0
    0.5941   -1.1082   10.4201 N   0  0  0  0  0  0  0  0  0  0  0  0
    0.8831    0.2643   10.5190 C   0  0  0  0  0  0  0  0  0  0  0  0
    1.9604    0.7676    9.8007 C   0  0  0  0  0  0  0  0  0  0  0  0
    2.2036    2.1263    9.9162 C   0  0  0  0  0  0  0  0  0  0  0  0
    1.4381    2.9054   10.6836 N   0  0  0  0  0  0  0  0  0  0  0  0
    0.3774    2.4245   11.3962 C   0  0  0  0  0  0  0  0  0  0  0  0
    0.1622    1.1157   11.2677 N   0  0  0  0  0  0  0  0  0  0  0  0
   -0.4194    3.3233   12.2198 C   0  0  0  0  0  0  0  0  0  0  0  0
   -0.1544    4.6286   12.2779 N   0  0  0  0  0  0  0  0  0  0  0  0
   -0.8897    5.4678   13.0358 C   0  0  0  0  0  0  0  0  0  0  0  0
   -1.9457    4.9755   13.7744 C   0  0  0  0  0  0  0  0  0  0  0  0
   -2.2140    3.6242   13.7095 C   0  0  0  0  0  0  0  0  0  0  0  0
   -1.4443    2.8427   12.9361 N   0  0  0  0  0  0  0  0  0  0  0  0
    3.2771    2.6764    9.2014 O   0  0  0  0  0  0  0  0  0  0  0  0
    3.8856    3.8865    9.5953 C   0  0  0  0  0  0  0  0  0  0  0  0
    4.3168    4.6434    8.3618 C   0  0  0  0  0  0  0  0  0  0  0  0
    4.8965    3.7420    7.4675 O   0  0  0  0  0  0  0  0  0  0  0  0
    2.7811    0.0321    9.0009 O   0  0  0  0  0  0  0  0  0  0  0  0
    2.5457   -0.6103    7.8186 C   0  0  0  0  0  0  0  0  0  0  0  0
    2.3535   -2.0073    7.8504 C   0  0  0  0  0  0  0  0  0  0  0  0
    2.1127   -2.7645    6.7482 C   0  0  0  0  0  0  0  0  0  0  0  0
    2.0424   -2.1816    5.5013 C   0  0  0  0  0  0  0  0  0  0  0  0
    2.2267   -0.8112    5.4330 C   0  0  0  0  0  0  0  0  0  0  0  0
    2.4707   -0.0591    6.5663 C   0  0  0  0  0  0  0  0  0  0  0  0
    2.6423    1.2897    6.4026 O   0  0  0  0  0  0  0  0  0  0  0  0
    2.2203    2.0628    5.3267 C   0  0  0  0  0  0  0  0  0  0  0  0
  1  2  1  0
  2  3  1  0
  2  4  1  0
  2  5  1  0
  5  6  2  0
  6  7  1  0
  7  8  2  0
  8  9  1  0
  9 10  2  0
  8 11  1  0
 11 12  2  0
 11 13  2  0
 11 14  1  0
 14 15  1  0
 15 16  1  0
 16 17  2  0
 17 18  1  0
 18 19  2  0
 19 20  1  0
 19 21  1  0
 21 22  2  0
 22 23  1  0
 23 24  2  0
 24 25  1  0
 25 26  2  0
 17 27  1  0
 27 28  1  0
 28 29  1  0
 29 30  1  0
 16 31  1  0
 31 32  1  0
 32 33  2  0
 33 34  1  0
 34 35  2  0
 35 36  1  0
 36 37  2  0
 37 38  1  0
 38 39  1  0
 10  5  1  0
 20 15  2  0
 26 21  1  0
 37 32  1  0
M  END
$$$$
