
     RDKit          3D

 39 42  0  0  0  0  0  0  0  0999 V2000
   -7.7738   -0.1189    6.6273 C   0  0  0  0  0  0  0  0  0  0  0  0
   -7.8278    0.3226    8.0547 C   0  0  0  0  0  0  0  0  0  0  0  0
   -8.8992   -0.4034    8.8299 C   0  0  0  0  0  0  0  0  0  0  0  0
   -8.0490    1.8255    8.1386 C   0  0  0  0  0  0  0  0  0  0  0  0
   -6.5348    0.0438    8.7211 C   0  0  0  0  0  0  0  0  0  0  0  0
   -6.4134    0.1724   10.0870 C   0  0  0  0  0  0  0  0  0  0  0  0
   -5.1818   -0.0982   10.6805 C   0  0  0  0  0  0  0  0  0  0  0  0
   -4.1012   -0.4871    9.9237 C   0  0  0  0  0  0  0  0  0  0  0  0
   -4.2436   -0.6098    8.5604 C   0  0  0  0  0  0  0  0  0  0  0  0
   -5.4662   -0.3443    7.9462 C   0  0  0  0  0  0  0  0  0  0  0  0
   -2.5619   -0.8165   10.6519 S   0  0  0  0  0  6  0  0  0  0  0  0
   -2.4712   -0.2261   12.0356 O   0  0  0  0  0  0  0  0  0  0  0  0
   -2.4166   -2.3271   10.7848 O   0  0  0  0  0  0  0  0  0  0  0  0
   -1.2963   -0.2297    9.6418 N   0  0  0  0  0  0  0  0  0  0  0  0
   -0.2092    0.4819   10.1794 C   0  0  0  0  0  0  0  0  0  0  0  0
    1.0096    0.4306    9.5148 C   0  0  0  0  0  0  0  0  0  0  0  0
    2.0511    1.1549   10.0707 C   0  0  0  0  0  0  0  0  0  0  0  0
    1.8845    1.8618   11.1908 N   0  0  0  0  0  0  0  0  0  0  0  0
    0.6933    1.9201   11.8554 C   0  0  0  0  0  0  0  0  0  0  0  0
   -0.2937    1.2172   11.3007 N   0  0  0  0  0  0  0  0  0  0  0  0
    0.5733    2.7057   13.0758 C   0  0  0  0  0  0  0  0  0  0  0  0
    1.5594    3.5031   13.4868 N   0  0  0  0  0  0  0  0  0  0  0  0
    1.4546    4.2362   14.6142 C   0  0  0  0  0  0  0  0  0  0  0  0
    0.3027    4.1681   15.3702 C   0  0  0  0  0  0  0  0  0  0  0  0
   -0.7133    3.3410   14.9389 C   0  0  0  0  0  0  0  0  0  0  0  0
   -0.5463    2.6377   13.8081 N   0  0  0  0  0  0  0  0  0  0  0  0
    3.2966    1.1364    9.4269 O   0  0  0  0  0  0  0  0  0  0  0  0
    4.0314    2.3196    9.2034 C   0  0  0  0  0  0  0  0  0  0  0  0
    5.3195    1.9712    8.4962 C   0  0  0  0  0  0  0  0  0  0  0  0
    6.1890    3.0587    8.5955 O   0  0  0  0  0  0  0  0  0  0  0  0
    1.2497   -0.2685    8.3712 O   0  0  0  0  0  0  0  0  0  0  0  0
    1.1724    0.1006    7.0583 C   0  0  0  0  0  0  0  0  0  0  0  0
    0.6849    1.3901    6.7600 C   0  0  0  0  0  0  0  0  0  0  0  0
    0.5573    1.8791    5.4987 C   0  0  0  0  0  0  0  0  0  0  0  0
    0.9112    1.1096    4.4114 C   0  0  0  0  0  0  0  0  0  0  0  0
    1.3937   -0.1624    4.6677 C   0  0  0  0  0  0  0  0  0  0  0  0
    1.5156   -0.6410    5.9583 C   0  0  0  0  0  0  0  0  0  0  0  0
    2.0006   -1.9120    6.1158 O   0  0  0  0  0  0  0  0  0  0  0  0
    3.2983   -2.3488    5.8742 C   0  0  0  0  0  0  0  0  0  0  0  0
  1  2  1  0
  2  3  1  0
  2  4  1  0
  2  5  1  0
  5  6  2  0
  6  7  1  0
  7  8  2  0
  8  9  1  0
  9 10  2  0
  8 11  1  0
 11 12  2  0
 11 13  2  0
 11 14  1  0
 14 15  1  0
 15 16  1  0
 16 17  2  0
 17 18  1  0
 18 19  2  0
 19 20  1  0
 19 21  1  0
 21 22  2  0
 22 23  1  0
 23 24  2  0
 24 25  1  0
 25 26  2  0
 17 27  1  0
 27 28  1  0
 28 29  1  0
 29 30  1  0
 16 31  1  0
 31 32  1  0
 32 33  2  0
 33 34  1  0
 34 35  2  0
 35 36  1  0
 36 37  2  0
 37 38  1  0
 38 39  1  0
 10  5  1  0
 20 15  2  0
 26 21  1  0
 37 32  1  0
M  END
$$$$
