
     RDKit          3D

 39 42  0  0  0  0  0  0  0  0999 V2000
   -6.6984    1.7982   10.1564 C   0  0  0  0  0  0  0  0  0  0  0  0
   -5.5675    2.5367   10.7974 C   0  0  0  0  0  0  0  0  0  0  0  0
   -5.9052    2.9794   12.1995 C   0  0  0  0  0  0  0  0  0  0  0  0
   -5.1686    3.7369    9.9518 C   0  0  0  0  0  0  0  0  0  0  0  0
   -4.3756    1.6618   10.8856 C   0  0  0  0  0  0  0  0  0  0  0  0
   -3.4010    1.9056   11.8277 C   0  0  0  0  0  0  0  0  0  0  0  0
   -2.2931    1.0618   11.8822 C   0  0  0  0  0  0  0  0  0  0  0  0
   -2.1666    0.0023   11.0144 C   0  0  0  0  0  0  0  0  0  0  0  0
   -3.1518   -0.2241   10.0805 C   0  0  0  0  0  0  0  0  0  0  0  0
   -4.2682    0.6071   10.0086 C   0  0  0  0  0  0  0  0  0  0  0  0
   -0.7869   -1.0474   11.0678 S   0  0  0  0  0  6  0  0  0  0  0  0
   -0.1840   -1.0924   12.4484 O   0  0  0  0  0  0  0  0  0  0  0  0
   -1.2524   -2.4560   10.7219 O   0  0  0  0  0  0  0  0  0  0  0  0
    0.3755   -0.5501    9.8982 N   0  0  0  0  0  0  0  0  0  0  0  0
    1.0424    0.6821   10.0158 C   0  0  0  0  0  0  0  0  0  0  0  0
    1.4178    1.3454    8.8544 C   0  0  0  0  0  0  0  0  0  0  0  0
    2.0614    2.5615    9.0140 C   0  0  0  0  0  0  0  0  0  0  0  0
    2.3075    3.0624   10.2267 N   0  0  0  0  0  0  0  0  0  0  0  0
    1.9459    2.4211   11.3766 C   0  0  0  0  0  0  0  0  0  0  0  0
    1.3267    1.2547   11.1975 N   0  0  0  0  0  0  0  0  0  0  0  0
    2.2449    3.0159   12.6719 C   0  0  0  0  0  0  0  0  0  0  0  0
    1.9711    4.2954   12.9271 N   0  0  0  0  0  0  0  0  0  0  0  0
    2.2422    4.8526   14.1252 C   0  0  0  0  0  0  0  0  0  0  0  0
    2.8173    4.0897   15.1204 C   0  0  0  0  0  0  0  0  0  0  0  0
    3.0977    2.7668   14.8492 C   0  0  0  0  0  0  0  0  0  0  0  0
    2.8034    2.2729   13.6365 N   0  0  0  0  0  0  0  0  0  0  0  0
    2.4506    3.2676    7.8668 O   0  0  0  0  0  0  0  0  0  0  0  0
    3.3095    4.3840    7.9412 C   0  0  0  0  0  0  0  0  0  0  0  0
    3.5848    4.8854    6.5436 C   0  0  0  0  0  0  0  0  0  0  0  0
    2.3828    5.3209    5.9831 O   0  0  0  0  0  0  0  0  0  0  0  0
    1.1994    0.8937    7.5885 O   0  0  0  0  0  0  0  0  0  0  0  0
    0.9653   -0.3642    7.1102 C   0  0  0  0  0  0  0  0  0  0  0  0
    1.9865   -1.3270    7.2497 C   0  0  0  0  0  0  0  0  0  0  0  0
    1.8821   -2.6107    6.8171 C   0  0  0  0  0  0  0  0  0  0  0  0
    0.7308   -3.0487    6.1988 C   0  0  0  0  0  0  0  0  0  0  0  0
   -0.2927   -2.1294    6.0449 C   0  0  0  0  0  0  0  0  0  0  0  0
   -0.1663   -0.8279    6.4919 C   0  0  0  0  0  0  0  0  0  0  0  0
   -1.2298    0.0121    6.2950 O   0  0  0  0  0  0  0  0  0  0  0  0
   -2.2562   -0.1395    5.3693 C   0  0  0  0  0  0  0  0  0  0  0  0
  1  2  1  0
  2  3  1  0
  2  4  1  0
  2  5  1  0
  5  6  2  0
  6  7  1  0
  7  8  2  0
  8  9  1  0
  9 10  2  0
  8 11  1  0
 11 12  2  0
 11 13  2  0
 11 14  1  0
 14 15  1  0
 15 16  1  0
 16 17  2  0
 17 18  1  0
 18 19  2  0
 19 20  1  0
 19 21  1  0
 21 22  2  0
 22 23  1  0
 23 24  2  0
 24 25  1  0
 25 26  2  0
 17 27  1  0
 27 28  1  0
 28 29  1  0
 29 30  1  0
 16 31  1  0
 31 32  1  0
 32 33  2  0
 33 34  1  0
 34 35  2  0
 35 36  1  0
 36 37  2  0
 37 38  1  0
 38 39  1  0
 10  5  1  0
 20 15  2  0
 26 21  1  0
 37 32  1  0
M  END
$$$$
