
     RDKit          3D

 39 42  0  0  0  0  0  0  0  0999 V2000
    2.0453   -6.3348   11.5049 C   0  0  0  0  0  0  0  0  0  0  0  0
    0.9530   -5.3288   11.6779 C   0  0  0  0  0  0  0  0  0  0  0  0
    0.7039   -5.0104   13.1314 C   0  0  0  0  0  0  0  0  0  0  0  0
   -0.3298   -5.8183   11.0225 C   0  0  0  0  0  0  0  0  0  0  0  0
    1.3193   -4.0614   11.0047 C   0  0  0  0  0  0  0  0  0  0  0  0
    1.9735   -3.0679   11.6990 C   0  0  0  0  0  0  0  0  0  0  0  0
    2.3029   -1.8884   11.0337 C   0  0  0  0  0  0  0  0  0  0  0  0
    1.9842   -1.7106    9.7076 C   0  0  0  0  0  0  0  0  0  0  0  0
    1.3305   -2.7158    9.0319 C   0  0  0  0  0  0  0  0  0  0  0  0
    0.9918   -3.9034    9.6778 C   0  0  0  0  0  0  0  0  0  0  0  0
    2.3810   -0.2425    8.8736 S   0  0  0  0  0  6  0  0  0  0  0  0
    3.2805    0.6356    9.7051 O   0  0  0  0  0  0  0  0  0  0  0  0
    3.1405   -0.6111    7.6056 O   0  0  0  0  0  0  0  0  0  0  0  0
    0.9397    0.5887    8.4288 N   0  0  0  0  0  0  0  0  0  0  0  0
   -0.0324    0.9213    9.3888 C   0  0  0  0  0  0  0  0  0  0  0  0
   -1.3633    0.6382    9.1092 C   0  0  0  0  0  0  0  0  0  0  0  0
   -2.2875    0.9705   10.0859 C   0  0  0  0  0  0  0  0  0  0  0  0
   -1.9101    1.5367   11.2344 N   0  0  0  0  0  0  0  0  0  0  0  0
   -0.6062    1.8221   11.5221 C   0  0  0  0  0  0  0  0  0  0  0  0
    0.2641    1.4917   10.5686 N   0  0  0  0  0  0  0  0  0  0  0  0
   -0.2557    2.4443   12.7914 C   0  0  0  0  0  0  0  0  0  0  0  0
   -1.1795    2.6944   13.7194 N   0  0  0  0  0  0  0  0  0  0  0  0
   -0.8622    3.2675   14.8986 C   0  0  0  0  0  0  0  0  0  0  0  0
    0.4481    3.6082   15.1633 C   0  0  0  0  0  0  0  0  0  0  0  0
    1.3984    3.3465   14.1985 C   0  0  0  0  0  0  0  0  0  0  0  0
    1.0174    2.7742   13.0459 N   0  0  0  0  0  0  0  0  0  0  0  0
   -3.6413    0.6945    9.8469 O   0  0  0  0  0  0  0  0  0  0  0  0
   -4.6151    0.8382   10.8572 C   0  0  0  0  0  0  0  0  0  0  0  0
   -5.9532    0.3946   10.3157 C   0  0  0  0  0  0  0  0  0  0  0  0
   -6.6429    1.5192    9.8597 O   0  0  0  0  0  0  0  0  0  0  0  0
   -1.8178    0.0635    7.9614 O   0  0  0  0  0  0  0  0  0  0  0  0
   -2.3592    0.6124    6.8338 C   0  0  0  0  0  0  0  0  0  0  0  0
   -2.5628    2.0079    6.8079 C   0  0  0  0  0  0  0  0  0  0  0  0
   -3.0926    2.6771    5.7509 C   0  0  0  0  0  0  0  0  0  0  0  0
   -3.4701    1.9988    4.6120 C   0  0  0  0  0  0  0  0  0  0  0  0
   -3.2845    0.6269    4.6029 C   0  0  0  0  0  0  0  0  0  0  0  0
   -2.7439   -0.0349    5.6888 C   0  0  0  0  0  0  0  0  0  0  0  0
   -2.5990   -1.3931    5.5908 O   0  0  0  0  0  0  0  0  0  0  0  0
   -2.9476   -2.1965    4.5109 C   0  0  0  0  0  0  0  0  0  0  0  0
  1  2  1  0
  2  3  1  0
  2  4  1  0
  2  5  1  0
  5  6  2  0
  6  7  1  0
  7  8  2  0
  8  9  1  0
  9 10  2  0
  8 11  1  0
 11 12  2  0
 11 13  2  0
 11 14  1  0
 14 15  1  0
 15 16  1  0
 16 17  2  0
 17 18  1  0
 18 19  2  0
 19 20  1  0
 19 21  1  0
 21 22  2  0
 22 23  1  0
 23 24  2  0
 24 25  1  0
 25 26  2  0
 17 27  1  0
 27 28  1  0
 28 29  1  0
 29 30  1  0
 16 31  1  0
 31 32  1  0
 32 33  2  0
 33 34  1  0
 34 35  2  0
 35 36  1  0
 36 37  2  0
 37 38  1  0
 38 39  1  0
 10  5  1  0
 20 15  2  0
 26 21  1  0
 37 32  1  0
M  END
$$$$
