
     RDKit          3D

 39 42  0  0  0  0  0  0  0  0999 V2000
    1.0620   -5.7562   11.9970 C   0  0  0  0  0  0  0  0  0  0  0  0
   -0.0189   -5.2309   11.1077 C   0  0  0  0  0  0  0  0  0  0  0  0
   -1.2351   -4.8021   11.8904 C   0  0  0  0  0  0  0  0  0  0  0  0
   -0.4060   -6.2726   10.0686 C   0  0  0  0  0  0  0  0  0  0  0  0
    0.4676   -4.0463   10.3635 C   0  0  0  0  0  0  0  0  0  0  0  0
    1.7137   -3.5220   10.6268 C   0  0  0  0  0  0  0  0  0  0  0  0
    2.1391   -2.4067    9.9073 C   0  0  0  0  0  0  0  0  0  0  0  0
    1.3356   -1.8330    8.9498 C   0  0  0  0  0  0  0  0  0  0  0  0
    0.0939   -2.3724    8.7019 C   0  0  0  0  0  0  0  0  0  0  0  0
   -0.3513   -3.4874    9.4096 C   0  0  0  0  0  0  0  0  0  0  0  0
    1.8520   -0.4391    8.0562 S   0  0  0  0  0  6  0  0  0  0  0  0
    3.2029    0.0415    8.5204 O   0  0  0  0  0  0  0  0  0  0  0  0
    1.9830   -0.8393    6.5922 O   0  0  0  0  0  0  0  0  0  0  0  0
    0.6719    0.8093    8.1808 N   0  0  0  0  0  0  0  0  0  0  0  0
    0.3116    1.3455    9.4297 C   0  0  0  0  0  0  0  0  0  0  0  0
   -1.0221    1.6629    9.6542 C   0  0  0  0  0  0  0  0  0  0  0  0
   -1.3368    2.1773   10.9011 C   0  0  0  0  0  0  0  0  0  0  0  0
   -0.3990    2.3585   11.8338 N   0  0  0  0  0  0  0  0  0  0  0  0
    0.9155    2.0528   11.6267 C   0  0  0  0  0  0  0  0  0  0  0  0
    1.1932    1.5579   10.4211 N   0  0  0  0  0  0  0  0  0  0  0  0
    1.8942    2.2763   12.6818 C   0  0  0  0  0  0  0  0  0  0  0  0
    3.1655    1.9011   12.5391 N   0  0  0  0  0  0  0  0  0  0  0  0
    4.0784    2.1076   13.5103 C   0  0  0  0  0  0  0  0  0  0  0  0
    3.6999    2.7217   14.6861 C   0  0  0  0  0  0  0  0  0  0  0  0
    2.3831    3.1072   14.8267 C   0  0  0  0  0  0  0  0  0  0  0  0
    1.5240    2.8729   13.8225 N   0  0  0  0  0  0  0  0  0  0  0  0
   -2.6733    2.5037   11.1718 O   0  0  0  0  0  0  0  0  0  0  0  0
   -3.2526    2.2619   12.4349 C   0  0  0  0  0  0  0  0  0  0  0  0
   -3.7442    3.5698   13.0080 C   0  0  0  0  0  0  0  0  0  0  0  0
   -4.6721    4.1216   12.1231 O   0  0  0  0  0  0  0  0  0  0  0  0
   -2.0281    1.5046    8.7503 O   0  0  0  0  0  0  0  0  0  0  0  0
   -2.9864    0.5385    8.6309 C   0  0  0  0  0  0  0  0  0  0  0  0
   -3.1702   -0.3497    9.7111 C   0  0  0  0  0  0  0  0  0  0  0  0
   -4.0863   -1.3531    9.7199 C   0  0  0  0  0  0  0  0  0  0  0  0
   -4.9094   -1.5577    8.6336 C   0  0  0  0  0  0  0  0  0  0  0  0
   -4.7560   -0.7039    7.5547 C   0  0  0  0  0  0  0  0  0  0  0  0
   -3.8178    0.3106    7.5657 C   0  0  0  0  0  0  0  0  0  0  0  0
   -3.7357    1.1051    6.4533 O   0  0  0  0  0  0  0  0  0  0  0  0
   -3.3000    0.7304    5.1872 C   0  0  0  0  0  0  0  0  0  0  0  0
  1  2  1  0
  2  3  1  0
  2  4  1  0
  2  5  1  0
  5  6  2  0
  6  7  1  0
  7  8  2  0
  8  9  1  0
  9 10  2  0
  8 11  1  0
 11 12  2  0
 11 13  2  0
 11 14  1  0
 14 15  1  0
 15 16  1  0
 16 17  2  0
 17 18  1  0
 18 19  2  0
 19 20  1  0
 19 21  1  0
 21 22  2  0
 22 23  1  0
 23 24  2  0
 24 25  1  0
 25 26  2  0
 17 27  1  0
 27 28  1  0
 28 29  1  0
 29 30  1  0
 16 31  1  0
 31 32  1  0
 32 33  2  0
 33 34  1  0
 34 35  2  0
 35 36  1  0
 36 37  2  0
 37 38  1  0
 38 39  1  0
 10  5  1  0
 20 15  2  0
 26 21  1  0
 37 32  1  0
M  END
$$$$
