
     RDKit          3D

 39 42  0  0  0  0  0  0  0  0999 V2000
   -1.6389   -6.6937   11.1876 C   0  0  0  0  0  0  0  0  0  0  0  0
   -0.9758   -5.7301   10.2564 C   0  0  0  0  0  0  0  0  0  0  0  0
   -1.1374   -6.1382    8.8131 C   0  0  0  0  0  0  0  0  0  0  0  0
    0.5000   -5.5900   10.5983 C   0  0  0  0  0  0  0  0  0  0  0  0
   -1.5778   -4.3851   10.4051 C   0  0  0  0  0  0  0  0  0  0  0  0
   -1.8332   -3.8710   11.6571 C   0  0  0  0  0  0  0  0  0  0  0  0
   -2.4003   -2.6020   11.7594 C   0  0  0  0  0  0  0  0  0  0  0  0
   -2.7031   -1.8689   10.6358 C   0  0  0  0  0  0  0  0  0  0  0  0
   -2.4399   -2.4008    9.3941 C   0  0  0  0  0  0  0  0  0  0  0  0
   -1.8731   -3.6678    9.2687 C   0  0  0  0  0  0  0  0  0  0  0  0
   -3.4181   -0.2930   10.7527 S   0  0  0  0  0  6  0  0  0  0  0  0
   -4.1770    0.0602    9.4994 O   0  0  0  0  0  0  0  0  0  0  0  0
   -4.4142   -0.3114   11.9051 O   0  0  0  0  0  0  0  0  0  0  0  0
   -2.2037    0.8794   11.0949 N   0  0  0  0  0  0  0  0  0  0  0  0
   -1.0195    0.9399   10.3392 C   0  0  0  0  0  0  0  0  0  0  0  0
    0.1788    1.1701   11.0032 C   0  0  0  0  0  0  0  0  0  0  0  0
    1.3231    1.2103   10.2237 C   0  0  0  0  0  0  0  0  0  0  0  0
    1.2680    1.0384    8.9010 N   0  0  0  0  0  0  0  0  0  0  0  0
    0.0977    0.8130    8.2350 C   0  0  0  0  0  0  0  0  0  0  0  0
   -0.9886    0.7767    9.0059 N   0  0  0  0  0  0  0  0  0  0  0  0
    0.1001    0.6367    6.7893 C   0  0  0  0  0  0  0  0  0  0  0  0
    1.2232    0.7460    6.0794 N   0  0  0  0  0  0  0  0  0  0  0  0
    1.2340    0.5810    4.7407 C   0  0  0  0  0  0  0  0  0  0  0  0
    0.0597    0.2913    4.0773 C   0  0  0  0  0  0  0  0  0  0  0  0
   -1.0983    0.1797    4.8182 C   0  0  0  0  0  0  0  0  0  0  0  0
   -1.0416    0.3555    6.1476 N   0  0  0  0  0  0  0  0  0  0  0  0
    2.5549    1.4327   10.8555 O   0  0  0  0  0  0  0  0  0  0  0  0
    3.6286    2.0548   10.1849 C   0  0  0  0  0  0  0  0  0  0  0  0
    4.9251    1.6225   10.8274 C   0  0  0  0  0  0  0  0  0  0  0  0
    5.0622    0.2427   10.6665 O   0  0  0  0  0  0  0  0  0  0  0  0
    0.3077    1.3539   12.3462 O   0  0  0  0  0  0  0  0  0  0  0  0
    0.3209    0.4603   13.3793 C   0  0  0  0  0  0  0  0  0  0  0  0
    0.7411   -0.8588   13.1092 C   0  0  0  0  0  0  0  0  0  0  0  0
    0.7996   -1.8422   14.0449 C   0  0  0  0  0  0  0  0  0  0  0  0
    0.4378   -1.5876   15.3502 C   0  0  0  0  0  0  0  0  0  0  0  0
    0.0197   -0.3026   15.6509 C   0  0  0  0  0  0  0  0  0  0  0  0
   -0.0327    0.6835   14.6842 C   0  0  0  0  0  0  0  0  0  0  0  0
   -0.4606    1.9249   15.0730 O   0  0  0  0  0  0  0  0  0  0  0  0
   -1.0157    2.2731   16.2994 C   0  0  0  0  0  0  0  0  0  0  0  0
  1  2  1  0
  2  3  1  0
  2  4  1  0
  2  5  1  0
  5  6  2  0
  6  7  1  0
  7  8  2  0
  8  9  1  0
  9 10  2  0
  8 11  1  0
 11 12  2  0
 11 13  2  0
 11 14  1  0
 14 15  1  0
 15 16  1  0
 16 17  2  0
 17 18  1  0
 18 19  2  0
 19 20  1  0
 19 21  1  0
 21 22  2  0
 22 23  1  0
 23 24  2  0
 24 25  1  0
 25 26  2  0
 17 27  1  0
 27 28  1  0
 28 29  1  0
 29 30  1  0
 16 31  1  0
 31 32  1  0
 32 33  2  0
 33 34  1  0
 34 35  2  0
 35 36  1  0
 36 37  2  0
 37 38  1  0
 38 39  1  0
 10  5  1  0
 20 15  2  0
 26 21  1  0
 37 32  1  0
M  END
$$$$
