
     RDKit          3D

 39 42  0  0  0  0  0  0  0  0999 V2000
    0.1475   -5.8470   13.5238 C   0  0  0  0  0  0  0  0  0  0  0  0
   -1.2684   -5.9918   13.0659 C   0  0  0  0  0  0  0  0  0  0  0  0
   -2.1646   -6.5162   14.1602 C   0  0  0  0  0  0  0  0  0  0  0  0
   -1.3433   -6.9005   11.8480 C   0  0  0  0  0  0  0  0  0  0  0  0
   -1.8039   -4.6752   12.6494 C   0  0  0  0  0  0  0  0  0  0  0  0
   -2.4446   -3.8644   13.5599 C   0  0  0  0  0  0  0  0  0  0  0  0
   -2.9360   -2.6320   13.1331 C   0  0  0  0  0  0  0  0  0  0  0  0
   -2.7886   -2.2244   11.8278 C   0  0  0  0  0  0  0  0  0  0  0  0
   -2.1451   -3.0495   10.9337 C   0  0  0  0  0  0  0  0  0  0  0  0
   -1.6460   -4.2859   11.3392 C   0  0  0  0  0  0  0  0  0  0  0  0
   -3.4053   -0.6970   11.2848 S   0  0  0  0  0  6  0  0  0  0  0  0
   -4.8930   -0.7571   11.0512 O   0  0  0  0  0  0  0  0  0  0  0  0
   -3.1518    0.3304   12.3805 O   0  0  0  0  0  0  0  0  0  0  0  0
   -2.5726   -0.1993    9.8617 N   0  0  0  0  0  0  0  0  0  0  0  0
   -1.2773    0.3434    9.9309 C   0  0  0  0  0  0  0  0  0  0  0  0
   -0.4365    0.1921    8.8354 C   0  0  0  0  0  0  0  0  0  0  0  0
    0.8262    0.7516    8.9396 C   0  0  0  0  0  0  0  0  0  0  0  0
    1.2092    1.3996   10.0421 N   0  0  0  0  0  0  0  0  0  0  0  0
    0.3945    1.5545   11.1268 C   0  0  0  0  0  0  0  0  0  0  0  0
   -0.8152    1.0098   11.0021 N   0  0  0  0  0  0  0  0  0  0  0  0
    0.8699    2.2686   12.3037 C   0  0  0  0  0  0  0  0  0  0  0  0
    0.1452    2.3234   13.4212 N   0  0  0  0  0  0  0  0  0  0  0  0
    0.5801    2.9800   14.5163 C   0  0  0  0  0  0  0  0  0  0  0  0
    1.8044    3.6152   14.4921 C   0  0  0  0  0  0  0  0  0  0  0  0
    2.5487    3.5544   13.3325 C   0  0  0  0  0  0  0  0  0  0  0  0
    2.0591    2.8846   12.2775 N   0  0  0  0  0  0  0  0  0  0  0  0
    1.7038    0.6284    7.8531 O   0  0  0  0  0  0  0  0  0  0  0  0
    3.0747    0.9390    7.9705 C   0  0  0  0  0  0  0  0  0  0  0  0
    3.6608    1.1036    6.5884 C   0  0  0  0  0  0  0  0  0  0  0  0
    3.9737   -0.1603    6.0852 O   0  0  0  0  0  0  0  0  0  0  0  0
   -0.7609   -0.4552    7.6822 O   0  0  0  0  0  0  0  0  0  0  0  0
   -1.4141   -0.0250    6.5623 C   0  0  0  0  0  0  0  0  0  0  0  0
   -2.7098    0.5107    6.7155 C   0  0  0  0  0  0  0  0  0  0  0  0
   -3.4659    0.9721    5.6852 C   0  0  0  0  0  0  0  0  0  0  0  0
   -2.9845    0.9370    4.3942 C   0  0  0  0  0  0  0  0  0  0  0  0
   -1.7152    0.4169    4.2070 C   0  0  0  0  0  0  0  0  0  0  0  0
   -0.9624   -0.0475    5.2687 C   0  0  0  0  0  0  0  0  0  0  0  0
    0.2817   -0.5465    4.9884 O   0  0  0  0  0  0  0  0  0  0  0  0
    0.6192   -1.4301    3.9694 C   0  0  0  0  0  0  0  0  0  0  0  0
  1  2  1  0
  2  3  1  0
  2  4  1  0
  2  5  1  0
  5  6  2  0
  6  7  1  0
  7  8  2  0
  8  9  1  0
  9 10  2  0
  8 11  1  0
 11 12  2  0
 11 13  2  0
 11 14  1  0
 14 15  1  0
 15 16  1  0
 16 17  2  0
 17 18  1  0
 18 19  2  0
 19 20  1  0
 19 21  1  0
 21 22  2  0
 22 23  1  0
 23 24  2  0
 24 25  1  0
 25 26  2  0
 17 27  1  0
 27 28  1  0
 28 29  1  0
 29 30  1  0
 16 31  1  0
 31 32  1  0
 32 33  2  0
 33 34  1  0
 34 35  2  0
 35 36  1  0
 36 37  2  0
 37 38  1  0
 38 39  1  0
 10  5  1  0
 20 15  2  0
 26 21  1  0
 37 32  1  0
M  END
$$$$
