
     RDKit          3D

 39 42  0  0  0  0  0  0  0  0999 V2000
   -7.0654   -1.5969    7.0912 C   0  0  0  0  0  0  0  0  0  0  0  0
   -6.7046   -0.1746    7.3777 C   0  0  0  0  0  0  0  0  0  0  0  0
   -7.8245    0.5636    8.0683 C   0  0  0  0  0  0  0  0  0  0  0  0
   -6.3172    0.5449    6.0944 C   0  0  0  0  0  0  0  0  0  0  0  0
   -5.5238   -0.1207    8.2702 C   0  0  0  0  0  0  0  0  0  0  0  0
   -4.7688   -1.2504    8.4950 C   0  0  0  0  0  0  0  0  0  0  0  0
   -3.6644   -1.1631    9.3406 C   0  0  0  0  0  0  0  0  0  0  0  0
   -3.3270    0.0257    9.9445 C   0  0  0  0  0  0  0  0  0  0  0  0
   -4.0947    1.1430    9.7066 C   0  0  0  0  0  0  0  0  0  0  0  0
   -5.2032    1.0781    8.8644 C   0  0  0  0  0  0  0  0  0  0  0  0
   -1.9605    0.1421   11.0062 S   0  0  0  0  0  6  0  0  0  0  0  0
   -2.1714    1.1995   12.0592 O   0  0  0  0  0  0  0  0  0  0  0  0
   -1.8027   -1.1944   11.7201 O   0  0  0  0  0  0  0  0  0  0  0  0
   -0.5322    0.4497   10.0942 N   0  0  0  0  0  0  0  0  0  0  0  0
    0.6979    0.6914   10.7311 C   0  0  0  0  0  0  0  0  0  0  0  0
    1.8032    0.9908    9.9447 C   0  0  0  0  0  0  0  0  0  0  0  0
    2.9925    1.2339   10.6117 C   0  0  0  0  0  0  0  0  0  0  0  0
    3.0650    1.1784   11.9435 N   0  0  0  0  0  0  0  0  0  0  0  0
    1.9877    0.8839   12.7289 C   0  0  0  0  0  0  0  0  0  0  0  0
    0.8550    0.6559   12.0650 N   0  0  0  0  0  0  0  0  0  0  0  0
    2.1292    0.8342   14.1775 C   0  0  0  0  0  0  0  0  0  0  0  0
    1.0784    0.6225   14.9700 N   0  0  0  0  0  0  0  0  0  0  0  0
    1.2020    0.5719   16.3122 C   0  0  0  0  0  0  0  0  0  0  0  0
    2.4421    0.7420   16.8922 C   0  0  0  0  0  0  0  0  0  0  0  0
    3.5247    0.9606   16.0661 C   0  0  0  0  0  0  0  0  0  0  0  0
    3.3345    0.9996   14.7381 N   0  0  0  0  0  0  0  0  0  0  0  0
    4.1310    1.5475    9.8557 O   0  0  0  0  0  0  0  0  0  0  0  0
    5.4325    1.3610   10.3663 C   0  0  0  0  0  0  0  0  0  0  0  0
    6.4355    1.7983    9.3255 C   0  0  0  0  0  0  0  0  0  0  0  0
    7.0094    0.6605    8.7559 O   0  0  0  0  0  0  0  0  0  0  0  0
    1.8008    1.0638    8.5850 O   0  0  0  0  0  0  0  0  0  0  0  0
    1.6613    0.0949    7.6323 C   0  0  0  0  0  0  0  0  0  0  0  0
    1.7449   -1.2527    8.0404 C   0  0  0  0  0  0  0  0  0  0  0  0
    1.6247   -2.3095    7.1950 C   0  0  0  0  0  0  0  0  0  0  0  0
    1.4073   -2.1070    5.8492 C   0  0  0  0  0  0  0  0  0  0  0  0
    1.3200   -0.7958    5.4134 C   0  0  0  0  0  0  0  0  0  0  0  0
    1.4453    0.2652    6.2899 C   0  0  0  0  0  0  0  0  0  0  0  0
    1.3470    1.5278    5.7689 O   0  0  0  0  0  0  0  0  0  0  0  0
    2.3670    2.2786    5.1952 C   0  0  0  0  0  0  0  0  0  0  0  0
  1  2  1  0
  2  3  1  0
  2  4  1  0
  2  5  1  0
  5  6  2  0
  6  7  1  0
  7  8  2  0
  8  9  1  0
  9 10  2  0
  8 11  1  0
 11 12  2  0
 11 13  2  0
 11 14  1  0
 14 15  1  0
 15 16  1  0
 16 17  2  0
 17 18  1  0
 18 19  2  0
 19 20  1  0
 19 21  1  0
 21 22  2  0
 22 23  1  0
 23 24  2  0
 24 25  1  0
 25 26  2  0
 17 27  1  0
 27 28  1  0
 28 29  1  0
 29 30  1  0
 16 31  1  0
 31 32  1  0
 32 33  2  0
 33 34  1  0
 34 35  2  0
 35 36  1  0
 36 37  2  0
 37 38  1  0
 38 39  1  0
 10  5  1  0
 20 15  2  0
 26 21  1  0
 37 32  1  0
M  END
$$$$
