
     RDKit          3D

 39 42  0  0  0  0  0  0  0  0999 V2000
   -1.2544    1.1271    4.0156 C   0  0  0  0  0  0  0  0  0  0  0  0
   -1.2189   -0.0986    4.8710 C   0  0  0  0  0  0  0  0  0  0  0  0
   -0.7224   -1.3033    4.1107 C   0  0  0  0  0  0  0  0  0  0  0  0
   -2.5953   -0.3795    5.4553 C   0  0  0  0  0  0  0  0  0  0  0  0
   -0.3033    0.1088    6.0166 C   0  0  0  0  0  0  0  0  0  0  0  0
    0.1789   -0.9685    6.7265 C   0  0  0  0  0  0  0  0  0  0  0  0
    1.0386   -0.7362    7.7986 C   0  0  0  0  0  0  0  0  0  0  0  0
    1.4043    0.5426    8.1489 C   0  0  0  0  0  0  0  0  0  0  0  0
    0.9114    1.6053    7.4265 C   0  0  0  0  0  0  0  0  0  0  0  0
    0.0506    1.3957    6.3507 C   0  0  0  0  0  0  0  0  0  0  0  0
    2.4657    0.8424    9.4875 S   0  0  0  0  0  6  0  0  0  0  0  0
    3.2373   -0.3960    9.8647 O   0  0  0  0  0  0  0  0  0  0  0  0
    3.4739    1.9020    9.0618 O   0  0  0  0  0  0  0  0  0  0  0  0
    1.5666    1.4462   10.8267 N   0  0  0  0  0  0  0  0  0  0  0  0
    0.5737    0.6661   11.4455 C   0  0  0  0  0  0  0  0  0  0  0  0
   -0.3749    1.3052   12.2338 C   0  0  0  0  0  0  0  0  0  0  0  0
   -1.3422    0.5022   12.8153 C   0  0  0  0  0  0  0  0  0  0  0  0
   -1.3534   -0.8190   12.6250 N   0  0  0  0  0  0  0  0  0  0  0  0
   -0.4268   -1.4608   11.8544 C   0  0  0  0  0  0  0  0  0  0  0  0
    0.4918   -0.6675   11.3043 N   0  0  0  0  0  0  0  0  0  0  0  0
   -0.4882   -2.9062   11.6869 C   0  0  0  0  0  0  0  0  0  0  0  0
   -1.3737   -3.6447   12.3559 N   0  0  0  0  0  0  0  0  0  0  0  0
   -1.4388   -4.9834   12.2036 C   0  0  0  0  0  0  0  0  0  0  0  0
   -0.5725   -5.6165   11.3366 C   0  0  0  0  0  0  0  0  0  0  0  0
    0.3409   -4.8461   10.6479 C   0  0  0  0  0  0  0  0  0  0  0  0
    0.3542   -3.5185   10.8443 N   0  0  0  0  0  0  0  0  0  0  0  0
   -2.3234    1.1084   13.6127 O   0  0  0  0  0  0  0  0  0  0  0  0
   -3.0914    0.3654   14.5333 C   0  0  0  0  0  0  0  0  0  0  0  0
   -4.3521    1.1329   14.8531 C   0  0  0  0  0  0  0  0  0  0  0  0
   -5.4326    0.4805   14.2569 O   0  0  0  0  0  0  0  0  0  0  0  0
   -0.4229    2.6453   12.4705 O   0  0  0  0  0  0  0  0  0  0  0  0
   -1.3685    3.5805   12.1589 C   0  0  0  0  0  0  0  0  0  0  0  0
   -2.4093    3.2047   11.2842 C   0  0  0  0  0  0  0  0  0  0  0  0
   -3.4095    4.0375   10.8943 C   0  0  0  0  0  0  0  0  0  0  0  0
   -3.4558    5.3367   11.3519 C   0  0  0  0  0  0  0  0  0  0  0  0
   -2.4491    5.7398   12.2125 C   0  0  0  0  0  0  0  0  0  0  0  0
   -1.4405    4.8770   12.5969 C   0  0  0  0  0  0  0  0  0  0  0  0
   -0.4859    5.3635   13.4498 O   0  0  0  0  0  0  0  0  0  0  0  0
   -0.6552    5.7103   14.7856 C   0  0  0  0  0  0  0  0  0  0  0  0
  1  2  1  0
  2  3  1  0
  2  4  1  0
  2  5  1  0
  5  6  2  0
  6  7  1  0
  7  8  2  0
  8  9  1  0
  9 10  2  0
  8 11  1  0
 11 12  2  0
 11 13  2  0
 11 14  1  0
 14 15  1  0
 15 16  1  0
 16 17  2  0
 17 18  1  0
 18 19  2  0
 19 20  1  0
 19 21  1  0
 21 22  2  0
 22 23  1  0
 23 24  2  0
 24 25  1  0
 25 26  2  0
 17 27  1  0
 27 28  1  0
 28 29  1  0
 29 30  1  0
 16 31  1  0
 31 32  1  0
 32 33  2  0
 33 34  1  0
 34 35  2  0
 35 36  1  0
 36 37  2  0
 37 38  1  0
 38 39  1  0
 10  5  1  0
 20 15  2  0
 26 21  1  0
 37 32  1  0
M  END
$$$$
