
     RDKit          3D

 39 42  0  0  0  0  0  0  0  0999 V2000
   -0.8615    0.2711    3.5529 C   0  0  0  0  0  0  0  0  0  0  0  0
   -0.2381    1.3772    4.3424 C   0  0  0  0  0  0  0  0  0  0  0  0
   -1.2732    2.3049    4.9288 C   0  0  0  0  0  0  0  0  0  0  0  0
    0.7385    2.1620    3.4792 C   0  0  0  0  0  0  0  0  0  0  0  0
    0.5430    0.8179    5.4697 C   0  0  0  0  0  0  0  0  0  0  0  0
    0.5716   -0.5412    5.6905 C   0  0  0  0  0  0  0  0  0  0  0  0
    1.3171   -1.0325    6.7607 C   0  0  0  0  0  0  0  0  0  0  0  0
    2.0149   -0.1828    7.5869 C   0  0  0  0  0  0  0  0  0  0  0  0
    1.9734    1.1721    7.3489 C   0  0  0  0  0  0  0  0  0  0  0  0
    1.2343    1.6848    6.2844 C   0  0  0  0  0  0  0  0  0  0  0  0
    2.9375   -0.7837    8.9271 S   0  0  0  0  0  6  0  0  0  0  0  0
    3.9726   -1.7826    8.4774 O   0  0  0  0  0  0  0  0  0  0  0  0
    3.6741    0.3914    9.5572 O   0  0  0  0  0  0  0  0  0  0  0  0
    1.8845   -1.4680   10.1058 N   0  0  0  0  0  0  0  0  0  0  0  0
    0.9183   -0.6828   10.7592 C   0  0  0  0  0  0  0  0  0  0  0  0
   -0.1599   -1.3220   11.3580 C   0  0  0  0  0  0  0  0  0  0  0  0
   -1.0824   -0.5134   12.0011 C   0  0  0  0  0  0  0  0  0  0  0  0
   -0.9368    0.8131   12.0366 N   0  0  0  0  0  0  0  0  0  0  0  0
    0.1166    1.4550   11.4513 C   0  0  0  0  0  0  0  0  0  0  0  0
    0.9913    0.6563   10.8408 N   0  0  0  0  0  0  0  0  0  0  0  0
    0.2196    2.9061   11.5200 C   0  0  0  0  0  0  0  0  0  0  0  0
   -0.7129    3.6394   12.1283 N   0  0  0  0  0  0  0  0  0  0  0  0
   -0.6229    4.9834   12.1988 C   0  0  0  0  0  0  0  0  0  0  0  0
    0.4567    5.6278   11.6311 C   0  0  0  0  0  0  0  0  0  0  0  0
    1.4176    4.8627   11.0035 C   0  0  0  0  0  0  0  0  0  0  0  0
    1.2690    3.5293   10.9679 N   0  0  0  0  0  0  0  0  0  0  0  0
   -2.1821   -1.1193   12.6254 O   0  0  0  0  0  0  0  0  0  0  0  0
   -3.4948   -0.9520   12.1371 C   0  0  0  0  0  0  0  0  0  0  0  0
   -4.4405   -0.8198   13.3070 C   0  0  0  0  0  0  0  0  0  0  0  0
   -5.4768   -1.7411   13.1467 O   0  0  0  0  0  0  0  0  0  0  0  0
   -0.3707   -2.6673   11.3602 O   0  0  0  0  0  0  0  0  0  0  0  0
   -0.4427   -3.5649   12.3874 C   0  0  0  0  0  0  0  0  0  0  0  0
    0.2538   -3.2675   13.5773 C   0  0  0  0  0  0  0  0  0  0  0  0
    0.2651   -4.0741   14.6706 C   0  0  0  0  0  0  0  0  0  0  0  0
   -0.4291   -5.2647   14.6682 C   0  0  0  0  0  0  0  0  0  0  0  0
   -1.1243   -5.5886   13.5157 C   0  0  0  0  0  0  0  0  0  0  0  0
   -1.1228   -4.7542   12.4142 C   0  0  0  0  0  0  0  0  0  0  0  0
   -1.8371   -5.1572   11.3175 O   0  0  0  0  0  0  0  0  0  0  0  0
   -1.6696   -6.3334   10.5952 C   0  0  0  0  0  0  0  0  0  0  0  0
  1  2  1  0
  2  3  1  0
  2  4  1  0
  2  5  1  0
  5  6  2  0
  6  7  1  0
  7  8  2  0
  8  9  1  0
  9 10  2  0
  8 11  1  0
 11 12  2  0
 11 13  2  0
 11 14  1  0
 14 15  1  0
 15 16  1  0
 16 17  2  0
 17 18  1  0
 18 19  2  0
 19 20  1  0
 19 21  1  0
 21 22  2  0
 22 23  1  0
 23 24  2  0
 24 25  1  0
 25 26  2  0
 17 27  1  0
 27 28  1  0
 28 29  1  0
 29 30  1  0
 16 31  1  0
 31 32  1  0
 32 33  2  0
 33 34  1  0
 34 35  2  0
 35 36  1  0
 36 37  2  0
 37 38  1  0
 38 39  1  0
 10  5  1  0
 20 15  2  0
 26 21  1  0
 37 32  1  0
M  END
$$$$
