
     RDKit          3D

 39 42  0  0  0  0  0  0  0  0999 V2000
    0.0046   -5.3835   13.4708 C   0  0  0  0  0  0  0  0  0  0  0  0
   -0.5964   -5.0713   12.1379 C   0  0  0  0  0  0  0  0  0  0  0  0
   -1.8668   -5.8480   11.8957 C   0  0  0  0  0  0  0  0  0  0  0  0
    0.4047   -5.3458   11.0255 C   0  0  0  0  0  0  0  0  0  0  0  0
   -0.9370   -3.6320   12.0596 C   0  0  0  0  0  0  0  0  0  0  0  0
   -1.9843   -3.2060   11.2730 C   0  0  0  0  0  0  0  0  0  0  0  0
   -2.2766   -1.8443   11.2233 C   0  0  0  0  0  0  0  0  0  0  0  0
   -1.5379   -0.9346   11.9433 C   0  0  0  0  0  0  0  0  0  0  0  0
   -0.4956   -1.3809   12.7233 C   0  0  0  0  0  0  0  0  0  0  0  0
   -0.1860   -2.7382   12.7878 C   0  0  0  0  0  0  0  0  0  0  0  0
   -1.8877    0.7630   11.8802 S   0  0  0  0  0  6  0  0  0  0  0  0
   -3.3618    1.0268   12.0505 O   0  0  0  0  0  0  0  0  0  0  0  0
   -1.1620    1.4374   13.0375 O   0  0  0  0  0  0  0  0  0  0  0  0
   -1.3039    1.4289   10.4030 N   0  0  0  0  0  0  0  0  0  0  0  0
    0.0355    1.2602   10.0098 C   0  0  0  0  0  0  0  0  0  0  0  0
    0.2947    0.7314    8.7517 C   0  0  0  0  0  0  0  0  0  0  0  0
    1.6269    0.5928    8.3986 C   0  0  0  0  0  0  0  0  0  0  0  0
    2.6065    0.9491    9.2326 N   0  0  0  0  0  0  0  0  0  0  0  0
    2.3667    1.4684   10.4724 C   0  0  0  0  0  0  0  0  0  0  0  0
    1.0783    1.5940   10.7885 N   0  0  0  0  0  0  0  0  0  0  0  0
    3.4774    1.8354   11.3399 C   0  0  0  0  0  0  0  0  0  0  0  0
    4.7425    1.6975   10.9425 N   0  0  0  0  0  0  0  0  0  0  0  0
    5.7764    2.0381   11.7390 C   0  0  0  0  0  0  0  0  0  0  0  0
    5.5321    2.5432   12.9992 C   0  0  0  0  0  0  0  0  0  0  0  0
    4.2209    2.6831   13.4036 C   0  0  0  0  0  0  0  0  0  0  0  0
    3.2374    2.3256   12.5632 N   0  0  0  0  0  0  0  0  0  0  0  0
    1.9324    0.0701    7.1339 O   0  0  0  0  0  0  0  0  0  0  0  0
    3.2167    0.2079    6.5671 C   0  0  0  0  0  0  0  0  0  0  0  0
    3.2550   -0.5336    5.2521 C   0  0  0  0  0  0  0  0  0  0  0  0
    3.4628    0.3906    4.2269 O   0  0  0  0  0  0  0  0  0  0  0  0
   -0.6531    0.3475    7.8525 O   0  0  0  0  0  0  0  0  0  0  0  0
   -0.5438   -0.2661    6.6370 C   0  0  0  0  0  0  0  0  0  0  0  0
   -0.4841   -1.6750    6.6089 C   0  0  0  0  0  0  0  0  0  0  0  0
   -0.3743   -2.4064    5.4691 C   0  0  0  0  0  0  0  0  0  0  0  0
   -0.3139   -1.7829    4.2415 C   0  0  0  0  0  0  0  0  0  0  0  0
   -0.3697   -0.3997    4.2318 C   0  0  0  0  0  0  0  0  0  0  0  0
   -0.4812    0.3257    5.4027 C   0  0  0  0  0  0  0  0  0  0  0  0
   -0.5275    1.6903    5.2966 O   0  0  0  0  0  0  0  0  0  0  0  0
    0.0697    2.4745    4.3160 C   0  0  0  0  0  0  0  0  0  0  0  0
  1  2  1  0
  2  3  1  0
  2  4  1  0
  2  5  1  0
  5  6  2  0
  6  7  1  0
  7  8  2  0
  8  9  1  0
  9 10  2  0
  8 11  1  0
 11 12  2  0
 11 13  2  0
 11 14  1  0
 14 15  1  0
 15 16  1  0
 16 17  2  0
 17 18  1  0
 18 19  2  0
 19 20  1  0
 19 21  1  0
 21 22  2  0
 22 23  1  0
 23 24  2  0
 24 25  1  0
 25 26  2  0
 17 27  1  0
 27 28  1  0
 28 29  1  0
 29 30  1  0
 16 31  1  0
 31 32  1  0
 32 33  2  0
 33 34  1  0
 34 35  2  0
 35 36  1  0
 36 37  2  0
 37 38  1  0
 38 39  1  0
 10  5  1  0
 20 15  2  0
 26 21  1  0
 37 32  1  0
M  END
$$$$
