
     RDKit          3D

 39 42  0  0  0  0  0  0  0  0999 V2000
   -0.7419    0.7655    3.6516 C   0  0  0  0  0  0  0  0  0  0  0  0
    0.5423    0.7791    4.4171 C   0  0  0  0  0  0  0  0  0  0  0  0
    1.0163    2.1832    4.6993 C   0  0  0  0  0  0  0  0  0  0  0  0
    1.6165    0.0051    3.6677 C   0  0  0  0  0  0  0  0  0  0  0  0
    0.3617    0.1032    5.7226 C   0  0  0  0  0  0  0  0  0  0  0  0
   -0.8909   -0.2966    6.1324 C   0  0  0  0  0  0  0  0  0  0  0  0
   -1.0236   -0.9299    7.3668 C   0  0  0  0  0  0  0  0  0  0  0  0
    0.0710   -1.1555    8.1684 C   0  0  0  0  0  0  0  0  0  0  0  0
    1.3140   -0.7482    7.7403 C   0  0  0  0  0  0  0  0  0  0  0  0
    1.4695   -0.1134    6.5094 C   0  0  0  0  0  0  0  0  0  0  0  0
   -0.0854   -1.9338    9.7105 S   0  0  0  0  0  6  0  0  0  0  0  0
   -0.7879   -3.2615    9.5869 O   0  0  0  0  0  0  0  0  0  0  0  0
    1.3147   -2.2013   10.2479 O   0  0  0  0  0  0  0  0  0  0  0  0
   -0.9076   -0.8959   10.8119 N   0  0  0  0  0  0  0  0  0  0  0  0
   -0.4118    0.3858   11.1095 C   0  0  0  0  0  0  0  0  0  0  0  0
   -1.3172    1.3849   11.4436 C   0  0  0  0  0  0  0  0  0  0  0  0
   -0.7870    2.6294   11.7413 C   0  0  0  0  0  0  0  0  0  0  0  0
    0.5290    2.8500   11.7038 N   0  0  0  0  0  0  0  0  0  0  0  0
    1.4303    1.8783   11.3756 C   0  0  0  0  0  0  0  0  0  0  0  0
    0.8969    0.6898   11.0954 N   0  0  0  0  0  0  0  0  0  0  0  0
    2.8548    2.1800   11.3480 C   0  0  0  0  0  0  0  0  0  0  0  0
    3.7334    1.3304   10.8156 N   0  0  0  0  0  0  0  0  0  0  0  0
    5.0537    1.6041   10.7834 C   0  0  0  0  0  0  0  0  0  0  0  0
    5.5198    2.7903   11.3115 C   0  0  0  0  0  0  0  0  0  0  0  0
    4.6052    3.6645   11.8606 C   0  0  0  0  0  0  0  0  0  0  0  0
    3.3048    3.3325   11.8615 N   0  0  0  0  0  0  0  0  0  0  0  0
   -1.6661    3.6642   12.0913 O   0  0  0  0  0  0  0  0  0  0  0  0
   -1.3986    4.5275   13.1742 C   0  0  0  0  0  0  0  0  0  0  0  0
   -0.1731    4.0329   13.9052 C   0  0  0  0  0  0  0  0  0  0  0  0
   -0.2609    4.4318   15.2400 O   0  0  0  0  0  0  0  0  0  0  0  0
   -2.6689    1.2303   11.5011 O   0  0  0  0  0  0  0  0  0  0  0  0
   -3.4375    0.1491   11.8270 C   0  0  0  0  0  0  0  0  0  0  0  0
   -3.7192   -0.7929   10.8157 C   0  0  0  0  0  0  0  0  0  0  0  0
   -4.4702   -1.9088   11.0072 C   0  0  0  0  0  0  0  0  0  0  0  0
   -5.0123   -2.1828   12.2444 C   0  0  0  0  0  0  0  0  0  0  0  0
   -4.7560   -1.2787   13.2610 C   0  0  0  0  0  0  0  0  0  0  0  0
   -3.9895   -0.1493   13.0453 C   0  0  0  0  0  0  0  0  0  0  0  0
   -3.7903    0.6897   14.1091 O   0  0  0  0  0  0  0  0  0  0  0  0
   -4.6874    0.9700   15.1337 C   0  0  0  0  0  0  0  0  0  0  0  0
  1  2  1  0
  2  3  1  0
  2  4  1  0
  2  5  1  0
  5  6  2  0
  6  7  1  0
  7  8  2  0
  8  9  1  0
  9 10  2  0
  8 11  1  0
 11 12  2  0
 11 13  2  0
 11 14  1  0
 14 15  1  0
 15 16  1  0
 16 17  2  0
 17 18  1  0
 18 19  2  0
 19 20  1  0
 19 21  1  0
 21 22  2  0
 22 23  1  0
 23 24  2  0
 24 25  1  0
 25 26  2  0
 17 27  1  0
 27 28  1  0
 28 29  1  0
 29 30  1  0
 16 31  1  0
 31 32  1  0
 32 33  2  0
 33 34  1  0
 34 35  2  0
 35 36  1  0
 36 37  2  0
 37 38  1  0
 38 39  1  0
 10  5  1  0
 20 15  2  0
 26 21  1  0
 37 32  1  0
M  END
$$$$
