
     RDKit          3D

 39 42  0  0  0  0  0  0  0  0999 V2000
    5.1179    2.6307   10.1990 C   0  0  0  0  0  0  0  0  0  0  0  0
    3.9740    3.1703   10.9962 C   0  0  0  0  0  0  0  0  0  0  0  0
    3.2629    4.2895   10.2768 C   0  0  0  0  0  0  0  0  0  0  0  0
    4.4533    3.6460   12.3595 C   0  0  0  0  0  0  0  0  0  0  0  0
    2.9789    2.1014   11.2429 C   0  0  0  0  0  0  0  0  0  0  0  0
    1.7512    2.4053   11.7882 C   0  0  0  0  0  0  0  0  0  0  0  0
    0.8392    1.3743   12.0066 C   0  0  0  0  0  0  0  0  0  0  0  0
    1.1509    0.0735   11.6867 C   0  0  0  0  0  0  0  0  0  0  0  0
    2.3831   -0.2090   11.1426 C   0  0  0  0  0  0  0  0  0  0  0  0
    3.3101    0.8067   10.9157 C   0  0  0  0  0  0  0  0  0  0  0  0
    0.0265   -1.2177   11.9638 S   0  0  0  0  0  6  0  0  0  0  0  0
    0.6864   -2.5637   11.8076 O   0  0  0  0  0  0  0  0  0  0  0  0
   -0.4691   -1.1112   13.4003 O   0  0  0  0  0  0  0  0  0  0  0  0
   -1.3221   -1.0602   10.9043 N   0  0  0  0  0  0  0  0  0  0  0  0
   -1.1424   -0.8034    9.5336 C   0  0  0  0  0  0  0  0  0  0  0  0
   -2.2613   -0.5196    8.7607 C   0  0  0  0  0  0  0  0  0  0  0  0
   -2.0395   -0.2608    7.4182 C   0  0  0  0  0  0  0  0  0  0  0  0
   -0.8094   -0.2875    6.9004 N   0  0  0  0  0  0  0  0  0  0  0  0
    0.2990   -0.5664    7.6473 C   0  0  0  0  0  0  0  0  0  0  0  0
    0.0608   -0.8099    8.9356 N   0  0  0  0  0  0  0  0  0  0  0  0
    1.6157   -0.5848    7.0251 C   0  0  0  0  0  0  0  0  0  0  0  0
    1.7773   -0.2888    5.7354 N   0  0  0  0  0  0  0  0  0  0  0  0
    2.9938   -0.3006    5.1528 C   0  0  0  0  0  0  0  0  0  0  0  0
    4.1072   -0.6255    5.8997 C   0  0  0  0  0  0  0  0  0  0  0  0
    3.9325   -0.9305    7.2334 C   0  0  0  0  0  0  0  0  0  0  0  0
    2.6952   -0.9006    7.7526 N   0  0  0  0  0  0  0  0  0  0  0  0
   -3.1413    0.0378    6.6040 O   0  0  0  0  0  0  0  0  0  0  0  0
   -2.9965    0.7512    5.3958 C   0  0  0  0  0  0  0  0  0  0  0  0
   -4.3211    0.7623    4.6706 C   0  0  0  0  0  0  0  0  0  0  0  0
   -5.3439    0.8624    5.6152 O   0  0  0  0  0  0  0  0  0  0  0  0
   -3.5417   -0.4759    9.2220 O   0  0  0  0  0  0  0  0  0  0  0  0
   -4.0623    0.0150   10.3856 C   0  0  0  0  0  0  0  0  0  0  0  0
   -4.2246    1.4112   10.5020 C   0  0  0  0  0  0  0  0  0  0  0  0
   -4.7287    2.0264   11.6035 C   0  0  0  0  0  0  0  0  0  0  0  0
   -5.1198    1.2878   12.6994 C   0  0  0  0  0  0  0  0  0  0  0  0
   -4.9742   -0.0866   12.6197 C   0  0  0  0  0  0  0  0  0  0  0  0
   -4.4589   -0.6929   11.4899 C   0  0  0  0  0  0  0  0  0  0  0  0
   -4.3497   -2.0579   11.5015 O   0  0  0  0  0  0  0  0  0  0  0  0
   -5.3506   -2.9803   11.2175 C   0  0  0  0  0  0  0  0  0  0  0  0
  1  2  1  0
  2  3  1  0
  2  4  1  0
  2  5  1  0
  5  6  2  0
  6  7  1  0
  7  8  2  0
  8  9  1  0
  9 10  2  0
  8 11  1  0
 11 12  2  0
 11 13  2  0
 11 14  1  0
 14 15  1  0
 15 16  1  0
 16 17  2  0
 17 18  1  0
 18 19  2  0
 19 20  1  0
 19 21  1  0
 21 22  2  0
 22 23  1  0
 23 24  2  0
 24 25  1  0
 25 26  2  0
 17 27  1  0
 27 28  1  0
 28 29  1  0
 29 30  1  0
 16 31  1  0
 31 32  1  0
 32 33  2  0
 33 34  1  0
 34 35  2  0
 35 36  1  0
 36 37  2  0
 37 38  1  0
 38 39  1  0
 10  5  1  0
 20 15  2  0
 26 21  1  0
 37 32  1  0
M  END
$$$$
