
     RDKit          3D

 39 42  0  0  0  0  0  0  0  0999 V2000
    1.4514   -0.2337    3.6615 C   0  0  0  0  0  0  0  0  0  0  0  0
    2.3542    0.1507    4.7894 C   0  0  0  0  0  0  0  0  0  0  0  0
    2.3541    1.6401    5.0300 C   0  0  0  0  0  0  0  0  0  0  0  0
    3.7713   -0.3365    4.5264 C   0  0  0  0  0  0  0  0  0  0  0  0
    1.9054   -0.4990    6.0425 C   0  0  0  0  0  0  0  0  0  0  0  0
    0.8045   -1.3267    6.0421 C   0  0  0  0  0  0  0  0  0  0  0  0
    0.4106   -1.9213    7.2394 C   0  0  0  0  0  0  0  0  0  0  0  0
    1.1026   -1.6913    8.4057 C   0  0  0  0  0  0  0  0  0  0  0  0
    2.1999   -0.8610    8.3845 C   0  0  0  0  0  0  0  0  0  0  0  0
    2.6113   -0.2561    7.1982 C   0  0  0  0  0  0  0  0  0  0  0  0
    0.6143   -2.4188    9.9025 S   0  0  0  0  0  6  0  0  0  0  0  0
    0.2492   -3.8690    9.7151 O   0  0  0  0  0  0  0  0  0  0  0  0
    1.7958   -2.3611   10.8624 O   0  0  0  0  0  0  0  0  0  0  0  0
   -0.6938   -1.5323   10.5876 N   0  0  0  0  0  0  0  0  0  0  0  0
   -0.5512   -0.1760   10.9302 C   0  0  0  0  0  0  0  0  0  0  0  0
   -1.6896    0.5448   11.2682 C   0  0  0  0  0  0  0  0  0  0  0  0
   -1.5041    1.8740   11.6107 C   0  0  0  0  0  0  0  0  0  0  0  0
   -0.2893    2.4276   11.6107 N   0  0  0  0  0  0  0  0  0  0  0  0
    0.8379    1.7319   11.2793 C   0  0  0  0  0  0  0  0  0  0  0  0
    0.6345    0.4554   10.9555 N   0  0  0  0  0  0  0  0  0  0  0  0
    2.1362    2.3915   11.2938 C   0  0  0  0  0  0  0  0  0  0  0  0
    3.2550    1.7266   11.0051 N   0  0  0  0  0  0  0  0  0  0  0  0
    4.4607    2.3312   11.0133 C   0  0  0  0  0  0  0  0  0  0  0  0
    4.5521    3.6715   11.3268 C   0  0  0  0  0  0  0  0  0  0  0  0
    3.3905    4.3531   11.6244 C   0  0  0  0  0  0  0  0  0  0  0  0
    2.2222    3.6931   11.5986 N   0  0  0  0  0  0  0  0  0  0  0  0
   -2.6264    2.6357   11.9661 O   0  0  0  0  0  0  0  0  0  0  0  0
   -3.4721    2.2555   13.0290 C   0  0  0  0  0  0  0  0  0  0  0  0
   -2.9674    2.8831   14.3065 C   0  0  0  0  0  0  0  0  0  0  0  0
   -3.6285    4.0978   14.4960 O   0  0  0  0  0  0  0  0  0  0  0  0
   -2.9561    0.0451   11.2890 O   0  0  0  0  0  0  0  0  0  0  0  0
   -3.8285   -0.2372   10.2765 C   0  0  0  0  0  0  0  0  0  0  0  0
   -3.5996    0.3591    9.0189 C   0  0  0  0  0  0  0  0  0  0  0  0
   -4.3904    0.1625    7.9317 C   0  0  0  0  0  0  0  0  0  0  0  0
   -5.4942   -0.6591    8.0095 C   0  0  0  0  0  0  0  0  0  0  0  0
   -5.7493   -1.2611    9.2298 C   0  0  0  0  0  0  0  0  0  0  0  0
   -4.9324   -1.0477   10.3238 C   0  0  0  0  0  0  0  0  0  0  0  0
   -5.2632   -1.6835   11.4908 O   0  0  0  0  0  0  0  0  0  0  0  0
   -5.9515   -1.1444   12.5718 C   0  0  0  0  0  0  0  0  0  0  0  0
  1  2  1  0
  2  3  1  0
  2  4  1  0
  2  5  1  0
  5  6  2  0
  6  7  1  0
  7  8  2  0
  8  9  1  0
  9 10  2  0
  8 11  1  0
 11 12  2  0
 11 13  2  0
 11 14  1  0
 14 15  1  0
 15 16  1  0
 16 17  2  0
 17 18  1  0
 18 19  2  0
 19 20  1  0
 19 21  1  0
 21 22  2  0
 22 23  1  0
 23 24  2  0
 24 25  1  0
 25 26  2  0
 17 27  1  0
 27 28  1  0
 28 29  1  0
 29 30  1  0
 16 31  1  0
 31 32  1  0
 32 33  2  0
 33 34  1  0
 34 35  2  0
 35 36  1  0
 36 37  2  0
 37 38  1  0
 38 39  1  0
 10  5  1  0
 20 15  2  0
 26 21  1  0
 37 32  1  0
M  END
$$$$
