
     RDKit          3D

 39 42  0  0  0  0  0  0  0  0999 V2000
   -4.1900   -3.2695   14.9266 C   0  0  0  0  0  0  0  0  0  0  0  0
   -3.9794   -1.9859   14.1896 C   0  0  0  0  0  0  0  0  0  0  0  0
   -3.0969   -1.0328   14.9569 C   0  0  0  0  0  0  0  0  0  0  0  0
   -5.3145   -1.3264   13.8776 C   0  0  0  0  0  0  0  0  0  0  0  0
   -3.3197   -2.2496   12.8900 C   0  0  0  0  0  0  0  0  0  0  0  0
   -3.7558   -1.6175   11.7467 C   0  0  0  0  0  0  0  0  0  0  0  0
   -3.1115   -1.8894   10.5412 C   0  0  0  0  0  0  0  0  0  0  0  0
   -2.0582   -2.7720   10.4845 C   0  0  0  0  0  0  0  0  0  0  0  0
   -1.6378   -3.3930   11.6385 C   0  0  0  0  0  0  0  0  0  0  0  0
   -2.2677   -3.1356   12.8547 C   0  0  0  0  0  0  0  0  0  0  0  0
   -1.2564   -3.1245    8.9875 S   0  0  0  0  0  6  0  0  0  0  0  0
   -0.3848   -4.3483    9.1060 O   0  0  0  0  0  0  0  0  0  0  0  0
   -2.3222   -3.4173    7.9392 O   0  0  0  0  0  0  0  0  0  0  0  0
   -0.3422   -1.7580    8.4745 N   0  0  0  0  0  0  0  0  0  0  0  0
    0.2033   -0.8578    9.4069 C   0  0  0  0  0  0  0  0  0  0  0  0
    0.7386    0.3360    8.9399 C   0  0  0  0  0  0  0  0  0  0  0  0
    1.2546    1.1997    9.8919 C   0  0  0  0  0  0  0  0  0  0  0  0
    1.2371    0.8915   11.1906 N   0  0  0  0  0  0  0  0  0  0  0  0
    0.7159   -0.2785   11.6637 C   0  0  0  0  0  0  0  0  0  0  0  0
    0.2240   -1.0918   10.7298 N   0  0  0  0  0  0  0  0  0  0  0  0
    0.7286   -0.5609   13.0924 C   0  0  0  0  0  0  0  0  0  0  0  0
    0.9291    0.4055   13.9885 N   0  0  0  0  0  0  0  0  0  0  0  0
    0.9391    0.1523   15.3133 C   0  0  0  0  0  0  0  0  0  0  0  0
    0.7379   -1.1354   15.7656 C   0  0  0  0  0  0  0  0  0  0  0  0
    0.5311   -2.1301   14.8328 C   0  0  0  0  0  0  0  0  0  0  0  0
    0.5330   -1.8122   13.5289 N   0  0  0  0  0  0  0  0  0  0  0  0
    1.7977    2.4194    9.4635 O   0  0  0  0  0  0  0  0  0  0  0  0
    2.0417    3.4774   10.3640 C   0  0  0  0  0  0  0  0  0  0  0  0
    3.5270    3.5715   10.6198 C   0  0  0  0  0  0  0  0  0  0  0  0
    4.1535    3.9985    9.4478 O   0  0  0  0  0  0  0  0  0  0  0  0
    0.7894    0.7137    7.6327 O   0  0  0  0  0  0  0  0  0  0  0  0
    1.5822    0.2901    6.6041 C   0  0  0  0  0  0  0  0  0  0  0  0
    2.9323   -0.0051    6.8863 C   0  0  0  0  0  0  0  0  0  0  0  0
    3.8250   -0.4333    5.9557 C   0  0  0  0  0  0  0  0  0  0  0  0
    3.4389   -0.6057    4.6439 C   0  0  0  0  0  0  0  0  0  0  0  0
    2.1199   -0.3249    4.3312 C   0  0  0  0  0  0  0  0  0  0  0  0
    1.2277    0.1099    5.2928 C   0  0  0  0  0  0  0  0  0  0  0  0
   -0.0564    0.3652    4.8914 O   0  0  0  0  0  0  0  0  0  0  0  0
   -0.5078    1.4739    4.1841 C   0  0  0  0  0  0  0  0  0  0  0  0
  1  2  1  0
  2  3  1  0
  2  4  1  0
  2  5  1  0
  5  6  2  0
  6  7  1  0
  7  8  2  0
  8  9  1  0
  9 10  2  0
  8 11  1  0
 11 12  2  0
 11 13  2  0
 11 14  1  0
 14 15  1  0
 15 16  1  0
 16 17  2  0
 17 18  1  0
 18 19  2  0
 19 20  1  0
 19 21  1  0
 21 22  2  0
 22 23  1  0
 23 24  2  0
 24 25  1  0
 25 26  2  0
 17 27  1  0
 27 28  1  0
 28 29  1  0
 29 30  1  0
 16 31  1  0
 31 32  1  0
 32 33  2  0
 33 34  1  0
 34 35  2  0
 35 36  1  0
 36 37  2  0
 37 38  1  0
 38 39  1  0
 10  5  1  0
 20 15  2  0
 26 21  1  0
 37 32  1  0
M  END
$$$$
