
     RDKit          3D

 39 42  0  0  0  0  0  0  0  0999 V2000
   -3.5880    1.5343   12.1675 C   0  0  0  0  0  0  0  0  0  0  0  0
   -3.7808    0.0717   11.9252 C   0  0  0  0  0  0  0  0  0  0  0  0
   -4.9198   -0.1972   10.9732 C   0  0  0  0  0  0  0  0  0  0  0  0
   -4.0137   -0.6591   13.2391 C   0  0  0  0  0  0  0  0  0  0  0  0
   -2.5574   -0.5087   11.3252 C   0  0  0  0  0  0  0  0  0  0  0  0
   -2.5957   -1.0644   10.0656 C   0  0  0  0  0  0  0  0  0  0  0  0
   -1.4254   -1.6012    9.5322 C   0  0  0  0  0  0  0  0  0  0  0  0
   -0.2485   -1.5813   10.2438 C   0  0  0  0  0  0  0  0  0  0  0  0
   -0.2316   -1.0212   11.5008 C   0  0  0  0  0  0  0  0  0  0  0  0
   -1.3903   -0.4785   12.0533 C   0  0  0  0  0  0  0  0  0  0  0  0
    1.2107   -2.2557    9.5926 S   0  0  0  0  0  6  0  0  0  0  0  0
    2.2796   -2.3748   10.6484 O   0  0  0  0  0  0  0  0  0  0  0  0
    0.8987   -3.6602    9.0920 O   0  0  0  0  0  0  0  0  0  0  0  0
    1.7544   -1.3065    8.2623 N   0  0  0  0  0  0  0  0  0  0  0  0
    2.0404    0.0617    8.4155 C   0  0  0  0  0  0  0  0  0  0  0  0
    1.9609    0.8839    7.2987 C   0  0  0  0  0  0  0  0  0  0  0  0
    2.2385    2.2266    7.4949 C   0  0  0  0  0  0  0  0  0  0  0  0
    2.5679    2.6983    8.6996 N   0  0  0  0  0  0  0  0  0  0  0  0
    2.6515    1.9019    9.8055 C   0  0  0  0  0  0  0  0  0  0  0  0
    2.3783    0.6152    9.5922 N   0  0  0  0  0  0  0  0  0  0  0  0
    3.0198    2.4735   11.0933 C   0  0  0  0  0  0  0  0  0  0  0  0
    3.1472    1.7110   12.1794 N   0  0  0  0  0  0  0  0  0  0  0  0
    3.4911    2.2326   13.3749 C   0  0  0  0  0  0  0  0  0  0  0  0
    3.7195    3.5882   13.4900 C   0  0  0  0  0  0  0  0  0  0  0  0
    3.5858    4.3709   12.3622 C   0  0  0  0  0  0  0  0  0  0  0  0
    3.2411    3.7902   11.2024 N   0  0  0  0  0  0  0  0  0  0  0  0
    2.1621    3.0928    6.3950 O   0  0  0  0  0  0  0  0  0  0  0  0
    2.3693    4.4814    6.5311 C   0  0  0  0  0  0  0  0  0  0  0  0
    3.1851    4.9732    5.3592 C   0  0  0  0  0  0  0  0  0  0  0  0
    2.7553    4.3093    4.2090 O   0  0  0  0  0  0  0  0  0  0  0  0
    1.6320    0.4711    6.0435 O   0  0  0  0  0  0  0  0  0  0  0  0
    0.4271    0.4129    5.4025 C   0  0  0  0  0  0  0  0  0  0  0  0
   -0.7427    0.3982    6.1904 C   0  0  0  0  0  0  0  0  0  0  0  0
   -2.0002    0.3412    5.6791 C   0  0  0  0  0  0  0  0  0  0  0  0
   -2.1992    0.2933    4.3161 C   0  0  0  0  0  0  0  0  0  0  0  0
   -1.0723    0.3058    3.5121 C   0  0  0  0  0  0  0  0  0  0  0  0
    0.1983    0.3639    4.0523 C   0  0  0  0  0  0  0  0  0  0  0  0
    1.2541    0.3700    3.1802 O   0  0  0  0  0  0  0  0  0  0  0  0
    1.6417    1.4096    2.3421 C   0  0  0  0  0  0  0  0  0  0  0  0
  1  2  1  0
  2  3  1  0
  2  4  1  0
  2  5  1  0
  5  6  2  0
  6  7  1  0
  7  8  2  0
  8  9  1  0
  9 10  2  0
  8 11  1  0
 11 12  2  0
 11 13  2  0
 11 14  1  0
 14 15  1  0
 15 16  1  0
 16 17  2  0
 17 18  1  0
 18 19  2  0
 19 20  1  0
 19 21  1  0
 21 22  2  0
 22 23  1  0
 23 24  2  0
 24 25  1  0
 25 26  2  0
 17 27  1  0
 27 28  1  0
 28 29  1  0
 29 30  1  0
 16 31  1  0
 31 32  1  0
 32 33  2  0
 33 34  1  0
 34 35  2  0
 35 36  1  0
 36 37  2  0
 37 38  1  0
 38 39  1  0
 10  5  1  0
 20 15  2  0
 26 21  1  0
 37 32  1  0
M  END
$$$$
