
     RDKit          3D

 39 42  0  0  0  0  0  0  0  0999 V2000
   -2.8988    4.1811   14.6196 C   0  0  0  0  0  0  0  0  0  0  0  0
   -3.0784    3.5800   13.2625 C   0  0  0  0  0  0  0  0  0  0  0  0
   -3.5471    4.5975   12.2521 C   0  0  0  0  0  0  0  0  0  0  0  0
   -4.0541    2.4142   13.3219 C   0  0  0  0  0  0  0  0  0  0  0  0
   -1.7907    3.0343   12.7750 C   0  0  0  0  0  0  0  0  0  0  0  0
   -1.2700    1.8832   13.3234 C   0  0  0  0  0  0  0  0  0  0  0  0
   -0.0561    1.3982   12.8401 C   0  0  0  0  0  0  0  0  0  0  0  0
    0.6171    2.0508   11.8338 C   0  0  0  0  0  0  0  0  0  0  0  0
    0.0795    3.1995   11.2992 C   0  0  0  0  0  0  0  0  0  0  0  0
   -1.1332    3.7019   11.7675 C   0  0  0  0  0  0  0  0  0  0  0  0
    2.1331    1.4606   11.2325 S   0  0  0  0  0  6  0  0  0  0  0  0
    3.1936    2.5309   11.2712 O   0  0  0  0  0  0  0  0  0  0  0  0
    2.5905    0.3254   12.1395 O   0  0  0  0  0  0  0  0  0  0  0  0
    1.9323    0.8425    9.6375 N   0  0  0  0  0  0  0  0  0  0  0  0
    0.8066    0.0734    9.2934 C   0  0  0  0  0  0  0  0  0  0  0  0
    0.3354    0.1363    7.9882 C   0  0  0  0  0  0  0  0  0  0  0  0
   -0.7677   -0.6456    7.6876 C   0  0  0  0  0  0  0  0  0  0  0  0
   -1.3449   -1.4159    8.6125 N   0  0  0  0  0  0  0  0  0  0  0  0
   -0.8939   -1.4865    9.8993 C   0  0  0  0  0  0  0  0  0  0  0  0
    0.1690   -0.7274   10.1637 N   0  0  0  0  0  0  0  0  0  0  0  0
   -1.5678   -2.3428   10.8656 C   0  0  0  0  0  0  0  0  0  0  0  0
   -2.6204   -3.0842   10.5195 N   0  0  0  0  0  0  0  0  0  0  0  0
   -3.2478   -3.8820   11.4079 C   0  0  0  0  0  0  0  0  0  0  0  0
   -2.7988   -3.9413   12.7109 C   0  0  0  0  0  0  0  0  0  0  0  0
   -1.7094   -3.1716   13.0617 C   0  0  0  0  0  0  0  0  0  0  0  0
   -1.1298   -2.3986   12.1302 N   0  0  0  0  0  0  0  0  0  0  0  0
   -1.2707   -0.6173    6.3791 O   0  0  0  0  0  0  0  0  0  0  0  0
   -2.5594   -1.1013    6.0713 C   0  0  0  0  0  0  0  0  0  0  0  0
   -3.2252   -0.1469    5.1088 C   0  0  0  0  0  0  0  0  0  0  0  0
   -4.6077   -0.3158    5.2007 O   0  0  0  0  0  0  0  0  0  0  0  0
    0.8739    0.8986    6.9966 O   0  0  0  0  0  0  0  0  0  0  0  0
    1.8880    0.6452    6.1172 C   0  0  0  0  0  0  0  0  0  0  0  0
    2.5711   -0.5837    6.2297 C   0  0  0  0  0  0  0  0  0  0  0  0
    3.5965   -0.9576    5.4205 C   0  0  0  0  0  0  0  0  0  0  0  0
    4.0334   -0.1229    4.4145 C   0  0  0  0  0  0  0  0  0  0  0  0
    3.3851    1.0923    4.2755 C   0  0  0  0  0  0  0  0  0  0  0  0
    2.3441    1.4539    5.1094 C   0  0  0  0  0  0  0  0  0  0  0  0
    1.7635    2.6761    4.8989 O   0  0  0  0  0  0  0  0  0  0  0  0
    0.8495    3.0088    3.9053 C   0  0  0  0  0  0  0  0  0  0  0  0
  1  2  1  0
  2  3  1  0
  2  4  1  0
  2  5  1  0
  5  6  2  0
  6  7  1  0
  7  8  2  0
  8  9  1  0
  9 10  2  0
  8 11  1  0
 11 12  2  0
 11 13  2  0
 11 14  1  0
 14 15  1  0
 15 16  1  0
 16 17  2  0
 17 18  1  0
 18 19  2  0
 19 20  1  0
 19 21  1  0
 21 22  2  0
 22 23  1  0
 23 24  2  0
 24 25  1  0
 25 26  2  0
 17 27  1  0
 27 28  1  0
 28 29  1  0
 29 30  1  0
 16 31  1  0
 31 32  1  0
 32 33  2  0
 33 34  1  0
 34 35  2  0
 35 36  1  0
 36 37  2  0
 37 38  1  0
 38 39  1  0
 10  5  1  0
 20 15  2  0
 26 21  1  0
 37 32  1  0
M  END
$$$$
