
     RDKit          3D

 39 42  0  0  0  0  0  0  0  0999 V2000
    0.2296   -5.5285   11.6825 C   0  0  0  0  0  0  0  0  0  0  0  0
   -0.8020   -4.9425   12.5922 C   0  0  0  0  0  0  0  0  0  0  0  0
   -0.2759   -4.7510   13.9930 C   0  0  0  0  0  0  0  0  0  0  0  0
   -2.0478   -5.8154   12.6161 C   0  0  0  0  0  0  0  0  0  0  0  0
   -1.2221   -3.6129   12.0927 C   0  0  0  0  0  0  0  0  0  0  0  0
   -0.7192   -3.1234   10.9077 C   0  0  0  0  0  0  0  0  0  0  0  0
   -1.1367   -1.8685   10.4680 C   0  0  0  0  0  0  0  0  0  0  0  0
   -2.0345   -1.1249   11.1980 C   0  0  0  0  0  0  0  0  0  0  0  0
   -2.5252   -1.6324   12.3794 C   0  0  0  0  0  0  0  0  0  0  0  0
   -2.1213   -2.8850   12.8376 C   0  0  0  0  0  0  0  0  0  0  0  0
   -2.5525    0.4419   10.6641 S   0  0  0  0  0  6  0  0  0  0  0  0
   -3.8995    0.3754    9.9914 O   0  0  0  0  0  0  0  0  0  0  0  0
   -2.6931    1.3351   11.8901 O   0  0  0  0  0  0  0  0  0  0  0  0
   -1.3686    1.1275    9.6179 N   0  0  0  0  0  0  0  0  0  0  0  0
   -0.0772    1.4317   10.0835 C   0  0  0  0  0  0  0  0  0  0  0  0
    0.9513    1.5453    9.1565 C   0  0  0  0  0  0  0  0  0  0  0  0
    2.2051    1.8577    9.6552 C   0  0  0  0  0  0  0  0  0  0  0  0
    2.4072    2.0363   10.9626 N   0  0  0  0  0  0  0  0  0  0  0  0
    1.4066    1.9262   11.8850 C   0  0  0  0  0  0  0  0  0  0  0  0
    0.2097    1.6271   11.3814 N   0  0  0  0  0  0  0  0  0  0  0  0
    1.6890    2.1285   13.2994 C   0  0  0  0  0  0  0  0  0  0  0  0
    2.8665    2.5991   13.7109 N   0  0  0  0  0  0  0  0  0  0  0  0
    3.1344    2.7921   15.0187 C   0  0  0  0  0  0  0  0  0  0  0  0
    2.1740    2.4990   15.9646 C   0  0  0  0  0  0  0  0  0  0  0  0
    0.9582    2.0125   15.5315 C   0  0  0  0  0  0  0  0  0  0  0  0
    0.7547    1.8430   14.2158 N   0  0  0  0  0  0  0  0  0  0  0  0
    3.2699    1.9894    8.7523 O   0  0  0  0  0  0  0  0  0  0  0  0
    4.5845    2.2503    9.1919 C   0  0  0  0  0  0  0  0  0  0  0  0
    4.8920    3.7134    8.9788 C   0  0  0  0  0  0  0  0  0  0  0  0
    5.5216    4.2063   10.1229 O   0  0  0  0  0  0  0  0  0  0  0  0
    0.8166    1.3764    7.8121 O   0  0  0  0  0  0  0  0  0  0  0  0
    0.9831    0.2740    7.0228 C   0  0  0  0  0  0  0  0  0  0  0  0
    1.3391   -0.9400    7.6465 C   0  0  0  0  0  0  0  0  0  0  0  0
    1.5355   -2.1064    6.9779 C   0  0  0  0  0  0  0  0  0  0  0  0
    1.3908   -2.1602    5.6084 C   0  0  0  0  0  0  0  0  0  0  0  0
    1.0420   -0.9860    4.9632 C   0  0  0  0  0  0  0  0  0  0  0  0
    0.8469    0.1902    5.6618 C   0  0  0  0  0  0  0  0  0  0  0  0
    0.5057    1.3027    4.9399 O   0  0  0  0  0  0  0  0  0  0  0  0
   -0.6358    1.4811    4.1662 C   0  0  0  0  0  0  0  0  0  0  0  0
  1  2  1  0
  2  3  1  0
  2  4  1  0
  2  5  1  0
  5  6  2  0
  6  7  1  0
  7  8  2  0
  8  9  1  0
  9 10  2  0
  8 11  1  0
 11 12  2  0
 11 13  2  0
 11 14  1  0
 14 15  1  0
 15 16  1  0
 16 17  2  0
 17 18  1  0
 18 19  2  0
 19 20  1  0
 19 21  1  0
 21 22  2  0
 22 23  1  0
 23 24  2  0
 24 25  1  0
 25 26  2  0
 17 27  1  0
 27 28  1  0
 28 29  1  0
 29 30  1  0
 16 31  1  0
 31 32  1  0
 32 33  2  0
 33 34  1  0
 34 35  2  0
 35 36  1  0
 36 37  2  0
 37 38  1  0
 38 39  1  0
 10  5  1  0
 20 15  2  0
 26 21  1  0
 37 32  1  0
M  END
$$$$
