
     RDKit          3D

 39 42  0  0  0  0  0  0  0  0999 V2000
   -5.8522    1.7014    7.4335 C   0  0  0  0  0  0  0  0  0  0  0  0
   -4.8102    0.7917    6.8664 C   0  0  0  0  0  0  0  0  0  0  0  0
   -3.7430    1.5524    6.1191 C   0  0  0  0  0  0  0  0  0  0  0  0
   -5.4486   -0.2456    5.9547 C   0  0  0  0  0  0  0  0  0  0  0  0
   -4.1397    0.0464    7.9568 C   0  0  0  0  0  0  0  0  0  0  0  0
   -4.5619    0.1893    9.2599 C   0  0  0  0  0  0  0  0  0  0  0  0
   -3.9079   -0.5274   10.2604 C   0  0  0  0  0  0  0  0  0  0  0  0
   -2.8584   -1.3646    9.9613 C   0  0  0  0  0  0  0  0  0  0  0  0
   -2.4521   -1.4933    8.6526 C   0  0  0  0  0  0  0  0  0  0  0  0
   -3.0921   -0.7861    7.6365 C   0  0  0  0  0  0  0  0  0  0  0  0
   -2.0318   -2.2530   11.2005 S   0  0  0  0  0  6  0  0  0  0  0  0
   -2.7688   -2.1801   12.5131 O   0  0  0  0  0  0  0  0  0  0  0  0
   -1.9838   -3.7163   10.7794 O   0  0  0  0  0  0  0  0  0  0  0  0
   -0.4176   -1.6744   11.3612 N   0  0  0  0  0  0  0  0  0  0  0  0
   -0.1570   -0.3497   11.7540 C   0  0  0  0  0  0  0  0  0  0  0  0
    0.7342    0.4019   10.9986 C   0  0  0  0  0  0  0  0  0  0  0  0
    0.9538    1.7054   11.4123 C   0  0  0  0  0  0  0  0  0  0  0  0
    0.3381    2.2057   12.4859 N   0  0  0  0  0  0  0  0  0  0  0  0
   -0.5388    1.4785   13.2386 C   0  0  0  0  0  0  0  0  0  0  0  0
   -0.7352    0.2287   12.8201 N   0  0  0  0  0  0  0  0  0  0  0  0
   -1.1773    2.0779   14.4022 C   0  0  0  0  0  0  0  0  0  0  0  0
   -0.8466    3.2991   14.8224 N   0  0  0  0  0  0  0  0  0  0  0  0
   -1.4357    3.8622   15.8972 C   0  0  0  0  0  0  0  0  0  0  0  0
   -2.4066    3.1673   16.5881 C   0  0  0  0  0  0  0  0  0  0  0  0
   -2.7436    1.9044   16.1477 C   0  0  0  0  0  0  0  0  0  0  0  0
   -2.1198    1.4009   15.0713 N   0  0  0  0  0  0  0  0  0  0  0  0
    1.8405    2.5011   10.6729 O   0  0  0  0  0  0  0  0  0  0  0  0
    2.1917    3.8017   11.0909 C   0  0  0  0  0  0  0  0  0  0  0  0
    3.3295    4.3024   10.2334 C   0  0  0  0  0  0  0  0  0  0  0  0
    4.2892    4.8835   11.0638 O   0  0  0  0  0  0  0  0  0  0  0  0
    1.3959   -0.0436    9.8951 O   0  0  0  0  0  0  0  0  0  0  0  0
    2.6340   -0.6031    9.7534 C   0  0  0  0  0  0  0  0  0  0  0  0
    3.5251   -0.5254   10.8439 C   0  0  0  0  0  0  0  0  0  0  0  0
    4.7829   -1.0391   10.8330 C   0  0  0  0  0  0  0  0  0  0  0  0
    5.2650   -1.6841    9.7145 C   0  0  0  0  0  0  0  0  0  0  0  0
    4.4166   -1.7785    8.6246 C   0  0  0  0  0  0  0  0  0  0  0  0
    3.1406   -1.2489    8.6560 C   0  0  0  0  0  0  0  0  0  0  0  0
    2.3727   -1.3880    7.5307 O   0  0  0  0  0  0  0  0  0  0  0  0
    2.2179   -2.5344    6.7592 C   0  0  0  0  0  0  0  0  0  0  0  0
  1  2  1  0
  2  3  1  0
  2  4  1  0
  2  5  1  0
  5  6  2  0
  6  7  1  0
  7  8  2  0
  8  9  1  0
  9 10  2  0
  8 11  1  0
 11 12  2  0
 11 13  2  0
 11 14  1  0
 14 15  1  0
 15 16  1  0
 16 17  2  0
 17 18  1  0
 18 19  2  0
 19 20  1  0
 19 21  1  0
 21 22  2  0
 22 23  1  0
 23 24  2  0
 24 25  1  0
 25 26  2  0
 17 27  1  0
 27 28  1  0
 28 29  1  0
 29 30  1  0
 16 31  1  0
 31 32  1  0
 32 33  2  0
 33 34  1  0
 34 35  2  0
 35 36  1  0
 36 37  2  0
 37 38  1  0
 38 39  1  0
 10  5  1  0
 20 15  2  0
 26 21  1  0
 37 32  1  0
M  END
$$$$
