
     RDKit          3D

 19 21  0  0  0  0  0  0  0  0999 V2000
   -0.2441    1.9925    5.8325 O   0  0  0  0  0  0  0  0  0  0  0  0
    0.5465    0.8779    5.5957 C   0  0  0  0  0  0  0  0  0  0  0  0
    0.1919   -0.2747    6.5020 C   0  0  1  0  0  0  0  0  0  0  0  0
   -0.1227    0.1760    7.7840 O   0  0  0  0  0  0  0  0  0  0  0  0
   -0.8338   -0.8337    8.4047 C   0  0  2  0  0  0  0  0  0  0  0  0
   -1.4450   -1.6898    7.3658 C   0  0  1  0  0  0  0  0  0  0  0  0
   -1.1153   -0.9125    6.0844 C   0  0  2  0  0  0  0  0  0  0  0  0
   -0.9572   -1.7769    5.0111 O   0  0  0  0  0  0  0  0  0  0  0  0
   -0.7508   -2.9042    7.2533 O   0  0  0  0  0  0  0  0  0  0  0  0
   -1.7476   -0.3024    9.3746 N   0  0  0  0  0  0  0  0  0  0  0  0
   -2.0942    1.0051    9.3968 C   0  0  0  0  0  0  0  0  0  0  0  0
   -2.9548    1.1831   10.4110 N   0  0  0  0  0  0  0  0  0  0  0  0
   -3.1487    0.0106   11.0185 C   0  0  0  0  0  0  0  0  0  0  0  0
   -2.3901   -0.9408   10.3729 C   0  0  0  0  0  0  0  0  0  0  0  0
   -2.3864   -2.2244   10.7694 N   0  0  0  0  0  0  0  0  0  0  0  0
   -3.1491   -2.5895   11.8317 C   0  0  0  0  0  0  0  0  0  0  0  0
   -3.8925   -1.6747   12.4699 N   0  0  0  0  0  0  0  0  0  0  0  0
   -3.9139   -0.3955   12.0967 C   0  0  0  0  0  0  0  0  0  0  0  0
   -4.6975    0.5857   12.7641 N   0  0  0  0  0  0  0  0  0  0  0  0
  1  2  1  0
  3  2  1  6
  3  4  1  0
  4  5  1  0
  5  6  1  0
  6  7  1  0
  7  8  1  6
  6  9  1  6
  5 10  1  1
 10 11  1  0
 11 12  2  0
 12 13  1  0
 13 14  2  0
 14 15  1  0
 15 16  2  0
 16 17  1  0
 17 18  2  0
 18 19  1  0
  7  3  1  0
 14 10  1  0
 18 13  1  0
M  END
$$$$
