
     RDKit          3D

 19 21  0  0  0  0  0  0  0  0999 V2000
   -0.2055    1.9537    5.8800 O   0  0  0  0  0  0  0  0  0  0  0  0
    0.4677    0.7852    5.5558 C   0  0  0  0  0  0  0  0  0  0  0  0
    0.1730   -0.3301    6.5279 C   0  0  1  0  0  0  0  0  0  0  0  0
   -0.1152    0.1751    7.7957 O   0  0  0  0  0  0  0  0  0  0  0  0
   -0.7787   -0.8211    8.4870 C   0  0  2  0  0  0  0  0  0  0  0  0
   -1.3969   -1.7434    7.5108 C   0  0  1  0  0  0  0  0  0  0  0  0
   -1.1279   -1.0220    6.1833 C   0  0  2  0  0  0  0  0  0  0  0  0
   -0.9783   -1.9341    5.1489 O   0  0  0  0  0  0  0  0  0  0  0  0
   -0.6727   -2.9432    7.4357 O   0  0  0  0  0  0  0  0  0  0  0  0
   -1.6773   -0.2667    9.4583 N   0  0  0  0  0  0  0  0  0  0  0  0
   -1.9949    1.0482    9.4775 C   0  0  0  0  0  0  0  0  0  0  0  0
   -2.8479    1.2482   10.4940 N   0  0  0  0  0  0  0  0  0  0  0  0
   -3.0655    0.0822   11.1058 C   0  0  0  0  0  0  0  0  0  0  0  0
   -2.3303   -0.8877   10.4607 C   0  0  0  0  0  0  0  0  0  0  0  0
   -2.3535   -2.1699   10.8612 N   0  0  0  0  0  0  0  0  0  0  0  0
   -3.1204   -2.5148   11.9273 C   0  0  0  0  0  0  0  0  0  0  0  0
   -3.8413   -1.5818   12.5651 N   0  0  0  0  0  0  0  0  0  0  0  0
   -3.8358   -0.3036   12.1878 C   0  0  0  0  0  0  0  0  0  0  0  0
   -4.5952    0.6967   12.8547 N   0  0  0  0  0  0  0  0  0  0  0  0
  1  2  1  0
  3  2  1  6
  3  4  1  0
  4  5  1  0
  5  6  1  0
  6  7  1  0
  7  8  1  6
  6  9  1  6
  5 10  1  1
 10 11  1  0
 11 12  2  0
 12 13  1  0
 13 14  2  0
 14 15  1  0
 15 16  2  0
 16 17  1  0
 17 18  2  0
 18 19  1  0
  7  3  1  0
 14 10  1  0
 18 13  1  0
M  END
$$$$
