
     RDKit          3D

 19 21  0  0  0  0  0  0  0  0999 V2000
   -0.2131    1.9265    5.7767 O   0  0  0  0  0  0  0  0  0  0  0  0
    0.5885    0.8091    5.5962 C   0  0  0  0  0  0  0  0  0  0  0  0
    0.1632   -0.3440    6.4709 C   0  0  1  0  0  0  0  0  0  0  0  0
   -0.1754    0.0973    7.7500 O   0  0  0  0  0  0  0  0  0  0  0  0
   -0.9423   -0.8952    8.3307 C   0  0  2  0  0  0  0  0  0  0  0  0
   -1.5511   -1.7111    7.2586 C   0  0  1  0  0  0  0  0  0  0  0  0
   -1.1525   -0.9259    6.0017 C   0  0  2  0  0  0  0  0  0  0  0  0
   -0.9921   -1.7782    4.9190 O   0  0  0  0  0  0  0  0  0  0  0  0
   -0.8986   -2.9485    7.1468 O   0  0  0  0  0  0  0  0  0  0  0  0
   -1.8665   -0.3460    9.2807 N   0  0  0  0  0  0  0  0  0  0  0  0
   -2.2392    0.9542    9.2538 C   0  0  0  0  0  0  0  0  0  0  0  0
   -3.1031    1.1531   10.2613 N   0  0  0  0  0  0  0  0  0  0  0  0
   -3.2734    0.0007   10.9128 C   0  0  0  0  0  0  0  0  0  0  0  0
   -2.4960   -0.9590   10.3028 C   0  0  0  0  0  0  0  0  0  0  0  0
   -2.4665   -2.2264   10.7475 N   0  0  0  0  0  0  0  0  0  0  0  0
   -3.2217   -2.5664   11.8235 C   0  0  0  0  0  0  0  0  0  0  0  0
   -3.9832   -1.6432   12.4273 N   0  0  0  0  0  0  0  0  0  0  0  0
   -4.0302   -0.3797   12.0061 C   0  0  0  0  0  0  0  0  0  0  0  0
   -4.8332    0.6102   12.6367 N   0  0  0  0  0  0  0  0  0  0  0  0
  1  2  1  0
  3  2  1  6
  3  4  1  0
  4  5  1  0
  5  6  1  0
  6  7  1  0
  7  8  1  6
  6  9  1  6
  5 10  1  6
 10 11  1  0
 11 12  2  0
 12 13  1  0
 13 14  2  0
 14 15  1  0
 15 16  2  0
 16 17  1  0
 17 18  2  0
 18 19  1  0
  7  3  1  0
 14 10  1  0
 18 13  1  0
M  END
$$$$
