
     RDKit          3D

 19 21  0  0  0  0  0  0  0  0999 V2000
   -0.5828    1.7812    5.5958 O   0  0  0  0  0  0  0  0  0  0  0  0
    0.2106    0.6771    5.3214 C   0  0  0  0  0  0  0  0  0  0  0  0
    0.0006   -0.4366    6.3170 C   0  0  1  0  0  0  0  0  0  0  0  0
   -0.1972    0.0714    7.6008 O   0  0  0  0  0  0  0  0  0  0  0  0
   -0.7971   -0.9281    8.3435 C   0  0  2  0  0  0  0  0  0  0  0  0
   -1.4771   -1.8608    7.4197 C   0  0  1  0  0  0  0  0  0  0  0  0
   -1.3154   -1.1428    6.0731 C   0  0  2  0  0  0  0  0  0  0  0  0
   -1.2341   -2.0580    5.0338 O   0  0  0  0  0  0  0  0  0  0  0  0
   -0.7485   -3.0537    7.2952 O   0  0  0  0  0  0  0  0  0  0  0  0
   -1.6262   -0.3782    9.3771 N   0  0  0  0  0  0  0  0  0  0  0  0
   -1.7655    0.9557    9.5551 C   0  0  0  0  0  0  0  0  0  0  0  0
   -2.5974    1.1455   10.5909 N   0  0  0  0  0  0  0  0  0  0  0  0
   -2.9769   -0.0455   11.0589 C   0  0  0  0  0  0  0  0  0  0  0  0
   -2.3694   -1.0212   10.2996 C   0  0  0  0  0  0  0  0  0  0  0  0
   -2.5690   -2.3272   10.5433 N   0  0  0  0  0  0  0  0  0  0  0  0
   -3.3891   -2.6910   11.5625 C   0  0  0  0  0  0  0  0  0  0  0  0
   -3.9871   -1.7526   12.3099 N   0  0  0  0  0  0  0  0  0  0  0  0
   -3.8059   -0.4509   12.0890 C   0  0  0  0  0  0  0  0  0  0  0  0
   -4.4336    0.5554   12.8736 N   0  0  0  0  0  0  0  0  0  0  0  0
  1  2  1  0
  3  2  1  6
  3  4  1  0
  4  5  1  0
  5  6  1  0
  6  7  1  0
  7  8  1  6
  6  9  1  6
  5 10  1  1
 10 11  1  0
 11 12  2  0
 12 13  1  0
 13 14  2  0
 14 15  1  0
 15 16  2  0
 16 17  1  0
 17 18  2  0
 18 19  1  0
  7  3  1  0
 14 10  1  0
 18 13  1  0
M  END
$$$$
