
     RDKit          3D

 19 21  0  0  0  0  0  0  0  0999 V2000
   -0.3987    2.0195    5.9048 O   0  0  0  0  0  0  0  0  0  0  0  0
    0.4069    0.9126    5.6822 C   0  0  0  0  0  0  0  0  0  0  0  0
    0.0286   -0.2530    6.5618 C   0  0  1  0  0  0  0  0  0  0  0  0
   -0.2741    0.1740    7.8547 O   0  0  0  0  0  0  0  0  0  0  0  0
   -1.0061   -0.8343    8.4529 C   0  0  2  0  0  0  0  0  0  0  0  0
   -1.6375   -1.6521    7.3954 C   0  0  1  0  0  0  0  0  0  0  0  0
   -1.2930   -0.8521    6.1320 C   0  0  2  0  0  0  0  0  0  0  0  0
   -1.1555   -1.6942    5.0382 O   0  0  0  0  0  0  0  0  0  0  0  0
   -0.9702   -2.8784    7.2529 O   0  0  0  0  0  0  0  0  0  0  0  0
   -1.9065   -0.3062    9.4370 N   0  0  0  0  0  0  0  0  0  0  0  0
   -2.2391    1.0045    9.4791 C   0  0  0  0  0  0  0  0  0  0  0  0
   -3.0897    1.1781   10.5024 N   0  0  0  0  0  0  0  0  0  0  0  0
   -3.2912   -0.0002   11.0961 C   0  0  0  0  0  0  0  0  0  0  0  0
   -2.5479   -0.9510   10.4319 C   0  0  0  0  0  0  0  0  0  0  0  0
   -2.5546   -2.2396   10.8116 N   0  0  0  0  0  0  0  0  0  0  0  0
   -3.3128   -2.6107   11.8751 C   0  0  0  0  0  0  0  0  0  0  0  0
   -4.0414   -1.6966   12.5312 N   0  0  0  0  0  0  0  0  0  0  0  0
   -4.0521   -0.4125   12.1749 C   0  0  0  0  0  0  0  0  0  0  0  0
   -4.8200    0.5680   12.8614 N   0  0  0  0  0  0  0  0  0  0  0  0
  1  2  1  0
  3  2  1  6
  3  4  1  0
  4  5  1  0
  5  6  1  0
  6  7  1  0
  7  8  1  6
  6  9  1  6
  5 10  1  1
 10 11  1  0
 11 12  2  0
 12 13  1  0
 13 14  2  0
 14 15  1  0
 15 16  2  0
 16 17  1  0
 17 18  2  0
 18 19  1  0
  7  3  1  0
 14 10  1  0
 18 13  1  0
M  END
$$$$
