
     RDKit          3D

 19 21  0  0  0  0  0  0  0  0999 V2000
   -0.0407    2.1667    6.1593 O   0  0  0  0  0  0  0  0  0  0  0  0
    0.6587    1.0021    5.8800 C   0  0  0  0  0  0  0  0  0  0  0  0
    0.2385   -0.1417    6.7693 C   0  0  1  0  0  0  0  0  0  0  0  0
   -0.1250    0.3171    8.0354 O   0  0  0  0  0  0  0  0  0  0  0  0
   -0.8851   -0.6766    8.6230 C   0  0  2  0  0  0  0  0  0  0  0  0
   -1.4662   -1.5206    7.5573 C   0  0  1  0  0  0  0  0  0  0  0  0
   -1.0616   -0.7519    6.2923 C   0  0  2  0  0  0  0  0  0  0  0  0
   -0.8729   -1.6208    5.2275 O   0  0  0  0  0  0  0  0  0  0  0  0
   -0.7935   -2.7497    7.4770 O   0  0  0  0  0  0  0  0  0  0  0  0
   -1.8310   -0.1248    9.5499 N   0  0  0  0  0  0  0  0  0  0  0  0
   -2.1585    1.1879    9.5488 C   0  0  0  0  0  0  0  0  0  0  0  0
   -3.0583    1.3858   10.5245 N   0  0  0  0  0  0  0  0  0  0  0  0
   -3.2952    0.2207   11.1310 C   0  0  0  0  0  0  0  0  0  0  0  0
   -2.5245   -0.7464   10.5243 C   0  0  0  0  0  0  0  0  0  0  0  0
   -2.5568   -2.0270   10.9291 N   0  0  0  0  0  0  0  0  0  0  0  0
   -3.3690   -2.3731   11.9607 C   0  0  0  0  0  0  0  0  0  0  0  0
   -4.1248   -1.4428   12.5608 N   0  0  0  0  0  0  0  0  0  0  0  0
   -4.1112   -0.1662   12.1785 C   0  0  0  0  0  0  0  0  0  0  0  0
   -4.9074    0.8313   12.8057 N   0  0  0  0  0  0  0  0  0  0  0  0
  1  2  1  0
  3  2  1  6
  3  4  1  0
  4  5  1  0
  5  6  1  0
  6  7  1  0
  7  8  1  6
  6  9  1  6
  5 10  1  6
 10 11  1  0
 11 12  2  0
 12 13  1  0
 13 14  2  0
 14 15  1  0
 15 16  2  0
 16 17  1  0
 17 18  2  0
 18 19  1  0
  7  3  1  0
 14 10  1  0
 18 13  1  0
M  END
$$$$
