
     RDKit          3D

 19 21  0  0  0  0  0  0  0  0999 V2000
   -0.1055    1.8486    5.8008 O   0  0  0  0  0  0  0  0  0  0  0  0
    0.7070    0.7404    5.6122 C   0  0  0  0  0  0  0  0  0  0  0  0
    0.3354   -0.4004    6.5266 C   0  0  1  0  0  0  0  0  0  0  0  0
    0.0293    0.0638    7.8058 O   0  0  0  0  0  0  0  0  0  0  0  0
   -0.6967   -0.9305    8.4340 C   0  0  2  0  0  0  0  0  0  0  0  0
   -1.3225   -1.7838    7.4015 C   0  0  1  0  0  0  0  0  0  0  0  0
   -0.9821   -1.0203    6.1146 C   0  0  2  0  0  0  0  0  0  0  0  0
   -0.8388   -1.8943    5.0469 O   0  0  0  0  0  0  0  0  0  0  0  0
   -0.6475   -3.0097    7.2964 O   0  0  0  0  0  0  0  0  0  0  0  0
   -1.6010   -0.3785    9.4013 N   0  0  0  0  0  0  0  0  0  0  0  0
   -1.9855    0.9182    9.3698 C   0  0  0  0  0  0  0  0  0  0  0  0
   -2.8250    1.1211   10.3969 N   0  0  0  0  0  0  0  0  0  0  0  0
   -2.9686   -0.0253   11.0651 C   0  0  0  0  0  0  0  0  0  0  0  0
   -2.1988   -0.9852   10.4460 C   0  0  0  0  0  0  0  0  0  0  0  0
   -2.1470   -2.2473   10.9037 N   0  0  0  0  0  0  0  0  0  0  0  0
   -2.8714   -2.5815   12.0024 C   0  0  0  0  0  0  0  0  0  0  0  0
   -3.6251   -1.6579   12.6155 N   0  0  0  0  0  0  0  0  0  0  0  0
   -3.6938   -0.3997   12.1817 C   0  0  0  0  0  0  0  0  0  0  0  0
   -4.4890    0.5904   12.8218 N   0  0  0  0  0  0  0  0  0  0  0  0
  1  2  1  0
  3  2  1  6
  3  4  1  0
  4  5  1  0
  5  6  1  0
  6  7  1  0
  7  8  1  6
  6  9  1  6
  5 10  1  1
 10 11  1  0
 11 12  2  0
 12 13  1  0
 13 14  2  0
 14 15  1  0
 15 16  2  0
 16 17  1  0
 17 18  2  0
 18 19  1  0
  7  3  1  0
 14 10  1  0
 18 13  1  0
M  END
$$$$
